data_PCOD9477782
_publ_section_title
;
Structure prediction by ZEFSAII (Michael W. Deem and Ramdas Pophale) SiO2 
 PCOD9477782
Probable space group: C M C A
;
_chemical_formula_sum "Si O2"
_cell_formula_units_Z 80
_cell_length_a 18.977794
_cell_length_b 13.362582
_cell_length_c 17.875561
_cell_angle_alpha 90.000000
_cell_angle_beta 90.000000
_cell_angle_gamma 90.000000
_cell_volume 4533.105137
_symmetry_space_group_name_H-M "C M C A"
_symmetry_group_IT_number 64
_symmetry_cell_setting 'orthorhombic'
loop_
_space_group_symop_operation_xyz
x,y,z
-x,1/2-y,1/2+z
x,-y,-z
-x,1/2+y,1/2-z
-x,-y,-z
x,1/2+y,1/2-z
-x,y,z
x,1/2-y,1/2+z
1/2+x,1/2+y,z
1/2-x,-y,1/2+z
1/2+x,1/2-y,-z
1/2-x,y,1/2-z
1/2-x,1/2-y,-z
1/2+x,y,1/2-z
1/2-x,1/2+y,z
1/2+x,-y,1/2+z
loop_
_atom_site_type_symbol
_atom_site_label
_atom_site_fract_x
_atom_site_fract_y
_atom_site_fract_z
Si Si1 0.649902 0.172307 0.893094
Si Si2 0.148936 0.765706 0.568209
Si Si3 0.285360 0.951151 0.417969
Si Si4 0.774550 0.358247 0.665784
Si Si5 0.000000 0.859655 0.577287
Si Si6 0.000000 0.412742 0.100592
O O1 0.708217 0.085164 0.891034
O O2 0.673887 0.264176 0.842423
O O3 0.572915 0.134150 0.872237
O O4 0.653114 0.210210 0.979574
O O5 0.167674 0.649108 0.580051
O O6 0.208250 0.829408 0.612037
O O7 0.071134 0.798662 0.593220
O O8 0.280986 0.000000 0.500000
O O9 0.309078 0.040024 0.363994
O O10 0.750000 0.369715 0.750000
O O11 0.000000 0.887650 0.488616
O O12 0.000000 0.968765 0.614499
#
# Coordination Sequence:
#
# PCOD9477782 Si02
#       6
#    16  16  16  16   8   8
#     4  10  19  34  57  82 107 142 183 233 274 328
#     4  10  19  35  57  80 108 142 184 230 276 327
#     4  11  18  32  56  79 110 146 184 225 278 329
#     4  11  22  35  54  81 112 143 185 230 280 333
#     4   9  18  32  53  85 110 141 184 233 267 325
#     4   9  18  30  56  84 111 138 188 227 275 325
#
# _framework density 17.647946999999998
#
# number of rings (size 3 to 8) (size 9 to 14) (size 15 to 20)
#    0.000    1.800    4.000    2.400    2.800    3.200 
#    0.000    2.500    0.000    0.000    0.000    0.000 
#    0.000    0.000    0.000    0.000    0.000    0.000 
#
# Total GULP energy -223192.162079 kJ/mol
# GULP energy per Si atom -5579.804052 kJ/mol
# Density = 1.760778 g / cm^3
# Si number density = 17.647947 Si / 1000 Ang^3
#
#
#
# Elastic Constant Matrix: (Units=GPa)
#
#
# Indices 1 2 3 4 5 6 
#
# 1 100.4430 40.0307 -20.1938 0.0000 0.0000 0.0000
# 2 40.0307 121.3146 10.1080 0.0000 0.0000 0.0000
# 3 -20.1938 10.1080 35.6898 0.0000 0.0000 0.0000
# 4 0.0000 0.0000 0.0000 9.1628 0.0000 0.0000
# 5 0.0000 0.0000 0.0000 0.0000 8.8010 0.0000
# 6 0.0000 0.0000 0.0000 0.0000 0.0000 15.9534
#
#
#
# Elastic Compliance Matrix: (Units=1/GPa)
#
#
# Indices 1 2 3 4 5 6 
#
# 1 0.014016 -0.005413 0.009464 0.000000 0.000000 0.000000
# 2 -0.005413 0.010533 -0.006046 0.000000 0.000000 0.000000
# 3 0.009464 -0.006046 0.035086 0.000000 0.000000 0.000000
# 4 0.000000 0.000000 0.000000 0.109136 0.000000 0.000000
# 5 0.000000 0.000000 0.000000 0.000000 0.113623 0.000000
# 6 0.000000 0.000000 0.000000 0.000000 0.000000 0.062683
#
#
# Mechanical properties :
#
#
# Convention : Reuss Voigt Hill
#
# Bulk Modulus (GPa) = 17.97158 35.25968 26.61563
# Shear Modulus (GPa) = 13.60110 21.95029 17.77569
#
# Velocity S-wave (km/s) = 2.77914 3.53056 3.17715
# Velocity P-wave (km/s) = 4.52810 6.05332 5.34539
#
# Compressibility (1/GPa) = 0.05564342
#
# Stress axis : x y z
#
# Youngs Moduli (GPa) = 71.34698 94.93887 28.50121
#
# Poissons Ratio (x) = 0.51395 -0.26973
# Poissons Ratio (y) = 0.38623 0.17232
# Poissons Ratio (z) = -0.67520 0.57402
#
# Static dielectric constant tensor:
#      x y z
#    x 1.598700 0.000000 0.000000 
#    y 0.000000 1.597790 0.000000 
#    z 0.000000 0.000000 1.613870 
# 
# From -- ./inp_files/34054.got.cif
#   From: 2010.05.17/outbox.cif.g08.bks.cpg/sg64_18_cif.got.tgz:34054.got - 2010.06.03 16:29:19.
