data_PCOD9477286
_publ_section_title
;
Structure prediction by ZEFSAII (Michael W. Deem and Ramdas Pophale) SiO2 
 PCOD9477286
Probable space group: C M C A
;
_chemical_formula_sum "Si O2"
_cell_formula_units_Z 96
_cell_length_a 9.196663
_cell_length_b 23.919874
_cell_length_c 26.373731
_cell_angle_alpha 90.000000
_cell_angle_beta 90.000000
_cell_angle_gamma 90.000000
_cell_volume 5801.772999
_symmetry_space_group_name_H-M "C M C A"
_symmetry_group_IT_number 64
_symmetry_cell_setting 'orthorhombic'
loop_
_space_group_symop_operation_xyz
x,y,z
-x,1/2-y,1/2+z
x,-y,-z
-x,1/2+y,1/2-z
-x,-y,-z
x,1/2+y,1/2-z
-x,y,z
x,1/2-y,1/2+z
1/2+x,1/2+y,z
1/2-x,-y,1/2+z
1/2+x,1/2-y,-z
1/2-x,y,1/2-z
1/2-x,1/2-y,-z
1/2+x,y,1/2-z
1/2-x,1/2+y,z
1/2+x,-y,1/2+z
loop_
_atom_site_type_symbol
_atom_site_label
_atom_site_fract_x
_atom_site_fract_y
_atom_site_fract_z
Si Si1 0.333603 0.666292 0.540156
Si Si2 0.327781 0.850714 0.925532
Si Si3 0.174432 0.834734 0.196026
Si Si4 0.827942 0.920705 0.107244
Si Si5 0.168697 0.243820 0.128408
Si Si6 0.174727 0.519776 0.056798
O O1 0.500000 0.643728 0.543604
O O2 0.305681 0.676296 0.481264
O O3 0.225062 0.620704 0.562691
O O4 0.325468 0.719622 0.576522
O O5 0.500000 0.847289 0.914004
O O6 0.237630 0.815803 0.884817
O O7 0.287575 0.915759 0.932297
O O8 0.250000 0.842052 0.250000
O O9 0.207537 0.887141 0.158820
O O10 0.240154 0.779835 0.168727
O O11 0.000000 0.830094 0.200399
O O12 0.000000 0.928882 0.105030
O O13 0.746049 0.978397 0.097335
O O14 0.000000 0.239890 0.143657
O O15 0.000000 0.515170 0.058921
O O16 0.219071 0.500000 0.000000
#
# Coordination Sequence:
#
# PCOD9477286 Si02
#       6
#    16  16  16  16  16  16
#     4   9  17  31  48  68 101 142 177 208 250 306
#     4  10  19  31  48  70 103 144 180 213 250 302
#     4  10  21  38  59  81 103 130 167 215 270 319
#     4  10  20  32  50  78 107 133 170 221 265 304
#     4  10  20  32  50  76 104 135 171 214 262 311
#     4  10  19  33  51  71 103 148 186 213 251 306
#
# _framework density 16.546666999999999
#
# number of rings (size 3 to 8) (size 9 to 14) (size 15 to 20)
#    0.000    2.167    1.667    2.000    0.000    4.333 
#    0.000    0.000    0.000    1.000    0.000    2.333 
#    0.000    0.000    0.000    0.000    0.000    0.000 
#
# Total GULP energy -267721.558154 kJ/mol
# GULP energy per Si atom -5577.532462 kJ/mol
# Density = 1.650901 g / cm^3
# Si number density = 16.546667 Si / 1000 Ang^3
#
#
#
# Elastic Constant Matrix: (Units=GPa)
#
#
# Indices 1 2 3 4 5 6 
#
# 1 61.9287 48.7498 51.7723 0.0000 0.0000 0.0000
# 2 48.7498 85.5840 41.9102 0.0000 0.0000 0.0000
# 3 51.7723 41.9102 85.1660 0.0000 0.0000 0.0000
# 4 0.0000 0.0000 0.0000 13.0169 0.0000 0.0000
# 5 0.0000 0.0000 0.0000 0.0000 25.8358 0.0000
# 6 0.0000 0.0000 0.0000 0.0000 0.0000 30.3906
#
#
#
# Elastic Compliance Matrix: (Units=1/GPa)
#
#
# Indices 1 2 3 4 5 6 
#
# 1 0.045211 -0.016197 -0.019513 0.000000 0.000000 0.000000
# 2 -0.016197 0.021197 -0.000585 0.000000 0.000000 0.000000
# 3 -0.019513 -0.000585 0.023891 0.000000 0.000000 0.000000
# 4 0.000000 0.000000 0.000000 0.076823 0.000000 0.000000
# 5 0.000000 0.000000 0.000000 0.000000 0.038706 0.000000
# 6 0.000000 0.000000 0.000000 0.000000 0.000000 0.032905
#
#
# Mechanical properties :
#
#
# Convention : Reuss Voigt Hill
#
# Bulk Modulus (GPa) = 56.46739 57.50479 56.98609
# Shear Modulus (GPa) = 15.76164 19.86507 17.81336
#
# Velocity S-wave (km/s) = 3.08970 3.46865 3.28465
# Velocity P-wave (km/s) = 6.85044 7.13236 6.99282
#
# Compressibility (1/GPa) = 0.01770934
#
# Stress axis : x y z
#
# Youngs Moduli (GPa) = 22.11872 47.17669 41.85616
#
# Poissons Ratio (x) = 0.76413 0.81673
# Poissons Ratio (y) = 0.35826 0.02448
# Poissons Ratio (z) = 0.43160 0.02759
#
# Static dielectric constant tensor:
#      x y z
#    x 1.556770 0.000000 0.000000 
#    y 0.000000 1.562910 0.000000 
#    z 0.000000 0.000000 1.540110 
# 
# From -- ./inp_files/43010.got.cif
#   From: 2010.05.17/outbox.cif.g08.bks.cpg/sg64_22_cif.got.tgz:43010.got - 2010.06.03 16:29:19.
