data_PCOD9477000
_publ_section_title
;
Structure prediction by ZEFSAII (Michael W. Deem and Ramdas Pophale) SiO2 
 PCOD9477000
Probable space group: C M C A
;
_chemical_formula_sum "Si O2"
_cell_formula_units_Z 112
_cell_length_a 11.761904
_cell_length_b 20.902867
_cell_length_c 20.649243
_cell_angle_alpha 90.000000
_cell_angle_beta 90.000000
_cell_angle_gamma 90.000000
_cell_volume 5076.771570
_symmetry_space_group_name_H-M "C M C A"
_symmetry_group_IT_number 64
_symmetry_cell_setting 'orthorhombic'
loop_
_space_group_symop_operation_xyz
x,y,z
-x,1/2-y,1/2+z
x,-y,-z
-x,1/2+y,1/2-z
-x,-y,-z
x,1/2+y,1/2-z
-x,y,z
x,1/2-y,1/2+z
1/2+x,1/2+y,z
1/2-x,-y,1/2+z
1/2+x,1/2-y,-z
1/2-x,y,1/2-z
1/2-x,1/2-y,-z
1/2+x,y,1/2-z
1/2-x,1/2+y,z
1/2+x,-y,1/2+z
loop_
_atom_site_type_symbol
_atom_site_label
_atom_site_fract_x
_atom_site_fract_y
_atom_site_fract_z
Si Si1 0.875918 0.638654 0.913145
Si Si2 0.767764 0.206600 0.321968
Si Si3 0.293212 0.935583 0.968907
Si Si4 0.373175 0.295104 0.080235
Si Si5 0.626961 0.568362 0.723305
Si Si6 0.874182 0.318679 0.561068
Si Si7 0.372908 0.571161 0.327033
O O1 0.746451 0.667529 0.911101
O O2 0.879802 0.597511 0.848060
O O3 0.000000 0.674516 0.914697
O O4 0.873587 0.594921 0.976998
O O5 0.750000 0.233909 0.250000
O O6 0.864398 0.239881 0.365898
O O7 0.662336 0.212493 0.371389
O O8 0.793039 0.131493 0.314826
O O9 0.204477 0.879456 0.953132
O O10 0.353341 0.950199 0.901158
O O11 0.242751 0.000000 0.000000
O O12 0.500000 0.325931 0.087031
O O13 0.368847 0.275044 0.004017
O O14 0.500000 0.582422 0.753874
O O15 0.750000 0.591297 0.750000
O O16 0.636737 0.491526 0.716879
O O17 0.000000 0.343096 0.567403
O O18 0.500000 0.596279 0.319214
#
# Coordination Sequence:
#
# PCOD9477000 Si02
#       7
#    16  16  16  16  16  16  16
#     4  10  21  37  61  91 119 151 199 253 307 362
#     4  11  23  39  62  89 122 165 214 266 313 378
#     4  10  18  33  60  91 121 152 198 257 308 364
#     4  10  22  42  64  89 124 164 210 260 319 378
#     4  10  21  37  56  81 116 155 196 243 298 363
#     4   9  21  39  59  88 127 167 206 261 322 384
#     4  10  20  35  57  85 119 154 195 249 308 367
#
# _framework density 22.061264000000001
#
# number of rings (size 3 to 8) (size 9 to 14) (size 15 to 20)
#    0.000    2.000    1.429    1.714    0.000    3.714 
#    0.000    9.286    0.000    0.000    0.000    0.000 
#    0.000    0.000    0.000    0.000    0.000    0.000 
#
# Total GULP energy -311756.233009 kJ/mol
# GULP energy per Si atom -5567.075589 kJ/mol
# Density = 2.201105 g / cm^3
# Si number density = 22.061264 Si / 1000 Ang^3
#
#
#
# Elastic Constant Matrix: (Units=GPa)
#
#
# Indices 1 2 3 4 5 6 
#
# 1 172.2692 21.0770 50.1280 0.0000 0.0000 0.0000
# 2 21.0770 33.4936 18.4363 0.0000 0.0000 0.0000
# 3 50.1280 18.4363 126.0681 0.0000 0.0000 0.0000
# 4 0.0000 0.0000 0.0000 22.0835 0.0000 0.0000
# 5 0.0000 0.0000 0.0000 0.0000 17.0961 0.0000
# 6 0.0000 0.0000 0.0000 0.0000 0.0000 4.9502
#
#
#
# Elastic Compliance Matrix: (Units=1/GPa)
#
#
# Indices 1 2 3 4 5 6 
#
# 1 0.006840 -0.003053 -0.002273 0.000000 0.000000 0.000000
# 2 -0.003053 0.033833 -0.003734 0.000000 0.000000 0.000000
# 3 -0.002273 -0.003734 0.009382 0.000000 0.000000 0.000000
# 4 0.000000 0.000000 0.000000 0.045283 0.000000 0.000000
# 5 0.000000 0.000000 0.000000 0.000000 0.058493 0.000000
# 6 0.000000 0.000000 0.000000 0.000000 0.000000 0.202011
#
#
# Mechanical properties :
#
#
# Convention : Reuss Voigt Hill
#
# Bulk Modulus (GPa) = 31.31371 56.79039 44.05205
# Shear Modulus (GPa) = 13.00031 24.97194 18.98612
#
# Velocity S-wave (km/s) = 2.43015 3.36808 2.93680
# Velocity P-wave (km/s) = 4.70095 6.39713 5.61348
#
# Compressibility (1/GPa) = 0.03193489
#
# Stress axis : x y z
#
# Youngs Moduli (GPa) = 146.20148 29.55708 106.58523
#
# Poissons Ratio (x) = 0.09024 0.24230
# Poissons Ratio (y) = 0.44634 0.39797
# Poissons Ratio (z) = 0.33235 0.11036
#
# Static dielectric constant tensor:
#      x y z
#    x 1.845300 0.000000 0.000000 
#    y 0.000000 1.862050 0.000000 
#    z 0.000000 0.000000 1.819400 
# 
# From -- ./inp_files/38466.got.cif
#   From: 2010.05.17/outbox.cif.g08.bks.cpg/sg64_20_cif.got.tgz:38466.got - 2010.06.03 16:29:19.
