data_PCOD9477118
_publ_section_title
;
Structure prediction by ZEFSAII (Michael W. Deem and Ramdas Pophale) SiO2 
 PCOD9477118
Probable space group: C M C A
;
_chemical_formula_sum "Si O2"
_cell_formula_units_Z 116
_cell_length_a 18.650488
_cell_length_b 22.892098
_cell_length_c 14.640563
_cell_angle_alpha 90.000000
_cell_angle_beta 90.000000
_cell_angle_gamma 90.000000
_cell_volume 6250.770790
_symmetry_space_group_name_H-M "C M C A"
_symmetry_group_IT_number 64
_symmetry_cell_setting 'orthorhombic'
loop_
_space_group_symop_operation_xyz
x,y,z
-x,1/2-y,1/2+z
x,-y,-z
-x,1/2+y,1/2-z
-x,-y,-z
x,1/2+y,1/2-z
-x,y,z
x,1/2-y,1/2+z
1/2+x,1/2+y,z
1/2-x,-y,1/2+z
1/2+x,1/2-y,-z
1/2-x,y,1/2-z
1/2-x,1/2-y,-z
1/2+x,y,1/2-z
1/2-x,1/2+y,z
1/2+x,-y,1/2+z
loop_
_atom_site_type_symbol
_atom_site_label
_atom_site_fract_x
_atom_site_fract_y
_atom_site_fract_z
Si Si1 0.622138 0.508087 0.652355
Si Si2 0.721427 0.735029 0.351745
Si Si3 0.081346 0.527445 0.638651
Si Si4 0.080952 0.392492 0.607182
Si Si5 0.000000 0.500000 0.000000
Si Si6 0.310017 0.172668 0.504888
Si Si7 0.329676 0.115865 0.210002
Si Si8 0.737534 0.555251 0.931721
O O1 0.588645 0.519852 0.751931
O O2 0.563357 0.517263 0.574850
O O3 0.644784 0.439546 0.652805
O O4 0.695448 0.544262 0.635353
O O5 0.750000 0.748560 0.250000
O O6 0.686823 0.789515 0.403462
O O7 0.783395 0.713200 0.421300
O O8 0.671956 0.677791 0.340345
O O9 0.084864 0.462397 0.594543
O O10 0.157499 0.556154 0.611591
O O11 0.000000 0.550560 0.617874
O O12 0.116922 0.356863 0.526662
O O13 0.122131 0.379815 0.700433
O O14 0.000000 0.375436 0.618441
O O15 0.256535 0.117627 0.518110
O O16 0.250000 0.104459 0.250000
O O17 0.739848 0.500000 0.000000
#
# Coordination Sequence:
#
# PCOD9477118 Si02
#       8
#    16  16  16  16   4  16  16  16
#     4  11  22  37  58  89 125 161 202 246 303 363
#     4  10  21  39  64  87 115 151 202 259 301 351
#     4  10  21  37  58  88 125 161 190 239 310 364
#     4  10  19  34  60  90 120 151 196 250 295 357
#     4  12  24  36  56  88 128 160 204 256 302 368
#     4  11  22  38  60  92 116 155 202 248 307 357
#     4  10  18  36  64  89 115 157 205 255 296 357
#     4  12  22  35  60  93 121 156 199 249 293 366
#
# _framework density 18.557711000000001
#
# number of rings (size 3 to 8) (size 9 to 14) (size 15 to 20)
#    0.000    1.379    5.517    2.897    0.966    1.931 
#    0.000    0.690    0.000    0.000    0.000    0.000 
#    0.000    0.000    0.000    0.000    0.000    0.000 
#
# Total GULP energy -322997.152620 kJ/mol
# GULP energy per Si atom -5568.916424 kJ/mol
# Density = 1.851547 g / cm^3
# Si number density = 18.557711 Si / 1000 Ang^3
#
#
#
# Elastic Constant Matrix: (Units=GPa)
#
#
# Indices 1 2 3 4 5 6 
#
# 1 140.3533 33.9172 45.9251 0.0000 0.0000 0.0000
# 2 33.9172 33.2202 20.4975 0.0000 0.0000 0.0000
# 3 45.9251 20.4975 88.2965 0.0000 0.0000 0.0000
# 4 0.0000 0.0000 0.0000 35.6227 0.0000 0.0000
# 5 0.0000 0.0000 0.0000 0.0000 26.8644 0.0000
# 6 0.0000 0.0000 0.0000 0.0000 0.0000 12.6662
#
#
#
# Elastic Compliance Matrix: (Units=1/GPa)
#
#
# Indices 1 2 3 4 5 6 
#
# 1 0.010260 -0.008383 -0.003390 0.000000 0.000000 0.000000
# 2 -0.008383 0.041985 -0.005386 0.000000 0.000000 0.000000
# 3 -0.003390 -0.005386 0.014339 0.000000 0.000000 0.000000
# 4 0.000000 0.000000 0.000000 0.028072 0.000000 0.000000
# 5 0.000000 0.000000 0.000000 0.000000 0.037224 0.000000
# 6 0.000000 0.000000 0.000000 0.000000 0.000000 0.078950
#
#
# Mechanical properties :
#
#
# Convention : Reuss Voigt Hill
#
# Bulk Modulus (GPa) = 30.99399 51.39441 41.19420
# Shear Modulus (GPa) = 19.53849 25.79933 22.66891
#
# Velocity S-wave (km/s) = 3.24829 3.73261 3.49884
# Velocity P-wave (km/s) = 5.55033 6.80669 6.21036
#
# Compressibility (1/GPa) = 0.03226432
#
# Stress axis : x y z
#
# Youngs Moduli (GPa) = 97.46441 23.81815 69.73871
#
# Poissons Ratio (x) = 0.19968 0.23644
# Poissons Ratio (y) = 0.81709 0.37562
# Poissons Ratio (z) = 0.33044 0.12829
#
# Static dielectric constant tensor:
#      x y z
#    x 1.640390 0.000000 0.000000 
#    y 0.000000 1.655150 0.000000 
#    z 0.000000 0.000000 1.685040 
# 
# From -- ./inp_files/25780.got.cif
#   From: 2010.05.17/outbox.cif.g08.bks.cpg/sg64_13_cif.got.tgz:25780.got - 2010.06.03 16:29:19.
