data_PCOD9477928
_publ_section_title
;
Structure prediction by ZEFSAII (Michael W. Deem and Ramdas Pophale) SiO2 
 PCOD9477928
Probable space group: C M C A
;
_chemical_formula_sum "Si O2"
_cell_formula_units_Z 96
_cell_length_a 8.873813
_cell_length_b 19.793041
_cell_length_c 27.897980
_cell_angle_alpha 90.000000
_cell_angle_beta 90.000000
_cell_angle_gamma 90.000000
_cell_volume 4899.994080
_symmetry_space_group_name_H-M "C M C A"
_symmetry_group_IT_number 64
_symmetry_cell_setting 'orthorhombic'
loop_
_space_group_symop_operation_xyz
x,y,z
-x,1/2-y,1/2+z
x,-y,-z
-x,1/2+y,1/2-z
-x,-y,-z
x,1/2+y,1/2-z
-x,y,z
x,1/2-y,1/2+z
1/2+x,1/2+y,z
1/2-x,-y,1/2+z
1/2+x,1/2-y,-z
1/2-x,y,1/2-z
1/2-x,1/2-y,-z
1/2+x,y,1/2-z
1/2-x,1/2+y,z
1/2+x,-y,1/2+z
loop_
_atom_site_type_symbol
_atom_site_label
_atom_site_fract_x
_atom_site_fract_y
_atom_site_fract_z
Si Si1 0.176891 0.920469 0.127965
Si Si2 0.680379 0.343744 0.034784
Si Si3 0.178712 0.522460 0.200283
Si Si4 0.823565 0.702213 0.701580
Si Si5 0.320866 0.659956 0.165072
Si Si6 0.678628 0.311734 0.564053
O O1 0.222895 0.899374 0.074329
O O2 0.188758 0.852407 0.159550
O O3 0.000000 0.940251 0.127383
O O4 0.270870 0.976715 0.155485
O O5 0.500000 0.348182 0.026542
O O6 0.708059 0.268577 0.056401
O O7 0.767927 0.347029 0.984886
O O8 0.250000 0.496432 0.250000
O O9 0.243138 0.596967 0.190828
O O10 0.000000 0.523576 0.204716
O O11 0.750000 0.674660 0.750000
O O12 0.737960 0.770447 0.687739
O O13 0.000000 0.716828 0.708857
O O14 0.500000 0.654782 0.169064
O O15 0.269018 0.661983 0.109709
O O16 0.500000 0.320037 0.571952
#
# Coordination Sequence:
#
# PCOD9477928 Si02
#       6
#    16  16  16  16  16  16
#     4  10  21  40  63  89 123 159 200 246 299 357
#     4   9  18  35  59  90 125 161 196 242 299 358
#     4  12  26  44  64  87 120 161 205 250 304 364
#     4  11  22  38  59  88 121 154 196 251 302 355
#     4  12  24  40  62  88 119 159 204 250 303 360
#     4  10  19  35  59  91 125 159 198 247 301 357
#
# _framework density 19.59186
#
# number of rings (size 3 to 8) (size 9 to 14) (size 15 to 20)
#    0.000    1.333    1.667    5.000    0.000    4.000 
#    0.000    0.833    0.000    5.000    0.000    0.000 
#    0.000    0.000    0.000    0.000    0.000    0.000 
#
# Total GULP energy -268443.336841 kJ/mol
# GULP energy per Si atom -5592.569518 kJ/mol
# Density = 1.954727 g / cm^3
# Si number density = 19.591860 Si / 1000 Ang^3
#
#
#
# Elastic Constant Matrix: (Units=GPa)
#
#
# Indices 1 2 3 4 5 6 
#
# 1 107.7935 28.0241 22.7688 0.0000 0.0000 0.0000
# 2 28.0241 44.2225 -3.5832 0.0000 0.0000 0.0000
# 3 22.7688 -3.5832 68.4238 0.0000 0.0000 0.0000
# 4 0.0000 0.0000 0.0000 -28.1932 0.0000 0.0000
# 5 0.0000 0.0000 0.0000 0.0000 35.3973 0.0000
# 6 0.0000 0.0000 0.0000 0.0000 0.0000 27.2899
#
#
#
# Elastic Compliance Matrix: (Units=1/GPa)
#
#
# Indices 1 2 3 4 5 6 
#
# 1 0.012371 -0.008208 -0.004547 0.000000 0.000000 0.000000
# 2 -0.008208 0.028155 0.004206 0.000000 0.000000 0.000000
# 3 -0.004547 0.004206 0.016348 0.000000 0.000000 0.000000
# 4 0.000000 0.000000 0.000000 -0.035470 0.000000 0.000000
# 5 0.000000 0.000000 0.000000 0.000000 0.028251 0.000000
# 6 0.000000 0.000000 0.000000 0.000000 0.000000 0.036644
#
#
# Mechanical properties :
#
#
# Convention : Reuss Voigt Hill
#
# Bulk Modulus (GPa) = 25.14035 34.98435 30.06235
# Shear Modulus (GPa) = 42.86108 18.44748 30.65428
#
# Velocity S-wave (km/s) = 4.68236 3.07186 3.95985
# Velocity P-wave (km/s) = 6.48788 5.52061 6.02369
#
# Compressibility (1/GPa) = 0.03977669
#
# Stress axis : x y z
#
# Youngs Moduli (GPa) = 80.83234 35.51738 61.16976
#
# Poissons Ratio (x) = 0.29153 0.27811
# Poissons Ratio (y) = 0.66348 -0.25727
# Poissons Ratio (z) = 0.36751 -0.14938
#
# Static dielectric constant tensor:
#      x y z
#    x 1.651780 0.000000 0.000000 
#    y 0.000000 1.677470 0.000000 
#    z 0.000000 0.000000 1.742650 
# 
# From -- ./inp_files/48044.got.cif
#   From: 2010.05.17/outbox.cif.g08.bks.cpg/sg64_25_cif.got.tgz:48044.got - 2010.06.03 16:29:19.
