data_PCOD9477962
_publ_section_title
;
Structure prediction by ZEFSAII (Michael W. Deem and Ramdas Pophale) SiO2 
 PCOD9477962
Probable space group: C M C A
;
_chemical_formula_sum "Si O2"
_cell_formula_units_Z 80
_cell_length_a 23.837990
_cell_length_b 9.647253
_cell_length_c 16.303081
_cell_angle_alpha 90.000000
_cell_angle_beta 90.000000
_cell_angle_gamma 90.000000
_cell_volume 3749.237806
_symmetry_space_group_name_H-M "C M C A"
_symmetry_group_IT_number 64
_symmetry_cell_setting 'orthorhombic'
loop_
_space_group_symop_operation_xyz
x,y,z
-x,1/2-y,1/2+z
x,-y,-z
-x,1/2+y,1/2-z
-x,-y,-z
x,1/2+y,1/2-z
-x,y,z
x,1/2-y,1/2+z
1/2+x,1/2+y,z
1/2-x,-y,1/2+z
1/2+x,1/2-y,-z
1/2-x,y,1/2-z
1/2-x,1/2-y,-z
1/2+x,y,1/2-z
1/2-x,1/2+y,z
1/2+x,-y,1/2+z
loop_
_atom_site_type_symbol
_atom_site_label
_atom_site_fract_x
_atom_site_fract_y
_atom_site_fract_z
Si Si1 0.651580 0.876302 0.055018
Si Si2 0.190003 0.737535 0.291101
Si Si3 0.619232 0.038367 0.687883
Si Si4 0.440876 0.034361 0.158388
Si Si5 0.065204 0.197122 0.946382
O O1 0.693651 0.806489 0.118738
O O2 0.608457 0.958723 0.112332
O O3 0.610826 0.768778 0.006812
O O4 0.677029 0.000000 0.000000
O O5 0.250000 0.723166 0.250000
O O6 0.161585 0.589653 0.305974
O O7 0.151195 0.831230 0.230448
O O8 0.568150 0.992193 0.746503
O O9 0.594626 0.067666 0.598022
O O10 0.500000 0.974139 0.129773
O O11 0.439711 0.192113 0.128810
O O12 0.000000 0.176981 0.975396
#
# Coordination Sequence:
#
# PCOD9477962 Si02
#       5
#    16  16  16  16  16
#     4   9  20  39  65  96 134 167 211 266 329 400
#     4  11  24  43  68  88 121 173 224 279 324 370
#     4  11  21  39  62  94 129 166 225 271 313 380
#     4   9  17  33  59  92 132 176 211 250 318 393
#     4  10  19  35  62  97 136 172 209 258 325 394
#
# _framework density 21.337669999999999
#
# number of rings (size 3 to 8) (size 9 to 14) (size 15 to 20)
#    0.000    2.000    2.000    1.800    0.000    3.200 
#    0.000    5.000    0.000    0.000    0.000    0.000 
#    0.000    0.000    0.000    0.000    0.000    0.000 
#
# Total GULP energy -223055.459792 kJ/mol
# GULP energy per Si atom -5576.386495 kJ/mol
# Density = 2.128910 g / cm^3
# Si number density = 21.337670 Si / 1000 Ang^3
#
#
#
# Elastic Constant Matrix: (Units=GPa)
#
#
# Indices 1 2 3 4 5 6 
#
# 1 73.8630 41.6443 26.4723 0.0000 0.0000 0.0000
# 2 41.6443 84.1676 31.7795 0.0000 0.0000 0.0000
# 3 26.4723 31.7795 78.3474 0.0000 0.0000 0.0000
# 4 0.0000 0.0000 0.0000 33.5399 0.0000 0.0000
# 5 0.0000 0.0000 0.0000 0.0000 -15.6930 0.0000
# 6 0.0000 0.0000 0.0000 0.0000 0.0000 32.5864
#
#
#
# Elastic Compliance Matrix: (Units=1/GPa)
#
#
# Indices 1 2 3 4 5 6 
#
# 1 0.019411 -0.008417 -0.003145 0.000000 0.000000 0.000000
# 2 -0.008417 0.017679 -0.004327 0.000000 0.000000 0.000000
# 3 -0.003145 -0.004327 0.015581 0.000000 0.000000 0.000000
# 4 0.000000 0.000000 0.000000 0.029815 0.000000 0.000000
# 5 0.000000 0.000000 0.000000 0.000000 -0.063723 0.000000
# 6 0.000000 0.000000 0.000000 0.000000 0.000000 0.030688
#
#
# Mechanical properties :
#
#
# Convention : Reuss Voigt Hill
#
# Bulk Modulus (GPa) = 47.85963 48.46335 48.16149
# Shear Modulus (GPa) = 56.69289 19.18544 37.93916
#
# Velocity S-wave (km/s) = 5.16014 3.00181 4.22125
# Velocity P-wave (km/s) = 7.61453 5.89715 6.81019
#
# Compressibility (1/GPa) = 0.02089444
#
# Stress axis : x y z
#
# Youngs Moduli (GPa) = 51.51707 56.56306 64.17898
#
# Poissons Ratio (x) = 0.47608 0.20182
# Poissons Ratio (y) = 0.43361 0.27772
# Poissons Ratio (z) = 0.16200 0.24476
#
# Static dielectric constant tensor:
#      x y z
#    x 1.767340 0.000000 0.000000 
#    y 0.000000 1.837110 0.000000 
#    z 0.000000 0.000000 1.832240 
# 
# From -- ./inp_files/27070.got.cif
#   From: 2010.05.17/outbox.cif.g08.bks.cpg/sg64_14_cif.got.tgz:27070.got - 2010.06.03 16:29:19.
