data_PCOD9477022
_publ_section_title
;
Structure prediction by ZEFSAII (Michael W. Deem and Ramdas Pophale) SiO2 
 PCOD9477022
Probable space group: C M C A
;
_chemical_formula_sum "Si O2"
_cell_formula_units_Z 80
_cell_length_a 13.354185
_cell_length_b 18.232025
_cell_length_c 18.060024
_cell_angle_alpha 90.000000
_cell_angle_beta 90.000000
_cell_angle_gamma 90.000000
_cell_volume 4397.143299
_symmetry_space_group_name_H-M "C M C A"
_symmetry_group_IT_number 64
_symmetry_cell_setting 'orthorhombic'
loop_
_space_group_symop_operation_xyz
x,y,z
-x,1/2-y,1/2+z
x,-y,-z
-x,1/2+y,1/2-z
-x,-y,-z
x,1/2+y,1/2-z
-x,y,z
x,1/2-y,1/2+z
1/2+x,1/2+y,z
1/2-x,-y,1/2+z
1/2+x,1/2-y,-z
1/2-x,y,1/2-z
1/2-x,1/2-y,-z
1/2+x,y,1/2-z
1/2-x,1/2+y,z
1/2+x,-y,1/2+z
loop_
_atom_site_type_symbol
_atom_site_label
_atom_site_fract_x
_atom_site_fract_y
_atom_site_fract_z
Si Si1 0.616428 0.176934 0.805800
Si Si2 0.879828 0.469941 0.581171
Si Si3 0.112747 0.257133 0.449842
Si Si4 0.681365 0.384096 0.147302
Si Si5 0.313125 0.695211 0.106102
O O1 0.500000 0.165727 0.823927
O O2 0.636907 0.152029 0.721710
O O3 0.699629 0.131346 0.851915
O O4 0.647475 0.261305 0.822153
O O5 0.847964 0.500000 0.500000
O O6 0.843868 0.531213 0.639116
O O7 0.839217 0.389705 0.600470
O O8 0.000000 0.466211 0.581305
O O9 0.130699 0.339429 0.419421
O O10 0.195669 0.208981 0.408209
O O11 0.134535 0.262501 0.536989
O O12 0.000000 0.233804 0.435575
#
# Coordination Sequence:
#
# PCOD9477022 Si02
#       5
#    16  16  16  16  16
#     4  10  20  37  56  79 113 152 186 224 276 335
#     4  11  20  34  57  84 112 141 183 241 285 320
#     4  10  18  34  56  81 111 146 185 229 273 324
#     4  10  21  35  57  84 112 147 189 230 277 335
#     4  10  21  33  55  86 112 141 188 232 274 333
#
# _framework density 18.193629999999999
#
# number of rings (size 3 to 8) (size 9 to 14) (size 15 to 20)
#    0.000    1.800    2.000    3.600    0.000    0.000 
#    0.000    9.000    0.000    1.200    0.000    0.000 
#    0.000    0.000    0.000    0.000    0.000    0.000 
#
# Total GULP energy -223180.773754 kJ/mol
# GULP energy per Si atom -5579.519344 kJ/mol
# Density = 1.815222 g / cm^3
# Si number density = 18.193630 Si / 1000 Ang^3
#
#
#
# Elastic Constant Matrix: (Units=GPa)
#
#
# Indices 1 2 3 4 5 6 
#
# 1 161.7799 51.6129 17.8877 0.0000 0.0000 0.0000
# 2 51.6129 146.6894 38.0219 0.0000 0.0000 0.0000
# 3 17.8877 38.0219 65.0139 0.0000 0.0000 0.0000
# 4 0.0000 0.0000 0.0000 25.0402 0.0000 0.0000
# 5 0.0000 0.0000 0.0000 0.0000 12.4537 0.0000
# 6 0.0000 0.0000 0.0000 0.0000 0.0000 9.3395
#
#
#
# Elastic Compliance Matrix: (Units=1/GPa)
#
#
# Indices 1 2 3 4 5 6 
#
# 1 0.006981 -0.002308 -0.000571 0.000000 0.000000 0.000000
# 2 -0.002308 0.008798 -0.004510 0.000000 0.000000 0.000000
# 3 -0.000571 -0.004510 0.018176 0.000000 0.000000 0.000000
# 4 0.000000 0.000000 0.000000 0.039936 0.000000 0.000000
# 5 0.000000 0.000000 0.000000 0.000000 0.080298 0.000000
# 6 0.000000 0.000000 0.000000 0.000000 0.000000 0.107073
#
#
# Mechanical properties :
#
#
# Convention : Reuss Voigt Hill
#
# Bulk Modulus (GPa) = 52.14726 65.39201 58.76964
# Shear Modulus (GPa) = 17.70335 27.09739 22.40037
#
# Velocity S-wave (km/s) = 3.12276 3.86345 3.51268
# Velocity P-wave (km/s) = 6.45963 7.47810 6.98744
#
# Compressibility (1/GPa) = 0.01917646
#
# Stress axis : x y z
#
# Youngs Moduli (GPa) = 143.25108 113.65707 55.01705
#
# Poissons Ratio (x) = 0.26235 0.03140
# Poissons Ratio (y) = 0.33066 0.24815
# Poissons Ratio (z) = 0.08176 0.51264
#
# Static dielectric constant tensor:
#      x y z
#    x 1.635820 0.000000 0.000000 
#    y 0.000000 1.608790 0.000000 
#    z 0.000000 0.000000 1.683100 
# 
# From -- ./inp_files/32073.got.cif
#   From: 2010.05.17/outbox.cif.g08.bks.cpg/sg64_17_cif.got.tgz:32073.got - 2010.06.03 16:29:19.
