data_PCOD9477330
_publ_section_title
;
Structure prediction by ZEFSAII (Michael W. Deem and Ramdas Pophale) SiO2 
 PCOD9477330
Probable space group: C M C A
;
_chemical_formula_sum "Si O2"
_cell_formula_units_Z 88
_cell_length_a 21.131738
_cell_length_b 10.781238
_cell_length_c 21.588380
_cell_angle_alpha 90.000000
_cell_angle_beta 90.000000
_cell_angle_gamma 90.000000
_cell_volume 4918.400668
_symmetry_space_group_name_H-M "C M C A"
_symmetry_group_IT_number 64
_symmetry_cell_setting 'orthorhombic'
loop_
_space_group_symop_operation_xyz
x,y,z
-x,1/2-y,1/2+z
x,-y,-z
-x,1/2+y,1/2-z
-x,-y,-z
x,1/2+y,1/2-z
-x,y,z
x,1/2-y,1/2+z
1/2+x,1/2+y,z
1/2-x,-y,1/2+z
1/2+x,1/2-y,-z
1/2-x,y,1/2-z
1/2-x,1/2-y,-z
1/2+x,y,1/2-z
1/2-x,1/2+y,z
1/2+x,-y,1/2+z
loop_
_atom_site_type_symbol
_atom_site_label
_atom_site_fract_x
_atom_site_fract_y
_atom_site_fract_z
Si Si1 0.756462 0.929874 0.882458
Si Si2 0.111988 0.571416 0.437382
Si Si3 0.571996 0.161141 0.639861
Si Si4 0.708740 0.186398 0.687523
Si Si5 0.930434 0.798814 0.509627
Si Si6 0.827370 0.500000 0.000000
O O1 0.825147 0.882416 0.903954
O O2 0.724486 0.816683 0.846039
O O3 0.768850 0.060025 0.847032
O O4 0.715253 0.964602 0.941957
O O5 0.133091 0.500000 0.500000
O O6 0.078149 0.474495 0.392004
O O7 0.070410 0.681152 0.464236
O O8 0.500000 0.177697 0.663772
O O9 0.631436 0.177658 0.686307
O O10 0.580719 0.252183 0.580302
O O11 0.750000 0.188698 0.750000
O O12 0.874330 0.886128 0.488129
O O13 0.000000 0.856186 0.507866
#
# Coordination Sequence:
#
# PCOD9477330 Si02
#       6
#    16  16  16  16  16   8
#     4  11  22  36  59  86 115 149 190 240 291 338
#     4   9  17  30  53  83 114 146 182 225 276 343
#     4   9  18  34  57  82 109 148 192 233 281 337
#     4  11  23  40  60  82 113 153 199 243 285 337
#     4  10  19  31  49  81 122 154 178 217 282 352
#     4  12  21  32  54  84 123 146 188 230 294 350
#
# _framework density 17.891994
#
# number of rings (size 3 to 8) (size 9 to 14) (size 15 to 20)
#    0.000    1.818    2.727    2.455    0.000    3.636 
#    0.000    0.000    0.000   15.273    0.000    0.000 
#    0.000    0.000    0.000    0.000    0.000    0.000 
#
# Total GULP energy -245127.769678 kJ/mol
# GULP energy per Si atom -5571.085674 kJ/mol
# Density = 1.785127 g / cm^3
# Si number density = 17.891994 Si / 1000 Ang^3
#
#
#
# Elastic Constant Matrix: (Units=GPa)
#
#
# Indices 1 2 3 4 5 6 
#
# 1 143.6955 38.9898 55.6129 0.0000 0.0000 0.0000
# 2 38.9898 76.0488 26.7567 0.0000 0.0000 0.0000
# 3 55.6129 26.7567 75.2338 0.0000 0.0000 0.0000
# 4 0.0000 0.0000 0.0000 13.0737 0.0000 0.0000
# 5 0.0000 0.0000 0.0000 0.0000 22.2045 0.0000
# 6 0.0000 0.0000 0.0000 0.0000 0.0000 70.8122
#
#
#
# Elastic Compliance Matrix: (Units=1/GPa)
#
#
# Indices 1 2 3 4 5 6 
#
# 1 0.010305 -0.002976 -0.006559 0.000000 0.000000 0.000000
# 2 -0.002976 0.015889 -0.003451 0.000000 0.000000 0.000000
# 3 -0.006559 -0.003451 0.019368 0.000000 0.000000 0.000000
# 4 0.000000 0.000000 0.000000 0.076489 0.000000 0.000000
# 5 0.000000 0.000000 0.000000 0.000000 0.045036 0.000000
# 6 0.000000 0.000000 0.000000 0.000000 0.000000 0.014122
#
#
# Mechanical properties :
#
#
# Convention : Reuss Voigt Hill
#
# Bulk Modulus (GPa) = 51.04684 59.74410 55.39547
# Shear Modulus (GPa) = 23.39595 32.79266 28.09430
#
# Velocity S-wave (km/s) = 3.62003 4.28578 3.96689
# Velocity P-wave (km/s) = 6.78714 7.61279 7.21179
#
# Compressibility (1/GPa) = 0.01958985
#
# Stress axis : x y z
#
# Youngs Moduli (GPa) = 97.03917 62.93513 51.63139
#
# Poissons Ratio (x) = 0.18727 0.33867
# Poissons Ratio (y) = 0.28875 0.17820
# Poissons Ratio (z) = 0.63651 0.21722
#
# Static dielectric constant tensor:
#      x y z
#    x 1.626280 0.000000 0.000000 
#    y 0.000000 1.632310 0.000000 
#    z 0.000000 0.000000 1.595410 
# 
# From -- ./inp_files/40030.got.cif
#   From: 2010.05.17/outbox.cif.g08.bks.cpg/sg64_21_cif.got.tgz:40030.got - 2010.06.03 16:29:19.
