data_PCOD9477296
_publ_section_title
;
Structure prediction by ZEFSAII (Michael W. Deem and Ramdas Pophale) SiO2 
 PCOD9477296
Probable space group: C M C A
;
_chemical_formula_sum "Si O2"
_cell_formula_units_Z 96
_cell_length_a 8.998557
_cell_length_b 24.304913
_cell_length_c 26.266325
_cell_angle_alpha 90.000000
_cell_angle_beta 90.000000
_cell_angle_gamma 90.000000
_cell_volume 5744.685483
_symmetry_space_group_name_H-M "C M C A"
_symmetry_group_IT_number 64
_symmetry_cell_setting 'orthorhombic'
loop_
_space_group_symop_operation_xyz
x,y,z
-x,1/2-y,1/2+z
x,-y,-z
-x,1/2+y,1/2-z
-x,-y,-z
x,1/2+y,1/2-z
-x,y,z
x,1/2-y,1/2+z
1/2+x,1/2+y,z
1/2-x,-y,1/2+z
1/2+x,1/2-y,-z
1/2-x,y,1/2-z
1/2-x,1/2-y,-z
1/2+x,y,1/2-z
1/2-x,1/2+y,z
1/2+x,-y,1/2+z
loop_
_atom_site_type_symbol
_atom_site_label
_atom_site_fract_x
_atom_site_fract_y
_atom_site_fract_z
Si Si1 0.828248 0.179832 0.965988
Si Si2 0.822300 0.332498 0.194799
Si Si3 0.171027 0.915237 0.119206
Si Si4 0.677538 0.640016 0.430299
Si Si5 0.178435 0.512235 0.058776
Si Si6 0.177426 0.739678 0.387557
O O1 0.827439 0.128501 0.927181
O O2 0.743773 0.228187 0.936377
O O3 0.000000 0.194970 0.976258
O O4 0.745275 0.160833 0.016443
O O5 0.750000 0.328544 0.250000
O O6 0.759053 0.385155 0.164405
O O7 0.786287 0.278564 0.160554
O O8 0.000000 0.336366 0.198361
O O9 0.000000 0.924567 0.133987
O O10 0.245135 0.969976 0.097155
O O11 0.500000 0.646413 0.430513
O O12 0.712186 0.575286 0.426977
O O13 0.749411 0.679598 0.388008
O O14 0.000000 0.504534 0.060796
O O15 0.224050 0.500000 0.000000
O O16 0.000000 0.735728 0.391749
#
# Coordination Sequence:
#
# PCOD9477296 Si02
#       6
#    16  16  16  16  16  16
#     4  10  19  31  48  72 104 140 177 216 256 307
#     4  10  21  38  61  83 105 133 169 218 274 323
#     4  10  20  33  53  80 108 139 179 223 264 310
#     4  11  21  32  49  72 104 145 181 215 257 308
#     4  10  20  34  51  73 107 148 185 220 262 313
#     4  10  21  35  51  74 104 136 171 215 265 316
#
# _framework density 16.711096999999999
#
# number of rings (size 3 to 8) (size 9 to 14) (size 15 to 20)
#    0.000    1.833    1.667    3.000    0.000    5.000 
#    0.000    0.000    0.000    1.000    0.000    2.333 
#    0.000    0.000    0.000    0.000    0.000    0.000 
#
# Total GULP energy -267991.184741 kJ/mol
# GULP energy per Si atom -5583.149682 kJ/mol
# Density = 1.667306 g / cm^3
# Si number density = 16.711097 Si / 1000 Ang^3
#
#
#
# Elastic Constant Matrix: (Units=GPa)
#
#
# Indices 1 2 3 4 5 6 
#
# 1 87.0462 76.0231 53.0286 0.0000 0.0000 0.0000
# 2 76.0231 140.9696 60.4022 0.0000 0.0000 0.0000
# 3 53.0286 60.4022 95.1200 0.0000 0.0000 0.0000
# 4 0.0000 0.0000 0.0000 10.1047 0.0000 0.0000
# 5 0.0000 0.0000 0.0000 0.0000 28.3282 0.0000
# 6 0.0000 0.0000 0.0000 0.0000 0.0000 31.3486
#
#
#
# Elastic Compliance Matrix: (Units=1/GPa)
#
#
# Indices 1 2 3 4 5 6 
#
# 1 0.024997 -0.010316 -0.007384 0.000000 0.000000 0.000000
# 2 -0.010316 0.014003 -0.003141 0.000000 0.000000 0.000000
# 3 -0.007384 -0.003141 0.016624 0.000000 0.000000 0.000000
# 4 0.000000 0.000000 0.000000 0.098964 0.000000 0.000000
# 5 0.000000 0.000000 0.000000 0.000000 0.035300 0.000000
# 6 0.000000 0.000000 0.000000 0.000000 0.000000 0.031899
#
#
# Mechanical properties :
#
#
# Convention : Reuss Voigt Hill
#
# Bulk Modulus (GPa) = 71.73209 78.00486 74.86847
# Shear Modulus (GPa) = 18.64854 22.86844 20.75849
#
# Velocity S-wave (km/s) = 3.34419 3.70328 3.52831
# Velocity P-wave (km/s) = 7.61114 8.06632 7.84203
#
# Compressibility (1/GPa) = 0.01394076
#
# Stress axis : x y z
#
# Youngs Moduli (GPa) = 40.00527 71.41365 60.15313
#
# Poissons Ratio (x) = 0.73673 0.44420
# Poissons Ratio (y) = 0.41271 0.18893
# Poissons Ratio (z) = 0.29542 0.22429
#
# Static dielectric constant tensor:
#      x y z
#    x 1.561510 0.000000 0.000000 
#    y 0.000000 1.574430 0.000000 
#    z 0.000000 0.000000 1.538730 
# 
# From -- ./inp_files/43015.got.cif
#   From: 2010.05.17/outbox.cif.g08.bks.cpg/sg64_22_cif.got.tgz:43015.got - 2010.06.03 16:29:19.
