data_PCOD9477812
_publ_section_title
;
Structure prediction by ZEFSAII (Michael W. Deem and Ramdas Pophale) SiO2 
 PCOD9477812
Probable space group: C M C A
;
_chemical_formula_sum "Si O2"
_cell_formula_units_Z 80
_cell_length_a 10.812162
_cell_length_b 13.872306
_cell_length_c 26.364025
_cell_angle_alpha 90.000000
_cell_angle_beta 90.000000
_cell_angle_gamma 90.000000
_cell_volume 3954.330086
_symmetry_space_group_name_H-M "C M C A"
_symmetry_group_IT_number 64
_symmetry_cell_setting 'orthorhombic'
loop_
_space_group_symop_operation_xyz
x,y,z
-x,1/2-y,1/2+z
x,-y,-z
-x,1/2+y,1/2-z
-x,-y,-z
x,1/2+y,1/2-z
-x,y,z
x,1/2-y,1/2+z
1/2+x,1/2+y,z
1/2-x,-y,1/2+z
1/2+x,1/2-y,-z
1/2-x,y,1/2-z
1/2-x,1/2-y,-z
1/2+x,y,1/2-z
1/2-x,1/2+y,z
1/2+x,-y,1/2+z
loop_
_atom_site_type_symbol
_atom_site_label
_atom_site_fract_x
_atom_site_fract_y
_atom_site_fract_z
Si Si1 0.860123 0.051818 0.142255
Si Si2 0.230803 0.154845 0.871613
Si Si3 0.144316 0.105348 0.522543
Si Si4 0.362490 0.344251 0.586707
Si Si5 0.362549 0.267180 0.788009
O O1 0.750184 0.090945 0.106568
O O2 0.856035 0.123575 0.190281
O O3 0.000000 0.061302 0.120837
O O4 0.832072 0.939774 0.151599
O O5 0.280263 0.129135 0.927544
O O6 0.143045 0.246289 0.881306
O O7 0.338291 0.195953 0.835429
O O8 0.157063 0.173171 0.473187
O O9 0.000000 0.105564 0.536642
O O10 0.175257 0.000000 0.500000
O O11 0.500000 0.388670 0.592101
O O12 0.500000 0.251736 0.766683
O O13 0.250000 0.251487 0.750000
#
# Coordination Sequence:
#
# PCOD9477812 Si02
#       5
#    16  16  16  16  16
#     4  10  22  40  61  89 123 158 200 253 308 361
#     4  11  21  38  64  93 123 159 208 258 307 362
#     4  10  19  34  58  90 130 170 207 244 298 368
#     4  10  21  37  59  89 126 168 207 246 295 358
#     4  10  24  44  65  89 119 156 200 256 317 374
#
# _framework density 20.230988
#
# number of rings (size 3 to 8) (size 9 to 14) (size 15 to 20)
#    0.000    1.800    2.000    1.800    0.000    6.400 
#    0.000    5.000    0.000    0.000    0.000    0.000 
#    0.000    0.000    0.000    0.000    0.000    0.000 
#
# Total GULP energy -223078.218497 kJ/mol
# GULP energy per Si atom -5576.955462 kJ/mol
# Density = 2.018494 g / cm^3
# Si number density = 20.230988 Si / 1000 Ang^3
#
#
#
# Elastic Constant Matrix: (Units=GPa)
#
#
# Indices 1 2 3 4 5 6 
#
# 1 142.3243 37.3462 34.6686 0.0000 0.0000 0.0000
# 2 37.3462 92.1348 6.1126 0.0000 0.0000 0.0000
# 3 34.6686 6.1126 40.3387 0.0000 0.0000 0.0000
# 4 0.0000 0.0000 0.0000 15.8786 0.0000 0.0000
# 5 0.0000 0.0000 0.0000 0.0000 26.3049 0.0000
# 6 0.0000 0.0000 0.0000 0.0000 0.0000 13.5414
#
#
#
# Elastic Compliance Matrix: (Units=1/GPa)
#
#
# Indices 1 2 3 4 5 6 
#
# 1 0.009878 -0.003476 -0.007963 0.000000 0.000000 0.000000
# 2 -0.003476 0.012187 0.001140 0.000000 0.000000 0.000000
# 3 -0.007963 0.001140 0.031461 0.000000 0.000000 0.000000
# 4 0.000000 0.000000 0.000000 0.062978 0.000000 0.000000
# 5 0.000000 0.000000 0.000000 0.000000 0.038016 0.000000
# 6 0.000000 0.000000 0.000000 0.000000 0.000000 0.073848
#
#
# Mechanical properties :
#
#
# Convention : Reuss Voigt Hill
#
# Bulk Modulus (GPa) = 30.36792 47.89474 39.13133
# Shear Modulus (GPa) = 19.23527 24.25633 21.74580
#
# Velocity S-wave (km/s) = 3.08682 3.46637 3.28209
# Velocity P-wave (km/s) = 5.26762 6.30447 5.80922
#
# Compressibility (1/GPa) = 0.03292949
#
# Stress axis : x y z
#
# Youngs Moduli (GPa) = 101.23664 82.05578 31.78567
#
# Poissons Ratio (x) = 0.28520 0.25310
# Poissons Ratio (y) = 0.35186 -0.03625
# Poissons Ratio (z) = 0.80612 -0.09358
#
# Static dielectric constant tensor:
#      x y z
#    x 1.711540 0.000000 0.000000 
#    y 0.000000 1.755640 0.000000 
#    z 0.000000 0.000000 1.716740 
# 
# From -- ./inp_files/43929.got.cif
#   From: 2010.05.17/outbox.cif.g08.bks.cpg/sg64_22_cif.got.tgz:43929.got - 2010.06.03 16:29:19.
