data_PCOD9477838
_publ_section_title
;
Structure prediction by ZEFSAII (Michael W. Deem and Ramdas Pophale) SiO2 
 PCOD9477838
Probable space group: C M C A
;
_chemical_formula_sum "Si O2"
_cell_formula_units_Z 80
_cell_length_a 15.316150
_cell_length_b 8.635853
_cell_length_c 24.157430
_cell_angle_alpha 90.000000
_cell_angle_beta 90.000000
_cell_angle_gamma 90.000000
_cell_volume 3195.255433
_symmetry_space_group_name_H-M "C M C A"
_symmetry_group_IT_number 64
_symmetry_cell_setting 'orthorhombic'
loop_
_space_group_symop_operation_xyz
x,y,z
-x,1/2-y,1/2+z
x,-y,-z
-x,1/2+y,1/2-z
-x,-y,-z
x,1/2+y,1/2-z
-x,y,z
x,1/2-y,1/2+z
1/2+x,1/2+y,z
1/2-x,-y,1/2+z
1/2+x,1/2-y,-z
1/2-x,y,1/2-z
1/2-x,1/2-y,-z
1/2+x,y,1/2-z
1/2-x,1/2+y,z
1/2+x,-y,1/2+z
loop_
_atom_site_type_symbol
_atom_site_label
_atom_site_fract_x
_atom_site_fract_y
_atom_site_fract_z
Si Si1 0.893342 0.804517 0.783837
Si Si2 0.405718 0.824230 0.936483
Si Si3 0.219430 0.406079 0.550869
Si Si4 0.342801 0.119433 0.886541
Si Si5 0.604177 0.858151 0.323662
O O1 0.857696 0.670106 0.824063
O O2 0.864170 0.767154 0.721398
O O3 0.000000 0.799400 0.786997
O O4 0.864185 0.971835 0.806049
O O5 0.500000 0.789648 0.963020
O O6 0.314119 0.835424 0.969314
O O7 0.389025 0.708901 0.885369
O O8 0.410731 0.995444 0.909519
O O9 0.179326 0.500000 0.500000
O O10 0.255292 0.524852 0.597633
O O11 0.160283 0.279369 0.579669
O O12 0.500000 0.868217 0.315496
#
# Coordination Sequence:
#
# PCOD9477838 Si02
#       5
#    16  16  16  16  16
#     4  10  19  34  60  90 121 158 200 243 292 357
#     4   9  20  37  62  90 117 151 199 249 291 350
#     4  10  23  41  63  83 116 165 202 247 308 361
#     4  10  22  36  63  83 120 151 202 243 298 362
#     4   9  18  33  58  89 123 158 194 239 299 359
#
# _framework density 25.037122
#
# number of rings (size 3 to 8) (size 9 to 14) (size 15 to 20)
#    1.200    1.200    0.000    2.400    2.800    3.600 
#    0.000    1.000    4.400    2.400    0.000    0.000 
#    0.000    0.000    0.000    0.000    0.000    0.000 
#
# Total GULP energy -223265.688728 kJ/mol
# GULP energy per Si atom -5581.642218 kJ/mol
# Density = 2.498014 g / cm^3
# Si number density = 25.037122 Si / 1000 Ang^3
#
#
#
# Elastic Constant Matrix: (Units=GPa)
#
#
# Indices 1 2 3 4 5 6 
#
# 1 71.7239 23.4992 15.5405 0.0000 0.0000 0.0000
# 2 23.4992 108.8366 -4.5435 0.0000 0.0000 0.0000
# 3 15.5405 -4.5435 43.6764 0.0000 0.0000 0.0000
# 4 0.0000 0.0000 0.0000 42.9523 0.0000 0.0000
# 5 0.0000 0.0000 0.0000 0.0000 26.3542 0.0000
# 6 0.0000 0.0000 0.0000 0.0000 0.0000 -9.8846
#
#
#
# Elastic Compliance Matrix: (Units=1/GPa)
#
#
# Indices 1 2 3 4 5 6 
#
# 1 0.016564 -0.003839 -0.006293 0.000000 0.000000 0.000000
# 2 -0.003839 0.010118 0.002418 0.000000 0.000000 0.000000
# 3 -0.006293 0.002418 0.025386 0.000000 0.000000 0.000000
# 4 0.000000 0.000000 0.000000 0.023282 0.000000 0.000000
# 5 0.000000 0.000000 0.000000 0.000000 0.037945 0.000000
# 6 0.000000 0.000000 0.000000 0.000000 0.000000 -0.101167
#
#
# Mechanical properties :
#
#
# Convention : Reuss Voigt Hill
#
# Bulk Modulus (GPa) = 27.29176 32.58106 29.93641
# Shear Modulus (GPa) = 125.73191 24.53375 75.13283
#
# Velocity S-wave (km/s) = 7.09417 3.13372 5.48395
# Velocity P-wave (km/s) = 8.83330 5.11224 7.21672
#
# Compressibility (1/GPa) = 0.03664109
#
# Stress axis : x y z
#
# Youngs Moduli (GPa) = 60.37327 98.83444 39.39133
#
# Poissons Ratio (x) = 0.37942 0.24788
# Poissons Ratio (y) = 0.23177 -0.09527
# Poissons Ratio (z) = 0.37992 -0.23903
#
# Static dielectric constant tensor:
#      x y z
#    x 2.220640 0.000000 0.000000 
#    y 0.000000 2.006180 0.000000 
#    z 0.000000 0.000000 2.005880 
# 
# From -- ./inp_files/44916.got.cif
#   From: 2010.05.17/outbox.cif.g08.bks.cpg/sg64_23_cif.got.tgz:44916.got - 2010.06.03 16:29:19.
