data_PCOD9477594
_publ_section_title
;
Structure prediction by ZEFSAII (Michael W. Deem and Ramdas Pophale) SiO2 
 PCOD9477594
Probable space group: C M C A
;
_chemical_formula_sum "Si O2"
_cell_formula_units_Z 116
_cell_length_a 9.330856
_cell_length_b 25.084064
_cell_length_c 28.559257
_cell_angle_alpha 90.000000
_cell_angle_beta 90.000000
_cell_angle_gamma 90.000000
_cell_volume 6684.459433
_symmetry_space_group_name_H-M "C M C A"
_symmetry_group_IT_number 64
_symmetry_cell_setting 'orthorhombic'
loop_
_space_group_symop_operation_xyz
x,y,z
-x,1/2-y,1/2+z
x,-y,-z
-x,1/2+y,1/2-z
-x,-y,-z
x,1/2+y,1/2-z
-x,y,z
x,1/2-y,1/2+z
1/2+x,1/2+y,z
1/2-x,-y,1/2+z
1/2+x,1/2-y,-z
1/2-x,y,1/2-z
1/2-x,1/2-y,-z
1/2+x,y,1/2-z
1/2-x,1/2+y,z
1/2+x,-y,1/2+z
loop_
_atom_site_type_symbol
_atom_site_label
_atom_site_fract_x
_atom_site_fract_y
_atom_site_fract_z
Si Si1 0.000000 0.500000 0.000000
Si Si2 0.834269 0.911122 0.639365
Si Si3 0.168658 0.107706 0.856428
Si Si4 0.829446 0.192415 0.297719
Si Si5 0.650556 0.067983 0.444452
Si Si6 0.831429 0.497802 0.700670
Si Si7 0.173702 0.303064 0.200260
Si Si8 0.224122 0.552620 0.546969
O O1 0.122903 0.468148 0.030011
O O2 0.820214 0.854176 0.664292
O O3 0.780923 0.910512 0.585967
O O4 0.738366 0.953667 0.667037
O O5 0.000000 0.927746 0.641339
O O6 0.270289 0.153500 0.836353
O O7 0.212284 0.090312 0.908656
O O8 0.000000 0.123328 0.855529
O O9 0.183579 0.055255 0.823941
O O10 0.750000 0.174116 0.250000
O O11 0.742781 0.245507 0.311824
O O12 0.000000 0.203476 0.289408
O O13 0.500000 0.089038 0.425453
O O14 0.661129 0.078164 0.499698
O O15 0.650178 0.003688 0.440119
O O16 0.750000 0.497167 0.750000
O O17 0.000000 0.486931 0.707396
O O18 0.250000 0.316694 0.250000
O O19 0.000000 0.301604 0.203913
#
# Coordination Sequence:
#
# PCOD9477594 Si02
#       8
#     4  16  16  16  16  16  16  16
#     4   8  20  32  50  84 112 148 182 244 268 324
#     4  11  23  35  56  83 113 148 187 233 286 337
#     4  11  22  37  57  82 116 152 190 233 284 341
#     4  10  21  39  60  83 109 146 190 239 285 338
#     4  10  19  33  54  80 112 147 189 228 273 333
#     4  11  23  36  51  76 112 151 184 223 279 338
#     4  11  23  39  61  86 111 148 192 241 287 340
#     4  10  20  33  56  80 116 154 190 230 282 330
#
# _framework density 17.353684000000001
#
# number of rings (size 3 to 8) (size 9 to 14) (size 15 to 20)
#    0.000    1.655    1.379    5.793    4.828    5.517 
#    0.000    0.000    0.000    0.828    0.000    0.000 
#    0.000    0.000    0.000    0.000    0.000    0.000 
#
# Total GULP energy -323092.560231 kJ/mol
# GULP energy per Si atom -5570.561383 kJ/mol
# Density = 1.731419 g / cm^3
# Si number density = 17.353684 Si / 1000 Ang^3
#
#
#
# Elastic Constant Matrix: (Units=GPa)
#
#
# Indices 1 2 3 4 5 6 
#
# 1 170.1024 44.0855 52.6353 0.0000 0.0000 0.0000
# 2 44.0855 49.9566 45.5489 0.0000 0.0000 0.0000
# 3 52.6353 45.5489 105.2001 0.0000 0.0000 0.0000
# 4 0.0000 0.0000 0.0000 19.1426 0.0000 0.0000
# 5 0.0000 0.0000 0.0000 0.0000 143.8948 0.0000
# 6 0.0000 0.0000 0.0000 0.0000 0.0000 29.7967
#
#
#
# Elastic Compliance Matrix: (Units=1/GPa)
#
#
# Indices 1 2 3 4 5 6 
#
# 1 0.007766 -0.005470 -0.001517 0.000000 0.000000 0.000000
# 2 -0.005470 0.036927 -0.013252 0.000000 0.000000 0.000000
# 3 -0.001517 -0.013252 0.016002 0.000000 0.000000 0.000000
# 4 0.000000 0.000000 0.000000 0.052240 0.000000 0.000000
# 5 0.000000 0.000000 0.000000 0.000000 0.006950 0.000000
# 6 0.000000 0.000000 0.000000 0.000000 0.000000 0.033561
#
#
# Mechanical properties :
#
#
# Convention : Reuss Voigt Hill
#
# Bulk Modulus (GPa) = 49.46146 67.75538 58.60842
# Shear Modulus (GPa) = 24.91756 50.76611 37.84183
#
# Velocity S-wave (km/s) = 3.79339 5.41455 4.67478
# Velocity P-wave (km/s) = 6.91016 8.84411 7.93626
#
# Compressibility (1/GPa) = 0.02021776
#
# Stress axis : x y z
#
# Youngs Moduli (GPa) = 128.76767 27.08059 62.49056
#
# Poissons Ratio (x) = 0.14813 0.09481
# Poissons Ratio (y) = 0.70434 0.82810
# Poissons Ratio (z) = 0.19537 0.35886
#
# Static dielectric constant tensor:
#      x y z
#    x 1.614430 0.000000 0.000000 
#    y 0.000000 1.568590 0.000000 
#    z 0.000000 0.000000 1.601700 
# 
# From -- ./inp_files/52390.got.cif
#   From: 2010.05.17/outbox.cif.g08.bks.cpg/sg64_27_cif.got.tgz:52390.got - 2010.06.03 16:29:19.
