data_PCOD9477552
_publ_section_title
;
Structure prediction by ZEFSAII (Michael W. Deem and Ramdas Pophale) SiO2 
 PCOD9477552
Probable space group: C M C A
;
_chemical_formula_sum "Si O2"
_cell_formula_units_Z 80
_cell_length_a 7.485902
_cell_length_b 33.092470
_cell_length_c 13.667384
_cell_angle_alpha 90.000000
_cell_angle_beta 90.000000
_cell_angle_gamma 90.000000
_cell_volume 3385.779863
_symmetry_space_group_name_H-M "C M C A"
_symmetry_group_IT_number 64
_symmetry_cell_setting 'orthorhombic'
loop_
_space_group_symop_operation_xyz
x,y,z
-x,1/2-y,1/2+z
x,-y,-z
-x,1/2+y,1/2-z
-x,-y,-z
x,1/2+y,1/2-z
-x,y,z
x,1/2-y,1/2+z
1/2+x,1/2+y,z
1/2-x,-y,1/2+z
1/2+x,1/2-y,-z
1/2-x,y,1/2-z
1/2-x,1/2-y,-z
1/2+x,y,1/2-z
1/2-x,1/2+y,z
1/2+x,-y,1/2+z
loop_
_atom_site_type_symbol
_atom_site_label
_atom_site_fract_x
_atom_site_fract_y
_atom_site_fract_z
Si Si1 0.713306 0.730405 0.135040
Si Si2 0.719097 0.559588 0.064369
Si Si3 0.787317 0.679955 0.864550
Si Si4 0.794910 0.853470 0.941542
Si Si5 0.287289 0.025051 0.641901
O O1 0.500000 0.731657 0.117837
O O2 0.750000 0.728056 0.250000
O O3 0.782235 0.774942 0.106290
O O4 0.788604 0.689087 0.090606
O O5 0.500000 0.560968 0.065679
O O6 0.783271 0.604091 0.093185
O O7 0.776546 0.549545 0.952860
O O8 0.776986 0.521359 0.128925
O O9 0.750000 0.673354 0.750000
O O10 0.707878 0.648207 0.940406
O O11 0.000000 0.679233 0.876064
O O12 0.000000 0.852336 0.907123
O O13 0.500000 0.023610 0.631637
O O14 0.250000 0.040950 0.750000
#
# Coordination Sequence:
#
# PCOD9477552 Si02
#       5
#    16  16  16  16  16
#     4   9  19  33  50  71  98 131 167 203 244 290
#     4   8  17  33  51  71  99 130 159 190 238 297
#     4  10  20  34  50  71  98 131 167 204 244 290
#     4  10  19  33  52  74  99 129 163 204 247 288
#     4   9  17  33  54  73  95 128 161 193 236 288
#
# _framework density 23.628233999999999
#
# number of rings (size 3 to 8) (size 9 to 14) (size 15 to 20)
#    0.000    2.800    0.000    2.400    0.000    3.200 
#    0.000    6.000    0.000    0.000    0.000    0.000 
#    0.000    0.000    0.000    0.000    0.000    0.000 
#
# Total GULP energy -223260.114576 kJ/mol
# GULP energy per Si atom -5581.502864 kJ/mol
# Density = 2.357446 g / cm^3
# Si number density = 23.628234 Si / 1000 Ang^3
#
#
#
# Elastic Constant Matrix: (Units=GPa)
#
#
# Indices 1 2 3 4 5 6 
#
# 1 77.3047 -2.4435 -11.1037 0.0000 0.0000 0.0000
# 2 -2.4435 63.1478 -13.2331 0.0000 0.0000 0.0000
# 3 -11.1037 -13.2331 29.9082 0.0000 0.0000 0.0000
# 4 0.0000 0.0000 0.0000 8.1395 0.0000 0.0000
# 5 0.0000 0.0000 0.0000 0.0000 21.1545 0.0000
# 6 0.0000 0.0000 0.0000 0.0000 0.0000 0.6256
#
#
#
# Elastic Compliance Matrix: (Units=1/GPa)
#
#
# Indices 1 2 3 4 5 6 
#
# 1 0.013843 0.001777 0.005926 0.000000 0.000000 0.000000
# 2 0.001777 0.017682 0.008484 0.000000 0.000000 0.000000
# 3 0.005926 0.008484 0.039389 0.000000 0.000000 0.000000
# 4 0.000000 0.000000 0.000000 0.122858 0.000000 0.000000
# 5 0.000000 0.000000 0.000000 0.000000 0.047271 0.000000
# 6 0.000000 0.000000 0.000000 0.000000 0.000000 1.598398
#
#
# Mechanical properties :
#
#
# Convention : Reuss Voigt Hill
#
# Bulk Modulus (GPa) = 9.68159 12.97779 11.32969
# Shear Modulus (GPa) = 2.71518 19.12666 10.92092
#
# Velocity S-wave (km/s) = 1.07314 2.84823 2.15221
# Velocity P-wave (km/s) = 2.37526 4.03992 3.31382
#
# Compressibility (1/GPa) = 0.10328884
#
# Stress axis : x y z
#
# Youngs Moduli (GPa) = 72.23778 56.55322 25.38762
#
# Poissons Ratio (x) = -0.10052 -0.15044
# Poissons Ratio (y) = -0.12840 -0.21538
# Poissons Ratio (z) = -0.42807 -0.47978
#
# Static dielectric constant tensor:
#      x y z
#    x 1.883660 0.000000 0.000000 
#    y 0.000000 1.920220 0.000000 
#    z 0.000000 0.000000 1.884200 
# 
# From -- ./inp_files/13216.got.cif
#   From: 2010.05.17/outbox.cif.g08.bks.cpg/sg64_7_cif.got.tgz:13216.got - 2010.06.03 16:29:19.
