data_PCOD9477764
_publ_section_title
;
Structure prediction by ZEFSAII (Michael W. Deem and Ramdas Pophale) SiO2 
 PCOD9477764
Probable space group: C M C A
;
_chemical_formula_sum "Si O2"
_cell_formula_units_Z 96
_cell_length_a 14.680654
_cell_length_b 20.737774
_cell_length_c 15.263981
_cell_angle_alpha 90.000000
_cell_angle_beta 90.000000
_cell_angle_gamma 90.000000
_cell_volume 4647.028726
_symmetry_space_group_name_H-M "C M C A"
_symmetry_group_IT_number 64
_symmetry_cell_setting 'orthorhombic'
loop_
_space_group_symop_operation_xyz
x,y,z
-x,1/2-y,1/2+z
x,-y,-z
-x,1/2+y,1/2-z
-x,-y,-z
x,1/2+y,1/2-z
-x,y,z
x,1/2-y,1/2+z
1/2+x,1/2+y,z
1/2-x,-y,1/2+z
1/2+x,1/2-y,-z
1/2-x,y,1/2-z
1/2-x,1/2-y,-z
1/2+x,y,1/2-z
1/2-x,1/2+y,z
1/2+x,-y,1/2+z
loop_
_atom_site_type_symbol
_atom_site_label
_atom_site_fract_x
_atom_site_fract_y
_atom_site_fract_z
Si Si1 0.612050 0.957016 0.418507
Si Si2 0.611291 0.559017 0.437425
Si Si3 0.388685 0.194442 0.979962
Si Si4 0.395162 0.812745 0.403678
Si Si5 0.893162 0.011890 0.729259
Si Si6 0.649145 0.659281 0.713159
O O1 0.500000 0.955251 0.415066
O O2 0.645160 0.883310 0.423719
O O3 0.645676 0.986402 0.326937
O O4 0.638547 0.000000 0.500000
O O5 0.637144 0.500000 0.500000
O O6 0.500000 0.560420 0.435895
O O7 0.641035 0.627427 0.475105
O O8 0.643789 0.538262 0.341045
O O9 0.500000 0.193844 0.977842
O O10 0.357578 0.195789 0.878786
O O11 0.356558 0.253652 0.040828
O O12 0.500000 0.816612 0.432057
O O13 0.396527 0.807005 0.297819
O O14 0.887792 0.086631 0.697953
O O15 0.000000 0.996710 0.737871
O O16 0.750000 0.652050 0.750000
#
# Coordination Sequence:
#
# PCOD9477764 Si02
#       6
#    16  16  16  16  16  16
#     4   8  14  27  48  73 101 134 167 205 258 312
#     4   9  15  26  51  82 102 123 160 213 271 305
#     4  10  19  34  56  81 106 133 176 229 270 311
#     4   9  19  35  54  78 104 133 177 224 264 312
#     4   9  16  30  53  76 101 130 171 218 257 308
#     4  11  21  33  53  74 104 144 176 207 261 329
#
# _framework density 20.658360999999999
#
# number of rings (size 3 to 8) (size 9 to 14) (size 15 to 20)
#    0.000    2.667    1.667    2.500    0.000    0.667 
#    3.000    0.000   14.667    1.000    0.000    0.000 
#    0.000    0.000    0.000    0.000    0.000    0.000 
#
# Total GULP energy -267701.012903 kJ/mol
# GULP energy per Si atom -5577.104435 kJ/mol
# Density = 2.061134 g / cm^3
# Si number density = 20.658361 Si / 1000 Ang^3
#
#
#
# Elastic Constant Matrix: (Units=GPa)
#
#
# Indices 1 2 3 4 5 6 
#
# 1 44.1249 10.1555 1.7613 0.0000 0.0000 0.0000
# 2 10.1555 135.0007 127.4688 0.0000 0.0000 0.0000
# 3 1.7613 127.4688 198.7342 0.0000 0.0000 0.0000
# 4 0.0000 0.0000 0.0000 40.5819 0.0000 0.0000
# 5 0.0000 0.0000 0.0000 0.0000 9.9209 0.0000
# 6 0.0000 0.0000 0.0000 0.0000 0.0000 -1.9643
#
#
#
# Elastic Compliance Matrix: (Units=1/GPa)
#
#
# Indices 1 2 3 4 5 6 
#
# 1 0.023486 -0.003981 0.002346 0.000000 0.000000 0.000000
# 2 -0.003981 0.019457 -0.012445 0.000000 0.000000 0.000000
# 3 0.002346 -0.012445 0.012993 0.000000 0.000000 0.000000
# 4 0.000000 0.000000 0.000000 0.024642 0.000000 0.000000
# 5 0.000000 0.000000 0.000000 0.000000 0.100797 0.000000
# 6 0.000000 0.000000 0.000000 0.000000 0.000000 -0.509092
#
#
# Mechanical properties :
#
#
# Convention : Reuss Voigt Hill
#
# Bulk Modulus (GPa) = 36.00363 72.95902 54.48133
# Shear Modulus (GPa) = -17.22371 25.60597 4.19113
#
# Velocity S-wave (km/s) = -2.89059 3.52447 1.42590
# Velocity P-wave (km/s) = 2.51501 7.20806 5.39821
#
# Compressibility (1/GPa) = 0.02777497
#
# Stress axis : x y z
#
# Youngs Moduli (GPa) = 42.57915 51.39486 76.96400
#
# Poissons Ratio (x) = 0.20462 -0.18052
# Poissons Ratio (y) = 0.16952 0.95779
# Poissons Ratio (z) = -0.09987 0.63959
#
# Static dielectric constant tensor:
#      x y z
#    x 1.799960 0.000000 0.000000 
#    y 0.000000 1.707640 0.000000 
#    z 0.000000 0.000000 1.750940 
# 
# From -- ./inp_files/23858.got.cif
#   From: 2010.05.17/outbox.cif.g08.bks.cpg/sg64_12_cif.got.tgz:23858.got - 2010.06.03 16:29:19.
