data_PCOD9477158
_publ_section_title
;
Structure prediction by ZEFSAII (Michael W. Deem and Ramdas Pophale) SiO2 
 PCOD9477158
Probable space group: C M C A
;
_chemical_formula_sum "Si O2"
_cell_formula_units_Z 72
_cell_length_a 14.452833
_cell_length_b 24.006197
_cell_length_c 9.878546
_cell_angle_alpha 90.000000
_cell_angle_beta 90.000000
_cell_angle_gamma 90.000000
_cell_volume 3427.436179
_symmetry_space_group_name_H-M "C M C A"
_symmetry_group_IT_number 64
_symmetry_cell_setting 'orthorhombic'
loop_
_space_group_symop_operation_xyz
x,y,z
-x,1/2-y,1/2+z
x,-y,-z
-x,1/2+y,1/2-z
-x,-y,-z
x,1/2+y,1/2-z
-x,y,z
x,1/2-y,1/2+z
1/2+x,1/2+y,z
1/2-x,-y,1/2+z
1/2+x,1/2-y,-z
1/2-x,y,1/2-z
1/2-x,1/2-y,-z
1/2+x,y,1/2-z
1/2-x,1/2+y,z
1/2+x,-y,1/2+z
loop_
_atom_site_type_symbol
_atom_site_label
_atom_site_fract_x
_atom_site_fract_y
_atom_site_fract_z
Si Si1 0.813627 0.313557 0.122213
Si Si2 0.896259 0.078084 0.515798
Si Si3 0.676650 0.690146 0.129863
Si Si4 0.237816 0.000000 0.000000
Si Si5 0.396464 0.072504 0.311124
O O1 0.750000 0.327817 0.250000
O O2 0.884145 0.360628 0.075914
O O3 0.860809 0.253068 0.143224
O O4 0.737768 0.310321 0.004067
O O5 0.883963 0.076294 0.352043
O O6 0.000000 0.058057 0.548122
O O7 0.810502 0.042209 0.570921
O O8 0.750000 0.682730 0.250000
O O9 0.612561 0.636229 0.136460
O O10 0.175572 0.034347 0.106525
O O11 0.500000 0.051368 0.335678
#
# Coordination Sequence:
#
# PCOD9477158 Si02
#       5
#    16  16  16   8  16
#     4  10  21  36  67  99 131 171 209 258 316 381
#     4  11  24  43  68  95 128 172 214 263 330 391
#     4  10  18  39  66  96 131 172 212 254 320 381
#     4  12  22  42  64  88 124 166 222 278 312 378
#     4  11  23  41  68  96 125 170 219 265 324 385
#
# _framework density 21.006955000000001
#
# number of rings (size 3 to 8) (size 9 to 14) (size 15 to 20)
#    0.000    1.333    4.444    1.333    0.000    2.667 
#    0.000    1.111    0.000    0.000    0.000    0.000 
#    0.000    0.000    0.000    0.000    0.000    0.000 
#
# Total GULP energy -200935.949606 kJ/mol
# GULP energy per Si atom -5581.554156 kJ/mol
# Density = 2.095914 g / cm^3
# Si number density = 21.006955 Si / 1000 Ang^3
#
#
#
# Elastic Constant Matrix: (Units=GPa)
#
#
# Indices 1 2 3 4 5 6 
#
# 1 135.9513 75.1691 39.3424 0.0000 0.0000 0.0000
# 2 75.1691 129.0559 19.7102 0.0000 0.0000 0.0000
# 3 39.3424 19.7102 102.0282 0.0000 0.0000 0.0000
# 4 0.0000 0.0000 0.0000 33.0298 0.0000 0.0000
# 5 0.0000 0.0000 0.0000 0.0000 12.3539 0.0000
# 6 0.0000 0.0000 0.0000 0.0000 0.0000 -4.9629
#
#
#
# Elastic Compliance Matrix: (Units=1/GPa)
#
#
# Indices 1 2 3 4 5 6 
#
# 1 0.011858 -0.006397 -0.003337 0.000000 0.000000 0.000000
# 2 -0.006397 0.011435 0.000258 0.000000 0.000000 0.000000
# 3 -0.003337 0.000258 0.011038 0.000000 0.000000 0.000000
# 4 0.000000 0.000000 0.000000 0.030276 0.000000 0.000000
# 5 0.000000 0.000000 0.000000 0.000000 0.080946 0.000000
# 6 0.000000 0.000000 0.000000 0.000000 0.000000 -0.201495
#
#
# Mechanical properties :
#
#
# Convention : Reuss Voigt Hill
#
# Bulk Modulus (GPa) = 65.02356 70.60876 67.81616
# Shear Modulus (GPa) = -156.92645 23.60506 -66.66069
#
# Velocity S-wave (km/s) = -8.65242 3.35577 -5.63929
# Velocity P-wave (km/s) = 8.29449 6.97854 3.17006
#
# Compressibility (1/GPa) = 0.01537904
#
# Stress axis : x y z
#
# Youngs Moduli (GPa) = 84.32883 87.44794 90.59538
#
# Poissons Ratio (x) = 0.55943 0.30229
# Poissons Ratio (y) = 0.53948 -0.02335
# Poissons Ratio (z) = 0.28138 -0.02253
#
# Static dielectric constant tensor:
#      x y z
#    x 1.730000 0.000000 0.000000 
#    y 0.000000 1.859310 0.000000 
#    z 0.000000 0.000000 1.697980 
# 
# From -- ./inp_files/5801.got.cif
#   From: 2010.05.17/outbox.cif.g08.bks.cpg/sg64_3_cif.got.tgz:5801.got - 2010.06.03 16:29:19.
