data_PCOD9477416
_publ_section_title
;
Structure prediction by ZEFSAII (Michael W. Deem and Ramdas Pophale) SiO2 
 PCOD9477416
Probable space group: C M C A
;
_chemical_formula_sum "Si O2"
_cell_formula_units_Z 96
_cell_length_a 8.858659
_cell_length_b 32.662751
_cell_length_c 18.967120
_cell_angle_alpha 90.000000
_cell_angle_beta 90.000000
_cell_angle_gamma 90.000000
_cell_volume 5488.101521
_symmetry_space_group_name_H-M "C M C A"
_symmetry_group_IT_number 64
_symmetry_cell_setting 'orthorhombic'
loop_
_space_group_symop_operation_xyz
x,y,z
-x,1/2-y,1/2+z
x,-y,-z
-x,1/2+y,1/2-z
-x,-y,-z
x,1/2+y,1/2-z
-x,y,z
x,1/2-y,1/2+z
1/2+x,1/2+y,z
1/2-x,-y,1/2+z
1/2+x,1/2-y,-z
1/2-x,y,1/2-z
1/2-x,1/2-y,-z
1/2+x,y,1/2-z
1/2-x,1/2+y,z
1/2+x,-y,1/2+z
loop_
_atom_site_type_symbol
_atom_site_label
_atom_site_fract_x
_atom_site_fract_y
_atom_site_fract_z
Si Si1 0.681183 0.839293 0.918018
Si Si2 0.819821 0.911887 0.828134
Si Si3 0.819353 0.750952 0.078544
Si Si4 0.319090 0.997554 0.328813
Si Si5 0.818796 0.585196 0.828331
Si Si6 0.680969 0.665628 0.583479
O O1 0.500000 0.843850 0.913233
O O2 0.758781 0.875493 0.875915
O O3 0.720410 0.793591 0.890062
O O4 0.722044 0.840325 0.001088
O O5 0.750000 0.908779 0.750000
O O6 0.000000 0.909515 0.821988
O O7 0.783191 0.957352 0.858498
O O8 0.756202 0.792627 0.111469
O O9 0.000000 0.753023 0.073823
O O10 0.750000 0.750000 0.000000
O O11 0.500000 0.993027 0.325467
O O12 0.250000 0.998644 0.250000
O O13 0.246845 0.956792 0.361343
O O14 0.750000 0.589177 0.750000
O O15 0.778553 0.625310 0.872944
O O16 0.000000 0.582076 0.823800
O O17 0.500000 0.670886 0.586091
#
# Coordination Sequence:
#
# PCOD9477416 Si02
#       6
#    16  16  16  16  16  16
#     4   9  18  33  51  72  98 127 162 201 239 285
#     4  10  20  33  51  74  98 127 162 200 243 289
#     4   9  17  30  50  73  97 128 164 199 238 287
#     4   9  17  30  48  70  95 125 162 198 236 287
#     4  10  19  32  51  74  99 128 163 201 242 288
#     4   9  19  34  51  73 100 130 164 200 240 288
#
# _framework density 17.492387000000001
#
# number of rings (size 3 to 8) (size 9 to 14) (size 15 to 20)
#    0.000    2.667    0.000    4.000    0.000    6.667 
#    0.000    1.667    0.000    7.000    0.000    0.000 
#    0.000    0.000    0.000    0.000    0.000    0.000 
#
# Total GULP energy -267368.568971 kJ/mol
# GULP energy per Si atom -5570.178520 kJ/mol
# Density = 1.745257 g / cm^3
# Si number density = 17.492387 Si / 1000 Ang^3
#
#
#
# Elastic Constant Matrix: (Units=GPa)
#
#
# Indices 1 2 3 4 5 6 
#
# 1 51.7087 72.7292 22.9229 0.0000 0.0000 0.0000
# 2 72.7292 229.3509 59.4390 0.0000 0.0000 0.0000
# 3 22.9229 59.4390 35.6721 0.0000 0.0000 0.0000
# 4 0.0000 0.0000 0.0000 29.9631 0.0000 0.0000
# 5 0.0000 0.0000 0.0000 0.0000 21.0691 0.0000
# 6 0.0000 0.0000 0.0000 0.0000 0.0000 36.2822
#
#
#
# Elastic Compliance Matrix: (Units=1/GPa)
#
#
# Indices 1 2 3 4 5 6 
#
# 1 0.035937 -0.009524 -0.007224 0.000000 0.000000 0.000000
# 2 -0.009524 0.010198 -0.010872 0.000000 0.000000 0.000000
# 3 -0.007224 -0.010872 0.050792 0.000000 0.000000 0.000000
# 4 0.000000 0.000000 0.000000 0.033374 0.000000 0.000000
# 5 0.000000 0.000000 0.000000 0.000000 0.047463 0.000000
# 6 0.000000 0.000000 0.000000 0.000000 0.000000 0.027562
#
#
# Mechanical properties :
#
#
# Convention : Reuss Voigt Hill
#
# Bulk Modulus (GPa) = 23.98896 69.65713 46.82304
# Shear Modulus (GPa) = 18.21754 28.23893 23.22824
#
# Velocity S-wave (km/s) = 3.23066 4.02226 3.64800
# Velocity P-wave (km/s) = 5.25927 7.84087 6.67605
#
# Compressibility (1/GPa) = 0.04168585
#
# Stress axis : x y z
#
# Youngs Moduli (GPa) = 27.82662 98.05963 19.68833
#
# Poissons Ratio (x) = 0.93389 0.14223
# Poissons Ratio (y) = 0.26501 0.21406
# Poissons Ratio (z) = 0.20102 1.06614
#
# Static dielectric constant tensor:
#      x y z
#    x 1.587600 0.000000 0.000000 
#    y 0.000000 1.652200 0.000000 
#    z 0.000000 0.000000 1.575440 
# 
# From -- ./inp_files/43186.got.cif
#   From: 2010.05.17/outbox.cif.g08.bks.cpg/sg64_22_cif.got.tgz:43186.got - 2010.06.03 16:29:19.
