data_PCOD9477167
_publ_section_title
;
Structure prediction by ZEFSAII (Michael W. Deem and Ramdas Pophale) SiO2 
 PCOD9477167
Probable space group: C M C A
;
_chemical_formula_sum "Si O2"
_cell_formula_units_Z 116
_cell_length_a 17.622242
_cell_length_b 14.654742
_cell_length_c 22.409275
_cell_angle_alpha 90.000000
_cell_angle_beta 90.000000
_cell_angle_gamma 90.000000
_cell_volume 5787.182047
_symmetry_space_group_name_H-M "C M C A"
_symmetry_group_IT_number 64
_symmetry_cell_setting 'orthorhombic'
loop_
_space_group_symop_operation_xyz
x,y,z
-x,1/2-y,1/2+z
x,-y,-z
-x,1/2+y,1/2-z
-x,-y,-z
x,1/2+y,1/2-z
-x,y,z
x,1/2-y,1/2+z
1/2+x,1/2+y,z
1/2-x,-y,1/2+z
1/2+x,1/2-y,-z
1/2-x,y,1/2-z
1/2-x,1/2-y,-z
1/2+x,y,1/2-z
1/2-x,1/2+y,z
1/2+x,-y,1/2+z
loop_
_atom_site_type_symbol
_atom_site_label
_atom_site_fract_x
_atom_site_fract_y
_atom_site_fract_z
Si Si1 0.875800 0.045976 0.397357
Si Si2 0.771506 0.842930 0.920976
Si Si3 0.289072 0.916189 0.187149
Si Si4 0.179860 0.702127 0.292587
Si Si5 0.000000 0.000000 0.500000
Si Si6 0.585343 0.390562 0.001872
Si Si7 0.676732 0.829716 0.390735
Si Si8 0.417186 0.792163 0.810960
O O1 0.797998 0.086019 0.426947
O O2 0.911903 0.130955 0.361487
O O3 0.933033 0.009712 0.447376
O O4 0.853256 0.976951 0.343858
O O5 0.805208 0.847850 0.854244
O O6 0.843552 0.856168 0.963075
O O7 0.731748 0.742812 0.923869
O O8 0.250000 0.944717 0.250000
O O9 0.318118 0.811597 0.195548
O O10 0.225353 0.911800 0.135185
O O11 0.250000 0.678879 0.250000
O O12 0.106404 0.675507 0.254680
O O13 0.500000 0.358889 0.985181
O O14 0.585651 0.500000 0.000000
O O15 0.607427 0.357405 0.067883
O O16 0.645103 0.779949 0.332093
O O17 0.500000 0.751124 0.809980
#
# Coordination Sequence:
#
# PCOD9477167 Si02
#       8
#    16  16  16  16   4  16  16  16
#     4  11  24  40  65  92 130 173 215 264 329 389
#     4  10  22  39  67  90 118 172 218 260 321 385
#     4  10  20  38  66  97 121 159 212 265 316 380
#     4  10  18  41  61  91 125 153 211 266 307 384
#     4  12  28  48  56  96 146 168 222 270 332 400
#     4  11  24  41  58  89 132 162 212 266 315 384
#     4  10  20  40  66  90 121 163 214 254 320 381
#     4  11  21  40  63  92 128 169 209 261 329 389
#
# _framework density 20.044298000000001
#
# number of rings (size 3 to 8) (size 9 to 14) (size 15 to 20)
#    0.000    1.517    6.207    1.655    4.828    0.552 
#    3.724    0.000    0.000    0.000    0.000    0.000 
#    0.000    0.000    0.000    0.000    0.000    0.000 
#
# Total GULP energy -322892.767814 kJ/mol
# GULP energy per Si atom -5567.116686 kJ/mol
# Density = 1.999868 g / cm^3
# Si number density = 20.044298 Si / 1000 Ang^3
#
#
#
# Elastic Constant Matrix: (Units=GPa)
#
#
# Indices 1 2 3 4 5 6 
#
# 1 125.9702 20.6387 49.6278 0.0000 0.0000 0.0000
# 2 20.6387 35.8783 14.7915 0.0000 0.0000 0.0000
# 3 49.6278 14.7915 99.1624 0.0000 0.0000 0.0000
# 4 0.0000 0.0000 0.0000 10.5127 0.0000 0.0000
# 5 0.0000 0.0000 0.0000 0.0000 32.6601 0.0000
# 6 0.0000 0.0000 0.0000 0.0000 0.0000 -170.2839
#
#
#
# Elastic Compliance Matrix: (Units=1/GPa)
#
#
# Indices 1 2 3 4 5 6 
#
# 1 0.010424 -0.004098 -0.004606 0.000000 0.000000 0.000000
# 2 -0.004098 0.031309 -0.002619 0.000000 0.000000 0.000000
# 3 -0.004606 -0.002619 0.012780 0.000000 0.000000 0.000000
# 4 0.000000 0.000000 0.000000 0.095123 0.000000 0.000000
# 5 0.000000 0.000000 0.000000 0.000000 0.030618 0.000000
# 6 0.000000 0.000000 0.000000 0.000000 0.000000 -0.005873
#
#
# Mechanical properties :
#
#
# Convention : Reuss Voigt Hill
#
# Bulk Modulus (GPa) = 31.37968 47.90299 39.64134
# Shear Modulus (GPa) = 24.07885 -13.69203 5.19341
#
# Velocity S-wave (km/s) = 3.46971 -2.61643 1.61139
# Velocity P-wave (km/s) = 5.63392 3.85004 4.82513
#
# Compressibility (1/GPa) = 0.03186775
#
# Stress axis : x y z
#
# Youngs Moduli (GPa) = 95.93006 31.93968 78.24562
#
# Poissons Ratio (x) = 0.13088 0.36038
# Poissons Ratio (y) = 0.39309 0.20496
# Poissons Ratio (z) = 0.44184 0.08366
#
# Static dielectric constant tensor:
#      x y z
#    x 1.724250 0.000000 0.000000 
#    y 0.000000 1.737980 0.000000 
#    z 0.000000 0.000000 1.751150 
# 
# From -- ./inp_files/45913.got.cif
#   From: 2010.05.17/outbox.cif.g08.bks.cpg/sg64_23_cif.got.tgz:45913.got - 2010.06.03 16:29:19.
