data_PCOD9477084
_publ_section_title
;
Structure prediction by ZEFSAII (Michael W. Deem and Ramdas Pophale) SiO2 
 PCOD9477084
Probable space group: C M C A
;
_chemical_formula_sum "Si O2"
_cell_formula_units_Z 116
_cell_length_a 7.749382
_cell_length_b 26.814583
_cell_length_c 29.365275
_cell_angle_alpha 90.000000
_cell_angle_beta 90.000000
_cell_angle_gamma 90.000000
_cell_volume 6101.999805
_symmetry_space_group_name_H-M "C M C A"
_symmetry_group_IT_number 64
_symmetry_cell_setting 'orthorhombic'
loop_
_space_group_symop_operation_xyz
x,y,z
-x,1/2-y,1/2+z
x,-y,-z
-x,1/2+y,1/2-z
-x,-y,-z
x,1/2+y,1/2-z
-x,y,z
x,1/2-y,1/2+z
1/2+x,1/2+y,z
1/2-x,-y,1/2+z
1/2+x,1/2-y,-z
1/2-x,y,1/2-z
1/2-x,1/2-y,-z
1/2+x,y,1/2-z
1/2-x,1/2+y,z
1/2+x,-y,1/2+z
loop_
_atom_site_type_symbol
_atom_site_label
_atom_site_fract_x
_atom_site_fract_y
_atom_site_fract_z
Si Si1 0.793298 0.592463 0.300391
Si Si2 0.707306 0.206787 0.300151
Si Si3 0.795031 0.149769 0.943299
Si Si4 0.707878 0.752263 0.605488
Si Si5 0.309933 0.045702 0.950242
Si Si6 0.711039 0.552292 0.102862
Si Si7 0.500000 0.500000 0.000000
Si Si8 0.210348 0.848182 0.951953
O O1 0.750000 0.573121 0.250000
O O2 0.726688 0.649544 0.303533
O O3 0.739348 0.561616 0.344697
O O4 0.000000 0.595039 0.303698
O O5 0.500000 0.204056 0.303240
O O6 0.750000 0.226086 0.250000
O O7 0.770114 0.238447 0.342983
O O8 0.754255 0.199450 0.915740
O O9 0.715587 0.098317 0.925149
O O10 0.000000 0.144382 0.943765
O O11 0.732894 0.154052 0.995744
O O12 0.500000 0.754998 0.605975
O O13 0.768873 0.798837 0.574857
O O14 0.500000 0.045575 0.971091
O O15 0.153162 0.039796 0.985715
O O16 0.287422 0.998069 0.917615
O O17 0.500000 0.547019 0.097909
O O18 0.762117 0.601592 0.074604
O O19 0.000000 0.847934 0.951322
#
# Coordination Sequence:
#
# PCOD9477084 Si02
#       8
#    16  16  16  16  16  16   4  16
#     4   9  17  30  53  83 115 153 186 236 305 360
#     4   9  17  31  52  80 111 146 188 237 294 354
#     4  11  22  37  56  80 115 160 201 245 291 344
#     4  10  19  35  55  81 112 152 196 237 289 357
#     4  12  25  40  61  88 116 159 203 248 300 346
#     4  10  18  35  60  82 116 158 198 243 300 356
#     4  12  22  44  60  86 120 148 198 256 288 344
#     4   9  18  32  55  79 110 153 194 235 286 346
#
# _framework density 19.010162000000001
#
# number of rings (size 3 to 8) (size 9 to 14) (size 15 to 20)
#    0.000    1.931    2.759    1.862    1.931    1.103 
#    0.000    2.069    0.000    0.828    0.000    5.793 
#    0.000    0.000    0.000    0.000    0.000    0.000 
#
# Total GULP energy -323373.170944 kJ/mol
# GULP energy per Si atom -5575.399499 kJ/mol
# Density = 1.896689 g / cm^3
# Si number density = 19.010162 Si / 1000 Ang^3
#
#
#
# Elastic Constant Matrix: (Units=GPa)
#
#
# Indices 1 2 3 4 5 6 
#
# 1 74.1935 18.4848 17.6150 0.0000 0.0000 0.0000
# 2 18.4848 154.8605 72.3361 0.0000 0.0000 0.0000
# 3 17.6150 72.3361 119.4333 0.0000 0.0000 0.0000
# 4 0.0000 0.0000 0.0000 16.7178 0.0000 0.0000
# 5 0.0000 0.0000 0.0000 0.0000 18.0205 0.0000
# 6 0.0000 0.0000 0.0000 0.0000 0.0000 10.2409
#
#
#
# Elastic Compliance Matrix: (Units=1/GPa)
#
#
# Indices 1 2 3 4 5 6 
#
# 1 0.014076 -0.000991 -0.001476 0.000000 0.000000 0.000000
# 2 -0.000991 0.009075 -0.005350 0.000000 0.000000 0.000000
# 3 -0.001476 -0.005350 0.011831 0.000000 0.000000 0.000000
# 4 0.000000 0.000000 0.000000 0.059817 0.000000 0.000000
# 5 0.000000 0.000000 0.000000 0.000000 0.055492 0.000000
# 6 0.000000 0.000000 0.000000 0.000000 0.000000 0.097648
#
#
# Mechanical properties :
#
#
# Convention : Reuss Voigt Hill
#
# Bulk Modulus (GPa) = 51.68580 62.81769 57.25174
# Shear Modulus (GPa) = 18.51711 24.99925 21.75818
#
# Velocity S-wave (km/s) = 3.12439 3.63029 3.38680
# Velocity P-wave (km/s) = 6.34533 7.11955 6.74356
#
# Compressibility (1/GPa) = 0.01934768
#
# Stress axis : x y z
#
# Youngs Moduli (GPa) = 71.04535 110.19601 84.52432
#
# Poissons Ratio (x) = 0.10917 0.12475
# Poissons Ratio (y) = 0.07038 0.45221
# Poissons Ratio (z) = 0.10486 0.58956
#
# Static dielectric constant tensor:
#      x y z
#    x 1.714820 0.000000 0.000000 
#    y 0.000000 1.663150 0.000000 
#    z 0.000000 0.000000 1.701790 
# 
# From -- ./inp_files/52384.got.cif
#   From: 2010.05.17/outbox.cif.g08.bks.cpg/sg64_27_cif.got.tgz:52384.got - 2010.06.03 16:29:19.
