data_PCOD9477246
_publ_section_title
;
Structure prediction by ZEFSAII (Michael W. Deem and Ramdas Pophale) SiO2 
 PCOD9477246
Probable space group: C M C A
;
_chemical_formula_sum "Si O2"
_cell_formula_units_Z 72
_cell_length_a 19.400663
_cell_length_b 27.697750
_cell_length_c 5.511816
_cell_angle_alpha 90.000000
_cell_angle_beta 90.000000
_cell_angle_gamma 90.000000
_cell_volume 2961.800308
_symmetry_space_group_name_H-M "C M C A"
_symmetry_group_IT_number 64
_symmetry_cell_setting 'orthorhombic'
loop_
_space_group_symop_operation_xyz
x,y,z
-x,1/2-y,1/2+z
x,-y,-z
-x,1/2+y,1/2-z
-x,-y,-z
x,1/2+y,1/2-z
-x,y,z
x,1/2-y,1/2+z
1/2+x,1/2+y,z
1/2-x,-y,1/2+z
1/2+x,1/2-y,-z
1/2-x,y,1/2-z
1/2-x,1/2-y,-z
1/2+x,y,1/2-z
1/2-x,1/2+y,z
1/2+x,-y,1/2+z
loop_
_atom_site_type_symbol
_atom_site_label
_atom_site_fract_x
_atom_site_fract_y
_atom_site_fract_z
Si Si1 0.624234 0.092457 0.817457
Si Si2 0.750000 0.668304 0.750000
Si Si3 0.921019 0.232326 0.040023
Si Si4 0.708151 0.500000 0.500000
Si Si5 0.250000 0.164256 0.250000
Si Si6 0.898255 0.123136 0.183531
O O1 0.683379 0.133103 0.771130
O O2 0.590136 0.089218 0.549918
O O3 0.661750 0.044215 0.906445
O O4 0.578089 0.108594 0.047064
O O5 0.751065 0.694157 0.494793
O O6 0.889238 0.258317 0.275356
O O7 0.922665 0.176128 0.104622
O O8 0.000000 0.250939 0.015577
O O9 0.750000 0.513269 0.250000
O O10 0.183620 0.130171 0.229429
#
# Coordination Sequence:
#
# PCOD9477246 Si02
#       6
#    16   8  16   8   8  16
#     4  10  19  30  47  73 107 147 180 218 262 311
#     4   8  14  26  39  61  94 130 174 196 244 283
#     4  10  21  38  60  84 106 130 174 238 287 322
#     4  12  22  30  48  78 115 148 193 228 260 302
#     4   8  16  26  45  67  96 134 168 200 240 307
#     4  10  19  34  52  75 108 145 179 215 272 330
#
# _framework density 24.309539999999998
#
# number of rings (size 3 to 8) (size 9 to 14) (size 15 to 20)
#    0.000    2.222    1.111    2.667    6.222    0.000 
#    0.000    1.111    0.000    0.000    0.000    4.667 
#    0.000    0.000    0.000    0.000    0.000    0.000 
#
# Total GULP energy -200804.607712 kJ/mol
# GULP energy per Si atom -5577.905770 kJ/mol
# Density = 2.425421 g / cm^3
# Si number density = 24.309540 Si / 1000 Ang^3
#
#
#
# Elastic Constant Matrix: (Units=GPa)
#
#
# Indices 1 2 3 4 5 6 
#
# 1 74.9137 9.3067 19.5465 0.0000 0.0000 0.0000
# 2 9.3067 99.8592 41.8969 0.0000 0.0000 0.0000
# 3 19.5465 41.8969 304.7062 0.0000 0.0000 0.0000
# 4 0.0000 0.0000 0.0000 36.2461 0.0000 0.0000
# 5 0.0000 0.0000 0.0000 0.0000 -15.0931 0.0000
# 6 0.0000 0.0000 0.0000 0.0000 0.0000 -17.4222
#
#
#
# Elastic Compliance Matrix: (Units=1/GPa)
#
#
# Indices 1 2 3 4 5 6 
#
# 1 0.013662 -0.000961 -0.000744 0.000000 0.000000 0.000000
# 2 -0.000961 0.010695 -0.001409 0.000000 0.000000 0.000000
# 3 -0.000744 -0.001409 0.003523 0.000000 0.000000 0.000000
# 4 0.000000 0.000000 0.000000 0.027589 0.000000 0.000000
# 5 0.000000 0.000000 0.000000 0.000000 -0.066256 0.000000
# 6 0.000000 0.000000 0.000000 0.000000 0.000000 -0.057398
#
#
# Mechanical properties :
#
#
# Convention : Reuss Voigt Hill
#
# Bulk Modulus (GPa) = 46.18511 68.99772 57.59141
# Shear Modulus (GPa) = -91.34328 27.99478 -31.67425
#
# Velocity S-wave (km/s) = -6.13650 3.39720 -3.61356
# Velocity P-wave (km/s) = 5.58291 6.62062 2.51632
#
# Compressibility (1/GPa) = 0.02165200
#
# Stress axis : x y z
#
# Youngs Moduli (GPa) = 73.19422 93.50361 283.82371
#
# Poissons Ratio (x) = 0.08986 0.21124
# Poissons Ratio (y) = 0.07034 0.39987
# Poissons Ratio (z) = 0.05448 0.13173
#
# Static dielectric constant tensor:
#      x y z
#    x 1.853990 0.000000 0.000000 
#    y 0.000000 1.856880 0.000000 
#    z 0.000000 0.000000 2.106440 
# 
# From -- ./inp_files/2885.got.cif
#   From: 2010.05.17/outbox.cif.g08.bks.cpg/sg64_2_cif.got.tgz:2885.got - 2010.06.03 16:29:19.
