data_PCOD9477068
_publ_section_title
;
Structure prediction by ZEFSAII (Michael W. Deem and Ramdas Pophale) SiO2 
 PCOD9477068
Probable space group: C M C A
;
_chemical_formula_sum "Si O2"
_cell_formula_units_Z 96
_cell_length_a 17.924920
_cell_length_b 19.583969
_cell_length_c 15.702574
_cell_angle_alpha 90.000000
_cell_angle_beta 90.000000
_cell_angle_gamma 90.000000
_cell_volume 5512.248498
_symmetry_space_group_name_H-M "C M C A"
_symmetry_group_IT_number 64
_symmetry_cell_setting 'orthorhombic'
loop_
_space_group_symop_operation_xyz
x,y,z
-x,1/2-y,1/2+z
x,-y,-z
-x,1/2+y,1/2-z
-x,-y,-z
x,1/2+y,1/2-z
-x,y,z
x,1/2-y,1/2+z
1/2+x,1/2+y,z
1/2-x,-y,1/2+z
1/2+x,1/2-y,-z
1/2-x,y,1/2-z
1/2-x,1/2-y,-z
1/2+x,y,1/2-z
1/2-x,1/2+y,z
1/2+x,-y,1/2+z
loop_
_atom_site_type_symbol
_atom_site_label
_atom_site_fract_x
_atom_site_fract_y
_atom_site_fract_z
Si Si1 0.308945 0.971361 0.183540
Si Si2 0.085656 0.572475 0.265967
Si Si3 0.728993 0.246759 0.656004
Si Si4 0.912085 0.183284 0.387918
Si Si5 0.304498 0.364225 0.460777
Si Si6 0.716839 0.398465 0.885655
O O1 0.250000 0.939500 0.250000
O O2 0.327739 0.919831 0.108532
O O3 0.380772 0.002013 0.229924
O O4 0.265753 0.038734 0.149354
O O5 0.092561 0.628979 0.190287
O O6 0.135296 0.592268 0.347244
O O7 0.000000 0.566608 0.288254
O O8 0.750000 0.222744 0.750000
O O9 0.640330 0.252499 0.638057
O O10 0.773484 0.202350 0.587187
O O11 0.755272 0.325436 0.648694
O O12 0.870350 0.152839 0.471865
O O13 0.000000 0.197197 0.402304
O O14 0.234963 0.394476 0.514771
#
# Coordination Sequence:
#
# PCOD9477068 Si02
#       6
#    16  16  16  16  16  16
#     4  10  19  35  55  81 111 146 185 230 275 330
#     4  10  19  33  58  82 106 145 184 227 276 325
#     4  11  19  37  57  77 111 150 192 229 274 334
#     4  10  20  35  55  82 113 139 181 233 279 329
#     4  11  22  32  56  86 112 147 184 237 286 325
#     4  10  18  35  55  76 106 142 192 231 259 328
#
# _framework density 17.415761
#
# number of rings (size 3 to 8) (size 9 to 14) (size 15 to 20)
#    0.000    1.667    5.000    3.500    0.000    0.667 
#    0.000    5.833    0.000   16.000    0.000    0.000 
#    0.000    0.000    0.000    0.000    0.000    0.000 
#
# Total GULP energy -267483.652377 kJ/mol
# GULP energy per Si atom -5572.576091 kJ/mol
# Density = 1.737612 g / cm^3
# Si number density = 17.415761 Si / 1000 Ang^3
#
#
#
# Elastic Constant Matrix: (Units=GPa)
#
#
# Indices 1 2 3 4 5 6 
#
# 1 154.2331 27.0520 35.1581 0.0000 0.0000 0.0000
# 2 27.0520 55.0916 9.6724 0.0000 0.0000 0.0000
# 3 35.1581 9.6724 68.9280 0.0000 0.0000 0.0000
# 4 0.0000 0.0000 0.0000 21.5979 0.0000 0.0000
# 5 0.0000 0.0000 0.0000 0.0000 24.6546 0.0000
# 6 0.0000 0.0000 0.0000 0.0000 0.0000 10.4407
#
#
#
# Elastic Compliance Matrix: (Units=1/GPa)
#
#
# Indices 1 2 3 4 5 6 
#
# 1 0.007862 -0.003236 -0.003556 0.000000 0.000000 0.000000
# 2 -0.003236 0.019942 -0.001148 0.000000 0.000000 0.000000
# 3 -0.003556 -0.001148 0.016483 0.000000 0.000000 0.000000
# 4 0.000000 0.000000 0.000000 0.046301 0.000000 0.000000
# 5 0.000000 0.000000 0.000000 0.000000 0.040560 0.000000
# 6 0.000000 0.000000 0.000000 0.000000 0.000000 0.095779
#
#
# Mechanical properties :
#
#
# Convention : Reuss Voigt Hill
#
# Bulk Modulus (GPa) = 35.20254 46.89085 41.04669
# Shear Modulus (GPa) = 19.81959 25.09666 22.45813
#
# Velocity S-wave (km/s) = 3.37712 3.80021 3.59490
# Velocity P-wave (km/s) = 5.95513 6.79987 6.39147
#
# Compressibility (1/GPa) = 0.02840704
#
# Stress axis : x y z
#
# Youngs Moduli (GPa) = 127.19555 50.14498 60.66948
#
# Poissons Ratio (x) = 0.16228 0.21574
# Poissons Ratio (y) = 0.41163 0.06963
# Poissons Ratio (z) = 0.45231 0.05755
#
# Static dielectric constant tensor:
#      x y z
#    x 1.592190 0.000000 0.000000 
#    y 0.000000 1.595050 0.000000 
#    z 0.000000 0.000000 1.631570 
# 
# From -- ./inp_files/33254.got.cif
#   From: 2010.05.17/outbox.cif.g08.bks.cpg/sg64_17_cif.got.tgz:33254.got - 2010.06.03 16:29:19.
