data_PCOD9477801
_publ_section_title
;
Structure prediction by ZEFSAII (Michael W. Deem and Ramdas Pophale) SiO2 
 PCOD9477801
Probable space group: C M C A
;
_chemical_formula_sum "Si O2"
_cell_formula_units_Z 80
_cell_length_a 13.837162
_cell_length_b 17.804105
_cell_length_c 17.610383
_cell_angle_alpha 90.000000
_cell_angle_beta 90.000000
_cell_angle_gamma 90.000000
_cell_volume 4338.463757
_symmetry_space_group_name_H-M "C M C A"
_symmetry_group_IT_number 64
_symmetry_cell_setting 'orthorhombic'
loop_
_space_group_symop_operation_xyz
x,y,z
-x,1/2-y,1/2+z
x,-y,-z
-x,1/2+y,1/2-z
-x,-y,-z
x,1/2+y,1/2-z
-x,y,z
x,1/2-y,1/2+z
1/2+x,1/2+y,z
1/2-x,-y,1/2+z
1/2+x,1/2-y,-z
1/2-x,y,1/2-z
1/2-x,1/2-y,-z
1/2+x,y,1/2-z
1/2-x,1/2+y,z
1/2+x,-y,1/2+z
loop_
_atom_site_type_symbol
_atom_site_label
_atom_site_fract_x
_atom_site_fract_y
_atom_site_fract_z
Si Si1 0.220182 0.008013 0.333782
Si Si2 0.888109 0.364957 0.113008
Si Si3 0.706603 0.782940 0.423121
Si Si4 0.610769 0.868952 0.928518
Si Si5 0.389127 0.942613 0.429617
O O1 0.250000 0.032664 0.250000
O O2 0.141789 0.940550 0.342525
O O3 0.318130 0.974149 0.366998
O O4 0.181815 0.074081 0.387081
O O5 0.800141 0.306084 0.127368
O O6 0.000000 0.343273 0.128457
O O7 0.881373 0.377256 0.020781
O O8 0.750000 0.750000 0.500000
O O9 0.637204 0.714802 0.399503
O O10 0.647683 0.858044 0.443456
O O11 0.500000 0.886709 0.909601
O O12 0.500000 0.940559 0.406050
O O13 0.380719 0.000000 0.500000
#
# Coordination Sequence:
#
# PCOD9477801 Si02
#       5
#    16  16  16  16  16
#     4  11  22  35  52  75 107 141 179 223 265 314
#     4   9  18  34  58  82 103 135 177 221 266 314
#     4   9  17  31  54  84 111 132 169 221 270 319
#     4  10  19  34  58  83 107 137 176 223 271 317
#     4  10  20  35  55  77 105 142 179 217 263 317
#
# _framework density 18.439706999999999
#
# number of rings (size 3 to 8) (size 9 to 14) (size 15 to 20)
#    0.000    2.200    0.000    5.400    0.000    4.000 
#    0.000    5.000    0.000    4.800    0.000    0.000 
#    0.000    0.000    0.000    0.000    0.000    0.000 
#
# Total GULP energy -222766.263866 kJ/mol
# GULP energy per Si atom -5569.156597 kJ/mol
# Density = 1.839774 g / cm^3
# Si number density = 18.439707 Si / 1000 Ang^3
#
#
#
# Elastic Constant Matrix: (Units=GPa)
#
#
# Indices 1 2 3 4 5 6 
#
# 1 106.3947 16.5337 10.2815 0.0000 0.0000 0.0000
# 2 16.5337 73.0470 -2.1394 0.0000 0.0000 0.0000
# 3 10.2815 -2.1394 20.0240 0.0000 0.0000 0.0000
# 4 0.0000 0.0000 0.0000 2.5505 0.0000 0.0000
# 5 0.0000 0.0000 0.0000 0.0000 8.6361 0.0000
# 6 0.0000 0.0000 0.0000 0.0000 0.0000 20.9729
#
#
#
# Elastic Compliance Matrix: (Units=1/GPa)
#
#
# Indices 1 2 3 4 5 6 
#
# 1 0.010326 -0.002500 -0.005569 0.000000 0.000000 0.000000
# 2 -0.002500 0.014338 0.002816 0.000000 0.000000 0.000000
# 3 -0.005569 0.002816 0.053100 0.000000 0.000000 0.000000
# 4 0.000000 0.000000 0.000000 0.392076 0.000000 0.000000
# 5 0.000000 0.000000 0.000000 0.000000 0.115793 0.000000
# 6 0.000000 0.000000 0.000000 0.000000 0.000000 0.047681
#
#
# Mechanical properties :
#
#
# Convention : Reuss Voigt Hill
#
# Bulk Modulus (GPa) = 14.86832 27.64636 21.25734
# Shear Modulus (GPa) = 7.50481 18.08456 12.79469
#
# Velocity S-wave (km/s) = 2.01959 3.13507 2.63699
# Velocity P-wave (km/s) = 3.67683 5.30380 4.56341
#
# Compressibility (1/GPa) = 0.06725710
#
# Stress axis : x y z
#
# Youngs Moduli (GPa) = 96.84620 69.74378 18.83232
#
# Poissons Ratio (x) = 0.17438 0.10488
# Poissons Ratio (y) = 0.24214 -0.05303
# Poissons Ratio (z) = 0.53933 -0.19638
#
# Static dielectric constant tensor:
#      x y z
#    x 1.661580 0.000000 0.000000 
#    y 0.000000 1.662710 0.000000 
#    z 0.000000 0.000000 1.624150 
# 
# From -- ./inp_files/32036.got.cif
#   From: 2010.05.17/outbox.cif.g08.bks.cpg/sg64_17_cif.got.tgz:32036.got - 2010.06.03 16:29:19.
