data_PCOD9477573
_publ_section_title
;
Structure prediction by ZEFSAII (Michael W. Deem and Ramdas Pophale) SiO2 
 PCOD9477573
Probable space group: C M C A
;
_chemical_formula_sum "Si O2"
_cell_formula_units_Z 88
_cell_length_a 26.001796
_cell_length_b 31.858003
_cell_length_c 5.013574
_cell_angle_alpha 90.000000
_cell_angle_beta 90.000000
_cell_angle_gamma 90.000000
_cell_volume 4153.070705
_symmetry_space_group_name_H-M "C M C A"
_symmetry_group_IT_number 64
_symmetry_cell_setting 'orthorhombic'
loop_
_space_group_symop_operation_xyz
x,y,z
-x,1/2-y,1/2+z
x,-y,-z
-x,1/2+y,1/2-z
-x,-y,-z
x,1/2+y,1/2-z
-x,y,z
x,1/2-y,1/2+z
1/2+x,1/2+y,z
1/2-x,-y,1/2+z
1/2+x,1/2-y,-z
1/2-x,y,1/2-z
1/2-x,1/2-y,-z
1/2+x,y,1/2-z
1/2-x,1/2+y,z
1/2+x,-y,1/2+z
loop_
_atom_site_type_symbol
_atom_site_label
_atom_site_fract_x
_atom_site_fract_y
_atom_site_fract_z
Si Si1 0.803379 0.589391 0.650165
Si Si2 0.500000 0.721886 0.155115
Si Si3 0.943485 0.590691 0.141856
Si Si4 0.337194 0.136920 0.134961
Si Si5 0.887494 0.279908 0.770297
Si Si6 0.589514 0.456054 0.151623
O O1 0.750000 0.569860 0.750000
O O2 0.809274 0.607831 0.353738
O O3 0.850681 0.557131 0.681165
O O4 0.810799 0.628584 0.852847
O O5 0.500000 0.763086 0.348779
O O6 0.554804 0.701404 0.222017
O O7 0.895296 0.620368 0.087318
O O8 0.936818 0.576458 0.446845
O O9 0.000000 0.608432 0.096250
O O10 0.935529 0.551336 0.939988
O O11 0.345079 0.183853 0.238457
O O12 0.883511 0.243548 0.551093
O O13 0.584926 0.500000 0.000000
#
# Coordination Sequence:
#
# PCOD9477573 Si02
#       6
#    16   8  16  16  16  16
#     4  10  21  40  60  80 106 143 186 233 287 332
#     4   8  16  28  44  72 104 138 171 206 263 320
#     4  10  21  35  54  82 116 154 185 215 265 327
#     4  10  21  36  58  82 109 147 187 231 274 336
#     4  10  19  33  53  79 111 145 182 228 278 322
#     4  10  21  37  56  84 113 141 185 229 269 329
#
# _framework density 21.189138
#
# number of rings (size 3 to 8) (size 9 to 14) (size 15 to 20)
#    0.000    2.182    0.000    2.727    1.273    2.182 
#    0.000    5.455    0.000   10.909    0.000    0.000 
#    0.000    0.000    0.000    0.000    0.000    0.000 
#
# Total GULP energy -245416.974631 kJ/mol
# GULP energy per Si atom -5577.658514 kJ/mol
# Density = 2.114091 g / cm^3
# Si number density = 21.189138 Si / 1000 Ang^3
#
#
#
# Elastic Constant Matrix: (Units=GPa)
#
#
# Indices 1 2 3 4 5 6 
#
# 1 85.3859 -4.5636 17.1053 0.0000 0.0000 0.0000
# 2 -4.5636 9.2283 -16.4391 0.0000 0.0000 0.0000
# 3 17.1053 -16.4391 86.7997 0.0000 0.0000 0.0000
# 4 0.0000 0.0000 0.0000 17.0262 0.0000 0.0000
# 5 0.0000 0.0000 0.0000 0.0000 12.6856 0.0000
# 6 0.0000 0.0000 0.0000 0.0000 0.0000 1.5417
#
#
#
# Elastic Compliance Matrix: (Units=1/GPa)
#
#
# Indices 1 2 3 4 5 6 
#
# 1 0.012236 0.002649 -0.001909 0.000000 0.000000 0.000000
# 2 0.002649 0.164110 0.030559 0.000000 0.000000 0.000000
# 3 -0.001909 0.030559 0.017685 0.000000 0.000000 0.000000
# 4 0.000000 0.000000 0.000000 0.058733 0.000000 0.000000
# 5 0.000000 0.000000 0.000000 0.000000 0.078830 0.000000
# 6 0.000000 0.000000 0.000000 0.000000 0.000000 0.648642
#
#
# Mechanical properties :
#
#
# Convention : Reuss Voigt Hill
#
# Bulk Modulus (GPa) = 3.89670 19.29101 11.59385
# Shear Modulus (GPa) = 4.98415 18.60478 11.79447
#
# Velocity S-wave (km/s) = 1.53536 2.96638 2.36186
# Velocity P-wave (km/s) = 2.23296 4.56689 3.59462
#
# Compressibility (1/GPa) = 0.25662770
#
# Stress axis : x y z
#
# Youngs Moduli (GPa) = 81.72833 6.09347 56.54624
#
# Poissons Ratio (x) = -0.01614 0.10797
# Poissons Ratio (y) = -0.21652 -1.72799
# Poissons Ratio (z) = 0.15606 -0.18621
#
# Static dielectric constant tensor:
#      x y z
#    x 1.820680 0.000000 0.000000 
#    y 0.000000 1.761070 0.000000 
#    z 0.000000 0.000000 1.723430 
# 
# From -- ./inp_files/2436.got.cif
#   From: 2010.05.17/outbox.cif.g08.bks.cpg/sg64_2_cif.got.tgz:2436.got - 2010.06.03 16:29:19.
