data_PCOD9477625
_publ_section_title
;
Structure prediction by ZEFSAII (Michael W. Deem and Ramdas Pophale) SiO2 
 PCOD9477625
Probable space group: C M C A
;
_chemical_formula_sum "Si O2"
_cell_formula_units_Z 80
_cell_length_a 8.746724
_cell_length_b 15.510286
_cell_length_c 29.371159
_cell_angle_alpha 90.000000
_cell_angle_beta 90.000000
_cell_angle_gamma 90.000000
_cell_volume 3984.614519
_symmetry_space_group_name_H-M "C M C A"
_symmetry_group_IT_number 64
_symmetry_cell_setting 'orthorhombic'
loop_
_space_group_symop_operation_xyz
x,y,z
-x,1/2-y,1/2+z
x,-y,-z
-x,1/2+y,1/2-z
-x,-y,-z
x,1/2+y,1/2-z
-x,y,z
x,1/2-y,1/2+z
1/2+x,1/2+y,z
1/2-x,-y,1/2+z
1/2+x,1/2-y,-z
1/2-x,y,1/2-z
1/2-x,1/2-y,-z
1/2+x,y,1/2-z
1/2-x,1/2+y,z
1/2+x,-y,1/2+z
loop_
_atom_site_type_symbol
_atom_site_label
_atom_site_fract_x
_atom_site_fract_y
_atom_site_fract_z
Si Si1 0.321471 0.369790 0.535728
Si Si2 0.313648 0.425339 0.633008
Si Si3 0.680894 0.114813 0.848406
Si Si4 0.175956 0.164764 0.942734
Si Si5 0.817358 0.225072 0.299233
O O1 0.500000 0.391517 0.527858
O O2 0.262450 0.418630 0.580521
O O3 0.229764 0.380514 0.489180
O O4 0.315268 0.267884 0.548559
O O5 0.500000 0.422672 0.630869
O O6 0.269715 0.515449 0.655622
O O7 0.263836 0.344118 0.662969
O O8 0.500000 0.120728 0.840416
O O9 0.719073 0.141168 0.900264
O O10 0.765572 0.180925 0.815630
O O11 0.000000 0.144305 0.931891
O O12 0.750000 0.204932 0.250000
O O13 0.000000 0.221385 0.297409
#
# Coordination Sequence:
#
# PCOD9477625 Si02
#       5
#    16  16  16  16  16
#     4   9  17  34  57  81 114 160 202 239 285 344
#     4   9  20  39  62  86 118 156 197 240 289 348
#     4  11  22  38  62  91 119 155 198 240 290 349
#     4  10  19  33  55  85 121 159 198 243 288 340
#     4  11  23  44  66  88 117 151 191 242 298 352
#
# _framework density 20.077223
#
# number of rings (size 3 to 8) (size 9 to 14) (size 15 to 20)
#    0.000    2.000    2.000    1.800    0.000    2.400 
#    0.000   12.000    0.000    0.000    0.000    0.000 
#    0.000    0.000    0.000    0.000    0.000    0.000 
#
# Total GULP energy -223484.249683 kJ/mol
# GULP energy per Si atom -5587.106242 kJ/mol
# Density = 2.003153 g / cm^3
# Si number density = 20.077223 Si / 1000 Ang^3
#
#
#
# Elastic Constant Matrix: (Units=GPa)
#
#
# Indices 1 2 3 4 5 6 
#
# 1 35.1083 10.7026 1.4406 0.0000 0.0000 0.0000
# 2 10.7026 44.8200 -4.3352 0.0000 0.0000 0.0000
# 3 1.4406 -4.3352 57.5888 0.0000 0.0000 0.0000
# 4 0.0000 0.0000 0.0000 9.7531 0.0000 0.0000
# 5 0.0000 0.0000 0.0000 0.0000 32.2594 0.0000
# 6 0.0000 0.0000 0.0000 0.0000 0.0000 18.3592
#
#
#
# Elastic Compliance Matrix: (Units=1/GPa)
#
#
# Indices 1 2 3 4 5 6 
#
# 1 0.030821 -0.007489 -0.001335 0.000000 0.000000 0.000000
# 2 -0.007489 0.024295 0.002016 0.000000 0.000000 0.000000
# 3 -0.001335 0.002016 0.017550 0.000000 0.000000 0.000000
# 4 0.000000 0.000000 0.000000 0.102532 0.000000 0.000000
# 5 0.000000 0.000000 0.000000 0.000000 0.030999 0.000000
# 6 0.000000 0.000000 0.000000 0.000000 0.000000 0.054469
#
#
# Mechanical properties :
#
#
# Convention : Reuss Voigt Hill
#
# Bulk Modulus (GPa) = 16.93464 17.01480 16.97472
# Shear Modulus (GPa) = 17.00895 20.72160 18.86528
#
# Velocity S-wave (km/s) = 2.91379 3.21611 3.06867
# Velocity P-wave (km/s) = 4.44671 4.72062 4.58571
#
# Compressibility (1/GPa) = 0.05905057
#
# Stress axis : x y z
#
# Youngs Moduli (GPa) = 32.44535 41.16115 56.98121
#
# Poissons Ratio (x) = 0.30825 0.07606
# Poissons Ratio (y) = 0.24298 -0.11489
# Poissons Ratio (z) = 0.04331 -0.08299
#
# Static dielectric constant tensor:
#      x y z
#    x 1.678380 0.000000 0.000000 
#    y 0.000000 1.733710 0.000000 
#    z 0.000000 0.000000 1.685170 
# 
# From -- ./inp_files/51761.got.cif
#   From: 2010.05.17/outbox.cif.g08.bks.cpg/sg64_26_cif.got.tgz:51761.got - 2010.06.03 16:29:19.
