data_PCOD9477542
_publ_section_title
;
Structure prediction by ZEFSAII (Michael W. Deem and Ramdas Pophale) SiO2 
 PCOD9477542
Probable space group: C M C A
;
_chemical_formula_sum "Si O2"
_cell_formula_units_Z 96
_cell_length_a 8.719755
_cell_length_b 28.244229
_cell_length_c 22.520136
_cell_angle_alpha 90.000000
_cell_angle_beta 90.000000
_cell_angle_gamma 90.000000
_cell_volume 5546.321183
_symmetry_space_group_name_H-M "C M C A"
_symmetry_group_IT_number 64
_symmetry_cell_setting 'orthorhombic'
loop_
_space_group_symop_operation_xyz
x,y,z
-x,1/2-y,1/2+z
x,-y,-z
-x,1/2+y,1/2-z
-x,-y,-z
x,1/2+y,1/2-z
-x,y,z
x,1/2-y,1/2+z
1/2+x,1/2+y,z
1/2-x,-y,1/2+z
1/2+x,1/2-y,-z
1/2-x,y,1/2-z
1/2-x,1/2-y,-z
1/2+x,y,1/2-z
1/2-x,1/2+y,z
1/2+x,-y,1/2+z
loop_
_atom_site_type_symbol
_atom_site_label
_atom_site_fract_x
_atom_site_fract_y
_atom_site_fract_z
Si Si1 0.177393 0.250077 0.186648
Si Si2 0.684128 0.280840 0.444543
Si Si3 0.678141 0.363882 0.812102
Si Si4 0.322074 0.513951 0.929886
Si Si5 0.177036 0.419231 0.916454
Si Si6 0.182188 0.115602 0.962909
O O1 0.250000 0.265279 0.250000
O O2 0.240009 0.265894 0.121913
O O3 0.183133 0.193032 0.185550
O O4 0.000000 0.265126 0.188361
O O5 0.500000 0.275080 0.446083
O O6 0.750000 0.250000 0.500000
O O7 0.730663 0.335692 0.451595
O O8 0.500000 0.378259 0.818896
O O9 0.750000 0.379078 0.750000
O O10 0.783609 0.385583 0.862412
O O11 0.500000 0.510114 0.911790
O O12 0.221714 0.473162 0.900534
O O13 0.273003 0.568736 0.925008
O O14 0.315624 0.500000 0.000000
O O15 0.000000 0.417002 0.934434
O O16 0.281510 0.400500 0.970126
O O17 0.000000 0.122705 0.955847
#
# Coordination Sequence:
#
# PCOD9477542 Si02
#       6
#    16  16  16  16  16  16
#     4   9  20  36  54  75 101 136 175 212 253 307
#     4  11  22  35  53  80 110 139 174 218 266 314
#     4  10  19  33  51  72 100 132 168 208 252 305
#     4   8  16  31  49  69  96 130 164 200 247 303
#     4  11  20  30  49  76 103 132 166 206 255 308
#     4  10  20  34  51  73 102 136 171 209 256 304
#
# _framework density 17.308769999999999
#
# number of rings (size 3 to 8) (size 9 to 14) (size 15 to 20)
#    0.000    2.167    0.000    5.000    0.000    7.000 
#    0.000    0.000    0.000    1.000    0.000    2.333 
#    0.000    0.000    0.000    0.000    0.000    0.000 
#
# Total GULP energy -267385.414879 kJ/mol
# GULP energy per Si atom -5570.529477 kJ/mol
# Density = 1.726937 g / cm^3
# Si number density = 17.308770 Si / 1000 Ang^3
#
#
#
# Elastic Constant Matrix: (Units=GPa)
#
#
# Indices 1 2 3 4 5 6 
#
# 1 32.8710 19.7075 8.5764 0.0000 0.0000 0.0000
# 2 19.7075 57.2327 25.3572 0.0000 0.0000 0.0000
# 3 8.5764 25.3572 84.3440 0.0000 0.0000 0.0000
# 4 0.0000 0.0000 0.0000 -8.3623 0.0000 0.0000
# 5 0.0000 0.0000 0.0000 0.0000 24.7764 0.0000
# 6 0.0000 0.0000 0.0000 0.0000 0.0000 24.7384
#
#
#
# Elastic Compliance Matrix: (Units=1/GPa)
#
#
# Indices 1 2 3 4 5 6 
#
# 1 0.038337 -0.013237 0.000081 0.000000 0.000000 0.000000
# 2 -0.013237 0.024728 -0.006088 0.000000 0.000000 0.000000
# 3 0.000081 -0.006088 0.013678 0.000000 0.000000 0.000000
# 4 0.000000 0.000000 0.000000 -0.119584 0.000000 0.000000
# 5 0.000000 0.000000 0.000000 0.000000 0.040361 0.000000
# 6 0.000000 0.000000 0.000000 0.000000 0.000000 0.040423
#
#
# Mechanical properties :
#
#
# Convention : Reuss Voigt Hill
#
# Bulk Modulus (GPa) = 26.14011 31.30333 28.72172
# Shear Modulus (GPa) = 56.06477 16.28425 36.17451
#
# Velocity S-wave (km/s) = 5.69748 3.07059 4.57656
# Velocity P-wave (km/s) = 7.64308 5.54038 6.67505
#
# Compressibility (1/GPa) = 0.03825539
#
# Stress axis : x y z
#
# Youngs Moduli (GPa) = 26.08456 40.44001 73.10849
#
# Poissons Ratio (x) = 0.53530 -0.00595
# Poissons Ratio (y) = 0.34528 0.44510
# Poissons Ratio (z) = -0.00212 0.24621
#
# Static dielectric constant tensor:
#      x y z
#    x 1.597330 0.000000 0.000000 
#    y 0.000000 1.604320 0.000000 
#    z 0.000000 0.000000 1.539200 
# 
# From -- ./inp_files/36936.got.cif
#   From: 2010.05.17/outbox.cif.g08.bks.cpg/sg64_19_cif.got.tgz:36936.got - 2010.06.03 16:29:19.
