data_PCOD9477066
_publ_section_title
;
Structure prediction by ZEFSAII (Michael W. Deem and Ramdas Pophale) SiO2 
 PCOD9477066
Probable space group: C M C A
;
_chemical_formula_sum "Si O2"
_cell_formula_units_Z 120
_cell_length_a 19.698106
_cell_length_b 18.496493
_cell_length_c 14.792495
_cell_angle_alpha 90.000000
_cell_angle_beta 90.000000
_cell_angle_gamma 90.000000
_cell_volume 5389.584604
_symmetry_space_group_name_H-M "C M C A"
_symmetry_group_IT_number 64
_symmetry_cell_setting 'orthorhombic'
loop_
_space_group_symop_operation_xyz
x,y,z
-x,1/2-y,1/2+z
x,-y,-z
-x,1/2+y,1/2-z
-x,-y,-z
x,1/2+y,1/2-z
-x,y,z
x,1/2-y,1/2+z
1/2+x,1/2+y,z
1/2-x,-y,1/2+z
1/2+x,1/2-y,-z
1/2-x,y,1/2-z
1/2-x,1/2-y,-z
1/2+x,y,1/2-z
1/2-x,1/2+y,z
1/2+x,-y,1/2+z
loop_
_atom_site_type_symbol
_atom_site_label
_atom_site_fract_x
_atom_site_fract_y
_atom_site_fract_z
Si Si1 0.500000 0.617542 0.456611
Si Si2 0.390351 0.656042 0.302439
Si Si3 0.581780 0.937770 0.428202
Si Si4 0.078583 0.781402 0.327733
Si Si5 0.871484 0.581571 0.916724
Si Si6 0.920076 0.493640 0.760462
Si Si7 0.714871 0.153116 0.062793
Si Si8 0.142847 0.202033 0.012448
O O1 0.441231 0.648908 0.387124
O O2 0.560148 0.587315 0.524076
O O3 0.397741 0.732214 0.254323
O O4 0.412671 0.590725 0.237684
O O5 0.316177 0.638765 0.339768
O O6 0.500000 0.934296 0.432552
O O7 0.600006 0.961284 0.326795
O O8 0.611195 0.859385 0.450480
O O9 0.603220 0.000000 0.500000
O O10 0.123917 0.851051 0.347245
O O11 0.087498 0.734046 0.418874
O O12 0.000000 0.802081 0.316386
O O13 0.878388 0.513146 0.850972
O O14 0.809777 0.596192 0.985755
O O15 0.000000 0.506247 0.781997
O O16 0.794662 0.164565 0.064374
O O17 0.678027 0.229367 0.035899
#
# Coordination Sequence:
#
# PCOD9477066 Si02
#       8
#     8  16  16  16  16  16  16  16
#     4  10  18  35  54  86 122 157 192 244 304 371
#     4  11  22  36  61  90 123 160 204 248 317 371
#     4  10  22  40  64  92 124 163 211 257 315 374
#     4  11  20  36  61  94 123 150 200 263 304 359
#     4  10  21  37  57  89 127 154 202 251 305 364
#     4  11  21  37  58  93 127 160 194 256 317 368
#     4   9  23  41  61  89 120 165 212 248 311 372
#     4  10  21  43  64  84 122 166 208 257 303 370
#
# _framework density 22.265166000000001
#
# number of rings (size 3 to 8) (size 9 to 14) (size 15 to 20)
#    0.000    1.733    2.667    1.200    1.867    4.267 
#    3.600    0.667    0.000    0.000    0.000    0.000 
#    0.000    0.000    0.000    0.000    0.000    0.000 
#
# Total GULP energy -334308.063130 kJ/mol
# GULP energy per Si atom -5571.801052 kJ/mol
# Density = 2.221449 g / cm^3
# Si number density = 22.265166 Si / 1000 Ang^3
#
#
#
# Elastic Constant Matrix: (Units=GPa)
#
#
# Indices 1 2 3 4 5 6 
#
# 1 20.5875 0.6852 -6.1339 0.0000 0.0000 0.0000
# 2 0.6852 66.1704 25.2174 0.0000 0.0000 0.0000
# 3 -6.1339 25.2174 56.2500 0.0000 0.0000 0.0000
# 4 0.0000 0.0000 0.0000 32.0180 0.0000 0.0000
# 5 0.0000 0.0000 0.0000 0.0000 9.9376 0.0000
# 6 0.0000 0.0000 0.0000 0.0000 0.0000 15.5926
#
#
#
# Elastic Compliance Matrix: (Units=1/GPa)
#
#
# Indices 1 2 3 4 5 6 
#
# 1 0.050752 -0.003178 0.006959 0.000000 0.000000 0.000000
# 2 -0.003178 0.018425 -0.008607 0.000000 0.000000 0.000000
# 3 0.006959 -0.008607 0.022395 0.000000 0.000000 0.000000
# 4 0.000000 0.000000 0.000000 0.031232 0.000000 0.000000
# 5 0.000000 0.000000 0.000000 0.000000 0.100628 0.000000
# 6 0.000000 0.000000 0.000000 0.000000 0.000000 0.064133
#
#
# Mechanical properties :
#
#
# Convention : Reuss Voigt Hill
#
# Bulk Modulus (GPa) = 12.20675 20.28281 16.24478
# Shear Modulus (GPa) = 15.40715 19.72558 17.56637
#
# Velocity S-wave (km/s) = 2.63341 2.97970 2.81189
# Velocity P-wave (km/s) = 3.83938 4.57904 4.22543
#
# Compressibility (1/GPa) = 0.08192191
#
# Stress axis : x y z
#
# Youngs Moduli (GPa) = 19.70356 54.27276 44.65254
#
# Poissons Ratio (x) = 0.17245 -0.31073
# Poissons Ratio (y) = 0.06261 0.38432
# Poissons Ratio (z) = -0.13712 0.46712
#
# Static dielectric constant tensor:
#      x y z
#    x 1.795740 0.000000 0.000000 
#    y 0.000000 1.875280 0.000000 
#    z 0.000000 0.000000 1.836990 
# 
# From -- ./inp_files/26747.got.cif
#   From: 2010.05.17/outbox.cif.g08.bks.cpg/sg64_14_cif.got.tgz:26747.got - 2010.06.03 16:29:19.
