data_PCOD9477788
_publ_section_title
;
Structure prediction by ZEFSAII (Michael W. Deem and Ramdas Pophale) SiO2 
 PCOD9477788
Probable space group: C M C A
;
_chemical_formula_sum "Si O2"
_cell_formula_units_Z 72
_cell_length_a 10.561200
_cell_length_b 15.096131
_cell_length_c 22.100973
_cell_angle_alpha 90.000000
_cell_angle_beta 90.000000
_cell_angle_gamma 90.000000
_cell_volume 3523.630146
_symmetry_space_group_name_H-M "C M C A"
_symmetry_group_IT_number 64
_symmetry_cell_setting 'orthorhombic'
loop_
_space_group_symop_operation_xyz
x,y,z
-x,1/2-y,1/2+z
x,-y,-z
-x,1/2+y,1/2-z
-x,-y,-z
x,1/2+y,1/2-z
-x,y,z
x,1/2-y,1/2+z
1/2+x,1/2+y,z
1/2-x,-y,1/2+z
1/2+x,1/2-y,-z
1/2-x,y,1/2-z
1/2-x,1/2-y,-z
1/2+x,y,1/2-z
1/2-x,1/2+y,z
1/2+x,-y,1/2+z
loop_
_atom_site_type_symbol
_atom_site_label
_atom_site_fract_x
_atom_site_fract_y
_atom_site_fract_z
Si Si1 0.500000 0.084505 0.082802
Si Si2 0.500000 0.517152 0.294204
Si Si3 0.757825 0.639896 0.857788
Si Si4 0.500000 0.191026 0.792791
Si Si5 0.852701 0.672225 0.985762
Si Si6 0.250000 0.001884 0.250000
Si Si7 0.500000 0.759590 0.340048
O O1 0.500000 0.165441 0.129325
O O2 0.500000 0.007914 0.132633
O O3 0.379117 0.101529 0.039731
O O4 0.500000 0.413656 0.273282
O O5 0.625735 0.556712 0.265462
O O6 0.804832 0.623024 0.925715
O O7 0.738383 0.559628 0.810174
O O8 0.625629 0.689995 0.860538
O O9 0.870345 0.700078 0.829550
O O10 0.500000 0.244705 0.731823
O O11 0.000000 0.706608 0.977088
O O12 0.750000 0.750000 0.000000
#
# Coordination Sequence:
#
# PCOD9477788 Si02
#       7
#     8   8  16   8  16   8   8
#     4  10  23  36  55  86 126 152 189 234 312 342
#     4  10  20  40  57  81 119 152 189 246 297 351
#     4  11  17  33  57  86 110 143 202 243 281 348
#     4  10  19  34  57  84 105 150 204 239 282 350
#     4  10  20  35  55  84 120 156 190 241 295 350
#     4  10  20  36  62  80 110 152 200 242 294 340
#     4  12  18  32  58  87 116 148 193 248 285 360
#
# _framework density 20.433471000000001
#
# number of rings (size 3 to 8) (size 9 to 14) (size 15 to 20)
#    0.667    0.889    7.778    0.000    0.000    0.000 
#    4.000    8.889    2.444    0.000    0.000    7.778 
#    0.000    0.000    0.000    0.000    0.000    0.000 
#
# Total GULP energy -200465.022870 kJ/mol
# GULP energy per Si atom -5568.472858 kJ/mol
# Density = 2.038696 g / cm^3
# Si number density = 20.433471 Si / 1000 Ang^3
#
#
#
# Elastic Constant Matrix: (Units=GPa)
#
#
# Indices 1 2 3 4 5 6 
#
# 1 158.1875 20.7891 45.7586 0.0000 0.0000 0.0000
# 2 20.7891 34.7880 26.9942 0.0000 0.0000 0.0000
# 3 45.7586 26.9942 171.5953 0.0000 0.0000 0.0000
# 4 0.0000 0.0000 0.0000 29.9770 0.0000 0.0000
# 5 0.0000 0.0000 0.0000 0.0000 59.9006 0.0000
# 6 0.0000 0.0000 0.0000 0.0000 0.0000 8.1492
#
#
#
# Elastic Compliance Matrix: (Units=1/GPa)
#
#
# Indices 1 2 3 4 5 6 
#
# 1 0.007146 -0.003180 -0.001405 0.000000 0.000000 0.000000
# 2 -0.003180 0.034157 -0.004525 0.000000 0.000000 0.000000
# 3 -0.001405 -0.004525 0.006914 0.000000 0.000000 0.000000
# 4 0.000000 0.000000 0.000000 0.033359 0.000000 0.000000
# 5 0.000000 0.000000 0.000000 0.000000 0.016694 0.000000
# 6 0.000000 0.000000 0.000000 0.000000 0.000000 0.122712
#
#
# Mechanical properties :
#
#
# Convention : Reuss Voigt Hill
#
# Bulk Modulus (GPa) = 33.33740 61.29495 47.31618
# Shear Modulus (GPa) = 20.06394 37.67394 28.86894
#
# Velocity S-wave (km/s) = 3.13695 4.29853 3.76284
# Velocity P-wave (km/s) = 5.42873 7.39588 6.48730
#
# Compressibility (1/GPa) = 0.02999634
#
# Stress axis : x y z
#
# Youngs Moduli (GPa) = 139.93758 29.27627 144.62702
#
# Poissons Ratio (x) = 0.09310 0.20325
# Poissons Ratio (y) = 0.44499 0.65450
# Poissons Ratio (z) = 0.19666 0.13249
#
# Static dielectric constant tensor:
#      x y z
#    x 1.787340 0.000000 0.000000 
#    y 0.000000 1.913920 0.000000 
#    z 0.000000 0.000000 1.832380 
# 
# From -- ./inp_files/38008.got.cif
#   From: 2010.05.17/outbox.cif.g08.bks.cpg/sg64_20_cif.got.tgz:38008.got - 2010.06.03 16:29:19.
