data_PCOD9477200
_publ_section_title
;
Structure prediction by ZEFSAII (Michael W. Deem and Ramdas Pophale) SiO2 
 PCOD9477200
Probable space group: C M C A
;
_chemical_formula_sum "Si O2"
_cell_formula_units_Z 96
_cell_length_a 7.926847
_cell_length_b 30.575981
_cell_length_c 23.345090
_cell_angle_alpha 90.000000
_cell_angle_beta 90.000000
_cell_angle_gamma 90.000000
_cell_volume 5658.175686
_symmetry_space_group_name_H-M "C M C A"
_symmetry_group_IT_number 64
_symmetry_cell_setting 'orthorhombic'
loop_
_space_group_symop_operation_xyz
x,y,z
-x,1/2-y,1/2+z
x,-y,-z
-x,1/2+y,1/2-z
-x,-y,-z
x,1/2+y,1/2-z
-x,y,z
x,1/2-y,1/2+z
1/2+x,1/2+y,z
1/2-x,-y,1/2+z
1/2+x,1/2-y,-z
1/2-x,y,1/2-z
1/2-x,1/2-y,-z
1/2+x,y,1/2-z
1/2-x,1/2+y,z
1/2+x,-y,1/2+z
loop_
_atom_site_type_symbol
_atom_site_label
_atom_site_fract_x
_atom_site_fract_y
_atom_site_fract_z
Si Si1 0.806741 0.978824 0.316796
Si Si2 0.000000 0.496249 0.400673
Si Si3 0.195719 0.860613 0.515390
Si Si4 0.201034 0.728998 0.061120
Si Si5 0.188091 0.385285 0.311331
Si Si6 0.812599 0.684837 0.890672
Si Si7 0.000000 0.071531 0.003295
O O1 0.750000 0.984475 0.250000
O O2 0.801117 0.926522 0.328622
O O3 0.000000 0.994325 0.324266
O O4 0.666072 0.997735 0.360141
O O5 0.000000 0.452611 0.441158
O O6 0.000000 0.535398 0.446624
O O7 0.250691 0.821978 0.559462
O O8 0.192366 0.835665 0.454276
O O9 0.332895 0.898645 0.510598
O O10 0.000000 0.874056 0.527042
O O11 0.274216 0.763762 0.105737
O O12 0.000000 0.729804 0.065426
O O13 0.250000 0.750000 0.000000
O O14 0.250000 0.369594 0.250000
O O15 0.191641 0.345041 0.353835
O O16 0.000000 0.403725 0.306012
O O17 0.000000 0.678291 0.867244
#
# Coordination Sequence:
#
# PCOD9477200 Si02
#       7
#    16   8  16  16  16  16   8
#     4  11  20  37  61  82 111 141 182 235 276 326
#     4  11  24  40  52  92 109 145 190 218 281 343
#     4   9  20  34  51  75 104 144 187 218 262 316
#     4   9  17  28  45  71  99 129 175 221 247 291
#     4  11  20  31  47  72 107 139 174 211 263 325
#     4  10  19  29  46  74 104 139 182 217 259 308
#     4  11  24  36  58  74 123 154 178 220 277 355
#
# _framework density 16.9666
#
# number of rings (size 3 to 8) (size 9 to 14) (size 15 to 20)
#    0.000    1.833    1.667    5.500    7.000    2.667 
#    0.000    1.667    0.000    0.000    0.000    1.167 
#    0.000    0.000    0.000    0.000    0.000    0.000 
#
# Total GULP energy -267414.184131 kJ/mol
# GULP energy per Si atom -5571.128836 kJ/mol
# Density = 1.692798 g / cm^3
# Si number density = 16.966600 Si / 1000 Ang^3
#
#
#
# Elastic Constant Matrix: (Units=GPa)
#
#
# Indices 1 2 3 4 5 6 
#
# 1 122.6142 41.4947 29.8319 0.0000 0.0000 0.0000
# 2 41.4947 68.1382 19.3182 0.0000 0.0000 0.0000
# 3 29.8319 19.3182 52.2769 0.0000 0.0000 0.0000
# 4 0.0000 0.0000 0.0000 21.7254 0.0000 0.0000
# 5 0.0000 0.0000 0.0000 0.0000 18.5029 0.0000
# 6 0.0000 0.0000 0.0000 0.0000 0.0000 21.1533
#
#
#
# Elastic Compliance Matrix: (Units=1/GPa)
#
#
# Indices 1 2 3 4 5 6 
#
# 1 0.011066 -0.005528 -0.004272 0.000000 0.000000 0.000000
# 2 -0.005528 0.019155 -0.003924 0.000000 0.000000 0.000000
# 3 -0.004272 -0.003924 0.023017 0.000000 0.000000 0.000000
# 4 0.000000 0.000000 0.000000 0.046029 0.000000 0.000000
# 5 0.000000 0.000000 0.000000 0.000000 0.054046 0.000000
# 6 0.000000 0.000000 0.000000 0.000000 0.000000 0.047274
#
#
# Mechanical properties :
#
#
# Convention : Reuss Voigt Hill
#
# Bulk Modulus (GPa) = 38.77477 47.14654 42.96066
# Shear Modulus (GPa) = 21.13007 22.43530 21.78268
#
# Velocity S-wave (km/s) = 3.53284 3.64032 3.58698
# Velocity P-wave (km/s) = 6.28844 6.74666 6.52158
#
# Compressibility (1/GPa) = 0.02578997
#
# Stress axis : x y z
#
# Youngs Moduli (GPa) = 90.36972 52.20634 43.44654
#
# Poissons Ratio (x) = 0.28857 0.18560
# Poissons Ratio (y) = 0.49952 0.17049
# Poissons Ratio (z) = 0.38606 0.20486
#
# Static dielectric constant tensor:
#      x y z
#    x 1.608980 0.000000 0.000000 
#    y 0.000000 1.574600 0.000000 
#    z 0.000000 0.000000 1.581260 
# 
# From -- ./inp_files/43239.got.cif
#   From: 2010.05.17/outbox.cif.g08.bks.cpg/sg64_22_cif.got.tgz:43239.got - 2010.06.03 16:29:19.
