data_PCOD9477437
_publ_section_title
;
Structure prediction by ZEFSAII (Michael W. Deem and Ramdas Pophale) SiO2 
 PCOD9477437
Probable space group: C M C A
;
_chemical_formula_sum "Si O2"
_cell_formula_units_Z 96
_cell_length_a 17.570007
_cell_length_b 22.432275
_cell_length_c 13.902531
_cell_angle_alpha 90.000000
_cell_angle_beta 90.000000
_cell_angle_gamma 90.000000
_cell_volume 5479.477236
_symmetry_space_group_name_H-M "C M C A"
_symmetry_group_IT_number 64
_symmetry_cell_setting 'orthorhombic'
loop_
_space_group_symop_operation_xyz
x,y,z
-x,1/2-y,1/2+z
x,-y,-z
-x,1/2+y,1/2-z
-x,-y,-z
x,1/2+y,1/2-z
-x,y,z
x,1/2-y,1/2+z
1/2+x,1/2+y,z
1/2-x,-y,1/2+z
1/2+x,1/2-y,-z
1/2-x,y,1/2-z
1/2-x,1/2-y,-z
1/2+x,y,1/2-z
1/2-x,1/2+y,z
1/2+x,-y,1/2+z
loop_
_atom_site_type_symbol
_atom_site_label
_atom_site_fract_x
_atom_site_fract_y
_atom_site_fract_z
Si Si1 0.688866 0.292245 0.054879
Si Si2 0.677847 0.594667 0.322964
Si Si3 0.682941 0.373296 0.453207
Si Si4 0.086824 0.755263 0.420579
Si Si5 0.912279 0.981456 0.386984
Si Si6 0.410527 0.716793 0.296891
O O1 0.737456 0.348430 0.087673
O O2 0.643949 0.256410 0.135846
O O3 0.750000 0.250000 0.000000
O O4 0.626787 0.300697 0.972120
O O5 0.750000 0.591615 0.250000
O O6 0.698447 0.606856 0.436115
O O7 0.627819 0.534347 0.327687
O O8 0.624758 0.650692 0.294890
O O9 0.624985 0.317288 0.452679
O O10 0.642265 0.424095 0.391345
O O11 0.093947 0.746178 0.307713
O O12 0.000000 0.757247 0.448401
O O13 0.000000 0.970118 0.356718
O O14 0.916132 0.000000 0.500000
O O15 0.500000 0.715342 0.325488
#
# Coordination Sequence:
#
# PCOD9477437 Si02
#       6
#    16  16  16  16  16  16
#     4  10  19  32  51  80 112 150 183 236 289 341
#     4  11  21  35  57  84 116 146 192 241 294 345
#     4  10  20  35  56  79 110 154 193 238 286 345
#     4  10  20  33  53  83 117 152 191 236 291 355
#     4   9  19  36  58  81 106 144 190 238 288 335
#     4  11  22  34  54  84 116 153 192 237 295 354
#
# _framework density 17.519919999999999
#
# number of rings (size 3 to 8) (size 9 to 14) (size 15 to 20)
#    0.000    1.833    3.333    2.500    2.333    1.333 
#    3.000    0.000    0.000    0.000    0.000    0.000 
#    0.000   10.667    0.000    0.000    0.000    0.000 
#
# Total GULP energy -267303.689876 kJ/mol
# GULP energy per Si atom -5568.826872 kJ/mol
# Density = 1.748004 g / cm^3
# Si number density = 17.519920 Si / 1000 Ang^3
#
#
#
# Elastic Constant Matrix: (Units=GPa)
#
#
# Indices 1 2 3 4 5 6 
#
# 1 162.0232 77.8087 64.4425 0.0000 0.0000 0.0000
# 2 77.8087 98.1176 33.6639 0.0000 0.0000 0.0000
# 3 64.4425 33.6639 67.0144 0.0000 0.0000 0.0000
# 4 0.0000 0.0000 0.0000 17.1793 0.0000 0.0000
# 5 0.0000 0.0000 0.0000 0.0000 31.8158 0.0000
# 6 0.0000 0.0000 0.0000 0.0000 0.0000 30.3568
#
#
#
# Elastic Compliance Matrix: (Units=1/GPa)
#
#
# Indices 1 2 3 4 5 6 
#
# 1 0.013399 -0.007497 -0.009119 0.000000 0.000000 0.000000
# 2 -0.007497 0.016509 -0.001084 0.000000 0.000000 0.000000
# 3 -0.009119 -0.001084 0.024235 0.000000 0.000000 0.000000
# 4 0.000000 0.000000 0.000000 0.058210 0.000000 0.000000
# 5 0.000000 0.000000 0.000000 0.000000 0.031431 0.000000
# 6 0.000000 0.000000 0.000000 0.000000 0.000000 0.032942
#
#
# Mechanical properties :
#
#
# Convention : Reuss Voigt Hill
#
# Bulk Modulus (GPa) = 53.34972 75.44284 64.39628
# Shear Modulus (GPa) = 22.89658 25.95305 24.42481
#
# Velocity S-wave (km/s) = 3.61901 3.85300 3.73784
# Velocity P-wave (km/s) = 6.92676 7.93403 7.44744
#
# Compressibility (1/GPa) = 0.01874424
#
# Stress axis : x y z
#
# Youngs Moduli (GPa) = 74.63127 60.57304 41.26185
#
# Poissons Ratio (x) = 0.45412 0.37626
# Poissons Ratio (y) = 0.55952 0.04472
# Poissons Ratio (z) = 0.68055 0.06564
#
# Static dielectric constant tensor:
#      x y z
#    x 1.613300 0.000000 0.000000 
#    y 0.000000 1.618630 0.000000 
#    z 0.000000 0.000000 1.633950 
# 
# From -- ./inp_files/16236.got.cif
#   From: 2010.05.17/outbox.cif.g08.bks.cpg/sg64_9_cif.got.tgz:16236.got - 2010.06.03 16:29:19.
