data_PCOD9477203
_publ_section_title
;
Structure prediction by ZEFSAII (Michael W. Deem and Ramdas Pophale) SiO2 
 PCOD9477203
Probable space group: C M C A
;
_chemical_formula_sum "Si O2"
_cell_formula_units_Z 64
_cell_length_a 9.960993
_cell_length_b 9.661068
_cell_length_c 22.329637
_cell_angle_alpha 90.000000
_cell_angle_beta 90.000000
_cell_angle_gamma 90.000000
_cell_volume 2148.866507
_symmetry_space_group_name_H-M "C M C A"
_symmetry_group_IT_number 64
_symmetry_cell_setting 'orthorhombic'
loop_
_space_group_symop_operation_xyz
x,y,z
-x,1/2-y,1/2+z
x,-y,-z
-x,1/2+y,1/2-z
-x,-y,-z
x,1/2+y,1/2-z
-x,y,z
x,1/2-y,1/2+z
1/2+x,1/2+y,z
1/2-x,-y,1/2+z
1/2+x,1/2-y,-z
1/2-x,y,1/2-z
1/2-x,1/2-y,-z
1/2+x,y,1/2-z
1/2-x,1/2+y,z
1/2+x,-y,1/2+z
loop_
_atom_site_type_symbol
_atom_site_label
_atom_site_fract_x
_atom_site_fract_y
_atom_site_fract_z
Si Si1 0.000000 0.269275 0.971211
Si Si2 0.500000 0.867001 0.587943
Si Si3 0.743298 0.944444 0.441039
Si Si4 0.000000 0.143105 0.218260
Si Si5 0.000000 0.825135 0.656924
Si Si6 0.763392 0.146338 0.687503
O O1 0.862373 0.180016 0.956769
O O2 0.000000 0.366758 0.912259
O O3 0.000000 0.272558 0.044752
O O4 0.500000 0.934284 0.655712
O O5 0.639452 0.930436 0.568107
O O6 0.805241 0.921731 0.375240
O O7 0.822776 0.000000 0.500000
O O8 0.000000 0.076983 0.283910
O O9 0.126989 0.241538 0.206307
O O10 0.128865 0.728566 0.670061
O O11 0.750000 0.061161 0.750000
#
# Coordination Sequence:
#
# PCOD9477203 Si02
#       6
#     8   8  16   8   8  16
#     4   7  12  26  49  69  83 120 173 193 204 272
#     4   9  16  28  49  74  95 118 158 204 234 265
#     4   8  14  28  49  68  88 124 167 194 217 274
#     4  10  19  29  47  76 100 117 149 202 246 271
#     4   8  15  31  50  63  86 129 167 183 210 282
#     4   9  17  31  51  70  92 128 164 188 226 290
#
# _framework density 29.783144
#
# number of rings (size 3 to 8) (size 9 to 14) (size 15 to 20)
#    0.000    3.500    0.000    2.250    0.000    0.000 
#    0.000   15.625    0.000    1.500    0.000    0.000 
#    0.000    0.000    0.000    0.000    0.000    0.000 
#
# Total GULP energy -178351.927717 kJ/mol
# GULP energy per Si atom -5573.497741 kJ/mol
# Density = 2.971536 g / cm^3
# Si number density = 29.783144 Si / 1000 Ang^3
#
#
#
# Elastic Constant Matrix: (Units=GPa)
#
#
# Indices 1 2 3 4 5 6 
#
# 1 112.7635 26.7018 53.1926 0.0000 0.0000 0.0000
# 2 26.7018 34.1552 15.0855 0.0000 0.0000 0.0000
# 3 53.1926 15.0855 302.4401 0.0000 0.0000 0.0000
# 4 0.0000 0.0000 0.0000 36.9412 0.0000 0.0000
# 5 0.0000 0.0000 0.0000 0.0000 282.0158 0.0000
# 6 0.0000 0.0000 0.0000 0.0000 0.0000 38.8489
#
#
#
# Elastic Compliance Matrix: (Units=1/GPa)
#
#
# Indices 1 2 3 4 5 6 
#
# 1 0.011615 -0.008362 -0.001626 0.000000 0.000000 0.000000
# 2 -0.008362 0.035958 -0.000323 0.000000 0.000000 0.000000
# 3 -0.001626 -0.000323 0.003608 0.000000 0.000000 0.000000
# 4 0.000000 0.000000 0.000000 0.027070 0.000000 0.000000
# 5 0.000000 0.000000 0.000000 0.000000 0.003546 0.000000
# 6 0.000000 0.000000 0.000000 0.000000 0.000000 0.025741
#
#
# Mechanical properties :
#
#
# Convention : Reuss Voigt Hill
#
# Bulk Modulus (GPa) = 32.72260 71.03541 51.87900
# Shear Modulus (GPa) = 36.14092 95.18644 65.66368
#
# Velocity S-wave (km/s) = 3.48727 5.65944 4.70055
# Velocity P-wave (km/s) = 5.21781 8.16139 6.84959
#
# Compressibility (1/GPa) = 0.03055992
#
# Stress axis : x y z
#
# Youngs Moduli (GPa) = 86.09406 27.81001 277.12550
#
# Poissons Ratio (x) = 0.23256 0.45054
# Poissons Ratio (y) = 0.71996 0.08946
# Poissons Ratio (z) = 0.13997 0.00898
#
# Static dielectric constant tensor:
#      x y z
#    x 1.819850 0.000000 0.000000 
#    y 0.000000 2.401850 0.000000 
#    z 0.000000 0.000000 2.583840 
# 
# From -- ./inp_files/30639.got.cif
#   From: 2010.05.17/outbox.cif.g08.bks.cpg/sg64_16_cif.got.tgz:30639.got - 2010.06.03 16:29:19.
