data_PCOD9477774
_publ_section_title
;
Structure prediction by ZEFSAII (Michael W. Deem and Ramdas Pophale) SiO2 
 PCOD9477774
Probable space group: C M C A
;
_chemical_formula_sum "Si O2"
_cell_formula_units_Z 96
_cell_length_a 14.378412
_cell_length_b 14.482382
_cell_length_c 20.325601
_cell_angle_alpha 90.000000
_cell_angle_beta 90.000000
_cell_angle_gamma 90.000000
_cell_volume 4232.474189
_symmetry_space_group_name_H-M "C M C A"
_symmetry_group_IT_number 64
_symmetry_cell_setting 'orthorhombic'
loop_
_space_group_symop_operation_xyz
x,y,z
-x,1/2-y,1/2+z
x,-y,-z
-x,1/2+y,1/2-z
-x,-y,-z
x,1/2+y,1/2-z
-x,y,z
x,1/2-y,1/2+z
1/2+x,1/2+y,z
1/2-x,-y,1/2+z
1/2+x,1/2-y,-z
1/2-x,y,1/2-z
1/2-x,1/2-y,-z
1/2+x,y,1/2-z
1/2-x,1/2+y,z
1/2+x,-y,1/2+z
loop_
_atom_site_type_symbol
_atom_site_label
_atom_site_fract_x
_atom_site_fract_y
_atom_site_fract_z
Si Si1 0.614462 0.268867 0.047227
Si Si2 0.886412 0.541209 0.615789
Si Si3 0.892516 0.465510 0.234369
Si Si4 0.605257 0.632187 0.346211
Si Si5 0.387168 0.838247 0.590047
Si Si6 0.853459 0.259699 0.225448
O O1 0.500000 0.267214 0.049827
O O2 0.644480 0.364516 0.081742
O O3 0.648831 0.183429 0.091185
O O4 0.642017 0.275241 0.971244
O O5 0.854373 0.537151 0.691603
O O6 0.860126 0.445405 0.581224
O O7 0.000000 0.545163 0.615810
O O8 0.849784 0.541165 0.185526
O O9 0.892425 0.360704 0.209890
O O10 0.000000 0.495938 0.242450
O O11 0.500000 0.607199 0.366493
O O12 0.600373 0.706839 0.286907
O O13 0.500000 0.836820 0.591344
O O14 0.356415 0.802459 0.660891
O O15 0.750000 0.274166 0.250000
#
# Coordination Sequence:
#
# PCOD9477774 Si02
#       6
#    16  16  16  16  16  16
#     4   9  17  30  55  89 119 142 182 241 295 341
#     4   9  15  27  54  87 113 138 179 238 286 325
#     4  10  19  34  58  82 106 142 192 240 278 330
#     4  10  19  36  60  84 109 144 188 236 286 336
#     4  10  19  34  56  87 119 149 188 236 290 342
#     4  12  24  36  53  81 115 153 189 229 281 340
#
# _framework density 22.68177
#
# number of rings (size 3 to 8) (size 9 to 14) (size 15 to 20)
#    0.000    2.000    3.333    2.000    0.000    2.667 
#    0.000    1.667    0.000    4.000    0.000    0.000 
#    0.000    0.000    0.000    0.000    0.000    0.000 
#
# Total GULP energy -268223.725904 kJ/mol
# GULP energy per Si atom -5587.994290 kJ/mol
# Density = 2.263015 g / cm^3
# Si number density = 22.681770 Si / 1000 Ang^3
#
#
#
# Elastic Constant Matrix: (Units=GPa)
#
#
# Indices 1 2 3 4 5 6 
#
# 1 48.4554 -4.2695 -0.1595 0.0000 0.0000 0.0000
# 2 -4.2695 69.3402 -0.3484 0.0000 0.0000 0.0000
# 3 -0.1595 -0.3484 74.1474 0.0000 0.0000 0.0000
# 4 0.0000 0.0000 0.0000 34.0715 0.0000 0.0000
# 5 0.0000 0.0000 0.0000 0.0000 5.6313 0.0000
# 6 0.0000 0.0000 0.0000 0.0000 0.0000 33.2193
#
#
#
# Elastic Compliance Matrix: (Units=1/GPa)
#
#
# Indices 1 2 3 4 5 6 
#
# 1 0.020750 0.001278 0.000051 0.000000 0.000000 0.000000
# 2 0.001278 0.014501 0.000071 0.000000 0.000000 0.000000
# 3 0.000051 0.000071 0.013487 0.000000 0.000000 0.000000
# 4 0.000000 0.000000 0.000000 0.029350 0.000000 0.000000
# 5 0.000000 0.000000 0.000000 0.000000 0.177579 0.000000
# 6 0.000000 0.000000 0.000000 0.000000 0.000000 0.030103
#
#
# Mechanical properties :
#
#
# Convention : Reuss Voigt Hill
#
# Bulk Modulus (GPa) = 19.40355 20.26536 19.83446
# Shear Modulus (GPa) = 16.65830 27.69910 22.17870
#
# Velocity S-wave (km/s) = 2.71299 3.49837 3.13040
# Velocity P-wave (km/s) = 4.28801 5.02714 4.67221
#
# Compressibility (1/GPa) = 0.05153695
#
# Stress axis : x y z
#
# Youngs Moduli (GPa) = 48.19207 68.96224 74.14499
#
# Poissons Ratio (x) = -0.08813 -0.00376
# Poissons Ratio (y) = -0.06158 -0.00526
# Poissons Ratio (z) = -0.00244 -0.00489
#
# Static dielectric constant tensor:
#      x y z
#    x 1.902170 0.000000 0.000000 
#    y 0.000000 1.840910 0.000000 
#    z 0.000000 0.000000 1.822680 
# 
# From -- ./inp_files/39196.got.cif
#   From: 2010.05.17/outbox.cif.g08.bks.cpg/sg64_20_cif.got.tgz:39196.got - 2010.06.03 16:29:19.
