data_PCOD9477318
_publ_section_title
;
Structure prediction by ZEFSAII (Michael W. Deem and Ramdas Pophale) SiO2 
 PCOD9477318
Probable space group: C M C A
;
_chemical_formula_sum "Si O2"
_cell_formula_units_Z 96
_cell_length_a 9.396698
_cell_length_b 14.267532
_cell_length_c 31.834512
_cell_angle_alpha 90.000000
_cell_angle_beta 90.000000
_cell_angle_gamma 90.000000
_cell_volume 4267.979467
_symmetry_space_group_name_H-M "C M C A"
_symmetry_group_IT_number 64
_symmetry_cell_setting 'orthorhombic'
loop_
_space_group_symop_operation_xyz
x,y,z
-x,1/2-y,1/2+z
x,-y,-z
-x,1/2+y,1/2-z
-x,-y,-z
x,1/2+y,1/2-z
-x,y,z
x,1/2-y,1/2+z
1/2+x,1/2+y,z
1/2-x,-y,1/2+z
1/2+x,1/2-y,-z
1/2-x,y,1/2-z
1/2-x,1/2-y,-z
1/2+x,y,1/2-z
1/2-x,1/2+y,z
1/2+x,-y,1/2+z
loop_
_atom_site_type_symbol
_atom_site_label
_atom_site_fract_x
_atom_site_fract_y
_atom_site_fract_z
Si Si1 0.160531 0.828892 0.125881
Si Si2 0.839388 0.346636 0.210350
Si Si3 0.839908 0.570637 0.210191
Si Si4 0.838774 0.893095 0.616674
Si Si5 0.336806 0.646367 0.545997
Si Si6 0.337099 0.125409 0.463677
O O1 0.248364 0.832233 0.168660
O O2 0.147581 0.719284 0.114903
O O3 0.252438 0.873902 0.088750
O O4 0.000000 0.867349 0.129877
O O5 0.750000 0.311661 0.250000
O O6 0.852079 0.458843 0.215227
O O7 0.000000 0.308081 0.207614
O O8 0.750000 0.604211 0.250000
O O9 0.779305 0.585643 0.163266
O O10 0.000000 0.611745 0.210252
O O11 0.741477 0.916230 0.576994
O O12 0.000000 0.932983 0.614211
O O13 0.500000 0.614253 0.546800
O O14 0.340519 0.760526 0.541526
O O15 0.251725 0.608818 0.505911
O O16 0.500000 0.093839 0.466829
#
# Coordination Sequence:
#
# PCOD9477318 Si02
#       6
#    16  16  16  16  16  16
#     4  10  19  31  49  74 102 128 158 199 242 284
#     4  10  20  35  53  71  94 126 163 199 238 287
#     4   9  19  35  53  71  93 125 163 199 237 285
#     4   9  18  32  49  72 100 128 159 197 241 285
#     4   9  16  27  44  67  97 131 163 195 234 282
#     4   9  16  26  43  69  98 128 161 196 236 282
#
# _framework density 22.493079999999999
#
# number of rings (size 3 to 8) (size 9 to 14) (size 15 to 20)
#    0.000    2.667    0.000    2.000    0.000    6.667 
#    0.000    1.667    0.000    1.000    0.000    7.000 
#    0.000    0.000    0.000    0.000    0.000    0.000 
#
# Total GULP energy -268228.457398 kJ/mol
# GULP energy per Si atom -5588.092862 kJ/mol
# Density = 2.244188 g / cm^3
# Si number density = 22.493080 Si / 1000 Ang^3
#
#
#
# Elastic Constant Matrix: (Units=GPa)
#
#
# Indices 1 2 3 4 5 6 
#
# 1 220.6553 2.1302 149.8741 0.0000 0.0000 0.0000
# 2 2.1302 53.1276 -4.1926 0.0000 0.0000 0.0000
# 3 149.8741 -4.1926 247.3141 0.0000 0.0000 0.0000
# 4 0.0000 0.0000 0.0000 32.8571 0.0000 0.0000
# 5 0.0000 0.0000 0.0000 0.0000 35.8403 0.0000
# 6 0.0000 0.0000 0.0000 0.0000 0.0000 -0.0786
#
#
#
# Elastic Compliance Matrix: (Units=1/GPa)
#
#
# Indices 1 2 3 4 5 6 
#
# 1 0.007727 -0.000680 -0.004694 0.000000 0.000000 0.000000
# 2 -0.000680 0.018908 0.000733 0.000000 0.000000 0.000000
# 3 -0.004694 0.000733 0.006900 0.000000 0.000000 0.000000
# 4 0.000000 0.000000 0.000000 0.030435 0.000000 0.000000
# 5 0.000000 0.000000 0.000000 0.000000 0.027902 0.000000
# 6 0.000000 0.000000 0.000000 0.000000 0.000000-12.729010
#
#
# Mechanical properties :
#
#
# Convention : Reuss Voigt Hill
#
# Bulk Modulus (GPa) = 41.23373 90.74670 65.99021
# Shear Modulus (GPa) = -0.39620 38.60945 19.10662
#
# Velocity S-wave (km/s) = -0.42015 4.14757 2.91768
# Velocity P-wave (km/s) = 4.25866 7.96042 6.38375
#
# Compressibility (1/GPa) = 0.02425199
#
# Stress axis : x y z
#
# Youngs Moduli (GPa) = 129.41937 52.88845 144.91739
#
# Poissons Ratio (x) = 0.03598 0.68025
# Poissons Ratio (y) = 0.08804 -0.10619
# Poissons Ratio (z) = 0.60750 -0.03875
#
# Static dielectric constant tensor:
#      x y z
#    x 1.812630 0.000000 0.000000 
#    y 0.000000 1.886110 0.000000 
#    z 0.000000 0.000000 1.792230 
# 
# From -- ./inp_files/48369.got.cif
#   From: 2010.05.17/outbox.cif.g08.bks.cpg/sg64_25_cif.got.tgz:48369.got - 2010.06.03 16:29:19.
