data_PCOD9477394
_publ_section_title
;
Structure prediction by ZEFSAII (Michael W. Deem and Ramdas Pophale) SiO2 
 PCOD9477394
Probable space group: C M C A
;
_chemical_formula_sum "Si O2"
_cell_formula_units_Z 112
_cell_length_a 17.206816
_cell_length_b 24.655469
_cell_length_c 14.167856
_cell_angle_alpha 90.000000
_cell_angle_beta 90.000000
_cell_angle_gamma 90.000000
_cell_volume 6010.601244
_symmetry_space_group_name_H-M "C M C A"
_symmetry_group_IT_number 64
_symmetry_cell_setting 'orthorhombic'
loop_
_space_group_symop_operation_xyz
x,y,z
-x,1/2-y,1/2+z
x,-y,-z
-x,1/2+y,1/2-z
-x,-y,-z
x,1/2+y,1/2-z
-x,y,z
x,1/2-y,1/2+z
1/2+x,1/2+y,z
1/2-x,-y,1/2+z
1/2+x,1/2-y,-z
1/2-x,y,1/2-z
1/2-x,1/2-y,-z
1/2+x,y,1/2-z
1/2-x,1/2+y,z
1/2+x,-y,1/2+z
loop_
_atom_site_type_symbol
_atom_site_label
_atom_site_fract_x
_atom_site_fract_y
_atom_site_fract_z
Si Si1 0.090868 0.440825 0.041207
Si Si2 0.794143 0.622424 0.848573
Si Si3 0.089154 0.216884 0.692102
Si Si4 0.908593 0.653374 0.319085
Si Si5 0.914733 0.770531 0.085564
Si Si6 0.863191 0.348737 0.891446
Si Si7 0.698902 0.844833 0.522388
O O1 0.144530 0.424869 0.129454
O O2 0.000000 0.438012 0.065239
O O3 0.107985 0.500000 0.000000
O O4 0.109892 0.396370 0.960564
O O5 0.750000 0.619364 0.750000
O O6 0.845854 0.677953 0.852041
O O7 0.732144 0.622458 0.933417
O O8 0.102201 0.280833 0.674617
O O9 0.093179 0.210235 0.805866
O O10 0.000000 0.203868 0.662221
O O11 0.875158 0.636553 0.217646
O O12 0.863074 0.628465 0.407179
O O13 0.000000 0.642654 0.320940
O O14 0.911201 0.705768 0.088567
O O15 0.000000 0.787871 0.049701
O O16 0.845468 0.794266 0.024249
O O17 0.774277 0.333270 0.914146
#
# Coordination Sequence:
#
# PCOD9477394 Si02
#       7
#    16  16  16  16  16  16  16
#     4  10  22  41  64  86 106 141 197 250 292 337
#     4  11  22  37  56  82 115 147 184 233 289 335
#     4   9  19  33  51  74 111 155 191 221 265 333
#     4  10  21  35  51  78 117 158 192 225 272 339
#     4  10  19  32  49  77 116 153 182 216 265 335
#     4  10  21  36  57  78 111 146 189 237 286 326
#     4  11  22  32  50  82 114 151 189 224 271 337
#
# _framework density 18.633742999999999
#
# number of rings (size 3 to 8) (size 9 to 14) (size 15 to 20)
#    0.000    1.857    1.429    3.857    6.000    0.000 
#    0.000    2.857    0.000    0.000    0.000    0.000 
#    0.000   22.857    0.000    0.000    0.000    0.000 
#
# Total GULP energy -312655.562482 kJ/mol
# GULP energy per Si atom -5583.135044 kJ/mol
# Density = 1.859133 g / cm^3
# Si number density = 18.633743 Si / 1000 Ang^3
#
#
#
# Elastic Constant Matrix: (Units=GPa)
#
#
# Indices 1 2 3 4 5 6 
#
# 1 109.2333 18.6678 57.1424 0.0000 0.0000 0.0000
# 2 18.6678 35.7585 -0.4648 0.0000 0.0000 0.0000
# 3 57.1424 -0.4648 98.9560 0.0000 0.0000 0.0000
# 4 0.0000 0.0000 0.0000 13.9157 0.0000 0.0000
# 5 0.0000 0.0000 0.0000 0.0000 18.6897 0.0000
# 6 0.0000 0.0000 0.0000 0.0000 0.0000 14.3539
#
#
#
# Elastic Compliance Matrix: (Units=1/GPa)
#
#
# Indices 1 2 3 4 5 6 
#
# 1 0.015104 -0.007999 -0.008759 0.000000 0.000000 0.000000
# 2 -0.007999 0.032203 0.004770 0.000000 0.000000 0.000000
# 3 -0.008759 0.004770 0.015186 0.000000 0.000000 0.000000
# 4 0.000000 0.000000 0.000000 0.071861 0.000000 0.000000
# 5 0.000000 0.000000 0.000000 0.000000 0.053505 0.000000
# 6 0.000000 0.000000 0.000000 0.000000 0.000000 0.069667
#
#
# Mechanical properties :
#
#
# Convention : Reuss Voigt Hill
#
# Bulk Modulus (GPa) = 25.96250 43.84872 34.90561
# Shear Modulus (GPa) = 16.98702 20.63202 18.80952
#
# Velocity S-wave (km/s) = 3.02259 3.33113 3.18060
# Velocity P-wave (km/s) = 5.11319 6.19502 5.67992
#
# Compressibility (1/GPa) = 0.03851710
#
# Stress axis : x y z
#
# Youngs Moduli (GPa) = 66.20792 31.05283 65.85005
#
# Poissons Ratio (x) = 0.24839 0.57680
# Poissons Ratio (y) = 0.52959 -0.31412
# Poissons Ratio (z) = 0.57994 -0.14813
#
# Static dielectric constant tensor:
#      x y z
#    x 1.667410 0.000000 0.000000 
#    y 0.000000 1.603990 0.000000 
#    z 0.000000 0.000000 1.688450 
# 
# From -- ./inp_files/24422.got.cif
#   From: 2010.05.17/outbox.cif.g08.bks.cpg/sg64_13_cif.got.tgz:24422.got - 2010.06.03 16:29:19.
