data_PCOD9477223
_publ_section_title
;
Structure prediction by ZEFSAII (Michael W. Deem and Ramdas Pophale) SiO2 
 PCOD9477223
Probable space group: C M C A
;
_chemical_formula_sum "Si O2"
_cell_formula_units_Z 96
_cell_length_a 9.282083
_cell_length_b 19.114140
_cell_length_c 32.085816
_cell_angle_alpha 90.000000
_cell_angle_beta 90.000000
_cell_angle_gamma 90.000000
_cell_volume 5692.634478
_symmetry_space_group_name_H-M "C M C A"
_symmetry_group_IT_number 64
_symmetry_cell_setting 'orthorhombic'
loop_
_space_group_symop_operation_xyz
x,y,z
-x,1/2-y,1/2+z
x,-y,-z
-x,1/2+y,1/2-z
-x,-y,-z
x,1/2+y,1/2-z
-x,y,z
x,1/2-y,1/2+z
1/2+x,1/2+y,z
1/2-x,-y,1/2+z
1/2+x,1/2-y,-z
1/2-x,y,1/2-z
1/2-x,1/2-y,-z
1/2+x,y,1/2-z
1/2-x,1/2+y,z
1/2+x,-y,1/2+z
loop_
_atom_site_type_symbol
_atom_site_label
_atom_site_fract_x
_atom_site_fract_y
_atom_site_fract_z
Si Si1 0.326283 0.831077 0.129218
Si Si2 0.827717 0.426827 0.207911
Si Si3 0.827861 0.590197 0.207943
Si Si4 0.827166 0.818078 0.627251
Si Si5 0.665098 0.661270 0.537078
Si Si6 0.334474 0.168469 0.456008
O O1 0.500000 0.818171 0.129121
O O2 0.290643 0.881740 0.167362
O O3 0.242408 0.758306 0.133465
O O4 0.292150 0.862553 0.083491
O O5 0.750000 0.402218 0.250000
O O6 0.789917 0.508489 0.201608
O O7 0.000000 0.422558 0.213650
O O8 0.750000 0.614848 0.250000
O O9 0.791226 0.634658 0.167181
O O10 0.000000 0.594455 0.213892
O O11 0.759569 0.848138 0.584635
O O12 0.000000 0.813087 0.623272
O O13 0.500000 0.640642 0.528620
O O14 0.667529 0.746384 0.540213
O O15 0.765997 0.640758 0.498823
O O16 0.500000 0.147259 0.450874
#
# Coordination Sequence:
#
# PCOD9477223 Si02
#       6
#    16  16  16  16  16  16
#     4   9  18  31  48  70  95 122 152 190 232 271
#     4   9  18  34  52  69  91 120 156 192 228 274
#     4   9  19  34  51  69  90 121 157 191 228 272
#     4  10  19  30  46  70  97 122 152 190 229 271
#     4   8  14  25  41  63  90 119 150 185 226 269
#     4   9  16  26  42  65  92 122 153 186 226 269
#
# _framework density 16.863896
#
# number of rings (size 3 to 8) (size 9 to 14) (size 15 to 20)
#    0.000    3.000    0.000    2.000    0.000    6.667 
#    0.000    3.333    0.000    1.000    0.000    7.000 
#    0.000    0.000    0.000    0.000    0.000    0.000 
#
# Total GULP energy -267394.303054 kJ/mol
# GULP energy per Si atom -5570.714647 kJ/mol
# Density = 1.682551 g / cm^3
# Si number density = 16.863896 Si / 1000 Ang^3
#
#
#
# Elastic Constant Matrix: (Units=GPa)
#
#
# Indices 1 2 3 4 5 6 
#
# 1 60.5521 29.7321 81.6607 0.0000 0.0000 0.0000
# 2 29.7321 28.5605 55.8965 0.0000 0.0000 0.0000
# 3 81.6607 55.8965 195.6497 0.0000 0.0000 0.0000
# 4 0.0000 0.0000 0.0000 -10.9126 0.0000 0.0000
# 5 0.0000 0.0000 0.0000 0.0000 35.4113 0.0000
# 6 0.0000 0.0000 0.0000 0.0000 0.0000 14.9142
#
#
#
# Elastic Compliance Matrix: (Units=1/GPa)
#
#
# Indices 1 2 3 4 5 6 
#
# 1 0.043079 -0.021903 -0.011723 0.000000 0.000000 0.000000
# 2 -0.021903 0.090558 -0.016730 0.000000 0.000000 0.000000
# 3 -0.011723 -0.016730 0.014784 0.000000 0.000000 0.000000
# 4 0.000000 0.000000 0.000000 -0.091637 0.000000 0.000000
# 5 0.000000 0.000000 0.000000 0.000000 0.028240 0.000000
# 6 0.000000 0.000000 0.000000 0.000000 0.000000 0.067050
#
#
# Mechanical properties :
#
#
# Convention : Reuss Voigt Hill
#
# Bulk Modulus (GPa) = 20.96060 68.81565 44.88812
# Shear Modulus (GPa) = 18.60892 15.71411 17.16151
#
# Velocity S-wave (km/s) = 3.32547 3.05588 3.19352
# Velocity P-wave (km/s) = 5.21548 7.30386 6.34616
#
# Compressibility (1/GPa) = 0.04770856
#
# Stress axis : x y z
#
# Youngs Moduli (GPa) = 23.21331 11.04262 67.64201
#
# Poissons Ratio (x) = 0.24187 0.79294
# Poissons Ratio (y) = 0.50845 1.13166
# Poissons Ratio (z) = 0.27212 0.18474
#
# Static dielectric constant tensor:
#      x y z
#    x 1.566890 0.000000 0.000000 
#    y 0.000000 1.550880 0.000000 
#    z 0.000000 0.000000 1.576140 
# 
# From -- ./inp_files/48370.got.cif
#   From: 2010.05.17/outbox.cif.g08.bks.cpg/sg64_25_cif.got.tgz:48370.got - 2010.06.03 16:29:19.
