data_PCOD9477121
_publ_section_title
;
Structure prediction by ZEFSAII (Michael W. Deem and Ramdas Pophale) SiO2 
 PCOD9477121
Probable space group: C M C A
;
_chemical_formula_sum "Si O2"
_cell_formula_units_Z 72
_cell_length_a 16.137791
_cell_length_b 16.888264
_cell_length_c 13.044607
_cell_angle_alpha 90.000000
_cell_angle_beta 90.000000
_cell_angle_gamma 90.000000
_cell_volume 3555.167732
_symmetry_space_group_name_H-M "C M C A"
_symmetry_group_IT_number 64
_symmetry_cell_setting 'orthorhombic'
loop_
_space_group_symop_operation_xyz
x,y,z
-x,1/2-y,1/2+z
x,-y,-z
-x,1/2+y,1/2-z
-x,-y,-z
x,1/2+y,1/2-z
-x,y,z
x,1/2-y,1/2+z
1/2+x,1/2+y,z
1/2-x,-y,1/2+z
1/2+x,1/2-y,-z
1/2-x,y,1/2-z
1/2-x,1/2-y,-z
1/2+x,y,1/2-z
1/2-x,1/2+y,z
1/2+x,-y,1/2+z
loop_
_atom_site_type_symbol
_atom_site_label
_atom_site_fract_x
_atom_site_fract_y
_atom_site_fract_z
Si Si1 0.694819 0.443730 0.663528
Si Si2 0.825808 0.500000 0.500000
Si Si3 0.405053 0.097283 0.777720
Si Si4 0.157351 0.836969 0.072081
Si Si5 0.852392 0.170047 0.512413
O O1 0.750000 0.400240 0.750000
O O2 0.763488 0.488058 0.594765
O O3 0.637928 0.511558 0.712033
O O4 0.645639 0.386931 0.586827
O O5 0.873005 0.581700 0.518676
O O6 0.500000 0.088592 0.746173
O O7 0.359662 0.150583 0.692166
O O8 0.400029 0.136459 0.889999
O O9 0.121471 0.757220 0.023546
O O10 0.255721 0.830932 0.048253
#
# Coordination Sequence:
#
# PCOD9477121 Si02
#       5
#    16   8  16  16  16
#     4  11  19  37  62  88 115 149 201 250 290 342
#     4  10  18  36  66  86 112 150 196 256 282 340
#     4  12  23  38  59  86 126 162 189 238 303 366
#     4  10  21  39  63  90 114 153 204 251 295 342
#     4  10  22  38  66  90 114 152 205 255 293 346
#
# _framework density 20.252209000000001
#
# number of rings (size 3 to 8) (size 9 to 14) (size 15 to 20)
#    0.000    1.333    6.667    0.667    0.000    8.000 
#    0.000    0.556    0.000    0.000    0.000    0.000 
#    0.000    0.000    0.000    0.000    0.000    0.000 
#
# Total GULP energy -200902.416014 kJ/mol
# GULP energy per Si atom -5580.622667 kJ/mol
# Density = 2.020611 g / cm^3
# Si number density = 20.252209 Si / 1000 Ang^3
#
#
#
# Elastic Constant Matrix: (Units=GPa)
#
#
# Indices 1 2 3 4 5 6 
#
# 1 27.5866 15.5926 31.6345 0.0000 0.0000 0.0000
# 2 15.5926 150.1807 49.1903 0.0000 0.0000 0.0000
# 3 31.6345 49.1903 82.5686 0.0000 0.0000 0.0000
# 4 0.0000 0.0000 0.0000 35.2259 0.0000 0.0000
# 5 0.0000 0.0000 0.0000 0.0000 11.4356 0.0000
# 6 0.0000 0.0000 0.0000 0.0000 0.0000 5.3628
#
#
#
# Elastic Compliance Matrix: (Units=1/GPa)
#
#
# Indices 1 2 3 4 5 6 
#
# 1 0.065024 0.001750 -0.025955 0.000000 0.000000 0.000000
# 2 0.001750 0.008320 -0.005627 0.000000 0.000000 0.000000
# 3 -0.025955 -0.005627 0.025408 0.000000 0.000000 0.000000
# 4 0.000000 0.000000 0.000000 0.028388 0.000000 0.000000
# 5 0.000000 0.000000 0.000000 0.000000 0.087447 0.000000
# 6 0.000000 0.000000 0.000000 0.000000 0.000000 0.186468
#
#
# Mechanical properties :
#
#
# Convention : Reuss Voigt Hill
#
# Bulk Modulus (GPa) = 25.58380 50.35232 37.96806
# Shear Modulus (GPa) = 10.55412 21.33275 15.94344
#
# Velocity S-wave (km/s) = 2.28531 3.24906 2.80883
# Velocity P-wave (km/s) = 4.42985 6.24434 5.41366
#
# Compressibility (1/GPa) = 0.03908724
#
# Stress axis : x y z
#
# Youngs Moduli (GPa) = 15.37894 120.19108 39.35792
#
# Poissons Ratio (x) = -0.21037 1.02155
# Poissons Ratio (y) = -0.02692 0.22148
# Poissons Ratio (z) = 0.39917 0.67635
#
# Static dielectric constant tensor:
#      x y z
#    x 1.696990 0.000000 0.000000 
#    y 0.000000 1.746670 0.000000 
#    z 0.000000 0.000000 1.744410 
# 
# From -- ./inp_files/15767.got.cif
#   From: 2010.05.17/outbox.cif.g08.bks.cpg/sg64_8_cif.got.tgz:15767.got - 2010.06.03 16:29:19.
