data_PCOD9477499
_publ_section_title
;
Structure prediction by ZEFSAII (Michael W. Deem and Ramdas Pophale) SiO2 
 PCOD9477499
Probable space group: C M C A
;
_chemical_formula_sum "Si O2"
_cell_formula_units_Z 96
_cell_length_a 18.727381
_cell_length_b 19.432302
_cell_length_c 11.711440
_cell_angle_alpha 90.000000
_cell_angle_beta 90.000000
_cell_angle_gamma 90.000000
_cell_volume 4261.981843
_symmetry_space_group_name_H-M "C M C A"
_symmetry_group_IT_number 64
_symmetry_cell_setting 'orthorhombic'
loop_
_space_group_symop_operation_xyz
x,y,z
-x,1/2-y,1/2+z
x,-y,-z
-x,1/2+y,1/2-z
-x,-y,-z
x,1/2+y,1/2-z
-x,y,z
x,1/2-y,1/2+z
1/2+x,1/2+y,z
1/2-x,-y,1/2+z
1/2+x,1/2-y,-z
1/2-x,y,1/2-z
1/2-x,1/2-y,-z
1/2+x,y,1/2-z
1/2-x,1/2+y,z
1/2+x,-y,1/2+z
loop_
_atom_site_type_symbol
_atom_site_label
_atom_site_fract_x
_atom_site_fract_y
_atom_site_fract_z
Si Si1 0.082310 0.249540 0.200108
Si Si2 0.164634 0.917669 0.974425
Si Si3 0.422273 0.113707 0.676647
Si Si4 0.175013 0.073960 0.437537
Si Si5 0.421167 0.047609 0.268985
Si Si6 0.913054 0.205924 0.460449
O O1 0.083836 0.331717 0.223740
O O2 0.110467 0.245288 0.068623
O O3 0.108261 0.222465 0.326488
O O4 0.000000 0.226611 0.195207
O O5 0.243842 0.899747 0.935710
O O6 0.100957 0.912753 0.883315
O O7 0.141784 0.879788 0.088715
O O8 0.167100 0.000000 0.000000
O O9 0.500000 0.128029 0.620969
O O10 0.423392 0.034312 0.712279
O O11 0.144176 0.060731 0.313200
O O12 0.122555 0.132117 0.485240
O O13 0.171569 0.000000 0.500000
O O14 0.500000 0.068194 0.227302
O O15 0.000000 0.204243 0.463116
#
# Coordination Sequence:
#
# PCOD9477499 Si02
#       6
#    16  16  16  16  16  16
#     4   9  19  36  58  83 114 152 199 250 294 341
#     4   9  19  34  52  80 117 154 190 233 293 358
#     4   9  17  33  58  83 108 144 191 241 289 342
#     4  11  22  35  54  83 120 155 187 235 297 356
#     4  10  19  32  54  83 113 147 191 242 291 346
#     4  10  21  38  59  86 118 156 201 245 293 350
#
# _framework density 22.524732
#
# number of rings (size 3 to 8) (size 9 to 14) (size 15 to 20)
#    0.000    2.333    0.000    2.500    0.000    6.000 
#    0.000    6.667    0.000    0.000    0.000    0.000 
#    0.000    0.000    0.000    0.000    0.000    0.000 
#
# Total GULP energy -267426.281264 kJ/mol
# GULP energy per Si atom -5571.380860 kJ/mol
# Density = 2.247346 g / cm^3
# Si number density = 22.524732 Si / 1000 Ang^3
#
#
#
# Elastic Constant Matrix: (Units=GPa)
#
#
# Indices 1 2 3 4 5 6 
#
# 1 90.1204 4.5443 29.9411 0.0000 0.0000 0.0000
# 2 4.5443 84.1778 18.0814 0.0000 0.0000 0.0000
# 3 29.9411 18.0814 101.6838 0.0000 0.0000 0.0000
# 4 0.0000 0.0000 0.0000 19.2260 0.0000 0.0000
# 5 0.0000 0.0000 0.0000 0.0000 38.6079 0.0000
# 6 0.0000 0.0000 0.0000 0.0000 0.0000 10.3653
#
#
#
# Elastic Compliance Matrix: (Units=1/GPa)
#
#
# Indices 1 2 3 4 5 6 
#
# 1 0.012301 0.000118 -0.003643 0.000000 0.000000 0.000000
# 2 0.000118 0.012353 -0.002231 0.000000 0.000000 0.000000
# 3 -0.003643 -0.002231 0.011304 0.000000 0.000000 0.000000
# 4 0.000000 0.000000 0.000000 0.052013 0.000000 0.000000
# 5 0.000000 0.000000 0.000000 0.000000 0.025901 0.000000
# 6 0.000000 0.000000 0.000000 0.000000 0.000000 0.096475
#
#
# Mechanical properties :
#
#
# Convention : Reuss Voigt Hill
#
# Bulk Modulus (GPa) = 40.90792 42.34617 41.62704
# Shear Modulus (GPa) = 21.73845 28.53419 25.13632
#
# Velocity S-wave (km/s) = 3.10996 3.56307 3.34420
# Velocity P-wave (km/s) = 5.57643 5.98063 5.78206
#
# Compressibility (1/GPa) = 0.02444515
#
# Stress axis : x y z
#
# Youngs Moduli (GPa) = 81.29669 80.95505 88.46513
#
# Poissons Ratio (x) = -0.00959 0.32228
# Poissons Ratio (y) = -0.00963 0.19740
# Poissons Ratio (z) = 0.29617 0.18064
#
# Static dielectric constant tensor:
#      x y z
#    x 1.764440 0.000000 0.000000 
#    y 0.000000 1.934670 0.000000 
#    z 0.000000 0.000000 1.993520 
# 
# From -- ./inp_files/16223.got.cif
#   From: 2010.05.17/outbox.cif.g08.bks.cpg/sg64_9_cif.got.tgz:16223.got - 2010.06.03 16:29:19.
