data_PCOD9477840
_publ_section_title
;
Structure prediction by ZEFSAII (Michael W. Deem and Ramdas Pophale) SiO2 
 PCOD9477840
Probable space group: C M C A
;
_chemical_formula_sum "Si O2"
_cell_formula_units_Z 96
_cell_length_a 19.184162
_cell_length_b 14.361336
_cell_length_c 16.776168
_cell_angle_alpha 90.000000
_cell_angle_beta 90.000000
_cell_angle_gamma 90.000000
_cell_volume 4622.005340
_symmetry_space_group_name_H-M "C M C A"
_symmetry_group_IT_number 64
_symmetry_cell_setting 'orthorhombic'
loop_
_space_group_symop_operation_xyz
x,y,z
-x,1/2-y,1/2+z
x,-y,-z
-x,1/2+y,1/2-z
-x,-y,-z
x,1/2+y,1/2-z
-x,y,z
x,1/2-y,1/2+z
1/2+x,1/2+y,z
1/2-x,-y,1/2+z
1/2+x,1/2-y,-z
1/2-x,y,1/2-z
1/2-x,1/2-y,-z
1/2+x,y,1/2-z
1/2-x,1/2+y,z
1/2+x,-y,1/2+z
loop_
_atom_site_type_symbol
_atom_site_label
_atom_site_fract_x
_atom_site_fract_y
_atom_site_fract_z
Si Si1 0.082338 0.394733 0.150355
Si Si2 0.581912 0.950992 0.725907
Si Si3 0.698230 0.104629 0.978608
Si Si4 0.671211 0.214706 0.570189
Si Si5 0.079495 0.245645 0.781543
Si Si6 0.418561 0.404630 0.949677
O O1 0.108482 0.467042 0.217970
O O2 0.127622 0.402676 0.071933
O O3 0.090603 0.295548 0.193548
O O4 0.000000 0.410902 0.135310
O O5 0.500000 0.973476 0.712011
O O6 0.586061 0.855980 0.775292
O O7 0.610580 0.930656 0.637848
O O8 0.757832 0.156356 0.928031
O O9 0.686144 0.176838 0.051045
O O10 0.720374 0.000000 0.000000
O O11 0.629627 0.205796 0.651822
O O12 0.625735 0.171633 0.497574
O O13 0.000000 0.220920 0.803736
O O14 0.500000 0.374109 0.942322
O O15 0.417560 0.500000 0.000000
#
# Coordination Sequence:
#
# PCOD9477840 Si02
#       6
#    16  16  16  16  16  16
#     4  10  21  38  60  86 115 148 189 236 286 341
#     4   9  18  33  56  88 119 147 186 236 286 337
#     4  11  25  42  59  83 116 154 194 238 289 346
#     4  11  23  39  59  84 117 155 195 237 286 346
#     4  10  20  36  60  88 116 147 188 237 286 339
#     4  10  19  34  60  91 122 156 194 238 286 336
#
# _framework density 20.770205000000001
#
# number of rings (size 3 to 8) (size 9 to 14) (size 15 to 20)
#    0.000    1.833    0.000    4.000    0.000    6.333 
#    0.000    0.000    0.000    8.000    0.000    0.000 
#    0.000    0.000    0.000    0.000    0.000    0.000 
#
# Total GULP energy -268153.959117 kJ/mol
# GULP energy per Si atom -5586.540815 kJ/mol
# Density = 2.072293 g / cm^3
# Si number density = 20.770205 Si / 1000 Ang^3
#
#
#
# Elastic Constant Matrix: (Units=GPa)
#
#
# Indices 1 2 3 4 5 6 
#
# 1 49.1866 5.1962 24.3256 0.0000 0.0000 0.0000
# 2 5.1962 96.9834 -2.5808 0.0000 0.0000 0.0000
# 3 24.3256 -2.5808 56.0808 0.0000 0.0000 0.0000
# 4 0.0000 0.0000 0.0000 0.1074 0.0000 0.0000
# 5 0.0000 0.0000 0.0000 0.0000 -6.5865 0.0000
# 6 0.0000 0.0000 0.0000 0.0000 0.0000 14.0090
#
#
#
# Elastic Compliance Matrix: (Units=1/GPa)
#
#
# Indices 1 2 3 4 5 6 
#
# 1 0.026162 -0.001706 -0.011427 0.000000 0.000000 0.000000
# 2 -0.001706 0.010435 0.001220 0.000000 0.000000 0.000000
# 3 -0.011427 0.001220 0.022844 0.000000 0.000000 0.000000
# 4 0.000000 0.000000 0.000000 9.308794 0.000000 0.000000
# 5 0.000000 0.000000 0.000000 0.000000 -0.151826 0.000000
# 6 0.000000 0.000000 0.000000 0.000000 0.000000 0.071383
#
#
# Mechanical properties :
#
#
# Convention : Reuss Voigt Hill
#
# Bulk Modulus (GPa) = 28.07693 28.45921 28.26807
# Shear Modulus (GPa) = 0.53628 13.19330 6.86479
#
# Velocity S-wave (km/s) = 0.50868 2.52306 1.81997
# Velocity P-wave (km/s) = 3.72723 4.71375 4.24922
#
# Compressibility (1/GPa) = 0.03561643
#
# Stress axis : x y z
#
# Youngs Moduli (GPa) = 38.22331 95.83224 43.77528
#
# Poissons Ratio (x) = 0.16347 0.50020
# Poissons Ratio (y) = 0.06520 -0.05341
# Poissons Ratio (z) = 0.43676 -0.11693
#
# Static dielectric constant tensor:
#      x y z
#    x 1.739380 0.000000 0.000000 
#    y 0.000000 1.752920 0.000000 
#    z 0.000000 0.000000 1.720490 
# 
# From -- ./inp_files/26315.got.cif
#   From: 2010.05.17/outbox.cif.g08.bks.cpg/sg64_14_cif.got.tgz:26315.got - 2010.06.03 16:29:19.
