data_PCOD9477802
_publ_section_title
;
Structure prediction by ZEFSAII (Michael W. Deem and Ramdas Pophale) SiO2 
 PCOD9477802
Probable space group: C M C A
;
_chemical_formula_sum "Si O2"
_cell_formula_units_Z 96
_cell_length_a 9.025638
_cell_length_b 19.465619
_cell_length_c 31.031509
_cell_angle_alpha 90.000000
_cell_angle_beta 90.000000
_cell_angle_gamma 90.000000
_cell_volume 5451.914351
_symmetry_space_group_name_H-M "C M C A"
_symmetry_group_IT_number 64
_symmetry_cell_setting 'orthorhombic'
loop_
_space_group_symop_operation_xyz
x,y,z
-x,1/2-y,1/2+z
x,-y,-z
-x,1/2+y,1/2-z
-x,-y,-z
x,1/2+y,1/2-z
-x,y,z
x,1/2-y,1/2+z
1/2+x,1/2+y,z
1/2-x,-y,1/2+z
1/2+x,1/2-y,-z
1/2-x,y,1/2-z
1/2-x,1/2-y,-z
1/2+x,y,1/2-z
1/2-x,1/2+y,z
1/2+x,-y,1/2+z
loop_
_atom_site_type_symbol
_atom_site_label
_atom_site_fract_x
_atom_site_fract_y
_atom_site_fract_z
Si Si1 0.823468 0.905196 0.295989
Si Si2 0.824994 0.908155 0.067807
Si Si3 0.175659 0.985374 0.628733
Si Si4 0.321891 0.177753 0.487029
Si Si5 0.322752 0.842766 0.613104
Si Si6 0.175015 0.703587 0.643452
O O1 0.750000 0.917954 0.250000
O O2 0.795137 0.967448 0.329365
O O3 0.752215 0.838175 0.318163
O O4 0.000000 0.896904 0.291911
O O5 0.735914 0.971063 0.088076
O O6 0.806969 0.843994 0.100748
O O7 0.000000 0.925840 0.066683
O O8 0.777118 0.881020 0.021083
O O9 0.500000 0.975124 0.875043
O O10 0.258556 0.913324 0.631368
O O11 0.500000 0.184542 0.490691
O O12 0.250000 0.250000 0.500000
O O13 0.285636 0.160098 0.437892
O O14 0.500000 0.840246 0.617417
O O15 0.250065 0.776448 0.634984
O O16 0.000000 0.710894 0.651306
#
# Coordination Sequence:
#
# PCOD9477802 Si02
#       6
#    16  16  16  16  16  16
#     4  10  21  39  63  88 111 139 179 224 275 336
#     4   9  18  34  54  77 107 147 190 231 276 325
#     4  10  22  38  56  80 112 148 186 229 280 338
#     4  10  20  33  52  79 110 148 193 238 280 325
#     4  11  22  35  54  81 115 151 188 233 282 330
#     4  10  19  34  58  83 111 145 183 226 273 328
#
# _framework density 17.608492999999999
#
# number of rings (size 3 to 8) (size 9 to 14) (size 15 to 20)
#    0.000    2.000    1.667    2.000    0.000    4.667 
#    0.000    4.167    0.000    2.000    0.000    0.000 
#    0.000    0.000    0.000    0.000    0.000    0.000 
#
# Total GULP energy -268061.082062 kJ/mol
# GULP energy per Si atom -5584.605876 kJ/mol
# Density = 1.756842 g / cm^3
# Si number density = 17.608493 Si / 1000 Ang^3
#
#
#
# Elastic Constant Matrix: (Units=GPa)
#
#
# Indices 1 2 3 4 5 6 
#
# 1 79.3658 71.9792 52.9827 0.0000 0.0000 0.0000
# 2 71.9792 118.3848 37.0654 0.0000 0.0000 0.0000
# 3 52.9827 37.0654 81.5570 0.0000 0.0000 0.0000
# 4 0.0000 0.0000 0.0000 12.5484 0.0000 0.0000
# 5 0.0000 0.0000 0.0000 0.0000 25.4032 0.0000
# 6 0.0000 0.0000 0.0000 0.0000 0.0000 35.8352
#
#
#
# Elastic Compliance Matrix: (Units=1/GPa)
#
#
# Indices 1 2 3 4 5 6 
#
# 1 0.044743 -0.021107 -0.019474 0.000000 0.000000 0.000000
# 2 -0.021107 0.019805 0.004711 0.000000 0.000000 0.000000
# 3 -0.019474 0.004711 0.022772 0.000000 0.000000 0.000000
# 4 0.000000 0.000000 0.000000 0.079691 0.000000 0.000000
# 5 0.000000 0.000000 0.000000 0.000000 0.039365 0.000000
# 6 0.000000 0.000000 0.000000 0.000000 0.000000 0.027906
#
#
# Mechanical properties :
#
#
# Convention : Reuss Voigt Hill
#
# Bulk Modulus (GPa) = 64.18756 67.04025 65.61391
# Shear Modulus (GPa) = 16.06603 22.57605 19.32104
#
# Velocity S-wave (km/s) = 3.02388 3.58454 3.31608
# Velocity P-wave (km/s) = 6.98022 7.43554 7.21148
#
# Compressibility (1/GPa) = 0.01557934
#
# Stress axis : x y z
#
# Youngs Moduli (GPa) = 22.34986 50.49143 43.91420
#
# Poissons Ratio (x) = 1.06572 0.85520
# Poissons Ratio (y) = 0.47174 -0.20688
# Poissons Ratio (z) = 0.43525 -0.23786
#
# Static dielectric constant tensor:
#      x y z
#    x 1.583040 0.000000 0.000000 
#    y 0.000000 1.571280 0.000000 
#    z 0.000000 0.000000 1.591210 
# 
# From -- ./inp_files/48125.got.cif
#   From: 2010.05.17/outbox.cif.g08.bks.cpg/sg64_25_cif.got.tgz:48125.got - 2010.06.03 16:29:19.
