data_PCOD9477422
_publ_section_title
;
Structure prediction by ZEFSAII (Michael W. Deem and Ramdas Pophale) SiO2 
 PCOD9477422
Probable space group: C M C A
;
_chemical_formula_sum "Si O2"
_cell_formula_units_Z 80
_cell_length_a 26.587228
_cell_length_b 17.204070
_cell_length_c 7.896519
_cell_angle_alpha 90.000000
_cell_angle_beta 90.000000
_cell_angle_gamma 90.000000
_cell_volume 3611.935161
_symmetry_space_group_name_H-M "C M C A"
_symmetry_group_IT_number 64
_symmetry_cell_setting 'orthorhombic'
loop_
_space_group_symop_operation_xyz
x,y,z
-x,1/2-y,1/2+z
x,-y,-z
-x,1/2+y,1/2-z
-x,-y,-z
x,1/2+y,1/2-z
-x,y,z
x,1/2-y,1/2+z
1/2+x,1/2+y,z
1/2-x,-y,1/2+z
1/2+x,1/2-y,-z
1/2-x,y,1/2-z
1/2-x,1/2-y,-z
1/2+x,y,1/2-z
1/2-x,1/2+y,z
1/2+x,-y,1/2+z
loop_
_atom_site_type_symbol
_atom_site_label
_atom_site_fract_x
_atom_site_fract_y
_atom_site_fract_z
Si Si1 0.842556 0.695304 0.840110
Si Si2 0.162242 0.133414 0.042192
Si Si3 0.944962 0.369137 0.602484
Si Si4 0.264911 0.578706 0.553614
Si Si5 0.554498 0.302482 0.516967
O O1 0.837716 0.664694 0.650435
O O2 0.799755 0.654325 0.952498
O O3 0.837310 0.788181 0.846303
O O4 0.896877 0.672612 0.913614
O O5 0.109044 0.090954 0.074777
O O6 0.214201 0.087409 0.056968
O O7 0.944009 0.335783 0.794172
O O8 0.943709 0.291593 0.485140
O O9 0.000000 0.407094 0.577936
O O10 0.292473 0.500000 0.500000
O O11 0.250000 0.570831 0.750000
O O12 0.500000 0.324098 0.441438
#
# Coordination Sequence:
#
# PCOD9477422 Si02
#       5
#    16  16  16  16  16
#     4  10  19  32  51  76 102 129 164 202 243 291
#     4  10  19  32  51  76 102 129 164 202 243 291
#     4   9  16  26  43  70 101 130 160 196 240 287
#     4  10  23  38  52  72  98 130 167 206 248 294
#     4   9  16  26  43  70 101 130 160 196 240 287
#
# _framework density 22.148790999999999
#
# number of rings (size 3 to 8) (size 9 to 14) (size 15 to 20)
#    0.000    2.400    0.000    5.400    0.000    5.600 
#    0.000    0.000    0.000    1.200    0.000    0.000 
#    0.000    0.000    0.000    0.000    0.000    0.000 
#
# Total GULP energy -223239.694226 kJ/mol
# GULP energy per Si atom -5580.992356 kJ/mol
# Density = 2.209838 g / cm^3
# Si number density = 22.148791 Si / 1000 Ang^3
#
#
#
# Elastic Constant Matrix: (Units=GPa)
#
#
# Indices 1 2 3 4 5 6 
#
# 1 101.8212 9.9496 11.5914 0.0000 0.0000 0.0000
# 2 9.9496 37.1505 2.9089 0.0000 0.0000 0.0000
# 3 11.5914 2.9089 49.0250 0.0000 0.0000 0.0000
# 4 0.0000 0.0000 0.0000 12.0287 0.0000 0.0000
# 5 0.0000 0.0000 0.0000 0.0000 31.0377 0.0000
# 6 0.0000 0.0000 0.0000 0.0000 0.0000 -12.3862
#
#
#
# Elastic Compliance Matrix: (Units=1/GPa)
#
#
# Indices 1 2 3 4 5 6 
#
# 1 0.010335 -0.002589 -0.002290 0.000000 0.000000 0.000000
# 2 -0.002589 0.027692 -0.001031 0.000000 0.000000 0.000000
# 3 -0.002290 -0.001031 0.021000 0.000000 0.000000 0.000000
# 4 0.000000 0.000000 0.000000 0.083135 0.000000 0.000000
# 5 0.000000 0.000000 0.000000 0.000000 0.032219 0.000000
# 6 0.000000 0.000000 0.000000 0.000000 0.000000 -0.080735
#
#
# Mechanical properties :
#
#
# Convention : Reuss Voigt Hill
#
# Bulk Modulus (GPa) = 21.18302 26.32183 23.75242
# Shear Modulus (GPa) = 41.25419 17.03918 29.14668
#
# Velocity S-wave (km/s) = 4.32046 2.77664 3.63154
# Velocity P-wave (km/s) = 5.87139 4.71058 5.32272
#
# Compressibility (1/GPa) = 0.04720762
#
# Stress axis : x y z
#
# Youngs Moduli (GPa) = 96.76074 36.11211 47.61824
#
# Poissons Ratio (x) = 0.09348 0.10904
# Poissons Ratio (y) = 0.25047 0.04910
# Poissons Ratio (z) = 0.22158 0.03723
#
# Static dielectric constant tensor:
#      x y z
#    x 1.908960 0.000000 0.000000 
#    y 0.000000 1.779070 0.000000 
#    z 0.000000 0.000000 1.818930 
# 
# From -- ./inp_files/10211.got.cif
#   From: 2010.05.17/outbox.cif.g08.bks.cpg/sg64_6_cif.got.tgz:10211.got - 2010.06.03 16:29:19.
