data_PCOD9477256
_publ_section_title
;
Structure prediction by ZEFSAII (Michael W. Deem and Ramdas Pophale) SiO2 
 PCOD9477256
Probable space group: C M C A
;
_chemical_formula_sum "Si O2"
_cell_formula_units_Z 88
_cell_length_a 34.919293
_cell_length_b 5.322170
_cell_length_c 27.807235
_cell_angle_alpha 90.000000
_cell_angle_beta 90.000000
_cell_angle_gamma 90.000000
_cell_volume 5167.874898
_symmetry_space_group_name_H-M "C M C A"
_symmetry_group_IT_number 64
_symmetry_cell_setting 'orthorhombic'
loop_
_space_group_symop_operation_xyz
x,y,z
-x,1/2-y,1/2+z
x,-y,-z
-x,1/2+y,1/2-z
-x,-y,-z
x,1/2+y,1/2-z
-x,y,z
x,1/2-y,1/2+z
1/2+x,1/2+y,z
1/2-x,-y,1/2+z
1/2+x,1/2-y,-z
1/2-x,y,1/2-z
1/2-x,1/2-y,-z
1/2+x,y,1/2-z
1/2-x,1/2+y,z
1/2+x,-y,1/2+z
loop_
_atom_site_type_symbol
_atom_site_label
_atom_site_fract_x
_atom_site_fract_y
_atom_site_fract_z
Si Si1 0.044757 0.200686 0.781325
Si Si2 0.734617 0.714854 0.944617
Si Si3 0.645475 0.630624 0.948021
Si Si4 0.924686 0.397542 0.382805
Si Si5 0.044217 0.877814 0.429171
Si Si6 0.101494 0.000000 0.500000
O O1 0.050144 0.465368 0.754430
O O2 0.072204 0.168739 0.826932
O O3 0.000000 0.193575 0.797926
O O4 0.759395 0.489632 0.922871
O O5 0.690694 0.631831 0.941199
O O6 0.750000 0.750000 0.000000
O O7 0.617493 0.547528 0.905183
O O8 0.630077 0.909580 0.958883
O O9 0.638657 0.500000 0.000000
O O10 0.948656 0.651670 0.392124
O O11 0.942613 0.152539 0.409887
O O12 0.071373 0.814702 0.474574
O O13 0.000000 0.888187 0.442240
#
# Coordination Sequence:
#
# PCOD9477256 Si02
#       6
#    16  16  16  16  16   8
#     4  10  20  36  57  75  96 127 170 224 275 311
#     4  10  19  30  50  71  97 137 171 204 235 290
#     4  11  20  34  50  72 110 141 170 203 257 299
#     4  11  23  35  53  77 101 134 173 218 266 311
#     4  11  21  33  48  67 100 135 177 212 243 296
#     4  10  21  32  44  68  98 148 176 204 242 298
#
# _framework density 17.028275000000001
#
# number of rings (size 3 to 8) (size 9 to 14) (size 15 to 20)
#    0.000    1.455    3.636    4.091    0.000    1.455 
#    0.000    2.727    0.000    0.000    0.000    0.000 
#    0.000    4.364    0.000    0.000    0.000    0.000 
#
# Total GULP energy -244964.288409 kJ/mol
# GULP energy per Si atom -5567.370191 kJ/mol
# Density = 1.698952 g / cm^3
# Si number density = 17.028275 Si / 1000 Ang^3
#
#
#
# Elastic Constant Matrix: (Units=GPa)
#
#
# Indices 1 2 3 4 5 6 
#
# 1 108.3301 9.9814 27.0576 0.0000 0.0000 0.0000
# 2 9.9814 78.7299 -3.2321 0.0000 0.0000 0.0000
# 3 27.0576 -3.2321 48.5490 0.0000 0.0000 0.0000
# 4 0.0000 0.0000 0.0000 18.3368 0.0000 0.0000
# 5 0.0000 0.0000 0.0000 0.0000 14.5858 0.0000
# 6 0.0000 0.0000 0.0000 0.0000 0.0000 17.6103
#
#
#
# Elastic Compliance Matrix: (Units=1/GPa)
#
#
# Indices 1 2 3 4 5 6 
#
# 1 0.010931 -0.001640 -0.006201 0.000000 0.000000 0.000000
# 2 -0.001640 0.012983 0.001779 0.000000 0.000000 0.000000
# 3 -0.006201 0.001779 0.024172 0.000000 0.000000 0.000000
# 4 0.000000 0.000000 0.000000 0.054535 0.000000 0.000000
# 5 0.000000 0.000000 0.000000 0.000000 0.068560 0.000000
# 6 0.000000 0.000000 0.000000 0.000000 0.000000 0.056785
#
#
# Mechanical properties :
#
#
# Convention : Reuss Voigt Hill
#
# Bulk Modulus (GPa) = 27.80900 33.69142 30.75021
# Shear Modulus (GPa) = 19.83503 23.56005 21.69754
#
# Velocity S-wave (km/s) = 3.41666 3.72369 3.57348
# Velocity P-wave (km/s) = 5.65078 6.19002 5.92654
#
# Compressibility (1/GPa) = 0.03595958
#
# Stress axis : x y z
#
# Youngs Moduli (GPa) = 91.48197 77.02593 41.36956
#
# Poissons Ratio (x) = 0.12636 0.25655
# Poissons Ratio (y) = 0.15007 -0.07358
# Poissons Ratio (z) = 0.56732 -0.13700
#
# Static dielectric constant tensor:
#      x y z
#    x 1.566600 0.000000 0.000000 
#    y 0.000000 1.861730 0.000000 
#    z 0.000000 0.000000 1.645720 
# 
# From -- ./inp_files/51293.got.cif
#   From: 2010.05.17/outbox.cif.g08.bks.cpg/sg64_26_cif.got.tgz:51293.got - 2010.06.03 16:29:19.
