data_PCOD9477869
_publ_section_title
;
Structure prediction by ZEFSAII (Michael W. Deem and Ramdas Pophale) SiO2 
 PCOD9477869
Probable space group: C M C A
;
_chemical_formula_sum "Si O2"
_cell_formula_units_Z 104
_cell_length_a 23.940244
_cell_length_b 9.177559
_cell_length_c 25.396147
_cell_angle_alpha 90.000000
_cell_angle_beta 90.000000
_cell_angle_gamma 90.000000
_cell_volume 5579.863691
_symmetry_space_group_name_H-M "C M C A"
_symmetry_group_IT_number 64
_symmetry_cell_setting 'orthorhombic'
loop_
_space_group_symop_operation_xyz
x,y,z
-x,1/2-y,1/2+z
x,-y,-z
-x,1/2+y,1/2-z
-x,-y,-z
x,1/2+y,1/2-z
-x,y,z
x,1/2-y,1/2+z
1/2+x,1/2+y,z
1/2-x,-y,1/2+z
1/2+x,1/2-y,-z
1/2-x,y,1/2-z
1/2-x,1/2-y,-z
1/2+x,y,1/2-z
1/2-x,1/2+y,z
1/2+x,-y,1/2+z
loop_
_atom_site_type_symbol
_atom_site_label
_atom_site_fract_x
_atom_site_fract_y
_atom_site_fract_z
Si Si1 0.931737 0.068883 0.181203
Si Si2 0.855281 0.500000 0.500000
Si Si3 0.175033 0.510707 0.936180
Si Si4 0.435378 0.108119 0.581784
Si Si5 0.063243 0.065912 0.380910
Si Si6 0.066359 0.617924 0.777656
Si Si7 0.230376 0.804407 0.942631
O O1 0.917764 0.019182 0.122207
O O2 0.911712 0.947881 0.223143
O O3 0.000000 0.069404 0.182461
O O4 0.912111 0.228392 0.199807
O O5 0.895294 0.610245 0.531406
O O6 0.815766 0.575443 0.457111
O O7 0.112322 0.498062 0.916273
O O8 0.202473 0.662589 0.917859
O O9 0.215850 0.380453 0.917047
O O10 0.175099 0.500000 0.000000
O O11 0.500000 0.084709 0.565987
O O12 0.433440 0.260206 0.613038
O O13 0.000000 0.021807 0.396779
O O14 0.071744 0.006171 0.322147
O O15 0.000000 0.641506 0.769369
O O16 0.250000 0.750000 0.000000
#
# Coordination Sequence:
#
# PCOD9477869 Si02
#       7
#    16   8  16  16  16  16  16
#     4   9  17  31  51  74 106 145 185 222 269 329
#     4  12  21  34  56  76 111 142 190 234 266 326
#     4  10  20  35  54  77 106 141 190 232 271 318
#     4  10  21  34  50  77 114 155 182 218 277 336
#     4  10  21  35  52  80 116 147 179 221 283 337
#     4   9  17  31  51  76 106 141 181 227 270 329
#     4  10  19  35  54  75 100 138 190 237 269 305
#
# _framework density 18.638448
#
# number of rings (size 3 to 8) (size 9 to 14) (size 15 to 20)
#    0.000    2.154    2.308    3.000    2.154    4.000 
#    0.000    0.769    0.000    0.000    0.000    1.077 
#    4.615    0.000    0.000    0.000    0.000    0.000 
#
# Total GULP energy -289799.878210 kJ/mol
# GULP energy per Si atom -5573.074581 kJ/mol
# Density = 1.859603 g / cm^3
# Si number density = 18.638448 Si / 1000 Ang^3
#
#
#
# Elastic Constant Matrix: (Units=GPa)
#
#
# Indices 1 2 3 4 5 6 
#
# 1 85.2833 20.0563 21.1179 0.0000 0.0000 0.0000
# 2 20.0563 44.3916 -6.0809 0.0000 0.0000 0.0000
# 3 21.1179 -6.0809 22.7916 0.0000 0.0000 0.0000
# 4 0.0000 0.0000 0.0000 19.5766 0.0000 0.0000
# 5 0.0000 0.0000 0.0000 0.0000 1.5606 0.0000
# 6 0.0000 0.0000 0.0000 0.0000 0.0000 21.0489
#
#
#
# Elastic Compliance Matrix: (Units=1/GPa)
#
#
# Indices 1 2 3 4 5 6 
#
# 1 0.019887 -0.011946 -0.021614 0.000000 0.000000 0.000000
# 2 -0.011946 0.030557 0.019221 0.000000 0.000000 0.000000
# 3 -0.021614 0.019221 0.069031 0.000000 0.000000 0.000000
# 4 0.000000 0.000000 0.000000 0.051081 0.000000 0.000000
# 5 0.000000 0.000000 0.000000 0.000000 0.640760 0.000000
# 6 0.000000 0.000000 0.000000 0.000000 0.000000 0.047509
#
#
# Mechanical properties :
#
#
# Convention : Reuss Voigt Hill
#
# Bulk Modulus (GPa) = 11.01347 24.73922 17.87635
# Shear Modulus (GPa) = 5.44801 16.26210 10.85505
#
# Velocity S-wave (km/s) = 1.71153 2.95702 2.41592
# Velocity P-wave (km/s) = 3.13490 4.99606 4.17063
#
# Compressibility (1/GPa) = 0.09079791
#
# Stress axis : x y z
#
# Youngs Moduli (GPa) = 50.28440 32.72589 14.48635
#
# Poissons Ratio (x) = 0.39093 0.31310
# Poissons Ratio (y) = 0.60068 -0.27844
# Poissons Ratio (z) = 1.08683 -0.62903
#
# Static dielectric constant tensor:
#      x y z
#    x 1.657290 0.000000 0.000000 
#    y 0.000000 1.687230 0.000000 
#    z 0.000000 0.000000 1.623110 
# 
# From -- ./inp_files/51027.got.cif
#   From: 2010.05.17/outbox.cif.g08.bks.cpg/sg64_26_cif.got.tgz:51027.got - 2010.06.03 16:29:19.
