data_PCOD9477568
_publ_section_title
;
Structure prediction by ZEFSAII (Michael W. Deem and Ramdas Pophale) SiO2 
 PCOD9477568
Probable space group: C M C A
;
_chemical_formula_sum "Si O2"
_cell_formula_units_Z 112
_cell_length_a 7.513351
_cell_length_b 20.953971
_cell_length_c 34.521119
_cell_angle_alpha 90.000000
_cell_angle_beta 90.000000
_cell_angle_gamma 90.000000
_cell_volume 5434.816454
_symmetry_space_group_name_H-M "C M C A"
_symmetry_group_IT_number 64
_symmetry_cell_setting 'orthorhombic'
loop_
_space_group_symop_operation_xyz
x,y,z
-x,1/2-y,1/2+z
x,-y,-z
-x,1/2+y,1/2-z
-x,-y,-z
x,1/2+y,1/2-z
-x,y,z
x,1/2-y,1/2+z
1/2+x,1/2+y,z
1/2-x,-y,1/2+z
1/2+x,1/2-y,-z
1/2-x,y,1/2-z
1/2-x,1/2-y,-z
1/2+x,y,1/2-z
1/2-x,1/2+y,z
1/2+x,-y,1/2+z
loop_
_atom_site_type_symbol
_atom_site_label
_atom_site_fract_x
_atom_site_fract_y
_atom_site_fract_z
Si Si1 0.787282 0.047500 0.706962
Si Si2 0.793166 0.138727 0.081992
Si Si3 0.783923 0.514273 0.128295
Si Si4 0.285512 0.608527 0.579127
Si Si5 0.790256 0.071472 0.005867
Si Si6 0.787043 0.806248 0.293123
Si Si7 0.718293 0.764295 0.124424
O O1 0.750000 0.022868 0.750000
O O2 0.723630 0.004960 0.671339
O O3 0.000000 0.051606 0.702598
O O4 0.718197 0.120498 0.704654
O O5 0.783330 0.081235 0.112607
O O6 0.717245 0.202677 0.100991
O O7 0.000000 0.153631 0.073691
O O8 0.713973 0.110514 0.042166
O O9 0.726460 0.456832 0.099828
O O10 0.000000 0.516661 0.127589
O O11 0.500000 0.608238 0.580144
O O12 0.228925 0.607824 0.534600
O O13 0.227512 0.670464 0.603015
O O14 0.000000 0.062805 0.014419
O O15 0.714422 0.000000 0.000000
O O16 0.750000 0.781152 0.250000
O O17 0.723742 0.767910 0.330705
O O18 0.000000 0.809914 0.296344
O O19 0.500000 0.762809 0.124594
#
# Coordination Sequence:
#
# PCOD9477568 Si02
#       7
#    16  16  16  16  16  16  16
#     4   9  17  30  50  77 104 129 162 210 257 297
#     4  10  21  36  54  73 102 142 175 206 256 315
#     4  10  19  33  53  77 103 131 167 212 255 295
#     4  10  19  33  56  78  98 131 174 213 251 301
#     4  10  20  34  50  75 108 136 168 214 261 305
#     4   9  16  30  52  76 101 129 166 208 250 298
#     4   9  18  35  55  76 102 136 174 209 252 309
#
# _framework density 20.607873000000001
#
# number of rings (size 3 to 8) (size 9 to 14) (size 15 to 20)
#    0.000    2.429    2.857    0.000    0.000    2.000 
#    0.000    2.857    0.000    3.429    0.000    0.000 
#    0.000    0.000    0.000    0.000    0.000    0.000 
#
# Total GULP energy -312549.382925 kJ/mol
# GULP energy per Si atom -5581.238981 kJ/mol
# Density = 2.056097 g / cm^3
# Si number density = 20.607873 Si / 1000 Ang^3
#
#
#
# Elastic Constant Matrix: (Units=GPa)
#
#
# Indices 1 2 3 4 5 6 
#
# 1 49.4022 -7.3083 -10.6399 0.0000 0.0000 0.0000
# 2 -7.3083 82.7030 31.4018 0.0000 0.0000 0.0000
# 3 -10.6399 31.4018 143.9916 0.0000 0.0000 0.0000
# 4 0.0000 0.0000 0.0000 29.4743 0.0000 0.0000
# 5 0.0000 0.0000 0.0000 0.0000 20.2682 0.0000
# 6 0.0000 0.0000 0.0000 0.0000 0.0000 5.0545
#
#
#
# Elastic Compliance Matrix: (Units=1/GPa)
#
#
# Indices 1 2 3 4 5 6 
#
# 1 0.020709 0.001362 0.001233 0.000000 0.000000 0.000000
# 2 0.001362 0.013273 -0.002794 0.000000 0.000000 0.000000
# 3 0.001233 -0.002794 0.007645 0.000000 0.000000 0.000000
# 4 0.000000 0.000000 0.000000 0.033928 0.000000 0.000000
# 5 0.000000 0.000000 0.000000 0.000000 0.049338 0.000000
# 6 0.000000 0.000000 0.000000 0.000000 0.000000 0.197843
#
#
# Mechanical properties :
#
#
# Convention : Reuss Voigt Hill
#
# Bulk Modulus (GPa) = 24.25462 33.66712 28.96087
# Shear Modulus (GPa) = 14.84220 28.46895 21.65557
#
# Velocity S-wave (km/s) = 2.68660 3.72083 3.24518
# Velocity P-wave (km/s) = 4.62806 5.90186 5.30334
#
# Compressibility (1/GPa) = 0.04122926
#
# Stress axis : x y z
#
# Youngs Moduli (GPa) = 48.28799 75.34317 130.79990
#
# Poissons Ratio (x) = -0.10260 -0.16131
# Poissons Ratio (y) = -0.06576 0.36544
# Poissons Ratio (z) = -0.05955 0.21050
#
# Static dielectric constant tensor:
#      x y z
#    x 1.825670 0.000000 0.000000 
#    y 0.000000 1.702510 0.000000 
#    z 0.000000 0.000000 1.739070 
# 
# From -- ./inp_files/44413.got.cif
#   From: 2010.05.17/outbox.cif.g08.bks.cpg/sg64_23_cif.got.tgz:44413.got - 2010.06.03 16:29:19.
