data_PCOD9477106
_publ_section_title
;
Structure prediction by ZEFSAII (Michael W. Deem and Ramdas Pophale) SiO2 
 PCOD9477106
Probable space group: C M C A
;
_chemical_formula_sum "Si O2"
_cell_formula_units_Z 72
_cell_length_a 18.434261
_cell_length_b 11.821014
_cell_length_c 12.711366
_cell_angle_alpha 90.000000
_cell_angle_beta 90.000000
_cell_angle_gamma 90.000000
_cell_volume 2769.954832
_symmetry_space_group_name_H-M "C M C A"
_symmetry_group_IT_number 64
_symmetry_cell_setting 'orthorhombic'
loop_
_space_group_symop_operation_xyz
x,y,z
-x,1/2-y,1/2+z
x,-y,-z
-x,1/2+y,1/2-z
-x,-y,-z
x,1/2+y,1/2-z
-x,y,z
x,1/2-y,1/2+z
1/2+x,1/2+y,z
1/2-x,-y,1/2+z
1/2+x,1/2-y,-z
1/2-x,y,1/2-z
1/2-x,1/2-y,-z
1/2+x,y,1/2-z
1/2-x,1/2+y,z
1/2+x,-y,1/2+z
loop_
_atom_site_type_symbol
_atom_site_label
_atom_site_fract_x
_atom_site_fract_y
_atom_site_fract_z
Si Si1 0.149062 0.441199 0.648312
Si Si2 0.500000 0.976457 0.296098
Si Si3 0.841745 0.230210 0.328181
Si Si4 0.000000 0.774155 0.681337
Si Si5 0.723812 0.000000 0.000000
Si Si6 0.317050 0.708289 0.605772
O O1 0.075960 0.511445 0.642473
O O2 0.163697 0.390178 0.765083
O O3 0.220048 0.494345 0.597223
O O4 0.139791 0.323256 0.583979
O O5 0.500000 0.099336 0.234114
O O6 0.500000 0.846288 0.251819
O O7 0.768237 0.255909 0.389573
O O8 0.837409 0.316463 0.227356
O O9 0.922085 0.232314 0.374025
O O10 0.673774 0.105199 0.971591
#
# Coordination Sequence:
#
# PCOD9477106 Si02
#       6
#    16   8  16   8   8  16
#     4   9  20  36  56  81 119 155 191 248 296 360
#     4  10  20  37  60  86 120 161 196 246 302 359
#     4   8  18  38  55  80 118 150 196 236 302 356
#     4  10  18  36  60  86 118 153 201 252 298 354
#     4  12  20  33  60  83 114 150 202 250 298 351
#     4   9  19  37  54  85 113 153 192 241 301 361
#
# _framework density 25.993203000000001
#
# number of rings (size 3 to 8) (size 9 to 14) (size 15 to 20)
#    1.333    1.333    0.000    2.000    0.000    0.444 
#   20.000    1.111    0.000    2.667    0.000    0.000 
#    0.000    0.000    0.000    0.000    0.000    0.000 
#
# Total GULP energy -200555.164107 kJ/mol
# GULP energy per Si atom -5570.976781 kJ/mol
# Density = 2.593404 g / cm^3
# Si number density = 25.993203 Si / 1000 Ang^3
#
#
#
# Elastic Constant Matrix: (Units=GPa)
#
#
# Indices 1 2 3 4 5 6 
#
# 1 156.2384 11.3266 38.6828 0.0000 0.0000 0.0000
# 2 11.3266 132.1428 21.1180 0.0000 0.0000 0.0000
# 3 38.6828 21.1180 60.3726 0.0000 0.0000 0.0000
# 4 0.0000 0.0000 0.0000 42.9067 0.0000 0.0000
# 5 0.0000 0.0000 0.0000 0.0000 19.9539 0.0000
# 6 0.0000 0.0000 0.0000 0.0000 0.0000 33.7635
#
#
#
# Elastic Compliance Matrix: (Units=1/GPa)
#
#
# Indices 1 2 3 4 5 6 
#
# 1 0.007610 0.000134 -0.004923 0.000000 0.000000 0.000000
# 2 0.000134 0.008018 -0.002891 0.000000 0.000000 0.000000
# 3 -0.004923 -0.002891 0.020729 0.000000 0.000000 0.000000
# 4 0.000000 0.000000 0.000000 0.023306 0.000000 0.000000
# 5 0.000000 0.000000 0.000000 0.000000 0.050116 0.000000
# 6 0.000000 0.000000 0.000000 0.000000 0.000000 0.029618
#
#
# Mechanical properties :
#
#
# Convention : Reuss Voigt Hill
#
# Bulk Modulus (GPa) = 47.62233 54.55653 51.08943
# Shear Modulus (GPa) = 30.91112 37.83325 34.37219
#
# Velocity S-wave (km/s) = 3.45222 3.81925 3.64036
# Velocity P-wave (km/s) = 5.85246 6.36264 6.11287
#
# Compressibility (1/GPa) = 0.02099855
#
# Stress axis : x y z
#
# Youngs Moduli (GPa) = 131.41404 124.71892 48.24126
#
# Poissons Ratio (x) = -0.01677 0.23748
# Poissons Ratio (y) = -0.01767 0.13946
# Poissons Ratio (z) = 0.64692 0.36054
#
# Static dielectric constant tensor:
#      x y z
#    x 1.949480 0.000000 0.000000 
#    y 0.000000 2.243620 0.000000 
#    z 0.000000 0.000000 2.288620 
# 
# From -- ./inp_files/34032.got.cif
#   From: 2010.05.17/outbox.cif.g08.bks.cpg/sg64_18_cif.got.tgz:34032.got - 2010.06.03 16:29:19.
