data_PCOD9477751
_publ_section_title
;
Structure prediction by ZEFSAII (Michael W. Deem and Ramdas Pophale) SiO2 
 PCOD9477751
Probable space group: C M C A
;
_chemical_formula_sum "Si O2"
_cell_formula_units_Z 104
_cell_length_a 8.993789
_cell_length_b 21.785257
_cell_length_c 28.086578
_cell_angle_alpha 90.000000
_cell_angle_beta 90.000000
_cell_angle_gamma 90.000000
_cell_volume 5503.059535
_symmetry_space_group_name_H-M "C M C A"
_symmetry_group_IT_number 64
_symmetry_cell_setting 'orthorhombic'
loop_
_space_group_symop_operation_xyz
x,y,z
-x,1/2-y,1/2+z
x,-y,-z
-x,1/2+y,1/2-z
-x,-y,-z
x,1/2+y,1/2-z
-x,y,z
x,1/2-y,1/2+z
1/2+x,1/2+y,z
1/2-x,-y,1/2+z
1/2+x,1/2-y,-z
1/2-x,y,1/2-z
1/2-x,1/2-y,-z
1/2+x,y,1/2-z
1/2-x,1/2+y,z
1/2+x,-y,1/2+z
loop_
_atom_site_type_symbol
_atom_site_label
_atom_site_fract_x
_atom_site_fract_y
_atom_site_fract_z
Si Si1 0.177791 0.415079 0.699409
Si Si2 0.175713 0.059378 0.098375
Si Si3 0.832546 0.866991 0.462863
Si Si4 0.178064 0.268667 0.699108
Si Si5 0.821144 0.187181 0.053172
Si Si6 0.228139 0.500000 0.000000
Si Si7 0.822253 0.797392 0.110284
O O1 0.250000 0.431575 0.750000
O O2 0.234388 0.451333 0.652146
O O3 0.204763 0.341837 0.690723
O O4 0.000000 0.422616 0.704395
O O5 0.223735 0.127710 0.083825
O O6 0.000000 0.061434 0.104802
O O7 0.198534 0.019301 0.050734
O O8 0.731928 0.830504 0.500672
O O9 0.843062 0.936053 0.482975
O O10 0.752476 0.858471 0.412046
O O11 0.000000 0.841884 0.460540
O O12 0.250000 0.254833 0.750000
O O13 0.255033 0.225698 0.660003
O O14 0.000000 0.259979 0.698446
O O15 0.734619 0.244270 0.074516
O O16 0.000000 0.194632 0.055475
O O17 0.000000 0.801939 0.111527
#
# Coordination Sequence:
#
# PCOD9477751 Si02
#       7
#    16  16  16  16  16   8  16
#     4   9  17  31  51  80 113 147 183 226 279 338
#     4   9  17  32  55  81 112 147 187 235 287 345
#     4  11  23  39  56  78 109 144 185 236 287 339
#     4  10  19  34  55  82 118 153 187 228 279 341
#     4  10  19  35  55  80 112 147 183 226 279 338
#     4  10  22  38  60  82 105 148 199 244 297 348
#     4  12  23  35  54  83 114 150 189 227 280 339
#
# _framework density 18.898579000000002
#
# number of rings (size 3 to 8) (size 9 to 14) (size 15 to 20)
#    0.000    1.846    1.538    3.692    0.000    2.462 
#    0.000    1.538    0.000    0.923    0.000    2.154 
#    0.000    0.000    0.000    0.000    0.000    0.000 
#
# Total GULP energy -289493.982181 kJ/mol
# GULP energy per Si atom -5567.191965 kJ/mol
# Density = 1.885556 g / cm^3
# Si number density = 18.898579 Si / 1000 Ang^3
#
#
#
# Elastic Constant Matrix: (Units=GPa)
#
#
# Indices 1 2 3 4 5 6 
#
# 1 43.5647 5.7623 15.8787 0.0000 0.0000 0.0000
# 2 5.7623 43.6812 27.4257 0.0000 0.0000 0.0000
# 3 15.8787 27.4257 155.7391 0.0000 0.0000 0.0000
# 4 0.0000 0.0000 0.0000 23.0908 0.0000 0.0000
# 5 0.0000 0.0000 0.0000 0.0000 15.7526 0.0000
# 6 0.0000 0.0000 0.0000 0.0000 0.0000 46.7511
#
#
#
# Elastic Compliance Matrix: (Units=1/GPa)
#
#
# Indices 1 2 3 4 5 6 
#
# 1 0.023970 -0.001830 -0.002122 0.000000 0.000000 0.000000
# 2 -0.001830 0.025879 -0.004371 0.000000 0.000000 0.000000
# 3 -0.002122 -0.004371 0.007407 0.000000 0.000000 0.000000
# 4 0.000000 0.000000 0.000000 0.043307 0.000000 0.000000
# 5 0.000000 0.000000 0.000000 0.000000 0.063482 0.000000
# 6 0.000000 0.000000 0.000000 0.000000 0.000000 0.021390
#
#
# Mechanical properties :
#
#
# Convention : Reuss Voigt Hill
#
# Bulk Modulus (GPa) = 24.62387 37.90204 31.26295
# Shear Modulus (GPa) = 23.18939 30.04677 26.61808
#
# Velocity S-wave (km/s) = 3.50672 3.99168 3.75703
# Velocity P-wave (km/s) = 5.42714 6.42990 5.94969
#
# Compressibility (1/GPa) = 0.04061101
#
# Stress axis : x y z
#
# Youngs Moduli (GPa) = 41.71928 38.64173 135.00758
#
# Poissons Ratio (x) = 0.07071 0.28644
# Poissons Ratio (y) = 0.07634 0.59008
# Poissons Ratio (z) = 0.08851 0.16889
#
# Static dielectric constant tensor:
#      x y z
#    x 1.636090 0.000000 0.000000 
#    y 0.000000 1.707860 0.000000 
#    z 0.000000 0.000000 1.745420 
# 
# From -- ./inp_files/48459.got.cif
#   From: 2010.05.17/outbox.cif.g08.bks.cpg/sg64_25_cif.got.tgz:48459.got - 2010.06.03 16:29:19.
