data_PCOD9477887
_publ_section_title
;
Structure prediction by ZEFSAII (Michael W. Deem and Ramdas Pophale) SiO2 
 PCOD9477887
Probable space group: C M C A
;
_chemical_formula_sum "Si O2"
_cell_formula_units_Z 88
_cell_length_a 27.832209
_cell_length_b 32.604263
_cell_length_c 5.244322
_cell_angle_alpha 90.000000
_cell_angle_beta 90.000000
_cell_angle_gamma 90.000000
_cell_volume 4758.952983
_symmetry_space_group_name_H-M "C M C A"
_symmetry_group_IT_number 64
_symmetry_cell_setting 'orthorhombic'
loop_
_space_group_symop_operation_xyz
x,y,z
-x,1/2-y,1/2+z
x,-y,-z
-x,1/2+y,1/2-z
-x,-y,-z
x,1/2+y,1/2-z
-x,y,z
x,1/2-y,1/2+z
1/2+x,1/2+y,z
1/2-x,-y,1/2+z
1/2+x,1/2-y,-z
1/2-x,y,1/2-z
1/2-x,1/2-y,-z
1/2+x,y,1/2-z
1/2-x,1/2+y,z
1/2+x,-y,1/2+z
loop_
_atom_site_type_symbol
_atom_site_label
_atom_site_fract_x
_atom_site_fract_y
_atom_site_fract_z
Si Si1 0.944613 0.722931 0.632492
Si Si2 0.861860 0.343343 0.427261
Si Si3 0.663846 0.388623 0.556824
Si Si4 0.804433 0.732693 0.526424
Si Si5 0.801508 0.459915 0.628017
Si Si6 0.750000 0.600766 0.750000
O O1 0.938120 0.756363 0.408580
O O2 0.906845 0.686843 0.589311
O O3 0.000000 0.708502 0.614778
O O4 0.855409 0.363924 0.701345
O O5 0.814689 0.313806 0.396945
O O6 0.864776 0.375580 0.195584
O O7 0.668722 0.435392 0.658046
O O8 0.718590 0.377684 0.468260
O O9 0.826931 0.740152 0.250235
O O10 0.750000 0.750000 0.500000
O O11 0.823740 0.500000 0.500000
O O12 0.750000 0.472377 0.750000
O O13 0.787123 0.427585 0.407358
#
# Coordination Sequence:
#
# PCOD9477887 Si02
#       6
#    16  16  16  16  16   8
#     4  10  21  39  63  87 108 141 191 241 299 357
#     4  12  22  37  54  76 114 143 180 247 289 337
#     4  11  24  35  51  81 110 148 188 231 286 331
#     4  10  21  35  46  65  92 140 190 214 251 317
#     4  10  19  35  57  75 108 150 198 236 271 327
#     4  10  20  38  48  78 108 150 198 226 266 322
#
# _framework density 18.491461000000001
#
# number of rings (size 3 to 8) (size 9 to 14) (size 15 to 20)
#    0.000    1.455    2.727    3.273    0.000    4.364 
#    0.000    0.000    0.000    0.000    0.000    0.000 
#    0.000    4.364    0.000    0.000    0.000    0.000 
#
# Total GULP energy -245329.768006 kJ/mol
# GULP energy per Si atom -5575.676546 kJ/mol
# Density = 1.844937 g / cm^3
# Si number density = 18.491461 Si / 1000 Ang^3
#
#
#
# Elastic Constant Matrix: (Units=GPa)
#
#
# Indices 1 2 3 4 5 6 
#
# 1 69.6558 25.1514 13.5547 0.0000 0.0000 0.0000
# 2 25.1514 48.5675 36.4386 0.0000 0.0000 0.0000
# 3 13.5547 36.4386 144.1586 0.0000 0.0000 0.0000
# 4 0.0000 0.0000 0.0000 34.0993 0.0000 0.0000
# 5 0.0000 0.0000 0.0000 0.0000 17.6804 0.0000
# 6 0.0000 0.0000 0.0000 0.0000 0.0000 19.3608
#
#
#
# Elastic Compliance Matrix: (Units=1/GPa)
#
#
# Indices 1 2 3 4 5 6 
#
# 1 0.017734 -0.009789 0.000807 0.000000 0.000000 0.000000
# 2 -0.009789 0.030812 -0.006868 0.000000 0.000000 0.000000
# 3 0.000807 -0.006868 0.008597 0.000000 0.000000 0.000000
# 4 0.000000 0.000000 0.000000 0.029326 0.000000 0.000000
# 5 0.000000 0.000000 0.000000 0.000000 0.056560 0.000000
# 6 0.000000 0.000000 0.000000 0.000000 0.000000 0.051651
#
#
# Mechanical properties :
#
#
# Convention : Reuss Voigt Hill
#
# Bulk Modulus (GPa) = 39.30399 45.85238 42.57819
# Shear Modulus (GPa) = 21.28918 26.71056 23.99987
#
# Velocity S-wave (km/s) = 3.39676 3.80476 3.60653
# Velocity P-wave (km/s) = 6.05684 6.64469 6.35756
#
# Compressibility (1/GPa) = 0.02544271
#
# Stress axis : x y z
#
# Youngs Moduli (GPa) = 56.38884 32.45475 116.32092
#
# Poissons Ratio (x) = 0.31771 -0.09386
# Poissons Ratio (y) = 0.55200 0.79888
# Poissons Ratio (z) = -0.04550 0.22289
#
# Static dielectric constant tensor:
#      x y z
#    x 1.386490 0.000000 0.000000 
#    y 0.000000 1.716950 0.000000 
#    z 0.000000 0.000000 1.670000 
# 
# From -- ./inp_files/3433.got.cif
#   From: 2010.05.17/outbox.cif.g08.bks.cpg/sg64_2_cif.got.tgz:3433.got - 2010.06.03 16:29:19.
