data_PCOD9477593
_publ_section_title
;
Structure prediction by ZEFSAII (Michael W. Deem and Ramdas Pophale) SiO2 
 PCOD9477593
Probable space group: C M C A
;
_chemical_formula_sum "Si O2"
_cell_formula_units_Z 112
_cell_length_a 24.170453
_cell_length_b 14.277540
_cell_length_c 15.886465
_cell_angle_alpha 90.000000
_cell_angle_beta 90.000000
_cell_angle_gamma 90.000000
_cell_volume 5482.333436
_symmetry_space_group_name_H-M "C M C A"
_symmetry_group_IT_number 64
_symmetry_cell_setting 'orthorhombic'
loop_
_space_group_symop_operation_xyz
x,y,z
-x,1/2-y,1/2+z
x,-y,-z
-x,1/2+y,1/2-z
-x,-y,-z
x,1/2+y,1/2-z
-x,y,z
x,1/2-y,1/2+z
1/2+x,1/2+y,z
1/2-x,-y,1/2+z
1/2+x,1/2-y,-z
1/2-x,y,1/2-z
1/2-x,1/2-y,-z
1/2+x,y,1/2-z
1/2-x,1/2+y,z
1/2+x,-y,1/2+z
loop_
_atom_site_type_symbol
_atom_site_label
_atom_site_fract_x
_atom_site_fract_y
_atom_site_fract_z
Si Si1 0.833359 0.344817 0.037607
Si Si2 0.160261 0.166192 0.141510
Si Si3 0.311848 0.451751 0.287653
Si Si4 0.440071 0.915817 0.565576
Si Si5 0.784442 0.362291 0.862866
Si Si6 0.937277 0.272954 0.954051
Si Si7 0.861494 0.288236 0.301164
O O1 0.827304 0.235778 0.063054
O O2 0.820011 0.400928 0.121996
O O3 0.793996 0.375274 0.961835
O O4 0.895603 0.346676 0.998591
O O5 0.114847 0.089317 0.120446
O O6 0.220777 0.127442 0.160899
O O7 0.134169 0.232023 0.213480
O O8 0.250000 0.439295 0.250000
O O9 0.319980 0.560129 0.312745
O O10 0.351704 0.395903 0.223484
O O11 0.500000 0.923419 0.609845
O O12 0.440120 0.817969 0.514438
O O13 0.436492 0.000000 0.500000
O O14 0.806161 0.258707 0.840716
O O15 0.909124 0.237436 0.867237
O O16 0.000000 0.306837 0.941513
#
# Coordination Sequence:
#
# PCOD9477593 Si02
#       7
#    16  16  16  16  16  16  16
#     4   9  20  37  57  81 114 148 190 243 291 350
#     4  10  19  33  54  80 108 146 186 230 290 346
#     4  11  22  35  55  84 118 153 188 232 294 360
#     4   9  19  34  51  75 106 137 179 230 273 324
#     4  11  21  36  56  82 116 154 190 230 288 360
#     4   9  19  37  60  80 104 149 196 236 289 345
#     4  10  21  36  54  79 115 145 180 236 286 336
#
# _framework density 20.429258000000001
#
# number of rings (size 3 to 8) (size 9 to 14) (size 15 to 20)
#    0.000    2.143    0.000    3.857    0.000    6.286 
#    0.000    2.143    0.000   10.286    0.000    1.000 
#    0.000    0.000    0.000    0.000    0.000    0.000 
#
# Total GULP energy -312225.557267 kJ/mol
# GULP energy per Si atom -5575.456380 kJ/mol
# Density = 2.038276 g / cm^3
# Si number density = 20.429258 Si / 1000 Ang^3
#
#
#
# Elastic Constant Matrix: (Units=GPa)
#
#
# Indices 1 2 3 4 5 6 
#
# 1 105.8146 18.4426 29.3734 0.0000 0.0000 0.0000
# 2 18.4426 62.3280 17.9532 0.0000 0.0000 0.0000
# 3 29.3734 17.9532 92.9938 0.0000 0.0000 0.0000
# 4 0.0000 0.0000 0.0000 25.4228 0.0000 0.0000
# 5 0.0000 0.0000 0.0000 0.0000 7.3843 0.0000
# 6 0.0000 0.0000 0.0000 0.0000 0.0000 15.6854
#
#
#
# Elastic Compliance Matrix: (Units=1/GPa)
#
#
# Indices 1 2 3 4 5 6 
#
# 1 0.010665 -0.002314 -0.002922 0.000000 0.000000 0.000000
# 2 -0.002314 0.017491 -0.002646 0.000000 0.000000 0.000000
# 3 -0.002922 -0.002646 0.012187 0.000000 0.000000 0.000000
# 4 0.000000 0.000000 0.000000 0.039335 0.000000 0.000000
# 5 0.000000 0.000000 0.000000 0.000000 0.135423 0.000000
# 6 0.000000 0.000000 0.000000 0.000000 0.000000 0.063753
#
#
# Mechanical properties :
#
#
# Convention : Reuss Voigt Hill
#
# Bulk Modulus (GPa) = 40.68449 43.63054 42.15751
# Shear Modulus (GPa) = 16.51195 22.72298 19.61746
#
# Velocity S-wave (km/s) = 2.84606 3.33870 3.10217
# Velocity P-wave (km/s) = 5.54600 6.02211 5.78895
#
# Compressibility (1/GPa) = 0.02457939
#
# Stress axis : x y z
#
# Youngs Moduli (GPa) = 93.76540 57.17227 82.05372
#
# Poissons Ratio (x) = 0.13230 0.23975
# Poissons Ratio (y) = 0.21698 0.21710
# Poissons Ratio (z) = 0.27397 0.15127
#
# Static dielectric constant tensor:
#      x y z
#    x 1.747540 0.000000 0.000000 
#    y 0.000000 1.742640 0.000000 
#    z 0.000000 0.000000 1.768100 
# 
# From -- ./inp_files/27419.got.cif
#   From: 2010.05.17/outbox.cif.g08.bks.cpg/sg64_14_cif.got.tgz:27419.got - 2010.06.03 16:29:19.
