data_PCOD9477338
_publ_section_title
;
Structure prediction by ZEFSAII (Michael W. Deem and Ramdas Pophale) SiO2 
 PCOD9477338
Probable space group: C M C A
;
_chemical_formula_sum "Si O2"
_cell_formula_units_Z 96
_cell_length_a 8.097196
_cell_length_b 24.418493
_cell_length_c 26.228579
_cell_angle_alpha 90.000000
_cell_angle_beta 90.000000
_cell_angle_gamma 90.000000
_cell_volume 5185.949362
_symmetry_space_group_name_H-M "C M C A"
_symmetry_group_IT_number 64
_symmetry_cell_setting 'orthorhombic'
loop_
_space_group_symop_operation_xyz
x,y,z
-x,1/2-y,1/2+z
x,-y,-z
-x,1/2+y,1/2-z
-x,-y,-z
x,1/2+y,1/2-z
-x,y,z
x,1/2-y,1/2+z
1/2+x,1/2+y,z
1/2-x,-y,1/2+z
1/2+x,1/2-y,-z
1/2-x,y,1/2-z
1/2-x,1/2-y,-z
1/2+x,y,1/2-z
1/2-x,1/2+y,z
1/2+x,-y,1/2+z
loop_
_atom_site_type_symbol
_atom_site_label
_atom_site_fract_x
_atom_site_fract_y
_atom_site_fract_z
Si Si1 0.800060 0.437094 0.498783
Si Si2 0.698452 0.367173 0.401173
Si Si3 0.201987 0.867036 0.902712
Si Si4 0.697024 0.436960 0.807634
Si Si5 0.802765 0.938449 0.307662
Si Si6 0.199816 0.249316 0.559258
O O1 0.744520 0.500000 0.500000
O O2 0.738510 0.405729 0.449012
O O3 0.747842 0.404513 0.549372
O O4 0.000000 0.436827 0.497599
O O5 0.500000 0.363351 0.396627
O O6 0.762364 0.396131 0.349868
O O7 0.760940 0.306248 0.413955
O O8 0.259724 0.894948 0.850387
O O9 0.256614 0.805027 0.913397
O O10 0.000000 0.866671 0.901880
O O11 0.500000 0.435830 0.808997
O O12 0.750000 0.424075 0.750000
O O13 0.749273 0.499307 0.819478
O O14 0.750000 0.925642 0.250000
O O15 0.000000 0.937574 0.309176
O O16 0.250000 0.250000 0.500000
O O17 0.000000 0.248997 0.560662
#
# Coordination Sequence:
#
# PCOD9477338 Si02
#       6
#    16  16  16  16  16  16
#     4  10  19  31  50  76 103 133 171 209 251 311
#     4  10  21  34  51  76 105 134 169 214 262 303
#     4   9  18  32  51  74 102 135 170 208 253 304
#     4  10  19  34  55  78 103 135 171 211 258 306
#     4  10  20  35  53  76 104 135 170 210 257 307
#     4  10  19  35  54  74 101 138 176 211 254 305
#
# _framework density 18.511557
#
# number of rings (size 3 to 8) (size 9 to 14) (size 15 to 20)
#    0.000    2.167    1.667    3.000    0.000    3.000 
#    0.000    4.167    0.000    0.000    0.000    0.000 
#    0.000    0.000    0.000    0.000    0.000    0.000 
#
# Total GULP energy -267922.528289 kJ/mol
# GULP energy per Si atom -5581.719339 kJ/mol
# Density = 1.846942 g / cm^3
# Si number density = 18.511557 Si / 1000 Ang^3
#
#
#
# Elastic Constant Matrix: (Units=GPa)
#
#
# Indices 1 2 3 4 5 6 
#
# 1 17.7243 11.9550 10.2701 0.0000 0.0000 0.0000
# 2 11.9550 201.1707 127.7575 0.0000 0.0000 0.0000
# 3 10.2701 127.7575 163.6819 0.0000 0.0000 0.0000
# 4 0.0000 0.0000 0.0000 27.0012 0.0000 0.0000
# 5 0.0000 0.0000 0.0000 0.0000 23.0122 0.0000
# 6 0.0000 0.0000 0.0000 0.0000 0.0000 0.7476
#
#
#
# Elastic Compliance Matrix: (Units=1/GPa)
#
#
# Indices 1 2 3 4 5 6 
#
# 1 0.059077 -0.002294 -0.001916 0.000000 0.000000 0.000000
# 2 -0.002294 0.009946 -0.007619 0.000000 0.000000 0.000000
# 3 -0.001916 -0.007619 0.012176 0.000000 0.000000 0.000000
# 4 0.000000 0.000000 0.000000 0.037035 0.000000 0.000000
# 5 0.000000 0.000000 0.000000 0.000000 0.043455 0.000000
# 6 0.000000 0.000000 0.000000 0.000000 0.000000 1.337623
#
#
# Mechanical properties :
#
#
# Convention : Reuss Voigt Hill
#
# Bulk Modulus (GPa) = 17.37886 75.83802 46.60844
# Shear Modulus (GPa) = 3.24222 25.65850 14.45036
#
# Velocity S-wave (km/s) = 1.32486 3.72705 2.79698
# Velocity P-wave (km/s) = 3.42766 7.71868 5.97189
#
# Compressibility (1/GPa) = 0.05754117
#
# Stress axis : x y z
#
# Youngs Moduli (GPa) = 16.92699 100.54455 82.12542
#
# Poissons Ratio (x) = 0.23062 0.15739
# Poissons Ratio (y) = 0.03883 0.62572
# Poissons Ratio (z) = 0.03244 0.76605
#
# Static dielectric constant tensor:
#      x y z
#    x 1.654650 0.000000 0.000000 
#    y 0.000000 1.637810 0.000000 
#    z 0.000000 0.000000 1.622350 
# 
# From -- ./inp_files/42952.got.cif
#   From: 2010.05.17/outbox.cif.g08.bks.cpg/sg64_22_cif.got.tgz:42952.got - 2010.06.03 16:29:19.
