data_PCOD9477116
_publ_section_title
;
Structure prediction by ZEFSAII (Michael W. Deem and Ramdas Pophale) SiO2 
 PCOD9477116
Probable space group: C M C A
;
_chemical_formula_sum "Si O2"
_cell_formula_units_Z 88
_cell_length_a 16.661774
_cell_length_b 13.700950
_cell_length_c 16.500504
_cell_angle_alpha 90.000000
_cell_angle_beta 90.000000
_cell_angle_gamma 90.000000
_cell_volume 3766.770240
_symmetry_space_group_name_H-M "C M C A"
_symmetry_group_IT_number 64
_symmetry_cell_setting 'orthorhombic'
loop_
_space_group_symop_operation_xyz
x,y,z
-x,1/2-y,1/2+z
x,-y,-z
-x,1/2+y,1/2-z
-x,-y,-z
x,1/2+y,1/2-z
-x,y,z
x,1/2-y,1/2+z
1/2+x,1/2+y,z
1/2-x,-y,1/2+z
1/2+x,1/2-y,-z
1/2-x,y,1/2-z
1/2-x,1/2-y,-z
1/2+x,y,1/2-z
1/2-x,1/2+y,z
1/2+x,-y,1/2+z
loop_
_atom_site_type_symbol
_atom_site_label
_atom_site_fract_x
_atom_site_fract_y
_atom_site_fract_z
Si Si1 0.500000 0.736096 0.719163
Si Si2 0.830939 0.734702 0.731821
Si Si3 0.635998 0.152238 0.560321
Si Si4 0.318874 0.027489 0.818380
Si Si5 0.750276 0.500000 0.000000
Si Si6 0.500000 0.994800 0.221759
Si Si7 0.000000 0.501022 0.396236
Si Si8 0.000000 0.785431 0.964111
O O1 0.582127 0.779162 0.753829
O O2 0.500000 0.621718 0.744266
O O3 0.500000 0.736991 0.622258
O O4 0.750000 0.792554 0.750000
O O5 0.826700 0.699162 0.639508
O O6 0.828585 0.641931 0.793251
O O7 0.580013 0.230517 0.515297
O O8 0.696416 0.098511 0.500143
O O9 0.578606 0.065284 0.593941
O O10 0.250000 0.998604 0.750000
O O11 0.411300 0.988716 0.815060
O O12 0.291475 0.008540 0.911210
O O13 0.500000 0.046231 0.307987
O O14 0.000000 0.596250 0.451870
#
# Coordination Sequence:
#
# PCOD9477116 Si02
#       8
#     8  16  16  16   8   8   8   8
#     4  10  20  37  55  83 117 153 201 246 282 364
#     4  10  18  36  64  81 109 163 213 223 288 376
#     4  11  18  32  57  92 113 150 196 255 302 363
#     4  10  19  31  55  90 114 156 202 244 293 355
#     4  12  18  30  56  90 128 140 196 263 292 351
#     4  10  19  36  60  76 115 169 207 217 293 386
#     4  11  16  31  59  89 110 149 190 247 306 361
#     4  11  23  29  54  93 123 138 195 271 316 319
#
# _framework density 23.362189000000001
#
# number of rings (size 3 to 8) (size 9 to 14) (size 15 to 20)
#    0.000    1.455    9.091    1.091    0.000    0.364 
#    0.000    0.909    4.000    4.364    0.000    0.000 
#    0.000    0.000    0.000    0.000    0.000    0.000 
#
# Total GULP energy -245325.941276 kJ/mol
# GULP energy per Si atom -5575.589574 kJ/mol
# Density = 2.330902 g / cm^3
# Si number density = 23.362189 Si / 1000 Ang^3
#
#
#
# Elastic Constant Matrix: (Units=GPa)
#
#
# Indices 1 2 3 4 5 6 
#
# 1 186.9215 3.8973 43.0087 0.0000 0.0000 0.0000
# 2 3.8973 55.6939 -1.3388 0.0000 0.0000 0.0000
# 3 43.0087 -1.3388 100.4863 0.0000 0.0000 0.0000
# 4 0.0000 0.0000 0.0000 24.2856 0.0000 0.0000
# 5 0.0000 0.0000 0.0000 0.0000 45.1839 0.0000
# 6 0.0000 0.0000 0.0000 0.0000 0.0000 -30.8573
#
#
#
# Elastic Compliance Matrix: (Units=1/GPa)
#
#
# Indices 1 2 3 4 5 6 
#
# 1 0.005947 -0.000477 -0.002552 0.000000 0.000000 0.000000
# 2 -0.000477 0.017999 0.000444 0.000000 0.000000 0.000000
# 3 -0.002552 0.000444 0.011050 0.000000 0.000000 0.000000
# 4 0.000000 0.000000 0.000000 0.041177 0.000000 0.000000
# 5 0.000000 0.000000 0.000000 0.000000 0.022132 0.000000
# 6 0.000000 0.000000 0.000000 0.000000 0.000000 -0.032407
#
#
# Mechanical properties :
#
#
# Convention : Reuss Voigt Hill
#
# Bulk Modulus (GPa) = 33.52781 48.24846 40.88813
# Shear Modulus (GPa) = 61.72147 27.55807 44.63977
#
# Velocity S-wave (km/s) = 5.14556 3.43826 4.37598
# Velocity P-wave (km/s) = 7.04874 6.03816 6.56293
#
# Compressibility (1/GPa) = 0.02982599
#
# Stress axis : x y z
#
# Youngs Moduli (GPa) = 168.15453 55.55746 90.50056
#
# Poissons Ratio (x) = 0.02653 0.23093
# Poissons Ratio (y) = 0.08029 -0.04020
# Poissons Ratio (z) = 0.42908 -0.02468
#
# Static dielectric constant tensor:
#      x y z
#    x 1.993870 0.000000 0.000000 
#    y 0.000000 1.890550 0.000000 
#    z 0.000000 0.000000 1.884580 
# 
# From -- ./inp_files/25589.got.cif
#   From: 2010.05.17/outbox.cif.g08.bks.cpg/sg64_13_cif.got.tgz:25589.got - 2010.06.03 16:29:19.
