data_PCOD9477444
_publ_section_title
;
Structure prediction by ZEFSAII (Michael W. Deem and Ramdas Pophale) SiO2 
 PCOD9477444
Probable space group: C M C A
;
_chemical_formula_sum "Si O2"
_cell_formula_units_Z 80
_cell_length_a 9.421324
_cell_length_b 14.481233
_cell_length_c 26.556132
_cell_angle_alpha 90.000000
_cell_angle_beta 90.000000
_cell_angle_gamma 90.000000
_cell_volume 3623.116505
_symmetry_space_group_name_H-M "C M C A"
_symmetry_group_IT_number 64
_symmetry_cell_setting 'orthorhombic'
loop_
_space_group_symop_operation_xyz
x,y,z
-x,1/2-y,1/2+z
x,-y,-z
-x,1/2+y,1/2-z
-x,-y,-z
x,1/2+y,1/2-z
-x,y,z
x,1/2-y,1/2+z
1/2+x,1/2+y,z
1/2-x,-y,1/2+z
1/2+x,1/2-y,-z
1/2-x,y,1/2-z
1/2-x,1/2-y,-z
1/2+x,y,1/2-z
1/2-x,1/2+y,z
1/2+x,-y,1/2+z
loop_
_atom_site_type_symbol
_atom_site_label
_atom_site_fract_x
_atom_site_fract_y
_atom_site_fract_z
Si Si1 0.837278 0.112838 0.505088
Si Si2 0.660580 0.611864 0.702467
Si Si3 0.839576 0.409001 0.398786
Si Si4 0.661094 0.371478 0.908875
Si Si5 0.159757 0.167229 0.202723
O O1 0.747343 0.133796 0.555019
O O2 0.759457 0.152262 0.455877
O O3 0.000000 0.143297 0.508891
O O4 0.839838 0.000000 0.500000
O O5 0.500000 0.574326 0.699617
O O6 0.750000 0.576916 0.750000
O O7 0.749381 0.597512 0.651941
O O8 0.648543 0.722505 0.708557
O O9 0.851419 0.517742 0.410472
O O10 0.000000 0.371978 0.393406
O O11 0.500000 0.332840 0.912534
O O12 0.719912 0.348761 0.853311
O O13 0.250000 0.133178 0.250000
O O14 0.000000 0.127227 0.203086
#
# Coordination Sequence:
#
# PCOD9477444 Si02
#       5
#    16  16  16  16  16
#     4   9  17  30  49  74 102 131 163 200 244 292
#     4  10  20  35  53  72  98 131 166 203 244 292
#     4  10  19  32  52  76 102 131 163 202 246 292
#     4   9  18  33  52  75 101 129 163 203 247 292
#     4   9  19  35  53  72  97 130 165 202 245 292
#
# _framework density 22.080438999999998
#
# number of rings (size 3 to 8) (size 9 to 14) (size 15 to 20)
#    0.000    2.600    0.000    1.800    0.000    5.600 
#    0.000    3.000    0.000    0.000    0.000    0.000 
#    0.000    0.000    0.000    0.000    0.000    0.000 
#
# Total GULP energy -223439.858543 kJ/mol
# GULP energy per Si atom -5585.996464 kJ/mol
# Density = 2.203018 g / cm^3
# Si number density = 22.080439 Si / 1000 Ang^3
#
#
#
# Elastic Constant Matrix: (Units=GPa)
#
#
# Indices 1 2 3 4 5 6 
#
# 1 202.6373 3.3669 145.1951 0.0000 0.0000 0.0000
# 2 3.3669 46.0556 -3.9250 0.0000 0.0000 0.0000
# 3 145.1951 -3.9250 240.6242 0.0000 0.0000 0.0000
# 4 0.0000 0.0000 0.0000 29.2660 0.0000 0.0000
# 5 0.0000 0.0000 0.0000 0.0000 33.1164 0.0000
# 6 0.0000 0.0000 0.0000 0.0000 0.0000 15.1780
#
#
#
# Elastic Compliance Matrix: (Units=1/GPa)
#
#
# Indices 1 2 3 4 5 6 
#
# 1 0.008748 -0.001091 -0.005297 0.000000 0.000000 0.000000
# 2 -0.001091 0.021879 0.001015 0.000000 0.000000 0.000000
# 3 -0.005297 0.001015 0.007368 0.000000 0.000000 0.000000
# 4 0.000000 0.000000 0.000000 0.034169 0.000000 0.000000
# 5 0.000000 0.000000 0.000000 0.000000 0.030197 0.000000
# 6 0.000000 0.000000 0.000000 0.000000 0.000000 0.065885
#
#
# Mechanical properties :
#
#
# Convention : Reuss Voigt Hill
#
# Bulk Modulus (GPa) = 36.69575 86.51014 61.60295
# Shear Modulus (GPa) = 26.58517 38.49074 32.53796
#
# Velocity S-wave (km/s) = 3.47366 4.17970 3.84293
# Velocity P-wave (km/s) = 5.72220 7.90935 6.90295
#
# Compressibility (1/GPa) = 0.02725111
#
# Stress axis : x y z
#
# Youngs Moduli (GPa) = 114.30991 45.70566 135.71491
#
# Poissons Ratio (x) = 0.04986 0.71882
# Poissons Ratio (y) = 0.12470 -0.13777
# Poissons Ratio (z) = 0.60544 -0.04640
#
# Static dielectric constant tensor:
#      x y z
#    x 1.804790 0.000000 0.000000 
#    y 0.000000 1.856640 0.000000 
#    z 0.000000 0.000000 1.775580 
# 
# From -- ./inp_files/47801.got.cif
#   From: 2010.05.17/outbox.cif.g08.bks.cpg/sg64_24_cif.got.tgz:47801.got - 2010.06.03 16:29:19.
