data_PCOD9477082
_publ_section_title
;
Structure prediction by ZEFSAII (Michael W. Deem and Ramdas Pophale) SiO2 
 PCOD9477082
Probable space group: C M C A
;
_chemical_formula_sum "Si O2"
_cell_formula_units_Z 88
_cell_length_a 24.246877
_cell_length_b 15.154755
_cell_length_c 10.837218
_cell_angle_alpha 90.000000
_cell_angle_beta 90.000000
_cell_angle_gamma 90.000000
_cell_volume 3982.195147
_symmetry_space_group_name_H-M "C M C A"
_symmetry_group_IT_number 64
_symmetry_cell_setting 'orthorhombic'
loop_
_space_group_symop_operation_xyz
x,y,z
-x,1/2-y,1/2+z
x,-y,-z
-x,1/2+y,1/2-z
-x,-y,-z
x,1/2+y,1/2-z
-x,y,z
x,1/2-y,1/2+z
1/2+x,1/2+y,z
1/2-x,-y,1/2+z
1/2+x,1/2-y,-z
1/2-x,y,1/2-z
1/2-x,1/2-y,-z
1/2+x,y,1/2-z
1/2-x,1/2+y,z
1/2+x,-y,1/2+z
loop_
_atom_site_type_symbol
_atom_site_label
_atom_site_fract_x
_atom_site_fract_y
_atom_site_fract_z
Si Si1 0.193350 0.000000 0.500000
Si Si2 0.295855 0.303377 0.832217
Si Si3 0.773364 0.130221 0.901022
Si Si4 0.619181 0.952574 0.366275
Si Si5 0.500000 0.566762 0.381409
Si Si6 0.000000 0.551711 0.631526
Si Si7 0.618842 0.612618 0.328303
O O1 0.234614 0.954508 0.404252
O O2 0.156269 0.923075 0.559335
O O3 0.250000 0.352468 0.750000
O O4 0.266093 0.210867 0.864539
O O5 0.350735 0.310243 0.749286
O O6 0.297765 0.349681 0.963244
O O7 0.829608 0.108545 0.831434
O O8 0.625888 0.000000 0.500000
O O9 0.559988 0.903310 0.365731
O O10 0.617490 0.031268 0.267665
O O11 0.500000 0.500000 0.500000
O O12 0.500000 0.510439 0.253435
O O13 0.556471 0.623225 0.376703
O O14 0.000000 0.500000 0.500000
#
# Coordination Sequence:
#
# PCOD9477082 Si02
#       7
#     8  16  16  16   8   8  16
#     4  12  22  37  62  97 124 172 220 282 330 414
#     4  11  23  40  55  87 132 173 205 269 336 414
#     4  11  23  36  60  92 130 167 218 266 344 402
#     4  10  18  35  59  93 122 163 214 274 325 400
#     4  10  20  38  62  97 126 173 221 281 341 404
#     4   8  18  32  58  93 130 158 213 284 342 387
#     4  11  22  38  63  90 132 162 221 274 343 403
#
# _framework density 22.098362999999999
#
# number of rings (size 3 to 8) (size 9 to 14) (size 15 to 20)
#    0.000    1.455    5.455    0.000    2.545    0.000 
#    0.000    0.000    0.000    3.273    0.000    0.000 
#    0.000    0.000    0.000    0.000    0.000    0.000 
#
# Total GULP energy -245252.941728 kJ/mol
# GULP energy per Si atom -5573.930494 kJ/mol
# Density = 2.204807 g / cm^3
# Si number density = 22.098363 Si / 1000 Ang^3
#
#
#
# Elastic Constant Matrix: (Units=GPa)
#
#
# Indices 1 2 3 4 5 6 
#
# 1 228.1159 62.7990 25.3562 0.0000 0.0000 0.0000
# 2 62.7990 62.4555 4.8509 0.0000 0.0000 0.0000
# 3 25.3562 4.8509 80.8211 0.0000 0.0000 0.0000
# 4 0.0000 0.0000 0.0000 22.4375 0.0000 0.0000
# 5 0.0000 0.0000 0.0000 0.0000 29.6273 0.0000
# 6 0.0000 0.0000 0.0000 0.0000 0.0000 17.5108
#
#
#
# Elastic Compliance Matrix: (Units=1/GPa)
#
#
# Indices 1 2 3 4 5 6 
#
# 1 0.006259 -0.006170 -0.001593 0.000000 0.000000 0.000000
# 2 -0.006170 0.022168 0.000605 0.000000 0.000000 0.000000
# 3 -0.001593 0.000605 0.012837 0.000000 0.000000 0.000000
# 4 0.000000 0.000000 0.000000 0.044568 0.000000 0.000000
# 5 0.000000 0.000000 0.000000 0.000000 0.033753 0.000000
# 6 0.000000 0.000000 0.000000 0.000000 0.000000 0.057108
#
#
# Mechanical properties :
#
#
# Convention : Reuss Voigt Hill
#
# Bulk Modulus (GPa) = 37.10884 61.93387 49.52135
# Shear Modulus (GPa) = 25.00094 32.47420 28.73757
#
# Velocity S-wave (km/s) = 3.36720 3.83760 3.61007
# Velocity P-wave (km/s) = 5.65212 6.90822 6.31150
#
# Compressibility (1/GPa) = 0.02694776
#
# Stress axis : x y z
#
# Youngs Moduli (GPa) = 159.75820 45.10911 77.90224
#
# Poissons Ratio (x) = 0.27833 0.12413
# Poissons Ratio (y) = 0.98573 -0.04715
# Poissons Ratio (z) = 0.25457 -0.02730
#
# Static dielectric constant tensor:
#      x y z
#    x 1.861860 0.000000 0.000000 
#    y 0.000000 1.829410 0.000000 
#    z 0.000000 0.000000 1.858390 
# 
# From -- ./inp_files/18243.got.cif
#   From: 2010.05.17/outbox.cif.g08.bks.cpg/sg64_10_cif.got.tgz:18243.got - 2010.06.03 16:29:19.
