data_PCOD9477282
_publ_section_title
;
Structure prediction by ZEFSAII (Michael W. Deem and Ramdas Pophale) SiO2 
 PCOD9477282
Probable space group: C M C A
;
_chemical_formula_sum "Si O2"
_cell_formula_units_Z 112
_cell_length_a 27.166128
_cell_length_b 36.952182
_cell_length_c 5.051161
_cell_angle_alpha 90.000000
_cell_angle_beta 90.000000
_cell_angle_gamma 90.000000
_cell_volume 5070.596383
_symmetry_space_group_name_H-M "C M C A"
_symmetry_group_IT_number 64
_symmetry_cell_setting 'orthorhombic'
loop_
_space_group_symop_operation_xyz
x,y,z
-x,1/2-y,1/2+z
x,-y,-z
-x,1/2+y,1/2-z
-x,-y,-z
x,1/2+y,1/2-z
-x,y,z
x,1/2-y,1/2+z
1/2+x,1/2+y,z
1/2-x,-y,1/2+z
1/2+x,1/2-y,-z
1/2-x,y,1/2-z
1/2-x,1/2-y,-z
1/2+x,y,1/2-z
1/2-x,1/2+y,z
1/2+x,-y,1/2+z
loop_
_atom_site_type_symbol
_atom_site_label
_atom_site_fract_x
_atom_site_fract_y
_atom_site_fract_z
Si Si1 0.053600 0.616362 0.800449
Si Si2 0.682326 0.847846 0.652442
Si Si3 0.334181 0.603793 0.635631
Si Si4 0.426389 0.230007 0.595653
Si Si5 0.191171 0.978616 0.253132
Si Si6 0.570392 0.660540 0.214669
Si Si7 0.693097 0.727876 0.927704
O O1 0.106134 0.600159 0.896217
O O2 0.060538 0.628168 0.495177
O O3 0.000000 0.597594 0.825610
O O4 0.050853 0.650667 0.998756
O O5 0.675134 0.870589 0.386159
O O6 0.628877 0.834785 0.753148
O O7 0.708477 0.810864 0.552664
O O8 0.694156 0.876475 0.889242
O O9 0.316852 0.563829 0.709285
O O10 0.439841 0.262718 0.397463
O O11 0.446540 0.195196 0.447083
O O12 0.366824 0.226537 0.589055
O O13 0.250000 0.983402 0.250000
O O14 0.169926 0.000000 0.500000
O O15 0.171438 0.000000 0.000000
O O16 0.706106 0.760558 0.128753
#
# Coordination Sequence:
#
# PCOD9477282 Si02
#       7
#    16  16  16  16  16  16  16
#     4  10  19  31  48  67  91 127 168 209 248 286
#     4   9  17  28  45  72 102 135 176 220 262 301
#     4  10  19  33  53  77 106 135 171 215 251 299
#     4   9  15  23  37  54  75 111 159 210 262 309
#     4  10  21  38  61  88 116 142 163 190 243 314
#     4   9  17  28  42  61  86 121 167 215 260 301
#     4   9  15  23  37  61  95 131 170 217 263 306
#
# _framework density 22.088132999999999
#
# number of rings (size 3 to 8) (size 9 to 14) (size 15 to 20)
#    0.000    2.571    0.000    3.000    0.000    6.857 
#    0.000    0.000    0.000    9.429    0.000    0.000 
#    0.000   11.429    0.000    0.000    0.000    0.000 
#
# Total GULP energy -312167.612613 kJ/mol
# GULP energy per Si atom -5574.421654 kJ/mol
# Density = 2.203786 g / cm^3
# Si number density = 22.088133 Si / 1000 Ang^3
#
#
#
# Elastic Constant Matrix: (Units=GPa)
#
#
# Indices 1 2 3 4 5 6 
#
# 1 42.6144 0.1327 18.7512 0.0000 0.0000 0.0000
# 2 0.1327 105.9486 43.9599 0.0000 0.0000 0.0000
# 3 18.7512 43.9599 138.6640 0.0000 0.0000 0.0000
# 4 0.0000 0.0000 0.0000 27.4555 0.0000 0.0000
# 5 0.0000 0.0000 0.0000 0.0000 11.5226 0.0000
# 6 0.0000 0.0000 0.0000 0.0000 0.0000 -51.1868
#
#
#
# Elastic Compliance Matrix: (Units=1/GPa)
#
#
# Indices 1 2 3 4 5 6 
#
# 1 0.025182 0.001591 -0.003910 0.000000 0.000000 0.000000
# 2 0.001591 0.010969 -0.003692 0.000000 0.000000 0.000000
# 3 -0.003910 -0.003692 0.008911 0.000000 0.000000 0.000000
# 4 0.000000 0.000000 0.000000 0.036423 0.000000 0.000000
# 5 0.000000 0.000000 0.000000 0.000000 0.086786 0.000000
# 6 0.000000 0.000000 0.000000 0.000000 0.000000 -0.019536
#
#
# Mechanical properties :
#
#
# Convention : Reuss Voigt Hill
#
# Bulk Modulus (GPa) = 30.26776 45.87940 38.07358
# Shear Modulus (GPa) = 29.10892 12.51712 20.81302
#
# Velocity S-wave (km/s) = 3.63416 2.38311 3.07297
# Velocity P-wave (km/s) = 5.59843 5.32808 5.46493
#
# Compressibility (1/GPa) = 0.03303846
#
# Stress axis : x y z
#
# Youngs Moduli (GPa) = 39.71155 91.16938 112.22162
#
# Poissons Ratio (x) = -0.14501 0.43873
# Poissons Ratio (y) = -0.06316 0.41437
# Poissons Ratio (z) = 0.15525 0.33663
#
# Static dielectric constant tensor:
#      x y z
#    x 1.941720 0.000000 0.000000 
#    y 0.000000 1.930440 0.000000 
#    z 0.000000 0.000000 1.793150 
# 
# From -- ./inp_files/3493.got.cif
#   From: 2010.05.17/outbox.cif.g08.bks.cpg/sg64_2_cif.got.tgz:3493.got - 2010.06.03 16:29:19.
