data_PCOD9477823
_publ_section_title
;
Structure prediction by ZEFSAII (Michael W. Deem and Ramdas Pophale) SiO2 
 PCOD9477823
Probable space group: C M C A
;
_chemical_formula_sum "Si O2"
_cell_formula_units_Z 72
_cell_length_a 15.714274
_cell_length_b 19.032306
_cell_length_c 10.729257
_cell_angle_alpha 90.000000
_cell_angle_beta 90.000000
_cell_angle_gamma 90.000000
_cell_volume 3208.894074
_symmetry_space_group_name_H-M "C M C A"
_symmetry_group_IT_number 64
_symmetry_cell_setting 'orthorhombic'
loop_
_space_group_symop_operation_xyz
x,y,z
-x,1/2-y,1/2+z
x,-y,-z
-x,1/2+y,1/2-z
-x,-y,-z
x,1/2+y,1/2-z
-x,y,z
x,1/2-y,1/2+z
1/2+x,1/2+y,z
1/2-x,-y,1/2+z
1/2+x,1/2-y,-z
1/2-x,y,1/2-z
1/2-x,1/2-y,-z
1/2+x,y,1/2-z
1/2-x,1/2+y,z
1/2+x,-y,1/2+z
loop_
_atom_site_type_symbol
_atom_site_label
_atom_site_fract_x
_atom_site_fract_y
_atom_site_fract_z
Si Si1 0.708519 0.592686 0.880391
Si Si2 0.646877 0.309661 0.754067
Si Si3 0.095909 0.970358 0.771199
Si Si4 0.342657 0.000000 0.000000
Si Si5 0.850432 0.767242 0.013071
O O1 0.750000 0.618823 0.750000
O O2 0.657961 0.522319 0.844626
O O3 0.649922 0.652854 0.936819
O O4 0.782421 0.567804 0.974408
O O5 0.750000 0.305080 0.750000
O O6 0.623051 0.389776 0.779545
O O7 0.613779 0.282005 0.621451
O O8 0.614975 0.264936 0.872978
O O9 0.000000 0.979643 0.814471
O O10 0.105148 0.989809 0.625446
O O11 0.750000 0.750000 0.000000
#
# Coordination Sequence:
#
# PCOD9477823 Si02
#       5
#    16  16  16   8  16
#     4  10  19  34  59  87 116 156 207 254 303 368
#     4  10  20  37  60  86 118 159 209 261 314 373
#     4  11  23  38  57  89 128 164 202 256 316 376
#     4  10  19  36  61  86 116 162 212 254 303 372
#     4  10  19  34  60  90 115 151 205 264 308 361
#
# _framework density 22.437636999999999
#
# number of rings (size 3 to 8) (size 9 to 14) (size 15 to 20)
#    0.000    1.778    0.000    8.333    0.000    1.778 
#    0.000    7.222    0.000    0.000    0.000    0.000 
#    0.000    0.000    0.000    0.000    0.000    0.000 
#
# Total GULP energy -201327.679104 kJ/mol
# GULP energy per Si atom -5592.435531 kJ/mol
# Density = 2.238657 g / cm^3
# Si number density = 22.437637 Si / 1000 Ang^3
#
#
#
# Elastic Constant Matrix: (Units=GPa)
#
#
# Indices 1 2 3 4 5 6 
#
# 1 43.3685 4.1800 18.4115 0.0000 0.0000 0.0000
# 2 4.1800 90.4078 29.0533 0.0000 0.0000 0.0000
# 3 18.4115 29.0533 117.5103 0.0000 0.0000 0.0000
# 4 0.0000 0.0000 0.0000 25.4130 0.0000 0.0000
# 5 0.0000 0.0000 0.0000 0.0000 2.1516 0.0000
# 6 0.0000 0.0000 0.0000 0.0000 0.0000 -1.4824
#
#
#
# Elastic Compliance Matrix: (Units=1/GPa)
#
#
# Indices 1 2 3 4 5 6 
#
# 1 0.024702 0.000110 -0.003898 0.000000 0.000000 0.000000
# 2 0.000110 0.012016 -0.002988 0.000000 0.000000 0.000000
# 3 -0.003898 -0.002988 0.009859 0.000000 0.000000 0.000000
# 4 0.000000 0.000000 0.000000 0.039350 0.000000 0.000000
# 5 0.000000 0.000000 0.000000 0.000000 0.464778 0.000000
# 6 0.000000 0.000000 0.000000 0.000000 0.000000 -0.674562
#
#
# Mechanical properties :
#
#
# Convention : Reuss Voigt Hill
#
# Bulk Modulus (GPa) = 30.27826 39.39735 34.83780
# Shear Modulus (GPa) = -50.35421 18.52589 -15.91416
#
# Velocity S-wave (km/s) = -4.74242 2.87655 -2.66609
# Velocity P-wave (km/s) = 4.05755 5.35065 2.46634
#
# Compressibility (1/GPa) = 0.03302700
#
# Stress axis : x y z
#
# Youngs Moduli (GPa) = 40.48216 83.22127 101.42631
#
# Poissons Ratio (x) = -0.00919 0.39532
# Poissons Ratio (y) = -0.00447 0.30308
# Poissons Ratio (z) = 0.15779 0.24868
#
# Static dielectric constant tensor:
#      x y z
#    x 1.887830 0.000000 0.000000 
#    y 0.000000 1.826130 0.000000 
#    z 0.000000 0.000000 1.876600 
# 
# From -- ./inp_files/15905.got.cif
#   From: 2010.05.17/outbox.cif.g08.bks.cpg/sg64_8_cif.got.tgz:15905.got - 2010.06.03 16:29:19.
