data_PCOD9477512
_publ_section_title
;
Structure prediction by ZEFSAII (Michael W. Deem and Ramdas Pophale) SiO2 
 PCOD9477512
Probable space group: C M C A
;
_chemical_formula_sum "Si O2"
_cell_formula_units_Z 80
_cell_length_a 17.521982
_cell_length_b 18.791697
_cell_length_c 13.678413
_cell_angle_alpha 90.000000
_cell_angle_beta 90.000000
_cell_angle_gamma 90.000000
_cell_volume 4503.860636
_symmetry_space_group_name_H-M "C M C A"
_symmetry_group_IT_number 64
_symmetry_cell_setting 'orthorhombic'
loop_
_space_group_symop_operation_xyz
x,y,z
-x,1/2-y,1/2+z
x,-y,-z
-x,1/2+y,1/2-z
-x,-y,-z
x,1/2+y,1/2-z
-x,y,z
x,1/2-y,1/2+z
1/2+x,1/2+y,z
1/2-x,-y,1/2+z
1/2+x,1/2-y,-z
1/2-x,y,1/2-z
1/2-x,1/2-y,-z
1/2+x,y,1/2-z
1/2-x,1/2+y,z
1/2+x,-y,1/2+z
loop_
_atom_site_type_symbol
_atom_site_label
_atom_site_fract_x
_atom_site_fract_y
_atom_site_fract_z
Si Si1 0.279399 0.922224 0.038136
Si Si2 0.084451 0.211342 0.054437
Si Si3 0.587382 0.863952 0.151812
Si Si4 0.836859 0.179574 0.856770
Si Si5 0.244071 0.827536 0.857650
O O1 0.357440 0.920188 0.099619
O O2 0.215060 0.885705 0.105949
O O3 0.284472 0.871766 0.942800
O O4 0.259244 0.000000 0.000000
O O5 0.086869 0.294486 0.081977
O O6 0.155525 0.178135 0.112363
O O7 0.000000 0.184718 0.081014
O O8 0.101769 0.197000 0.940911
O O9 0.500000 0.887218 0.165830
O O10 0.624322 0.838454 0.254119
O O11 0.782171 0.249066 0.853180
O O12 0.250000 0.859693 0.750000
#
# Coordination Sequence:
#
# PCOD9477512 Si02
#       5
#    16  16  16  16  16
#     4  11  23  38  58  81 116 159 197 234 285 351
#     4  10  19  32  55  88 116 140 180 235 295 340
#     4  11  21  35  60  89 119 149 185 239 299 346
#     4  11  19  38  60  85 112 151 194 246 283 343
#     4  11  19  36  58  83 112 146 192 249 286 331
#
# _framework density 17.762537999999999
#
# number of rings (size 3 to 8) (size 9 to 14) (size 15 to 20)
#    0.000    1.200    6.000    2.400    0.000    2.000 
#    0.000    1.000    0.000   19.800    0.000    0.000 
#    0.000    0.000    0.000    0.000    0.000    0.000 
#
# Total GULP energy -223205.217200 kJ/mol
# GULP energy per Si atom -5580.130430 kJ/mol
# Density = 1.772211 g / cm^3
# Si number density = 17.762538 Si / 1000 Ang^3
#
#
#
# Elastic Constant Matrix: (Units=GPa)
#
#
# Indices 1 2 3 4 5 6 
#
# 1 107.6615 23.2349 45.0860 0.0000 0.0000 0.0000
# 2 23.2349 64.3135 17.7394 0.0000 0.0000 0.0000
# 3 45.0860 17.7394 80.0022 0.0000 0.0000 0.0000
# 4 0.0000 0.0000 0.0000 11.8101 0.0000 0.0000
# 5 0.0000 0.0000 0.0000 0.0000 23.2508 0.0000
# 6 0.0000 0.0000 0.0000 0.0000 0.0000 7.9051
#
#
#
# Elastic Compliance Matrix: (Units=1/GPa)
#
#
# Indices 1 2 3 4 5 6 
#
# 1 0.012602 -0.002763 -0.006489 0.000000 0.000000 0.000000
# 2 -0.002763 0.017168 -0.002250 0.000000 0.000000 0.000000
# 3 -0.006489 -0.002250 0.016656 0.000000 0.000000 0.000000
# 4 0.000000 0.000000 0.000000 0.084673 0.000000 0.000000
# 5 0.000000 0.000000 0.000000 0.000000 0.043009 0.000000
# 6 0.000000 0.000000 0.000000 0.000000 0.000000 0.126500
#
#
# Mechanical properties :
#
#
# Convention : Reuss Voigt Hill
#
# Bulk Modulus (GPa) = 42.69587 47.12197 44.90892
# Shear Modulus (GPa) = 15.08664 19.65433 17.37048
#
# Velocity S-wave (km/s) = 2.91752 3.33003 3.13058
# Velocity P-wave (km/s) = 5.95302 6.43210 6.19719
#
# Compressibility (1/GPa) = 0.02342147
#
# Stress axis : x y z
#
# Youngs Moduli (GPa) = 79.35071 58.24953 60.03950
#
# Poissons Ratio (x) = 0.16094 0.38963
# Poissons Ratio (y) = 0.21924 0.13507
# Poissons Ratio (z) = 0.51495 0.13104
#
# Static dielectric constant tensor:
#      x y z
#    x 1.622640 0.000000 0.000000 
#    y 0.000000 1.583290 0.000000 
#    z 0.000000 0.000000 1.618030 
# 
# From -- ./inp_files/25268.got.cif
#   From: 2010.05.17/outbox.cif.g08.bks.cpg/sg64_13_cif.got.tgz:25268.got - 2010.06.03 16:29:19.
