data_PCOD9477993
_publ_section_title
;
Structure prediction by ZEFSAII (Michael W. Deem and Ramdas Pophale) SiO2 
 PCOD9477993
Probable space group: C M C A
;
_chemical_formula_sum "Si O2"
_cell_formula_units_Z 80
_cell_length_a 9.043551
_cell_length_b 26.054154
_cell_length_c 20.034142
_cell_angle_alpha 90.000000
_cell_angle_beta 90.000000
_cell_angle_gamma 90.000000
_cell_volume 4720.486018
_symmetry_space_group_name_H-M "C M C A"
_symmetry_group_IT_number 64
_symmetry_cell_setting 'orthorhombic'
loop_
_space_group_symop_operation_xyz
x,y,z
-x,1/2-y,1/2+z
x,-y,-z
-x,1/2+y,1/2-z
-x,-y,-z
x,1/2+y,1/2-z
-x,y,z
x,1/2-y,1/2+z
1/2+x,1/2+y,z
1/2-x,-y,1/2+z
1/2+x,1/2-y,-z
1/2-x,y,1/2-z
1/2-x,1/2-y,-z
1/2+x,y,1/2-z
1/2-x,1/2+y,z
1/2+x,-y,1/2+z
loop_
_atom_site_type_symbol
_atom_site_label
_atom_site_fract_x
_atom_site_fract_y
_atom_site_fract_z
Si Si1 0.323998 0.941665 0.678519
Si Si2 0.676296 0.737804 0.928608
Si Si3 0.823885 0.849112 0.604153
Si Si4 0.323531 0.481152 0.424391
Si Si5 0.823893 0.635938 0.946056
O O1 0.500000 0.942499 0.683567
O O2 0.250000 0.950463 0.750000
O O3 0.267888 0.887192 0.649765
O O4 0.266258 0.984469 0.626927
O O5 0.500000 0.734985 0.936370
O O6 0.708134 0.788661 0.885307
O O7 0.740568 0.682498 0.909800
O O8 0.750000 0.750000 0.000000
O O9 0.792190 0.861469 0.525885
O O10 0.000000 0.857730 0.613872
O O11 0.295867 0.500000 0.500000
O O12 0.500000 0.487554 0.412448
O O13 0.287181 0.420826 0.420782
O O14 0.000000 0.643793 0.939636
#
# Coordination Sequence:
#
# PCOD9477993 Si02
#       5
#    16  16  16  16  16
#     4  12  25  38  55  79 108 144 185 230 276 329
#     4   9  17  28  46  73 107 140 170 211 260 312
#     4   9  17  33  52  74 106 143 177 214 269 322
#     4  10  19  36  58  79 110 147 181 223 277 330
#     4   9  17  30  52  79 108 142 174 215 269 319
#
# _framework density 16.947406000000001
#
# number of rings (size 3 to 8) (size 9 to 14) (size 15 to 20)
#    0.000    2.200    2.000    3.600    0.000    5.200 
#    0.000    0.000    0.000    1.200    0.000    8.400 
#    0.000    0.000    0.000    0.000    0.000    0.000 
#
# Total GULP energy -223072.393838 kJ/mol
# GULP energy per Si atom -5576.809846 kJ/mol
# Density = 1.690883 g / cm^3
# Si number density = 16.947406 Si / 1000 Ang^3
#
#
#
# Elastic Constant Matrix: (Units=GPa)
#
#
# Indices 1 2 3 4 5 6 
#
# 1 87.3782 82.4354 56.9683 0.0000 0.0000 0.0000
# 2 82.4354 161.8814 54.2770 0.0000 0.0000 0.0000
# 3 56.9683 54.2770 69.6250 0.0000 0.0000 0.0000
# 4 0.0000 0.0000 0.0000 11.3329 0.0000 0.0000
# 5 0.0000 0.0000 0.0000 0.0000 22.2505 0.0000
# 6 0.0000 0.0000 0.0000 0.0000 0.0000 34.2890
#
#
#
# Elastic Compliance Matrix: (Units=1/GPa)
#
#
# Indices 1 2 3 4 5 6 
#
# 1 0.034876 -0.011091 -0.019890 0.000000 0.000000 0.000000
# 2 -0.011091 0.011891 -0.000194 0.000000 0.000000 0.000000
# 3 -0.019890 -0.000194 0.030788 0.000000 0.000000 0.000000
# 4 0.000000 0.000000 0.000000 0.088239 0.000000 0.000000
# 5 0.000000 0.000000 0.000000 0.000000 0.044943 0.000000
# 6 0.000000 0.000000 0.000000 0.000000 0.000000 0.029164
#
#
# Mechanical properties :
#
#
# Convention : Reuss Voigt Hill
#
# Bulk Modulus (GPa) = 65.77195 78.47177 72.12186
# Shear Modulus (GPa) = 16.26974 21.92141 19.09558
#
# Velocity S-wave (km/s) = 3.10177 3.60042 3.36036
# Velocity P-wave (km/s) = 7.19178 7.98046 7.59636
#
# Compressibility (1/GPa) = 0.01520405
#
# Stress axis : x y z
#
# Youngs Moduli (GPa) = 28.67314 84.10043 32.47980
#
# Poissons Ratio (x) = 0.93277 0.64602
# Poissons Ratio (y) = 0.31802 0.00632
# Poissons Ratio (z) = 0.57030 0.01635
#
# Static dielectric constant tensor:
#      x y z
#    x 1.561090 0.000000 0.000000 
#    y 0.000000 1.614040 0.000000 
#    z 0.000000 0.000000 1.544140 
# 
# From -- ./inp_files/29739.got.cif
#   From: 2010.05.17/outbox.cif.g08.bks.cpg/sg64_15_cif.got.tgz:29739.got - 2010.06.03 16:29:19.
