data_PCOD9477269
_publ_section_title
;
Structure prediction by ZEFSAII (Michael W. Deem and Ramdas Pophale) SiO2 
 PCOD9477269
Probable space group: C M C A
;
_chemical_formula_sum "Si O2"
_cell_formula_units_Z 104
_cell_length_a 22.424260
_cell_length_b 16.723285
_cell_length_c 14.752042
_cell_angle_alpha 90.000000
_cell_angle_beta 90.000000
_cell_angle_gamma 90.000000
_cell_volume 5532.123306
_symmetry_space_group_name_H-M "C M C A"
_symmetry_group_IT_number 64
_symmetry_cell_setting 'orthorhombic'
loop_
_space_group_symop_operation_xyz
x,y,z
-x,1/2-y,1/2+z
x,-y,-z
-x,1/2+y,1/2-z
-x,-y,-z
x,1/2+y,1/2-z
-x,y,z
x,1/2-y,1/2+z
1/2+x,1/2+y,z
1/2-x,-y,1/2+z
1/2+x,1/2-y,-z
1/2-x,y,1/2-z
1/2-x,1/2-y,-z
1/2+x,y,1/2-z
1/2-x,1/2+y,z
1/2+x,-y,1/2+z
loop_
_atom_site_type_symbol
_atom_site_label
_atom_site_fract_x
_atom_site_fract_y
_atom_site_fract_z
Si Si1 0.137513 0.022195 0.599506
Si Si2 0.500000 0.008209 0.139660
Si Si3 0.784319 0.111688 0.342811
Si Si4 0.500000 0.667436 0.618834
Si Si5 0.627296 0.260985 0.127367
Si Si6 0.000000 0.319297 0.904729
Si Si7 0.300184 0.810933 0.535973
Si Si8 0.628140 0.200418 0.832838
O O1 0.142870 0.115055 0.622272
O O2 0.159236 0.000000 0.500000
O O3 0.067684 0.997385 0.601070
O O4 0.177666 0.968901 0.665163
O O5 0.500000 0.103412 0.162034
O O6 0.500000 0.915622 0.177218
O O7 0.750000 0.128740 0.250000
O O8 0.832058 0.181041 0.366379
O O9 0.735095 0.113985 0.423112
O O10 0.500000 0.648937 0.510140
O O11 0.440789 0.714788 0.642426
O O12 0.559795 0.232085 0.109245
O O13 0.633768 0.301769 0.225064
O O14 0.652898 0.315490 0.046128
O O15 0.250000 0.750000 0.500000
O O16 0.332355 0.767535 0.620128
#
# Coordination Sequence:
#
# PCOD9477269 Si02
#       8
#    16   8  16   8  16   8  16  16
#     4  11  21  38  60  90 113 153 195 255 311 355
#     4  10  19  30  58  86 120 146 185 258 315 344
#     4  11  22  40  56  78 119 159 204 240 294 360
#     4  10  20  33  57  89 119 152 194 257 307 355
#     4  11  22  36  61  85 117 162 195 247 309 358
#     4  12  18  33  59  89 120 153 198 244 308 367
#     4  10  21  37  56  79 116 160 190 241 294 353
#     4  11  21  39  59  88 122 149 203 250 306 358
#
# _framework density 18.799291
#
# number of rings (size 3 to 8) (size 9 to 14) (size 15 to 20)
#    0.000    1.231    4.615    4.615    0.000    0.000 
#    8.308    0.000    0.000    0.000    0.000    0.000 
#    0.000    8.615    0.000    0.000    0.000    0.000 
#
# Total GULP energy -289578.950833 kJ/mol
# GULP energy per Si atom -5568.825978 kJ/mol
# Density = 1.875650 g / cm^3
# Si number density = 18.799291 Si / 1000 Ang^3
#
#
#
# Elastic Constant Matrix: (Units=GPa)
#
#
# Indices 1 2 3 4 5 6 
#
# 1 117.3215 25.8913 32.9697 0.0000 0.0000 0.0000
# 2 25.8913 34.6840 7.6946 0.0000 0.0000 0.0000
# 3 32.9697 7.6946 92.4461 0.0000 0.0000 0.0000
# 4 0.0000 0.0000 0.0000 17.2570 0.0000 0.0000
# 5 0.0000 0.0000 0.0000 0.0000 15.6401 0.0000
# 6 0.0000 0.0000 0.0000 0.0000 0.0000 8.1660
#
#
#
# Elastic Compliance Matrix: (Units=1/GPa)
#
#
# Indices 1 2 3 4 5 6 
#
# 1 0.011133 -0.007569 -0.003340 0.000000 0.000000 0.000000
# 2 -0.007569 0.034521 -0.000174 0.000000 0.000000 0.000000
# 3 -0.003340 -0.000174 0.012023 0.000000 0.000000 0.000000
# 4 0.000000 0.000000 0.000000 0.057947 0.000000 0.000000
# 5 0.000000 0.000000 0.000000 0.000000 0.063938 0.000000
# 6 0.000000 0.000000 0.000000 0.000000 0.000000 0.122459
#
#
# Mechanical properties :
#
#
# Convention : Reuss Voigt Hill
#
# Bulk Modulus (GPa) = 28.16156 41.95143 35.05650
# Shear Modulus (GPa) = 14.87986 20.07236 17.47611
#
# Velocity S-wave (km/s) = 2.81643 3.27114 3.05227
# Velocity P-wave (km/s) = 5.05856 6.05236 5.57764
#
# Compressibility (1/GPa) = 0.03550939
#
# Stress axis : x y z
#
# Youngs Moduli (GPa) = 89.82494 28.96801 83.17496
#
# Poissons Ratio (x) = 0.21927 0.27783
# Poissons Ratio (y) = 0.67993 0.01445
# Poissons Ratio (z) = 0.30004 0.00503
#
# Static dielectric constant tensor:
#      x y z
#    x 1.662260 0.000000 0.000000 
#    y 0.000000 1.657290 0.000000 
#    z 0.000000 0.000000 1.682570 
# 
# From -- ./inp_files/26597.got.cif
#   From: 2010.05.17/outbox.cif.g08.bks.cpg/sg64_14_cif.got.tgz:26597.got - 2010.06.03 16:29:19.
