data_PCOD9477488
_publ_section_title
;
Structure prediction by ZEFSAII (Michael W. Deem and Ramdas Pophale) SiO2 
 PCOD9477488
Probable space group: C M C A
;
_chemical_formula_sum "Si O2"
_cell_formula_units_Z 80
_cell_length_a 18.839529
_cell_length_b 13.373528
_cell_length_c 18.229833
_cell_angle_alpha 90.000000
_cell_angle_beta 90.000000
_cell_angle_gamma 90.000000
_cell_volume 4593.024082
_symmetry_space_group_name_H-M "C M C A"
_symmetry_group_IT_number 64
_symmetry_cell_setting 'orthorhombic'
loop_
_space_group_symop_operation_xyz
x,y,z
-x,1/2-y,1/2+z
x,-y,-z
-x,1/2+y,1/2-z
-x,-y,-z
x,1/2+y,1/2-z
-x,y,z
x,1/2-y,1/2+z
1/2+x,1/2+y,z
1/2-x,-y,1/2+z
1/2+x,1/2-y,-z
1/2-x,y,1/2-z
1/2-x,1/2-y,-z
1/2+x,y,1/2-z
1/2-x,1/2+y,z
1/2+x,-y,1/2+z
loop_
_atom_site_type_symbol
_atom_site_label
_atom_site_fract_x
_atom_site_fract_y
_atom_site_fract_z
Si Si1 0.415596 0.156995 0.836443
Si Si2 0.915595 0.623167 0.395261
Si Si3 0.914810 0.086249 0.824662
Si Si4 0.157846 0.191650 0.955627
Si Si5 0.313964 0.109190 0.967194
O O1 0.500000 0.137096 0.845899
O O2 0.405821 0.276498 0.847270
O O3 0.392553 0.117491 0.756949
O O4 0.368969 0.108248 0.900240
O O5 0.892374 0.524191 0.351873
O O6 0.874106 0.638329 0.471561
O O7 0.000000 0.614494 0.411668
O O8 0.887258 0.163080 0.885203
O O9 0.000000 0.086950 0.824527
O O10 0.237677 0.152757 0.943494
O O11 0.158482 0.309111 0.974058
O O12 0.305438 0.000000 0.000000
#
# Coordination Sequence:
#
# PCOD9477488 Si02
#       5
#    16  16  16  16  16
#     4   9  20  35  49  74 106 131 165 209 249 295
#     4   9  17  32  53  75 102 132 164 210 254 286
#     4  10  19  32  54  78 100 132 169 206 251 297
#     4  10  20  34  53  77 101 128 170 211 243 295
#     4  10  21  36  53  73 101 136 167 202 250 298
#
# _framework density 17.417718000000001
#
# number of rings (size 3 to 8) (size 9 to 14) (size 15 to 20)
#    0.000    2.400    0.000    2.400    0.000    5.200 
#    0.000    2.000    0.000    7.200    0.000    0.000 
#    0.000    0.000    0.000    0.000    0.000    0.000 
#
# Total GULP energy -223127.265911 kJ/mol
# GULP energy per Si atom -5578.181648 kJ/mol
# Density = 1.737807 g / cm^3
# Si number density = 17.417718 Si / 1000 Ang^3
#
#
#
# Elastic Constant Matrix: (Units=GPa)
#
#
# Indices 1 2 3 4 5 6 
#
# 1 22.7983 13.1693 25.0750 0.0000 0.0000 0.0000
# 2 13.1693 68.0665 37.4544 0.0000 0.0000 0.0000
# 3 25.0750 37.4544 79.4470 0.0000 0.0000 0.0000
# 4 0.0000 0.0000 0.0000 14.2913 0.0000 0.0000
# 5 0.0000 0.0000 0.0000 0.0000 -1.5634 0.0000
# 6 0.0000 0.0000 0.0000 0.0000 0.0000 21.1986
#
#
#
# Elastic Compliance Matrix: (Units=1/GPa)
#
#
# Indices 1 2 3 4 5 6 
#
# 1 0.067349 -0.001801 -0.020407 0.000000 0.000000 0.000000
# 2 -0.001801 0.019886 -0.008807 0.000000 0.000000 0.000000
# 3 -0.020407 -0.008807 0.023180 0.000000 0.000000 0.000000
# 4 0.000000 0.000000 0.000000 0.069972 0.000000 0.000000
# 5 0.000000 0.000000 0.000000 0.000000 -0.639633 0.000000
# 6 0.000000 0.000000 0.000000 0.000000 0.000000 0.047173
#
#
# Mechanical properties :
#
#
# Convention : Reuss Voigt Hill
#
# Bulk Modulus (GPa) = 20.66786 35.74547 28.20666
# Shear Modulus (GPa) = -14.97388 13.09286 -0.94051
#
# Velocity S-wave (km/s) = -2.93523 2.74468 -0.73563
# Velocity P-wave (km/s) = 0.63585 5.53276 3.93800
#
# Compressibility (1/GPa) = 0.04838431
#
# Stress axis : x y z
#
# Youngs Moduli (GPa) = 14.84810 50.28698 43.14109
#
# Poissons Ratio (x) = 0.09057 0.88040
# Poissons Ratio (y) = 0.02674 0.37992
# Poissons Ratio (z) = 0.30301 0.44286
#
# Static dielectric constant tensor:
#      x y z
#    x 1.588210 0.000000 0.000000 
#    y 0.000000 1.593890 0.000000 
#    z 0.000000 0.000000 1.557130 
# 
# From -- ./inp_files/26131.got.cif
#   From: 2010.05.17/outbox.cif.g08.bks.cpg/sg64_14_cif.got.tgz:26131.got - 2010.06.03 16:29:19.
