data_PCOD9477724
_publ_section_title
;
Structure prediction by ZEFSAII (Michael W. Deem and Ramdas Pophale) SiO2 
 PCOD9477724
Probable space group: C M C A
;
_chemical_formula_sum "Si O2"
_cell_formula_units_Z 112
_cell_length_a 11.627813
_cell_length_b 16.889700
_cell_length_c 28.749834
_cell_angle_alpha 90.000000
_cell_angle_beta 90.000000
_cell_angle_gamma 90.000000
_cell_volume 5646.187754
_symmetry_space_group_name_H-M "C M C A"
_symmetry_group_IT_number 64
_symmetry_cell_setting 'orthorhombic'
loop_
_space_group_symop_operation_xyz
x,y,z
-x,1/2-y,1/2+z
x,-y,-z
-x,1/2+y,1/2-z
-x,-y,-z
x,1/2+y,1/2-z
-x,y,z
x,1/2-y,1/2+z
1/2+x,1/2+y,z
1/2-x,-y,1/2+z
1/2+x,1/2-y,-z
1/2-x,y,1/2-z
1/2-x,1/2-y,-z
1/2+x,y,1/2-z
1/2-x,1/2+y,z
1/2+x,-y,1/2+z
loop_
_atom_site_type_symbol
_atom_site_label
_atom_site_fract_x
_atom_site_fract_y
_atom_site_fract_z
Si Si1 0.793625 0.869558 0.202113
Si Si2 0.868251 0.945965 0.372719
Si Si3 0.211959 0.669848 0.950114
Si Si4 0.870364 0.248222 0.873796
Si Si5 0.872002 0.544382 0.275892
Si Si6 0.373587 0.156757 0.469559
Si Si7 0.288995 0.899549 0.628038
O O1 0.750000 0.832153 0.250000
O O2 0.685933 0.897614 0.170450
O O3 0.863935 0.810365 0.170018
O O4 0.860744 0.949784 0.215673
O O5 0.855999 0.891759 0.418482
O O6 0.000000 0.966033 0.363939
O O7 0.790517 0.023456 0.377992
O O8 0.315306 0.702497 0.917554
O O9 0.140089 0.748036 0.963392
O O10 0.271145 0.633532 0.995669
O O11 0.791354 0.323625 0.864327
O O12 0.000000 0.272081 0.883832
O O13 0.750000 0.565189 0.250000
O O14 0.864303 0.585362 0.326270
O O15 0.000000 0.560922 0.255008
O O16 0.500000 0.138039 0.488171
O O17 0.357326 0.117525 0.419252
#
# Coordination Sequence:
#
# PCOD9477724 Si02
#       7
#    16  16  16  16  16  16  16
#     4   9  20  35  56  83 106 139 187 231 273 326
#     4  10  20  37  56  77 112 150 186 228 276 333
#     4   9  20  35  55  82 103 138 188 225 271 331
#     4  10  19  34  54  78 111 143 177 225 276 326
#     4  10  21  38  59  82 111 147 187 230 278 334
#     4  10  19  36  58  78 107 139 176 229 281 330
#     4  10  22  35  53  83 112 144 184 222 275 337
#
# _framework density 19.836393000000001
#
# number of rings (size 3 to 8) (size 9 to 14) (size 15 to 20)
#    0.000    2.286    0.000    2.143    0.000    7.429 
#    0.000    6.429    0.000    0.000    0.000    0.000 
#    0.000    0.000    0.000    0.000    0.000    0.000 
#
# Total GULP energy -312510.889586 kJ/mol
# GULP energy per Si atom -5580.551600 kJ/mol
# Density = 1.979124 g / cm^3
# Si number density = 19.836393 Si / 1000 Ang^3
#
#
#
# Elastic Constant Matrix: (Units=GPa)
#
#
# Indices 1 2 3 4 5 6 
#
# 1 111.0834 2.9500 12.5670 0.0000 0.0000 0.0000
# 2 2.9500 29.1386 6.0789 0.0000 0.0000 0.0000
# 3 12.5670 6.0789 78.5624 0.0000 0.0000 0.0000
# 4 0.0000 0.0000 0.0000 25.9478 0.0000 0.0000
# 5 0.0000 0.0000 0.0000 0.0000 6.2961 0.0000
# 6 0.0000 0.0000 0.0000 0.0000 0.0000 0.2850
#
#
#
# Elastic Compliance Matrix: (Units=1/GPa)
#
#
# Indices 1 2 3 4 5 6 
#
# 1 0.009180 -0.000633 -0.001419 0.000000 0.000000 0.000000
# 2 -0.000633 0.034926 -0.002601 0.000000 0.000000 0.000000
# 3 -0.001419 -0.002601 0.013157 0.000000 0.000000 0.000000
# 4 0.000000 0.000000 0.000000 0.038539 0.000000 0.000000
# 5 0.000000 0.000000 0.000000 0.000000 0.158828 0.000000
# 6 0.000000 0.000000 0.000000 0.000000 0.000000 3.508948
#
#
# Mechanical properties :
#
#
# Convention : Reuss Voigt Hill
#
# Bulk Modulus (GPa) = 20.85301 29.10848 24.98074
# Shear Modulus (GPa) = 1.31965 19.65167 10.48566
#
# Velocity S-wave (km/s) = 0.81653 3.15093 2.30164
# Velocity P-wave (km/s) = 3.37998 5.28621 4.43668
#
# Compressibility (1/GPa) = 0.04795470
#
# Stress axis : x y z
#
# Youngs Moduli (GPa) = 108.93675 28.63233 76.00491
#
# Poissons Ratio (x) = 0.01813 0.10788
# Poissons Ratio (y) = 0.06898 0.19770
# Poissons Ratio (z) = 0.15462 0.07448
#
# Static dielectric constant tensor:
#      x y z
#    x 1.690860 0.000000 0.000000 
#    y 0.000000 1.672220 0.000000 
#    z 0.000000 0.000000 1.713480 
# 
# From -- ./inp_files/52825.got.cif
#   From: 2010.05.17/outbox.cif.g08.bks.cpg/sg64_27_cif.got.tgz:52825.got - 2010.06.03 16:29:19.
