data_PCOD9477127
_publ_section_title
;
Structure prediction by ZEFSAII (Michael W. Deem and Ramdas Pophale) SiO2 
 PCOD9477127
Probable space group: C M C A
;
_chemical_formula_sum "Si O2"
_cell_formula_units_Z 88
_cell_length_a 14.517189
_cell_length_b 15.538266
_cell_length_c 20.571813
_cell_angle_alpha 90.000000
_cell_angle_beta 90.000000
_cell_angle_gamma 90.000000
_cell_volume 4640.423855
_symmetry_space_group_name_H-M "C M C A"
_symmetry_group_IT_number 64
_symmetry_cell_setting 'orthorhombic'
loop_
_space_group_symop_operation_xyz
x,y,z
-x,1/2-y,1/2+z
x,-y,-z
-x,1/2+y,1/2-z
-x,-y,-z
x,1/2+y,1/2-z
-x,y,z
x,1/2-y,1/2+z
1/2+x,1/2+y,z
1/2-x,-y,1/2+z
1/2+x,1/2-y,-z
1/2-x,y,1/2-z
1/2-x,1/2-y,-z
1/2+x,y,1/2-z
1/2-x,1/2+y,z
1/2+x,-y,1/2+z
loop_
_atom_site_type_symbol
_atom_site_label
_atom_site_fract_x
_atom_site_fract_y
_atom_site_fract_z
Si Si1 0.500000 0.349461 0.049406
Si Si2 0.140028 0.520602 0.610609
Si Si3 0.000000 0.900568 0.443064
Si Si4 0.642747 0.904134 0.247668
Si Si5 0.643958 0.981730 0.878989
Si Si6 0.500000 0.658944 0.409425
Si Si7 0.000000 0.285369 0.185728
Si Si8 0.000000 0.370065 0.598104
O O1 0.409748 0.408524 0.064580
O O2 0.500000 0.262644 0.092921
O O3 0.500000 0.326626 0.972990
O O4 0.118943 0.557084 0.682594
O O5 0.248264 0.497419 0.606144
O O6 0.087349 0.432126 0.600084
O O7 0.000000 0.833636 0.383901
O O8 0.000000 0.862263 0.513936
O O9 0.088001 0.960164 0.429910
O O10 0.750000 0.882702 0.250000
O O11 0.586041 0.820728 0.226294
O O12 0.627253 0.975972 0.191975
O O13 0.591892 0.889255 0.881660
O O14 0.000000 0.188276 0.162285
#
# Coordination Sequence:
#
# PCOD9477127 Si02
#       8
#     8  16   8  16  16   8   8   8
#     4  11  24  40  56  85 132 156 201 251 290 352
#     4  10  21  42  60  85 118 164 197 237 308 363
#     4   9  18  34  59  82 120 151 193 241 296 345
#     4   9  19  39  63  85 115 149 192 248 304 355
#     4   9  19  37  64  85 116 154 197 246 303 357
#     4  11  21  37  56  95 119 150 207 253 282 346
#     4  10  18  37  59  86 112 155 190 243 298 339
#     4  11  23  38  58  82 120 164 201 237 292 368
#
# _framework density 18.963785000000001
#
# number of rings (size 3 to 8) (size 9 to 14) (size 15 to 20)
#    0.000    2.182    0.909    3.818    0.000    2.909 
#   16.364    2.727    0.000    0.000    0.000    0.000 
#    0.000    0.000    0.000    0.000    0.000    0.000 
#
# Total GULP energy -245208.876668 kJ/mol
# GULP energy per Si atom -5572.929015 kJ/mol
# Density = 1.892062 g / cm^3
# Si number density = 18.963785 Si / 1000 Ang^3
#
#
#
# Elastic Constant Matrix: (Units=GPa)
#
#
# Indices 1 2 3 4 5 6 
#
# 1 130.9745 56.1106 38.6541 0.0000 0.0000 0.0000
# 2 56.1106 113.5289 18.1643 0.0000 0.0000 0.0000
# 3 38.6541 18.1643 89.5695 0.0000 0.0000 0.0000
# 4 0.0000 0.0000 0.0000 22.8634 0.0000 0.0000
# 5 0.0000 0.0000 0.0000 0.0000 17.6315 0.0000
# 6 0.0000 0.0000 0.0000 0.0000 0.0000 7.6218
#
#
#
# Elastic Compliance Matrix: (Units=1/GPa)
#
#
# Indices 1 2 3 4 5 6 
#
# 1 0.010743 -0.004721 -0.003679 0.000000 0.000000 0.000000
# 2 -0.004721 0.011178 -0.000229 0.000000 0.000000 0.000000
# 3 -0.003679 -0.000229 0.012799 0.000000 0.000000 0.000000
# 4 0.000000 0.000000 0.000000 0.043738 0.000000 0.000000
# 5 0.000000 0.000000 0.000000 0.000000 0.056717 0.000000
# 6 0.000000 0.000000 0.000000 0.000000 0.000000 0.131203
#
#
# Mechanical properties :
#
#
# Convention : Reuss Voigt Hill
#
# Bulk Modulus (GPa) = 57.26936 62.21456 59.74196
# Shear Modulus (GPa) = 17.27366 24.36626 20.81996
#
# Velocity S-wave (km/s) = 3.02135 3.58842 3.31702
# Velocity P-wave (km/s) = 6.51431 7.07441 6.80013
#
# Compressibility (1/GPa) = 0.01746134
#
# Stress axis : x y z
#
# Youngs Moduli (GPa) = 93.08000 89.45772 78.13282
#
# Poissons Ratio (x) = 0.42235 0.28745
# Poissons Ratio (y) = 0.43945 0.01793
# Poissons Ratio (z) = 0.34244 0.02053
#
# Static dielectric constant tensor:
#      x y z
#    x 1.683080 0.000000 0.000000 
#    y 0.000000 1.677290 0.000000 
#    z 0.000000 0.000000 1.673680 
# 
# From -- ./inp_files/39127.got.cif
#   From: 2010.05.17/outbox.cif.g08.bks.cpg/sg64_20_cif.got.tgz:39127.got - 2010.06.03 16:29:19.
