data_PCOD9477679
_publ_section_title
;
Structure prediction by ZEFSAII (Michael W. Deem and Ramdas Pophale) SiO2 
 PCOD9477679
Probable space group: C M C A
;
_chemical_formula_sum "Si O2"
_cell_formula_units_Z 96
_cell_length_a 8.635839
_cell_length_b 30.355088
_cell_length_c 19.122715
_cell_angle_alpha 90.000000
_cell_angle_beta 90.000000
_cell_angle_gamma 90.000000
_cell_volume 5012.860116
_symmetry_space_group_name_H-M "C M C A"
_symmetry_group_IT_number 64
_symmetry_cell_setting 'orthorhombic'
loop_
_space_group_symop_operation_xyz
x,y,z
-x,1/2-y,1/2+z
x,-y,-z
-x,1/2+y,1/2-z
-x,-y,-z
x,1/2+y,1/2-z
-x,y,z
x,1/2-y,1/2+z
1/2+x,1/2+y,z
1/2-x,-y,1/2+z
1/2+x,1/2-y,-z
1/2-x,y,1/2-z
1/2-x,1/2-y,-z
1/2+x,y,1/2-z
1/2-x,1/2+y,z
1/2+x,-y,1/2+z
loop_
_atom_site_type_symbol
_atom_site_label
_atom_site_fract_x
_atom_site_fract_y
_atom_site_fract_z
Si Si1 0.315541 0.526361 0.597607
Si Si2 0.684642 0.560444 0.049272
Si Si3 0.313311 0.660598 0.080082
Si Si4 0.685155 0.112320 0.825253
Si Si5 0.814927 0.765923 0.673068
Si Si6 0.313112 0.686346 0.926080
O O1 0.500000 0.519718 0.598014
O O2 0.267550 0.548708 0.523805
O O3 0.231707 0.479392 0.600314
O O4 0.272716 0.561937 0.656218
O O5 0.500000 0.559769 0.037336
O O6 0.727946 0.608984 0.075481
O O7 0.500000 0.663524 0.084726
O O8 0.240210 0.687224 0.143585
O O9 0.262558 0.682908 0.006589
O O10 0.500000 0.116055 0.825974
O O11 0.750000 0.125216 0.750000
O O12 0.754323 0.143913 0.884247
O O13 0.750000 0.756938 0.750000
O O14 0.760492 0.729050 0.617209
O O15 0.000000 0.764385 0.675911
O O16 0.500000 0.685789 0.926230
#
# Coordination Sequence:
#
# PCOD9477679 Si02
#       6
#    16  16  16  16  16  16
#     4  10  20  34  53  81 115 149 189 234 279 336
#     4  10  19  33  58  85 111 147 185 231 285 336
#     4  10  21  38  61  89 118 149 192 241 288 344
#     4  11  23  36  55  83 117 157 195 239 293 346
#     4  11  24  40  60  84 115 155 194 238 292 346
#     4  10  21  39  61  87 117 150 191 240 290 346
#
# _framework density 19.150745000000001
#
# number of rings (size 3 to 8) (size 9 to 14) (size 15 to 20)
#    0.000    1.667    1.667    4.000    0.000    6.667 
#    0.000    0.833    0.000    2.000    0.000    0.000 
#    0.000    0.000    0.000    0.000    0.000    0.000 
#
# Total GULP energy -268148.769678 kJ/mol
# GULP energy per Si atom -5586.432702 kJ/mol
# Density = 1.910716 g / cm^3
# Si number density = 19.150745 Si / 1000 Ang^3
#
#
#
# Elastic Constant Matrix: (Units=GPa)
#
#
# Indices 1 2 3 4 5 6 
#
# 1 10.7846 14.0573 3.7294 0.0000 0.0000 0.0000
# 2 14.0573 107.3141 12.7944 0.0000 0.0000 0.0000
# 3 3.7294 12.7944 36.4176 0.0000 0.0000 0.0000
# 4 0.0000 0.0000 0.0000 18.9543 0.0000 0.0000
# 5 0.0000 0.0000 0.0000 0.0000 19.7393 0.0000
# 6 0.0000 0.0000 0.0000 0.0000 0.0000 27.0152
#
#
#
# Elastic Compliance Matrix: (Units=1/GPa)
#
#
# Indices 1 2 3 4 5 6 
#
# 1 0.113348 -0.014052 -0.006671 0.000000 0.000000 0.000000
# 2 -0.014052 0.011468 -0.002590 0.000000 0.000000 0.000000
# 3 -0.006671 -0.002590 0.029052 0.000000 0.000000 0.000000
# 4 0.000000 0.000000 0.000000 0.052758 0.000000 0.000000
# 5 0.000000 0.000000 0.000000 0.000000 0.050660 0.000000
# 6 0.000000 0.000000 0.000000 0.000000 0.000000 0.037016
#
#
# Mechanical properties :
#
#
# Convention : Reuss Voigt Hill
#
# Bulk Modulus (GPa) = 9.32468 23.96427 16.64448
# Shear Modulus (GPa) = 13.27398 21.40410 17.33904
#
# Velocity S-wave (km/s) = 2.63559 3.34678 3.01225
# Velocity P-wave (km/s) = 3.76052 5.24168 4.56162
#
# Compressibility (1/GPa) = 0.10724223
#
# Stress axis : x y z
#
# Youngs Moduli (GPa) = 8.82239 87.19943 34.42066
#
# Poissons Ratio (x) = 1.22536 0.22961
# Poissons Ratio (y) = 0.12398 0.08915
# Poissons Ratio (z) = 0.05885 0.22584
#
# Static dielectric constant tensor:
#      x y z
#    x 1.641830 0.000000 0.000000 
#    y 0.000000 1.684880 0.000000 
#    z 0.000000 0.000000 1.638030 
# 
# From -- ./inp_files/37001.got.cif
#   From: 2010.05.17/outbox.cif.g08.bks.cpg/sg64_19_cif.got.tgz:37001.got - 2010.06.03 16:29:19.
