data_PCOD9477211
_publ_section_title
;
Structure prediction by ZEFSAII (Michael W. Deem and Ramdas Pophale) SiO2 
 PCOD9477211
Probable space group: C M C A
;
_chemical_formula_sum "Si O2"
_cell_formula_units_Z 96
_cell_length_a 13.998831
_cell_length_b 18.731052
_cell_length_c 22.285119
_cell_angle_alpha 90.000000
_cell_angle_beta 90.000000
_cell_angle_gamma 90.000000
_cell_volume 5843.444151
_symmetry_space_group_name_H-M "C M C A"
_symmetry_group_IT_number 64
_symmetry_cell_setting 'orthorhombic'
loop_
_space_group_symop_operation_xyz
x,y,z
-x,1/2-y,1/2+z
x,-y,-z
-x,1/2+y,1/2-z
-x,-y,-z
x,1/2+y,1/2-z
-x,y,z
x,1/2-y,1/2+z
1/2+x,1/2+y,z
1/2-x,-y,1/2+z
1/2+x,1/2-y,-z
1/2-x,y,1/2-z
1/2-x,1/2-y,-z
1/2+x,y,1/2-z
1/2-x,1/2+y,z
1/2+x,-y,1/2+z
loop_
_atom_site_type_symbol
_atom_site_label
_atom_site_fract_x
_atom_site_fract_y
_atom_site_fract_z
Si Si1 0.696144 0.884612 0.658992
Si Si2 0.113460 0.068033 0.286774
Si Si3 0.114654 0.500332 0.429419
Si Si4 0.271474 0.231844 0.820439
Si Si5 0.611132 0.902785 0.215219
Si Si6 0.888307 0.138834 0.854637
O O1 0.809564 0.890135 0.673316
O O2 0.639970 0.912954 0.717998
O O3 0.665988 0.935117 0.604804
O O4 0.676862 0.800464 0.652417
O O5 0.000000 0.079979 0.296649
O O6 0.136636 0.984446 0.297481
O O7 0.134606 0.500000 0.500000
O O8 0.141186 0.424658 0.399081
O O9 0.000000 0.508347 0.420696
O O10 0.250000 0.249339 0.750000
O O11 0.331465 0.158769 0.818055
O O12 0.175755 0.209437 0.855238
O O13 0.500000 0.893885 0.201721
O O14 0.623407 0.890701 0.286607
O O15 0.000000 0.154197 0.864022
#
# Coordination Sequence:
#
# PCOD9477211 Si02
#       6
#    16  16  16  16  16  16
#     4  11  20  32  48  77 106 132 166 208 257 299
#     4  10  19  31  49  73 103 134 166 205 252 304
#     4  10  20  35  56  77  97 131 178 221 256 291
#     4  10  19  30  44  74 106 133 158 194 253 314
#     4   9  17  28  45  67  95 133 161 189 242 299
#     4   9  17  30  48  68  95 131 167 202 241 295
#
# _framework density 16.428667999999998
#
# number of rings (size 3 to 8) (size 9 to 14) (size 15 to 20)
#    0.000    2.167    3.333    1.500    4.667    2.000 
#    0.000    0.833    0.000    0.500    0.000    0.000 
#    0.000    0.000    0.000    0.000    0.000    0.000 
#
# Total GULP energy -267568.431316 kJ/mol
# GULP energy per Si atom -5574.342319 kJ/mol
# Density = 1.639128 g / cm^3
# Si number density = 16.428668 Si / 1000 Ang^3
#
#
#
# Elastic Constant Matrix: (Units=GPa)
#
#
# Indices 1 2 3 4 5 6 
#
# 1 56.0352 38.4695 26.2144 0.0000 0.0000 0.0000
# 2 38.4695 107.6489 35.3373 0.0000 0.0000 0.0000
# 3 26.2144 35.3373 57.4729 0.0000 0.0000 0.0000
# 4 0.0000 0.0000 0.0000 7.6002 0.0000 0.0000
# 5 0.0000 0.0000 0.0000 0.0000 13.4971 0.0000
# 6 0.0000 0.0000 0.0000 0.0000 0.0000 10.0096
#
#
#
# Elastic Compliance Matrix: (Units=1/GPa)
#
#
# Indices 1 2 3 4 5 6 
#
# 1 0.026134 -0.006799 -0.007740 0.000000 0.000000 0.000000
# 2 -0.006799 0.013407 -0.005142 0.000000 0.000000 0.000000
# 3 -0.007740 -0.005142 0.024092 0.000000 0.000000 0.000000
# 4 0.000000 0.000000 0.000000 0.131575 0.000000 0.000000
# 5 0.000000 0.000000 0.000000 0.000000 0.074090 0.000000
# 6 0.000000 0.000000 0.000000 0.000000 0.000000 0.099904
#
#
# Mechanical properties :
#
#
# Convention : Reuss Voigt Hill
#
# Bulk Modulus (GPa) = 41.20178 46.79992 44.00085
# Shear Modulus (GPa) = 12.00035 14.29712 13.14873
#
# Velocity S-wave (km/s) = 2.70562 2.95321 2.83212
# Velocity P-wave (km/s) = 5.90713 6.33855 6.12663
#
# Compressibility (1/GPa) = 0.02427080
#
# Stress axis : x y z
#
# Youngs Moduli (GPa) = 38.26391 74.58750 41.50792
#
# Poissons Ratio (x) = 0.50708 0.32128
# Poissons Ratio (y) = 0.26014 0.21345
# Poissons Ratio (z) = 0.29617 0.38356
#
# Static dielectric constant tensor:
#      x y z
#    x 1.599380 0.000000 0.000000 
#    y 0.000000 1.569610 0.000000 
#    z 0.000000 0.000000 1.521300 
# 
# From -- ./inp_files/39536.got.cif
#   From: 2010.05.17/outbox.cif.g08.bks.cpg/sg64_20_cif.got.tgz:39536.got - 2010.06.03 16:29:19.
