data_PCOD9477166
_publ_section_title
;
Structure prediction by ZEFSAII (Michael W. Deem and Ramdas Pophale) SiO2 
 PCOD9477166
Probable space group: C M C A
;
_chemical_formula_sum "Si O2"
_cell_formula_units_Z 80
_cell_length_a 19.250033
_cell_length_b 16.387267
_cell_length_c 11.733475
_cell_angle_alpha 90.000000
_cell_angle_beta 90.000000
_cell_angle_gamma 90.000000
_cell_volume 3701.388408
_symmetry_space_group_name_H-M "C M C A"
_symmetry_group_IT_number 64
_symmetry_cell_setting 'orthorhombic'
loop_
_space_group_symop_operation_xyz
x,y,z
-x,1/2-y,1/2+z
x,-y,-z
-x,1/2+y,1/2-z
-x,-y,-z
x,1/2+y,1/2-z
-x,y,z
x,1/2-y,1/2+z
1/2+x,1/2+y,z
1/2-x,-y,1/2+z
1/2+x,1/2-y,-z
1/2-x,y,1/2-z
1/2-x,1/2-y,-z
1/2+x,y,1/2-z
1/2-x,1/2+y,z
1/2+x,-y,1/2+z
loop_
_atom_site_type_symbol
_atom_site_label
_atom_site_fract_x
_atom_site_fract_y
_atom_site_fract_z
Si Si1 0.500000 0.029777 0.701996
Si Si2 0.250000 0.422668 0.750000
Si Si3 0.000000 0.837285 0.392356
Si Si4 0.865060 0.467671 0.608739
Si Si5 0.843718 0.207692 0.347233
Si Si6 0.134687 0.274422 0.593788
Si Si7 0.500000 0.369871 0.639033
O O1 0.500000 0.108993 0.779646
O O2 0.432327 0.022111 0.625266
O O3 0.500000 0.948761 0.780946
O O4 0.186051 0.476514 0.712852
O O5 0.213844 0.364974 0.845522
O O6 0.065689 0.778994 0.400940
O O7 0.000000 0.892467 0.505683
O O8 0.825452 0.500000 0.500000
O O9 0.879753 0.371490 0.598569
O O10 0.831760 0.244821 0.219226
O O11 0.834838 0.254932 0.467251
O O12 0.925848 0.177781 0.342640
#
# Coordination Sequence:
#
# PCOD9477166 Si02
#       7
#     8   8   8  16  16  16   8
#     4  12  21  41  66  95 129 170 218 279 335 393
#     4  10  22  46  62  90 138 174 226 270 344 384
#     4  10  23  34  66 103 124 166 223 270 329 402
#     4  11  25  44  65  99 133 177 217 280 333 400
#     4  10  21  38  69  91 131 181 215 281 326 397
#     4  10  21  41  64  94 135 167 223 271 331 385
#     4  10  18  41  59  92 131 165 219 272 338 379
#
# _framework density 21.613510999999999
#
# number of rings (size 3 to 8) (size 9 to 14) (size 15 to 20)
#    0.000    1.600    4.000    1.800    2.800    3.200 
#    7.200    1.000    0.000    0.000    0.000    0.000 
#    0.000    0.000    0.000    0.000    0.000    0.000 
#
# Total GULP energy -222718.449795 kJ/mol
# GULP energy per Si atom -5567.961245 kJ/mol
# Density = 2.156432 g / cm^3
# Si number density = 21.613511 Si / 1000 Ang^3
#
#
#
# Elastic Constant Matrix: (Units=GPa)
#
#
# Indices 1 2 3 4 5 6 
#
# 1 80.5016 -0.0005 6.6682 0.0000 0.0000 0.0000
# 2 -0.0005 26.2555 21.3270 0.0000 0.0000 0.0000
# 3 6.6682 21.3270 142.3424 0.0000 0.0000 0.0000
# 4 0.0000 0.0000 0.0000 47.7230 0.0000 0.0000
# 5 0.0000 0.0000 0.0000 0.0000 11.4558 0.0000
# 6 0.0000 0.0000 0.0000 0.0000 0.0000 151.6867
#
#
#
# Elastic Compliance Matrix: (Units=1/GPa)
#
#
# Indices 1 2 3 4 5 6 
#
# 1 0.012477 0.000541 -0.000666 0.000000 0.000000 0.000000
# 2 0.000541 0.043388 -0.006526 0.000000 0.000000 0.000000
# 3 -0.000666 -0.006526 0.008034 0.000000 0.000000 0.000000
# 4 0.000000 0.000000 0.000000 0.020954 0.000000 0.000000
# 5 0.000000 0.000000 0.000000 0.000000 0.087292 0.000000
# 6 0.000000 0.000000 0.000000 0.000000 0.000000 0.006593
#
#
# Mechanical properties :
#
#
# Convention : Reuss Voigt Hill
#
# Bulk Modulus (GPa) = 19.76356 33.89878 26.83117
# Shear Modulus (GPa) = 23.93410 56.91341 40.42376
#
# Velocity S-wave (km/s) = 3.33132 5.13707 4.32939
# Velocity P-wave (km/s) = 4.89499 7.13471 6.11821
#
# Compressibility (1/GPa) = 0.05059817
#
# Stress axis : x y z
#
# Youngs Moduli (GPa) = 80.14586 23.04765 124.46633
#
# Poissons Ratio (x) = -0.01247 0.08284
# Poissons Ratio (y) = -0.04335 0.81229
# Poissons Ratio (z) = 0.05334 0.15041
#
# Static dielectric constant tensor:
#      x y z
#    x 1.885830 0.000000 0.000000 
#    y 0.000000 1.763520 0.000000 
#    z 0.000000 0.000000 1.815460 
# 
# From -- ./inp_files/18156.got.cif
#   From: 2010.05.17/outbox.cif.g08.bks.cpg/sg64_10_cif.got.tgz:18156.got - 2010.06.03 16:29:19.
