data_PCOD9477970
_publ_section_title
;
Structure prediction by ZEFSAII (Michael W. Deem and Ramdas Pophale) SiO2 
 PCOD9477970
Probable space group: C M C A
;
_chemical_formula_sum "Si O2"
_cell_formula_units_Z 56
_cell_length_a 15.784719
_cell_length_b 18.164686
_cell_length_c 9.732742
_cell_angle_alpha 90.000000
_cell_angle_beta 90.000000
_cell_angle_gamma 90.000000
_cell_volume 2790.615235
_symmetry_space_group_name_H-M "C M C A"
_symmetry_group_IT_number 64
_symmetry_cell_setting 'orthorhombic'
loop_
_space_group_symop_operation_xyz
x,y,z
-x,1/2-y,1/2+z
x,-y,-z
-x,1/2+y,1/2-z
-x,-y,-z
x,1/2+y,1/2-z
-x,y,z
x,1/2-y,1/2+z
1/2+x,1/2+y,z
1/2-x,-y,1/2+z
1/2+x,1/2-y,-z
1/2-x,y,1/2-z
1/2-x,1/2-y,-z
1/2+x,y,1/2-z
1/2-x,1/2+y,z
1/2+x,-y,1/2+z
loop_
_atom_site_type_symbol
_atom_site_label
_atom_site_fract_x
_atom_site_fract_y
_atom_site_fract_z
Si Si1 0.092170 0.980491 0.660164
Si Si2 0.825540 0.698762 0.555825
Si Si3 0.250000 0.576569 0.750000
Si Si4 0.147396 0.323584 0.743753
O O1 0.169909 0.025534 0.720837
O O2 0.000000 0.001580 0.718455
O O3 0.091629 0.000000 0.500000
O O4 0.106567 0.894015 0.684760
O O5 0.750000 0.750000 0.500000
O O6 0.779958 0.629419 0.626071
O O7 0.870490 0.748142 0.673005
O O8 0.876438 0.679997 0.417433
O O9 0.250000 0.334158 0.750000
#
# Coordination Sequence:
#
# PCOD9477970 Si02
#       4
#    16  16   8  16
#     4  11  25  42  64  97 134 173 215 262 327 394
#     4  10  19  35  65  96 120 167 221 259 321 382
#     4  12  22  38  70  92 132 172 212 272 324 384
#     4  10  19  38  62  93 125 164 216 266 316 385
#
# _framework density 20.067260000000001
#
# number of rings (size 3 to 8) (size 9 to 14) (size 15 to 20)
#    0.000    1.429    5.714    3.429    0.000    0.000 
#    0.000    5.714    0.000    1.714    0.000    0.000 
#    0.000    0.000    0.000    0.000    0.000    0.000 
#
# Total GULP energy -156231.130754 kJ/mol
# GULP energy per Si atom -5579.683241 kJ/mol
# Density = 2.002159 g / cm^3
# Si number density = 20.067260 Si / 1000 Ang^3
#
#
#
# Elastic Constant Matrix: (Units=GPa)
#
#
# Indices 1 2 3 4 5 6 
#
# 1 106.9892 49.7889 28.6432 0.0000 0.0000 0.0000
# 2 49.7889 89.5445 20.5293 0.0000 0.0000 0.0000
# 3 28.6432 20.5293 93.8488 0.0000 0.0000 0.0000
# 4 0.0000 0.0000 0.0000 44.6317 0.0000 0.0000
# 5 0.0000 0.0000 0.0000 0.0000 7.7994 0.0000
# 6 0.0000 0.0000 0.0000 0.0000 0.0000 -5.3501
#
#
#
# Elastic Compliance Matrix: (Units=1/GPa)
#
#
# Indices 1 2 3 4 5 6 
#
# 1 0.013162 -0.006735 -0.002544 0.000000 0.000000 0.000000
# 2 -0.006735 0.015204 -0.001270 0.000000 0.000000 0.000000
# 3 -0.002544 -0.001270 0.011710 0.000000 0.000000 0.000000
# 4 0.000000 0.000000 0.000000 0.022406 0.000000 0.000000
# 5 0.000000 0.000000 0.000000 0.000000 0.128215 0.000000
# 6 0.000000 0.000000 0.000000 0.000000 0.000000 -0.186911
#
#
# Mechanical properties :
#
#
# Convention : Reuss Voigt Hill
#
# Bulk Modulus (GPa) = 52.69510 54.25614 53.47562
# Shear Modulus (GPa) = 160.20796 22.17759 91.19278
#
# Velocity S-wave (km/s) = 8.94476 3.32801 6.74850
# Velocity P-wave (km/s) = 11.53233 6.47019 9.35035
#
# Compressibility (1/GPa) = 0.01897709
#
# Stress axis : x y z
#
# Youngs Moduli (GPa) = 75.97567 65.77306 85.39940
#
# Poissons Ratio (x) = 0.44300 0.21724
# Poissons Ratio (y) = 0.51171 0.10847
# Poissons Ratio (z) = 0.19327 0.08354
#
# Static dielectric constant tensor:
#      x y z
#    x 1.716190 0.000000 0.000000 
#    y 0.000000 1.644050 0.000000 
#    z 0.000000 0.000000 1.794490 
# 
# From -- ./inp_files/6435.got.cif
#   From: 2010.05.17/outbox.cif.g08.bks.cpg/sg64_4_cif.got.tgz:6435.got - 2010.06.03 16:29:19.
