data_PCOD9477473
_publ_section_title
;
Structure prediction by ZEFSAII (Michael W. Deem and Ramdas Pophale) SiO2 
 PCOD9477473
Probable space group: C M C A
;
_chemical_formula_sum "Si O2"
_cell_formula_units_Z 80
_cell_length_a 8.576041
_cell_length_b 19.494503
_cell_length_c 27.047284
_cell_angle_alpha 90.000000
_cell_angle_beta 90.000000
_cell_angle_gamma 90.000000
_cell_volume 4521.917946
_symmetry_space_group_name_H-M "C M C A"
_symmetry_group_IT_number 64
_symmetry_cell_setting 'orthorhombic'
loop_
_space_group_symop_operation_xyz
x,y,z
-x,1/2-y,1/2+z
x,-y,-z
-x,1/2+y,1/2-z
-x,-y,-z
x,1/2+y,1/2-z
-x,y,z
x,1/2-y,1/2+z
1/2+x,1/2+y,z
1/2-x,-y,1/2+z
1/2+x,1/2-y,-z
1/2-x,y,1/2-z
1/2-x,1/2-y,-z
1/2+x,y,1/2-z
1/2-x,1/2+y,z
1/2+x,-y,1/2+z
loop_
_atom_site_type_symbol
_atom_site_label
_atom_site_fract_x
_atom_site_fract_y
_atom_site_fract_z
Si Si1 0.687277 0.075425 0.803336
Si Si2 0.810989 0.326177 0.107296
Si Si3 0.314537 0.078153 0.303203
Si Si4 0.687270 0.670840 0.390958
Si Si5 0.187649 0.327636 0.999238
O O1 0.500000 0.073557 0.801748
O O2 0.750000 0.098948 0.750000
O O3 0.736753 0.125124 0.847771
O O4 0.748631 0.998405 0.811333
O O5 0.740135 0.250196 0.112251
O O6 0.000000 0.319970 0.108394
O O7 0.766363 0.356236 0.053052
O O8 0.500000 0.075040 0.300589
O O9 0.250000 0.102077 0.250000
O O10 0.260915 0.127247 0.347174
O O11 0.500000 0.667312 0.387500
O O12 0.736745 0.643725 0.445780
O O13 0.000000 0.326429 0.998293
O O14 0.250000 0.250000 0.000000
#
# Coordination Sequence:
#
# PCOD9477473 Si02
#       5
#    16  16  16  16  16
#     4  10  20  35  54  74 100 133 168 207 252 302
#     4   9  18  33  53  77 104 135 171 210 251 296
#     4  11  22  37  55  73  99 133 169 209 253 303
#     4  10  19  32  53  79 105 133 168 209 252 299
#     4   8  15  29  49  73 101 133 167 204 248 296
#
# _framework density 17.691607000000001
#
# number of rings (size 3 to 8) (size 9 to 14) (size 15 to 20)
#    0.000    2.400    0.000    4.200    0.000    3.200 
#    0.000    3.000    0.000    6.000    0.000    0.000 
#    0.000    0.000    0.000    0.000    0.000    0.000 
#
# Total GULP energy -222922.106337 kJ/mol
# GULP energy per Si atom -5573.052658 kJ/mol
# Density = 1.765134 g / cm^3
# Si number density = 17.691607 Si / 1000 Ang^3
#
#
#
# Elastic Constant Matrix: (Units=GPa)
#
#
# Indices 1 2 3 4 5 6 
#
# 1 55.3518 23.4804 50.4527 0.0000 0.0000 0.0000
# 2 23.4804 49.1026 83.2763 0.0000 0.0000 0.0000
# 3 50.4527 83.2763 220.8062 0.0000 0.0000 0.0000
# 4 0.0000 0.0000 0.0000 87.2647 0.0000 0.0000
# 5 0.0000 0.0000 0.0000 0.0000 23.4849 0.0000
# 6 0.0000 0.0000 0.0000 0.0000 0.0000 24.6605
#
#
#
# Elastic Compliance Matrix: (Units=1/GPa)
#
#
# Indices 1 2 3 4 5 6 
#
# 1 0.023417 -0.005892 -0.003129 0.000000 0.000000 0.000000
# 2 -0.005892 0.057995 -0.020526 0.000000 0.000000 0.000000
# 3 -0.003129 -0.020526 0.012985 0.000000 0.000000 0.000000
# 4 0.000000 0.000000 0.000000 0.011459 0.000000 0.000000
# 5 0.000000 0.000000 0.000000 0.000000 0.042581 0.000000
# 6 0.000000 0.000000 0.000000 0.000000 0.000000 0.040551
#
#
# Mechanical properties :
#
#
# Convention : Reuss Voigt Hill
#
# Bulk Modulus (GPa) = 28.32577 71.07550 49.70064
# Shear Modulus (GPa) = 19.24190 38.28543 28.76367
#
# Velocity S-wave (km/s) = 3.30150 4.65698 4.03654
# Velocity P-wave (km/s) = 5.52981 8.31736 7.06248
#
# Compressibility (1/GPa) = 0.03530354
#
# Stress axis : x y z
#
# Youngs Moduli (GPa) = 42.70340 17.24291 77.01127
#
# Poissons Ratio (x) = 0.10160 0.24093
# Poissons Ratio (y) = 0.25161 1.58075
# Poissons Ratio (z) = 0.13360 0.35393
#
# Static dielectric constant tensor:
#      x y z
#    x 1.604390 0.000000 0.000000 
#    y 0.000000 1.555230 0.000000 
#    z 0.000000 0.000000 1.652840 
# 
# From -- ./inp_files/47817.got.cif
#   From: 2010.05.17/outbox.cif.g08.bks.cpg/sg64_24_cif.got.tgz:47817.got - 2010.06.03 16:29:19.
