data_PCOD9477811
_publ_section_title
;
Structure prediction by ZEFSAII (Michael W. Deem and Ramdas Pophale) SiO2 
 PCOD9477811
Probable space group: C M C A
;
_chemical_formula_sum "Si O2"
_cell_formula_units_Z 96
_cell_length_a 8.664169
_cell_length_b 24.838701
_cell_length_c 22.313709
_cell_angle_alpha 90.000000
_cell_angle_beta 90.000000
_cell_angle_gamma 90.000000
_cell_volume 4802.059750
_symmetry_space_group_name_H-M "C M C A"
_symmetry_group_IT_number 64
_symmetry_cell_setting 'orthorhombic'
loop_
_space_group_symop_operation_xyz
x,y,z
-x,1/2-y,1/2+z
x,-y,-z
-x,1/2+y,1/2-z
-x,-y,-z
x,1/2+y,1/2-z
-x,y,z
x,1/2-y,1/2+z
1/2+x,1/2+y,z
1/2-x,-y,1/2+z
1/2+x,1/2-y,-z
1/2-x,y,1/2-z
1/2-x,1/2-y,-z
1/2+x,y,1/2-z
1/2-x,1/2+y,z
1/2+x,-y,1/2+z
loop_
_atom_site_type_symbol
_atom_site_label
_atom_site_fract_x
_atom_site_fract_y
_atom_site_fract_z
Si Si1 0.815996 0.298369 0.688430
Si Si2 0.185609 0.624001 0.087622
Si Si3 0.813339 0.001998 0.428541
Si Si4 0.683242 0.937715 0.313795
Si Si5 0.313514 0.323000 0.340723
Si Si6 0.684776 0.193303 0.978157
O O1 0.750000 0.320665 0.750000
O O2 0.755646 0.334870 0.634853
O O3 0.766717 0.235877 0.682867
O O4 0.000000 0.298779 0.688091
O O5 0.229005 0.562015 0.093545
O O6 0.000000 0.626768 0.091845
O O7 0.232800 0.646032 0.022621
O O8 0.000000 0.995156 0.428584
O O9 0.767739 0.000000 0.500000
O O10 0.748208 0.962711 0.376509
O O11 0.500000 0.944317 0.313079
O O12 0.750000 0.959895 0.250000
O O13 0.729342 0.874676 0.314805
O O14 0.500000 0.329062 0.333765
O O15 0.273393 0.320172 0.410820
O O16 0.500000 0.197668 0.980107
O O17 0.750000 0.250000 0.000000
#
# Coordination Sequence:
#
# PCOD9477811 Si02
#       6
#    16  16  16  16  16  16
#     4  11  23  38  58  84 119 160 201 248 300 359
#     4  10  21  37  61  90 121 158 198 240 297 366
#     4  10  22  44  71  95 126 167 210 263 325 386
#     4  12  26  43  66  95 127 168 218 273 327 386
#     4  10  21  39  62  90 125 164 205 252 311 373
#     4  10  19  34  58  90 125 159 196 241 298 364
#
# _framework density 19.991420000000002
#
# number of rings (size 3 to 8) (size 9 to 14) (size 15 to 20)
#    0.000    1.500    1.667    3.500    0.000    7.667 
#    0.000    1.667    0.000    0.000    0.000    0.000 
#    0.000    0.000    0.000    0.000    0.000    0.000 
#
# Total GULP energy -267992.461450 kJ/mol
# GULP energy per Si atom -5583.176280 kJ/mol
# Density = 1.994592 g / cm^3
# Si number density = 19.991420 Si / 1000 Ang^3
#
#
#
# Elastic Constant Matrix: (Units=GPa)
#
#
# Indices 1 2 3 4 5 6 
#
# 1 33.0668 32.2267 38.4292 0.0000 0.0000 0.0000
# 2 32.2267 102.4830 44.4190 0.0000 0.0000 0.0000
# 3 38.4292 44.4190 156.6091 0.0000 0.0000 0.0000
# 4 0.0000 0.0000 0.0000 13.9021 0.0000 0.0000
# 5 0.0000 0.0000 0.0000 0.0000 20.1088 0.0000
# 6 0.0000 0.0000 0.0000 0.0000 0.0000 27.0926
#
#
#
# Elastic Compliance Matrix: (Units=1/GPa)
#
#
# Indices 1 2 3 4 5 6 
#
# 1 0.053831 -0.012773 -0.009587 0.000000 0.000000 0.000000
# 2 -0.012773 0.014156 -0.000881 0.000000 0.000000 0.000000
# 3 -0.009587 -0.000881 0.008988 0.000000 0.000000 0.000000
# 4 0.000000 0.000000 0.000000 0.071931 0.000000 0.000000
# 5 0.000000 0.000000 0.000000 0.000000 0.049729 0.000000
# 6 0.000000 0.000000 0.000000 0.000000 0.000000 0.036910
#
#
# Mechanical properties :
#
#
# Convention : Reuss Voigt Hill
#
# Bulk Modulus (GPa) = 32.79277 58.03432 45.41355
# Shear Modulus (GPa) = 17.11211 24.02630 20.56921
#
# Velocity S-wave (km/s) = 2.92887 3.47050 3.21113
# Velocity P-wave (km/s) = 5.27985 6.71951 6.04271
#
# Compressibility (1/GPa) = 0.03049452
#
# Stress axis : x y z
#
# Youngs Moduli (GPa) = 18.57664 70.64150 111.26512
#
# Poissons Ratio (x) = 0.90228 1.06665
# Poissons Ratio (y) = 0.23727 0.09801
# Poissons Ratio (z) = 0.17809 0.06223
#
# Static dielectric constant tensor:
#      x y z
#    x 1.677420 0.000000 0.000000 
#    y 0.000000 1.699690 0.000000 
#    z 0.000000 0.000000 1.847940 
# 
# From -- ./inp_files/36961.got.cif
#   From: 2010.05.17/outbox.cif.g08.bks.cpg/sg64_19_cif.got.tgz:36961.got - 2010.06.03 16:29:19.
