data_PCOD9477098
_publ_section_title
;
Structure prediction by ZEFSAII (Michael W. Deem and Ramdas Pophale) SiO2 
 PCOD9477098
Probable space group: C M C A
;
_chemical_formula_sum "Si O2"
_cell_formula_units_Z 56
_cell_length_a 18.633133
_cell_length_b 8.234069
_cell_length_c 13.560667
_cell_angle_alpha 90.000000
_cell_angle_beta 90.000000
_cell_angle_gamma 90.000000
_cell_volume 2080.565714
_symmetry_space_group_name_H-M "C M C A"
_symmetry_group_IT_number 64
_symmetry_cell_setting 'orthorhombic'
loop_
_space_group_symop_operation_xyz
x,y,z
-x,1/2-y,1/2+z
x,-y,-z
-x,1/2+y,1/2-z
-x,-y,-z
x,1/2+y,1/2-z
-x,y,z
x,1/2-y,1/2+z
1/2+x,1/2+y,z
1/2-x,-y,1/2+z
1/2+x,1/2-y,-z
1/2-x,y,1/2-z
1/2-x,1/2-y,-z
1/2+x,y,1/2-z
1/2-x,1/2+y,z
1/2+x,-y,1/2+z
loop_
_atom_site_type_symbol
_atom_site_label
_atom_site_fract_x
_atom_site_fract_y
_atom_site_fract_z
Si Si1 0.238780 0.807376 0.613102
Si Si2 0.000000 0.283146 0.320784
Si Si3 0.641833 0.024166 0.619211
Si Si4 0.000000 0.100580 0.610422
Si Si5 0.871374 0.000000 0.500000
O O1 0.250000 0.750000 0.500000
O O2 0.198102 0.657951 0.657895
O O3 0.314751 0.864732 0.655047
O O4 0.178354 0.944324 0.590406
O O5 0.932625 0.394599 0.352055
O O6 0.000000 0.282754 0.202559
O O7 0.000000 0.092750 0.355816
O O8 0.641098 0.000000 0.500000
O O9 0.071479 0.127157 0.545588
#
# Coordination Sequence:
#
# PCOD9477098 Si02
#       5
#    16   8  16   8   8
#     4  10  18  35  70  98 123 165 222 269 317 391
#     4  12  25  46  60 100 139 170 220 275 333 389
#     4  10  21  38  68  98 133 168 219 269 329 396
#     4  11  28  42  68  92 137 178 223 268 329 394
#     4  11  20  44  70  91 124 182 224 263 320 402
#
# _framework density 26.915755000000001
#
# number of rings (size 3 to 8) (size 9 to 14) (size 15 to 20)
#    0.000    1.429    7.143    0.429    0.000    4.571 
#    0.000    1.429    6.286    0.000    0.000    0.000 
#    0.000    0.000    0.000    0.000    0.000    0.000 
#
# Total GULP energy -156282.957112 kJ/mol
# GULP energy per Si atom -5581.534183 kJ/mol
# Density = 2.685449 g / cm^3
# Si number density = 26.915755 Si / 1000 Ang^3
#
#
#
# Elastic Constant Matrix: (Units=GPa)
#
#
# Indices 1 2 3 4 5 6 
#
# 1 164.9475 52.2729 -3.1777 0.0000 0.0000 0.0000
# 2 52.2729 95.0350 13.6116 0.0000 0.0000 0.0000
# 3 -3.1777 13.6116 84.5017 0.0000 0.0000 0.0000
# 4 0.0000 0.0000 0.0000 33.2789 0.0000 0.0000
# 5 0.0000 0.0000 0.0000 0.0000 0.0495 0.0000
# 6 0.0000 0.0000 0.0000 0.0000 0.0000 -33.9132
#
#
#
# Elastic Compliance Matrix: (Units=1/GPa)
#
#
# Indices 1 2 3 4 5 6 
#
# 1 0.007417 -0.004217 0.000958 0.000000 0.000000 0.000000
# 2 -0.004217 0.013169 -0.002280 0.000000 0.000000 0.000000
# 3 0.000958 -0.002280 0.012237 0.000000 0.000000 0.000000
# 4 0.000000 0.000000 0.000000 0.030049 0.000000 0.000000
# 5 0.000000 0.000000 0.000000 0.000000 20.221906 0.000000
# 6 0.000000 0.000000 0.000000 0.000000 0.000000 -0.029487
#
#
# Mechanical properties :
#
#
# Convention : Reuss Voigt Hill
#
# Bulk Modulus (GPa) = 45.98552 52.21086 49.09819
# Shear Modulus (GPa) = 0.24663 18.66819 9.45741
#
# Velocity S-wave (km/s) = 0.30303 2.63644 1.87652
# Velocity P-wave (km/s) = 4.15265 5.35796 4.79334
#
# Compressibility (1/GPa) = 0.02174598
#
# Stress axis : x y z
#
# Youngs Moduli (GPa) = 134.81770 75.93856 81.71710
#
# Poissons Ratio (x) = 0.32024 -0.07830
# Poissons Ratio (y) = 0.56854 0.18630
# Poissons Ratio (z) = -0.12919 0.17312
#
# Static dielectric constant tensor:
#      x y z
#    x 2.165310 0.000000 0.000000 
#    y 0.000000 2.271690 0.000000 
#    z 0.000000 0.000000 2.237420 
# 
# From -- ./inp_files/25949.got.cif
#   From: 2010.05.17/outbox.cif.g08.bks.cpg/sg64_13_cif.got.tgz:25949.got - 2010.06.03 16:29:19.
