data_PCOD9477125
_publ_section_title
;
Structure prediction by ZEFSAII (Michael W. Deem and Ramdas Pophale) SiO2 
 PCOD9477125
Probable space group: C M C A
;
_chemical_formula_sum "Si O2"
_cell_formula_units_Z 112
_cell_length_a 16.080561
_cell_length_b 14.960719
_cell_length_c 26.765591
_cell_angle_alpha 90.000000
_cell_angle_beta 90.000000
_cell_angle_gamma 90.000000
_cell_volume 6439.179015
_symmetry_space_group_name_H-M "C M C A"
_symmetry_group_IT_number 64
_symmetry_cell_setting 'orthorhombic'
loop_
_space_group_symop_operation_xyz
x,y,z
-x,1/2-y,1/2+z
x,-y,-z
-x,1/2+y,1/2-z
-x,-y,-z
x,1/2+y,1/2-z
-x,y,z
x,1/2-y,1/2+z
1/2+x,1/2+y,z
1/2-x,-y,1/2+z
1/2+x,1/2-y,-z
1/2-x,y,1/2-z
1/2-x,1/2-y,-z
1/2+x,y,1/2-z
1/2-x,1/2+y,z
1/2+x,-y,1/2+z
loop_
_atom_site_type_symbol
_atom_site_label
_atom_site_fract_x
_atom_site_fract_y
_atom_site_fract_z
Si Si1 0.740263 0.411856 0.374719
Si Si2 0.179890 0.156718 0.207860
Si Si3 0.406824 0.840747 0.194791
Si Si4 0.810873 0.226125 0.954574
Si Si5 0.248728 0.113609 0.099281
Si Si6 0.095141 0.900304 0.977085
Si Si7 0.161762 0.957741 0.220566
O O1 0.660294 0.377263 0.344689
O O2 0.766604 0.343729 0.417505
O O3 0.724173 0.510861 0.395884
O O4 0.815163 0.421365 0.334192
O O5 0.250000 0.171932 0.250000
O O6 0.118116 0.239276 0.206509
O O7 0.225377 0.147696 0.154454
O O8 0.136571 0.061186 0.217238
O O9 0.500000 0.847599 0.175574
O O10 0.396772 0.897281 0.245798
O O11 0.816289 0.319477 0.924711
O O12 0.750000 0.250000 0.000000
O O13 0.887142 0.173633 0.979949
O O14 0.164532 0.113868 0.065680
O O15 0.000000 0.893230 0.959028
O O16 0.106462 0.000000 0.000000
O O17 0.250000 0.958215 0.250000
#
# Coordination Sequence:
#
# PCOD9477125 Si02
#       7
#    16  16  16  16  16  16  16
#     4  10  18  37  57  77 110 144 191 229 266 340
#     4  10  19  35  59  81 103 143 192 227 268 331
#     4  11  22  35  53  82 115 146 177 230 285 326
#     4  10  20  34  56  85 108 146 189 224 276 341
#     4  10  20  35  61  84 106 154 193 224 277 342
#     4  10  20  36  57  86 119 143 181 247 295 320
#     4   8  18  34  55  75 102 146 184 223 267 327
#
# _framework density 17.393522000000001
#
# number of rings (size 3 to 8) (size 9 to 14) (size 15 to 20)
#    0.000    2.143    2.857    2.143    0.000    1.143 
#    0.000    3.571    0.000    0.000    0.000    4.000 
#    0.000    0.000    0.000    0.000    0.000    0.000 
#
# Total GULP energy -312145.135012 kJ/mol
# GULP energy per Si atom -5574.020268 kJ/mol
# Density = 1.735393 g / cm^3
# Si number density = 17.393522 Si / 1000 Ang^3
#
#
#
# Elastic Constant Matrix: (Units=GPa)
#
#
# Indices 1 2 3 4 5 6 
#
# 1 66.2483 30.2954 17.6434 0.0000 0.0000 0.0000
# 2 30.2954 103.4270 42.0492 0.0000 0.0000 0.0000
# 3 17.6434 42.0492 87.6296 0.0000 0.0000 0.0000
# 4 0.0000 0.0000 0.0000 31.3103 0.0000 0.0000
# 5 0.0000 0.0000 0.0000 0.0000 13.4950 0.0000
# 6 0.0000 0.0000 0.0000 0.0000 0.0000 -8.5720
#
#
#
# Elastic Compliance Matrix: (Units=1/GPa)
#
#
# Indices 1 2 3 4 5 6 
#
# 1 0.017552 -0.004602 -0.001326 0.000000 0.000000 0.000000
# 2 -0.004602 0.013219 -0.005416 0.000000 0.000000 0.000000
# 3 -0.001326 -0.005416 0.014278 0.000000 0.000000 0.000000
# 4 0.000000 0.000000 0.000000 0.031938 0.000000 0.000000
# 5 0.000000 0.000000 0.000000 0.000000 0.074102 0.000000
# 6 0.000000 0.000000 0.000000 0.000000 0.000000 -0.116659
#
#
# Mechanical properties :
#
#
# Convention : Reuss Voigt Hill
#
# Bulk Modulus (GPa) = 44.72250 48.58676 46.65463
# Shear Modulus (GPa) = 77.43272 18.40111 47.91692
#
# Velocity S-wave (km/s) = 6.67943 3.25611 5.25438
# Velocity P-wave (km/s) = 9.23333 6.49082 7.98076
#
# Compressibility (1/GPa) = 0.02236011
#
# Stress axis : x y z
#
# Youngs Moduli (GPa) = 56.97205 75.64930 70.03964
#
# Poissons Ratio (x) = 0.34817 0.09284
# Poissons Ratio (y) = 0.26221 0.37936
# Poissons Ratio (z) = 0.07552 0.40975
#
# Static dielectric constant tensor:
#      x y z
#    x 1.563400 0.000000 0.000000 
#    y 0.000000 1.617320 0.000000 
#    z 0.000000 0.000000 1.603390 
# 
# From -- ./inp_files/50065.got.cif
#   From: 2010.05.17/outbox.cif.g08.bks.cpg/sg64_26_cif.got.tgz:50065.got - 2010.06.03 16:29:19.
