data_PCOD9477662
_publ_section_title
;
Structure prediction by ZEFSAII (Michael W. Deem and Ramdas Pophale) SiO2 
 PCOD9477662
Probable space group: C M C A
;
_chemical_formula_sum "Si O2"
_cell_formula_units_Z 96
_cell_length_a 32.090646
_cell_length_b 8.780312
_cell_length_c 18.972175
_cell_angle_alpha 90.000000
_cell_angle_beta 90.000000
_cell_angle_gamma 90.000000
_cell_volume 5345.711663
_symmetry_space_group_name_H-M "C M C A"
_symmetry_group_IT_number 64
_symmetry_cell_setting 'orthorhombic'
loop_
_space_group_symop_operation_xyz
x,y,z
-x,1/2-y,1/2+z
x,-y,-z
-x,1/2+y,1/2-z
-x,-y,-z
x,1/2+y,1/2-z
-x,y,z
x,1/2-y,1/2+z
1/2+x,1/2+y,z
1/2-x,-y,1/2+z
1/2+x,1/2-y,-z
1/2-x,y,1/2-z
1/2-x,1/2-y,-z
1/2+x,y,1/2-z
1/2-x,1/2+y,z
1/2+x,-y,1/2+z
loop_
_atom_site_type_symbol
_atom_site_label
_atom_site_fract_x
_atom_site_fract_y
_atom_site_fract_z
Si Si1 0.045818 0.333067 0.656383
Si Si2 0.624275 0.968619 0.580349
Si Si3 0.274893 0.256956 0.176033
Si Si4 0.921688 0.035748 0.716930
Si Si5 0.369674 0.748306 0.318092
Si Si6 0.782413 0.053516 0.081954
O O1 0.086125 0.374637 0.610981
O O2 0.052262 0.442298 0.724552
O O3 0.049927 0.155547 0.676134
O O4 0.000000 0.363496 0.625936
O O5 0.669655 0.889768 0.586486
O O6 0.616328 0.000000 0.500000
O O7 0.627224 0.133251 0.617872
O O8 0.250000 0.257438 0.250000
O O9 0.321747 0.200231 0.191559
O O10 0.251276 0.168509 0.113214
O O11 0.280033 0.421245 0.140553
O O12 0.887664 0.147423 0.754379
O O13 0.897622 0.902627 0.675409
O O14 0.775604 0.000000 0.000000
#
# Coordination Sequence:
#
# PCOD9477662 Si02
#       6
#    16  16  16  16  16  16
#     4  10  19  33  57  82 105 136 173 224 273 327
#     4   9  20  38  55  75 106 147 184 218 265 329
#     4  11  23  32  56  85 108 139 192 240 270 310
#     4   9  19  34  54  79 111 137 172 214 280 336
#     4   9  20  34  54  78 109 143 175 220 274 322
#     4  10  22  39  53  75 114 155 186 222 279 337
#
# _framework density 17.958320000000001
#
# number of rings (size 3 to 8) (size 9 to 14) (size 15 to 20)
#    0.000    2.333    0.000    1.500   11.667    0.333 
#    0.000    1.667    0.000    1.000    0.000    0.000 
#    0.000    0.000    0.000    0.000    0.000    0.000 
#
# Total GULP energy -267262.638830 kJ/mol
# GULP energy per Si atom -5567.971642 kJ/mol
# Density = 1.791745 g / cm^3
# Si number density = 17.958320 Si / 1000 Ang^3
#
#
#
# Elastic Constant Matrix: (Units=GPa)
#
#
# Indices 1 2 3 4 5 6 
#
# 1 82.0578 11.7021 19.4782 0.0000 0.0000 0.0000
# 2 11.7021 48.5481 -10.3219 0.0000 0.0000 0.0000
# 3 19.4782 -10.3219 59.3409 0.0000 0.0000 0.0000
# 4 0.0000 0.0000 0.0000 12.3572 0.0000 0.0000
# 5 0.0000 0.0000 0.0000 0.0000 -33.8397 0.0000
# 6 0.0000 0.0000 0.0000 0.0000 0.0000 -11.5777
#
#
#
# Elastic Compliance Matrix: (Units=1/GPa)
#
#
# Indices 1 2 3 4 5 6 
#
# 1 0.014126 -0.004559 -0.005430 0.000000 0.000000 0.000000
# 2 -0.004559 0.022861 0.005473 0.000000 0.000000 0.000000
# 3 -0.005430 0.005473 0.019586 0.000000 0.000000 0.000000
# 4 0.000000 0.000000 0.000000 0.080924 0.000000 0.000000
# 5 0.000000 0.000000 0.000000 0.000000 -0.029551 0.000000
# 6 0.000000 0.000000 0.000000 0.000000 0.000000 -0.086373
#
#
# Mechanical properties :
#
#
# Convention : Reuss Voigt Hill
#
# Bulk Modulus (GPa) = 21.03472 25.74040 23.38756
# Shear Modulus (GPa) = 107.63885 4.66052 56.14968
#
# Velocity S-wave (km/s) = 7.75037 1.61271 5.59773
# Velocity P-wave (km/s) = 9.58277 4.22283 7.40479
#
# Compressibility (1/GPa) = 0.04754044
#
# Stress axis : x y z
#
# Youngs Moduli (GPa) = 70.79358 43.74316 51.05680
#
# Poissons Ratio (x) = 0.19944 0.27722
# Poissons Ratio (y) = 0.32277 -0.27943
# Poissons Ratio (z) = 0.38439 -0.23941
#
# Static dielectric constant tensor:
#      x y z
#    x 1.669560 0.000000 0.000000 
#    y 0.000000 1.638230 0.000000 
#    z 0.000000 0.000000 1.622500 
# 
# From -- ./inp_files/41772.got.cif
#   From: 2010.05.17/outbox.cif.g08.bks.cpg/sg64_21_cif.got.tgz:41772.got - 2010.06.03 16:29:19.
