data_PCOD9477237
_publ_section_title
;
Structure prediction by ZEFSAII (Michael W. Deem and Ramdas Pophale) SiO2 
 PCOD9477237
Probable space group: C M C A
;
_chemical_formula_sum "Si O2"
_cell_formula_units_Z 96
_cell_length_a 8.767104
_cell_length_b 28.341012
_cell_length_c 24.380822
_cell_angle_alpha 90.000000
_cell_angle_beta 90.000000
_cell_angle_gamma 90.000000
_cell_volume 6057.868701
_symmetry_space_group_name_H-M "C M C A"
_symmetry_group_IT_number 64
_symmetry_cell_setting 'orthorhombic'
loop_
_space_group_symop_operation_xyz
x,y,z
-x,1/2-y,1/2+z
x,-y,-z
-x,1/2+y,1/2-z
-x,-y,-z
x,1/2+y,1/2-z
-x,y,z
x,1/2-y,1/2+z
1/2+x,1/2+y,z
1/2-x,-y,1/2+z
1/2+x,1/2-y,-z
1/2-x,y,1/2-z
1/2-x,1/2-y,-z
1/2+x,y,1/2-z
1/2-x,1/2+y,z
1/2+x,-y,1/2+z
loop_
_atom_site_type_symbol
_atom_site_label
_atom_site_fract_x
_atom_site_fract_y
_atom_site_fract_z
Si Si1 0.815589 0.480322 0.086506
Si Si2 0.314682 0.427135 0.524373
Si Si3 0.184095 0.179937 0.472787
Si Si4 0.817377 0.819863 0.190741
Si Si5 0.817709 0.929756 0.191008
Si Si6 0.182237 0.268379 0.086147
O O1 0.768673 0.533064 0.068195
O O2 0.745317 0.461788 0.142371
O O3 0.000000 0.479263 0.090313
O O4 0.770529 0.446256 0.035786
O O5 0.500000 0.426572 0.524500
O O6 0.263574 0.373884 0.534634
O O7 0.222094 0.197956 0.534250
O O8 0.256913 0.216948 0.430849
O O9 0.000000 0.181885 0.467531
O O10 0.750000 0.806396 0.250000
O O11 0.773786 0.874841 0.180865
O O12 0.754295 0.788476 0.141420
O O13 0.000000 0.817033 0.192639
O O14 0.750000 0.943208 0.250000
O O15 0.000000 0.932211 0.193009
O O16 0.000000 0.267661 0.091115
#
# Coordination Sequence:
#
# PCOD9477237 Si02
#       6
#    16  16  16  16  16  16
#     4   9  16  29  49  71  95 123 156 191 228 272
#     4   8  15  28  48  71  94 125 159 188 225 274
#     4   9  17  30  47  68  96 128 159 190 227 273
#     4  10  20  33  49  69  94 123 154 189 230 278
#     4  10  20  32  47  69  95 123 154 188 230 276
#     4  10  19  30  47  71  96 123 156 193 233 275
#
# _framework density 15.847156999999999
#
# number of rings (size 3 to 8) (size 9 to 14) (size 15 to 20)
#    0.000    2.667    0.000    3.500    0.000    4.000 
#    0.000    3.333    0.000    1.000    0.000    4.667 
#    0.000    0.000    0.000    0.000    0.000    0.000 
#
# Total GULP energy -267651.662313 kJ/mol
# GULP energy per Si atom -5576.076298 kJ/mol
# Density = 1.581109 g / cm^3
# Si number density = 15.847157 Si / 1000 Ang^3
#
#
#
# Elastic Constant Matrix: (Units=GPa)
#
#
# Indices 1 2 3 4 5 6 
#
# 1 30.5078 37.9084 44.5173 0.0000 0.0000 0.0000
# 2 37.9084 140.6335 94.7195 0.0000 0.0000 0.0000
# 3 44.5173 94.7195 151.9390 0.0000 0.0000 0.0000
# 4 0.0000 0.0000 0.0000 23.2717 0.0000 0.0000
# 5 0.0000 0.0000 0.0000 0.0000 24.9737 0.0000
# 6 0.0000 0.0000 0.0000 0.0000 0.0000 19.1685
#
#
#
# Elastic Compliance Matrix: (Units=1/GPa)
#
#
# Indices 1 2 3 4 5 6 
#
# 1 0.061728 -0.007684 -0.013296 0.000000 0.000000 0.000000
# 2 -0.007684 0.013214 -0.005986 0.000000 0.000000 0.000000
# 3 -0.013296 -0.005986 0.014209 0.000000 0.000000 0.000000
# 4 0.000000 0.000000 0.000000 0.042971 0.000000 0.000000
# 5 0.000000 0.000000 0.000000 0.000000 0.040042 0.000000
# 6 0.000000 0.000000 0.000000 0.000000 0.000000 0.052169
#
#
# Mechanical properties :
#
#
# Convention : Reuss Voigt Hill
#
# Bulk Modulus (GPa) = 28.39397 75.26342 51.82869
# Shear Modulus (GPa) = 17.24117 23.21177 20.22647
#
# Velocity S-wave (km/s) = 3.30201 3.83133 3.57648
# Velocity P-wave (km/s) = 5.70035 8.19564 7.05913
#
# Compressibility (1/GPa) = 0.03521875
#
# Stress axis : x y z
#
# Youngs Moduli (GPa) = 16.20015 75.67878 70.37869
#
# Poissons Ratio (x) = 0.58153 0.93572
# Poissons Ratio (y) = 0.12449 0.42129
# Poissons Ratio (z) = 0.21539 0.45302
#
# Static dielectric constant tensor:
#      x y z
#    x 1.528470 0.000000 0.000000 
#    y 0.000000 1.528980 0.000000 
#    z 0.000000 0.000000 1.497670 
# 
# From -- ./inp_files/36950.got.cif
#   From: 2010.05.17/outbox.cif.g08.bks.cpg/sg64_19_cif.got.tgz:36950.got - 2010.06.03 16:29:19.
