data_PCOD9477814
_publ_section_title
;
Structure prediction by ZEFSAII (Michael W. Deem and Ramdas Pophale) SiO2 
 PCOD9477814
Probable space group: C M C A
;
_chemical_formula_sum "Si O2"
_cell_formula_units_Z 112
_cell_length_a 22.599738
_cell_length_b 13.992000
_cell_length_c 15.001233
_cell_angle_alpha 90.000000
_cell_angle_beta 90.000000
_cell_angle_gamma 90.000000
_cell_volume 4743.622905
_symmetry_space_group_name_H-M "C M C A"
_symmetry_group_IT_number 64
_symmetry_cell_setting 'orthorhombic'
loop_
_space_group_symop_operation_xyz
x,y,z
-x,1/2-y,1/2+z
x,-y,-z
-x,1/2+y,1/2-z
-x,-y,-z
x,1/2+y,1/2-z
-x,y,z
x,1/2-y,1/2+z
1/2+x,1/2+y,z
1/2-x,-y,1/2+z
1/2+x,1/2-y,-z
1/2-x,y,1/2-z
1/2-x,1/2-y,-z
1/2+x,y,1/2-z
1/2-x,1/2+y,z
1/2+x,-y,1/2+z
loop_
_atom_site_type_symbol
_atom_site_label
_atom_site_fract_x
_atom_site_fract_y
_atom_site_fract_z
Si Si1 0.566392 0.690938 0.259393
Si Si2 0.065389 0.778527 0.433325
Si Si3 0.194910 0.390853 0.209999
Si Si4 0.324187 0.746757 0.868618
Si Si5 0.566611 0.033429 0.737989
Si Si6 0.318116 0.886616 0.011983
Si Si7 0.399241 0.101464 0.545651
O O1 0.500000 0.710740 0.291443
O O2 0.576560 0.754958 0.171157
O O3 0.612974 0.708397 0.336792
O O4 0.569271 0.580873 0.230008
O O5 0.115243 0.846498 0.473709
O O6 0.067719 0.675968 0.482427
O O7 0.000000 0.818840 0.444542
O O8 0.250000 0.452005 0.250000
O O9 0.194379 0.299805 0.275558
O O10 0.129489 0.438410 0.215696
O O11 0.209114 0.364541 0.108614
O O12 0.338762 0.656987 0.932100
O O13 0.293066 0.828220 0.927290
O O14 0.500000 0.054767 0.775209
O O15 0.570481 0.081695 0.640803
O O16 0.316366 0.000000 0.000000
O O17 0.390577 0.000000 0.500000
#
# Coordination Sequence:
#
# PCOD9477814 Si02
#       7
#    16  16  16  16  16  16  16
#     4  10  19  36  61  96 139 184 229 282 351 415
#     4  10  20  34  60  98 143 183 225 289 352 419
#     4  11  25  47  70 102 144 184 237 293 359 431
#     4  10  23  41  66  96 134 184 230 290 351 421
#     4  10  21  37  66 100 137 181 230 286 349 418
#     4  11  24  45  70  97 135 186 243 298 354 434
#     4  10  19  34  58  96 134 172 224 283 343 411
#
# _framework density 23.610645999999999
#
# number of rings (size 3 to 8) (size 9 to 14) (size 15 to 20)
#    0.000    1.714    2.857    1.286    0.000    6.571 
#    0.000    5.714    0.000    0.000    0.000    0.000 
#    0.000    0.000    0.000    0.000    0.000    0.000 
#
# Total GULP energy -312765.375382 kJ/mol
# GULP energy per Si atom -5585.095989 kJ/mol
# Density = 2.355691 g / cm^3
# Si number density = 23.610646 Si / 1000 Ang^3
#
#
#
# Elastic Constant Matrix: (Units=GPa)
#
#
# Indices 1 2 3 4 5 6 
#
# 1 100.6992 5.5622 14.7244 0.0000 0.0000 0.0000
# 2 5.5622 116.4445 12.7991 0.0000 0.0000 0.0000
# 3 14.7244 12.7991 100.1873 0.0000 0.0000 0.0000
# 4 0.0000 0.0000 0.0000 33.6878 0.0000 0.0000
# 5 0.0000 0.0000 0.0000 0.0000 22.7545 0.0000
# 6 0.0000 0.0000 0.0000 0.0000 0.0000 -2.8616
#
#
#
# Elastic Compliance Matrix: (Units=1/GPa)
#
#
# Indices 1 2 3 4 5 6 
#
# 1 0.010161 -0.000326 -0.001452 0.000000 0.000000 0.000000
# 2 -0.000326 0.008721 -0.001066 0.000000 0.000000 0.000000
# 3 -0.001452 -0.001066 0.010331 0.000000 0.000000 0.000000
# 4 0.000000 0.000000 0.000000 0.029684 0.000000 0.000000
# 5 0.000000 0.000000 0.000000 0.000000 0.043947 0.000000
# 6 0.000000 0.000000 0.000000 0.000000 0.000000 -0.349453
#
#
# Mechanical properties :
#
#
# Convention : Reuss Voigt Hill
#
# Bulk Modulus (GPa) = 42.50816 42.61135 42.55976
# Shear Modulus (GPa) = -21.45182 29.66581 4.10700
#
# Velocity S-wave (km/s) = -3.01751 3.54850 1.32032
# Velocity P-wave (km/s) = 2.42948 5.90558 4.51543
#
# Compressibility (1/GPa) = 0.02352490
#
# Stress axis : x y z
#
# Youngs Moduli (GPa) = 98.41710 114.67186 96.79728
#
# Poissons Ratio (x) = 0.03736 0.14052
# Poissons Ratio (y) = 0.03206 0.10320
# Poissons Ratio (z) = 0.14287 0.12226
#
# Static dielectric constant tensor:
#      x y z
#    x 1.965320 0.000000 0.000000 
#    y 0.000000 1.888500 0.000000 
#    z 0.000000 0.000000 1.909500 
# 
# From -- ./inp_files/27416.got.cif
#   From: 2010.05.17/outbox.cif.g08.bks.cpg/sg64_14_cif.got.tgz:27416.got - 2010.06.03 16:29:19.
