data_PCOD9477547
_publ_section_title
;
Structure prediction by ZEFSAII (Michael W. Deem and Ramdas Pophale) SiO2 
 PCOD9477547
Probable space group: C M C A
;
_chemical_formula_sum "Si O2"
_cell_formula_units_Z 64
_cell_length_a 30.942372
_cell_length_b 23.474054
_cell_length_c 4.975254
_cell_angle_alpha 90.000000
_cell_angle_beta 90.000000
_cell_angle_gamma 90.000000
_cell_volume 3613.740474
_symmetry_space_group_name_H-M "C M C A"
_symmetry_group_IT_number 64
_symmetry_cell_setting 'orthorhombic'
loop_
_space_group_symop_operation_xyz
x,y,z
-x,1/2-y,1/2+z
x,-y,-z
-x,1/2+y,1/2-z
-x,-y,-z
x,1/2+y,1/2-z
-x,y,z
x,1/2-y,1/2+z
1/2+x,1/2+y,z
1/2-x,-y,1/2+z
1/2+x,1/2-y,-z
1/2-x,y,1/2-z
1/2-x,1/2-y,-z
1/2+x,y,1/2-z
1/2-x,1/2+y,z
1/2+x,-y,1/2+z
loop_
_atom_site_type_symbol
_atom_site_label
_atom_site_fract_x
_atom_site_fract_y
_atom_site_fract_z
Si Si1 0.750000 0.292184 0.250000
Si Si2 0.655127 0.708426 0.742848
Si Si3 0.074603 0.131501 0.893540
Si Si4 0.000000 0.286795 0.603662
Si Si5 0.449506 0.938996 0.877604
O O1 0.750000 0.250000 0.500000
O O2 0.702836 0.320417 0.242981
O O3 0.651245 0.739415 0.455409
O O4 0.618344 0.663421 0.812872
O O5 0.055008 0.104999 0.622906
O O6 0.041881 0.177094 0.023939
O O7 0.077440 0.082756 0.122011
O O8 0.000000 0.231304 0.412976
O O9 0.500000 0.942337 0.792337
O O10 0.436960 0.000000 0.000000
#
# Coordination Sequence:
#
# PCOD9477547 Si02
#       5
#     8  16  16   8  16
#     4   8  16  30  50  72 102 136 168 202 240 290
#     4  10  19  33  51  77 108 138 168 204 249 311
#     4  12  21  35  52  75 101 138 173 212 260 307
#     4  12  22  32  45  70 105 138 164 196 246 310
#     4  11  22  38  54  71  96 133 181 229 261 294
#
# _framework density 17.710182
#
# number of rings (size 3 to 8) (size 9 to 14) (size 15 to 20)
#    0.000    1.250    2.500    5.250    0.000    2.000 
#    0.000    0.000    0.000    0.000    0.000    3.500 
#    0.000    0.000    0.000    0.000    0.000    0.000 
#
# Total GULP energy -178643.811799 kJ/mol
# GULP energy per Si atom -5582.619119 kJ/mol
# Density = 1.766987 g / cm^3
# Si number density = 17.710182 Si / 1000 Ang^3
#
#
#
# Elastic Constant Matrix: (Units=GPa)
#
#
# Indices 1 2 3 4 5 6 
#
# 1 107.8448 34.5532 -11.0979 0.0000 0.0000 0.0000
# 2 34.5532 50.2941 -0.7796 0.0000 0.0000 0.0000
# 3 -11.0979 -0.7796 71.3937 0.0000 0.0000 0.0000
# 4 0.0000 0.0000 0.0000 30.5734 0.0000 0.0000
# 5 0.0000 0.0000 0.0000 0.0000 18.8080 0.0000
# 6 0.0000 0.0000 0.0000 0.0000 0.0000 11.3337
#
#
#
# Elastic Compliance Matrix: (Units=1/GPa)
#
#
# Indices 1 2 3 4 5 6 
#
# 1 0.012115 -0.008295 0.001793 0.000000 0.000000 0.000000
# 2 -0.008295 0.025567 -0.001010 0.000000 0.000000 0.000000
# 3 0.001793 -0.001010 0.014274 0.000000 0.000000 0.000000
# 4 0.000000 0.000000 0.000000 0.032708 0.000000 0.000000
# 5 0.000000 0.000000 0.000000 0.000000 0.053169 0.000000
# 6 0.000000 0.000000 0.000000 0.000000 0.000000 0.088233
#
#
# Mechanical properties :
#
#
# Convention : Reuss Voigt Hill
#
# Bulk Modulus (GPa) = 27.07849 30.54268 28.81058
# Shear Modulus (GPa) = 19.73154 25.93349 22.83251
#
# Velocity S-wave (km/s) = 3.34149 3.83080 3.59448
# Velocity P-wave (km/s) = 5.49640 6.07042 5.79053
#
# Compressibility (1/GPa) = 0.03692968
#
# Stress axis : x y z
#
# Youngs Moduli (GPa) = 82.54304 39.11357 70.05513
#
# Poissons Ratio (x) = 0.32446 -0.12558
# Poissons Ratio (y) = 0.68473 0.07078
# Poissons Ratio (z) = -0.14797 0.03952
#
# Static dielectric constant tensor:
#      x y z
#    x 1.638570 0.000000 0.000000 
#    y 0.000000 1.606500 0.000000 
#    z 0.000000 0.000000 1.611330 
# 
# From -- ./inp_files/2728.got.cif
#   From: 2010.05.17/outbox.cif.g08.bks.cpg/sg64_2_cif.got.tgz:2728.got - 2010.06.03 16:29:19.
