data_PCOD9477550
_publ_section_title
;
Structure prediction by ZEFSAII (Michael W. Deem and Ramdas Pophale) SiO2 
 PCOD9477550
Probable space group: C M C A
;
_chemical_formula_sum "Si O2"
_cell_formula_units_Z 128
_cell_length_a 16.967106
_cell_length_b 19.533586
_cell_length_c 23.863822
_cell_angle_alpha 90.000000
_cell_angle_beta 90.000000
_cell_angle_gamma 90.000000
_cell_volume 7909.148921
_symmetry_space_group_name_H-M "C M C A"
_symmetry_group_IT_number 64
_symmetry_cell_setting 'orthorhombic'
loop_
_space_group_symop_operation_xyz
x,y,z
-x,1/2-y,1/2+z
x,-y,-z
-x,1/2+y,1/2-z
-x,-y,-z
x,1/2+y,1/2-z
-x,y,z
x,1/2-y,1/2+z
1/2+x,1/2+y,z
1/2-x,-y,1/2+z
1/2+x,1/2-y,-z
1/2-x,y,1/2-z
1/2-x,1/2-y,-z
1/2+x,y,1/2-z
1/2-x,1/2+y,z
1/2+x,-y,1/2+z
loop_
_atom_site_type_symbol
_atom_site_label
_atom_site_fract_x
_atom_site_fract_y
_atom_site_fract_z
Si Si1 0.905194 0.862189 0.932662
Si Si2 0.344019 0.995791 0.255881
Si Si3 0.144569 0.249389 0.343096
Si Si4 0.595136 0.653126 0.939037
Si Si5 0.589610 0.862713 0.767519
Si Si6 0.094917 0.009279 0.882202
Si Si7 0.670226 0.780431 0.668551
Si Si8 0.844857 0.843582 0.259950
O O1 0.866174 0.813056 0.886803
O O2 0.000000 0.855679 0.928737
O O3 0.886171 0.941285 0.917767
O O4 0.880906 0.845382 0.996052
O O5 0.250000 0.002223 0.250000
O O6 0.366580 0.997678 0.321375
O O7 0.370386 0.921421 0.233991
O O8 0.385568 0.059078 0.225863
O O9 0.126956 0.284333 0.402064
O O10 0.098194 0.182078 0.323536
O O11 0.236297 0.229247 0.337600
O O12 0.123343 0.306775 0.296001
O O13 0.500000 0.655207 0.937104
O O14 0.619198 0.580176 0.911747
O O15 0.500000 0.858450 0.746335
O O16 0.647008 0.829444 0.720706
O O17 0.000000 0.011015 0.875436
O O18 0.638230 0.706222 0.688117
O O19 0.750000 0.845020 0.250000
#
# Coordination Sequence:
#
# PCOD9477550 Si02
#       8
#    16  16  16  16  16  16  16  16
#     4  10  20  34  52  76 104 136 171 210 258 307
#     4  11  19  31  52  77 102 137 166 202 253 303
#     4  10  19  34  51  73 101 133 172 210 252 300
#     4  10  20  34  53  76 103 137 172 210 259 307
#     4  11  21  33  49  75 105 135 168 207 255 309
#     4  10  19  33  52  77 107 135 167 208 253 313
#     4  10  19  33  52  73 102 133 170 211 252 303
#     4   8  17  31  48  72  99 130 162 203 250 299
#
# _framework density 16.183789999999998
#
# number of rings (size 3 to 8) (size 9 to 14) (size 15 to 20)
#    0.000    2.000    2.500    3.375    0.000    2.000 
#    0.000    1.875    0.000    0.000    0.000    0.875 
#    0.000    3.000    0.000    0.000    0.000    0.000 
#
# Total GULP energy -356906.431596 kJ/mol
# GULP energy per Si atom -5576.662994 kJ/mol
# Density = 1.614695 g / cm^3
# Si number density = 16.183790 Si / 1000 Ang^3
#
#
#
# Elastic Constant Matrix: (Units=GPa)
#
#
# Indices 1 2 3 4 5 6 
#
# 1 32.2817 24.0014 19.6721 0.0000 0.0000 0.0000
# 2 24.0014 133.2581 53.5041 0.0000 0.0000 0.0000
# 3 19.6721 53.5041 90.0917 0.0000 0.0000 0.0000
# 4 0.0000 0.0000 0.0000 21.4897 0.0000 0.0000
# 5 0.0000 0.0000 0.0000 0.0000 11.7741 0.0000
# 6 0.0000 0.0000 0.0000 0.0000 0.0000 13.7287
#
#
#
# Elastic Compliance Matrix: (Units=1/GPa)
#
#
# Indices 1 2 3 4 5 6 
#
# 1 0.037749 -0.004582 -0.005521 0.000000 0.000000 0.000000
# 2 -0.004582 0.010410 -0.005182 0.000000 0.000000 0.000000
# 3 -0.005521 -0.005182 0.015383 0.000000 0.000000 0.000000
# 4 0.000000 0.000000 0.000000 0.046534 0.000000 0.000000
# 5 0.000000 0.000000 0.000000 0.000000 0.084932 0.000000
# 6 0.000000 0.000000 0.000000 0.000000 0.000000 0.072840
#
#
# Mechanical properties :
#
#
# Convention : Reuss Voigt Hill
#
# Bulk Modulus (GPa) = 30.32977 49.99852 40.16414
# Shear Modulus (GPa) = 16.15986 19.96211 18.06098
#
# Velocity S-wave (km/s) = 3.16337 3.51588 3.34427
# Velocity P-wave (km/s) = 5.66781 6.88790 6.30742
#
# Compressibility (1/GPa) = 0.03297091
#
# Stress axis : x y z
#
# Youngs Moduli (GPa) = 26.49091 96.06077 65.00737
#
# Poissons Ratio (x) = 0.44016 0.35894
# Poissons Ratio (y) = 0.12138 0.33686
# Poissons Ratio (z) = 0.14627 0.49777
#
# Static dielectric constant tensor:
#      x y z
#    x 1.544370 0.000000 0.000000 
#    y 0.000000 1.566100 0.000000 
#    z 0.000000 0.000000 1.526560 
# 
# From -- ./inp_files/46025.got.cif
#   From: 2010.05.17/outbox.cif.g08.bks.cpg/sg64_24_cif.got.tgz:46025.got - 2010.06.03 16:29:19.
