data_PCOD9477376
_publ_section_title
;
Structure prediction by ZEFSAII (Michael W. Deem and Ramdas Pophale) SiO2 
 PCOD9477376
Probable space group: C M C A
;
_chemical_formula_sum "Si O2"
_cell_formula_units_Z 96
_cell_length_a 13.806232
_cell_length_b 15.491219
_cell_length_c 22.413421
_cell_angle_alpha 90.000000
_cell_angle_beta 90.000000
_cell_angle_gamma 90.000000
_cell_volume 4793.678563
_symmetry_space_group_name_H-M "C M C A"
_symmetry_group_IT_number 64
_symmetry_cell_setting 'orthorhombic'
loop_
_space_group_symop_operation_xyz
x,y,z
-x,1/2-y,1/2+z
x,-y,-z
-x,1/2+y,1/2-z
-x,-y,-z
x,1/2+y,1/2-z
-x,y,z
x,1/2-y,1/2+z
1/2+x,1/2+y,z
1/2-x,-y,1/2+z
1/2+x,1/2-y,-z
1/2-x,y,1/2-z
1/2-x,1/2-y,-z
1/2+x,y,1/2-z
1/2-x,1/2+y,z
1/2+x,-y,1/2+z
loop_
_atom_site_type_symbol
_atom_site_label
_atom_site_fract_x
_atom_site_fract_y
_atom_site_fract_z
Si Si1 0.116091 0.056527 0.321679
Si Si2 0.192070 0.072009 0.454068
Si Si3 0.612254 0.694448 0.543737
Si Si4 0.382572 0.817230 0.719946
Si Si5 0.390244 0.110258 0.410431
Si Si6 0.381768 0.134270 0.825368
O O1 0.140197 0.072392 0.390549
O O2 0.152255 0.131558 0.277909
O O3 0.000000 0.054750 0.315550
O O4 0.151499 0.960072 0.305113
O O5 0.174316 0.161696 0.488433
O O6 0.304817 0.056195 0.439536
O O7 0.154826 0.000000 0.500000
O O8 0.500000 0.669775 0.532595
O O9 0.612226 0.795860 0.558032
O O10 0.645096 0.648786 0.605247
O O11 0.500000 0.811468 0.724065
O O12 0.365876 0.870587 0.658942
O O13 0.348618 0.718895 0.710409
O O14 0.500000 0.076259 0.414537
O O15 0.500000 0.135131 0.824304
#
# Coordination Sequence:
#
# PCOD9477376 Si02
#       6
#    16  16  16  16  16  16
#     4  10  19  31  54  87 120 145 176 234 289 335
#     4  12  22  31  53  87 119 145 180 228 284 342
#     4   9  17  33  56  81 110 143 181 225 280 339
#     4   8  16  33  56  77 103 146 190 225 277 336
#     4   9  20  38  57  72 100 154 201 231 265 323
#     4   8  14  28  52  80 110 143 179 219 276 339
#
# _framework density 20.026375000000002
#
# number of rings (size 3 to 8) (size 9 to 14) (size 15 to 20)
#    0.000    2.667    1.667    3.000    0.000    1.667 
#    0.000    0.000    7.333    2.000    0.000    0.000 
#    0.000    0.000    0.000    0.000    0.000    0.000 
#
# Total GULP energy -267718.568066 kJ/mol
# GULP energy per Si atom -5577.470168 kJ/mol
# Density = 1.998079 g / cm^3
# Si number density = 20.026375 Si / 1000 Ang^3
#
#
#
# Elastic Constant Matrix: (Units=GPa)
#
#
# Indices 1 2 3 4 5 6 
#
# 1 44.1821 -5.4570 21.5293 0.0000 0.0000 0.0000
# 2 -5.4570 77.2169 64.1157 0.0000 0.0000 0.0000
# 3 21.5293 64.1157 117.6842 0.0000 0.0000 0.0000
# 4 0.0000 0.0000 0.0000 34.1238 0.0000 0.0000
# 5 0.0000 0.0000 0.0000 0.0000 25.4790 0.0000
# 6 0.0000 0.0000 0.0000 0.0000 0.0000 12.1919
#
#
#
# Elastic Compliance Matrix: (Units=1/GPa)
#
#
# Indices 1 2 3 4 5 6 
#
# 1 0.030068 0.012220 -0.012158 0.000000 0.000000 0.000000
# 2 0.012220 0.028615 -0.017826 0.000000 0.000000 0.000000
# 3 -0.012158 -0.017826 0.020433 0.000000 0.000000 0.000000
# 4 0.000000 0.000000 0.000000 0.029305 0.000000 0.000000
# 5 0.000000 0.000000 0.000000 0.000000 0.039248 0.000000
# 6 0.000000 0.000000 0.000000 0.000000 0.000000 0.082022
#
#
# Mechanical properties :
#
#
# Convention : Reuss Voigt Hill
#
# Bulk Modulus (GPa) = 22.94158 44.38435 33.66296
# Shear Modulus (GPa) = 17.87326 24.95196 21.41261
#
# Velocity S-wave (km/s) = 2.99069 3.53364 3.27344
# Velocity P-wave (km/s) = 4.83800 6.23377 5.57970
#
# Compressibility (1/GPa) = 0.04358898
#
# Stress axis : x y z
#
# Youngs Moduli (GPa) = 33.25839 34.94630 48.94002
#
# Poissons Ratio (x) = -0.42706 0.59504
# Poissons Ratio (y) = -0.40643 0.87238
# Poissons Ratio (z) = 0.40437 0.62294
#
# Static dielectric constant tensor:
#      x y z
#    x 1.730570 0.000000 0.000000 
#    y 0.000000 1.735860 0.000000 
#    z 0.000000 0.000000 1.680700 
# 
# From -- ./inp_files/39150.got.cif
#   From: 2010.05.17/outbox.cif.g08.bks.cpg/sg64_20_cif.got.tgz:39150.got - 2010.06.03 16:29:19.
