data_PCOD9477090
_publ_section_title
;
Structure prediction by ZEFSAII (Michael W. Deem and Ramdas Pophale) SiO2 
 PCOD9477090
Probable space group: C M C A
;
_chemical_formula_sum "Si O2"
_cell_formula_units_Z 96
_cell_length_a 23.712910
_cell_length_b 10.937226
_cell_length_c 15.155172
_cell_angle_alpha 90.000000
_cell_angle_beta 90.000000
_cell_angle_gamma 90.000000
_cell_volume 3930.546231
_symmetry_space_group_name_H-M "C M C A"
_symmetry_group_IT_number 64
_symmetry_cell_setting 'orthorhombic'
loop_
_space_group_symop_operation_xyz
x,y,z
-x,1/2-y,1/2+z
x,-y,-z
-x,1/2+y,1/2-z
-x,-y,-z
x,1/2+y,1/2-z
-x,y,z
x,1/2-y,1/2+z
1/2+x,1/2+y,z
1/2-x,-y,1/2+z
1/2+x,1/2-y,-z
1/2-x,y,1/2-z
1/2-x,1/2-y,-z
1/2+x,y,1/2-z
1/2-x,1/2+y,z
1/2+x,-y,1/2+z
loop_
_atom_site_type_symbol
_atom_site_label
_atom_site_fract_x
_atom_site_fract_y
_atom_site_fract_z
Si Si1 0.065249 0.292580 0.423104
Si Si2 0.140240 0.508501 0.367762
Si Si3 0.436016 0.720313 0.215339
Si Si4 0.735105 0.300513 0.854821
Si Si5 0.154175 0.910014 0.311333
Si Si6 0.341695 0.383868 0.560051
O O1 0.102024 0.417034 0.425664
O O2 0.064064 0.245335 0.320942
O O3 0.103805 0.190873 0.470353
O O4 0.000000 0.305913 0.451347
O O5 0.096829 0.602202 0.320235
O O6 0.192656 0.595069 0.392934
O O7 0.165809 0.420259 0.292285
O O8 0.500000 0.711985 0.186196
O O9 0.403901 0.837943 0.177916
O O10 0.750000 0.326584 0.750000
O O11 0.701872 0.173349 0.854392
O O12 0.789424 0.298636 0.916782
O O13 0.148997 0.044826 0.348215
O O14 0.328986 0.500000 0.500000
#
# Coordination Sequence:
#
# PCOD9477090 Si02
#       6
#    16  16  16  16  16  16
#     4  10  21  37  58  86 119 157 197 242 301 359
#     4  10  18  35  61  92 119 148 195 250 305 351
#     4   9  17  32  60  91 117 146 192 254 302 343
#     4  11  22  37  62  88 119 155 198 253 307 357
#     4  10  21  36  55  87 118 154 195 245 305 359
#     4  12  26  41  58  87 121 164 204 247 306 371
#
# _framework density 24.424087
#
# number of rings (size 3 to 8) (size 9 to 14) (size 15 to 20)
#    0.000    1.667    3.333    2.500    4.667    2.333 
#    0.000    0.000    0.000    0.000    0.000    3.500 
#    0.000    0.000    0.000    0.000    0.000    0.000 
#
# Total GULP energy -268346.046323 kJ/mol
# GULP energy per Si atom -5590.542632 kJ/mol
# Density = 2.436850 g / cm^3
# Si number density = 24.424087 Si / 1000 Ang^3
#
#
#
# Elastic Constant Matrix: (Units=GPa)
#
#
# Indices 1 2 3 4 5 6 
#
# 1 127.9166 41.7769 21.4501 0.0000 0.0000 0.0000
# 2 41.7769 104.2866 9.6806 0.0000 0.0000 0.0000
# 3 21.4501 9.6806 46.4899 0.0000 0.0000 0.0000
# 4 0.0000 0.0000 0.0000 28.5296 0.0000 0.0000
# 5 0.0000 0.0000 0.0000 0.0000 3.4091 0.0000
# 6 0.0000 0.0000 0.0000 0.0000 0.0000 -15.9842
#
#
#
# Elastic Compliance Matrix: (Units=1/GPa)
#
#
# Indices 1 2 3 4 5 6 
#
# 1 0.009578 -0.003494 -0.003692 0.000000 0.000000 0.000000
# 2 -0.003494 0.011053 -0.000689 0.000000 0.000000 0.000000
# 3 -0.003692 -0.000689 0.023357 0.000000 0.000000 0.000000
# 4 0.000000 0.000000 0.000000 0.035051 0.000000 0.000000
# 5 0.000000 0.000000 0.000000 0.000000 0.293333 0.000000
# 6 0.000000 0.000000 0.000000 0.000000 0.000000 -0.062562
#
#
# Mechanical properties :
#
#
# Convention : Reuss Voigt Hill
#
# Bulk Modulus (GPa) = 35.41418 47.16759 41.29089
# Shear Modulus (GPa) = 14.92660 16.90993 15.91827
#
# Velocity S-wave (km/s) = 2.47481 2.63410 2.55570
# Velocity P-wave (km/s) = 4.76418 5.34838 5.06471
#
# Compressibility (1/GPa) = 0.02823727
#
# Stress axis : x y z
#
# Youngs Moduli (GPa) = 104.40818 90.47563 42.81406
#
# Poissons Ratio (x) = 0.31614 0.15805
# Poissons Ratio (y) = 0.36482 0.02951
# Poissons Ratio (z) = 0.38543 0.06237
#
# Static dielectric constant tensor:
#      x y z
#    x 1.914870 0.000000 0.000000 
#    y 0.000000 1.880760 0.000000 
#    z 0.000000 0.000000 2.100450 
# 
# From -- ./inp_files/34913.got.cif
#   From: 2010.05.17/outbox.cif.g08.bks.cpg/sg64_18_cif.got.tgz:34913.got - 2010.06.03 16:29:19.
