data_PCOD9477231
_publ_section_title
;
Structure prediction by ZEFSAII (Michael W. Deem and Ramdas Pophale) SiO2 
 PCOD9477231
Probable space group: C M C A
;
_chemical_formula_sum "Si O2"
_cell_formula_units_Z 112
_cell_length_a 7.414041
_cell_length_b 26.699330
_cell_length_c 27.461792
_cell_angle_alpha 90.000000
_cell_angle_beta 90.000000
_cell_angle_gamma 90.000000
_cell_volume 5436.059730
_symmetry_space_group_name_H-M "C M C A"
_symmetry_group_IT_number 64
_symmetry_cell_setting 'orthorhombic'
loop_
_space_group_symop_operation_xyz
x,y,z
-x,1/2-y,1/2+z
x,-y,-z
-x,1/2+y,1/2-z
-x,-y,-z
x,1/2+y,1/2-z
-x,y,z
x,1/2-y,1/2+z
1/2+x,1/2+y,z
1/2-x,-y,1/2+z
1/2+x,1/2-y,-z
1/2-x,y,1/2-z
1/2-x,1/2-y,-z
1/2+x,y,1/2-z
1/2-x,1/2+y,z
1/2+x,-y,1/2+z
loop_
_atom_site_type_symbol
_atom_site_label
_atom_site_fract_x
_atom_site_fract_y
_atom_site_fract_z
Si Si1 0.213975 0.299241 0.386632
Si Si2 0.215449 0.009675 0.806993
Si Si3 0.720129 0.837888 0.490002
Si Si4 0.216343 0.378411 0.307352
Si Si5 0.218609 0.553501 0.482803
Si Si6 0.716395 0.687458 0.098940
Si Si7 0.780993 0.419347 0.627494
O O1 0.284664 0.311208 0.441016
O O2 0.284613 0.336017 0.344454
O O3 0.239678 0.240512 0.377715
O O4 0.000000 0.308271 0.388968
O O5 0.250000 0.003354 0.750000
O O6 0.284060 0.065451 0.820005
O O7 0.000000 0.010972 0.815349
O O8 0.286425 0.961405 0.835556
O O9 0.500000 0.835736 0.490747
O O10 0.773880 0.896422 0.488889
O O11 0.780380 0.815956 0.542360
O O12 0.250000 0.368686 0.250000
O O13 0.000000 0.379915 0.312101
O O14 0.286702 0.500000 0.500000
O O15 0.263207 0.562192 0.426666
O O16 0.000000 0.552370 0.486192
O O17 0.500000 0.683679 0.096443
O O18 0.780640 0.638414 0.128345
O O19 0.000000 0.418127 0.631856
#
# Coordination Sequence:
#
# PCOD9477231 Si02
#       7
#    16  16  16  16  16  16  16
#     4  10  19  30  47  70  94 122 157 194 229 267
#     4   9  17  31  50  70  92 118 149 188 233 278
#     4   8  15  26  41  65  96 123 152 187 222 268
#     4   9  19  33  49  69  93 118 149 191 236 276
#     4   8  13  20  36  64  94 119 143 177 223 270
#     4   9  17  31  47  67  96 128 155 184 224 271
#     4   8  15  27  44  65  91 119 147 183 226 267
#
# _framework density 20.603156999999999
#
# number of rings (size 3 to 8) (size 9 to 14) (size 15 to 20)
#    0.000    3.286    0.000    2.143    2.000    0.571 
#    0.000    1.429    0.000    3.429    0.000    0.000 
#    0.000    4.000    0.000    0.000    0.000    0.000 
#
# Total GULP energy -312196.904710 kJ/mol
# GULP energy per Si atom -5574.944727 kJ/mol
# Density = 2.055626 g / cm^3
# Si number density = 20.603157 Si / 1000 Ang^3
#
#
#
# Elastic Constant Matrix: (Units=GPa)
#
#
# Indices 1 2 3 4 5 6 
#
# 1 66.8305 1.3657 3.4209 0.0000 0.0000 0.0000
# 2 1.3657 211.4242 103.1026 0.0000 0.0000 0.0000
# 3 3.4209 103.1026 73.0248 0.0000 0.0000 0.0000
# 4 0.0000 0.0000 0.0000 39.0907 0.0000 0.0000
# 5 0.0000 0.0000 0.0000 0.0000 -7.7965 0.0000
# 6 0.0000 0.0000 0.0000 0.0000 0.0000 9.9157
#
#
#
# Elastic Compliance Matrix: (Units=1/GPa)
#
#
# Indices 1 2 3 4 5 6 
#
# 1 0.015040 0.000791 -0.001822 0.000000 0.000000 0.000000
# 2 0.000791 0.015226 -0.021535 0.000000 0.000000 0.000000
# 3 -0.001822 -0.021535 0.044184 0.000000 0.000000 0.000000
# 4 0.000000 0.000000 0.000000 0.025582 0.000000 0.000000
# 5 0.000000 0.000000 0.000000 0.000000 -0.128262 0.000000
# 6 0.000000 0.000000 0.000000 0.000000 0.000000 0.100850
#
#
# Mechanical properties :
#
#
# Convention : Reuss Voigt Hill
#
# Bulk Modulus (GPa) = 34.10629 63.00644 48.55637
# Shear Modulus (GPa) = 39.20799 24.46799 31.83799
#
# Velocity S-wave (km/s) = 4.36708 3.44987 3.93529
# Velocity P-wave (km/s) = 6.48216 6.82028 6.65337
#
# Compressibility (1/GPa) = 0.02932010
#
# Stress axis : x y z
#
# Youngs Moduli (GPa) = 66.48805 65.67520 22.63247
#
# Poissons Ratio (x) = -0.05196 0.04123
# Poissons Ratio (y) = -0.05260 0.48739
# Poissons Ratio (z) = 0.12111 1.41432
#
# Static dielectric constant tensor:
#      x y z
#    x 1.808330 0.000000 0.000000 
#    y 0.000000 1.756800 0.000000 
#    z 0.000000 0.000000 1.695270 
# 
# From -- ./inp_files/44546.got.cif
#   From: 2010.05.17/outbox.cif.g08.bks.cpg/sg64_23_cif.got.tgz:44546.got - 2010.06.03 16:29:19.
