data_PCOD9477003
_publ_section_title
;
Structure prediction by ZEFSAII (Michael W. Deem and Ramdas Pophale) SiO2 
 PCOD9477003
Probable space group: C M C A
;
_chemical_formula_sum "Si O2"
_cell_formula_units_Z 116
_cell_length_a 25.908294
_cell_length_b 18.002058
_cell_length_c 11.650340
_cell_angle_alpha 90.000000
_cell_angle_beta 90.000000
_cell_angle_gamma 90.000000
_cell_volume 5433.748998
_symmetry_space_group_name_H-M "C M C A"
_symmetry_group_IT_number 64
_symmetry_cell_setting 'orthorhombic'
loop_
_space_group_symop_operation_xyz
x,y,z
-x,1/2-y,1/2+z
x,-y,-z
-x,1/2+y,1/2-z
-x,-y,-z
x,1/2+y,1/2-z
-x,y,z
x,1/2-y,1/2+z
1/2+x,1/2+y,z
1/2-x,-y,1/2+z
1/2+x,1/2-y,-z
1/2-x,y,1/2-z
1/2-x,1/2-y,-z
1/2+x,y,1/2-z
1/2-x,1/2+y,z
1/2+x,-y,1/2+z
loop_
_atom_site_type_symbol
_atom_site_label
_atom_site_fract_x
_atom_site_fract_y
_atom_site_fract_z
Si Si1 0.438668 0.580070 0.057741
Si Si2 0.500000 0.500000 0.500000
Si Si3 0.274125 0.378110 0.991604
Si Si4 0.128346 0.299785 0.418447
Si Si5 0.207942 0.000334 0.834814
Si Si6 0.625140 0.397923 0.291074
Si Si7 0.919000 0.958348 0.679438
Si Si8 0.157717 0.863160 0.548811
O O1 0.500000 0.588520 0.036414
O O2 0.430707 0.576445 0.196071
O O3 0.423071 0.500000 0.000000
O O4 0.408144 0.648085 0.997330
O O5 0.455931 0.450819 0.570421
O O6 0.312489 0.318108 0.043629
O O7 0.261516 0.439040 0.088921
O O8 0.219670 0.353241 0.940003
O O9 0.308684 0.429452 0.907411
O O10 0.118996 0.326638 0.288252
O O11 0.125638 0.211604 0.426294
O O12 0.250000 0.969793 0.750000
O O13 0.163453 0.048365 0.779753
O O14 0.576599 0.452251 0.301317
O O15 0.646740 0.381641 0.416056
O O16 0.864385 0.927178 0.631862
#
# Coordination Sequence:
#
# PCOD9477003 Si02
#       8
#    16   4  16  16  16  16  16  16
#     4  11  24  47  75 101 133 176 233 289 349 410
#     4  12  24  44  70 112 128 168 230 312 336 404
#     4  10  22  38  62  96 134 178 226 277 337 404
#     4  11  26  43  65 103 140 181 228 283 344 424
#     4  10  18  33  61  91 122 171 234 273 317 385
#     4  11  22  42  65  95 136 180 228 290 335 410
#     4  12  24  44  73 103 131 175 238 287 346 408
#     4  12  25  42  67  99 146 186 222 281 357 419
#
# _framework density 21.348061000000001
#
# number of rings (size 3 to 8) (size 9 to 14) (size 15 to 20)
#    0.000    0.966    4.828    2.069    5.793    0.000 
#    1.241    0.000    0.000    0.000    0.000    0.000 
#    0.000    0.000    0.000    0.000    0.000    0.000 
#
# Total GULP energy -322983.336164 kJ/mol
# GULP energy per Si atom -5568.678210 kJ/mol
# Density = 2.129947 g / cm^3
# Si number density = 21.348061 Si / 1000 Ang^3
#
#
#
# Elastic Constant Matrix: (Units=GPa)
#
#
# Indices 1 2 3 4 5 6 
#
# 1 72.2393 8.7115 11.9303 0.0000 0.0000 0.0000
# 2 8.7115 90.0462 26.9112 0.0000 0.0000 0.0000
# 3 11.9303 26.9112 99.1578 0.0000 0.0000 0.0000
# 4 0.0000 0.0000 0.0000 16.5133 0.0000 0.0000
# 5 0.0000 0.0000 0.0000 0.0000 -2.0824 0.0000
# 6 0.0000 0.0000 0.0000 0.0000 0.0000 15.7787
#
#
#
# Elastic Compliance Matrix: (Units=1/GPa)
#
#
# Indices 1 2 3 4 5 6 
#
# 1 0.014196 -0.000939 -0.001453 0.000000 0.000000 0.000000
# 2 -0.000939 0.012148 -0.003184 0.000000 0.000000 0.000000
# 3 -0.001453 -0.003184 0.011124 0.000000 0.000000 0.000000
# 4 0.000000 0.000000 0.000000 0.060557 0.000000 0.000000
# 5 0.000000 0.000000 0.000000 0.000000 -0.480218 0.000000
# 6 0.000000 0.000000 0.000000 0.000000 0.000000 0.063377
#
#
# Mechanical properties :
#
#
# Convention : Reuss Voigt Hill
#
# Bulk Modulus (GPa) = 38.00046 39.61659 38.80852
# Shear Modulus (GPa) = -16.72843 20.30128 1.78642
#
# Velocity S-wave (km/s) = -2.80233 3.08712 0.91576
# Velocity P-wave (km/s) = 2.71447 5.59507 4.39734
#
# Compressibility (1/GPa) = 0.02631547
#
# Stress axis : x y z
#
# Youngs Moduli (GPa) = 70.44185 82.31940 89.89670
#
# Poissons Ratio (x) = 0.07731 0.13063
# Poissons Ratio (y) = 0.06615 0.28622
# Poissons Ratio (z) = 0.10236 0.26210
#
# Static dielectric constant tensor:
#      x y z
#    x 1.736140 0.000000 0.000000 
#    y 0.000000 1.760600 0.000000 
#    z 0.000000 0.000000 1.843460 
# 
# From -- ./inp_files/19260.got.cif
#   From: 2010.05.17/outbox.cif.g08.bks.cpg/sg64_10_cif.got.tgz:19260.got - 2010.06.03 16:29:19.
