data_PCOD9477279
_publ_section_title
;
Structure prediction by ZEFSAII (Michael W. Deem and Ramdas Pophale) SiO2 
 PCOD9477279
Probable space group: C M C A
;
_chemical_formula_sum "Si O2"
_cell_formula_units_Z 96
_cell_length_a 8.736680
_cell_length_b 28.159298
_cell_length_c 24.441234
_cell_angle_alpha 90.000000
_cell_angle_beta 90.000000
_cell_angle_gamma 90.000000
_cell_volume 6013.002464
_symmetry_space_group_name_H-M "C M C A"
_symmetry_group_IT_number 64
_symmetry_cell_setting 'orthorhombic'
loop_
_space_group_symop_operation_xyz
x,y,z
-x,1/2-y,1/2+z
x,-y,-z
-x,1/2+y,1/2-z
-x,-y,-z
x,1/2+y,1/2-z
-x,y,z
x,1/2-y,1/2+z
1/2+x,1/2+y,z
1/2-x,-y,1/2+z
1/2+x,1/2-y,-z
1/2-x,y,1/2-z
1/2-x,1/2-y,-z
1/2+x,y,1/2-z
1/2-x,1/2+y,z
1/2+x,-y,1/2+z
loop_
_atom_site_type_symbol
_atom_site_label
_atom_site_fract_x
_atom_site_fract_y
_atom_site_fract_z
Si Si1 0.316660 0.181444 0.808940
Si Si2 0.815598 0.482194 0.082014
Si Si3 0.684130 0.820217 0.525928
Si Si4 0.817196 0.732260 0.586121
Si Si5 0.184084 0.071256 0.691475
Si Si6 0.815893 0.929843 0.976527
O O1 0.500000 0.183332 0.807182
O O2 0.250000 0.195738 0.750000
O O3 0.255728 0.213048 0.858422
O O4 0.269626 0.126241 0.818231
O O5 0.768693 0.461247 0.140607
O O6 0.749352 0.534057 0.068605
O O7 0.000000 0.483229 0.078735
O O8 0.752047 0.448273 0.034013
O O9 0.500000 0.816084 0.530576
O O10 0.760448 0.784349 0.568623
O O11 0.726753 0.801788 0.465101
O O12 0.726277 0.875120 0.532928
O O13 0.000000 0.731694 0.590872
O O14 0.250000 0.056329 0.750000
O O15 0.000000 0.070335 0.694380
O O16 0.000000 0.933611 0.978533
#
# Coordination Sequence:
#
# PCOD9477279 Si02
#       6
#    16  16  16  16  16  16
#     4  10  19  32  49  70  97 126 157 192 232 278
#     4  10  19  31  47  70  98 125 155 193 237 280
#     4   9  19  33  48  69  97 126 157 194 234 280
#     4  10  19  31  49  72  96 124 157 193 236 281
#     4   9  19  32  48  70  95 125 157 191 232 277
#     4  10  19  31  48  70  95 126 160 192 231 277
#
# _framework density 15.965401
#
# number of rings (size 3 to 8) (size 9 to 14) (size 15 to 20)
#    0.000    2.333    0.000    4.000    0.000    4.000 
#    0.000    0.000    0.000    1.000    0.000    2.333 
#    0.000    0.000    0.000    0.000    0.000    0.000 
#
# Total GULP energy -267802.210731 kJ/mol
# GULP energy per Si atom -5579.212724 kJ/mol
# Density = 1.592906 g / cm^3
# Si number density = 15.965401 Si / 1000 Ang^3
#
#
#
# Elastic Constant Matrix: (Units=GPa)
#
#
# Indices 1 2 3 4 5 6 
#
# 1 46.3283 47.1094 46.5363 0.0000 0.0000 0.0000
# 2 47.1094 135.8771 91.5923 0.0000 0.0000 0.0000
# 3 46.5363 91.5923 150.1045 0.0000 0.0000 0.0000
# 4 0.0000 0.0000 0.0000 23.1653 0.0000 0.0000
# 5 0.0000 0.0000 0.0000 0.0000 29.0039 0.0000
# 6 0.0000 0.0000 0.0000 0.0000 0.0000 24.7485
#
#
#
# Elastic Compliance Matrix: (Units=1/GPa)
#
#
# Indices 1 2 3 4 5 6 
#
# 1 0.036334 -0.008500 -0.006078 0.000000 0.000000 0.000000
# 2 -0.008500 0.014490 -0.006207 0.000000 0.000000 0.000000
# 3 -0.006078 -0.006207 0.012333 0.000000 0.000000 0.000000
# 4 0.000000 0.000000 0.000000 0.043168 0.000000 0.000000
# 5 0.000000 0.000000 0.000000 0.000000 0.034478 0.000000
# 6 0.000000 0.000000 0.000000 0.000000 0.000000 0.040407
#
#
# Mechanical properties :
#
#
# Convention : Reuss Voigt Hill
#
# Bulk Modulus (GPa) = 46.32092 78.08732 62.20412
# Shear Modulus (GPa) = 21.74148 25.18834 23.46491
#
# Velocity S-wave (km/s) = 3.69424 3.97631 3.83787
# Velocity P-wave (km/s) = 6.87553 8.37245 7.66064
#
# Compressibility (1/GPa) = 0.02158852
#
# Stress axis : x y z
#
# Youngs Moduli (GPa) = 27.52280 69.01085 81.08033
#
# Poissons Ratio (x) = 0.58661 0.49277
# Poissons Ratio (y) = 0.23395 0.50324
# Poissons Ratio (z) = 0.16727 0.42833
#
# Static dielectric constant tensor:
#      x y z
#    x 1.537040 0.000000 0.000000 
#    y 0.000000 1.524500 0.000000 
#    z 0.000000 0.000000 1.509480 
# 
# From -- ./inp_files/43176.got.cif
#   From: 2010.05.17/outbox.cif.g08.bks.cpg/sg64_22_cif.got.tgz:43176.got - 2010.06.03 16:29:19.
