data_PCOD9477847
_publ_section_title
;
Structure prediction by ZEFSAII (Michael W. Deem and Ramdas Pophale) SiO2 
 PCOD9477847
Probable space group: C M C A
;
_chemical_formula_sum "Si O2"
_cell_formula_units_Z 96
_cell_length_a 23.822673
_cell_length_b 18.944275
_cell_length_c 11.600858
_cell_angle_alpha 90.000000
_cell_angle_beta 90.000000
_cell_angle_gamma 90.000000
_cell_volume 5235.505133
_symmetry_space_group_name_H-M "C M C A"
_symmetry_group_IT_number 64
_symmetry_cell_setting 'orthorhombic'
loop_
_space_group_symop_operation_xyz
x,y,z
-x,1/2-y,1/2+z
x,-y,-z
-x,1/2+y,1/2-z
-x,-y,-z
x,1/2+y,1/2-z
-x,y,z
x,1/2-y,1/2+z
1/2+x,1/2+y,z
1/2-x,-y,1/2+z
1/2+x,1/2-y,-z
1/2-x,y,1/2-z
1/2-x,1/2-y,-z
1/2+x,y,1/2-z
1/2-x,1/2+y,z
1/2+x,-y,1/2+z
loop_
_atom_site_type_symbol
_atom_site_label
_atom_site_fract_x
_atom_site_fract_y
_atom_site_fract_z
Si Si1 0.306074 0.577269 0.965121
Si Si2 0.704170 0.323272 0.397668
Si Si3 0.803753 0.833430 0.815667
Si Si4 0.500000 0.314057 0.270883
Si Si5 0.377661 0.702656 0.393912
Si Si6 0.117854 0.358830 0.302680
Si Si7 0.000000 0.708756 0.043566
O O1 0.257307 0.625937 0.909579
O O2 0.359478 0.577654 0.880459
O O3 0.286061 0.500000 0.000000
O O4 0.321877 0.617545 0.081245
O O5 0.717648 0.242217 0.364829
O O6 0.668966 0.320241 0.514970
O O7 0.662543 0.349109 0.298699
O O8 0.750000 0.864828 0.750000
O O9 0.855549 0.821277 0.730266
O O10 0.443435 0.359002 0.253681
O O11 0.500000 0.263679 0.155307
O O12 0.500000 0.278531 0.401233
O O13 0.379584 0.788090 0.382939
O O14 0.438703 0.675341 0.433286
#
# Coordination Sequence:
#
# PCOD9477847 Si02
#       7
#    16  16  16   8  16  16   8
#     4  12  25  39  56  86 121 159 202 252 304 368
#     4  11  19  37  60  85 118 153 193 244 304 356
#     4  11  21  35  60  86 116 154 199 245 301 367
#     4  10  20  34  61  89 129 162 203 250 309 365
#     4  10  19  34  61  88 119 149 191 247 296 359
#     4  10  21  36  58  88 118 157 198 243 301 365
#     4  10  20  34  56  99 126 156 198 258 314 359
#
# _framework density 18.33634
#
# number of rings (size 3 to 8) (size 9 to 14) (size 15 to 20)
#    0.000    1.333    5.000    3.000    0.000    1.333 
#    0.000    0.417    0.000    0.000    0.000    2.333 
#    0.000    0.000    0.000    0.000    0.000    0.000 
#
# Total GULP energy -267418.111593 kJ/mol
# GULP energy per Si atom -5571.210658 kJ/mol
# Density = 1.829461 g / cm^3
# Si number density = 18.336340 Si / 1000 Ang^3
#
#
#
# Elastic Constant Matrix: (Units=GPa)
#
#
# Indices 1 2 3 4 5 6 
#
# 1 111.8453 16.2495 48.7951 0.0000 0.0000 0.0000
# 2 16.2495 42.9598 33.9392 0.0000 0.0000 0.0000
# 3 48.7951 33.9392 108.8399 0.0000 0.0000 0.0000
# 4 0.0000 0.0000 0.0000 2.8224 0.0000 0.0000
# 5 0.0000 0.0000 0.0000 0.0000 22.9917 0.0000
# 6 0.0000 0.0000 0.0000 0.0000 0.0000 2.5297
#
#
#
# Elastic Compliance Matrix: (Units=1/GPa)
#
#
# Indices 1 2 3 4 5 6 
#
# 1 0.011119 -0.000355 -0.004874 0.000000 0.000000 0.000000
# 2 -0.000355 0.030898 -0.009476 0.000000 0.000000 0.000000
# 3 -0.004874 -0.009476 0.014328 0.000000 0.000000 0.000000
# 4 0.000000 0.000000 0.000000 0.354305 0.000000 0.000000
# 5 0.000000 0.000000 0.000000 0.000000 0.043494 0.000000
# 6 0.000000 0.000000 0.000000 0.000000 0.000000 0.395303
#
#
# Mechanical properties :
#
#
# Convention : Reuss Voigt Hill
#
# Bulk Modulus (GPa) = 37.12648 51.29027 44.20838
# Shear Modulus (GPa) = 5.63168 16.64618 11.13893
#
# Velocity S-wave (km/s) = 1.75442 3.01628 2.46738
# Velocity P-wave (km/s) = 4.93917 6.33745 5.68149
#
# Compressibility (1/GPa) = 0.02693495
#
# Stress axis : x y z
#
# Youngs Moduli (GPa) = 89.93641 32.36476 69.79482
#
# Poissons Ratio (x) = 0.01149 0.34019
# Poissons Ratio (y) = 0.03193 0.66135
# Poissons Ratio (z) = 0.43836 0.30667
#
# Static dielectric constant tensor:
#      x y z
#    x 1.657660 0.000000 0.000000 
#    y 0.000000 1.618980 0.000000 
#    z 0.000000 0.000000 1.691980 
# 
# From -- ./inp_files/18389.got.cif
#   From: 2010.05.17/outbox.cif.g08.bks.cpg/sg64_10_cif.got.tgz:18389.got - 2010.06.03 16:29:19.
