data_PCOD9477775
_publ_section_title
;
Structure prediction by ZEFSAII (Michael W. Deem and Ramdas Pophale) SiO2 
 PCOD9477775
Probable space group: C M C A
;
_chemical_formula_sum "Si O2"
_cell_formula_units_Z 80
_cell_length_a 15.323122
_cell_length_b 23.392070
_cell_length_c 11.803128
_cell_angle_alpha 90.000000
_cell_angle_beta 90.000000
_cell_angle_gamma 90.000000
_cell_volume 4230.707800
_symmetry_space_group_name_H-M "C M C A"
_symmetry_group_IT_number 64
_symmetry_cell_setting 'orthorhombic'
loop_
_space_group_symop_operation_xyz
x,y,z
-x,1/2-y,1/2+z
x,-y,-z
-x,1/2+y,1/2-z
-x,-y,-z
x,1/2+y,1/2-z
-x,y,z
x,1/2-y,1/2+z
1/2+x,1/2+y,z
1/2-x,-y,1/2+z
1/2+x,1/2-y,-z
1/2-x,y,1/2-z
1/2-x,1/2-y,-z
1/2+x,y,1/2-z
1/2-x,1/2+y,z
1/2+x,-y,1/2+z
loop_
_atom_site_type_symbol
_atom_site_label
_atom_site_fract_x
_atom_site_fract_y
_atom_site_fract_z
Si Si1 0.212132 0.814294 0.484741
Si Si2 0.322383 0.868231 0.662524
Si Si3 0.101160 0.278449 0.815292
Si Si4 0.500000 0.567107 0.123905
Si Si5 0.401112 0.840965 0.229763
Si Si6 0.000000 0.066169 0.852056
O O1 0.250000 0.750000 0.500000
O O2 0.280630 0.858496 0.539625
O O3 0.132094 0.810980 0.573665
O O4 0.172343 0.834153 0.365522
O O5 0.250000 0.891714 0.750000
O O6 0.346036 0.805282 0.711077
O O7 0.411164 0.903192 0.664105
O O8 0.115555 0.210422 0.818372
O O9 0.000000 0.288394 0.796033
O O10 0.500000 0.501488 0.163873
O O11 0.500000 0.573431 0.987255
O O12 0.500000 0.828935 0.181169
O O13 0.417874 0.900563 0.294394
#
# Coordination Sequence:
#
# PCOD9477775 Si02
#       6
#    16  16  16   8  16   8
#     4  11  21  32  55  94 136 157 194 260 329 404
#     4  10  22  37  62  92 121 168 204 258 331 402
#     4  10  19  34  56  87 121 166 202 241 321 400
#     4  11  22  47  65  81 121 167 225 268 324 365
#     4   9  20  37  56  89 128 164 210 251 320 387
#     4   9  24  41  65  87 111 171 227 272 304 380
#
# _framework density 18.909365000000001
#
# number of rings (size 3 to 8) (size 9 to 14) (size 15 to 20)
#    0.600    1.400    3.000    0.600    2.800    0.000 
#    0.000    4.000    0.000    8.400    0.000    0.000 
#    0.000    0.000    0.000    0.000    0.000    0.000 
#
# Total GULP energy -222808.927704 kJ/mol
# GULP energy per Si atom -5570.223193 kJ/mol
# Density = 1.886633 g / cm^3
# Si number density = 18.909365 Si / 1000 Ang^3
#
#
#
# Elastic Constant Matrix: (Units=GPa)
#
#
# Indices 1 2 3 4 5 6 
#
# 1 121.3166 53.0668 38.6015 0.0000 0.0000 0.0000
# 2 53.0668 115.9074 38.6686 0.0000 0.0000 0.0000
# 3 38.6015 38.6686 66.8326 0.0000 0.0000 0.0000
# 4 0.0000 0.0000 0.0000 21.1139 0.0000 0.0000
# 5 0.0000 0.0000 0.0000 0.0000 37.8556 0.0000
# 6 0.0000 0.0000 0.0000 0.0000 0.0000 14.5255
#
#
#
# Elastic Compliance Matrix: (Units=1/GPa)
#
#
# Indices 1 2 3 4 5 6 
#
# 1 0.011246 -0.003695 -0.004357 0.000000 0.000000 0.000000
# 2 -0.003695 0.011905 -0.004754 0.000000 0.000000 0.000000
# 3 -0.004357 -0.004754 0.020230 0.000000 0.000000 0.000000
# 4 0.000000 0.000000 0.000000 0.047362 0.000000 0.000000
# 5 0.000000 0.000000 0.000000 0.000000 0.026416 0.000000
# 6 0.000000 0.000000 0.000000 0.000000 0.000000 0.068844
#
#
# Mechanical properties :
#
#
# Convention : Reuss Voigt Hill
#
# Bulk Modulus (GPa) = 56.28056 62.74781 59.51418
# Shear Modulus (GPa) = 22.98431 26.28032 24.63232
#
# Velocity S-wave (km/s) = 3.49018 3.73205 3.61314
# Velocity P-wave (km/s) = 6.78747 7.19906 6.99629
#
# Compressibility (1/GPa) = 0.01776813
#
# Stress axis : x y z
#
# Youngs Moduli (GPa) = 88.92320 83.99595 49.43088
#
# Poissons Ratio (x) = 0.31036 0.21539
# Poissons Ratio (y) = 0.32857 0.23500
# Poissons Ratio (z) = 0.38748 0.39933
#
# Static dielectric constant tensor:
#      x y z
#    x 1.698650 0.000000 0.000000 
#    y 0.000000 1.644020 0.000000 
#    z 0.000000 0.000000 1.689790 
# 
# From -- ./inp_files/14505.got.cif
#   From: 2010.05.17/outbox.cif.g08.bks.cpg/sg64_8_cif.got.tgz:14505.got - 2010.06.03 16:29:19.
