data_PCOD9477856
_publ_section_title
;
Structure prediction by ZEFSAII (Michael W. Deem and Ramdas Pophale) SiO2 
 PCOD9477856
Probable space group: C M C A
;
_chemical_formula_sum "Si O2"
_cell_formula_units_Z 112
_cell_length_a 17.679593
_cell_length_b 24.124135
_cell_length_c 11.775125
_cell_angle_alpha 90.000000
_cell_angle_beta 90.000000
_cell_angle_gamma 90.000000
_cell_volume 5022.148373
_symmetry_space_group_name_H-M "C M C A"
_symmetry_group_IT_number 64
_symmetry_cell_setting 'orthorhombic'
loop_
_space_group_symop_operation_xyz
x,y,z
-x,1/2-y,1/2+z
x,-y,-z
-x,1/2+y,1/2-z
-x,-y,-z
x,1/2+y,1/2-z
-x,y,z
x,1/2-y,1/2+z
1/2+x,1/2+y,z
1/2-x,-y,1/2+z
1/2+x,1/2-y,-z
1/2-x,y,1/2-z
1/2-x,1/2-y,-z
1/2+x,y,1/2-z
1/2-x,1/2+y,z
1/2+x,-y,1/2+z
loop_
_atom_site_type_symbol
_atom_site_label
_atom_site_fract_x
_atom_site_fract_y
_atom_site_fract_z
Si Si1 0.911876 0.204806 0.187547
Si Si2 0.917377 0.890490 0.988651
Si Si3 0.660748 0.869324 0.872255
Si Si4 0.414954 0.534162 0.237480
Si Si5 0.731451 0.563900 0.995937
Si Si6 0.167948 0.575487 0.793715
Si Si7 0.911354 0.672582 0.896118
O O1 0.912232 0.168858 0.071858
O O2 0.853720 0.176379 0.274620
O O3 0.893688 0.267806 0.157714
O O4 0.000000 0.201094 0.230914
O O5 0.913926 0.934262 0.883388
O O6 0.840984 0.903643 0.054959
O O7 0.000000 0.896816 0.043942
O O8 0.608096 0.920140 0.830393
O O9 0.741636 0.899823 0.894955
O O10 0.634666 0.839801 0.988640
O O11 0.500000 0.514732 0.258675
O O12 0.360516 0.481742 0.241466
O O13 0.708471 0.500000 0.000000
O O14 0.807845 0.560887 0.923175
O O15 0.250000 0.593573 0.750000
O O16 0.108990 0.624755 0.805983
O O17 0.000000 0.671491 0.923589
#
# Coordination Sequence:
#
# PCOD9477856 Si02
#       7
#    16  16  16  16  16  16  16
#     4   9  19  39  62  88 122 164 207 248 299 361
#     4   9  20  38  61  88 117 157 210 250 290 368
#     4  10  20  36  63  96 122 153 201 255 307 370
#     4  10  19  34  62  90 118 158 200 250 306 366
#     4  11  21  37  58  91 122 157 197 247 320 359
#     4  11  23  39  54  84 127 160 199 253 309 368
#     4  10  21  39  62  88 122 159 201 256 306 360
#
# _framework density 22.301213000000001
#
# number of rings (size 3 to 8) (size 9 to 14) (size 15 to 20)
#    0.000    2.000    1.429    3.429    0.000    2.000 
#    5.143    5.000    0.000    0.000    0.000    0.000 
#    0.000    0.000    0.000    0.000    0.000    0.000 
#
# Total GULP energy -312513.114777 kJ/mol
# GULP energy per Si atom -5580.591335 kJ/mol
# Density = 2.225045 g / cm^3
# Si number density = 22.301213 Si / 1000 Ang^3
#
#
#
# Elastic Constant Matrix: (Units=GPa)
#
#
# Indices 1 2 3 4 5 6 
#
# 1 83.8657 31.4387 17.4508 0.0000 0.0000 0.0000
# 2 31.4387 143.4052 29.3958 0.0000 0.0000 0.0000
# 3 17.4508 29.3958 44.8395 0.0000 0.0000 0.0000
# 4 0.0000 0.0000 0.0000 23.1477 0.0000 0.0000
# 5 0.0000 0.0000 0.0000 0.0000 30.3067 0.0000
# 6 0.0000 0.0000 0.0000 0.0000 0.0000 28.9492
#
#
#
# Elastic Compliance Matrix: (Units=1/GPa)
#
#
# Indices 1 2 3 4 5 6 
#
# 1 0.013541 -0.002181 -0.003840 0.000000 0.000000 0.000000
# 2 -0.002181 0.008407 -0.004663 0.000000 0.000000 0.000000
# 3 -0.003840 -0.004663 0.026853 0.000000 0.000000 0.000000
# 4 0.000000 0.000000 0.000000 0.043201 0.000000 0.000000
# 5 0.000000 0.000000 0.000000 0.000000 0.032996 0.000000
# 6 0.000000 0.000000 0.000000 0.000000 0.000000 0.034543
#
#
# Mechanical properties :
#
#
# Convention : Reuss Voigt Hill
#
# Bulk Modulus (GPa) = 36.45222 47.63122 42.04172
# Shear Modulus (GPa) = 26.30851 29.40239 27.85545
#
# Velocity S-wave (km/s) = 3.43839 3.63495 3.53803
# Velocity P-wave (km/s) = 5.66959 6.24673 5.96514
#
# Compressibility (1/GPa) = 0.02743317
#
# Stress axis : x y z
#
# Youngs Moduli (GPa) = 73.85234 118.94500 37.24000
#
# Poissons Ratio (x) = 0.25947 0.14299
# Poissons Ratio (y) = 0.16110 0.17364
# Poissons Ratio (z) = 0.28357 0.55460
#
# Static dielectric constant tensor:
#      x y z
#    x 1.845270 0.000000 0.000000 
#    y 0.000000 1.766920 0.000000 
#    z 0.000000 0.000000 2.000980 
# 
# From -- ./inp_files/24289.got.cif
#   From: 2010.05.17/outbox.cif.g08.bks.cpg/sg64_13_cif.got.tgz:24289.got - 2010.06.03 16:29:19.
