data_PCOD9477163
_publ_section_title
;
Structure prediction by ZEFSAII (Michael W. Deem and Ramdas Pophale) SiO2 
 PCOD9477163
Probable space group: C M C A
;
_chemical_formula_sum "Si O2"
_cell_formula_units_Z 56
_cell_length_a 9.819106
_cell_length_b 10.540074
_cell_length_c 19.634229
_cell_angle_alpha 90.000000
_cell_angle_beta 90.000000
_cell_angle_gamma 90.000000
_cell_volume 2032.026935
_symmetry_space_group_name_H-M "C M C A"
_symmetry_group_IT_number 64
_symmetry_cell_setting 'orthorhombic'
loop_
_space_group_symop_operation_xyz
x,y,z
-x,1/2-y,1/2+z
x,-y,-z
-x,1/2+y,1/2-z
-x,-y,-z
x,1/2+y,1/2-z
-x,y,z
x,1/2-y,1/2+z
1/2+x,1/2+y,z
1/2-x,-y,1/2+z
1/2+x,1/2-y,-z
1/2-x,y,1/2-z
1/2-x,1/2-y,-z
1/2+x,y,1/2-z
1/2-x,1/2+y,z
1/2+x,-y,1/2+z
loop_
_atom_site_type_symbol
_atom_site_label
_atom_site_fract_x
_atom_site_fract_y
_atom_site_fract_z
Si Si1 0.500000 0.026458 0.078984
Si Si2 0.500000 0.947428 0.218928
Si Si3 0.761318 0.274580 0.895656
Si Si4 0.750000 0.867205 0.750000
Si Si5 0.500000 0.397526 0.136066
Si Si6 0.500000 0.378566 0.948486
O O1 0.500000 0.918875 0.138086
O O2 0.365538 0.109904 0.091691
O O3 0.500000 0.000000 0.000000
O O4 0.628583 0.038056 0.231563
O O5 0.500000 0.855474 0.284671
O O6 0.717102 0.284182 0.816489
O O7 0.861990 0.154709 0.897886
O O8 0.635472 0.293458 0.946602
O O9 0.500000 0.546479 0.123705
O O10 0.500000 0.500000 0.000000
#
# Coordination Sequence:
#
# PCOD9477163 Si02
#       6
#     8   8  16   8   8   8
#     4   9  19  39  69 101 142 193 231 293 368 424
#     4  10  20  37  69  98 136 183 227 291 355 417
#     4  10  22  41  71  99 140 179 235 300 342 424
#     4  10  18  40  66  96 132 172 230 292 346 398
#     4  11  24  44  68 101 138 181 239 286 361 421
#     4  12  25  46  73 100 146 189 230 296 358 428
#
# _framework density 27.558693000000002
#
# number of rings (size 3 to 8) (size 9 to 14) (size 15 to 20)
#    0.000    1.714    2.857    1.714    0.000    2.286 
#    0.000    4.286    0.000    0.000    0.000    0.000 
#    0.000    0.000    0.000    0.000    0.000    0.000 
#
# Total GULP energy -156898.695680 kJ/mol
# GULP energy per Si atom -5603.524846 kJ/mol
# Density = 2.749597 g / cm^3
# Si number density = 27.558693 Si / 1000 Ang^3
#
#
#
# Elastic Constant Matrix: (Units=GPa)
#
#
# Indices 1 2 3 4 5 6 
#
# 1 196.8573 43.5412 30.7235 0.0000 0.0000 0.0000
# 2 43.5412 66.3517 28.9828 0.0000 0.0000 0.0000
# 3 30.7235 28.9828 192.5614 0.0000 0.0000 0.0000
# 4 0.0000 0.0000 0.0000 46.2051 0.0000 0.0000
# 5 0.0000 0.0000 0.0000 0.0000 33.9327 0.0000
# 6 0.0000 0.0000 0.0000 0.0000 0.0000 38.7460
#
#
#
# Elastic Compliance Matrix: (Units=1/GPa)
#
#
# Indices 1 2 3 4 5 6 
#
# 1 0.005969 -0.003748 -0.000388 0.000000 0.000000 0.000000
# 2 -0.003748 0.018484 -0.002184 0.000000 0.000000 0.000000
# 3 -0.000388 -0.002184 0.005584 0.000000 0.000000 0.000000
# 4 0.000000 0.000000 0.000000 0.021643 0.000000 0.000000
# 5 0.000000 0.000000 0.000000 0.000000 0.029470 0.000000
# 6 0.000000 0.000000 0.000000 0.000000 0.000000 0.025809
#
#
# Mechanical properties :
#
#
# Convention : Reuss Voigt Hill
#
# Bulk Modulus (GPa) = 57.47972 73.58503 65.53238
# Shear Modulus (GPa) = 39.87277 47.27829 43.57553
#
# Velocity S-wave (km/s) = 3.80785 4.14641 3.98073
# Velocity P-wave (km/s) = 6.34314 7.04860 6.70516
#
# Compressibility (1/GPa) = 0.01739744
#
# Stress axis : x y z
#
# Youngs Moduli (GPa) = 167.52329 54.09946 179.08755
#
# Poissons Ratio (x) = 0.20274 0.06955
# Poissons Ratio (y) = 0.62780 0.39116
# Poissons Ratio (z) = 0.06506 0.11816
#
# Static dielectric constant tensor:
#      x y z
#    x 2.100740 0.000000 0.000000 
#    y 0.000000 2.071500 0.000000 
#    z 0.000000 0.000000 2.267280 
# 
# From -- ./inp_files/37694.got.cif
#   From: 2010.05.17/outbox.cif.g08.bks.cpg/sg64_19_cif.got.tgz:37694.got - 2010.06.03 16:29:19.
