data_PCOD9477212
_publ_section_title
;
Structure prediction by ZEFSAII (Michael W. Deem and Ramdas Pophale) SiO2 
 PCOD9477212
Probable space group: C M C A
;
_chemical_formula_sum "Si O2"
_cell_formula_units_Z 96
_cell_length_a 9.792678
_cell_length_b 14.179794
_cell_length_c 32.079867
_cell_angle_alpha 90.000000
_cell_angle_beta 90.000000
_cell_angle_gamma 90.000000
_cell_volume 4454.551200
_symmetry_space_group_name_H-M "C M C A"
_symmetry_group_IT_number 64
_symmetry_cell_setting 'orthorhombic'
loop_
_space_group_symop_operation_xyz
x,y,z
-x,1/2-y,1/2+z
x,-y,-z
-x,1/2+y,1/2-z
-x,-y,-z
x,1/2+y,1/2-z
-x,y,z
x,1/2-y,1/2+z
1/2+x,1/2+y,z
1/2-x,-y,1/2+z
1/2+x,1/2-y,-z
1/2-x,y,1/2-z
1/2-x,1/2-y,-z
1/2+x,y,1/2-z
1/2-x,1/2+y,z
1/2+x,-y,1/2+z
loop_
_atom_site_type_symbol
_atom_site_label
_atom_site_fract_x
_atom_site_fract_y
_atom_site_fract_z
Si Si1 0.153206 0.481336 0.045597
Si Si2 0.343475 0.742299 0.288510
Si Si3 0.342149 0.246776 0.117333
Si Si4 0.655262 0.742814 0.540909
Si Si5 0.156507 0.976705 0.119792
Si Si6 0.656170 0.528063 0.787649
O O1 0.141173 0.368866 0.048761
O O2 0.245342 0.512149 0.083784
O O3 0.000000 0.522876 0.046408
O O4 0.214489 0.500000 0.000000
O O5 0.500000 0.711185 0.282949
O O6 0.250000 0.712196 0.250000
O O7 0.299997 0.717450 0.335769
O O8 0.344404 0.857236 0.287553
O O9 0.500000 0.217067 0.109991
O O10 0.238440 0.219171 0.080787
O O11 0.345211 0.361904 0.117585
O O12 0.500000 0.780671 0.535612
O O13 0.750000 0.750000 0.500000
O O14 0.203812 0.001141 0.166390
O O15 0.000000 0.007972 0.114340
O O16 0.500000 0.497409 0.782259
O O17 0.750000 0.496983 0.750000
#
# Coordination Sequence:
#
# PCOD9477212 Si02
#       6
#    16  16  16  16  16  16
#     4   9  18  31  45  62  84 110 141 175 210 249
#     4   8  13  20  31  48  72 102 132 163 198 237
#     4   8  14  25  38  53  77 107 137 169 205 244
#     4  10  19  30  45  63  84 111 141 175 212 250
#     4   8  14  24  37  54  77 105 136 169 205 244
#     4   8  13  20  30  47  72 101 132 163 196 237
#
# _framework density 21.550992999999998
#
# number of rings (size 3 to 8) (size 9 to 14) (size 15 to 20)
#    0.000    3.500    0.000    2.500    0.000    2.333 
#    0.000    6.667    0.000    0.000    0.000    0.000 
#    0.000    1.333    0.000   11.333    0.000   19.500 
#
# Total GULP energy -267784.217436 kJ/mol
# GULP energy per Si atom -5578.837863 kJ/mol
# Density = 2.150194 g / cm^3
# Si number density = 21.550993 Si / 1000 Ang^3
#
#
#
# Elastic Constant Matrix: (Units=GPa)
#
#
# Indices 1 2 3 4 5 6 
#
# 1 129.2411 5.7209 145.4128 0.0000 0.0000 0.0000
# 2 5.7209 63.1121 2.9816 0.0000 0.0000 0.0000
# 3 145.4128 2.9816 258.6149 0.0000 0.0000 0.0000
# 4 0.0000 0.0000 0.0000 8.0713 0.0000 0.0000
# 5 0.0000 0.0000 0.0000 0.0000 40.8884 0.0000
# 6 0.0000 0.0000 0.0000 0.0000 0.0000 0.5841
#
#
#
# Elastic Compliance Matrix: (Units=1/GPa)
#
#
# Indices 1 2 3 4 5 6 
#
# 1 0.021178 -0.001358 -0.011892 0.000000 0.000000 0.000000
# 2 -0.001358 0.015941 0.000580 0.000000 0.000000 0.000000
# 3 -0.011892 0.000580 0.010547 0.000000 0.000000 0.000000
# 4 0.000000 0.000000 0.000000 0.123895 0.000000 0.000000
# 5 0.000000 0.000000 0.000000 0.000000 0.024457 0.000000
# 6 0.000000 0.000000 0.000000 0.000000 0.000000 1.711967
#
#
# Mechanical properties :
#
#
# Convention : Reuss Voigt Hill
#
# Bulk Modulus (GPa) = 44.79387 84.35540 64.57464
# Shear Modulus (GPa) = 2.57630 29.69896 16.13763
#
# Velocity S-wave (km/s) = 1.09455 3.71628 2.73941
# Velocity P-wave (km/s) = 4.73578 7.59220 6.32728
#
# Compressibility (1/GPa) = 0.02232448
#
# Stress axis : x y z
#
# Youngs Moduli (GPa) = 47.21973 62.73323 94.81688
#
# Poissons Ratio (x) = 0.08518 1.12756
# Poissons Ratio (y) = 0.06412 -0.05497
# Poissons Ratio (z) = 0.56154 -0.03637
#
# Static dielectric constant tensor:
#      x y z
#    x 1.762280 0.000000 0.000000 
#    y 0.000000 1.914220 0.000000 
#    z 0.000000 0.000000 1.762210 
# 
# From -- ./inp_files/48612.got.cif
#   From: 2010.05.17/outbox.cif.g08.bks.cpg/sg64_25_cif.got.tgz:48612.got - 2010.06.03 16:29:19.
