data_PCOD9477454
_publ_section_title
;
Structure prediction by ZEFSAII (Michael W. Deem and Ramdas Pophale) SiO2 
 PCOD9477454
Probable space group: C M C A
;
_chemical_formula_sum "Si O2"
_cell_formula_units_Z 96
_cell_length_a 7.728788
_cell_length_b 20.921173
_cell_length_c 24.114767
_cell_angle_alpha 90.000000
_cell_angle_beta 90.000000
_cell_angle_gamma 90.000000
_cell_volume 3899.244746
_symmetry_space_group_name_H-M "C M C A"
_symmetry_group_IT_number 64
_symmetry_cell_setting 'orthorhombic'
loop_
_space_group_symop_operation_xyz
x,y,z
-x,1/2-y,1/2+z
x,-y,-z
-x,1/2+y,1/2-z
-x,-y,-z
x,1/2+y,1/2-z
-x,y,z
x,1/2-y,1/2+z
1/2+x,1/2+y,z
1/2-x,-y,1/2+z
1/2+x,1/2-y,-z
1/2-x,y,1/2-z
1/2-x,1/2-y,-z
1/2+x,y,1/2-z
1/2-x,1/2+y,z
1/2+x,-y,1/2+z
loop_
_atom_site_type_symbol
_atom_site_label
_atom_site_fract_x
_atom_site_fract_y
_atom_site_fract_z
Si Si1 0.205896 0.437718 0.188865
Si Si2 0.204637 0.390890 0.573060
Si Si3 0.304679 0.833327 0.036312
Si Si4 0.207799 0.339965 0.689569
Si Si5 0.199146 0.971199 0.072433
Si Si6 0.788369 0.796889 0.346424
O O1 0.250000 0.460389 0.250000
O O2 0.295703 0.475260 0.139263
O O3 0.263138 0.363437 0.181883
O O4 0.000000 0.440915 0.180544
O O5 0.227187 0.338460 0.524932
O O6 0.275902 0.372549 0.633278
O O7 0.269824 0.460426 0.553176
O O8 0.000000 0.400459 0.579454
O O9 0.500000 0.810758 0.029565
O O10 0.300102 0.907016 0.057692
O O11 0.226143 0.797245 0.089390
O O12 0.250000 0.367092 0.750000
O O13 0.269123 0.266275 0.685122
O O14 0.000000 0.339387 0.685359
O O15 0.000000 0.960812 0.054175
O O16 0.000000 0.796943 0.348508
#
# Coordination Sequence:
#
# PCOD9477454 Si02
#       6
#    16  16  16  16  16  16
#     4  10  19  32  52  79 107 138 179 225 273 320
#     4  10  22  37  54  78 109 144 177 214 262 316
#     4  10  20  35  57  84 109 136 174 220 268 317
#     4  10  21  39  58  77 106 142 179 218 261 310
#     4  10  20  35  53  76 108 144 180 219 267 318
#     4   8  17  34  55  79 107 136 171 219 268 314
#
# _framework density 24.620151
#
# number of rings (size 3 to 8) (size 9 to 14) (size 15 to 20)
#    0.000    2.333    0.000    3.500    0.000    5.333 
#    0.000    5.833    0.000    0.000    0.000    0.000 
#    0.000    0.000    0.000    0.000    0.000    0.000 
#
# Total GULP energy -268238.521104 kJ/mol
# GULP energy per Si atom -5588.302523 kJ/mol
# Density = 2.456411 g / cm^3
# Si number density = 24.620151 Si / 1000 Ang^3
#
#
#
# Elastic Constant Matrix: (Units=GPa)
#
#
# Indices 1 2 3 4 5 6 
#
# 1 49.5726 1.4613 -6.9267 0.0000 0.0000 0.0000
# 2 1.4613 33.5647 17.6360 0.0000 0.0000 0.0000
# 3 -6.9267 17.6360 164.7835 0.0000 0.0000 0.0000
# 4 0.0000 0.0000 0.0000 32.1020 0.0000 0.0000
# 5 0.0000 0.0000 0.0000 0.0000 30.3755 0.0000
# 6 0.0000 0.0000 0.0000 0.0000 0.0000 -52.6608
#
#
#
# Elastic Compliance Matrix: (Units=1/GPa)
#
#
# Indices 1 2 3 4 5 6 
#
# 1 0.020355 -0.001415 0.001007 0.000000 0.000000 0.000000
# 2 -0.001415 0.031667 -0.003449 0.000000 0.000000 0.000000
# 3 0.001007 -0.003449 0.006480 0.000000 0.000000 0.000000
# 4 0.000000 0.000000 0.000000 0.031151 0.000000 0.000000
# 5 0.000000 0.000000 0.000000 0.000000 0.032921 0.000000
# 6 0.000000 0.000000 0.000000 0.000000 0.000000 -0.018989
#
#
# Mechanical properties :
#
#
# Convention : Reuss Voigt Hill
#
# Bulk Modulus (GPa) = 19.68972 30.25133 24.97053
# Shear Modulus (GPa) = 38.99322 17.68001 28.33662
#
# Velocity S-wave (km/s) = 3.98401 2.68267 3.39625
# Velocity P-wave (km/s) = 5.40165 4.68076 5.05407
#
# Compressibility (1/GPa) = 0.05078792
#
# Stress axis : x y z
#
# Youngs Moduli (GPa) = 49.12827 31.57875 154.32115
#
# Poissons Ratio (x) = 0.04470 -0.15542
# Poissons Ratio (y) = 0.06953 0.53220
# Poissons Ratio (z) = -0.04948 0.10890
#
# Static dielectric constant tensor:
#      x y z
#    x 1.902160 0.000000 0.000000 
#    y 0.000000 1.950570 0.000000 
#    z 0.000000 0.000000 1.988190 
# 
# From -- ./inp_files/42958.got.cif
#   From: 2010.05.17/outbox.cif.g08.bks.cpg/sg64_22_cif.got.tgz:42958.got - 2010.06.03 16:29:19.
