data_PCOD9477934
_publ_section_title
;
Structure prediction by ZEFSAII (Michael W. Deem and Ramdas Pophale) SiO2 
 PCOD9477934
Probable space group: C M C A
;
_chemical_formula_sum "Si O2"
_cell_formula_units_Z 64
_cell_length_a 11.819841
_cell_length_b 13.566004
_cell_length_c 17.768709
_cell_angle_alpha 90.000000
_cell_angle_beta 90.000000
_cell_angle_gamma 90.000000
_cell_volume 2849.177133
_symmetry_space_group_name_H-M "C M C A"
_symmetry_group_IT_number 64
_symmetry_cell_setting 'orthorhombic'
loop_
_space_group_symop_operation_xyz
x,y,z
-x,1/2-y,1/2+z
x,-y,-z
-x,1/2+y,1/2-z
-x,-y,-z
x,1/2+y,1/2-z
-x,y,z
x,1/2-y,1/2+z
1/2+x,1/2+y,z
1/2-x,-y,1/2+z
1/2+x,1/2-y,-z
1/2-x,y,1/2-z
1/2-x,1/2-y,-z
1/2+x,y,1/2-z
1/2-x,1/2+y,z
1/2+x,-y,1/2+z
loop_
_atom_site_type_symbol
_atom_site_label
_atom_site_fract_x
_atom_site_fract_y
_atom_site_fract_z
Si Si1 0.870111 0.341470 0.771721
Si Si2 0.828520 0.400052 0.046998
Si Si3 0.874940 0.874925 0.284061
Si Si4 0.122318 0.265839 0.429429
O O1 0.750000 0.392862 0.750000
O O2 0.874215 0.244371 0.719061
O O3 0.852138 0.300453 0.856288
O O4 0.000000 0.383589 0.768784
O O5 0.876028 0.412563 0.130488
O O6 0.703440 0.357551 0.059340
O O7 0.837087 0.500000 0.000000
O O8 0.878425 0.308932 0.999429
O O9 0.750000 0.899498 0.250000
O O10 0.000000 0.900813 0.249935
O O11 0.000000 0.307956 0.416590
#
# Coordination Sequence:
#
# PCOD9477934 Si02
#       4
#    16  16  16  16
#     4   9  16  32  58  84 114 158 204 247 305 366
#     4  11  23  39  62  93 125 162 209 259 310 371
#     4  10  19  35  60  86 119 162 203 249 312 368
#     4  10  21  39  62  88 122 163 206 255 311 371
#
# _framework density 22.462626
#
# number of rings (size 3 to 8) (size 9 to 14) (size 15 to 20)
#    0.000    2.000    5.000    0.750    0.000    2.500 
#    0.000    1.250    0.000    0.000    0.000    0.000 
#    0.000    0.000    0.000    0.000    0.000    0.000 
#
# Total GULP energy -178157.267438 kJ/mol
# GULP energy per Si atom -5567.414607 kJ/mol
# Density = 2.241150 g / cm^3
# Si number density = 22.462626 Si / 1000 Ang^3
#
#
#
# Elastic Constant Matrix: (Units=GPa)
#
#
# Indices 1 2 3 4 5 6 
#
# 1 129.4493 -2.2475 88.0534 0.0000 0.0000 0.0000
# 2 -2.2475 76.3609 4.2946 0.0000 0.0000 0.0000
# 3 88.0534 4.2946 90.0405 0.0000 0.0000 0.0000
# 4 0.0000 0.0000 0.0000 59.2026 0.0000 0.0000
# 5 0.0000 0.0000 0.0000 0.0000 -4.8790 0.0000
# 6 0.0000 0.0000 0.0000 0.0000 0.0000 -17.3292
#
#
#
# Elastic Compliance Matrix: (Units=1/GPa)
#
#
# Indices 1 2 3 4 5 6 
#
# 1 0.023368 0.001978 -0.022947 0.000000 0.000000 0.000000
# 2 0.001978 0.013298 -0.002569 0.000000 0.000000 0.000000
# 3 -0.022947 -0.002569 0.033669 0.000000 0.000000 0.000000
# 4 0.000000 0.000000 0.000000 0.016891 0.000000 0.000000
# 5 0.000000 0.000000 0.000000 0.000000 -0.204959 0.000000
# 6 0.000000 0.000000 0.000000 0.000000 0.000000 -0.057706
#
#
# Mechanical properties :
#
#
# Convention : Reuss Voigt Hill
#
# Bulk Modulus (GPa) = 42.99087 52.89462 47.94275
# Shear Modulus (GPa) = -41.45604 21.11555 -10.17024
#
# Velocity S-wave (km/s) = -4.30065 3.06932 -2.13013
# Velocity P-wave (km/s) = 2.34103 6.01331 3.91660
#
# Compressibility (1/GPa) = 0.02326075
#
# Stress axis : x y z
#
# Youngs Moduli (GPa) = 42.79339 75.19698 29.70095
#
# Poissons Ratio (x) = -0.14876 0.68154
# Poissons Ratio (y) = -0.08466 0.07630
# Poissons Ratio (z) = 0.98197 0.19318
#
# Static dielectric constant tensor:
#      x y z
#    x 1.244320 0.000000 0.000000 
#    y 0.000000 1.804580 0.000000 
#    z 0.000000 0.000000 1.828980 
# 
# From -- ./inp_files/30436.got.cif
#   From: 2010.05.17/outbox.cif.g08.bks.cpg/sg64_16_cif.got.tgz:30436.got - 2010.06.03 16:29:19.
