data_PCOD9477390
_publ_section_title
;
Structure prediction by ZEFSAII (Michael W. Deem and Ramdas Pophale) SiO2 
 PCOD9477390
Probable space group: C M C A
;
_chemical_formula_sum "Si O2"
_cell_formula_units_Z 72
_cell_length_a 21.045560
_cell_length_b 9.367199
_cell_length_c 20.888817
_cell_angle_alpha 90.000000
_cell_angle_beta 90.000000
_cell_angle_gamma 90.000000
_cell_volume 4117.978532
_symmetry_space_group_name_H-M "C M C A"
_symmetry_group_IT_number 64
_symmetry_cell_setting 'orthorhombic'
loop_
_space_group_symop_operation_xyz
x,y,z
-x,1/2-y,1/2+z
x,-y,-z
-x,1/2+y,1/2-z
-x,-y,-z
x,1/2+y,1/2-z
-x,y,z
x,1/2-y,1/2+z
1/2+x,1/2+y,z
1/2-x,-y,1/2+z
1/2+x,1/2-y,-z
1/2-x,y,1/2-z
1/2-x,1/2-y,-z
1/2+x,y,1/2-z
1/2-x,1/2+y,z
1/2+x,-y,1/2+z
loop_
_atom_site_type_symbol
_atom_site_label
_atom_site_fract_x
_atom_site_fract_y
_atom_site_fract_z
Si Si1 0.379520 0.532226 0.302348
Si Si2 0.250000 0.440351 0.250000
Si Si3 0.803002 0.638079 0.618975
Si Si4 0.188021 0.457914 0.929225
Si Si5 0.428051 0.353218 0.187531
O O1 0.310341 0.535331 0.268638
O O2 0.361297 0.487943 0.374728
O O3 0.418050 0.426135 0.256792
O O4 0.412386 0.685604 0.304856
O O5 0.230619 0.347633 0.311385
O O6 0.806245 0.788419 0.582720
O O7 0.757241 0.527979 0.583073
O O8 0.874410 0.590796 0.637907
O O9 0.167311 0.500000 0.000000
O O10 0.500000 0.374959 0.165943
#
# Coordination Sequence:
#
# PCOD9477390 Si02
#       5
#    16   8  16  16  16
#     4   9  19  31  50  74  97 124 157 200 246 288
#     4   8  16  30  48  74  96 114 154 208 258 284
#     4   9  19  31  50  73  97 125 157 201 246 287
#     4  10  19  32  49  74 102 128 160 198 243 290
#     4  10  19  32  49  71  98 126 158 197 242 290
#
# _framework density 17.484307000000001
#
# number of rings (size 3 to 8) (size 9 to 14) (size 15 to 20)
#    0.000    2.667    0.000    1.333    0.000   26.667 
#    0.000    0.000    0.000   17.333    0.000    0.000 
#    0.000    0.000    0.000    0.000    0.000    0.000 
#
# Total GULP energy -200488.178478 kJ/mol
# GULP energy per Si atom -5569.116069 kJ/mol
# Density = 1.744451 g / cm^3
# Si number density = 17.484307 Si / 1000 Ang^3
#
#
#
# Elastic Constant Matrix: (Units=GPa)
#
#
# Indices 1 2 3 4 5 6 
#
# 1 68.4251 13.7776 1.2055 0.0000 0.0000 0.0000
# 2 13.7776 26.7656 10.9258 0.0000 0.0000 0.0000
# 3 1.2055 10.9258 67.2006 0.0000 0.0000 0.0000
# 4 0.0000 0.0000 0.0000 21.8759 0.0000 0.0000
# 5 0.0000 0.0000 0.0000 0.0000 15.4064 0.0000
# 6 0.0000 0.0000 0.0000 0.0000 0.0000 18.7051
#
#
#
# Elastic Compliance Matrix: (Units=1/GPa)
#
#
# Indices 1 2 3 4 5 6 
#
# 1 0.016388 -0.008907 0.001154 0.000000 0.000000 0.000000
# 2 -0.008907 0.044858 -0.007133 0.000000 0.000000 0.000000
# 3 0.001154 -0.007133 0.016020 0.000000 0.000000 0.000000
# 4 0.000000 0.000000 0.000000 0.045712 0.000000 0.000000
# 5 0.000000 0.000000 0.000000 0.000000 0.064908 0.000000
# 6 0.000000 0.000000 0.000000 0.000000 0.000000 0.053461
#
#
# Mechanical properties :
#
#
# Convention : Reuss Voigt Hill
#
# Bulk Modulus (GPa) = 21.05552 23.80103 22.42828
# Shear Modulus (GPa) = 17.42463 20.29632 18.86047
#
# Velocity S-wave (km/s) = 3.16030 3.41079 3.28793
# Velocity P-wave (km/s) = 5.03839 5.39942 5.22202
#
# Compressibility (1/GPa) = 0.04749347
#
# Stress axis : x y z
#
# Youngs Moduli (GPa) = 61.02193 22.29262 62.42232
#
# Poissons Ratio (x) = 0.19855 -0.07204
# Poissons Ratio (y) = 0.54350 0.44529
# Poissons Ratio (z) = -0.07043 0.15902
#
# Static dielectric constant tensor:
#      x y z
#    x 1.612440 0.000000 0.000000 
#    y 0.000000 1.606300 0.000000 
#    z 0.000000 0.000000 1.610440 
# 
# From -- ./inp_files/40704.got.cif
#   From: 2010.05.17/outbox.cif.g08.bks.cpg/sg64_21_cif.got.tgz:40704.got - 2010.06.03 16:29:19.
