data_PCOD9477465
_publ_section_title
;
Structure prediction by ZEFSAII (Michael W. Deem and Ramdas Pophale) SiO2 
 PCOD9477465
Probable space group: C M C A
;
_chemical_formula_sum "Si O2"
_cell_formula_units_Z 72
_cell_length_a 16.634907
_cell_length_b 14.626062
_cell_length_c 18.159627
_cell_angle_alpha 90.000000
_cell_angle_beta 90.000000
_cell_angle_gamma 90.000000
_cell_volume 4418.295018
_symmetry_space_group_name_H-M "C M C A"
_symmetry_group_IT_number 64
_symmetry_cell_setting 'orthorhombic'
loop_
_space_group_symop_operation_xyz
x,y,z
-x,1/2-y,1/2+z
x,-y,-z
-x,1/2+y,1/2-z
-x,-y,-z
x,1/2+y,1/2-z
-x,y,z
x,1/2-y,1/2+z
1/2+x,1/2+y,z
1/2-x,-y,1/2+z
1/2+x,1/2-y,-z
1/2-x,y,1/2-z
1/2-x,1/2-y,-z
1/2+x,y,1/2-z
1/2-x,1/2+y,z
1/2+x,-y,1/2+z
loop_
_atom_site_type_symbol
_atom_site_label
_atom_site_fract_x
_atom_site_fract_y
_atom_site_fract_z
Si Si1 0.755003 0.181960 0.568390
Si Si2 0.667982 0.767745 0.794487
Si Si3 0.206560 0.500000 0.000000
Si Si4 0.407789 0.652223 0.666369
Si Si5 0.093675 0.444035 0.867352
O O1 0.750000 0.250000 0.500000
O O2 0.694738 0.213241 0.632422
O O3 0.742990 0.078765 0.539906
O O4 0.844068 0.182891 0.604543
O O5 0.750000 0.789666 0.750000
O O6 0.615289 0.704544 0.740866
O O7 0.623491 0.860017 0.818321
O O8 0.149142 0.451959 0.939725
O O9 0.500000 0.670542 0.645734
O O10 0.398313 0.542411 0.672746
O O11 0.000000 0.432447 0.887239
#
# Coordination Sequence:
#
# PCOD9477465 Si02
#       5
#    16  16   8  16  16
#     4  10  19  35  52  81 105 136 172 215 259 309
#     4  10  20  34  54  77 105 137 175 211 261 313
#     4  10  19  32  54  74 109 132 172 216 263 302
#     4   9  20  36  52  76 107 135 172 216 259 307
#     4  10  19  32  53  77 102 135 174 216 260 303
#
# _framework density 16.295878999999999
#
# number of rings (size 3 to 8) (size 9 to 14) (size 15 to 20)
#    0.000    2.222    2.222    1.000    0.000    5.333 
#    0.000    0.000    0.000    0.000    0.000    3.889 
#    0.000    0.000    0.000    0.000    0.000    0.000 
#
# Total GULP energy -200721.018939 kJ/mol
# GULP energy per Si atom -5575.583859 kJ/mol
# Density = 1.625879 g / cm^3
# Si number density = 16.295879 Si / 1000 Ang^3
#
#
#
# Elastic Constant Matrix: (Units=GPa)
#
#
# Indices 1 2 3 4 5 6 
#
# 1 57.4721 46.9240 19.6266 0.0000 0.0000 0.0000
# 2 46.9240 101.0891 57.3533 0.0000 0.0000 0.0000
# 3 19.6266 57.3533 90.5631 0.0000 0.0000 0.0000
# 4 0.0000 0.0000 0.0000 39.1818 0.0000 0.0000
# 5 0.0000 0.0000 0.0000 0.0000 9.6288 0.0000
# 6 0.0000 0.0000 0.0000 0.0000 0.0000 26.3079
#
#
#
# Elastic Compliance Matrix: (Units=1/GPa)
#
#
# Indices 1 2 3 4 5 6 
#
# 1 0.028697 -0.015284 0.003460 0.000000 0.000000 0.000000
# 2 -0.015284 0.023580 -0.011621 0.000000 0.000000 0.000000
# 3 0.003460 -0.011621 0.017652 0.000000 0.000000 0.000000
# 4 0.000000 0.000000 0.000000 0.025522 0.000000 0.000000
# 5 0.000000 0.000000 0.000000 0.000000 0.103855 0.000000
# 6 0.000000 0.000000 0.000000 0.000000 0.000000 0.038011
#
#
# Mechanical properties :
#
#
# Convention : Reuss Voigt Hill
#
# Bulk Modulus (GPa) = 43.40410 55.21467 49.30939
# Shear Modulus (GPa) = 17.13001 23.37172 20.25087
#
# Velocity S-wave (km/s) = 3.24572 3.79121 3.52902
# Velocity P-wave (km/s) = 6.38272 7.28838 6.85053
#
# Compressibility (1/GPa) = 0.02303930
#
# Stress axis : x y z
#
# Youngs Moduli (GPa) = 34.84716 42.40925 56.65216
#
# Poissons Ratio (x) = 0.64817 -0.19602
# Poissons Ratio (y) = 0.53259 0.65834
# Poissons Ratio (z) = -0.12057 0.49283
#
# Static dielectric constant tensor:
#      x y z
#    x 1.533740 0.000000 0.000000 
#    y 0.000000 1.541690 0.000000 
#    z 0.000000 0.000000 1.533970 
# 
# From -- ./inp_files/31873.got.cif
#   From: 2010.05.17/outbox.cif.g08.bks.cpg/sg64_16_cif.got.tgz:31873.got - 2010.06.03 16:29:19.
