data_PCOD9477288
_publ_section_title
;
Structure prediction by ZEFSAII (Michael W. Deem and Ramdas Pophale) SiO2 
 PCOD9477288
Probable space group: C M C A
;
_chemical_formula_sum "Si O2"
_cell_formula_units_Z 96
_cell_length_a 14.696139
_cell_length_b 12.643535
_cell_length_c 17.913828
_cell_angle_alpha 90.000000
_cell_angle_beta 90.000000
_cell_angle_gamma 90.000000
_cell_volume 3328.588942
_symmetry_space_group_name_H-M "C M C A"
_symmetry_group_IT_number 64
_symmetry_cell_setting 'orthorhombic'
loop_
_space_group_symop_operation_xyz
x,y,z
-x,1/2-y,1/2+z
x,-y,-z
-x,1/2+y,1/2-z
-x,-y,-z
x,1/2+y,1/2-z
-x,y,z
x,1/2-y,1/2+z
1/2+x,1/2+y,z
1/2-x,-y,1/2+z
1/2+x,1/2-y,-z
1/2-x,y,1/2-z
1/2-x,1/2-y,-z
1/2+x,y,1/2-z
1/2-x,1/2+y,z
1/2+x,-y,1/2+z
loop_
_atom_site_type_symbol
_atom_site_label
_atom_site_fract_x
_atom_site_fract_y
_atom_site_fract_z
Si Si1 0.144433 0.957513 0.271255
Si Si2 0.891938 0.896406 0.069784
Si Si3 0.106174 0.111179 0.135573
Si Si4 0.392219 0.077228 0.088740
Si Si5 0.830803 0.265743 0.304614
Si Si6 0.394301 0.795117 0.048902
O O1 0.250000 0.950165 0.250000
O O2 0.113290 0.051738 0.215448
O O3 0.132717 0.976884 0.359362
O O4 0.106069 0.843257 0.246489
O O5 0.819891 0.847702 0.127328
O O6 0.896213 0.805978 0.007856
O O7 0.000000 0.900497 0.093893
O O8 0.866626 0.020787 0.075118
O O9 0.000000 0.130981 0.126537
O O10 0.149418 0.225809 0.116851
O O11 0.500000 0.074100 0.078006
O O12 0.370577 0.167981 0.149843
O O13 0.354406 0.114471 0.007609
O O14 0.750000 0.230757 0.250000
O O15 0.500000 0.174200 0.935321
#
# Coordination Sequence:
#
# PCOD9477288 Si02
#       6
#    16  16  16  16  16  16
#     4  10  20  32  46  67  96 126 154 185 223 272
#     4   8  13  22  39  64  91 116 144 184 233 277
#     4   9  15  25  43  65  88 116 151 188 227 272
#     4  10  19  31  48  70  95 121 152 192 233 272
#     4   9  17  29  45  65  92 124 153 183 224 273
#     4   8  14  24  40  64  90 114 144 187 235 273
#
# _framework density 28.841049999999999
#
# number of rings (size 3 to 8) (size 9 to 14) (size 15 to 20)
#    0.000    3.000    0.000    3.000    0.000    4.000 
#    0.000    0.833    0.000    0.000    0.000    3.500 
#    0.000    5.333    0.000    0.000    0.000   11.000 
#
# Total GULP energy -267413.398259 kJ/mol
# GULP energy per Si atom -5571.112464 kJ/mol
# Density = 2.877541 g / cm^3
# Si number density = 28.841050 Si / 1000 Ang^3
#
#
#
# Elastic Constant Matrix: (Units=GPa)
#
#
# Indices 1 2 3 4 5 6 
#
# 1 72.2197 3.2824 7.5644 0.0000 0.0000 0.0000
# 2 3.2824 91.1064 16.0602 0.0000 0.0000 0.0000
# 3 7.5644 16.0602 149.8406 0.0000 0.0000 0.0000
# 4 0.0000 0.0000 0.0000 72.6098 0.0000 0.0000
# 5 0.0000 0.0000 0.0000 0.0000 -10.5108 0.0000
# 6 0.0000 0.0000 0.0000 0.0000 0.0000 30.8710
#
#
#
# Elastic Compliance Matrix: (Units=1/GPa)
#
#
# Indices 1 2 3 4 5 6 
#
# 1 0.013933 -0.000385 -0.000662 0.000000 0.000000 0.000000
# 2 -0.000385 0.011198 -0.001181 0.000000 0.000000 0.000000
# 3 -0.000662 -0.001181 0.006834 0.000000 0.000000 0.000000
# 4 0.000000 0.000000 0.000000 0.013772 0.000000 0.000000
# 5 0.000000 0.000000 0.000000 0.000000 -0.095141 0.000000
# 6 0.000000 0.000000 0.000000 0.000000 0.000000 0.032393
#
#
# Mechanical properties :
#
#
# Convention : Reuss Voigt Hill
#
# Bulk Modulus (GPa) = 36.35164 40.77564 38.56364
# Shear Modulus (GPa) = -1477.52385 37.67800 -719.92292
#
# Velocity S-wave (km/s) = -22.65858 3.61834 -15.81643
# Velocity P-wave (km/s) = 25.92135 5.62363 17.89262
#
# Compressibility (1/GPa) = 0.02750908
#
# Stress axis : x y z
#
# Youngs Moduli (GPa) = 71.76949 89.29998 146.33271
#
# Poissons Ratio (x) = 0.03441 0.09689
# Poissons Ratio (y) = 0.02765 0.17279
# Poissons Ratio (z) = 0.04752 0.10545
#
# Static dielectric constant tensor:
#      x y z
#    x 2.311700 0.000000 0.000000 
#    y 0.000000 2.428420 0.000000 
#    z 0.000000 0.000000 2.464400 
# 
# From -- ./inp_files/40322.got.cif
#   From: 2010.05.17/outbox.cif.g08.bks.cpg/sg64_21_cif.got.tgz:40322.got - 2010.06.03 16:29:19.
