data_PCOD9477505
_publ_section_title
;
Structure prediction by ZEFSAII (Michael W. Deem and Ramdas Pophale) SiO2 
 PCOD9477505
Probable space group: C M C A
;
_chemical_formula_sum "Si O2"
_cell_formula_units_Z 96
_cell_length_a 13.669296
_cell_length_b 21.834628
_cell_length_c 16.881619
_cell_angle_alpha 90.000000
_cell_angle_beta 90.000000
_cell_angle_gamma 90.000000
_cell_volume 5038.555418
_symmetry_space_group_name_H-M "C M C A"
_symmetry_group_IT_number 64
_symmetry_cell_setting 'orthorhombic'
loop_
_space_group_symop_operation_xyz
x,y,z
-x,1/2-y,1/2+z
x,-y,-z
-x,1/2+y,1/2-z
-x,-y,-z
x,1/2+y,1/2-z
-x,y,z
x,1/2-y,1/2+z
1/2+x,1/2+y,z
1/2-x,-y,1/2+z
1/2+x,1/2-y,-z
1/2-x,y,1/2-z
1/2-x,1/2-y,-z
1/2+x,y,1/2-z
1/2-x,1/2+y,z
1/2+x,-y,1/2+z
loop_
_atom_site_type_symbol
_atom_site_label
_atom_site_fract_x
_atom_site_fract_y
_atom_site_fract_z
Si Si1 0.796884 0.377150 0.383513
Si Si2 0.000000 0.245416 0.777604
Si Si3 0.000000 0.486445 0.701270
Si Si4 0.297617 0.630843 0.071459
Si Si5 0.000000 0.114936 0.786623
Si Si6 0.287244 0.756525 0.837233
Si Si7 0.000000 0.141009 0.164937
Si Si8 0.220604 0.010380 0.159135
O O1 0.806465 0.373483 0.477609
O O2 0.750518 0.312774 0.354702
O O3 0.744872 0.441643 0.362030
O O4 0.902650 0.380909 0.340467
O O5 0.000000 0.177790 0.738757
O O6 0.903902 0.252871 0.830385
O O7 0.000000 0.296191 0.710961
O O8 0.898367 0.491534 0.653471
O O9 0.000000 0.548018 0.753875
O O10 0.000000 0.415919 0.727622
O O11 0.243408 0.692254 0.100230
O O12 0.404268 0.635722 0.111409
O O13 0.249342 0.568241 0.105872
O O14 0.250000 0.775377 0.750000
O O15 0.250000 0.022746 0.250000
#
# Coordination Sequence:
#
# PCOD9477505 Si02
#       8
#    16   8   8  16   8  16   8  16
#     4  10  20  35  54  79 111 141 174 222 272 321
#     4  10  20  34  54  77 105 140 178 222 259 317
#     4   8  18  32  53  77 105 127 176 224 263 305
#     4  11  21  34  55  83 111 138 177 221 273 317
#     4   8  17  34  53  76 106 141 173 213 275 317
#     4  11  21  36  56  78 105 144 182 220 263 319
#     4  10  19  32  55  82 108 137 173 223 269 311
#     4  10  20  35  55  81 106 142 178 221 269 319
#
# _framework density 19.053079
#
# number of rings (size 3 to 8) (size 9 to 14) (size 15 to 20)
#    0.000    2.000    1.667    2.500    2.333    0.000 
#    0.000    5.000    0.000    1.000    0.000    2.333 
#    0.000    0.000    0.000    0.000    0.000    0.000 
#
# Total GULP energy -267283.836857 kJ/mol
# GULP energy per Si atom -5568.413268 kJ/mol
# Density = 1.900971 g / cm^3
# Si number density = 19.053079 Si / 1000 Ang^3
#
#
#
# Elastic Constant Matrix: (Units=GPa)
#
#
# Indices 1 2 3 4 5 6 
#
# 1 43.5373 -4.8928 -11.2915 0.0000 0.0000 0.0000
# 2 -4.8928 92.8395 28.6929 0.0000 0.0000 0.0000
# 3 -11.2915 28.6929 57.1614 0.0000 0.0000 0.0000
# 4 0.0000 0.0000 0.0000 27.2912 0.0000 0.0000
# 5 0.0000 0.0000 0.0000 0.0000 8.3948 0.0000
# 6 0.0000 0.0000 0.0000 0.0000 0.0000 22.6576
#
#
#
# Elastic Compliance Matrix: (Units=1/GPa)
#
#
# Indices 1 2 3 4 5 6 
#
# 1 0.024214 -0.000239 0.004903 0.000000 0.000000 0.000000
# 2 -0.000239 0.012751 -0.006448 0.000000 0.000000 0.000000
# 3 0.004903 -0.006448 0.021700 0.000000 0.000000 0.000000
# 4 0.000000 0.000000 0.000000 0.036642 0.000000 0.000000
# 5 0.000000 0.000000 0.000000 0.000000 0.119121 0.000000
# 6 0.000000 0.000000 0.000000 0.000000 0.000000 0.044135
#
#
# Mechanical properties :
#
#
# Convention : Reuss Voigt Hill
#
# Bulk Modulus (GPa) = 18.15001 24.28392 21.21697
# Shear Modulus (GPa) = 17.82551 23.73736 20.78143
#
# Velocity S-wave (km/s) = 3.06203 3.53349 3.30618
# Velocity P-wave (km/s) = 4.69554 5.42407 5.07290
#
# Compressibility (1/GPa) = 0.05509638
#
# Stress axis : x y z
#
# Youngs Moduli (GPa) = 41.29917 78.42219 46.08387
#
# Poissons Ratio (x) = 0.01877 -0.22596
# Poissons Ratio (y) = 0.00988 0.29715
# Poissons Ratio (z) = -0.20250 0.50567
#
# Static dielectric constant tensor:
#      x y z
#    x 1.709910 0.000000 0.000000 
#    y 0.000000 1.753070 0.000000 
#    z 0.000000 0.000000 1.626580 
# 
# From -- ./inp_files/24019.got.cif
#   From: 2010.05.17/outbox.cif.g08.bks.cpg/sg64_13_cif.got.tgz:24019.got - 2010.06.03 16:29:19.
