data_PCOD9477717
_publ_section_title
;
Structure prediction by ZEFSAII (Michael W. Deem and Ramdas Pophale) SiO2 
 PCOD9477717
Probable space group: C M C A
;
_chemical_formula_sum "Si O2"
_cell_formula_units_Z 80
_cell_length_a 8.541313
_cell_length_b 28.033034
_cell_length_c 18.784049
_cell_angle_alpha 90.000000
_cell_angle_beta 90.000000
_cell_angle_gamma 90.000000
_cell_volume 4497.632363
_symmetry_space_group_name_H-M "C M C A"
_symmetry_group_IT_number 64
_symmetry_cell_setting 'orthorhombic'
loop_
_space_group_symop_operation_xyz
x,y,z
-x,1/2-y,1/2+z
x,-y,-z
-x,1/2+y,1/2-z
-x,-y,-z
x,1/2+y,1/2-z
-x,y,z
x,1/2-y,1/2+z
1/2+x,1/2+y,z
1/2-x,-y,1/2+z
1/2+x,1/2-y,-z
1/2-x,y,1/2-z
1/2-x,1/2-y,-z
1/2+x,y,1/2-z
1/2-x,1/2+y,z
1/2+x,-y,1/2+z
loop_
_atom_site_type_symbol
_atom_site_label
_atom_site_fract_x
_atom_site_fract_y
_atom_site_fract_z
Si Si1 0.690113 0.849805 0.465211
Si Si2 0.813839 0.093775 0.325730
Si Si3 0.812094 0.192685 0.114771
Si Si4 0.812544 0.292807 0.328477
Si Si5 0.810416 0.550700 0.467786
O O1 0.500000 0.849313 0.464192
O O2 0.737087 0.816970 0.532639
O O3 0.744777 0.828737 0.390360
O O4 0.737606 0.903863 0.483869
O O5 0.750000 0.077025 0.250000
O O6 0.741293 0.145794 0.342636
O O7 0.759637 0.060230 0.390207
O O8 0.000000 0.097657 0.324187
O O9 0.739765 0.240068 0.147548
O O10 0.000000 0.195928 0.117251
O O11 0.750000 0.303563 0.250000
O O12 0.000000 0.294373 0.326584
O O13 0.764016 0.500000 0.500000
O O14 0.000000 0.551858 0.462282
#
# Coordination Sequence:
#
# PCOD9477717 Si02
#       5
#    16  16  16  16  16
#     4   8  17  33  53  75 100 132 170 209 251 305
#     4  11  21  34  53  79 109 137 170 213 261 309
#     4  10  19  34  54  76 101 132 172 213 258 307
#     4  11  21  33  48  71 104 139 173 207 247 297
#     4   9  18  36  60  81 103 134 171 214 266 316
#
# _framework density 17.787137000000001
#
# number of rings (size 3 to 8) (size 9 to 14) (size 15 to 20)
#    0.000    2.200    0.000    5.400    0.000    0.400 
#    0.000   10.000    0.000    2.400    0.000    0.000 
#    0.000    0.000    0.000    0.000    0.000    0.000 
#
# Total GULP energy -223289.610066 kJ/mol
# GULP energy per Si atom -5582.240252 kJ/mol
# Density = 1.774665 g / cm^3
# Si number density = 17.787137 Si / 1000 Ang^3
#
#
#
# Elastic Constant Matrix: (Units=GPa)
#
#
# Indices 1 2 3 4 5 6 
#
# 1 50.4567 20.8939 37.8181 0.0000 0.0000 0.0000
# 2 20.8939 76.8923 76.7865 0.0000 0.0000 0.0000
# 3 37.8181 76.7865 168.6290 0.0000 0.0000 0.0000
# 4 0.0000 0.0000 0.0000 15.6167 0.0000 0.0000
# 5 0.0000 0.0000 0.0000 0.0000 24.7043 0.0000
# 6 0.0000 0.0000 0.0000 0.0000 0.0000 9.0642
#
#
#
# Elastic Compliance Matrix: (Units=1/GPa)
#
#
# Indices 1 2 3 4 5 6 
#
# 1 0.024008 -0.002103 -0.004426 0.000000 0.000000 0.000000
# 2 -0.002103 0.024035 -0.010473 0.000000 0.000000 0.000000
# 3 -0.004426 -0.010473 0.011692 0.000000 0.000000 0.000000
# 4 0.000000 0.000000 0.000000 0.064034 0.000000 0.000000
# 5 0.000000 0.000000 0.000000 0.000000 0.040479 0.000000
# 6 0.000000 0.000000 0.000000 0.000000 0.000000 0.110325
#
#
# Mechanical properties :
#
#
# Convention : Reuss Voigt Hill
#
# Bulk Modulus (GPa) = 38.86596 62.99721 50.93159
# Shear Modulus (GPa) = 15.76523 20.57567 18.17045
#
# Velocity S-wave (km/s) = 2.98036 3.40483 3.19964
# Velocity P-wave (km/s) = 5.80873 7.13802 6.50741
#
# Compressibility (1/GPa) = 0.02572945
#
# Stress axis : x y z
#
# Youngs Moduli (GPa) = 41.65349 41.60559 85.53002
#
# Poissons Ratio (x) = 0.08751 0.37859
# Poissons Ratio (y) = 0.08761 0.89575
# Poissons Ratio (z) = 0.18437 0.43573
#
# Static dielectric constant tensor:
#      x y z
#    x 1.597010 0.000000 0.000000 
#    y 0.000000 1.583780 0.000000 
#    z 0.000000 0.000000 1.616640 
# 
# From -- ./inp_files/29710.got.cif
#   From: 2010.05.17/outbox.cif.g08.bks.cpg/sg64_15_cif.got.tgz:29710.got - 2010.06.03 16:29:19.
