data_PCOD9477044
_publ_section_title
;
Structure prediction by ZEFSAII (Michael W. Deem and Ramdas Pophale) SiO2 
 PCOD9477044
Probable space group: C M C A
;
_chemical_formula_sum "Si O2"
_cell_formula_units_Z 64
_cell_length_a 15.586756
_cell_length_b 26.350392
_cell_length_c 8.440247
_cell_angle_alpha 90.000000
_cell_angle_beta 90.000000
_cell_angle_gamma 90.000000
_cell_volume 3466.554029
_symmetry_space_group_name_H-M "C M C A"
_symmetry_group_IT_number 64
_symmetry_cell_setting 'orthorhombic'
loop_
_space_group_symop_operation_xyz
x,y,z
-x,1/2-y,1/2+z
x,-y,-z
-x,1/2+y,1/2-z
-x,-y,-z
x,1/2+y,1/2-z
-x,y,z
x,1/2-y,1/2+z
1/2+x,1/2+y,z
1/2-x,-y,1/2+z
1/2+x,1/2-y,-z
1/2-x,y,1/2-z
1/2-x,1/2-y,-z
1/2+x,y,1/2-z
1/2-x,1/2+y,z
1/2+x,-y,1/2+z
loop_
_atom_site_type_symbol
_atom_site_label
_atom_site_fract_x
_atom_site_fract_y
_atom_site_fract_z
Si Si1 0.500000 0.323177 0.435691
Si Si2 0.836188 0.869757 0.576587
Si Si3 0.500000 0.216111 0.580326
Si Si4 0.151324 0.150383 0.056065
Si Si5 0.282559 0.053380 0.570513
O O1 0.415184 0.355496 0.468037
O O2 0.500000 0.276134 0.557487
O O3 0.500000 0.299373 0.262650
O O4 0.860956 0.864170 0.759895
O O5 0.752208 0.834501 0.543491
O O6 0.796535 0.924735 0.535891
O O7 0.416157 0.191408 0.499738
O O8 0.148202 0.098590 0.952358
O O9 0.250000 0.049683 0.750000
O O10 0.311048 0.000000 0.500000
#
# Coordination Sequence:
#
# PCOD9477044 Si02
#       5
#     8  16   8  16  16
#     4  12  24  38  59  84 115 152 190 234 282 336
#     4   9  20  38  59  83 115 149 188 235 281 334
#     4  12  24  38  59  84 115 152 190 234 282 336
#     4   9  20  38  59  83 115 149 188 235 281 334
#     4  10  18  34  59  86 115 150 188 228 282 336
#
# _framework density 18.462139000000001
#
# number of rings (size 3 to 8) (size 9 to 14) (size 15 to 20)
#    1.500    0.500    0.000    5.250    0.000    1.000 
#    0.000    1.250    0.000    0.000    0.000    0.000 
#    0.000    0.000    0.000    0.000    0.000    0.000 
#
# Total GULP energy -178201.529082 kJ/mol
# GULP energy per Si atom -5568.797784 kJ/mol
# Density = 1.842012 g / cm^3
# Si number density = 18.462139 Si / 1000 Ang^3
#
#
#
# Elastic Constant Matrix: (Units=GPa)
#
#
# Indices 1 2 3 4 5 6 
#
# 1 53.4131 2.5853 1.2122 0.0000 0.0000 0.0000
# 2 2.5853 41.2668 -30.0524 0.0000 0.0000 0.0000
# 3 1.2122 -30.0524 54.8426 0.0000 0.0000 0.0000
# 4 0.0000 0.0000 0.0000 22.8484 0.0000 0.0000
# 5 0.0000 0.0000 0.0000 0.0000 29.9966 0.0000
# 6 0.0000 0.0000 0.0000 0.0000 0.0000 14.2233
#
#
#
# Elastic Compliance Matrix: (Units=1/GPa)
#
#
# Indices 1 2 3 4 5 6 
#
# 1 0.018882 -0.002474 -0.001773 0.000000 0.000000 0.000000
# 2 -0.002474 0.040649 0.022329 0.000000 0.000000 0.000000
# 3 -0.001773 0.022329 0.030509 0.000000 0.000000 0.000000
# 4 0.000000 0.000000 0.000000 0.043767 0.000000 0.000000
# 5 0.000000 0.000000 0.000000 0.000000 0.033337 0.000000
# 6 0.000000 0.000000 0.000000 0.000000 0.000000 0.070307
#
#
# Mechanical properties :
#
#
# Convention : Reuss Voigt Hill
#
# Bulk Modulus (GPa) = 7.92372 10.77917 9.35144
# Shear Modulus (GPa) = 20.54611 25.13216 22.83913
#
# Velocity S-wave (km/s) = 3.33960 3.69356 3.52103
# Velocity P-wave (km/s) = 4.37856 4.90316 4.64827
#
# Compressibility (1/GPa) = 0.12620338
#
# Stress axis : x y z
#
# Youngs Moduli (GPa) = 52.96047 24.60105 32.77719
#
# Poissons Ratio (x) = 0.06087 0.05812
# Poissons Ratio (y) = 0.13103 -0.73189
# Poissons Ratio (z) = 0.09391 -0.54932
#
# Static dielectric constant tensor:
#      x y z
#    x 1.629420 0.000000 0.000000 
#    y 0.000000 1.614450 0.000000 
#    z 0.000000 0.000000 1.644530 
# 
# From -- ./inp_files/6810.got.cif
#   From: 2010.05.17/outbox.cif.g08.bks.cpg/sg64_4_cif.got.tgz:6810.got - 2010.06.03 16:29:19.
