data_PCOD9477536
_publ_section_title
;
Structure prediction by ZEFSAII (Michael W. Deem and Ramdas Pophale) SiO2 
 PCOD9477536
Probable space group: C M C A
;
_chemical_formula_sum "Si O2"
_cell_formula_units_Z 80
_cell_length_a 14.255921
_cell_length_b 28.474024
_cell_length_c 6.944665
_cell_angle_alpha 90.000000
_cell_angle_beta 90.000000
_cell_angle_gamma 90.000000
_cell_volume 2819.002284
_symmetry_space_group_name_H-M "C M C A"
_symmetry_group_IT_number 64
_symmetry_cell_setting 'orthorhombic'
loop_
_space_group_symop_operation_xyz
x,y,z
-x,1/2-y,1/2+z
x,-y,-z
-x,1/2+y,1/2-z
-x,-y,-z
x,1/2+y,1/2-z
-x,y,z
x,1/2-y,1/2+z
1/2+x,1/2+y,z
1/2-x,-y,1/2+z
1/2+x,1/2-y,-z
1/2-x,y,1/2-z
1/2-x,1/2-y,-z
1/2+x,y,1/2-z
1/2-x,1/2+y,z
1/2+x,-y,1/2+z
loop_
_atom_site_type_symbol
_atom_site_label
_atom_site_fract_x
_atom_site_fract_y
_atom_site_fract_z
Si Si1 0.337815 0.209628 0.388205
Si Si2 0.109987 0.189016 0.700192
Si Si3 0.888639 0.010461 0.230906
Si Si4 0.386097 0.088796 0.813554
Si Si5 0.890198 0.892894 0.870662
O O1 0.250000 0.215234 0.250000
O O2 0.326691 0.196564 0.611081
O O3 0.387374 0.260396 0.401373
O O4 0.382493 0.161233 0.312740
O O5 0.136511 0.139986 0.596536
O O6 0.000000 0.182873 0.763601
O O7 0.850590 0.964526 0.341730
O O8 0.000000 0.010839 0.273496
O O9 0.853316 0.063959 0.258548
O O10 0.880231 0.000000 0.000000
O O11 0.500000 0.085485 0.832764
O O12 0.357954 0.099225 0.590355
O O13 0.000000 0.902213 0.881292
#
# Coordination Sequence:
#
# PCOD9477536 Si02
#       5
#    16  16  16  16  16
#     4  11  21  32  46  69  99 128 157 197 245 288
#     4  10  19  33  51  70  94 126 166 203 237 284
#     4   7   9  16  34  61  87 107 136 185 233 264
#     4   7  11  20  38  64  88 109 142 191 232 262
#     4   8  13  23  40  62  88 116 147 184 228 277
#
# _framework density 28.378834000000001
#
# number of rings (size 3 to 8) (size 9 to 14) (size 15 to 20)
#    0.000    3.400    0.000    6.000    0.000    0.000 
#    0.000    0.000    0.000    1.200    0.000    4.200 
#    0.000    8.000    0.000    0.000    0.000    5.000 
#
# Total GULP energy -223185.465858 kJ/mol
# GULP energy per Si atom -5579.636646 kJ/mol
# Density = 2.831424 g / cm^3
# Si number density = 28.378834 Si / 1000 Ang^3
#
#
#
# Elastic Constant Matrix: (Units=GPa)
#
#
# Indices 1 2 3 4 5 6 
#
# 1 69.1615 9.3019 2.1293 0.0000 0.0000 0.0000
# 2 9.3019 394.5379 44.3131 0.0000 0.0000 0.0000
# 3 2.1293 44.3131 92.9368 0.0000 0.0000 0.0000
# 4 0.0000 0.0000 0.0000 46.6906 0.0000 0.0000
# 5 0.0000 0.0000 0.0000 0.0000 4.9928 0.0000
# 6 0.0000 0.0000 0.0000 0.0000 0.0000 115.7094
#
#
#
# Elastic Compliance Matrix: (Units=1/GPa)
#
#
# Indices 1 2 3 4 5 6 
#
# 1 0.014508 -0.000322 -0.000179 0.000000 0.000000 0.000000
# 2 -0.000322 0.002685 -0.001273 0.000000 0.000000 0.000000
# 3 -0.000179 -0.001273 0.011371 0.000000 0.000000 0.000000
# 4 0.000000 0.000000 0.000000 0.021418 0.000000 0.000000
# 5 0.000000 0.000000 0.000000 0.000000 0.200289 0.000000
# 6 0.000000 0.000000 0.000000 0.000000 0.000000 0.008642
#
#
# Mechanical properties :
#
#
# Convention : Reuss Voigt Hill
#
# Bulk Modulus (GPa) = 39.97380 74.23610 57.10495
# Shear Modulus (GPa) = 18.46387 66.87135 42.66761
#
# Velocity S-wave (km/s) = 2.55349 4.85952 3.88171
# Velocity P-wave (km/s) = 4.77600 7.59621 6.34478
#
# Compressibility (1/GPa) = 0.02501638
#
# Stress axis : x y z
#
# Youngs Moduli (GPa) = 68.92882 372.41543 87.94266
#
# Poissons Ratio (x) = 0.11990 0.01573
# Poissons Ratio (y) = 0.02219 0.11195
# Poissons Ratio (z) = 0.01233 0.47406
#
# Static dielectric constant tensor:
#      x y z
#    x 2.218270 0.000000 0.000000 
#    y 0.000000 2.290430 0.000000 
#    z 0.000000 0.000000 2.276090 
# 
# From -- ./inp_files/14704.got.cif
#   From: 2010.05.17/outbox.cif.g08.bks.cpg/sg64_8_cif.got.tgz:14704.got - 2010.06.03 16:29:19.
