data_PCOD9477848
_publ_section_title
;
Structure prediction by ZEFSAII (Michael W. Deem and Ramdas Pophale) SiO2 
 PCOD9477848
Probable space group: C M C A
;
_chemical_formula_sum "Si O2"
_cell_formula_units_Z 96
_cell_length_a 15.221262
_cell_length_b 18.150444
_cell_length_c 17.177528
_cell_angle_alpha 90.000000
_cell_angle_beta 90.000000
_cell_angle_gamma 90.000000
_cell_volume 4745.681414
_symmetry_space_group_name_H-M "C M C A"
_symmetry_group_IT_number 64
_symmetry_cell_setting 'orthorhombic'
loop_
_space_group_symop_operation_xyz
x,y,z
-x,1/2-y,1/2+z
x,-y,-z
-x,1/2+y,1/2-z
-x,-y,-z
x,1/2+y,1/2-z
-x,y,z
x,1/2-y,1/2+z
1/2+x,1/2+y,z
1/2-x,-y,1/2+z
1/2+x,1/2-y,-z
1/2-x,y,1/2-z
1/2-x,1/2-y,-z
1/2+x,y,1/2-z
1/2-x,1/2+y,z
1/2+x,-y,1/2+z
loop_
_atom_site_type_symbol
_atom_site_label
_atom_site_fract_x
_atom_site_fract_y
_atom_site_fract_z
Si Si1 0.893442 0.181988 0.360297
Si Si2 0.148235 0.848522 0.165129
Si Si3 0.348835 0.098058 0.827462
Si Si4 0.606850 0.553395 0.247863
Si Si5 0.397576 0.417847 0.499132
Si Si6 0.399239 0.006985 0.585144
O O1 0.857737 0.264236 0.358031
O O2 0.869980 0.131403 0.285818
O O3 0.861386 0.137744 0.436619
O O4 0.000000 0.187796 0.362078
O O5 0.248321 0.876993 0.165329
O O6 0.112918 0.858645 0.253237
O O7 0.100872 0.907503 0.110215
O O8 0.358151 0.012669 0.802272
O O9 0.391583 0.110058 0.911004
O O10 0.500000 0.546936 0.248800
O O11 0.638148 0.537158 0.159768
O O12 0.358120 0.500000 0.500000
O O13 0.500000 0.426318 0.521250
O O14 0.500000 0.980552 0.577943
O O15 0.357238 0.000000 0.500000
#
# Coordination Sequence:
#
# PCOD9477848 Si02
#       6
#    16  16  16  16  16  16
#     4  10  20  36  58  86 116 143 184 241 291 329
#     4  10  22  37  53  81 119 155 184 223 286 340
#     4  10  20  37  57  80 113 149 190 223 272 344
#     4   9  17  34  62  86 106 144 193 239 281 324
#     4  10  19  34  61  90 110 138 189 243 283 326
#     4   9  18  35  57  80 111 151 197 233 270 340
#
# _framework density 20.228919000000001
#
# number of rings (size 3 to 8) (size 9 to 14) (size 15 to 20)
#    0.000    2.333    1.667    1.000    0.000    3.333 
#    3.000    6.667    0.000    0.000    0.000    0.000 
#    0.000    0.000    0.000    0.000    0.000    0.000 
#
# Total GULP energy -267744.315051 kJ/mol
# GULP energy per Si atom -5578.006564 kJ/mol
# Density = 2.018288 g / cm^3
# Si number density = 20.228919 Si / 1000 Ang^3
#
#
#
# Elastic Constant Matrix: (Units=GPa)
#
#
# Indices 1 2 3 4 5 6 
#
# 1 40.1219 8.1107 2.3212 0.0000 0.0000 0.0000
# 2 8.1107 110.0121 62.7414 0.0000 0.0000 0.0000
# 3 2.3212 62.7414 150.0646 0.0000 0.0000 0.0000
# 4 0.0000 0.0000 0.0000 21.8416 0.0000 0.0000
# 5 0.0000 0.0000 0.0000 0.0000 99.2019 0.0000
# 6 0.0000 0.0000 0.0000 0.0000 0.0000 24.0524
#
#
#
# Elastic Compliance Matrix: (Units=1/GPa)
#
#
# Indices 1 2 3 4 5 6 
#
# 1 0.025331 -0.002159 0.000511 0.000000 0.000000 0.000000
# 2 -0.002159 0.012120 -0.005034 0.000000 0.000000 0.000000
# 3 0.000511 -0.005034 0.008761 0.000000 0.000000 0.000000
# 4 0.000000 0.000000 0.000000 0.045784 0.000000 0.000000
# 5 0.000000 0.000000 0.000000 0.000000 0.010080 0.000000
# 6 0.000000 0.000000 0.000000 0.000000 0.000000 0.041576
#
#
# Mechanical properties :
#
#
# Convention : Reuss Voigt Hill
#
# Bulk Modulus (GPa) = 30.44374 49.61615 40.02994
# Shear Modulus (GPa) = 29.76806 44.15418 36.96112
#
# Velocity S-wave (km/s) = 3.84025 4.67703 4.27915
# Velocity P-wave (km/s) = 5.89455 7.33122 6.65178
#
# Compressibility (1/GPa) = 0.03284748
#
# Stress axis : x y z
#
# Youngs Moduli (GPa) = 39.47747 82.50832 114.14794
#
# Poissons Ratio (x) = 0.17812 -0.05830
# Poissons Ratio (y) = 0.08523 0.57461
# Poissons Ratio (z) = -0.02016 0.41534
#
# Static dielectric constant tensor:
#      x y z
#    x 1.776620 0.000000 0.000000 
#    y 0.000000 1.684800 0.000000 
#    z 0.000000 0.000000 1.760730 
# 
# From -- ./inp_files/33296.got.cif
#   From: 2010.05.17/outbox.cif.g08.bks.cpg/sg64_17_cif.got.tgz:33296.got - 2010.06.03 16:29:19.
