data_PCOD9477685
_publ_section_title
;
Structure prediction by ZEFSAII (Michael W. Deem and Ramdas Pophale) SiO2 
 PCOD9477685
Probable space group: C M C A
;
_chemical_formula_sum "Si O2"
_cell_formula_units_Z 96
_cell_length_a 13.545500
_cell_length_b 19.223692
_cell_length_c 16.781892
_cell_angle_alpha 90.000000
_cell_angle_beta 90.000000
_cell_angle_gamma 90.000000
_cell_volume 4369.912712
_symmetry_space_group_name_H-M "C M C A"
_symmetry_group_IT_number 64
_symmetry_cell_setting 'orthorhombic'
loop_
_space_group_symop_operation_xyz
x,y,z
-x,1/2-y,1/2+z
x,-y,-z
-x,1/2+y,1/2-z
-x,-y,-z
x,1/2+y,1/2-z
-x,y,z
x,1/2-y,1/2+z
1/2+x,1/2+y,z
1/2-x,-y,1/2+z
1/2+x,1/2-y,-z
1/2-x,y,1/2-z
1/2-x,1/2-y,-z
1/2+x,y,1/2-z
1/2-x,1/2+y,z
1/2+x,-y,1/2+z
loop_
_atom_site_type_symbol
_atom_site_label
_atom_site_fract_x
_atom_site_fract_y
_atom_site_fract_z
Si Si1 0.883987 0.061504 0.796331
Si Si2 0.738019 0.050044 0.934587
Si Si3 0.881829 0.947545 0.676451
Si Si4 0.619880 0.312403 0.467756
Si Si5 0.620104 0.790328 0.857256
Si Si6 0.618552 0.300509 0.291460
O O1 0.820087 0.076383 0.873367
O O2 0.862315 0.118341 0.727576
O O3 0.000000 0.066934 0.813577
O O4 0.862179 0.985056 0.761128
O O5 0.675158 0.113597 0.969327
O O6 0.664939 0.998120 0.888311
O O7 0.786615 0.000000 0.000000
O O8 0.847773 0.868652 0.665283
O O9 0.000000 0.948068 0.666648
O O10 0.500000 0.322557 0.467202
O O11 0.645232 0.274142 0.550585
O O12 0.647878 0.280479 0.381401
O O13 0.500000 0.789351 0.855135
O O14 0.654446 0.740012 0.786755
O O15 0.500000 0.292071 0.291352
#
# Coordination Sequence:
#
# PCOD9477685 Si02
#       6
#    16  16  16  16  16  16
#     4  10  22  39  59  80 114 165 212 243 287 362
#     4  12  22  34  59  88 122 153 199 252 305 357
#     4  10  19  34  60  91 119 148 191 250 308 355
#     4  10  19  33  58  92 123 154 196 246 305 363
#     4   9  18  33  57  91 125 150 190 247 303 359
#     4   9  18  35  58  84 117 163 200 237 295 358
#
# _framework density 21.968402999999999
#
# number of rings (size 3 to 8) (size 9 to 14) (size 15 to 20)
#    0.000    2.000    3.333    1.000    0.000    1.000 
#    0.000    2.500    7.333    6.000    0.000    0.000 
#    0.000    0.000    0.000    0.000    0.000    0.000 
#
# Total GULP energy -268104.674117 kJ/mol
# GULP energy per Si atom -5585.514044 kJ/mol
# Density = 2.191840 g / cm^3
# Si number density = 21.968403 Si / 1000 Ang^3
#
#
#
# Elastic Constant Matrix: (Units=GPa)
#
#
# Indices 1 2 3 4 5 6 
#
# 1 78.0225 -2.8549 39.2722 0.0000 0.0000 0.0000
# 2 -2.8549 61.1955 62.7811 0.0000 0.0000 0.0000
# 3 39.2722 62.7811 183.9068 0.0000 0.0000 0.0000
# 4 0.0000 0.0000 0.0000 42.3563 0.0000 0.0000
# 5 0.0000 0.0000 0.0000 0.0000 35.1099 0.0000
# 6 0.0000 0.0000 0.0000 0.0000 0.0000 -2.7171
#
#
#
# Elastic Compliance Matrix: (Units=1/GPa)
#
#
# Indices 1 2 3 4 5 6 
#
# 1 0.015877 0.006493 -0.005607 0.000000 0.000000 0.000000
# 2 0.006493 0.027804 -0.010878 0.000000 0.000000 0.000000
# 3 -0.005607 -0.010878 0.010348 0.000000 0.000000 0.000000
# 4 0.000000 0.000000 0.000000 0.023609 0.000000 0.000000
# 5 0.000000 0.000000 0.000000 0.000000 0.028482 0.000000
# 6 0.000000 0.000000 0.000000 0.000000 0.000000 -0.368038
#
#
# Mechanical properties :
#
#
# Convention : Reuss Voigt Hill
#
# Bulk Modulus (GPa) = 29.37323 57.94683 43.66003
# Shear Modulus (GPa) = -21.68391 29.87824 4.09716
#
# Velocity S-wave (km/s) = -3.14514 3.69189 1.36714
# Velocity P-wave (km/s) = 0.45876 6.67893 4.73384
#
# Compressibility (1/GPa) = 0.03404460
#
# Stress axis : x y z
#
# Youngs Moduli (GPa) = 62.98594 35.96625 96.63406
#
# Poissons Ratio (x) = -0.23352 0.54181
# Poissons Ratio (y) = -0.40895 1.05119
# Poissons Ratio (z) = 0.35315 0.39124
#
# Static dielectric constant tensor:
#      x y z
#    x 1.798880 0.000000 0.000000 
#    y 0.000000 1.784050 0.000000 
#    z 0.000000 0.000000 1.845130 
# 
# From -- ./inp_files/23945.got.cif
#   From: 2010.05.17/outbox.cif.g08.bks.cpg/sg64_12_cif.got.tgz:23945.got - 2010.06.03 16:29:19.
