data_PCOD9477725
_publ_section_title
;
Structure prediction by ZEFSAII (Michael W. Deem and Ramdas Pophale) SiO2 
 PCOD9477725
Probable space group: C M C A
;
_chemical_formula_sum "Si O2"
_cell_formula_units_Z 96
_cell_length_a 8.897118
_cell_length_b 24.244047
_cell_length_c 26.598650
_cell_angle_alpha 90.000000
_cell_angle_beta 90.000000
_cell_angle_gamma 90.000000
_cell_volume 5737.385911
_symmetry_space_group_name_H-M "C M C A"
_symmetry_group_IT_number 64
_symmetry_cell_setting 'orthorhombic'
loop_
_space_group_symop_operation_xyz
x,y,z
-x,1/2-y,1/2+z
x,-y,-z
-x,1/2+y,1/2-z
-x,-y,-z
x,1/2+y,1/2-z
-x,y,z
x,1/2-y,1/2+z
1/2+x,1/2+y,z
1/2-x,-y,1/2+z
1/2+x,1/2-y,-z
1/2-x,y,1/2-z
1/2-x,1/2-y,-z
1/2+x,y,1/2-z
1/2-x,1/2+y,z
1/2+x,-y,1/2+z
loop_
_atom_site_type_symbol
_atom_site_label
_atom_site_fract_x
_atom_site_fract_y
_atom_site_fract_z
Si Si1 0.178047 0.507854 0.880196
Si Si2 0.674338 0.069543 0.460633
Si Si3 0.681010 0.233048 0.554047
Si Si4 0.324836 0.329402 0.884696
Si Si5 0.819609 0.606636 0.571355
Si Si6 0.318939 0.588625 0.305248
O O1 0.227443 0.472777 0.929077
O O2 0.252064 0.567692 0.885779
O O3 0.224215 0.468503 0.833759
O O4 0.000000 0.513777 0.878913
O O5 0.500000 0.050698 0.459928
O O6 0.679439 0.127440 0.431147
O O7 0.722788 0.080362 0.517373
O O8 0.500000 0.235382 0.550100
O O9 0.750000 0.250000 0.500000
O O10 0.740476 0.275382 0.595890
O O11 0.725231 0.170644 0.568993
O O12 0.500000 0.318424 0.873376
O O13 0.246036 0.361413 0.838902
O O14 0.000000 0.604840 0.574509
O O15 0.500000 0.591783 0.303944
O O16 0.250000 0.590094 0.250000
#
# Coordination Sequence:
#
# PCOD9477725 Si02
#       6
#    16  16  16  16  16  16
#     4  10  21  33  48  76 105 131 171 220 266 312
#     4   9  17  31  48  69 102 142 177 209 252 310
#     4  11  21  34  51  75 108 147 187 223 260 314
#     4  10  19  34  54  79 108 141 179 221 267 313
#     4  10  20  33  48  70 104 146 182 210 252 311
#     4  10  21  38  59  83 106 133 171 221 275 324
#
# _framework density 16.732358000000001
#
# number of rings (size 3 to 8) (size 9 to 14) (size 15 to 20)
#    0.000    2.000    1.667    2.500    0.000    6.667 
#    0.000    0.000    0.000    1.000    0.000    2.333 
#    0.000    0.000    0.000    0.000    0.000    0.000 
#
# Total GULP energy -267852.018227 kJ/mol
# GULP energy per Si atom -5580.250380 kJ/mol
# Density = 1.669427 g / cm^3
# Si number density = 16.732358 Si / 1000 Ang^3
#
#
#
# Elastic Constant Matrix: (Units=GPa)
#
#
# Indices 1 2 3 4 5 6 
#
# 1 53.2198 39.6617 40.3138 0.0000 0.0000 0.0000
# 2 39.6617 110.0611 60.7548 0.0000 0.0000 0.0000
# 3 40.3138 60.7548 110.4561 0.0000 0.0000 0.0000
# 4 0.0000 0.0000 0.0000 10.2451 0.0000 0.0000
# 5 0.0000 0.0000 0.0000 0.0000 24.8250 0.0000
# 6 0.0000 0.0000 0.0000 0.0000 0.0000 28.6396
#
#
#
# Elastic Compliance Matrix: (Units=1/GPa)
#
#
# Indices 1 2 3 4 5 6 
#
# 1 0.028972 -0.006610 -0.006938 0.000000 0.000000 0.000000
# 2 -0.006610 0.014556 -0.005593 0.000000 0.000000 0.000000
# 3 -0.006938 -0.005593 0.014662 0.000000 0.000000 0.000000
# 4 0.000000 0.000000 0.000000 0.097607 0.000000 0.000000
# 5 0.000000 0.000000 0.000000 0.000000 0.040282 0.000000
# 6 0.000000 0.000000 0.000000 0.000000 0.000000 0.034917
#
#
# Mechanical properties :
#
#
# Convention : Reuss Voigt Hill
#
# Bulk Modulus (GPa) = 50.23656 61.68859 55.96257
# Shear Modulus (GPa) = 18.12151 21.60907 19.86529
#
# Velocity S-wave (km/s) = 3.29450 3.59758 3.44937
# Velocity P-wave (km/s) = 6.67536 7.36238 7.02727
#
# Compressibility (1/GPa) = 0.01990582
#
# Stress axis : x y z
#
# Youngs Moduli (GPa) = 34.51610 68.70174 68.20261
#
# Poissons Ratio (x) = 0.45415 0.47319
# Poissons Ratio (y) = 0.22817 0.38149
# Poissons Ratio (z) = 0.23947 0.38428
#
# Static dielectric constant tensor:
#      x y z
#    x 1.562890 0.000000 0.000000 
#    y 0.000000 1.583010 0.000000 
#    z 0.000000 0.000000 1.537860 
# 
# From -- ./inp_files/43024.got.cif
#   From: 2010.05.17/outbox.cif.g08.bks.cpg/sg64_22_cif.got.tgz:43024.got - 2010.06.03 16:29:19.
