data_PCOD9477096
_publ_section_title
;
Structure prediction by ZEFSAII (Michael W. Deem and Ramdas Pophale) SiO2 
 PCOD9477096
Probable space group: C M C A
;
_chemical_formula_sum "Si O2"
_cell_formula_units_Z 88
_cell_length_a 19.621306
_cell_length_b 14.619030
_cell_length_c 15.660570
_cell_angle_alpha 90.000000
_cell_angle_beta 90.000000
_cell_angle_gamma 90.000000
_cell_volume 4492.147761
_symmetry_space_group_name_H-M "C M C A"
_symmetry_group_IT_number 64
_symmetry_cell_setting 'orthorhombic'
loop_
_space_group_symop_operation_xyz
x,y,z
-x,1/2-y,1/2+z
x,-y,-z
-x,1/2+y,1/2-z
-x,-y,-z
x,1/2+y,1/2-z
-x,y,z
x,1/2-y,1/2+z
1/2+x,1/2+y,z
1/2-x,-y,1/2+z
1/2+x,1/2-y,-z
1/2-x,y,1/2-z
1/2-x,1/2-y,-z
1/2+x,y,1/2-z
1/2-x,1/2+y,z
1/2+x,-y,1/2+z
loop_
_atom_site_type_symbol
_atom_site_label
_atom_site_fract_x
_atom_site_fract_y
_atom_site_fract_z
Si Si1 0.854982 0.323237 0.386873
Si Si2 0.000000 0.090734 0.443752
Si Si3 0.143854 0.119547 0.358606
Si Si4 0.500000 0.294780 0.021430
Si Si5 0.500000 0.047664 0.404477
Si Si6 0.225906 0.600422 0.462352
Si Si7 0.144174 0.020916 0.184526
O O1 0.849038 0.227486 0.337455
O O2 0.932028 0.322682 0.425699
O O3 0.804869 0.329784 0.469100
O O4 0.838884 0.414257 0.332734
O O5 0.067659 0.096834 0.387383
O O6 0.000000 0.186636 0.494327
O O7 0.000000 0.000000 0.500000
O O8 0.195538 0.107440 0.437421
O O9 0.158259 0.052609 0.280267
O O10 0.500000 0.347130 0.932434
O O11 0.433507 0.027071 0.349184
O O12 0.500000 0.000000 0.500000
O O13 0.212204 0.500000 0.500000
O O14 0.184686 0.593600 0.374229
#
# Coordination Sequence:
#
# PCOD9477096 Si02
#       7
#    16   8  16   8   8  16  16
#     4  10  20  38  61  88 115 158 197 245 287 361
#     4  10  23  42  57  79 120 165 198 231 290 361
#     4  11  23  39  57  87 124 155 194 249 302 350
#     4  10  18  35  64  89 108 145 210 240 271 351
#     4  12  17  35  65  92 112 148 195 246 294 344
#     4  10  20  38  63  84 112 158 203 238 290 360
#     4  11  21  36  60  90 120 144 193 253 303 336
#
# _framework density 19.589737
#
# number of rings (size 3 to 8) (size 9 to 14) (size 15 to 20)
#    0.000    1.455    3.636    2.727    0.000    0.000 
#    3.273    9.091    0.000    0.000    0.000    0.000 
#    0.000    0.000    0.000    0.000    0.000    0.000 
#
# Total GULP energy -245373.129632 kJ/mol
# GULP energy per Si atom -5576.662037 kJ/mol
# Density = 1.954515 g / cm^3
# Si number density = 19.589737 Si / 1000 Ang^3
#
#
#
# Elastic Constant Matrix: (Units=GPa)
#
#
# Indices 1 2 3 4 5 6 
#
# 1 90.2576 -6.0697 19.3814 0.0000 0.0000 0.0000
# 2 -6.0697 118.7980 47.4756 0.0000 0.0000 0.0000
# 3 19.3814 47.4756 68.8964 0.0000 0.0000 0.0000
# 4 0.0000 0.0000 0.0000 28.1915 0.0000 0.0000
# 5 0.0000 0.0000 0.0000 0.0000 16.0402 0.0000
# 6 0.0000 0.0000 0.0000 0.0000 0.0000 73.2330
#
#
#
# Elastic Compliance Matrix: (Units=1/GPa)
#
#
# Indices 1 2 3 4 5 6 
#
# 1 0.012434 0.002806 -0.005431 0.000000 0.000000 0.000000
# 2 0.002806 0.012250 -0.009231 0.000000 0.000000 0.000000
# 3 -0.005431 -0.009231 0.022403 0.000000 0.000000 0.000000
# 4 0.000000 0.000000 0.000000 0.035472 0.000000 0.000000
# 5 0.000000 0.000000 0.000000 0.000000 0.062344 0.000000
# 6 0.000000 0.000000 0.000000 0.000000 0.000000 0.013655
#
#
# Mechanical properties :
#
#
# Convention : Reuss Voigt Hill
#
# Bulk Modulus (GPa) = 42.78042 44.39184 43.58613
# Shear Modulus (GPa) = 26.30726 37.97057 32.13891
#
# Velocity S-wave (km/s) = 3.66855 4.40738 4.05483
# Velocity P-wave (km/s) = 6.31110 6.97208 6.64981
#
# Compressibility (1/GPa) = 0.02337518
#
# Stress axis : x y z
#
# Youngs Moduli (GPa) = 80.42192 81.63380 44.63667
#
# Poissons Ratio (x) = -0.22906 0.24244
# Poissons Ratio (y) = -0.22566 0.41202
# Poissons Ratio (z) = 0.43681 0.75352
#
# Static dielectric constant tensor:
#      x y z
#    x 1.714530 0.000000 0.000000 
#    y 0.000000 1.710710 0.000000 
#    z 0.000000 0.000000 1.668620 
# 
# From -- ./inp_files/26272.got.cif
#   From: 2010.05.17/outbox.cif.g08.bks.cpg/sg64_14_cif.got.tgz:26272.got - 2010.06.03 16:29:19.
