data_PCOD9477995
_publ_section_title
;
Structure prediction by ZEFSAII (Michael W. Deem and Ramdas Pophale) SiO2 
 PCOD9477995
Probable space group: C M C A
;
_chemical_formula_sum "Si O2"
_cell_formula_units_Z 88
_cell_length_a 22.417133
_cell_length_b 15.636054
_cell_length_c 13.436103
_cell_angle_alpha 90.000000
_cell_angle_beta 90.000000
_cell_angle_gamma 90.000000
_cell_volume 4709.562389
_symmetry_space_group_name_H-M "C M C A"
_symmetry_group_IT_number 64
_symmetry_cell_setting 'orthorhombic'
loop_
_space_group_symop_operation_xyz
x,y,z
-x,1/2-y,1/2+z
x,-y,-z
-x,1/2+y,1/2-z
-x,-y,-z
x,1/2+y,1/2-z
-x,y,z
x,1/2-y,1/2+z
1/2+x,1/2+y,z
1/2-x,-y,1/2+z
1/2+x,1/2-y,-z
1/2-x,y,1/2-z
1/2-x,1/2-y,-z
1/2+x,y,1/2-z
1/2-x,1/2+y,z
1/2+x,-y,1/2+z
loop_
_atom_site_type_symbol
_atom_site_label
_atom_site_fract_x
_atom_site_fract_y
_atom_site_fract_z
Si Si1 0.570681 0.151683 0.366111
Si Si2 0.710585 0.846609 0.081110
Si Si3 0.367069 0.000000 0.000000
Si Si4 0.658732 0.187492 0.541345
Si Si5 0.929048 0.491647 0.796661
Si Si6 0.620026 0.317538 0.258835
O O1 0.500000 0.143404 0.389139
O O2 0.613332 0.145965 0.462508
O O3 0.588211 0.078641 0.286161
O O4 0.582957 0.245046 0.317384
O O5 0.686285 0.771832 0.009198
O O6 0.685323 0.820734 0.189291
O O7 0.780811 0.862573 0.070657
O O8 0.674763 0.928576 0.046149
O O9 0.405758 0.032308 0.093344
O O10 0.624928 0.206032 0.643669
O O11 0.906506 0.587129 0.770209
O O12 0.000000 0.493617 0.799115
#
# Coordination Sequence:
#
# PCOD9477995 Si02
#       6
#    16  16   8  16  16  16
#     4  10  22  37  54  81 112 143 183 224 267 325
#     4   9  20  35  56  82 106 136 183 224 266 325
#     4  10  19  36  58  80 105 140 182 230 272 314
#     4  10  20  37  56  78 111 146 173 220 279 324
#     4  10  21  36  55  81 110 142 183 225 267 320
#     4  10  20  36  57  80 108 144 182 222 268 321
#
# _framework density 18.685388
#
# number of rings (size 3 to 8) (size 9 to 14) (size 15 to 20)
#    0.000    2.182    0.000    2.455    0.000    3.636 
#    0.000   10.909    0.000    0.000    0.000    0.000 
#    0.000    0.000    0.000    0.000    0.000    0.000 
#
# Total GULP energy -245305.257404 kJ/mol
# GULP energy per Si atom -5575.119486 kJ/mol
# Density = 1.864286 g / cm^3
# Si number density = 18.685388 Si / 1000 Ang^3
#
#
#
# Elastic Constant Matrix: (Units=GPa)
#
#
# Indices 1 2 3 4 5 6 
#
# 1 87.5746 8.7500 34.2572 0.0000 0.0000 0.0000
# 2 8.7500 56.2277 4.7718 0.0000 0.0000 0.0000
# 3 34.2572 4.7718 110.4523 0.0000 0.0000 0.0000
# 4 0.0000 0.0000 0.0000 20.2987 0.0000 0.0000
# 5 0.0000 0.0000 0.0000 0.0000 26.8593 0.0000
# 6 0.0000 0.0000 0.0000 0.0000 0.0000 18.5379
#
#
#
# Elastic Compliance Matrix: (Units=1/GPa)
#
#
# Indices 1 2 3 4 5 6 
#
# 1 0.013157 -0.001707 -0.004007 0.000000 0.000000 0.000000
# 2 -0.001707 0.018072 -0.000251 0.000000 0.000000 0.000000
# 3 -0.004007 -0.000251 0.010307 0.000000 0.000000 0.000000
# 4 0.000000 0.000000 0.000000 0.049264 0.000000 0.000000
# 5 0.000000 0.000000 0.000000 0.000000 0.037231 0.000000
# 6 0.000000 0.000000 0.000000 0.000000 0.000000 0.053943
#
#
# Mechanical properties :
#
#
# Convention : Reuss Voigt Hill
#
# Bulk Modulus (GPa) = 33.77801 38.86806 36.32304
# Shear Modulus (GPa) = 24.53699 26.90422 25.72060
#
# Velocity S-wave (km/s) = 3.62769 3.79866 3.71416
# Velocity P-wave (km/s) = 5.97188 6.33137 6.15425
#
# Compressibility (1/GPa) = 0.02960506
#
# Stress axis : x y z
#
# Youngs Moduli (GPa) = 76.00609 55.33467 97.01871
#
# Poissons Ratio (x) = 0.09448 0.38874
# Poissons Ratio (y) = 0.12977 0.02437
# Poissons Ratio (z) = 0.30455 0.01390
#
# Static dielectric constant tensor:
#      x y z
#    x 1.651160 0.000000 0.000000 
#    y 0.000000 1.643250 0.000000 
#    z 0.000000 0.000000 1.654320 
# 
# From -- ./inp_files/17127.got.cif
#   From: 2010.05.17/outbox.cif.g08.bks.cpg/sg64_9_cif.got.tgz:17127.got - 2010.06.03 16:29:19.
