data_PCOD9477214
_publ_section_title
;
Structure prediction by ZEFSAII (Michael W. Deem and Ramdas Pophale) SiO2 
 PCOD9477214
Probable space group: C M C A
;
_chemical_formula_sum "Si O2"
_cell_formula_units_Z 96
_cell_length_a 8.878911
_cell_length_b 26.160386
_cell_length_c 25.895117
_cell_angle_alpha 90.000000
_cell_angle_beta 90.000000
_cell_angle_gamma 90.000000
_cell_volume 6014.807438
_symmetry_space_group_name_H-M "C M C A"
_symmetry_group_IT_number 64
_symmetry_cell_setting 'orthorhombic'
loop_
_space_group_symop_operation_xyz
x,y,z
-x,1/2-y,1/2+z
x,-y,-z
-x,1/2+y,1/2-z
-x,-y,-z
x,1/2+y,1/2-z
-x,y,z
x,1/2-y,1/2+z
1/2+x,1/2+y,z
1/2-x,-y,1/2+z
1/2+x,1/2-y,-z
1/2-x,y,1/2-z
1/2-x,1/2-y,-z
1/2+x,y,1/2-z
1/2-x,1/2+y,z
1/2+x,-y,1/2+z
loop_
_atom_site_type_symbol
_atom_site_label
_atom_site_fract_x
_atom_site_fract_y
_atom_site_fract_z
Si Si1 0.681162 0.858544 0.192931
Si Si2 0.181059 0.057592 0.391808
Si Si3 0.819038 0.640961 0.192714
Si Si4 0.318316 0.060717 0.892627
Si Si5 0.680528 0.255130 0.807507
Si Si6 0.826786 0.437935 0.500532
O O1 0.500000 0.861525 0.198063
O O2 0.750000 0.864227 0.250000
O O3 0.731932 0.902187 0.153389
O O4 0.715153 0.801467 0.171395
O O5 0.222619 0.094019 0.344370
O O6 0.248936 0.076912 0.445836
O O7 0.000000 0.057887 0.396271
O O8 0.227969 0.998421 0.383676
O O9 0.750000 0.634512 0.250000
O O10 0.755077 0.694110 0.169453
O O11 0.000000 0.644062 0.196812
O O12 0.500000 0.061859 0.894542
O O13 0.255927 0.078071 0.948106
O O14 0.750000 0.253514 0.750000
O O15 0.000000 0.238684 0.194638
O O16 0.821721 0.500000 0.500000
O O17 0.000000 0.421811 0.499785
#
# Coordination Sequence:
#
# PCOD9477214 Si02
#       6
#    16  16  16  16  16  16
#     4   9  18  30  46  68  92 119 150 183 220 264
#     4   9  18  31  47  66  90 121 151 179 218 268
#     4  10  19  30  45  67  92 119 151 183 219 263
#     4   9  17  31  48  66  91 121 149 179 220 268
#     4   9  16  28  45  64  86 115 151 186 219 256
#     4   9  17  29  46  68  90 114 149 188 221 257
#
# _framework density 15.960611
#
# number of rings (size 3 to 8) (size 9 to 14) (size 15 to 20)
#    0.000    2.833    0.000    2.500    0.000    5.333 
#    0.000    0.000    0.000    1.000    0.000    0.000 
#    0.000    0.000    0.000    0.000    0.000    0.000 
#
# Total GULP energy -267226.501433 kJ/mol
# GULP energy per Si atom -5567.218780 kJ/mol
# Density = 1.592428 g / cm^3
# Si number density = 15.960611 Si / 1000 Ang^3
#
#
#
# Elastic Constant Matrix: (Units=GPa)
#
#
# Indices 1 2 3 4 5 6 
#
# 1 33.5440 34.9433 33.4723 0.0000 0.0000 0.0000
# 2 34.9433 106.8167 72.6430 0.0000 0.0000 0.0000
# 3 33.4723 72.6430 107.2497 0.0000 0.0000 0.0000
# 4 0.0000 0.0000 0.0000 -1.0586 0.0000 0.0000
# 5 0.0000 0.0000 0.0000 0.0000 18.6086 0.0000
# 6 0.0000 0.0000 0.0000 0.0000 0.0000 17.2663
#
#
#
# Elastic Compliance Matrix: (Units=1/GPa)
#
#
# Indices 1 2 3 4 5 6 
#
# 1 0.048820 -0.010398 -0.008193 0.000000 0.000000 0.000000
# 2 -0.010398 0.019572 -0.010011 0.000000 0.000000 0.000000
# 3 -0.008193 -0.010011 0.018662 0.000000 0.000000 0.000000
# 4 0.000000 0.000000 0.000000 -0.944623 0.000000 0.000000
# 5 0.000000 0.000000 0.000000 0.000000 0.053739 0.000000
# 6 0.000000 0.000000 0.000000 0.000000 0.000000 0.057916
#
#
# Mechanical properties :
#
#
# Convention : Reuss Voigt Hill
#
# Bulk Modulus (GPa) = 33.50363 58.85862 46.18112
# Shear Modulus (GPa) = -7.36638 14.06671 3.35016
#
# Velocity S-wave (km/s) = -2.15067 2.97196 1.45037
# Velocity P-wave (km/s) = 3.85614 6.98099 5.63933
#
# Compressibility (1/GPa) = 0.02984752
#
# Stress axis : x y z
#
# Youngs Moduli (GPa) = 20.48354 51.09385 53.58490
#
# Poissons Ratio (x) = 0.53130 0.43904
# Poissons Ratio (y) = 0.21300 0.53645
# Poissons Ratio (z) = 0.16783 0.51151
#
# Static dielectric constant tensor:
#      x y z
#    x 1.537700 0.000000 0.000000 
#    y 0.000000 1.564880 0.000000 
#    z 0.000000 0.000000 1.509180 
# 
# From -- ./inp_files/43183.got.cif
#   From: 2010.05.17/outbox.cif.g08.bks.cpg/sg64_22_cif.got.tgz:43183.got - 2010.06.03 16:29:19.
