data_PCOD9477853
_publ_section_title
;
Structure prediction by ZEFSAII (Michael W. Deem and Ramdas Pophale) SiO2 
 PCOD9477853
Probable space group: C M C A
;
_chemical_formula_sum "Si O2"
_cell_formula_units_Z 80
_cell_length_a 18.273321
_cell_length_b 8.209683
_cell_length_c 25.416038
_cell_angle_alpha 90.000000
_cell_angle_beta 90.000000
_cell_angle_gamma 90.000000
_cell_volume 3812.867580
_symmetry_space_group_name_H-M "C M C A"
_symmetry_group_IT_number 64
_symmetry_cell_setting 'orthorhombic'
loop_
_space_group_symop_operation_xyz
x,y,z
-x,1/2-y,1/2+z
x,-y,-z
-x,1/2+y,1/2-z
-x,-y,-z
x,1/2+y,1/2-z
-x,y,z
x,1/2-y,1/2+z
1/2+x,1/2+y,z
1/2-x,-y,1/2+z
1/2+x,1/2-y,-z
1/2-x,y,1/2-z
1/2-x,1/2-y,-z
1/2+x,y,1/2-z
1/2-x,1/2+y,z
1/2+x,-y,1/2+z
loop_
_atom_site_type_symbol
_atom_site_label
_atom_site_fract_x
_atom_site_fract_y
_atom_site_fract_z
Si Si1 0.167560 0.691467 0.513279
Si Si2 0.853658 0.304545 0.091811
Si Si3 0.327500 0.749194 0.777298
Si Si4 0.416847 0.558835 0.691671
Si Si5 0.196330 0.436070 0.383159
O O1 0.162021 0.500000 0.500000
O O2 0.250000 0.750000 0.500000
O O3 0.123167 0.791427 0.469356
O O4 0.155463 0.687518 0.575837
O O5 0.911530 0.367314 0.133465
O O6 0.781055 0.414810 0.099995
O O7 0.829246 0.120958 0.108371
O O8 0.250000 0.785386 0.750000
O O9 0.383183 0.685375 0.733306
O O10 0.314410 0.618411 0.823476
O O11 0.363362 0.905683 0.803557
O O12 0.500000 0.516761 0.704932
#
# Coordination Sequence:
#
# PCOD9477853 Si02
#       5
#    16  16  16  16  16
#     4   8  16  30  53  87 122 149 187 243 300 349
#     4  10  19  35  59  90 123 157 196 243 305 355
#     4  12  24  40  63  89 117 158 208 255 302 358
#     4  12  26  42  60  86 125 163 201 251 310 367
#     4  10  19  34  61  93 119 151 200 257 293 348
#
# _framework density 20.981583000000001
#
# number of rings (size 3 to 8) (size 9 to 14) (size 15 to 20)
#    0.000    1.600    2.000    3.600    0.000    1.600 
#    0.000    1.000    0.000    9.000    0.000    0.000 
#    0.000    0.000    0.000    0.000    0.000    0.000 
#
# Total GULP energy -223337.638304 kJ/mol
# GULP energy per Si atom -5583.440958 kJ/mol
# Density = 2.093383 g / cm^3
# Si number density = 20.981583 Si / 1000 Ang^3
#
#
#
# Elastic Constant Matrix: (Units=GPa)
#
#
# Indices 1 2 3 4 5 6 
#
# 1 69.6150 19.1741 30.1897 0.0000 0.0000 0.0000
# 2 19.1741 61.0609 0.7797 0.0000 0.0000 0.0000
# 3 30.1897 0.7797 84.1321 0.0000 0.0000 0.0000
# 4 0.0000 0.0000 0.0000 26.6449 0.0000 0.0000
# 5 0.0000 0.0000 0.0000 0.0000 13.2085 0.0000
# 6 0.0000 0.0000 0.0000 0.0000 0.0000 1.7814
#
#
#
# Elastic Compliance Matrix: (Units=1/GPa)
#
#
# Indices 1 2 3 4 5 6 
#
# 1 0.018891 -0.005846 -0.006725 0.000000 0.000000 0.000000
# 2 -0.005846 0.018188 0.001929 0.000000 0.000000 0.000000
# 3 -0.006725 0.001929 0.014281 0.000000 0.000000 0.000000
# 4 0.000000 0.000000 0.000000 0.037531 0.000000 0.000000
# 5 0.000000 0.000000 0.000000 0.000000 0.075709 0.000000
# 6 0.000000 0.000000 0.000000 0.000000 0.000000 0.561365
#
#
# Mechanical properties :
#
#
# Convention : Reuss Voigt Hill
#
# Bulk Modulus (GPa) = 33.24750 35.01054 34.12902
# Shear Modulus (GPa) = 6.60263 19.30459 12.95361
#
# Velocity S-wave (km/s) = 1.77587 3.03656 2.48741
# Velocity P-wave (km/s) = 4.48167 5.38673 4.95491
#
# Compressibility (1/GPa) = 0.03007745
#
# Stress axis : x y z
#
# Youngs Moduli (GPa) = 52.93465 54.98050 70.02181
#
# Poissons Ratio (x) = 0.32143 0.47088
# Poissons Ratio (y) = 0.30947 -0.13509
# Poissons Ratio (z) = 0.35597 -0.10607
#
# Static dielectric constant tensor:
#      x y z
#    x 1.702430 0.000000 0.000000 
#    y 0.000000 1.787880 0.000000 
#    z 0.000000 0.000000 1.842220 
# 
# From -- ./inp_files/50289.got.cif
#   From: 2010.05.17/outbox.cif.g08.bks.cpg/sg64_26_cif.got.tgz:50289.got - 2010.06.03 16:29:19.
