data_PCOD9477661
_publ_section_title
;
Structure prediction by ZEFSAII (Michael W. Deem and Ramdas Pophale) SiO2 
 PCOD9477661
Probable space group: C M C A
;
_chemical_formula_sum "Si O2"
_cell_formula_units_Z 64
_cell_length_a 16.587562
_cell_length_b 14.287448
_cell_length_c 14.650508
_cell_angle_alpha 90.000000
_cell_angle_beta 90.000000
_cell_angle_gamma 90.000000
_cell_volume 3472.081460
_symmetry_space_group_name_H-M "C M C A"
_symmetry_group_IT_number 64
_symmetry_cell_setting 'orthorhombic'
loop_
_space_group_symop_operation_xyz
x,y,z
-x,1/2-y,1/2+z
x,-y,-z
-x,1/2+y,1/2-z
-x,-y,-z
x,1/2+y,1/2-z
-x,y,z
x,1/2-y,1/2+z
1/2+x,1/2+y,z
1/2-x,-y,1/2+z
1/2+x,1/2-y,-z
1/2-x,y,1/2-z
1/2-x,1/2-y,-z
1/2+x,y,1/2-z
1/2-x,1/2+y,z
1/2+x,-y,1/2+z
loop_
_atom_site_type_symbol
_atom_site_label
_atom_site_fract_x
_atom_site_fract_y
_atom_site_fract_z
Si Si1 0.689120 0.400699 0.833995
Si Si2 0.591169 0.916394 0.352781
Si Si3 0.758372 0.141003 0.974595
Si Si4 0.833129 0.315026 0.191736
O O1 0.750000 0.414758 0.750000
O O2 0.620078 0.478073 0.833463
O O3 0.655058 0.294846 0.829139
O O4 0.738176 0.411389 0.929070
O O5 0.500000 0.911825 0.386218
O O6 0.656277 0.876605 0.424682
O O7 0.601607 0.859108 0.258538
O O8 0.687692 0.127673 0.900167
O O9 0.750000 0.250000 0.000000
O O10 0.750000 0.319098 0.250000
#
# Coordination Sequence:
#
# PCOD9477661 Si02
#       4
#    16  16  16  16
#     4  10  19  33  57  80 102 139 185 227 265 316
#     4  11  22  34  52  82 115 141 173 224 279 323
#     4   9  18  35  57  78 102 138 184 223 261 317
#     4   8  17  35  55  76 103 141 185 223 263 318
#
# _framework density 18.432748
#
# number of rings (size 3 to 8) (size 9 to 14) (size 15 to 20)
#    0.000    2.500    0.000    4.500    0.000    3.000 
#    0.000    3.750    0.000    3.000    0.000    0.000 
#    0.000    0.000    0.000    0.000    0.000    0.000 
#
# Total GULP energy -178359.909428 kJ/mol
# GULP energy per Si atom -5573.747170 kJ/mol
# Density = 1.839079 g / cm^3
# Si number density = 18.432748 Si / 1000 Ang^3
#
#
#
# Elastic Constant Matrix: (Units=GPa)
#
#
# Indices 1 2 3 4 5 6 
#
# 1 78.8156 31.3246 29.7422 0.0000 0.0000 0.0000
# 2 31.3246 81.6161 30.0215 0.0000 0.0000 0.0000
# 3 29.7422 30.0215 132.4764 0.0000 0.0000 0.0000
# 4 0.0000 0.0000 0.0000 23.0904 0.0000 0.0000
# 5 0.0000 0.0000 0.0000 0.0000 13.6004 0.0000
# 6 0.0000 0.0000 0.0000 0.0000 0.0000 -6.0835
#
#
#
# Elastic Compliance Matrix: (Units=1/GPa)
#
#
# Indices 1 2 3 4 5 6 
#
# 1 0.015611 -0.005130 -0.002342 0.000000 0.000000 0.000000
# 2 -0.005130 0.015052 -0.002259 0.000000 0.000000 0.000000
# 3 -0.002342 -0.002259 0.008586 0.000000 0.000000 0.000000
# 4 0.000000 0.000000 0.000000 0.043308 0.000000 0.000000
# 5 0.000000 0.000000 0.000000 0.000000 0.073527 0.000000
# 6 0.000000 0.000000 0.000000 0.000000 0.000000 -0.164378
#
#
# Mechanical properties :
#
#
# Convention : Reuss Voigt Hill
#
# Bulk Modulus (GPa) = 50.53980 52.78719 51.66349
# Shear Modulus (GPa) = 281.45820 19.57612 150.51716
#
# Velocity S-wave (km/s) = 12.37037 3.26241 9.04626
# Velocity P-wave (km/s) = 15.21555 6.54912 11.71332
#
# Compressibility (1/GPa) = 0.01978639
#
# Stress axis : x y z
#
# Youngs Moduli (GPa) = 64.05941 66.43439 116.46330
#
# Poissons Ratio (x) = 0.34080 0.27278
# Poissons Ratio (y) = 0.32861 0.26314
# Poissons Ratio (z) = 0.15004 0.15011
#
# Static dielectric constant tensor:
#      x y z
#    x 1.584120 0.000000 0.000000 
#    y 0.000000 1.673860 0.000000 
#    z 0.000000 0.000000 1.696950 
# 
# From -- ./inp_files/23221.got.cif
#   From: 2010.05.17/outbox.cif.g08.bks.cpg/sg64_12_cif.got.tgz:23221.got - 2010.06.03 16:29:19.
