data_PCOD9477122
_publ_section_title
;
Structure prediction by ZEFSAII (Michael W. Deem and Ramdas Pophale) SiO2 
 PCOD9477122
Probable space group: C M C A
;
_chemical_formula_sum "Si O2"
_cell_formula_units_Z 116
_cell_length_a 17.582883
_cell_length_b 10.198736
_cell_length_c 26.845112
_cell_angle_alpha 90.000000
_cell_angle_beta 90.000000
_cell_angle_gamma 90.000000
_cell_volume 4813.950901
_symmetry_space_group_name_H-M "C M C A"
_symmetry_group_IT_number 64
_symmetry_cell_setting 'orthorhombic'
loop_
_space_group_symop_operation_xyz
x,y,z
-x,1/2-y,1/2+z
x,-y,-z
-x,1/2+y,1/2-z
-x,-y,-z
x,1/2+y,1/2-z
-x,y,z
x,1/2-y,1/2+z
1/2+x,1/2+y,z
1/2-x,-y,1/2+z
1/2+x,1/2-y,-z
1/2-x,y,1/2-z
1/2-x,1/2-y,-z
1/2+x,y,1/2-z
1/2-x,1/2+y,z
1/2+x,-y,1/2+z
loop_
_atom_site_type_symbol
_atom_site_label
_atom_site_fract_x
_atom_site_fract_y
_atom_site_fract_z
Si Si1 0.084010 0.707683 0.929598
Si Si2 0.220730 0.616601 0.112127
Si Si3 0.000000 0.000000 0.000000
Si Si4 0.811626 0.861768 0.350052
Si Si5 0.121965 0.012629 0.086048
Si Si6 0.591242 0.084183 0.692548
Si Si7 0.588105 0.134208 0.033215
Si Si8 0.407829 0.795988 0.730017
O O1 0.142774 0.618583 0.901946
O O2 0.086259 0.844684 0.901176
O O3 0.000000 0.651548 0.926614
O O4 0.100466 0.734678 0.987202
O O5 0.212995 0.510977 0.157194
O O6 0.251326 0.751025 0.135746
O O7 0.289374 0.551332 0.078635
O O8 0.149120 0.646985 0.076576
O O9 0.067244 0.968843 0.042056
O O10 0.867400 0.799099 0.309953
O O11 0.115691 0.927359 0.135461
O O12 0.500000 0.082264 0.693347
O O13 0.614848 0.948171 0.720926
O O14 0.613804 0.220688 0.718828
O O15 0.500000 0.145954 0.049715
O O16 0.595372 0.000000 0.000000
O O17 0.500000 0.790039 0.724981
#
# Coordination Sequence:
#
# PCOD9477122 Si02
#       8
#    16  16   4  16  16  16  16  16
#     4  10  18  36  66  92 131 185 234 287 353 435
#     4  11  25  43  68  98 142 196 242 303 359 434
#     4  12  24  36  68 108 144 196 236 284 368 432
#     4  11  23  42  66  96 139 185 234 296 363 437
#     4  11  23  40  66  99 148 186 242 290 362 438
#     4  10  19  41  72 110 142 182 238 301 356 436
#     4  10  21  37  61  99 136 185 249 305 361 426
#     4  10  21  40  78 107 136 183 243 295 372 428
#
# _framework density 24.096630999999999
#
# number of rings (size 3 to 8) (size 9 to 14) (size 15 to 20)
#    0.000    1.517    5.517    0.414    0.966    3.862 
#    2.483    0.690    0.000    0.000    0.000    0.000 
#    0.000    0.000    0.000    0.000    0.000    0.000 
#
# Total GULP energy -323159.780276 kJ/mol
# GULP energy per Si atom -5571.720350 kJ/mol
# Density = 2.404179 g / cm^3
# Si number density = 24.096631 Si / 1000 Ang^3
#
#
#
# Elastic Constant Matrix: (Units=GPa)
#
#
# Indices 1 2 3 4 5 6 
#
# 1 82.0518 9.9219 44.1101 0.0000 0.0000 0.0000
# 2 9.9219 80.5406 29.6031 0.0000 0.0000 0.0000
# 3 44.1101 29.6031 105.0513 0.0000 0.0000 0.0000
# 4 0.0000 0.0000 0.0000 37.0463 0.0000 0.0000
# 5 0.0000 0.0000 0.0000 0.0000 -21.9963 0.0000
# 6 0.0000 0.0000 0.0000 0.0000 0.0000 -10.0570
#
#
#
# Elastic Compliance Matrix: (Units=1/GPa)
#
#
# Indices 1 2 3 4 5 6 
#
# 1 0.015762 0.000548 -0.006773 0.000000 0.000000 0.000000
# 2 0.000548 0.013870 -0.004138 0.000000 0.000000 0.000000
# 3 -0.006773 -0.004138 0.013529 0.000000 0.000000 0.000000
# 4 0.000000 0.000000 0.000000 0.026993 0.000000 0.000000
# 5 0.000000 0.000000 0.000000 0.000000 -0.045462 0.000000
# 6 0.000000 0.000000 0.000000 0.000000 0.000000 -0.099433
#
#
# Mechanical properties :
#
#
# Convention : Reuss Voigt Hill
#
# Bulk Modulus (GPa) = 44.57517 48.32380 46.44948
# Shear Modulus (GPa) = -107.44309 13.26583 -47.08863
#
# Velocity S-wave (km/s) = -6.68470 2.34888 -4.42538
# Velocity P-wave (km/s) = 6.40637 5.23966 2.60650
#
# Compressibility (1/GPa) = 0.02243402
#
# Stress axis : x y z
#
# Youngs Moduli (GPa) = 63.44324 72.09951 73.91459
#
# Poissons Ratio (x) = -0.03948 0.50060
# Poissons Ratio (y) = -0.03474 0.30589
# Poissons Ratio (z) = 0.42968 0.29837
#
# Static dielectric constant tensor:
#      x y z
#    x 1.964640 0.000000 0.000000 
#    y 0.000000 1.969400 0.000000 
#    z 0.000000 0.000000 -0.203490 
# 
# From -- ./inp_files/50497.got.cif
#   From: 2010.05.17/outbox.cif.g08.bks.cpg/sg64_26_cif.got.tgz:50497.got - 2010.06.03 16:29:19.
