data_PCOD9477565
_publ_section_title
;
Structure prediction by ZEFSAII (Michael W. Deem and Ramdas Pophale) SiO2 
 PCOD9477565
Probable space group: C M C A
;
_chemical_formula_sum "Si O2"
_cell_formula_units_Z 104
_cell_length_a 14.100679
_cell_length_b 22.434136
_cell_length_c 18.643693
_cell_angle_alpha 90.000000
_cell_angle_beta 90.000000
_cell_angle_gamma 90.000000
_cell_volume 5897.681530
_symmetry_space_group_name_H-M "C M C A"
_symmetry_group_IT_number 64
_symmetry_cell_setting 'orthorhombic'
loop_
_space_group_symop_operation_xyz
x,y,z
-x,1/2-y,1/2+z
x,-y,-z
-x,1/2+y,1/2-z
-x,-y,-z
x,1/2+y,1/2-z
-x,y,z
x,1/2-y,1/2+z
1/2+x,1/2+y,z
1/2-x,-y,1/2+z
1/2+x,1/2-y,-z
1/2-x,y,1/2-z
1/2-x,1/2-y,-z
1/2+x,y,1/2-z
1/2-x,1/2+y,z
1/2+x,-y,1/2+z
loop_
_atom_site_type_symbol
_atom_site_label
_atom_site_fract_x
_atom_site_fract_y
_atom_site_fract_z
Si Si1 0.241279 0.781626 0.167241
Si Si2 0.109945 0.777623 0.452591
Si Si3 0.389227 0.100592 0.041244
Si Si4 0.749517 0.500000 0.000000
Si Si5 0.611336 0.423619 0.928011
Si Si6 0.110965 0.830533 0.050968
Si Si7 0.260607 0.360194 0.666757
O O1 0.250000 0.798087 0.250000
O O2 0.336658 0.787538 0.121287
O O3 0.166406 0.821750 0.124292
O O4 0.218730 0.710676 0.163736
O O5 0.117251 0.835645 0.502306
O O6 0.147829 0.721390 0.497581
O O7 0.000000 0.765106 0.438085
O O8 0.500000 0.083036 0.043839
O O9 0.322153 0.055431 0.997333
O O10 0.342691 0.107995 0.120065
O O11 0.677120 0.517984 0.064074
O O12 0.500000 0.433698 0.913624
O O13 0.662520 0.379270 0.872299
O O14 0.619566 0.390922 0.005599
O O15 0.000000 0.819743 0.063747
O O16 0.250000 0.376986 0.750000
#
# Coordination Sequence:
#
# PCOD9477565 Si02
#       7
#    16  16  16   8  16  16  16
#     4  11  20  30  48  76 113 145 169 207 257 316
#     4  10  19  33  53  76 103 137 173 210 257 312
#     4  10  20  35  56  78 104 139 178 222 263 308
#     4  10  20  34  54  80  98 124 174 226 264 304
#     4  10  20  35  56  78 104 139 178 222 263 308
#     4  10  19  33  53  76 103 137 173 210 257 312
#     4  10  20  31  48  79 114 142 168 206 263 321
#
# _framework density 17.634048
#
# number of rings (size 3 to 8) (size 9 to 14) (size 15 to 20)
#    0.000    1.846    3.077    2.769    0.000    1.231 
#    0.000    3.077    0.000   14.769    0.000   17.231 
#    0.000    0.000    0.000    0.000    0.000    0.000 
#
# Total GULP energy -289792.754167 kJ/mol
# GULP energy per Si atom -5572.937580 kJ/mol
# Density = 1.759391 g / cm^3
# Si number density = 17.634048 Si / 1000 Ang^3
#
#
#
# Elastic Constant Matrix: (Units=GPa)
#
#
# Indices 1 2 3 4 5 6 
#
# 1 118.3043 19.0488 43.8304 0.0000 0.0000 0.0000
# 2 19.0488 34.8375 10.4119 0.0000 0.0000 0.0000
# 3 43.8304 10.4119 126.3381 0.0000 0.0000 0.0000
# 4 0.0000 0.0000 0.0000 9.5654 0.0000 0.0000
# 5 0.0000 0.0000 0.0000 0.0000 -2.9450 0.0000
# 6 0.0000 0.0000 0.0000 0.0000 0.0000 21.8930
#
#
#
# Elastic Compliance Matrix: (Units=1/GPa)
#
#
# Indices 1 2 3 4 5 6 
#
# 1 0.010407 -0.004728 -0.003221 0.000000 0.000000 0.000000
# 2 -0.004728 0.031577 -0.000962 0.000000 0.000000 0.000000
# 3 -0.003221 -0.000962 0.009112 0.000000 0.000000 0.000000
# 4 0.000000 0.000000 0.000000 0.104543 0.000000 0.000000
# 5 0.000000 0.000000 0.000000 0.000000 -0.339556 0.000000
# 6 0.000000 0.000000 0.000000 0.000000 0.000000 0.045677
#
#
# Mechanical properties :
#
#
# Convention : Reuss Voigt Hill
#
# Bulk Modulus (GPa) = 30.05288 47.34025 38.69656
# Shear Modulus (GPa) = -45.73510 19.44861 -13.14325
#
# Velocity S-wave (km/s) = -5.09823 3.32460 -2.73304
# Velocity P-wave (km/s) = 4.19243 6.45302 3.46879
#
# Compressibility (1/GPa) = 0.03327468
#
# Stress axis : x y z
#
# Youngs Moduli (GPa) = 96.08550 31.66814 109.74526
#
# Poissons Ratio (x) = 0.14973 0.35349
# Poissons Ratio (y) = 0.45429 0.10559
# Poissons Ratio (z) = 0.30949 0.03047
#
# Static dielectric constant tensor:
#      x y z
#    x 1.634830 0.000000 0.000000 
#    y 0.000000 1.644000 0.000000 
#    z 0.000000 0.000000 1.571090 
# 
# From -- ./inp_files/32484.got.cif
#   From: 2010.05.17/outbox.cif.g08.bks.cpg/sg64_17_cif.got.tgz:32484.got - 2010.06.03 16:29:19.
