data_PCOD9477615
_publ_section_title
;
Structure prediction by ZEFSAII (Michael W. Deem and Ramdas Pophale) SiO2 
 PCOD9477615
Probable space group: C M C A
;
_chemical_formula_sum "Si O2"
_cell_formula_units_Z 80
_cell_length_a 17.653208
_cell_length_b 9.464869
_cell_length_c 17.838216
_cell_angle_alpha 90.000000
_cell_angle_beta 90.000000
_cell_angle_gamma 90.000000
_cell_volume 2980.503692
_symmetry_space_group_name_H-M "C M C A"
_symmetry_group_IT_number 64
_symmetry_cell_setting 'orthorhombic'
loop_
_space_group_symop_operation_xyz
x,y,z
-x,1/2-y,1/2+z
x,-y,-z
-x,1/2+y,1/2-z
-x,-y,-z
x,1/2+y,1/2-z
-x,y,z
x,1/2-y,1/2+z
1/2+x,1/2+y,z
1/2-x,-y,1/2+z
1/2+x,1/2-y,-z
1/2-x,y,1/2-z
1/2-x,1/2-y,-z
1/2+x,y,1/2-z
1/2-x,1/2+y,z
1/2+x,-y,1/2+z
loop_
_atom_site_type_symbol
_atom_site_label
_atom_site_fract_x
_atom_site_fract_y
_atom_site_fract_z
Si Si1 0.290728 0.825976 0.180530
Si Si2 0.152516 0.775550 0.592384
Si Si3 0.410390 0.835444 0.066782
Si Si4 0.082638 0.351221 0.759088
Si Si5 0.917222 0.493555 0.616174
O O1 0.250000 0.907984 0.250000
O O2 0.236229 0.727980 0.128653
O O3 0.349955 0.902790 0.125381
O O4 0.344615 0.726382 0.228289
O O5 0.128945 0.842579 0.514104
O O6 0.092468 0.832736 0.653112
O O7 0.141137 0.605248 0.585609
O O8 0.500000 0.878204 0.068611
O O9 0.410117 0.667442 0.088924
O O10 0.084352 0.491859 0.707548
O O11 0.000000 0.290193 0.738391
O O12 0.000000 0.544308 0.591849
#
# Coordination Sequence:
#
# PCOD9477615 Si02
#       5
#    16  16  16  16  16
#     4   9  19  33  48  72 108 145 176 216 272 331
#     4  11  19  31  53  83 113 142 183 232 281 326
#     4  10  19  33  55  81 110 143 182 230 280 330
#     4   9  18  34  53  75 107 146 184 223 272 327
#     4   9  18  32  52  79 108 139 181 231 277 324
#
# _framework density 26.841100999999998
#
# number of rings (size 3 to 8) (size 9 to 14) (size 15 to 20)
#    0.000    2.400    0.000    4.800    0.000    1.600 
#    0.000   24.000    0.000    0.000    0.000    7.000 
#    0.000   64.000    0.000    0.000    0.000    0.000 
#
# Total GULP energy -223301.547899 kJ/mol
# GULP energy per Si atom -5582.538697 kJ/mol
# Density = 2.678001 g / cm^3
# Si number density = 26.841101 Si / 1000 Ang^3
#
#
#
# Elastic Constant Matrix: (Units=GPa)
#
#
# Indices 1 2 3 4 5 6 
#
# 1 183.9599 25.7832 65.6885 0.0000 0.0000 0.0000
# 2 25.7832 57.4212 17.8686 0.0000 0.0000 0.0000
# 3 65.6885 17.8686 196.9778 0.0000 0.0000 0.0000
# 4 0.0000 0.0000 0.0000 22.9635 0.0000 0.0000
# 5 0.0000 0.0000 0.0000 0.0000 37.3364 0.0000
# 6 0.0000 0.0000 0.0000 0.0000 0.0000 15.9079
#
#
#
# Elastic Compliance Matrix: (Units=1/GPa)
#
#
# Indices 1 2 3 4 5 6 
#
# 1 0.006451 -0.002292 -0.001943 0.000000 0.000000 0.000000
# 2 -0.002292 0.018735 -0.000935 0.000000 0.000000 0.000000
# 3 -0.001943 -0.000935 0.005810 0.000000 0.000000 0.000000
# 4 0.000000 0.000000 0.000000 0.043547 0.000000 0.000000
# 5 0.000000 0.000000 0.000000 0.000000 0.026783 0.000000
# 6 0.000000 0.000000 0.000000 0.000000 0.000000 0.062862
#
#
# Mechanical properties :
#
#
# Convention : Reuss Voigt Hill
#
# Bulk Modulus (GPa) = 48.41457 73.00440 60.70948
# Shear Modulus (GPa) = 27.56108 37.17612 32.36860
#
# Velocity S-wave (km/s) = 3.20789 3.72566 3.47642
# Velocity P-wave (km/s) = 5.63891 6.76499 6.22746
#
# Compressibility (1/GPa) = 0.02065494
#
# Stress axis : x y z
#
# Youngs Moduli (GPa) = 155.01088 53.37510 172.12728
#
# Poissons Ratio (x) = 0.12233 0.33452
# Poissons Ratio (y) = 0.35527 0.16098
# Poissons Ratio (z) = 0.30125 0.04992
#
# Static dielectric constant tensor:
#      x y z
#    x 2.116400 0.000000 0.000000 
#    y 0.000000 2.136090 0.000000 
#    z 0.000000 0.000000 2.203590 
# 
# From -- ./inp_files/32990.got.cif
#   From: 2010.05.17/outbox.cif.g08.bks.cpg/sg64_17_cif.got.tgz:32990.got - 2010.06.03 16:29:19.
