data_PCOD9477284
_publ_section_title
;
Structure prediction by ZEFSAII (Michael W. Deem and Ramdas Pophale) SiO2 
 PCOD9477284
Probable space group: C M C A
;
_chemical_formula_sum "Si O2"
_cell_formula_units_Z 64
_cell_length_a 14.369682
_cell_length_b 35.676854
_cell_length_c 5.332406
_cell_angle_alpha 90.000000
_cell_angle_beta 90.000000
_cell_angle_gamma 90.000000
_cell_volume 2733.738171
_symmetry_space_group_name_H-M "C M C A"
_symmetry_group_IT_number 64
_symmetry_cell_setting 'orthorhombic'
loop_
_space_group_symop_operation_xyz
x,y,z
-x,1/2-y,1/2+z
x,-y,-z
-x,1/2+y,1/2-z
-x,-y,-z
x,1/2+y,1/2-z
-x,y,z
x,1/2-y,1/2+z
1/2+x,1/2+y,z
1/2-x,-y,1/2+z
1/2+x,1/2-y,-z
1/2-x,y,1/2-z
1/2-x,1/2-y,-z
1/2+x,y,1/2-z
1/2-x,1/2+y,z
1/2+x,-y,1/2+z
loop_
_atom_site_type_symbol
_atom_site_label
_atom_site_fract_x
_atom_site_fract_y
_atom_site_fract_z
Si Si1 0.387242 0.150624 0.835976
Si Si2 0.854154 0.735622 0.943511
Si Si3 0.113082 0.978009 0.749088
Si Si4 0.113535 0.892409 0.835672
O O1 0.500000 0.150842 0.830381
O O2 0.355733 0.126772 0.595024
O O3 0.356276 0.193543 0.842342
O O4 0.358053 0.131710 0.095878
O O5 0.896890 0.739205 0.221526
O O6 0.750000 0.750000 0.000000
O O7 0.142743 0.935095 0.784982
O O8 0.000000 0.977366 0.735085
O O9 0.144724 0.000000 0.500000
O O10 0.138366 0.000000 0.000000
O O11 0.000000 0.892797 0.844287
#
# Coordination Sequence:
#
# PCOD9477284 Si02
#       4
#    16  16  16  16
#     4  10  19  31  48  69  95 128 165 205 250 296
#     4  10  21  36  52  70  93 124 158 204 255 301
#     4   9  15  23  37  58  88 129 169 198 230 275
#     4   9  17  28  42  65  96 129 167 206 241 283
#
# _framework density 23.411166000000001
#
# number of rings (size 3 to 8) (size 9 to 14) (size 15 to 20)
#    0.000    2.500    0.000    3.000    0.000    7.000 
#    0.000    0.000    0.000    0.000    0.000    0.000 
#    0.000    0.000    0.000  252.000    0.000  112.000 
#
# Total GULP energy -178919.589422 kJ/mol
# GULP energy per Si atom -5591.237169 kJ/mol
# Density = 2.335788 g / cm^3
# Si number density = 23.411166 Si / 1000 Ang^3
#
#
#
# Elastic Constant Matrix: (Units=GPa)
#
#
# Indices 1 2 3 4 5 6 
#
# 1 90.3470 0.7691 13.6009 0.0000 0.0000 0.0000
# 2 0.7691 182.5447 94.0368 0.0000 0.0000 0.0000
# 3 13.6009 94.0368 238.8835 0.0000 0.0000 0.0000
# 4 0.0000 0.0000 0.0000 51.8992 0.0000 0.0000
# 5 0.0000 0.0000 0.0000 0.0000 -4.7288 0.0000
# 6 0.0000 0.0000 0.0000 0.0000 0.0000 48.5633
#
#
#
# Elastic Compliance Matrix: (Units=1/GPa)
#
#
# Indices 1 2 3 4 5 6 
#
# 1 0.011182 0.000352 -0.000775 0.000000 0.000000 0.000000
# 2 0.000352 0.006883 -0.002729 0.000000 0.000000 0.000000
# 3 -0.000775 -0.002729 0.005305 0.000000 0.000000 0.000000
# 4 0.000000 0.000000 0.000000 0.019268 0.000000 0.000000
# 5 0.000000 0.000000 0.000000 0.000000 -0.211472 0.000000
# 6 0.000000 0.000000 0.000000 0.000000 0.000000 0.020592
#
#
# Mechanical properties :
#
#
# Convention : Reuss Voigt Hill
#
# Bulk Modulus (GPa) = 58.60079 80.95432 69.77756
# Shear Modulus (GPa) = -36.69734 46.03799 4.67033
#
# Velocity S-wave (km/s) = -3.96348 4.43933 1.41395
# Velocity P-wave (km/s) = 2.03468 7.80585 5.70400
#
# Compressibility (1/GPa) = 0.01706462
#
# Stress axis : x y z
#
# Youngs Moduli (GPa) = 89.42816 145.29229 188.51098
#
# Poissons Ratio (x) = -0.05119 0.14616
# Poissons Ratio (y) = -0.03151 0.51453
# Poissons Ratio (z) = 0.06934 0.39657
#
# Static dielectric constant tensor:
#      x y z
#    x 1.950050 0.000000 0.000000 
#    y 0.000000 1.836560 0.000000 
#    z 0.000000 0.000000 2.018050 
# 
# From -- ./inp_files/1308.got.cif
#   From: 2010.05.17/outbox.cif.g08.bks.cpg/sg64_1_cif.got.tgz:1308.got - 2010.06.03 16:29:19.
