data_PCOD9477948
_publ_section_title
;
Structure prediction by ZEFSAII (Michael W. Deem and Ramdas Pophale) SiO2 
 PCOD9477948
Probable space group: C M C A
;
_chemical_formula_sum "Si O2"
_cell_formula_units_Z 96
_cell_length_a 22.396110
_cell_length_b 11.792449
_cell_length_c 18.187212
_cell_angle_alpha 90.000000
_cell_angle_beta 90.000000
_cell_angle_gamma 90.000000
_cell_volume 4803.333352
_symmetry_space_group_name_H-M "C M C A"
_symmetry_group_IT_number 64
_symmetry_cell_setting 'orthorhombic'
loop_
_space_group_symop_operation_xyz
x,y,z
-x,1/2-y,1/2+z
x,-y,-z
-x,1/2+y,1/2-z
-x,-y,-z
x,1/2+y,1/2-z
-x,y,z
x,1/2-y,1/2+z
1/2+x,1/2+y,z
1/2-x,-y,1/2+z
1/2+x,1/2-y,-z
1/2-x,y,1/2-z
1/2-x,1/2-y,-z
1/2+x,y,1/2-z
1/2-x,1/2+y,z
1/2+x,-y,1/2+z
loop_
_atom_site_type_symbol
_atom_site_label
_atom_site_fract_x
_atom_site_fract_y
_atom_site_fract_z
Si Si1 0.355106 0.096884 0.307829
Si Si2 0.067639 0.049165 0.331352
Si Si3 0.142099 0.068995 0.929667
Si Si4 0.360398 0.835245 0.951558
Si Si5 0.136389 0.345764 0.127478
Si Si6 0.761435 0.984998 0.627645
O O1 0.385766 0.096290 0.228947
O O2 0.364077 0.217137 0.346967
O O3 0.284301 0.072157 0.314960
O O4 0.382058 0.993602 0.356684
O O5 0.085641 0.103429 0.409372
O O6 0.000000 0.072964 0.310755
O O7 0.080644 0.915856 0.341385
O O8 0.133897 0.202092 0.935511
O O9 0.213432 0.047008 0.924561
O O10 0.119187 0.000000 0.000000
O O11 0.301243 0.892391 0.915420
O O12 0.360643 0.852928 0.038960
O O13 0.193748 0.417854 0.155824
#
# Coordination Sequence:
#
# PCOD9477948 Si02
#       6
#    16  16  16  16  16  16
#     4  10  24  39  61  96 131 170 205 252 318 383
#     4  11  27  47  65  85 120 173 224 271 318 364
#     4  10  19  35  61  94 135 164 197 247 313 387
#     4  11  21  39  67 100 128 163 211 261 315 378
#     4  11  22  40  67  98 130 163 210 260 314 383
#     4   9  20  34  64  98 135 163 202 245 313 383
#
# _framework density 19.98612
#
# number of rings (size 3 to 8) (size 9 to 14) (size 15 to 20)
#    1.000    0.667    1.667    4.000    2.333    6.667 
#    0.000    3.333    0.000    1.000    0.000    0.000 
#    0.000    0.000    0.000    0.000    0.000    0.000 
#
# Total GULP energy -267602.130244 kJ/mol
# GULP energy per Si atom -5575.044380 kJ/mol
# Density = 1.994063 g / cm^3
# Si number density = 19.986120 Si / 1000 Ang^3
#
#
#
# Elastic Constant Matrix: (Units=GPa)
#
#
# Indices 1 2 3 4 5 6 
#
# 1 50.9542 14.8701 44.3452 0.0000 0.0000 0.0000
# 2 14.8701 122.8390 23.4332 0.0000 0.0000 0.0000
# 3 44.3452 23.4332 81.0633 0.0000 0.0000 0.0000
# 4 0.0000 0.0000 0.0000 24.8869 0.0000 0.0000
# 5 0.0000 0.0000 0.0000 0.0000 0.3644 0.0000
# 6 0.0000 0.0000 0.0000 0.0000 0.0000 0.6124
#
#
#
# Elastic Compliance Matrix: (Units=1/GPa)
#
#
# Indices 1 2 3 4 5 6 
#
# 1 0.037511 -0.000663 -0.020328 0.000000 0.000000 0.000000
# 2 -0.000663 0.008628 -0.002131 0.000000 0.000000 0.000000
# 3 -0.020328 -0.002131 0.024073 0.000000 0.000000 0.000000
# 4 0.000000 0.000000 0.000000 0.040182 0.000000 0.000000
# 5 0.000000 0.000000 0.000000 0.000000 2.744076 0.000000
# 6 0.000000 0.000000 0.000000 0.000000 0.000000 1.632978
#
#
# Mechanical properties :
#
#
# Convention : Reuss Voigt Hill
#
# Bulk Modulus (GPa) = 41.72638 46.68370 44.20504
# Shear Modulus (GPa) = 1.10091 16.65328 8.87710
#
# Velocity S-wave (km/s) = 0.74299 2.88973 2.10980
# Velocity P-wave (km/s) = 4.65393 5.87731 5.30103
#
# Compressibility (1/GPa) = 0.02396565
#
# Stress axis : x y z
#
# Youngs Moduli (GPa) = 26.65919 115.90751 41.54100
#
# Poissons Ratio (x) = 0.07683 0.84446
# Poissons Ratio (y) = 0.01767 0.08854
# Poissons Ratio (z) = 0.54194 0.24704
#
# Static dielectric constant tensor:
#      x y z
#    x 1.701580 0.000000 0.000000 
#    y 0.000000 1.680060 0.000000 
#    z 0.000000 0.000000 1.739360 
# 
# From -- ./inp_files/34951.got.cif
#   From: 2010.05.17/outbox.cif.g08.bks.cpg/sg64_18_cif.got.tgz:34951.got - 2010.06.03 16:29:19.
