data_PCOD9477193
_publ_section_title
;
Structure prediction by ZEFSAII (Michael W. Deem and Ramdas Pophale) SiO2 
 PCOD9477193
Probable space group: C M C A
;
_chemical_formula_sum "Si O2"
_cell_formula_units_Z 96
_cell_length_a 8.728408
_cell_length_b 23.507232
_cell_length_c 27.297387
_cell_angle_alpha 90.000000
_cell_angle_beta 90.000000
_cell_angle_gamma 90.000000
_cell_volume 5600.897296
_symmetry_space_group_name_H-M "C M C A"
_symmetry_group_IT_number 64
_symmetry_cell_setting 'orthorhombic'
loop_
_space_group_symop_operation_xyz
x,y,z
-x,1/2-y,1/2+z
x,-y,-z
-x,1/2+y,1/2-z
-x,-y,-z
x,1/2+y,1/2-z
-x,y,z
x,1/2-y,1/2+z
1/2+x,1/2+y,z
1/2-x,-y,1/2+z
1/2+x,1/2-y,-z
1/2-x,y,1/2-z
1/2-x,1/2-y,-z
1/2+x,y,1/2-z
1/2-x,1/2+y,z
1/2+x,-y,1/2+z
loop_
_atom_site_type_symbol
_atom_site_label
_atom_site_fract_x
_atom_site_fract_y
_atom_site_fract_z
Si Si1 0.684890 0.930884 0.802589
Si Si2 0.682731 0.942338 0.302578
Si Si3 0.826731 0.856457 0.377253
Si Si4 0.180281 0.828709 0.632081
Si Si5 0.684374 0.258004 0.446066
Si Si6 0.328162 0.756760 0.201824
O O1 0.500000 0.931968 0.799492
O O2 0.750000 0.909779 0.750000
O O3 0.728157 0.891023 0.848785
O O4 0.749991 0.994267 0.808826
O O5 0.500000 0.943843 0.298337
O O6 0.750000 0.921259 0.250000
O O7 0.731806 0.904823 0.349476
O O8 0.764318 0.819163 0.422930
O O9 0.838949 0.806924 0.336910
O O10 0.000000 0.877147 0.388268
O O11 0.263537 0.794844 0.588306
O O12 0.218053 0.790527 0.679407
O O13 0.000000 0.829325 0.621347
O O14 0.500000 0.259364 0.446095
O O15 0.750000 0.250000 0.500000
O O16 0.500000 0.734364 0.210166
O O17 0.250000 0.779552 0.250000
#
# Coordination Sequence:
#
# PCOD9477193 Si02
#       6
#    16  16  16  16  16  16
#     4  10  20  33  50  73 104 141 176 210 247 294
#     4  11  21  32  50  74 103 140 176 211 248 292
#     4   9  19  34  50  71  99 131 166 204 249 300
#     4  10  20  33  51  74 100 132 169 208 252 302
#     4  10  21  37  58  80 103 131 164 209 261 311
#     4  10  19  29  44  68  99 133 165 202 249 299
#
# _framework density 17.14011
#
# number of rings (size 3 to 8) (size 9 to 14) (size 15 to 20)
#    0.000    2.000    0.000    6.500    0.000    9.333 
#    0.000    0.000    0.000    1.000    0.000    7.000 
#    0.000    0.000    0.000    0.000    0.000    0.000 
#
# Total GULP energy -267435.955492 kJ/mol
# GULP energy per Si atom -5571.582406 kJ/mol
# Density = 1.710110 g / cm^3
# Si number density = 17.140110 Si / 1000 Ang^3
#
#
#
# Elastic Constant Matrix: (Units=GPa)
#
#
# Indices 1 2 3 4 5 6 
#
# 1 61.4885 29.1050 38.2112 0.0000 0.0000 0.0000
# 2 29.1050 82.6150 48.2653 0.0000 0.0000 0.0000
# 3 38.2112 48.2653 88.0032 0.0000 0.0000 0.0000
# 4 0.0000 0.0000 0.0000 23.7589 0.0000 0.0000
# 5 0.0000 0.0000 0.0000 0.0000 25.9901 0.0000
# 6 0.0000 0.0000 0.0000 0.0000 0.0000 23.8741
#
#
#
# Elastic Compliance Matrix: (Units=1/GPa)
#
#
# Indices 1 2 3 4 5 6 
#
# 1 0.022876 -0.003320 -0.008112 0.000000 0.000000 0.000000
# 2 -0.003320 0.018293 -0.008591 0.000000 0.000000 0.000000
# 3 -0.008112 -0.008591 0.019597 0.000000 0.000000 0.000000
# 4 0.000000 0.000000 0.000000 0.042090 0.000000 0.000000
# 5 0.000000 0.000000 0.000000 0.000000 0.038476 0.000000
# 6 0.000000 0.000000 0.000000 0.000000 0.000000 0.041886
#
#
# Mechanical properties :
#
#
# Convention : Reuss Voigt Hill
#
# Bulk Modulus (GPa) = 48.26278 51.47440 49.86859
# Shear Modulus (GPa) = 21.72298 22.49298 22.10798
#
# Velocity S-wave (km/s) = 3.56389 3.62650 3.59533
# Velocity P-wave (km/s) = 6.71967 6.90160 6.81124
#
# Compressibility (1/GPa) = 0.02071990
#
# Stress axis : x y z
#
# Youngs Moduli (GPa) = 43.71464 54.66522 51.02738
#
# Poissons Ratio (x) = 0.18148 0.41393
# Poissons Ratio (y) = 0.14513 0.43839
# Poissons Ratio (z) = 0.35461 0.46965
#
# Static dielectric constant tensor:
#      x y z
#    x 1.599340 0.000000 0.000000 
#    y 0.000000 1.601160 0.000000 
#    z 0.000000 0.000000 1.617790 
# 
# From -- ./inp_files/43037.got.cif
#   From: 2010.05.17/outbox.cif.g08.bks.cpg/sg64_22_cif.got.tgz:43037.got - 2010.06.03 16:29:19.
