data_PCOD9477531
_publ_section_title
;
Structure prediction by ZEFSAII (Michael W. Deem and Ramdas Pophale) SiO2 
 PCOD9477531
Probable space group: C M C A
;
_chemical_formula_sum "Si O2"
_cell_formula_units_Z 128
_cell_length_a 24.249183
_cell_length_b 12.538507
_cell_length_c 24.902539
_cell_angle_alpha 90.000000
_cell_angle_beta 90.000000
_cell_angle_gamma 90.000000
_cell_volume 7571.580894
_symmetry_space_group_name_H-M "C M C A"
_symmetry_group_IT_number 64
_symmetry_cell_setting 'orthorhombic'
loop_
_space_group_symop_operation_xyz
x,y,z
-x,1/2-y,1/2+z
x,-y,-z
-x,1/2+y,1/2-z
-x,-y,-z
x,1/2+y,1/2-z
-x,y,z
x,1/2-y,1/2+z
1/2+x,1/2+y,z
1/2-x,-y,1/2+z
1/2+x,1/2-y,-z
1/2-x,y,1/2-z
1/2-x,1/2-y,-z
1/2+x,y,1/2-z
1/2-x,1/2+y,z
1/2+x,-y,1/2+z
loop_
_atom_site_type_symbol
_atom_site_label
_atom_site_fract_x
_atom_site_fract_y
_atom_site_fract_z
Si Si1 0.935409 0.548272 0.139389
Si Si2 0.622962 0.064281 0.595093
Si Si3 0.066727 0.171219 0.697831
Si Si4 0.565589 0.663707 0.107637
Si Si5 0.723616 0.948246 0.559004
Si Si6 0.654662 0.082358 0.049044
Si Si7 0.865830 0.302383 0.509786
Si Si8 0.565318 0.214235 0.680576
O O1 0.919432 0.444201 0.173599
O O2 0.895146 0.559794 0.089139
O O3 0.930984 0.658790 0.172023
O O4 0.000000 0.536384 0.123672
O O5 0.616043 0.110015 0.534558
O O6 0.601816 0.152057 0.636818
O O7 0.589022 0.956150 0.605729
O O8 0.686991 0.026930 0.595595
O O9 0.085722 0.265526 0.657990
O O10 0.083861 0.185037 0.759365
O O11 0.000000 0.177446 0.698640
O O12 0.500000 0.659444 0.109529
O O13 0.586097 0.717753 0.052514
O O14 0.785499 0.926633 0.577427
O O15 0.685351 0.846128 0.545423
O O16 0.729404 0.000000 0.500000
O O17 0.650333 0.199173 0.023452
O O18 0.651666 0.000000 0.000000
O O19 0.500000 0.185338 0.673710
#
# Coordination Sequence:
#
# PCOD9477531 Si02
#       8
#    16  16  16  16  16  16  16  16
#     4  10  21  36  53  82 112 139 182 221 265 331
#     4  10  19  34  53  81 108 138 185 233 272 318
#     4   9  20  36  53  77 109 142 183 226 264 324
#     4  10  20  32  51  79 113 148 178 220 280 331
#     4   8  18  33  52  76 104 139 183 224 261 313
#     4  11  20  33  54  78 107 151 182 213 273 327
#     4  10  19  33  50  78 113 140 182 229 268 322
#     4  10  20  34  56  80 105 142 182 226 276 321
#
# _framework density 16.90532
#
# number of rings (size 3 to 8) (size 9 to 14) (size 15 to 20)
#    0.000    2.250    1.250    2.625    1.750    2.250 
#    0.000    0.000    0.000    0.750    0.000    0.000 
#    0.000    0.000    0.000    0.000    0.000    0.000 
#
# Total GULP energy -356609.169937 kJ/mol
# GULP energy per Si atom -5572.018280 kJ/mol
# Density = 1.686684 g / cm^3
# Si number density = 16.905320 Si / 1000 Ang^3
#
#
#
# Elastic Constant Matrix: (Units=GPa)
#
#
# Indices 1 2 3 4 5 6 
#
# 1 68.2994 41.4817 35.9843 0.0000 0.0000 0.0000
# 2 41.4817 76.4844 36.8991 0.0000 0.0000 0.0000
# 3 35.9843 36.8991 85.5474 0.0000 0.0000 0.0000
# 4 0.0000 0.0000 0.0000 16.5626 0.0000 0.0000
# 5 0.0000 0.0000 0.0000 0.0000 -0.8500 0.0000
# 6 0.0000 0.0000 0.0000 0.0000 0.0000 14.0975
#
#
#
# Elastic Compliance Matrix: (Units=1/GPa)
#
#
# Indices 1 2 3 4 5 6 
#
# 1 0.023789 -0.010196 -0.005609 0.000000 0.000000 0.000000
# 2 -0.010196 0.020880 -0.004717 0.000000 0.000000 0.000000
# 3 -0.005609 -0.004717 0.016083 0.000000 0.000000 0.000000
# 4 0.000000 0.000000 0.000000 0.060377 0.000000 0.000000
# 5 0.000000 0.000000 0.000000 0.000000 -1.176408 0.000000
# 6 0.000000 0.000000 0.000000 0.000000 0.000000 0.070935
#
#
# Mechanical properties :
#
#
# Convention : Reuss Voigt Hill
#
# Bulk Modulus (GPa) = 50.74010 51.00682 50.87346
# Shear Modulus (GPa) = -5.33772 13.69307 4.17767
#
# Velocity S-wave (km/s) = -1.77884 2.84911 1.57372
# Velocity P-wave (km/s) = 5.08531 6.40787 5.78451
#
# Compressibility (1/GPa) = 0.01970828
#
# Stress axis : x y z
#
# Youngs Moduli (GPa) = 42.03598 47.89159 62.17609
#
# Poissons Ratio (x) = 0.48832 0.34872
# Poissons Ratio (y) = 0.42861 0.29331
# Poissons Ratio (z) = 0.23576 0.22592
#
# Static dielectric constant tensor:
#      x y z
#    x 1.581620 0.000000 0.000000 
#    y 0.000000 1.596640 0.000000 
#    z 0.000000 0.000000 1.550890 
# 
# From -- ./inp_files/46765.got.cif
#   From: 2010.05.17/outbox.cif.g08.bks.cpg/sg64_24_cif.got.tgz:46765.got - 2010.06.03 16:29:19.
