data_PCOD9477054
_publ_section_title
;
Structure prediction by ZEFSAII (Michael W. Deem and Ramdas Pophale) SiO2 
 PCOD9477054
Probable space group: C M C A
;
_chemical_formula_sum "Si O2"
_cell_formula_units_Z 84
_cell_length_a 16.088268
_cell_length_b 19.828195
_cell_length_c 11.129635
_cell_angle_alpha 90.000000
_cell_angle_beta 90.000000
_cell_angle_gamma 90.000000
_cell_volume 3550.368202
_symmetry_space_group_name_H-M "C M C A"
_symmetry_group_IT_number 64
_symmetry_cell_setting 'orthorhombic'
loop_
_space_group_symop_operation_xyz
x,y,z
-x,1/2-y,1/2+z
x,-y,-z
-x,1/2+y,1/2-z
-x,-y,-z
x,1/2+y,1/2-z
-x,y,z
x,1/2-y,1/2+z
1/2+x,1/2+y,z
1/2-x,-y,1/2+z
1/2+x,1/2-y,-z
1/2-x,y,1/2-z
1/2-x,1/2-y,-z
1/2+x,y,1/2-z
1/2-x,1/2+y,z
1/2+x,-y,1/2+z
loop_
_atom_site_type_symbol
_atom_site_label
_atom_site_fract_x
_atom_site_fract_y
_atom_site_fract_z
Si Si1 0.406110 0.125624 0.574989
Si Si2 0.773826 0.968076 0.130063
Si Si3 0.727702 0.189639 0.406977
Si Si4 0.136616 0.880561 0.469820
Si Si5 0.591157 0.232763 0.788523
Si Si6 0.500000 0.500000 0.500000
O O1 0.500000 0.115141 0.536216
O O2 0.367215 0.059581 0.636430
O O3 0.344265 0.144096 0.468489
O O4 0.404055 0.186342 0.670730
O O5 0.750000 0.008095 0.250000
O O6 0.707849 0.906466 0.123459
O O7 0.763207 0.000000 0.000000
O O8 0.750000 0.250000 0.500000
O O9 0.810931 0.144387 0.414522
O O10 0.673664 0.222555 0.300199
O O11 0.094180 0.817427 0.403370
O O12 0.072769 0.940417 0.493540
O O13 0.500000 0.267072 0.788107
#
# Coordination Sequence:
#
# PCOD9477054 Si02
#       6
#    16  16  16  16  16   4
#     4  10  21  37  65  95 125 174 230 280 349 431
#     4  11  22  40  65  95 135 180 231 287 354 424
#     4   9  20  34  57  92 125 160 213 277 344 402
#     4  10  20  34  59  93 125 174 223 284 339 416
#     4  10  18  34  62  93 123 165 219 282 336 415
#     4  12  20  36  64  92 132 176 240 290 336 428
#
# _framework density 23.659519
#
# number of rings (size 3 to 8) (size 9 to 14) (size 15 to 20)
#    0.000    1.905    3.810    0.571    0.000    0.381 
#    0.000    0.000   25.143    0.000    0.000    0.000 
#    0.000    0.000    0.000    0.000    0.000    0.000 
#
# Total GULP energy -233904.721134 kJ/mol
# GULP energy per Si atom -5569.160027 kJ/mol
# Density = 2.360567 g / cm^3
# Si number density = 23.659519 Si / 1000 Ang^3
#
#
#
# Elastic Constant Matrix: (Units=GPa)
#
#
# Indices 1 2 3 4 5 6 
#
# 1 184.4241 37.8040 14.0050 0.0000 0.0000 0.0000
# 2 37.8040 57.2208 13.9784 0.0000 0.0000 0.0000
# 3 14.0050 13.9784 69.5206 0.0000 0.0000 0.0000
# 4 0.0000 0.0000 0.0000 29.6454 0.0000 0.0000
# 5 0.0000 0.0000 0.0000 0.0000 16.1207 0.0000
# 6 0.0000 0.0000 0.0000 0.0000 0.0000 50.0863
#
#
#
# Elastic Compliance Matrix: (Units=1/GPa)
#
#
# Indices 1 2 3 4 5 6 
#
# 1 0.006285 -0.004042 -0.000454 0.000000 0.000000 0.000000
# 2 -0.004042 0.020978 -0.003404 0.000000 0.000000 0.000000
# 3 -0.000454 -0.003404 0.015160 0.000000 0.000000 0.000000
# 4 0.000000 0.000000 0.000000 0.033732 0.000000 0.000000
# 5 0.000000 0.000000 0.000000 0.000000 0.062032 0.000000
# 6 0.000000 0.000000 0.000000 0.000000 0.000000 0.019966
#
#
# Mechanical properties :
#
#
# Convention : Reuss Voigt Hill
#
# Bulk Modulus (GPa) = 37.55849 49.19337 43.37593
# Shear Modulus (GPa) = 27.34846 35.52902 31.43874
#
# Velocity S-wave (km/s) = 3.40357 3.87936 3.64922
# Velocity P-wave (km/s) = 5.59953 6.39556 6.01074
#
# Compressibility (1/GPa) = 0.02662514
#
# Stress axis : x y z
#
# Youngs Moduli (GPa) = 159.10404 47.66928 65.96318
#
# Poissons Ratio (x) = 0.19266 0.02992
# Poissons Ratio (y) = 0.64304 0.22452
# Poissons Ratio (z) = 0.07216 0.16226
#
# Static dielectric constant tensor:
#      x y z
#    x 1.879900 0.000000 0.000000 
#    y 0.000000 1.989760 0.000000 
#    z 0.000000 0.000000 2.014220 
# 
# From -- ./inp_files/14602.got.cif
#   From: 2010.05.17/outbox.cif.g08.bks.cpg/sg64_8_cif.got.tgz:14602.got - 2010.06.03 16:29:19.
