data_PCOD9477076
_publ_section_title
;
Structure prediction by ZEFSAII (Michael W. Deem and Ramdas Pophale) SiO2 
 PCOD9477076
Probable space group: C M C A
;
_chemical_formula_sum "Si O2"
_cell_formula_units_Z 116
_cell_length_a 17.644938
_cell_length_b 24.931394
_cell_length_c 14.758796
_cell_angle_alpha 90.000000
_cell_angle_beta 90.000000
_cell_angle_gamma 90.000000
_cell_volume 6492.584769
_symmetry_space_group_name_H-M "C M C A"
_symmetry_group_IT_number 64
_symmetry_cell_setting 'orthorhombic'
loop_
_space_group_symop_operation_xyz
x,y,z
-x,1/2-y,1/2+z
x,-y,-z
-x,1/2+y,1/2-z
-x,-y,-z
x,1/2+y,1/2-z
-x,y,z
x,1/2-y,1/2+z
1/2+x,1/2+y,z
1/2-x,-y,1/2+z
1/2+x,1/2-y,-z
1/2-x,y,1/2-z
1/2-x,1/2-y,-z
1/2+x,y,1/2-z
1/2-x,1/2+y,z
1/2+x,-y,1/2+z
loop_
_atom_site_type_symbol
_atom_site_label
_atom_site_fract_x
_atom_site_fract_y
_atom_site_fract_z
Si Si1 0.791690 0.588645 0.341266
Si Si2 0.242268 0.901248 0.461389
Si Si3 0.662817 0.109273 0.786537
Si Si4 0.410990 0.182341 0.368315
Si Si5 0.500000 0.000000 0.500000
Si Si6 0.637121 0.525786 0.861644
Si Si7 0.681081 0.714349 0.962719
Si Si8 0.841034 0.769446 0.237278
O O1 0.750000 0.606081 0.250000
O O2 0.737673 0.592127 0.430222
O O3 0.862009 0.628283 0.359042
O O4 0.823773 0.528982 0.328958
O O5 0.170475 0.903483 0.393642
O O6 0.301982 0.944720 0.426040
O O7 0.281206 0.843501 0.444039
O O8 0.750000 0.106992 0.750000
O O9 0.621616 0.065759 0.723141
O O10 0.637297 0.170459 0.769797
O O11 0.500000 0.171892 0.366478
O O12 0.383364 0.207760 0.462762
O O13 0.384941 0.224439 0.292341
O O14 0.434251 0.987187 0.423422
O O15 0.647596 0.735788 0.869642
O O16 0.750000 0.750000 0.000000
O O17 0.750000 0.763464 0.250000
#
# Coordination Sequence:
#
# PCOD9477076 Si02
#       8
#    16  16  16  16   4  16  16  16
#     4  11  23  37  59  88 119 164 205 245 304 377
#     4  10  18  35  58  88 113 143 198 257 298 339
#     4   9  17  34  60  87 109 145 195 260 296 337
#     4  11  26  39  54  87 128 158 195 254 311 374
#     4  12  24  36  56  92 134 168 182 244 332 390
#     4  11  21  36  57  87 123 153 196 244 308 366
#     4  11  20  34  64  86 111 156 201 250 304 366
#     4  11  18  38  62  87 113 154 209 249 297 368
#
# _framework density 17.866537000000001
#
# number of rings (size 3 to 8) (size 9 to 14) (size 15 to 20)
#    0.000    1.379    6.897    1.655    2.897    0.552 
#    1.241    0.000    0.000    0.000    1.793    0.966 
#    0.000    0.000    0.000    0.000    0.000    0.000 
#
# Total GULP energy -323105.056941 kJ/mol
# GULP energy per Si atom -5570.776844 kJ/mol
# Density = 1.782587 g / cm^3
# Si number density = 17.866537 Si / 1000 Ang^3
#
#
#
# Elastic Constant Matrix: (Units=GPa)
#
#
# Indices 1 2 3 4 5 6 
#
# 1 62.7414 20.4619 39.9045 0.0000 0.0000 0.0000
# 2 20.4619 75.8555 27.3905 0.0000 0.0000 0.0000
# 3 39.9045 27.3905 148.7105 0.0000 0.0000 0.0000
# 4 0.0000 0.0000 0.0000 27.7914 0.0000 0.0000
# 5 0.0000 0.0000 0.0000 0.0000 20.9664 0.0000
# 6 0.0000 0.0000 0.0000 0.0000 0.0000 -10.8691
#
#
#
# Elastic Compliance Matrix: (Units=1/GPa)
#
#
# Indices 1 2 3 4 5 6 
#
# 1 0.020159 -0.003733 -0.004722 0.000000 0.000000 0.000000
# 2 -0.003733 0.014813 -0.001727 0.000000 0.000000 0.000000
# 3 -0.004722 -0.001727 0.008310 0.000000 0.000000 0.000000
# 4 0.000000 0.000000 0.000000 0.035982 0.000000 0.000000
# 5 0.000000 0.000000 0.000000 0.000000 0.047695 0.000000
# 6 0.000000 0.000000 0.000000 0.000000 0.000000 -0.092004
#
#
# Mechanical properties :
#
#
# Convention : Reuss Voigt Hill
#
# Bulk Modulus (GPa) = 43.63189 51.42458 47.52823
# Shear Modulus (GPa) = 79.41752 20.88110 50.14931
#
# Velocity S-wave (km/s) = 6.67435 3.42237 5.30375
# Velocity P-wave (km/s) = 9.15805 6.66798 8.01036
#
# Compressibility (1/GPa) = 0.02291902
#
# Stress axis : x y z
#
# Youngs Moduli (GPa) = 49.60555 67.50644 120.34311
#
# Poissons Ratio (x) = 0.25199 0.56824
# Poissons Ratio (y) = 0.18517 0.20780
# Poissons Ratio (z) = 0.23423 0.11657
#
# Static dielectric constant tensor:
#      x y z
#    x 1.585010 0.000000 0.000000 
#    y 0.000000 1.655400 0.000000 
#    z 0.000000 0.000000 1.671740 
# 
# From -- ./inp_files/25808.got.cif
#   From: 2010.05.17/outbox.cif.g08.bks.cpg/sg64_13_cif.got.tgz:25808.got - 2010.06.03 16:29:19.
