data_PCOD9477915
_publ_section_title
;
Structure prediction by ZEFSAII (Michael W. Deem and Ramdas Pophale) SiO2 
 PCOD9477915
Probable space group: C M C A
;
_chemical_formula_sum "Si O2"
_cell_formula_units_Z 112
_cell_length_a 26.031836
_cell_length_b 13.515087
_cell_length_c 15.279231
_cell_angle_alpha 90.000000
_cell_angle_beta 90.000000
_cell_angle_gamma 90.000000
_cell_volume 5375.577681
_symmetry_space_group_name_H-M "C M C A"
_symmetry_group_IT_number 64
_symmetry_cell_setting 'orthorhombic'
loop_
_space_group_symop_operation_xyz
x,y,z
-x,1/2-y,1/2+z
x,-y,-z
-x,1/2+y,1/2-z
-x,-y,-z
x,1/2+y,1/2-z
-x,y,z
x,1/2-y,1/2+z
1/2+x,1/2+y,z
1/2-x,-y,1/2+z
1/2+x,1/2-y,-z
1/2-x,y,1/2-z
1/2-x,1/2-y,-z
1/2+x,y,1/2-z
1/2-x,1/2+y,z
1/2+x,-y,1/2+z
loop_
_atom_site_type_symbol
_atom_site_label
_atom_site_fract_x
_atom_site_fract_y
_atom_site_fract_z
Si Si1 0.866966 0.483463 0.748270
Si Si2 0.169021 0.420158 0.429363
Si Si3 0.294572 0.317945 0.806580
Si Si4 0.560358 0.179961 0.219593
Si Si5 0.874010 0.301059 0.957286
Si Si6 0.886965 0.826265 0.350682
Si Si7 0.738085 0.863391 0.977657
O O1 0.849576 0.548063 0.665437
O O2 0.823907 0.397666 0.753506
O O3 0.918364 0.419165 0.733248
O O4 0.875736 0.560746 0.825611
O O5 0.149394 0.500000 0.500000
O O6 0.146817 0.311595 0.449723
O O7 0.230955 0.416951 0.444548
O O8 0.250000 0.268657 0.750000
O O9 0.334592 0.237719 0.840832
O O10 0.269263 0.375379 0.887386
O O11 0.500000 0.177569 0.205464
O O12 0.591404 0.181544 0.127850
O O13 0.575981 0.273466 0.280183
O O14 0.822833 0.370195 0.965302
O O15 0.903451 0.314743 0.048901
O O16 0.750000 0.750000 0.000000
#
# Coordination Sequence:
#
# PCOD9477915 Si02
#       7
#    16  16  16  16  16  16  16
#     4  11  24  41  63  99 132 177 228 286 332 408
#     4  11  19  39  66  97 135 177 221 280 337 396
#     4  11  22  37  57  94 143 180 222 265 329 412
#     4  11  26  49  70  95 133 175 233 300 354 411
#     4  11  23  44  66  97 138 178 224 280 351 411
#     4  11  23  43  69  95 130 176 227 287 343 408
#     4  10  19  35  58  93 134 177 208 259 335 409
#
# _framework density 20.834972
#
# number of rings (size 3 to 8) (size 9 to 14) (size 15 to 20)
#    0.000    1.143    5.714    2.571    2.000    3.429 
#    2.571    0.714    0.000    1.714    0.000    0.000 
#    0.000    0.000    0.000    0.000    0.000    0.000 
#
# Total GULP energy -312698.830366 kJ/mol
# GULP energy per Si atom -5583.907685 kJ/mol
# Density = 2.078755 g / cm^3
# Si number density = 20.834972 Si / 1000 Ang^3
#
#
#
# Elastic Constant Matrix: (Units=GPa)
#
#
# Indices 1 2 3 4 5 6 
#
# 1 124.5873 19.9437 49.8178 0.0000 0.0000 0.0000
# 2 19.9437 72.9567 2.9057 0.0000 0.0000 0.0000
# 3 49.8178 2.9057 102.7801 0.0000 0.0000 0.0000
# 4 0.0000 0.0000 0.0000 38.5063 0.0000 0.0000
# 5 0.0000 0.0000 0.0000 0.0000 21.8053 0.0000
# 6 0.0000 0.0000 0.0000 0.0000 0.0000 12.0527
#
#
#
# Elastic Compliance Matrix: (Units=1/GPa)
#
#
# Indices 1 2 3 4 5 6 
#
# 1 0.010446 -0.002657 -0.004988 0.000000 0.000000 0.000000
# 2 -0.002657 0.014398 0.000881 0.000000 0.000000 0.000000
# 3 -0.004988 0.000881 0.012122 0.000000 0.000000 0.000000
# 4 0.000000 0.000000 0.000000 0.025970 0.000000 0.000000
# 5 0.000000 0.000000 0.000000 0.000000 0.045860 0.000000
# 6 0.000000 0.000000 0.000000 0.000000 0.000000 0.082969
#
#
# Mechanical properties :
#
#
# Convention : Reuss Voigt Hill
#
# Bulk Modulus (GPa) = 42.66589 49.51758 46.09174
# Shear Modulus (GPa) = 23.46231 29.65000 26.55615
#
# Velocity S-wave (km/s) = 3.35939 3.77648 3.57402
# Velocity P-wave (km/s) = 5.96404 6.54476 6.26114
#
# Compressibility (1/GPa) = 0.02343793
#
# Stress axis : x y z
#
# Youngs Moduli (GPa) = 95.72608 69.45403 82.49150
#
# Poissons Ratio (x) = 0.18454 0.41149
# Poissons Ratio (y) = 0.25435 -0.07266
# Poissons Ratio (z) = 0.47751 -0.06118
#
# Static dielectric constant tensor:
#      x y z
#    x 1.751940 0.000000 0.000000 
#    y 0.000000 1.800120 0.000000 
#    z 0.000000 0.000000 1.807850 
# 
# From -- ./inp_files/28045.got.cif
#   From: 2010.05.17/outbox.cif.g08.bks.cpg/sg64_15_cif.got.tgz:28045.got - 2010.06.03 16:29:19.
