data_PCOD9477699
_publ_section_title
;
Structure prediction by ZEFSAII (Michael W. Deem and Ramdas Pophale) SiO2 
 PCOD9477699
Probable space group: C M C A
;
_chemical_formula_sum "Si O2"
_cell_formula_units_Z 112
_cell_length_a 27.526426
_cell_length_b 16.635642
_cell_length_c 13.703502
_cell_angle_alpha 90.000000
_cell_angle_beta 90.000000
_cell_angle_gamma 90.000000
_cell_volume 6275.104463
_symmetry_space_group_name_H-M "C M C A"
_symmetry_group_IT_number 64
_symmetry_cell_setting 'orthorhombic'
loop_
_space_group_symop_operation_xyz
x,y,z
-x,1/2-y,1/2+z
x,-y,-z
-x,1/2+y,1/2-z
-x,-y,-z
x,1/2+y,1/2-z
-x,y,z
x,1/2-y,1/2+z
1/2+x,1/2+y,z
1/2-x,-y,1/2+z
1/2+x,1/2-y,-z
1/2-x,y,1/2-z
1/2-x,1/2-y,-z
1/2+x,y,1/2-z
1/2-x,1/2+y,z
1/2+x,-y,1/2+z
loop_
_atom_site_type_symbol
_atom_site_label
_atom_site_fract_x
_atom_site_fract_y
_atom_site_fract_z
Si Si1 0.850952 0.773048 0.621891
Si Si2 0.055068 0.516146 0.383306
Si Si3 0.644125 0.803595 0.089621
Si Si4 0.688722 0.013074 0.609394
Si Si5 0.108161 0.119066 0.783613
Si Si6 0.642898 0.631175 0.182575
Si Si7 0.745109 0.335567 0.133487
O O1 0.869210 0.812560 0.522660
O O2 0.886854 0.702756 0.658853
O O3 0.849293 0.837920 0.708006
O O4 0.799054 0.725744 0.607681
O O5 0.061700 0.500000 0.500000
O O6 0.063531 0.434046 0.321441
O O7 0.095367 0.577669 0.341539
O O8 0.000000 0.545257 0.370275
O O9 0.617125 0.858550 0.170358
O O10 0.637069 0.710822 0.118759
O O11 0.702014 0.815030 0.095325
O O12 0.653479 0.065442 0.678315
O O13 0.733797 0.072846 0.601552
O O14 0.669436 0.000000 0.500000
O O15 0.688947 0.924199 0.653306
O O16 0.750000 0.332914 0.250000
#
# Coordination Sequence:
#
# PCOD9477699 Si02
#       7
#    16  16  16  16  16  16  16
#     4  10  20  33  56  78 108 150 184 220 268 318
#     4  10  20  37  62  87 106 132 175 223 274 333
#     4  11  20  36  54  76 111 147 185 223 269 317
#     4  10  19  34  51  70  99 143 183 222 266 307
#     4   9  18  35  56  76 107 138 170 223 274 320
#     4  10  19  35  57  79 103 135 180 231 264 318
#     4  11  19  38  48  73 114 147 185 233 265 301
#
# _framework density 17.848307999999999
#
# number of rings (size 3 to 8) (size 9 to 14) (size 15 to 20)
#    0.000    1.857    4.286    4.714    0.000    0.000 
#    5.143    5.714    0.000    3.429    0.000    0.000 
#    0.000    0.000    0.000    0.000    0.000    0.000 
#
# Total GULP energy -311784.321707 kJ/mol
# GULP energy per Si atom -5567.577173 kJ/mol
# Density = 1.780768 g / cm^3
# Si number density = 17.848308 Si / 1000 Ang^3
#
#
#
# Elastic Constant Matrix: (Units=GPa)
#
#
# Indices 1 2 3 4 5 6 
#
# 1 61.8019 24.4727 6.8431 0.0000 0.0000 0.0000
# 2 24.4727 95.1946 43.7589 0.0000 0.0000 0.0000
# 3 6.8431 43.7589 116.9826 0.0000 0.0000 0.0000
# 4 0.0000 0.0000 0.0000 9.7578 0.0000 0.0000
# 5 0.0000 0.0000 0.0000 0.0000 3.9943 0.0000
# 6 0.0000 0.0000 0.0000 0.0000 0.0000 23.6301
#
#
#
# Elastic Compliance Matrix: (Units=1/GPa)
#
#
# Indices 1 2 3 4 5 6 
#
# 1 0.018080 -0.005026 0.000822 0.000000 0.000000 0.000000
# 2 -0.005026 0.014083 -0.004974 0.000000 0.000000 0.000000
# 3 0.000822 -0.004974 0.010361 0.000000 0.000000 0.000000
# 4 0.000000 0.000000 0.000000 0.102482 0.000000 0.000000
# 5 0.000000 0.000000 0.000000 0.000000 0.250356 0.000000
# 6 0.000000 0.000000 0.000000 0.000000 0.000000 0.042319
#
#
# Mechanical properties :
#
#
# Convention : Reuss Voigt Hill
#
# Bulk Modulus (GPa) = 41.37579 47.12541 44.25060
# Shear Modulus (GPa) = 10.77370 20.73673 15.75522
#
# Velocity S-wave (km/s) = 2.45955 3.41226 2.97430
# Velocity P-wave (km/s) = 5.59447 6.47961 6.05324
#
# Compressibility (1/GPa) = 0.02416872
#
# Stress axis : x y z
#
# Youngs Moduli (GPa) = 55.30992 71.00570 96.51779
#
# Poissons Ratio (x) = 0.35688 -0.07938
# Poissons Ratio (y) = 0.27799 0.48009
# Poissons Ratio (z) = -0.04549 0.35319
#
# Static dielectric constant tensor:
#      x y z
#    x 1.686010 0.000000 0.000000 
#    y 0.000000 1.644810 0.000000 
#    z 0.000000 0.000000 1.634270 
# 
# From -- ./inp_files/28481.got.cif
#   From: 2010.05.17/outbox.cif.g08.bks.cpg/sg64_15_cif.got.tgz:28481.got - 2010.06.03 16:29:19.
