data_PCOD9477694
_publ_section_title
;
Structure prediction by ZEFSAII (Michael W. Deem and Ramdas Pophale) SiO2 
 PCOD9477694
Probable space group: C M C A
;
_chemical_formula_sum "Si O2"
_cell_formula_units_Z 96
_cell_length_a 17.660234
_cell_length_b 17.296828
_cell_length_c 18.388785
_cell_angle_alpha 90.000000
_cell_angle_beta 90.000000
_cell_angle_gamma 90.000000
_cell_volume 5617.149149
_symmetry_space_group_name_H-M "C M C A"
_symmetry_group_IT_number 64
_symmetry_cell_setting 'orthorhombic'
loop_
_space_group_symop_operation_xyz
x,y,z
-x,1/2-y,1/2+z
x,-y,-z
-x,1/2+y,1/2-z
-x,-y,-z
x,1/2+y,1/2-z
-x,y,z
x,1/2-y,1/2+z
1/2+x,1/2+y,z
1/2-x,-y,1/2+z
1/2+x,1/2-y,-z
1/2-x,y,1/2-z
1/2-x,1/2-y,-z
1/2+x,y,1/2-z
1/2-x,1/2+y,z
1/2+x,-y,1/2+z
loop_
_atom_site_type_symbol
_atom_site_label
_atom_site_fract_x
_atom_site_fract_y
_atom_site_fract_z
Si Si1 0.797978 0.562760 0.184306
Si Si2 0.087138 0.174895 0.396507
Si Si3 0.705977 0.460151 0.071648
Si Si4 0.128794 0.085497 0.535157
Si Si5 0.087873 0.850554 0.151957
Si Si6 0.585863 0.571587 0.700733
O O1 0.750000 0.596735 0.250000
O O2 0.853713 0.622726 0.146905
O O3 0.742171 0.524209 0.125274
O O4 0.851036 0.493502 0.213920
O O5 0.099619 0.150282 0.480241
O O6 0.100229 0.263992 0.376716
O O7 0.000000 0.156216 0.377395
O O8 0.780295 0.413021 0.044616
O O9 0.646020 0.407804 0.112997
O O10 0.672489 0.500000 0.000000
O O11 0.095188 0.092933 0.615900
O O12 0.111136 0.000000 0.500000
O O13 0.097347 0.861627 0.239213
O O14 0.000000 0.870517 0.135991
O O15 0.500000 0.542193 0.710719
#
# Coordination Sequence:
#
# PCOD9477694 Si02
#       6
#    16  16  16  16  16  16
#     4  11  20  36  57  86 112 149 190 237 283 341
#     4  11  22  39  59  89 119 145 186 243 299 338
#     4  10  19  38  58  82 116 147 197 231 280 343
#     4  10  19  33  61  92 111 142 188 250 299 335
#     4  10  23  39  57  81 120 162 190 231 287 347
#     4  10  19  34  58  84 112 151 192 234 287 345
#
# _framework density 17.090520999999999
#
# number of rings (size 3 to 8) (size 9 to 14) (size 15 to 20)
#    0.000    1.667    6.667    1.000    0.000    1.667 
#    6.000    0.000    0.000    2.000    0.000    0.000 
#    0.000    0.000    0.000    0.000    0.000    0.000 
#
# Total GULP energy -267613.366714 kJ/mol
# GULP energy per Si atom -5575.278473 kJ/mol
# Density = 1.705162 g / cm^3
# Si number density = 17.090521 Si / 1000 Ang^3
#
#
#
# Elastic Constant Matrix: (Units=GPa)
#
#
# Indices 1 2 3 4 5 6 
#
# 1 81.5956 60.0989 59.0331 0.0000 0.0000 0.0000
# 2 60.0989 81.8495 63.1020 0.0000 0.0000 0.0000
# 3 59.0331 63.1020 120.7381 0.0000 0.0000 0.0000
# 4 0.0000 0.0000 0.0000 28.7468 0.0000 0.0000
# 5 0.0000 0.0000 0.0000 0.0000 28.7867 0.0000
# 6 0.0000 0.0000 0.0000 0.0000 0.0000 67.0019
#
#
#
# Elastic Compliance Matrix: (Units=1/GPa)
#
#
# Indices 1 2 3 4 5 6 
#
# 1 0.028385 -0.016987 -0.005000 0.000000 0.000000 0.000000
# 2 -0.016987 0.030628 -0.007702 0.000000 0.000000 0.000000
# 3 -0.005000 -0.007702 0.014753 0.000000 0.000000 0.000000
# 4 0.000000 0.000000 0.000000 0.034787 0.000000 0.000000
# 5 0.000000 0.000000 0.000000 0.000000 0.034738 0.000000
# 6 0.000000 0.000000 0.000000 0.000000 0.000000 0.014925
#
#
# Mechanical properties :
#
#
# Convention : Reuss Voigt Hill
#
# Bulk Modulus (GPa) = 69.50599 72.07232 70.78915
# Shear Modulus (GPa) = 22.48313 31.70369 27.09341
#
# Velocity S-wave (km/s) = 3.63096 4.31170 3.98589
# Velocity P-wave (km/s) = 7.63781 8.18841 7.91790
#
# Compressibility (1/GPa) = 0.01438725
#
# Stress axis : x y z
#
# Youngs Moduli (GPa) = 35.23011 32.64985 67.78487
#
# Poissons Ratio (x) = 0.55461 0.33896
# Poissons Ratio (y) = 0.59844 0.52207
# Poissons Ratio (z) = 0.17617 0.25146
#
# Static dielectric constant tensor:
#      x y z
#    x 1.581440 0.000000 0.000000 
#    y 0.000000 1.553140 0.000000 
#    z 0.000000 0.000000 1.600070 
# 
# From -- ./inp_files/33306.got.cif
#   From: 2010.05.17/outbox.cif.g08.bks.cpg/sg64_17_cif.got.tgz:33306.got - 2010.06.03 16:29:19.
