data_PCOD9477805
_publ_section_title
;
Structure prediction by ZEFSAII (Michael W. Deem and Ramdas Pophale) SiO2 
 PCOD9477805
Probable space group: C M C A
;
_chemical_formula_sum "Si O2"
_cell_formula_units_Z 96
_cell_length_a 20.786381
_cell_length_b 14.509313
_cell_length_c 14.928891
_cell_angle_alpha 90.000000
_cell_angle_beta 90.000000
_cell_angle_gamma 90.000000
_cell_volume 4502.495423
_symmetry_space_group_name_H-M "C M C A"
_symmetry_group_IT_number 64
_symmetry_cell_setting 'orthorhombic'
loop_
_space_group_symop_operation_xyz
x,y,z
-x,1/2-y,1/2+z
x,-y,-z
-x,1/2+y,1/2-z
-x,-y,-z
x,1/2+y,1/2-z
-x,y,z
x,1/2-y,1/2+z
1/2+x,1/2+y,z
1/2-x,-y,1/2+z
1/2+x,1/2-y,-z
1/2-x,y,1/2-z
1/2-x,1/2-y,-z
1/2+x,y,1/2-z
1/2-x,1/2+y,z
1/2+x,-y,1/2+z
loop_
_atom_site_type_symbol
_atom_site_label
_atom_site_fract_x
_atom_site_fract_y
_atom_site_fract_z
Si Si1 0.573108 0.875208 0.662107
Si Si2 0.568011 0.282417 0.197781
Si Si3 0.428912 0.278767 0.493108
Si Si4 0.795039 0.825383 0.548498
Si Si5 0.194240 0.166697 0.819100
Si Si6 0.212872 0.470064 0.652793
O O1 0.500000 0.917108 0.653647
O O2 0.573396 0.816070 0.753652
O O3 0.578391 0.799143 0.582725
O O4 0.639011 0.933894 0.658755
O O5 0.500000 0.322545 0.226384
O O6 0.567914 0.271204 0.090344
O O7 0.625773 0.347381 0.227202
O O8 0.500000 0.323235 0.480772
O O9 0.362954 0.338337 0.497117
O O10 0.750000 0.750000 0.500000
O O11 0.812010 0.765535 0.636245
O O12 0.754589 0.911151 0.583274
O O13 0.250000 0.175081 0.750000
O O14 0.209064 0.076971 0.876888
O O15 0.250000 0.466451 0.750000
#
# Coordination Sequence:
#
# PCOD9477805 Si02
#       6
#    16  16  16  16  16  16
#     4  10  19  34  58  85 115 153 194 236 287 350
#     4   9  18  34  56  80 113 153 189 235 289 343
#     4   9  18  33  54  86 113 143 193 236 282 347
#     4  11  20  35  58  81 111 151 187 237 292 349
#     4  10  22  36  55  81 115 148 191 243 288 345
#     4  11  22  37  56  83 115 150 195 241 292 346
#
# _framework density 21.32151
#
# number of rings (size 3 to 8) (size 9 to 14) (size 15 to 20)
#    0.000    2.000    1.667    3.500    0.000    1.333 
#    0.000    0.000    0.000    6.000    0.000    1.167 
#    0.000    0.667    0.000    0.000    0.000    0.000 
#
# Total GULP energy -267250.431384 kJ/mol
# GULP energy per Si atom -5567.717321 kJ/mol
# Density = 2.127298 g / cm^3
# Si number density = 21.321510 Si / 1000 Ang^3
#
#
#
# Elastic Constant Matrix: (Units=GPa)
#
#
# Indices 1 2 3 4 5 6 
#
# 1 168.7795 5.8216 -4.8915 0.0000 0.0000 0.0000
# 2 5.8216 34.2843 -14.4741 0.0000 0.0000 0.0000
# 3 -4.8915 -14.4741 47.5121 0.0000 0.0000 0.0000
# 4 0.0000 0.0000 0.0000 13.5571 0.0000 0.0000
# 5 0.0000 0.0000 0.0000 0.0000 29.0768 0.0000
# 6 0.0000 0.0000 0.0000 0.0000 0.0000 106.6795
#
#
#
# Elastic Compliance Matrix: (Units=1/GPa)
#
#
# Indices 1 2 3 4 5 6 
#
# 1 0.005965 -0.000865 0.000351 0.000000 0.000000 0.000000
# 2 -0.000865 0.033598 0.010146 0.000000 0.000000 0.000000
# 3 0.000351 0.010146 0.024174 0.000000 0.000000 0.000000
# 4 0.000000 0.000000 0.000000 0.073762 0.000000 0.000000
# 5 0.000000 0.000000 0.000000 0.000000 0.034392 0.000000
# 6 0.000000 0.000000 0.000000 0.000000 0.000000 0.009374
#
#
# Mechanical properties :
#
#
# Convention : Reuss Voigt Hill
#
# Bulk Modulus (GPa) = 12.04793 24.83199 18.43996
# Shear Modulus (GPa) = 26.36185 47.47069 36.91627
#
# Velocity S-wave (km/s) = 3.52006 4.72362 4.16554
# Velocity P-wave (km/s) = 4.70998 6.43598 5.63940
#
# Compressibility (1/GPa) = 0.08300182
#
# Stress axis : x y z
#
# Youngs Moduli (GPa) = 167.64785 29.76340 41.36620
#
# Poissons Ratio (x) = 0.02574 -0.01450
# Poissons Ratio (y) = 0.14499 -0.41972
# Poissons Ratio (z) = -0.05878 -0.30199
#
# Static dielectric constant tensor:
#      x y z
#    x 1.895740 0.000000 0.000000 
#    y 0.000000 1.777470 0.000000 
#    z 0.000000 0.000000 1.974430 
# 
# From -- ./inp_files/26287.got.cif
#   From: 2010.05.17/outbox.cif.g08.bks.cpg/sg64_14_cif.got.tgz:26287.got - 2010.06.03 16:29:19.
