data_PCOD9477490
_publ_section_title
;
Structure prediction by ZEFSAII (Michael W. Deem and Ramdas Pophale) SiO2 
 PCOD9477490
Probable space group: C M C A
;
_chemical_formula_sum "Si O2"
_cell_formula_units_Z 96
_cell_length_a 23.145384
_cell_length_b 7.624732
_cell_length_c 27.059543
_cell_angle_alpha 90.000000
_cell_angle_beta 90.000000
_cell_angle_gamma 90.000000
_cell_volume 4775.396442
_symmetry_space_group_name_H-M "C M C A"
_symmetry_group_IT_number 64
_symmetry_cell_setting 'orthorhombic'
loop_
_space_group_symop_operation_xyz
x,y,z
-x,1/2-y,1/2+z
x,-y,-z
-x,1/2+y,1/2-z
-x,-y,-z
x,1/2+y,1/2-z
-x,y,z
x,1/2-y,1/2+z
1/2+x,1/2+y,z
1/2-x,-y,1/2+z
1/2+x,1/2-y,-z
1/2-x,y,1/2-z
1/2-x,1/2-y,-z
1/2+x,y,1/2-z
1/2-x,1/2+y,z
1/2+x,-y,1/2+z
loop_
_atom_site_type_symbol
_atom_site_label
_atom_site_fract_x
_atom_site_fract_y
_atom_site_fract_z
Si Si1 0.432447 0.925990 0.330071
Si Si2 0.434614 0.204754 0.016070
Si Si3 0.931149 0.264188 0.592203
Si Si4 0.326166 0.966061 0.719698
Si Si5 0.722450 0.172993 0.179950
Si Si6 0.375838 0.388970 0.613930
O O1 0.500000 0.919573 0.319307
O O2 0.393951 0.007896 0.286145
O O3 0.409643 0.734414 0.346536
O O4 0.421748 0.065348 0.374400
O O5 0.500000 0.260197 0.031361
O O6 0.391346 0.202603 0.061798
O O7 0.416957 0.299734 0.965447
O O8 0.438460 0.000000 0.000000
O O9 0.000000 0.224634 0.593063
O O10 0.899022 0.088255 0.610765
O O11 0.299320 0.136420 0.694441
O O12 0.305627 0.939896 0.775311
O O13 0.291458 0.824678 0.686748
O O14 0.691245 0.117051 0.129793
#
# Coordination Sequence:
#
# PCOD9477490 Si02
#       6
#    16  16  16  16  16  16
#     4  10  21  35  52  81 112 138 174 220 267 318
#     4   8  14  28  49  77 107 138 180 216 254 316
#     4   9  18  31  53  79 108 146 177 216 265 311
#     4  10  21  37  56  80 103 136 184 220 260 323
#     4  10  21  35  59  78 101 140 178 225 265 307
#     4  10  19  32  54  78 108 138 174 219 266 310
#
# _framework density 20.103043
#
# number of rings (size 3 to 8) (size 9 to 14) (size 15 to 20)
#    0.000    2.500    0.000    4.500    4.667    0.667 
#    0.000    7.500    0.000    1.000    4.333    0.000 
#    0.000    0.000    0.000    0.000    0.000    0.000 
#
# Total GULP energy -267420.873916 kJ/mol
# GULP energy per Si atom -5571.268207 kJ/mol
# Density = 2.005729 g / cm^3
# Si number density = 20.103043 Si / 1000 Ang^3
#
#
#
# Elastic Constant Matrix: (Units=GPa)
#
#
# Indices 1 2 3 4 5 6 
#
# 1 59.9583 0.9321 8.4821 0.0000 0.0000 0.0000
# 2 0.9321 49.1623 -10.3457 0.0000 0.0000 0.0000
# 3 8.4821 -10.3457 41.9428 0.0000 0.0000 0.0000
# 4 0.0000 0.0000 0.0000 18.7352 0.0000 0.0000
# 5 0.0000 0.0000 0.0000 0.0000 60.7440 0.0000
# 6 0.0000 0.0000 0.0000 0.0000 0.0000 11.4754
#
#
#
# Elastic Compliance Matrix: (Units=1/GPa)
#
#
# Indices 1 2 3 4 5 6 
#
# 1 0.017228 -0.001118 -0.003760 0.000000 0.000000 0.000000
# 2 -0.001118 0.021527 0.005536 0.000000 0.000000 0.000000
# 3 -0.003760 0.005536 0.025968 0.000000 0.000000 0.000000
# 4 0.000000 0.000000 0.000000 0.053375 0.000000 0.000000
# 5 0.000000 0.000000 0.000000 0.000000 0.016463 0.000000
# 6 0.000000 0.000000 0.000000 0.000000 0.000000 0.087143
#
#
# Mechanical properties :
#
#
# Convention : Reuss Voigt Hill
#
# Bulk Modulus (GPa) = 15.14250 16.57782 15.86016
# Shear Modulus (GPa) = 20.62714 28.32392 24.47553
#
# Velocity S-wave (km/s) = 3.20671 3.75765 3.49306
# Velocity P-wave (km/s) = 4.61080 5.20489 4.91683
#
# Compressibility (1/GPa) = 0.06603928
#
# Stress axis : x y z
#
# Youngs Moduli (GPa) = 58.04672 46.45337 38.50919
#
# Poissons Ratio (x) = 0.05193 0.14478
# Poissons Ratio (y) = 0.06489 -0.21318
# Poissons Ratio (z) = 0.21823 -0.25716
#
# Static dielectric constant tensor:
#      x y z
#    x 1.769670 0.000000 0.000000 
#    y 0.000000 1.812170 0.000000 
#    z 0.000000 0.000000 1.736990 
# 
# From -- ./inp_files/50957.got.cif
#   From: 2010.05.17/outbox.cif.g08.bks.cpg/sg64_26_cif.got.tgz:50957.got - 2010.06.03 16:29:19.
