data_PCOD9477920
_publ_section_title
;
Structure prediction by ZEFSAII (Michael W. Deem and Ramdas Pophale) SiO2 
 PCOD9477920
Probable space group: C M C A
;
_chemical_formula_sum "Si O2"
_cell_formula_units_Z 112
_cell_length_a 14.144732
_cell_length_b 31.884975
_cell_length_c 11.875375
_cell_angle_alpha 90.000000
_cell_angle_beta 90.000000
_cell_angle_gamma 90.000000
_cell_volume 5355.846688
_symmetry_space_group_name_H-M "C M C A"
_symmetry_group_IT_number 64
_symmetry_cell_setting 'orthorhombic'
loop_
_space_group_symop_operation_xyz
x,y,z
-x,1/2-y,1/2+z
x,-y,-z
-x,1/2+y,1/2-z
-x,-y,-z
x,1/2+y,1/2-z
-x,y,z
x,1/2-y,1/2+z
1/2+x,1/2+y,z
1/2-x,-y,1/2+z
1/2+x,1/2-y,-z
1/2-x,y,1/2-z
1/2-x,1/2-y,-z
1/2+x,y,1/2-z
1/2-x,1/2+y,z
1/2+x,-y,1/2+z
loop_
_atom_site_type_symbol
_atom_site_label
_atom_site_fract_x
_atom_site_fract_y
_atom_site_fract_z
Si Si1 0.106920 0.548220 0.039504
Si Si2 0.246227 0.912376 0.364212
Si Si3 0.109109 0.164099 0.674650
Si Si4 0.885819 0.633264 0.480037
Si Si5 0.386223 0.111130 0.227806
Si Si6 0.385797 0.284249 0.102720
Si Si7 0.612167 0.308843 0.581692
O O1 0.130876 0.566782 0.164024
O O2 0.000000 0.565278 0.016957
O O3 0.103015 0.500000 0.000000
O O4 0.186937 0.566555 0.961352
O O5 0.250000 0.939465 0.250000
O O6 0.179031 0.874430 0.325175
O O7 0.340961 0.895290 0.422011
O O8 0.131504 0.195463 0.775643
O O9 0.118147 0.183768 0.551424
O O10 0.000000 0.150808 0.689949
O O11 0.854378 0.617447 0.356692
O O12 0.854970 0.681203 0.509898
O O13 0.000000 0.631933 0.485959
O O14 0.500000 0.114313 0.234286
O O15 0.352766 0.150524 0.150680
O O16 0.500000 0.281027 0.087704
O O17 0.346120 0.237289 0.102439
O O18 0.500000 0.306597 0.610526
#
# Coordination Sequence:
#
# PCOD9477920 Si02
#       7
#    16  16  16  16  16  16  16
#     4  10  22  44  72  98 121 151 197 251 307 368
#     4  12  23  39  63  90 123 161 206 251 307 370
#     4  10  19  35  59  84 117 160 211 264 308 360
#     4  10  22  38  58  85 124 169 207 251 305 361
#     4   9  18  36  62  89 118 157 201 250 310 367
#     4   9  18  31  52  83 119 164 205 252 307 354
#     4   9  17  30  55  85 114 157 212 254 301 363
#
# _framework density 20.911726000000002
#
# number of rings (size 3 to 8) (size 9 to 14) (size 15 to 20)
#    0.000    2.143    2.857    0.429    2.000    1.143 
#    2.571    0.714    3.143    0.429    0.000    0.000 
#    0.000    0.000    0.000    0.000    0.000    0.000 
#
# Total GULP energy -312248.126772 kJ/mol
# GULP energy per Si atom -5575.859407 kJ/mol
# Density = 2.086413 g / cm^3
# Si number density = 20.911726 Si / 1000 Ang^3
#
#
#
# Elastic Constant Matrix: (Units=GPa)
#
#
# Indices 1 2 3 4 5 6 
#
# 1 66.2693 21.1005 21.2765 0.0000 0.0000 0.0000
# 2 21.1005 62.7280 44.9153 0.0000 0.0000 0.0000
# 3 21.2765 44.9153 139.9608 0.0000 0.0000 0.0000
# 4 0.0000 0.0000 0.0000 2.9294 0.0000 0.0000
# 5 0.0000 0.0000 0.0000 0.0000 20.9928 0.0000
# 6 0.0000 0.0000 0.0000 0.0000 0.0000 24.2419
#
#
#
# Elastic Compliance Matrix: (Units=1/GPa)
#
#
# Indices 1 2 3 4 5 6 
#
# 1 0.017001 -0.005022 -0.000973 0.000000 0.000000 0.000000
# 2 -0.005022 0.022182 -0.006355 0.000000 0.000000 0.000000
# 3 -0.000973 -0.006355 0.009332 0.000000 0.000000 0.000000
# 4 0.000000 0.000000 0.000000 0.341362 0.000000 0.000000
# 5 0.000000 0.000000 0.000000 0.000000 0.047635 0.000000
# 6 0.000000 0.000000 0.000000 0.000000 0.000000 0.041251
#
#
# Mechanical properties :
#
#
# Convention : Reuss Voigt Hill
#
# Bulk Modulus (GPa) = 41.99035 49.28253 45.63644
# Shear Modulus (GPa) = 9.77704 21.74389 15.76047
#
# Velocity S-wave (km/s) = 2.16461 3.22808 2.74828
# Velocity P-wave (km/s) = 5.13525 6.12471 5.65168
#
# Compressibility (1/GPa) = 0.02381500
#
# Stress axis : x y z
#
# Youngs Moduli (GPa) = 58.81858 45.08237 107.15699
#
# Poissons Ratio (x) = 0.22642 0.10424
# Poissons Ratio (y) = 0.29541 0.68097
# Poissons Ratio (z) = 0.05722 0.28649
#
# Static dielectric constant tensor:
#      x y z
#    x 1.801030 0.000000 0.000000 
#    y 0.000000 1.771830 0.000000 
#    z 0.000000 0.000000 1.863350 
# 
# From -- ./inp_files/14992.got.cif
#   From: 2010.05.17/outbox.cif.g08.bks.cpg/sg64_8_cif.got.tgz:14992.got - 2010.06.03 16:29:19.
