data_PCOD9477778
_publ_section_title
;
Structure prediction by ZEFSAII (Michael W. Deem and Ramdas Pophale) SiO2 
 PCOD9477778
Probable space group: C M C A
;
_chemical_formula_sum "Si O2"
_cell_formula_units_Z 112
_cell_length_a 13.778547
_cell_length_b 11.110463
_cell_length_c 36.537572
_cell_angle_alpha 90.000000
_cell_angle_beta 90.000000
_cell_angle_gamma 90.000000
_cell_volume 5593.392086
_symmetry_space_group_name_H-M "C M C A"
_symmetry_group_IT_number 64
_symmetry_cell_setting 'orthorhombic'
loop_
_space_group_symop_operation_xyz
x,y,z
-x,1/2-y,1/2+z
x,-y,-z
-x,1/2+y,1/2-z
-x,-y,-z
x,1/2+y,1/2-z
-x,y,z
x,1/2-y,1/2+z
1/2+x,1/2+y,z
1/2-x,-y,1/2+z
1/2+x,1/2-y,-z
1/2-x,y,1/2-z
1/2-x,1/2-y,-z
1/2+x,y,1/2-z
1/2-x,1/2+y,z
1/2+x,-y,1/2+z
loop_
_atom_site_type_symbol
_atom_site_label
_atom_site_fract_x
_atom_site_fract_y
_atom_site_fract_z
Si Si1 0.187654 0.963471 0.346962
Si Si2 0.613293 0.071183 0.357439
Si Si3 0.811385 0.729010 0.906511
Si Si4 0.888689 0.341912 0.898799
Si Si5 0.113881 0.453315 0.038581
Si Si6 0.617482 0.910815 0.234303
Si Si7 0.384576 0.852343 0.723106
O O1 0.303898 0.971355 0.352286
O O2 0.140642 0.087181 0.361797
O O3 0.156161 0.940422 0.305975
O O4 0.152652 0.861546 0.374860
O O5 0.500000 0.035371 0.357196
O O6 0.639895 0.145510 0.394052
O O7 0.631819 0.150447 0.320570
O O8 0.695812 0.746356 0.905168
O O9 0.839594 0.666048 0.944266
O O10 0.879003 0.439966 0.931499
O O11 0.000000 0.299976 0.897499
O O12 0.000000 0.427221 0.033399
O O13 0.154362 0.500000 0.000000
O O14 0.500000 0.911408 0.233429
O O15 0.648844 0.019042 0.261077
O O16 0.646977 0.772208 0.242121
O O17 0.500000 0.855050 0.727901
#
# Coordination Sequence:
#
# PCOD9477778 Si02
#       7
#    16  16  16  16  16  16  16
#     4  10  20  34  55  80 103 143 187 229 279 337
#     4  10  20  36  54  77 107 142 185 234 282 339
#     4  10  19  34  57  80 106 146 188 225 282 336
#     4   9  19  34  53  81 113 143 181 228 274 329
#     4   9  18  33  55  84 113 143 183 228 273 330
#     4  10  19  36  58  82 111 145 190 241 295 349
#     4   9  19  35  56  80 109 145 186 238 295 347
#
# _framework density 20.023627999999999
#
# number of rings (size 3 to 8) (size 9 to 14) (size 15 to 20)
#    0.000    2.429    1.429    0.857    0.000    2.857 
#    5.143    1.429    0.000    0.429    0.000    0.000 
#    0.000    0.000    0.000    0.000    0.000    0.000 
#
# Total GULP energy -312152.256314 kJ/mol
# GULP energy per Si atom -5574.147434 kJ/mol
# Density = 1.997805 g / cm^3
# Si number density = 20.023628 Si / 1000 Ang^3
#
#
#
# Elastic Constant Matrix: (Units=GPa)
#
#
# Indices 1 2 3 4 5 6 
#
# 1 84.8065 -0.5711 5.5758 0.0000 0.0000 0.0000
# 2 -0.5711 56.2150 8.7690 0.0000 0.0000 0.0000
# 3 5.5758 8.7690 41.9376 0.0000 0.0000 0.0000
# 4 0.0000 0.0000 0.0000 16.9196 0.0000 0.0000
# 5 0.0000 0.0000 0.0000 0.0000 22.8353 0.0000
# 6 0.0000 0.0000 0.0000 0.0000 0.0000 15.1985
#
#
#
# Elastic Compliance Matrix: (Units=1/GPa)
#
#
# Indices 1 2 3 4 5 6 
#
# 1 0.011903 0.000380 -0.001662 0.000000 0.000000 0.000000
# 2 0.000380 0.018401 -0.003898 0.000000 0.000000 0.000000
# 3 -0.001662 -0.003898 0.024881 0.000000 0.000000 0.000000
# 4 0.000000 0.000000 0.000000 0.059103 0.000000 0.000000
# 5 0.000000 0.000000 0.000000 0.000000 0.043792 0.000000
# 6 0.000000 0.000000 0.000000 0.000000 0.000000 0.065796
#
#
# Mechanical properties :
#
#
# Convention : Reuss Voigt Hill
#
# Bulk Modulus (GPa) = 22.30888 23.38961 22.84924
# Shear Modulus (GPa) = 20.06600 22.26972 21.16786
#
# Velocity S-wave (km/s) = 3.16906 3.33854 3.25490
# Velocity P-wave (km/s) = 4.95540 5.15437 5.05586
#
# Compressibility (1/GPa) = 0.04482519
#
# Stress axis : x y z
#
# Youngs Moduli (GPa) = 84.00974 54.34551 40.19128
#
# Poissons Ratio (x) = -0.02066 0.06680
# Poissons Ratio (y) = -0.03194 0.15667
# Poissons Ratio (z) = 0.13963 0.21184
#
# Static dielectric constant tensor:
#      x y z
#    x 1.707800 0.000000 0.000000 
#    y 0.000000 1.751270 0.000000 
#    z 0.000000 0.000000 1.710470 
# 
# From -- ./inp_files/53289.got.cif
#   From: 2010.05.17/outbox.cif.g08.bks.cpg/sg64_27_cif.got.tgz:53289.got - 2010.06.03 16:29:19.
