data_PCOD9477804
_publ_section_title
;
Structure prediction by ZEFSAII (Michael W. Deem and Ramdas Pophale) SiO2 
 PCOD9477804
Probable space group: C M C A
;
_chemical_formula_sum "Si O2"
_cell_formula_units_Z 80
_cell_length_a 19.076383
_cell_length_b 13.472280
_cell_length_c 17.308580
_cell_angle_alpha 90.000000
_cell_angle_beta 90.000000
_cell_angle_gamma 90.000000
_cell_volume 4448.346136
_symmetry_space_group_name_H-M "C M C A"
_symmetry_group_IT_number 64
_symmetry_cell_setting 'orthorhombic'
loop_
_space_group_symop_operation_xyz
x,y,z
-x,1/2-y,1/2+z
x,-y,-z
-x,1/2+y,1/2-z
-x,-y,-z
x,1/2+y,1/2-z
-x,y,z
x,1/2-y,1/2+z
1/2+x,1/2+y,z
1/2-x,-y,1/2+z
1/2+x,1/2-y,-z
1/2-x,y,1/2-z
1/2-x,1/2-y,-z
1/2+x,y,1/2-z
1/2-x,1/2+y,z
1/2+x,-y,1/2+z
loop_
_atom_site_type_symbol
_atom_site_label
_atom_site_fract_x
_atom_site_fract_y
_atom_site_fract_z
Si Si1 0.190477 0.835361 0.850321
Si Si2 0.418212 0.213340 0.647649
Si Si3 0.919648 0.883152 0.983102
Si Si4 0.842761 0.592338 0.177972
Si Si5 0.175030 0.620371 0.784223
O O1 0.136354 0.860162 0.917288
O O2 0.165872 0.884110 0.769475
O O3 0.269275 0.875468 0.861664
O O4 0.190371 0.717055 0.835892
O O5 0.500000 0.195942 0.662761
O O6 0.401652 0.171233 0.563101
O O7 0.400437 0.330051 0.649686
O O8 0.373067 0.158088 0.713530
O O9 0.000000 0.855719 0.960711
O O10 0.919036 0.000000 0.000000
O O11 0.855645 0.475144 0.172114
O O12 0.250000 0.587576 0.750000
#
# Coordination Sequence:
#
# PCOD9477804 Si02
#       5
#    16  16  16  16  16
#     4  10  19  34  58  85 112 153 191 244 286 347
#     4  10  22  39  57  85 120 154 197 244 289 345
#     4  10  22  38  58  85 120 159 198 240 288 351
#     4  10  20  35  59  85 117 148 191 247 294 346
#     4  11  19  37  62  86 117 149 194 245 294 346
#
# _framework density 17.984210999999998
#
# number of rings (size 3 to 8) (size 9 to 14) (size 15 to 20)
#    0.000    1.800    6.000    1.200    0.000    4.800 
#    0.000    1.000    0.000    2.400    0.000    0.000 
#    0.000    0.000    0.000    0.000    0.000    0.000 
#
# Total GULP energy -223162.080840 kJ/mol
# GULP energy per Si atom -5579.052021 kJ/mol
# Density = 1.794328 g / cm^3
# Si number density = 17.984211 Si / 1000 Ang^3
#
#
#
# Elastic Constant Matrix: (Units=GPa)
#
#
# Indices 1 2 3 4 5 6 
#
# 1 78.0666 14.9096 58.7733 0.0000 0.0000 0.0000
# 2 14.9096 121.0970 30.1649 0.0000 0.0000 0.0000
# 3 58.7733 30.1649 59.6701 0.0000 0.0000 0.0000
# 4 0.0000 0.0000 0.0000 16.8991 0.0000 0.0000
# 5 0.0000 0.0000 0.0000 0.0000 31.9171 0.0000
# 6 0.0000 0.0000 0.0000 0.0000 0.0000 45.0170
#
#
#
# Elastic Compliance Matrix: (Units=1/GPa)
#
#
# Indices 1 2 3 4 5 6 
#
# 1 0.055228 0.007723 -0.058302 0.000000 0.000000 0.000000
# 2 0.007723 0.010528 -0.012929 0.000000 0.000000 0.000000
# 3 -0.058302 -0.012929 0.080721 0.000000 0.000000 0.000000
# 4 0.000000 0.000000 0.000000 0.059175 0.000000 0.000000
# 5 0.000000 0.000000 0.000000 0.000000 0.031331 0.000000
# 6 0.000000 0.000000 0.000000 0.000000 0.000000 0.022214
#
#
# Mechanical properties :
#
#
# Convention : Reuss Voigt Hill
#
# Bulk Modulus (GPa) = 51.38722 51.83660 51.61191
# Shear Modulus (GPa) = 12.73237 29.09902 20.91569
#
# Velocity S-wave (km/s) = 2.66367 4.02684 3.41398
# Velocity P-wave (km/s) = 6.17217 7.10680 6.65591
#
# Compressibility (1/GPa) = 0.01946009
#
# Stress axis : x y z
#
# Youngs Moduli (GPa) = 18.10670 94.98872 12.38833
#
# Poissons Ratio (x) = -0.73362 0.72227
# Poissons Ratio (y) = -0.13984 0.16017
# Poissons Ratio (z) = 1.05567 1.22812
#
# Static dielectric constant tensor:
#      x y z
#    x 1.614080 0.000000 0.000000 
#    y 0.000000 1.635900 0.000000 
#    z 0.000000 0.000000 1.587280 
# 
# From -- ./inp_files/32994.got.cif
#   From: 2010.05.17/outbox.cif.g08.bks.cpg/sg64_17_cif.got.tgz:32994.got - 2010.06.03 16:29:19.
