data_PCOD9477013
_publ_section_title
;
Structure prediction by ZEFSAII (Michael W. Deem and Ramdas Pophale) SiO2 
 PCOD9477013
Probable space group: C M C A
;
_chemical_formula_sum "Si O2"
_cell_formula_units_Z 88
_cell_length_a 14.618885
_cell_length_b 21.803049
_cell_length_c 15.069940
_cell_angle_alpha 90.000000
_cell_angle_beta 90.000000
_cell_angle_gamma 90.000000
_cell_volume 4803.336404
_symmetry_space_group_name_H-M "C M C A"
_symmetry_group_IT_number 64
_symmetry_cell_setting 'orthorhombic'
loop_
_space_group_symop_operation_xyz
x,y,z
-x,1/2-y,1/2+z
x,-y,-z
-x,1/2+y,1/2-z
-x,-y,-z
x,1/2+y,1/2-z
-x,y,z
x,1/2-y,1/2+z
1/2+x,1/2+y,z
1/2-x,-y,1/2+z
1/2+x,1/2-y,-z
1/2-x,y,1/2-z
1/2-x,1/2-y,-z
1/2+x,y,1/2-z
1/2-x,1/2+y,z
1/2+x,-y,1/2+z
loop_
_atom_site_type_symbol
_atom_site_label
_atom_site_fract_x
_atom_site_fract_y
_atom_site_fract_z
Si Si1 0.500000 0.333255 0.417891
Si Si2 0.500000 0.757035 0.242123
Si Si3 0.000000 0.522859 0.603987
Si Si4 0.500000 0.669757 0.924000
Si Si5 0.648560 0.331395 0.716047
Si Si6 0.146468 0.261426 0.972603
Si Si7 0.000000 0.475194 0.100170
Si Si8 0.361166 0.975301 0.754461
O O1 0.500000 0.315529 0.317012
O O2 0.411351 0.302819 0.460797
O O3 0.500000 0.404420 0.421334
O O4 0.500000 0.786314 0.338469
O O5 0.585075 0.712898 0.226788
O O6 0.000000 0.500000 0.500000
O O7 0.000000 0.597570 0.596705
O O8 0.086622 0.498612 0.664333
O O9 0.591863 0.696232 0.970029
O O10 0.750000 0.326257 0.750000
O O11 0.643047 0.301847 0.618019
O O12 0.621825 0.402520 0.727821
O O13 0.250000 0.250000 0.000000
O O14 0.912442 0.492766 0.161961
O O15 0.000000 0.500000 0.000000
O O16 0.250000 0.984779 0.750000
#
# Coordination Sequence:
#
# PCOD9477013 Si02
#       8
#     8   8   8   8  16  16   8  16
#     4  11  22  34  56  85 109 143 190 228 280 350
#     4  10  18  34  54  76 110 144 176 228 284 332
#     4  11  24  41  61  85 118 164 207 255 315 368
#     4   9  22  38  54  81 115 145 190 238 286 356
#     4  10  20  36  58  82 111 148 187 229 287 349
#     4  10  21  37  58  87 117 145 185 243 297 351
#     4  11  22  39  61  85 118 158 197 243 297 358
#     4  10  23  40  59  87 120 156 203 250 297 366
#
# _framework density 18.320599000000001
#
# number of rings (size 3 to 8) (size 9 to 14) (size 15 to 20)
#    0.000    1.818    0.000    4.909    0.000    8.000 
#    0.000    4.545    0.000    0.000    0.000    0.000 
#    0.000    0.000    0.000    0.000    0.000    0.000 
#
# Total GULP energy -244957.632747 kJ/mol
# GULP energy per Si atom -5567.218926 kJ/mol
# Density = 1.827890 g / cm^3
# Si number density = 18.320599 Si / 1000 Ang^3
#
#
#
# Elastic Constant Matrix: (Units=GPa)
#
#
# Indices 1 2 3 4 5 6 
#
# 1 138.1044 62.6245 42.6310 0.0000 0.0000 0.0000
# 2 62.6245 157.1305 28.6368 0.0000 0.0000 0.0000
# 3 42.6310 28.6368 85.2262 0.0000 0.0000 0.0000
# 4 0.0000 0.0000 0.0000 37.1384 0.0000 0.0000
# 5 0.0000 0.0000 0.0000 0.0000 9.3701 0.0000
# 6 0.0000 0.0000 0.0000 0.0000 0.0000 12.9102
#
#
#
# Elastic Compliance Matrix: (Units=1/GPa)
#
#
# Indices 1 2 3 4 5 6 
#
# 1 0.009904 -0.003243 -0.003865 0.000000 0.000000 0.000000
# 2 -0.003243 0.007841 -0.001012 0.000000 0.000000 0.000000
# 3 -0.003865 -0.001012 0.014007 0.000000 0.000000 0.000000
# 4 0.000000 0.000000 0.000000 0.026926 0.000000 0.000000
# 5 0.000000 0.000000 0.000000 0.000000 0.106723 0.000000
# 6 0.000000 0.000000 0.000000 0.000000 0.000000 0.077458
#
#
# Mechanical properties :
#
#
# Convention : Reuss Voigt Hill
#
# Bulk Modulus (GPa) = 64.46589 72.02731 68.24660
# Shear Modulus (GPa) = 18.92000 28.32164 23.62082
#
# Velocity S-wave (km/s) = 3.21708 3.93605 3.59458
# Velocity P-wave (km/s) = 7.00453 7.74964 7.38649
#
# Compressibility (1/GPa) = 0.01551208
#
# Stress axis : x y z
#
# Youngs Moduli (GPa) = 100.96458 127.53130 71.39397
#
# Poissons Ratio (x) = 0.41360 0.27591
# Poissons Ratio (y) = 0.32744 0.07229
# Poissons Ratio (z) = 0.39019 0.12912
#
# Static dielectric constant tensor:
#      x y z
#    x 1.642990 0.000000 0.000000 
#    y 0.000000 1.605710 0.000000 
#    z 0.000000 0.000000 2.603800 
# 
# From -- ./inp_files/23828.got.cif
#   From: 2010.05.17/outbox.cif.g08.bks.cpg/sg64_12_cif.got.tgz:23828.got - 2010.06.03 16:29:19.
