data_PCOD9477700
_publ_section_title
;
Structure prediction by ZEFSAII (Michael W. Deem and Ramdas Pophale) SiO2 
 PCOD9477700
Probable space group: C M C A
;
_chemical_formula_sum "Si O2"
_cell_formula_units_Z 112
_cell_length_a 11.389668
_cell_length_b 23.686281
_cell_length_c 22.050002
_cell_angle_alpha 90.000000
_cell_angle_beta 90.000000
_cell_angle_gamma 90.000000
_cell_volume 5948.624772
_symmetry_space_group_name_H-M "C M C A"
_symmetry_group_IT_number 64
_symmetry_cell_setting 'orthorhombic'
loop_
_space_group_symop_operation_xyz
x,y,z
-x,1/2-y,1/2+z
x,-y,-z
-x,1/2+y,1/2-z
-x,-y,-z
x,1/2+y,1/2-z
-x,y,z
x,1/2-y,1/2+z
1/2+x,1/2+y,z
1/2-x,-y,1/2+z
1/2+x,1/2-y,-z
1/2-x,y,1/2-z
1/2-x,1/2-y,-z
1/2+x,y,1/2-z
1/2-x,1/2+y,z
1/2+x,-y,1/2+z
loop_
_atom_site_type_symbol
_atom_site_label
_atom_site_fract_x
_atom_site_fract_y
_atom_site_fract_z
Si Si1 0.705872 0.691254 0.317455
Si Si2 0.131549 0.724767 0.425226
Si Si3 0.371669 0.187361 0.713347
Si Si4 0.199412 0.838141 0.481714
Si Si5 0.870753 0.900528 0.103462
Si Si6 0.371674 0.594670 0.406157
Si Si7 0.134232 0.477039 0.569688
O O1 0.750000 0.677275 0.250000
O O2 0.813071 0.709010 0.361050
O O3 0.631529 0.749130 0.313658
O O4 0.644351 0.639093 0.351062
O O5 0.139480 0.791271 0.439773
O O6 0.204824 0.694521 0.477669
O O7 0.000000 0.705007 0.428000
O O8 0.500000 0.181046 0.744878
O O9 0.250000 0.182948 0.750000
O O10 0.366349 0.139445 0.661871
O O11 0.267528 0.882125 0.440436
O O12 0.123347 0.869472 0.531700
O O13 0.000000 0.890497 0.074899
O O14 0.862720 0.967433 0.112323
O O15 0.500000 0.565318 0.399423
O O16 0.248878 0.559991 0.413570
O O17 0.144557 0.500000 0.500000
O O18 0.000000 0.452479 0.574793
#
# Coordination Sequence:
#
# PCOD9477700 Si02
#       7
#    16  16  16  16  16  16  16
#     4  10  22  39  59  84 116 159 200 238 286 351
#     4  10  20  32  52  82 118 154 195 236 279 346
#     4  10  21  39  61  86 116 153 195 241 293 345
#     4  10  19  34  51  83 118 154 189 230 296 350
#     4  10  19  36  60  83 111 150 194 236 286 345
#     4  11  23  38  58  88 124 156 193 246 305 349
#     4  10  21  39  62  85 114 155 201 239 282 352
#
# _framework density 18.827881000000001
#
# number of rings (size 3 to 8) (size 9 to 14) (size 15 to 20)
#    0.000    1.857    2.857    1.286    0.000    5.429 
#    0.000    1.429    0.000    1.714    0.000    0.000 
#    0.000    0.000    0.000    0.000    0.000    0.000 
#
# Total GULP energy -311955.164095 kJ/mol
# GULP energy per Si atom -5570.627930 kJ/mol
# Density = 1.878503 g / cm^3
# Si number density = 18.827881 Si / 1000 Ang^3
#
#
#
# Elastic Constant Matrix: (Units=GPa)
#
#
# Indices 1 2 3 4 5 6 
#
# 1 167.5166 48.0703 44.5484 0.0000 0.0000 0.0000
# 2 48.0703 66.9594 18.2927 0.0000 0.0000 0.0000
# 3 44.5484 18.2927 66.3509 0.0000 0.0000 0.0000
# 4 0.0000 0.0000 0.0000 16.9836 0.0000 0.0000
# 5 0.0000 0.0000 0.0000 0.0000 77.5289 0.0000
# 6 0.0000 0.0000 0.0000 0.0000 0.0000 14.3496
#
#
#
# Elastic Compliance Matrix: (Units=1/GPa)
#
#
# Indices 1 2 3 4 5 6 
#
# 1 0.008553 -0.004944 -0.004379 0.000000 0.000000 0.000000
# 2 -0.004944 0.019008 -0.001921 0.000000 0.000000 0.000000
# 3 -0.004379 -0.001921 0.018541 0.000000 0.000000 0.000000
# 4 0.000000 0.000000 0.000000 0.058880 0.000000 0.000000
# 5 0.000000 0.000000 0.000000 0.000000 0.012898 0.000000
# 6 0.000000 0.000000 0.000000 0.000000 0.000000 0.069688
#
#
# Mechanical properties :
#
#
# Convention : Reuss Voigt Hill
#
# Bulk Modulus (GPa) = 42.34818 58.07219 50.21018
# Shear Modulus (GPa) = 22.94313 34.43346 28.68829
#
# Velocity S-wave (km/s) = 3.49459 4.28115 3.90771
# Velocity P-wave (km/s) = 6.23089 7.43965 6.86194
#
# Compressibility (1/GPa) = 0.02361377
#
# Stress axis : x y z
#
# Youngs Moduli (GPa) = 116.92030 52.60845 53.93310
#
# Poissons Ratio (x) = 0.26008 0.23620
# Poissons Ratio (y) = 0.57801 0.10362
# Poissons Ratio (z) = 0.51205 0.10108
#
# Static dielectric constant tensor:
#      x y z
#    x 1.693560 0.000000 0.000000 
#    y 0.000000 1.683590 0.000000 
#    z 0.000000 0.000000 1.640370 
# 
# From -- ./inp_files/38486.got.cif
#   From: 2010.05.17/outbox.cif.g08.bks.cpg/sg64_20_cif.got.tgz:38486.got - 2010.06.03 16:29:19.
