data_PCOD9477384
_publ_section_title
;
Structure prediction by ZEFSAII (Michael W. Deem and Ramdas Pophale) SiO2 
 PCOD9477384
Probable space group: C M C A
;
_chemical_formula_sum "Si O2"
_cell_formula_units_Z 112
_cell_length_a 13.552890
_cell_length_b 14.836576
_cell_length_c 27.411226
_cell_angle_alpha 90.000000
_cell_angle_beta 90.000000
_cell_angle_gamma 90.000000
_cell_volume 5511.807728
_symmetry_space_group_name_H-M "C M C A"
_symmetry_group_IT_number 64
_symmetry_cell_setting 'orthorhombic'
loop_
_space_group_symop_operation_xyz
x,y,z
-x,1/2-y,1/2+z
x,-y,-z
-x,1/2+y,1/2-z
-x,-y,-z
x,1/2+y,1/2-z
-x,y,z
x,1/2-y,1/2+z
1/2+x,1/2+y,z
1/2-x,-y,1/2+z
1/2+x,1/2-y,-z
1/2-x,y,1/2-z
1/2-x,1/2-y,-z
1/2+x,y,1/2-z
1/2-x,1/2+y,z
1/2+x,-y,1/2+z
loop_
_atom_site_type_symbol
_atom_site_label
_atom_site_fract_x
_atom_site_fract_y
_atom_site_fract_z
Si Si1 0.882490 0.861293 0.966401
Si Si2 0.384113 0.573027 0.934178
Si Si3 0.789891 0.200385 0.128036
Si Si4 0.118917 0.325443 0.210077
Si Si5 0.380789 0.489287 0.841590
Si Si6 0.382646 0.483285 0.727915
Si Si7 0.382128 0.284973 0.692988
O O1 0.823451 0.799635 0.928219
O O2 0.000000 0.839142 0.964468
O O3 0.875933 0.967064 0.949866
O O4 0.843658 0.865517 0.022181
O O5 0.500000 0.594755 0.933498
O O6 0.350154 0.569406 0.878198
O O7 0.848449 0.264116 0.165343
O O8 0.822194 0.100002 0.144181
O O9 0.677163 0.220782 0.142472
O O10 0.155700 0.427322 0.201916
O O11 0.144999 0.284522 0.263569
O O12 0.000000 0.326319 0.210801
O O13 0.500000 0.474551 0.848634
O O14 0.366890 0.502646 0.784699
O O15 0.500000 0.480605 0.719646
O O16 0.351235 0.383487 0.713747
O O17 0.500000 0.279586 0.686098
#
# Coordination Sequence:
#
# PCOD9477384 Si02
#       7
#    16  16  16  16  16  16  16
#     4   8  13  22  40  68 100 122 145 187 242 300
#     4   7  11  20  37  66  99 123 142 180 240 305
#     4  11  18  28  45  70  93 132 157 189 239 281
#     4  10  19  32  48  68  95 126 162 196 235 284
#     4   9  15  26  46  71 100 126 151 188 245 301
#     4   9  18  32  49  67  96 132 159 196 236 278
#     4  10  21  36  46  62  95 131 170 205 232 272
#
# _framework density 20.320012999999999
#
# number of rings (size 3 to 8) (size 9 to 14) (size 15 to 20)
#    0.000    2.857    1.429    3.429    0.000    0.000 
#    5.143    0.000    0.000    0.000    0.000    9.000 
#    4.286    0.143    8.571    0.000    0.000    4.571 
#
# Total GULP energy -312049.202970 kJ/mol
# GULP energy per Si atom -5572.307196 kJ/mol
# Density = 2.027376 g / cm^3
# Si number density = 20.320013 Si / 1000 Ang^3
#
#
#
# Elastic Constant Matrix: (Units=GPa)
#
#
# Indices 1 2 3 4 5 6 
#
# 1 78.6458 1.7196 -0.5696 0.0000 0.0000 0.0000
# 2 1.7196 63.6085 -10.7757 0.0000 0.0000 0.0000
# 3 -0.5696 -10.7757 20.8371 0.0000 0.0000 0.0000
# 4 0.0000 0.0000 0.0000 2.2929 0.0000 0.0000
# 5 0.0000 0.0000 0.0000 0.0000 25.1112 0.0000
# 6 0.0000 0.0000 0.0000 0.0000 0.0000 1.3205
#
#
#
# Elastic Compliance Matrix: (Units=1/GPa)
#
#
# Indices 1 2 3 4 5 6 
#
# 1 0.012723 -0.000312 0.000186 0.000000 0.000000 0.000000
# 2 -0.000312 0.017238 0.008906 0.000000 0.000000 0.000000
# 3 0.000186 0.008906 0.052602 0.000000 0.000000 0.000000
# 4 0.000000 0.000000 0.000000 0.436135 0.000000 0.000000
# 5 0.000000 0.000000 0.000000 0.000000 0.039823 0.000000
# 6 0.000000 0.000000 0.000000 0.000000 0.000000 0.757317
#
#
# Mechanical properties :
#
#
# Convention : Reuss Voigt Hill
#
# Bulk Modulus (GPa) = 9.98761 15.98221 12.98491
# Shear Modulus (GPa) = 3.75473 17.25939 10.50706
#
# Velocity S-wave (km/s) = 1.36081 2.91757 2.27640
# Velocity P-wave (km/s) = 2.71936 4.38543 3.64876
#
# Compressibility (1/GPa) = 0.10012401
#
# Stress axis : x y z
#
# Youngs Moduli (GPa) = 78.59529 58.01007 19.01060
#
# Poissons Ratio (x) = 0.01812 -0.00354
# Poissons Ratio (y) = 0.02455 -0.16931
# Poissons Ratio (z) = -0.01464 -0.51665
#
# Static dielectric constant tensor:
#      x y z
#    x 1.757100 0.000000 0.000000 
#    y 0.000000 1.729930 0.000000 
#    z 0.000000 0.000000 1.779960 
# 
# From -- ./inp_files/50086.got.cif
#   From: 2010.05.17/outbox.cif.g08.bks.cpg/sg64_26_cif.got.tgz:50086.got - 2010.06.03 16:29:19.
