data_PCOD9477798
_publ_section_title
;
Structure prediction by ZEFSAII (Michael W. Deem and Ramdas Pophale) SiO2 
 PCOD9477798
Probable space group: C M C A
;
_chemical_formula_sum "Si O2"
_cell_formula_units_Z 96
_cell_length_a 20.127356
_cell_length_b 13.580503
_cell_length_c 18.213848
_cell_angle_alpha 90.000000
_cell_angle_beta 90.000000
_cell_angle_gamma 90.000000
_cell_volume 4978.566264
_symmetry_space_group_name_H-M "C M C A"
_symmetry_group_IT_number 64
_symmetry_cell_setting 'orthorhombic'
loop_
_space_group_symop_operation_xyz
x,y,z
-x,1/2-y,1/2+z
x,-y,-z
-x,1/2+y,1/2-z
-x,-y,-z
x,1/2+y,1/2-z
-x,y,z
x,1/2-y,1/2+z
1/2+x,1/2+y,z
1/2-x,-y,1/2+z
1/2+x,1/2-y,-z
1/2-x,y,1/2-z
1/2-x,1/2-y,-z
1/2+x,y,1/2-z
1/2-x,1/2+y,z
1/2+x,-y,1/2+z
loop_
_atom_site_type_symbol
_atom_site_label
_atom_site_fract_x
_atom_site_fract_y
_atom_site_fract_z
Si Si1 0.429133 0.611907 0.974953
Si Si2 0.313211 0.603009 0.196220
Si Si3 0.929129 0.296681 0.078097
Si Si4 0.829072 0.875968 0.153233
Si Si5 0.713218 0.269449 0.422856
Si Si6 0.576251 0.242127 0.253391
O O1 0.500000 0.625680 0.934719
O O2 0.367883 0.630384 0.923389
O O3 0.426356 0.500000 0.000000
O O4 0.429934 0.687954 0.041710
O O5 0.250000 0.617085 0.250000
O O6 0.321267 0.488367 0.177753
O O7 0.302718 0.668515 0.122229
O O8 0.380367 0.643188 0.235019
O O9 0.854587 0.329948 0.059608
O O10 0.929727 0.287782 0.165420
O O11 0.000000 0.343915 0.054661
O O12 0.758076 0.828660 0.135468
O O13 0.875936 0.813509 0.207202
O O14 0.750000 0.250000 0.500000
O O15 0.500000 0.228340 0.226167
#
# Coordination Sequence:
#
# PCOD9477798 Si02
#       6
#    16  16  16  16  16  16
#     4  10  19  34  57  90 120 152 199 260 321 377
#     4  11  25  41  62  94 130 166 216 266 320 386
#     4   9  19  35  56  83 120 158 199 251 312 378
#     4  12  24  37  65  93 128 164 216 267 326 386
#     4  11  22  40  64  93 125 163 212 264 329 390
#     4  10  22  42  64  90 126 167 206 258 326 392
#
# _framework density 19.28266
#
# number of rings (size 3 to 8) (size 9 to 14) (size 15 to 20)
#    0.000    1.500    3.333    2.500    4.667    2.667 
#    0.000    0.000    0.000    0.000    0.000    1.167 
#    0.000    0.500    0.000    0.000    0.000    0.000 
#
# Total GULP energy -267376.614158 kJ/mol
# GULP energy per Si atom -5570.346128 kJ/mol
# Density = 1.923877 g / cm^3
# Si number density = 19.282660 Si / 1000 Ang^3
#
#
#
# Elastic Constant Matrix: (Units=GPa)
#
#
# Indices 1 2 3 4 5 6 
#
# 1 176.5100 39.0973 33.8918 0.0000 0.0000 0.0000
# 2 39.0973 91.8279 25.3071 0.0000 0.0000 0.0000
# 3 33.8918 25.3071 69.6857 0.0000 0.0000 0.0000
# 4 0.0000 0.0000 0.0000 19.9298 0.0000 0.0000
# 5 0.0000 0.0000 0.0000 0.0000 -895.9181 0.0000
# 6 0.0000 0.0000 0.0000 0.0000 0.0000 17.8615
#
#
#
# Elastic Compliance Matrix: (Units=1/GPa)
#
#
# Indices 1 2 3 4 5 6 
#
# 1 0.006608 -0.002142 -0.002436 0.000000 0.000000 0.000000
# 2 -0.002142 0.012795 -0.003605 0.000000 0.000000 0.000000
# 3 -0.002436 -0.003605 0.016844 0.000000 0.000000 0.000000
# 4 0.000000 0.000000 0.000000 0.050176 0.000000 0.000000
# 5 0.000000 0.000000 0.000000 0.000000 -0.001116 0.000000
# 6 0.000000 0.000000 0.000000 0.000000 0.000000 0.055986
#
#
# Mechanical properties :
#
#
# Convention : Reuss Voigt Hill
#
# Bulk Modulus (GPa) = 50.29807 59.40177 54.84992
# Shear Modulus (GPa) = 30.43477 -155.64352 -62.60438
#
# Velocity S-wave (km/s) = 3.97715 -8.99400 -5.70413
# Velocity P-wave (km/s) = 6.87252 8.77402 3.85693
#
# Compressibility (1/GPa) = 0.01988148
#
# Stress axis : x y z
#
# Youngs Moduli (GPa) = 151.34216 78.15279 59.36844
#
# Poissons Ratio (x) = 0.16740 0.14460
# Poissons Ratio (y) = 0.32418 0.21402
# Poissons Ratio (z) = 0.36863 0.28174
#
# Static dielectric constant tensor:
#      x y z
#    x 1.780950 0.000000 0.000000 
#    y 0.000000 1.681970 0.000000 
#    z 0.000000 0.000000 1.671120 
# 
# From -- ./inp_files/40860.got.cif
#   From: 2010.05.17/outbox.cif.g08.bks.cpg/sg64_21_cif.got.tgz:40860.got - 2010.06.03 16:29:19.
