data_PCOD9477124
_publ_section_title
;
Structure prediction by ZEFSAII (Michael W. Deem and Ramdas Pophale) SiO2 
 PCOD9477124
Probable space group: C M C A
;
_chemical_formula_sum "Si O2"
_cell_formula_units_Z 56
_cell_length_a 18.823644
_cell_length_b 9.065750
_cell_length_c 12.802767
_cell_angle_alpha 90.000000
_cell_angle_beta 90.000000
_cell_angle_gamma 90.000000
_cell_volume 2184.797957
_symmetry_space_group_name_H-M "C M C A"
_symmetry_group_IT_number 64
_symmetry_cell_setting 'orthorhombic'
loop_
_space_group_symop_operation_xyz
x,y,z
-x,1/2-y,1/2+z
x,-y,-z
-x,1/2+y,1/2-z
-x,-y,-z
x,1/2+y,1/2-z
-x,y,z
x,1/2-y,1/2+z
1/2+x,1/2+y,z
1/2-x,-y,1/2+z
1/2+x,1/2-y,-z
1/2-x,y,1/2-z
1/2-x,1/2-y,-z
1/2+x,y,1/2-z
1/2-x,1/2+y,z
1/2+x,-y,1/2+z
loop_
_atom_site_type_symbol
_atom_site_label
_atom_site_fract_x
_atom_site_fract_y
_atom_site_fract_z
Si Si1 0.876170 0.000000 0.000000
Si Si2 0.273015 0.695450 0.116396
Si Si3 0.500000 0.930160 0.783342
Si Si4 0.000000 0.368234 0.394610
Si Si5 0.849148 0.991047 0.373502
O O1 0.928052 0.869644 0.038962
O O2 0.827265 0.061649 0.092291
O O3 0.201756 0.624772 0.163637
O O4 0.312802 0.837893 0.160328
O O5 0.250000 0.750000 0.000000
O O6 0.500000 0.758516 0.810030
O O7 0.500000 0.974238 0.663063
O O8 0.571659 0.994941 0.832203
O O9 0.850918 0.000000 0.500000
#
# Coordination Sequence:
#
# PCOD9477124 Si02
#       5
#     8  16   8   8  16
#     4  11  22  44  74  93 136 188 238 269 340 414
#     4  10  18  36  71 103 125 171 230 277 325 405
#     4  12  27  46  64 103 143 173 230 281 352 404
#     4  11  28  44  68  98 140 184 226 284 340 409
#     4  10  21  38  71  99 136 171 223 274 341 407
#
# _framework density 25.631661000000001
#
# number of rings (size 3 to 8) (size 9 to 14) (size 15 to 20)
#    0.000    1.429    4.286    3.857    4.000    1.143 
#    0.000    1.429    6.286    0.000    0.000    0.000 
#    0.000    0.000    0.000    0.000    0.000    0.000 
#
# Total GULP energy -156953.981412 kJ/mol
# GULP energy per Si atom -5605.499336 kJ/mol
# Density = 2.557332 g / cm^3
# Si number density = 25.631661 Si / 1000 Ang^3
#
#
#
# Elastic Constant Matrix: (Units=GPa)
#
#
# Indices 1 2 3 4 5 6 
#
# 1 221.4750 73.4072 35.0687 0.0000 0.0000 0.0000
# 2 73.4072 131.4258 20.4450 0.0000 0.0000 0.0000
# 3 35.0687 20.4450 67.6981 0.0000 0.0000 0.0000
# 4 0.0000 0.0000 0.0000 41.3546 0.0000 0.0000
# 5 0.0000 0.0000 0.0000 0.0000 37.1580 0.0000
# 6 0.0000 0.0000 0.0000 0.0000 0.0000 2.4136
#
#
#
# Elastic Compliance Matrix: (Units=1/GPa)
#
#
# Indices 1 2 3 4 5 6 
#
# 1 0.005821 -0.002919 -0.002134 0.000000 0.000000 0.000000
# 2 -0.002919 0.009448 -0.001341 0.000000 0.000000 0.000000
# 3 -0.002134 -0.001341 0.016282 0.000000 0.000000 0.000000
# 4 0.000000 0.000000 0.000000 0.024181 0.000000 0.000000
# 5 0.000000 0.000000 0.000000 0.000000 0.026912 0.000000
# 6 0.000000 0.000000 0.000000 0.000000 0.000000 0.414310
#
#
# Mechanical properties :
#
#
# Convention : Reuss Voigt Hill
#
# Bulk Modulus (GPa) = 53.29768 75.38230 64.33999
# Shear Modulus (GPa) = 9.69000 35.63045 22.66022
#
# Velocity S-wave (km/s) = 1.94646 3.73244 2.97656
# Velocity P-wave (km/s) = 5.08826 6.93170 6.08025
#
# Compressibility (1/GPa) = 0.01876254
#
# Stress axis : x y z
#
# Youngs Moduli (GPa) = 171.80502 105.84294 61.41864
#
# Poissons Ratio (x) = 0.30897 0.13104
# Poissons Ratio (y) = 0.50152 0.08237
# Poissons Ratio (z) = 0.36655 0.14195
#
# Static dielectric constant tensor:
#      x y z
#    x 1.995170 0.000000 0.000000 
#    y 0.000000 2.004210 0.000000 
#    z 0.000000 0.000000 2.105700 
# 
# From -- ./inp_files/25951.got.cif
#   From: 2010.05.17/outbox.cif.g08.bks.cpg/sg64_13_cif.got.tgz:25951.got - 2010.06.03 16:29:19.
