data_PCOD9477747
_publ_section_title
;
Structure prediction by ZEFSAII (Michael W. Deem and Ramdas Pophale) SiO2 
 PCOD9477747
Probable space group: C M C A
;
_chemical_formula_sum "Si O2"
_cell_formula_units_Z 104
_cell_length_a 23.825275
_cell_length_b 26.472771
_cell_length_c 9.163262
_cell_angle_alpha 90.000000
_cell_angle_beta 90.000000
_cell_angle_gamma 90.000000
_cell_volume 5779.462222
_symmetry_space_group_name_H-M "C M C A"
_symmetry_group_IT_number 64
_symmetry_cell_setting 'orthorhombic'
loop_
_space_group_symop_operation_xyz
x,y,z
-x,1/2-y,1/2+z
x,-y,-z
-x,1/2+y,1/2-z
-x,-y,-z
x,1/2+y,1/2-z
-x,y,z
x,1/2-y,1/2+z
1/2+x,1/2+y,z
1/2-x,-y,1/2+z
1/2+x,1/2-y,-z
1/2-x,y,1/2-z
1/2-x,1/2-y,-z
1/2+x,y,1/2-z
1/2-x,1/2+y,z
1/2+x,-y,1/2+z
loop_
_atom_site_type_symbol
_atom_site_label
_atom_site_fract_x
_atom_site_fract_y
_atom_site_fract_z
Si Si1 0.438167 0.275900 0.100172
Si Si2 0.250000 0.905471 0.250000
Si Si3 0.436212 0.386861 0.238843
Si Si4 0.658318 0.649201 0.550604
Si Si5 0.863625 0.738846 0.345244
Si Si6 0.152517 0.058105 0.958709
Si Si7 0.185290 0.865565 0.782937
O O1 0.500000 0.253306 0.121043
O O2 0.439195 0.332786 0.158123
O O3 0.387266 0.249526 0.184846
O O4 0.419888 0.274668 0.933818
O O5 0.288525 0.873618 0.137973
O O6 0.206305 0.935396 0.148186
O O7 0.500000 0.403115 0.270272
O O8 0.397615 0.375237 0.378995
O O9 0.401424 0.423325 0.132702
O O10 0.659330 0.708741 0.590391
O O11 0.658726 0.637049 0.379059
O O12 0.822915 0.690858 0.349302
O O13 0.161409 0.094244 0.100434
O O14 0.147062 0.000000 0.000000
O O15 0.250000 0.876633 0.750000
#
# Coordination Sequence:
#
# PCOD9477747 Si02
#       7
#    16   8  16  16  16  16  16
#     4  10  19  34  55  81 118 155 193 237 285 346
#     4  10  22  40  60  84 120 156 200 244 306 366
#     4   9  20  41  62  85 122 159 200 250 299 356
#     4  10  22  38  59  88 122 163 197 238 299 369
#     4  11  21  35  54  88 120 159 196 232 292 362
#     4  11  24  41  65  91 116 158 206 259 314 359
#     4  12  24  39  58  90 127 156 202 254 298 362
#
# _framework density 17.994752999999999
#
# number of rings (size 3 to 8) (size 9 to 14) (size 15 to 20)
#    0.000    1.538    4.615    0.462    2.154    1.538 
#    0.000    3.077    0.000    0.923    0.000    0.000 
#    0.000    0.000    0.000    0.000    0.000    0.000 
#
# Total GULP energy -289892.831178 kJ/mol
# GULP energy per Si atom -5574.862138 kJ/mol
# Density = 1.795380 g / cm^3
# Si number density = 17.994753 Si / 1000 Ang^3
#
#
#
# Elastic Constant Matrix: (Units=GPa)
#
#
# Indices 1 2 3 4 5 6 
#
# 1 95.9683 38.0199 34.2426 0.0000 0.0000 0.0000
# 2 38.0199 88.4612 52.4121 0.0000 0.0000 0.0000
# 3 34.2426 52.4121 111.2460 0.0000 0.0000 0.0000
# 4 0.0000 0.0000 0.0000 10.9445 0.0000 0.0000
# 5 0.0000 0.0000 0.0000 0.0000 11.4591 0.0000
# 6 0.0000 0.0000 0.0000 0.0000 0.0000 12.4923
#
#
#
# Elastic Compliance Matrix: (Units=1/GPa)
#
#
# Indices 1 2 3 4 5 6 
#
# 1 0.012834 -0.004405 -0.001875 0.000000 0.000000 0.000000
# 2 -0.004405 0.017194 -0.006745 0.000000 0.000000 0.000000
# 3 -0.001875 -0.006745 0.012744 0.000000 0.000000 0.000000
# 4 0.000000 0.000000 0.000000 0.091370 0.000000 0.000000
# 5 0.000000 0.000000 0.000000 0.000000 0.087267 0.000000
# 6 0.000000 0.000000 0.000000 0.000000 0.000000 0.080049
#
#
# Mechanical properties :
#
#
# Convention : Reuss Voigt Hill
#
# Bulk Modulus (GPa) = 59.80064 60.55832 60.17948
# Shear Modulus (GPa) = 15.01132 18.37925 16.69528
#
# Velocity S-wave (km/s) = 2.89139 3.19935 3.04926
# Velocity P-wave (km/s) = 6.66718 6.88289 6.77589
#
# Compressibility (1/GPa) = 0.01672223
#
# Stress axis : x y z
#
# Youngs Moduli (GPa) = 77.91582 58.16034 78.46858
#
# Poissons Ratio (x) = 0.25620 0.14714
# Poissons Ratio (y) = 0.34323 0.52925
# Poissons Ratio (z) = 0.14610 0.39228
#
# Static dielectric constant tensor:
#      x y z
#    x 1.645150 0.000000 0.000000 
#    y 0.000000 1.594900 0.000000 
#    z 0.000000 0.000000 1.629260 
# 
# From -- ./inp_files/9664.got.cif
#   From: 2010.05.17/outbox.cif.g08.bks.cpg/sg64_5_cif.got.tgz:9664.got - 2010.06.03 16:29:19.
