data_PCOD9477672
_publ_section_title
;
Structure prediction by ZEFSAII (Michael W. Deem and Ramdas Pophale) SiO2 
 PCOD9477672
Probable space group: C M C A
;
_chemical_formula_sum "Si O2"
_cell_formula_units_Z 96
_cell_length_a 19.282778
_cell_length_b 17.680682
_cell_length_c 11.561503
_cell_angle_alpha 90.000000
_cell_angle_beta 90.000000
_cell_angle_gamma 90.000000
_cell_volume 3941.694040
_symmetry_space_group_name_H-M "C M C A"
_symmetry_group_IT_number 64
_symmetry_cell_setting 'orthorhombic'
loop_
_space_group_symop_operation_xyz
x,y,z
-x,1/2-y,1/2+z
x,-y,-z
-x,1/2+y,1/2-z
-x,-y,-z
x,1/2+y,1/2-z
-x,y,z
x,1/2-y,1/2+z
1/2+x,1/2+y,z
1/2-x,-y,1/2+z
1/2+x,1/2-y,-z
1/2-x,y,1/2-z
1/2-x,1/2-y,-z
1/2+x,y,1/2-z
1/2-x,1/2+y,z
1/2+x,-y,1/2+z
loop_
_atom_site_type_symbol
_atom_site_label
_atom_site_fract_x
_atom_site_fract_y
_atom_site_fract_z
Si Si1 0.419105 0.682570 0.850797
Si Si2 0.188585 0.719513 0.842517
Si Si3 0.821318 0.115034 0.188650
Si Si4 0.915893 0.518838 0.675666
Si Si5 0.076765 0.658896 0.104949
Si Si6 0.145174 0.567189 0.925151
O O1 0.500000 0.677682 0.824554
O O2 0.380418 0.704263 0.732771
O O3 0.400540 0.598346 0.887667
O O4 0.409628 0.754506 0.934409
O O5 0.250000 0.716384 0.750000
O O6 0.190316 0.806965 0.882923
O O7 0.193120 0.642154 0.915591
O O8 0.750000 0.088580 0.250000
O O9 0.867948 0.140027 0.298350
O O10 0.867583 0.049313 0.133403
O O11 0.886432 0.536057 0.805773
O O12 0.000000 0.504181 0.673732
O O13 0.000000 0.655949 0.155788
O O14 0.082976 0.600020 0.002468
O O15 0.178545 0.500000 0.000000
#
# Coordination Sequence:
#
# PCOD9477672 Si02
#       6
#    16  16  16  16  16  16
#     4   8  17  33  54  82 110 152 192 228 286 355
#     4   9  20  38  56  80 118 159 192 232 286 358
#     4  10  20  35  55  81 113 161 202 235 280 351
#     4  10  19  33  57  86 117 148 194 246 293 348
#     4  10  19  35  58  84 120 148 182 245 311 348
#     4  11  21  34  57  93 116 140 188 252 311 342
#
# _framework density 24.35501
#
# number of rings (size 3 to 8) (size 9 to 14) (size 15 to 20)
#    0.000    2.333    1.667    1.000    0.000    4.667 
#    0.000    7.500    0.000    1.000    0.000    3.500 
#    0.000    0.000    0.000    0.000    0.000    0.000 
#
# Total GULP energy -267755.845294 kJ/mol
# GULP energy per Si atom -5578.246777 kJ/mol
# Density = 2.429958 g / cm^3
# Si number density = 24.355010 Si / 1000 Ang^3
#
#
#
# Elastic Constant Matrix: (Units=GPa)
#
#
# Indices 1 2 3 4 5 6 
#
# 1 60.6554 37.7054 10.5720 0.0000 0.0000 0.0000
# 2 37.7054 217.5473 18.7060 0.0000 0.0000 0.0000
# 3 10.5720 18.7060 49.1925 0.0000 0.0000 0.0000
# 4 0.0000 0.0000 0.0000 28.8048 0.0000 0.0000
# 5 0.0000 0.0000 0.0000 0.0000 7.9837 0.0000
# 6 0.0000 0.0000 0.0000 0.0000 0.0000 18.8380
#
#
#
# Elastic Compliance Matrix: (Units=1/GPa)
#
#
# Indices 1 2 3 4 5 6 
#
# 1 0.018871 -0.003021 -0.002907 0.000000 0.000000 0.000000
# 2 -0.003021 0.005236 -0.001342 0.000000 0.000000 0.000000
# 3 -0.002907 -0.001342 0.021463 0.000000 0.000000 0.000000
# 4 0.000000 0.000000 0.000000 0.034716 0.000000 0.000000
# 5 0.000000 0.000000 0.000000 0.000000 0.125255 0.000000
# 6 0.000000 0.000000 0.000000 0.000000 0.000000 0.053084
#
#
# Mechanical properties :
#
#
# Convention : Reuss Voigt Hill
#
# Bulk Modulus (GPa) = 32.22573 51.26244 41.74409
# Shear Modulus (GPa) = 17.63616 28.48608 23.06112
#
# Velocity S-wave (km/s) = 2.69388 3.42368 3.08047
# Velocity P-wave (km/s) = 4.78920 6.05991 5.46163
#
# Compressibility (1/GPa) = 0.03103111
#
# Stress axis : x y z
#
# Youngs Moduli (GPa) = 52.99118 190.99888 46.59127
#
# Poissons Ratio (x) = 0.57697 0.13544
# Poissons Ratio (y) = 0.16007 0.06251
# Poissons Ratio (z) = 0.15404 0.25626
#
# Static dielectric constant tensor:
#      x y z
#    x 1.876460 0.000000 0.000000 
#    y 0.000000 2.091330 0.000000 
#    z 0.000000 0.000000 1.922110 
# 
# From -- ./inp_files/33315.got.cif
#   From: 2010.05.17/outbox.cif.g08.bks.cpg/sg64_17_cif.got.tgz:33315.got - 2010.06.03 16:29:19.
