data_PCOD9477960
_publ_section_title
;
Structure prediction by ZEFSAII (Michael W. Deem and Ramdas Pophale) SiO2 
 PCOD9477960
Probable space group: C M C A
;
_chemical_formula_sum "Si O2"
_cell_formula_units_Z 64
_cell_length_a 33.040114
_cell_length_b 5.415186
_cell_length_c 14.641067
_cell_angle_alpha 90.000000
_cell_angle_beta 90.000000
_cell_angle_gamma 90.000000
_cell_volume 2619.555737
_symmetry_space_group_name_H-M "C M C A"
_symmetry_group_IT_number 64
_symmetry_cell_setting 'orthorhombic'
loop_
_space_group_symop_operation_xyz
x,y,z
-x,1/2-y,1/2+z
x,-y,-z
-x,1/2+y,1/2-z
-x,-y,-z
x,1/2+y,1/2-z
-x,y,z
x,1/2-y,1/2+z
1/2+x,1/2+y,z
1/2-x,-y,1/2+z
1/2+x,1/2-y,-z
1/2-x,y,1/2-z
1/2-x,1/2-y,-z
1/2+x,y,1/2-z
1/2-x,1/2+y,z
1/2+x,-y,1/2+z
loop_
_atom_site_type_symbol
_atom_site_label
_atom_site_fract_x
_atom_site_fract_y
_atom_site_fract_z
Si Si1 0.836817 0.748841 0.054626
Si Si2 0.047299 0.370000 0.150863
Si Si3 0.204215 0.944230 0.717374
Si Si4 0.079303 0.129764 0.858546
O O1 0.799203 0.667764 0.117043
O O2 0.874595 0.808696 0.120388
O O3 0.847555 0.500000 0.000000
O O4 0.828750 0.000000 0.000000
O O5 0.053601 0.636871 0.106622
O O6 0.068420 0.392828 0.250818
O O7 0.000000 0.317757 0.164577
O O8 0.067634 0.137067 0.102026
O O9 0.185693 0.720077 0.778200
O O10 0.250000 0.982682 0.750000
#
# Coordination Sequence:
#
# PCOD9477960 Si02
#       4
#    16  16  16  16
#     4  12  26  43  65  99 143 177 208 266 345 401
#     4  10  19  35  62  95 121 162 228 286 314 362
#     4  10  23  45  72 101 128 170 224 275 310 385
#     4  10  20  33  59  89 126 166 216 265 323 380
#
# _framework density 24.431623999999999
#
# number of rings (size 3 to 8) (size 9 to 14) (size 15 to 20)
#    0.000    1.500    0.000    6.750    7.000    0.000 
#    0.000   15.000    0.000   25.500    0.000    0.000 
#    0.000    0.000    0.000    0.000    0.000    0.000 
#
# Total GULP energy -178797.009727 kJ/mol
# GULP energy per Si atom -5587.406554 kJ/mol
# Density = 2.437602 g / cm^3
# Si number density = 24.431624 Si / 1000 Ang^3
#
#
#
# Elastic Constant Matrix: (Units=GPa)
#
#
# Indices 1 2 3 4 5 6 
#
# 1 69.7122 -9.0352 28.5587 0.0000 0.0000 0.0000
# 2 -9.0352 196.2742 5.6795 0.0000 0.0000 0.0000
# 3 28.5587 5.6795 38.4834 0.0000 0.0000 0.0000
# 4 0.0000 0.0000 0.0000 36.1539 0.0000 0.0000
# 5 0.0000 0.0000 0.0000 0.0000 15.1311 0.0000
# 6 0.0000 0.0000 0.0000 0.0000 0.0000 28.2530
#
#
#
# Elastic Compliance Matrix: (Units=1/GPa)
#
#
# Indices 1 2 3 4 5 6 
#
# 1 0.020999 0.001424 -0.015794 0.000000 0.000000 0.000000
# 2 0.001424 0.005213 -0.001826 0.000000 0.000000 0.000000
# 3 -0.015794 -0.001826 0.037975 0.000000 0.000000 0.000000
# 4 0.000000 0.000000 0.000000 0.027660 0.000000 0.000000
# 5 0.000000 0.000000 0.000000 0.000000 0.066089 0.000000
# 6 0.000000 0.000000 0.000000 0.000000 0.000000 0.035394
#
#
# Mechanical properties :
#
#
# Convention : Reuss Voigt Hill
#
# Bulk Modulus (GPa) = 31.45059 39.43064 35.44062
# Shear Modulus (GPa) = 21.15758 34.52540 27.84149
#
# Velocity S-wave (km/s) = 2.94597 3.76326 3.37941
# Velocity P-wave (km/s) = 4.94697 5.92090 5.45571
#
# Compressibility (1/GPa) = 0.03179590
#
# Stress axis : x y z
#
# Youngs Moduli (GPa) = 47.62033 191.81747 26.33282
#
# Poissons Ratio (x) = -0.27309 0.41590
# Poissons Ratio (y) = -0.06780 0.04808
# Poissons Ratio (z) = 0.75211 0.35025
#
# Static dielectric constant tensor:
#      x y z
#    x 1.899070 0.000000 0.000000 
#    y 0.000000 2.056910 0.000000 
#    z 0.000000 0.000000 2.495820 
# 
# From -- ./inp_files/42001.got.cif
#   From: 2010.05.17/outbox.cif.g08.bks.cpg/sg64_22_cif.got.tgz:42001.got - 2010.06.03 16:29:19.
