data_PCOD9477574
_publ_section_title
;
Structure prediction by ZEFSAII (Michael W. Deem and Ramdas Pophale) SiO2 
 PCOD9477574
Probable space group: C M C A
;
_chemical_formula_sum "Si O2"
_cell_formula_units_Z 88
_cell_length_a 24.875942
_cell_length_b 13.504319
_cell_length_c 10.456771
_cell_angle_alpha 90.000000
_cell_angle_beta 90.000000
_cell_angle_gamma 90.000000
_cell_volume 3512.770857
_symmetry_space_group_name_H-M "C M C A"
_symmetry_group_IT_number 64
_symmetry_cell_setting 'orthorhombic'
loop_
_space_group_symop_operation_xyz
x,y,z
-x,1/2-y,1/2+z
x,-y,-z
-x,1/2+y,1/2-z
-x,-y,-z
x,1/2+y,1/2-z
-x,y,z
x,1/2-y,1/2+z
1/2+x,1/2+y,z
1/2-x,-y,1/2+z
1/2+x,1/2-y,-z
1/2-x,y,1/2-z
1/2-x,1/2-y,-z
1/2+x,y,1/2-z
1/2-x,1/2+y,z
1/2+x,-y,1/2+z
loop_
_atom_site_type_symbol
_atom_site_label
_atom_site_fract_x
_atom_site_fract_y
_atom_site_fract_z
Si Si1 0.500000 0.633168 0.983882
Si Si2 0.217444 0.873186 0.373363
Si Si3 0.188524 0.159317 0.050674
Si Si4 0.092066 0.074851 0.189349
Si Si5 0.404349 0.924309 0.106586
Si Si6 0.905558 0.760919 0.586584
O O1 0.546884 0.593467 0.084378
O O2 0.546688 0.685989 0.897387
O O3 0.250000 0.906591 0.250000
O O4 0.203569 0.755419 0.364846
O O5 0.256805 0.882569 0.494052
O O6 0.160517 0.924994 0.390370
O O7 0.150207 0.082596 0.122510
O O8 0.151249 0.206641 0.937063
O O9 0.094629 0.159418 0.299891
O O10 0.079659 0.972691 0.260751
O O11 0.418537 0.817453 0.049278
O O12 0.425150 0.000000 0.000000
#
# Coordination Sequence:
#
# PCOD9477574 Si02
#       6
#     8  16  16  16  16  16
#     4  10  20  32  56  84 104 142 195 236 289 352
#     4  10  19  33  53  79 111 150 190 235 290 352
#     4   9  19  33  54  81 108 147 197 237 286 355
#     4  10  19  35  57  82 114 150 191 248 300 358
#     4   9  20  35  52  78 114 148 184 236 300 358
#     4   9  18  35  54  80 112 144 189 245 298 352
#
# _framework density 25.051449000000002
#
# number of rings (size 3 to 8) (size 9 to 14) (size 15 to 20)
#    0.000    2.545    0.000    1.636    0.000    3.636 
#    0.000    2.727    0.000    0.000    0.000   24.182 
#    0.000    0.000    0.000    0.000    0.000    0.000 
#
# Total GULP energy -245251.285702 kJ/mol
# GULP energy per Si atom -5573.892857 kJ/mol
# Density = 2.499443 g / cm^3
# Si number density = 25.051449 Si / 1000 Ang^3
#
#
#
# Elastic Constant Matrix: (Units=GPa)
#
#
# Indices 1 2 3 4 5 6 
#
# 1 64.2150 19.1725 2.1588 0.0000 0.0000 0.0000
# 2 19.1725 76.9815 45.3765 0.0000 0.0000 0.0000
# 3 2.1588 45.3765 70.2834 0.0000 0.0000 0.0000
# 4 0.0000 0.0000 0.0000 41.0233 0.0000 0.0000
# 5 0.0000 0.0000 0.0000 0.0000 7.2306 0.0000
# 6 0.0000 0.0000 0.0000 0.0000 0.0000 -89.5699
#
#
#
# Elastic Compliance Matrix: (Units=1/GPa)
#
#
# Indices 1 2 3 4 5 6 
#
# 1 0.017385 -0.006482 0.003651 0.000000 0.000000 0.000000
# 2 -0.006482 0.023387 -0.014900 0.000000 0.000000 0.000000
# 3 0.003651 -0.014900 0.023736 0.000000 0.000000 0.000000
# 4 0.000000 0.000000 0.000000 0.024376 0.000000 0.000000
# 5 0.000000 0.000000 0.000000 0.000000 0.138302 0.000000
# 6 0.000000 0.000000 0.000000 0.000000 0.000000 -0.011164
#
#
# Mechanical properties :
#
#
# Convention : Reuss Voigt Hill
#
# Bulk Modulus (GPa) = 34.42829 38.32173 36.37501
# Shear Modulus (GPa) = 19.14485 1.38827 10.26656
#
# Velocity S-wave (km/s) = 2.76745 0.74523 2.02659
# Velocity P-wave (km/s) = 4.89741 4.00885 4.47524
#
# Compressibility (1/GPa) = 0.02904588
#
# Stress axis : x y z
#
# Youngs Moduli (GPa) = 57.52026 42.75818 42.13025
#
# Poissons Ratio (x) = 0.27715 -0.15381
# Poissons Ratio (y) = 0.37283 0.62775
# Poissons Ratio (z) = -0.20999 0.63711
#
# Static dielectric constant tensor:
#      x y z
#    x 1.968030 0.000000 0.000000 
#    y 0.000000 2.048800 0.000000 
#    z 0.000000 0.000000 2.021360 
# 
# From -- ./inp_files/19049.got.cif
#   From: 2010.05.17/outbox.cif.g08.bks.cpg/sg64_10_cif.got.tgz:19049.got - 2010.06.03 16:29:19.
