data_PCOD9477232
_publ_section_title
;
Structure prediction by ZEFSAII (Michael W. Deem and Ramdas Pophale) SiO2 
 PCOD9477232
Probable space group: C M C A
;
_chemical_formula_sum "Si O2"
_cell_formula_units_Z 96
_cell_length_a 7.564171
_cell_length_b 22.486325
_cell_length_c 24.237515
_cell_angle_alpha 90.000000
_cell_angle_beta 90.000000
_cell_angle_gamma 90.000000
_cell_volume 4122.568802
_symmetry_space_group_name_H-M "C M C A"
_symmetry_group_IT_number 64
_symmetry_cell_setting 'orthorhombic'
loop_
_space_group_symop_operation_xyz
x,y,z
-x,1/2-y,1/2+z
x,-y,-z
-x,1/2+y,1/2-z
-x,-y,-z
x,1/2+y,1/2-z
-x,y,z
x,1/2-y,1/2+z
1/2+x,1/2+y,z
1/2-x,-y,1/2+z
1/2+x,1/2-y,-z
1/2-x,y,1/2-z
1/2-x,1/2-y,-z
1/2+x,y,1/2-z
1/2-x,1/2+y,z
1/2+x,-y,1/2+z
loop_
_atom_site_type_symbol
_atom_site_label
_atom_site_fract_x
_atom_site_fract_y
_atom_site_fract_z
Si Si1 0.208971 0.355331 0.186508
Si Si2 0.211801 0.410203 0.685836
Si Si3 0.203872 0.909664 0.018398
Si Si4 0.216650 0.342498 0.582666
Si Si5 0.205798 0.974103 0.123735
Si Si6 0.786334 0.789094 0.419774
O O1 0.250000 0.344335 0.250000
O O2 0.290024 0.416084 0.162777
O O3 0.257808 0.303033 0.144182
O O4 0.000000 0.363773 0.181387
O O5 0.250000 0.404186 0.750000
O O6 0.269433 0.357747 0.644924
O O7 0.281933 0.471106 0.658119
O O8 0.000000 0.412554 0.682429
O O9 0.282995 0.954009 0.064221
O O10 0.208794 0.844272 0.046692
O O11 0.000000 0.927327 0.010443
O O12 0.279124 0.894841 0.958297
O O13 0.275688 0.276790 0.565171
O O14 0.000000 0.341886 0.580055
O O15 0.000000 0.988112 0.112770
O O16 0.000000 0.791615 0.425980
#
# Coordination Sequence:
#
# PCOD9477232 Si02
#       6
#    16  16  16  16  16  16
#     4  10  19  30  47  70  96 127 163 204 247 288
#     4  10  21  36  52  71  98 132 167 201 239 285
#     4   9  17  31  53  78 100 124 158 200 244 290
#     4   9  18  33  52  73  99 130 162 198 240 287
#     4   9  18  32  51  75  99 124 159 202 246 291
#     4   9  18  32  49  71 100 131 160 196 245 292
#
# _framework density 23.286451
#
# number of rings (size 3 to 8) (size 9 to 14) (size 15 to 20)
#    0.000    2.667    0.000    1.500    0.000    4.000 
#    0.000    5.000    0.000    0.000    0.000    5.833 
#    0.000    0.000    0.000    0.000    0.000    0.000 
#
# Total GULP energy -267969.953165 kJ/mol
# GULP energy per Si atom -5582.707358 kJ/mol
# Density = 2.323345 g / cm^3
# Si number density = 23.286451 Si / 1000 Ang^3
#
#
#
# Elastic Constant Matrix: (Units=GPa)
#
#
# Indices 1 2 3 4 5 6 
#
# 1 55.5778 3.5766 -0.9354 0.0000 0.0000 0.0000
# 2 3.5766 68.9563 26.7552 0.0000 0.0000 0.0000
# 3 -0.9354 26.7552 140.6369 0.0000 0.0000 0.0000
# 4 0.0000 0.0000 0.0000 20.2574 0.0000 0.0000
# 5 0.0000 0.0000 0.0000 0.0000 4.6569 0.0000
# 6 0.0000 0.0000 0.0000 0.0000 0.0000 7.9504
#
#
#
# Elastic Compliance Matrix: (Units=1/GPa)
#
#
# Indices 1 2 3 4 5 6 
#
# 1 0.018067 -0.001062 0.000322 0.000000 0.000000 0.000000
# 2 -0.001062 0.015720 -0.002998 0.000000 0.000000 0.000000
# 3 0.000322 -0.002998 0.007683 0.000000 0.000000 0.000000
# 4 0.000000 0.000000 0.000000 0.049365 0.000000 0.000000
# 5 0.000000 0.000000 0.000000 0.000000 0.214733 0.000000
# 6 0.000000 0.000000 0.000000 0.000000 0.000000 0.125779
#
#
# Mechanical properties :
#
#
# Convention : Reuss Voigt Hill
#
# Bulk Modulus (GPa) = 29.41651 35.99596 32.70623
# Shear Modulus (GPa) = 11.10733 22.29127 16.69930
#
# Velocity S-wave (km/s) = 2.18637 3.09732 2.68082
# Velocity P-wave (km/s) = 4.36274 5.31815 4.86396
#
# Compressibility (1/GPa) = 0.03399452
#
# Stress axis : x y z
#
# Youngs Moduli (GPa) = 55.35084 63.61262 130.15845
#
# Poissons Ratio (x) = 0.06756 -0.04194
# Poissons Ratio (y) = 0.05879 0.39018
# Poissons Ratio (z) = -0.01783 0.19069
#
# Static dielectric constant tensor:
#      x y z
#    x 7.099250 0.000000 0.000000 
#    y 0.000000 1.865360 0.000000 
#    z 0.000000 0.000000 1.913310 
# 
# From -- ./inp_files/42980.got.cif
#   From: 2010.05.17/outbox.cif.g08.bks.cpg/sg64_22_cif.got.tgz:42980.got - 2010.06.03 16:29:19.
