data_PCOD9477291
_publ_section_title
;
Structure prediction by ZEFSAII (Michael W. Deem and Ramdas Pophale) SiO2 
 PCOD9477291
Probable space group: C M C A
;
_chemical_formula_sum "Si O2"
_cell_formula_units_Z 96
_cell_length_a 8.934103
_cell_length_b 20.722255
_cell_length_c 30.748328
_cell_angle_alpha 90.000000
_cell_angle_beta 90.000000
_cell_angle_gamma 90.000000
_cell_volume 5692.584342
_symmetry_space_group_name_H-M "C M C A"
_symmetry_group_IT_number 64
_symmetry_cell_setting 'orthorhombic'
loop_
_space_group_symop_operation_xyz
x,y,z
-x,1/2-y,1/2+z
x,-y,-z
-x,1/2+y,1/2-z
-x,-y,-z
x,1/2+y,1/2-z
-x,y,z
x,1/2-y,1/2+z
1/2+x,1/2+y,z
1/2-x,-y,1/2+z
1/2+x,1/2-y,-z
1/2-x,y,1/2-z
1/2-x,1/2-y,-z
1/2+x,y,1/2-z
1/2-x,1/2+y,z
1/2+x,-y,1/2+z
loop_
_atom_site_type_symbol
_atom_site_label
_atom_site_fract_x
_atom_site_fract_y
_atom_site_fract_z
Si Si1 0.180547 0.383128 0.888935
Si Si2 0.321821 0.306414 0.029095
Si Si3 0.173409 0.762600 0.205316
Si Si4 0.179088 0.759625 0.385450
Si Si5 0.321961 0.064187 0.473929
Si Si6 0.328630 0.394597 0.706092
O O1 0.255134 0.312452 0.893397
O O2 0.230213 0.411393 0.841977
O O3 0.000000 0.375476 0.887871
O O4 0.232277 0.425252 0.929516
O O5 0.500000 0.295680 0.033310
O O6 0.244891 0.303095 0.076061
O O7 0.297438 0.373667 0.004456
O O8 0.250000 0.250000 0.000000
O O9 0.250000 0.784834 0.250000
O O10 0.262474 0.781032 0.161900
O O11 0.175632 0.683958 0.206392
O O12 0.000000 0.782104 0.202819
O O13 0.000000 0.757365 0.386736
O O14 0.500000 0.061270 0.464066
O O15 0.280163 0.000000 0.500000
O O16 0.500000 0.415145 0.708357
O O17 0.250000 0.417211 0.750000
#
# Coordination Sequence:
#
# PCOD9477291 Si02
#       6
#    16  16  16  16  16  16
#     4  10  19  31  48  71 100 132 169 210 256 305
#     4  11  21  34  53  76 102 132 170 213 256 309
#     4   9  16  27  42  65  98 133 167 206 254 308
#     4  11  20  30  47  72 101 135 172 212 257 305
#     4  10  22  38  54  74 101 135 173 212 260 315
#     4   8  15  25  39  63  93 125 159 198 242 293
#
# _framework density 16.864045000000001
#
# number of rings (size 3 to 8) (size 9 to 14) (size 15 to 20)
#    0.000    2.167    1.667    4.000    0.000    5.667 
#    0.000    0.000    0.000    0.000    0.000    1.167 
#    0.000    2.667    0.000    0.000    0.000    0.000 
#
# Total GULP energy -267651.794168 kJ/mol
# GULP energy per Si atom -5576.079045 kJ/mol
# Density = 1.682566 g / cm^3
# Si number density = 16.864045 Si / 1000 Ang^3
#
#
#
# Elastic Constant Matrix: (Units=GPa)
#
#
# Indices 1 2 3 4 5 6 
#
# 1 104.1113 34.5171 81.7248 0.0000 0.0000 0.0000
# 2 34.5171 43.2632 36.5018 0.0000 0.0000 0.0000
# 3 81.7248 36.5018 179.8116 0.0000 0.0000 0.0000
# 4 0.0000 0.0000 0.0000 12.0738 0.0000 0.0000
# 5 0.0000 0.0000 0.0000 0.0000 36.4171 0.0000
# 6 0.0000 0.0000 0.0000 0.0000 0.0000 12.1712
#
#
#
# Elastic Compliance Matrix: (Units=1/GPa)
#
#
# Indices 1 2 3 4 5 6 
#
# 1 0.017240 -0.008620 -0.006086 0.000000 0.000000 0.000000
# 2 -0.008620 0.032202 -0.002619 0.000000 0.000000 0.000000
# 3 -0.006086 -0.002619 0.008859 0.000000 0.000000 0.000000
# 4 0.000000 0.000000 0.000000 0.082824 0.000000 0.000000
# 5 0.000000 0.000000 0.000000 0.000000 0.027460 0.000000
# 6 0.000000 0.000000 0.000000 0.000000 0.000000 0.082161
#
#
# Mechanical properties :
#
#
# Convention : Reuss Voigt Hill
#
# Bulk Modulus (GPa) = 42.28197 70.29706 56.28951
# Shear Modulus (GPa) = 17.04860 23.76192 20.40526
#
# Velocity S-wave (km/s) = 3.18298 3.75777 3.48226
# Velocity P-wave (km/s) = 6.21572 7.78479 7.04408
#
# Compressibility (1/GPa) = 0.02365074
#
# Stress axis : x y z
#
# Youngs Moduli (GPa) = 58.00361 31.05433 112.87869
#
# Poissons Ratio (x) = 0.26770 0.68696
# Poissons Ratio (y) = 0.50001 0.29563
# Poissons Ratio (z) = 0.35300 0.08133
#
# Static dielectric constant tensor:
#      x y z
#    x 1.569800 0.000000 0.000000 
#    y 0.000000 1.538440 0.000000 
#    z 0.000000 0.000000 1.597550 
# 
# From -- ./inp_files/48063.got.cif
#   From: 2010.05.17/outbox.cif.g08.bks.cpg/sg64_25_cif.got.tgz:48063.got - 2010.06.03 16:29:19.
