data_PCOD9477932
_publ_section_title
;
Structure prediction by ZEFSAII (Michael W. Deem and Ramdas Pophale) SiO2 
 PCOD9477932
Probable space group: C M C A
;
_chemical_formula_sum "Si O2"
_cell_formula_units_Z 80
_cell_length_a 7.543812
_cell_length_b 25.811790
_cell_length_c 18.494046
_cell_angle_alpha 90.000000
_cell_angle_beta 90.000000
_cell_angle_gamma 90.000000
_cell_volume 3601.147527
_symmetry_space_group_name_H-M "C M C A"
_symmetry_group_IT_number 64
_symmetry_cell_setting 'orthorhombic'
loop_
_space_group_symop_operation_xyz
x,y,z
-x,1/2-y,1/2+z
x,-y,-z
-x,1/2+y,1/2-z
-x,-y,-z
x,1/2+y,1/2-z
-x,y,z
x,1/2-y,1/2+z
1/2+x,1/2+y,z
1/2-x,-y,1/2+z
1/2+x,1/2-y,-z
1/2-x,y,1/2-z
1/2-x,1/2-y,-z
1/2+x,y,1/2-z
1/2-x,1/2+y,z
1/2+x,-y,1/2+z
loop_
_atom_site_type_symbol
_atom_site_label
_atom_site_fract_x
_atom_site_fract_y
_atom_site_fract_z
Si Si1 0.211445 0.667459 0.165743
Si Si2 0.217437 0.615391 0.587983
Si Si3 0.795708 0.927562 0.935014
Si Si4 0.212376 0.983530 0.167913
Si Si5 0.787716 0.232477 0.918039
O O1 0.250000 0.661716 0.250000
O O2 0.208874 0.621075 0.381023
O O3 0.277896 0.722562 0.135236
O O4 0.000000 0.664995 0.154829
O O5 0.278915 0.591390 0.511391
O O6 0.272173 0.574619 0.649209
O O7 0.279942 0.674400 0.595514
O O8 0.000000 0.617390 0.586498
O O9 0.716334 0.975934 0.891424
O O10 0.000000 0.941352 0.950935
O O11 0.250000 0.998987 0.250000
O O12 0.000000 0.984145 0.160900
O O13 0.000000 0.230447 0.909742
O O14 0.750000 0.250000 0.000000
#
# Coordination Sequence:
#
# PCOD9477932 Si02
#       5
#    16  16  16  16  16
#     4  11  23  36  54  83 115 147 184 226 274 329
#     4   9  18  35  59  82 107 142 185 227 273 330
#     4  10  19  35  60  83 107 143 185 231 277 325
#     4  10  21  36  55  81 111 145 185 226 275 331
#     4  10  20  36  58  82 109 142 183 228 273 324
#
# _framework density 22.215142
#
# number of rings (size 3 to 8) (size 9 to 14) (size 15 to 20)
#    0.000    2.000    2.000    1.800    0.000    6.400 
#    0.000    2.000    0.000    2.400    0.000    0.000 
#    0.000    0.000    0.000    0.000    0.000    0.000 
#
# Total GULP energy -223519.192731 kJ/mol
# GULP energy per Si atom -5587.979818 kJ/mol
# Density = 2.216458 g / cm^3
# Si number density = 22.215142 Si / 1000 Ang^3
#
#
#
# Elastic Constant Matrix: (Units=GPa)
#
#
# Indices 1 2 3 4 5 6 
#
# 1 57.8709 3.0877 -10.4921 0.0000 0.0000 0.0000
# 2 3.0877 126.2122 -6.1815 0.0000 0.0000 0.0000
# 3 -10.4921 -6.1815 44.9754 0.0000 0.0000 0.0000
# 4 0.0000 0.0000 0.0000 19.1537 0.0000 0.0000
# 5 0.0000 0.0000 0.0000 0.0000 16.7069 0.0000
# 6 0.0000 0.0000 0.0000 0.0000 0.0000 20.6032
#
#
#
# Elastic Compliance Matrix: (Units=1/GPa)
#
#
# Indices 1 2 3 4 5 6 
#
# 1 0.018050 -0.000237 0.004178 0.000000 0.000000 0.000000
# 2 -0.000237 0.007980 0.001042 0.000000 0.000000 0.000000
# 3 0.004178 0.001042 0.023352 0.000000 0.000000 0.000000
# 4 0.000000 0.000000 0.000000 0.052209 0.000000 0.000000
# 5 0.000000 0.000000 0.000000 0.000000 0.059856 0.000000
# 6 0.000000 0.000000 0.000000 0.000000 0.000000 0.048536
#
#
# Mechanical properties :
#
#
# Convention : Reuss Voigt Hill
#
# Bulk Modulus (GPa) = 16.84980 22.43184 19.64082
# Shear Modulus (GPa) = 22.74794 27.46906 25.10850
#
# Velocity S-wave (km/s) = 3.20345 3.52021 3.36556
# Velocity P-wave (km/s) = 4.61346 5.16158 4.89520
#
# Compressibility (1/GPa) = 0.05934787
#
# Stress axis : x y z
#
# Youngs Moduli (GPa) = 55.40164 125.31376 42.82240
#
# Poissons Ratio (x) = 0.02969 -0.17892
# Poissons Ratio (y) = 0.01313 -0.04460
# Poissons Ratio (z) = -0.23148 -0.13052
#
# Static dielectric constant tensor:
#      x y z
#    x 1.910690 0.000000 0.000000 
#    y 0.000000 1.824750 0.000000 
#    z 0.000000 0.000000 1.803700 
# 
# From -- ./inp_files/22307.got.cif
#   From: 2010.05.17/outbox.cif.g08.bks.cpg/sg64_12_cif.got.tgz:22307.got - 2010.06.03 16:29:19.
