data_PCOD9477483
_publ_section_title
;
Structure prediction by ZEFSAII (Michael W. Deem and Ramdas Pophale) SiO2 
 PCOD9477483
Probable space group: C M C A
;
_chemical_formula_sum "Si O2"
_cell_formula_units_Z 116
_cell_length_a 7.473272
_cell_length_b 29.751228
_cell_length_c 21.421975
_cell_angle_alpha 90.000000
_cell_angle_beta 90.000000
_cell_angle_gamma 90.000000
_cell_volume 4762.940910
_symmetry_space_group_name_H-M "C M C A"
_symmetry_group_IT_number 64
_symmetry_cell_setting 'orthorhombic'
loop_
_space_group_symop_operation_xyz
x,y,z
-x,1/2-y,1/2+z
x,-y,-z
-x,1/2+y,1/2-z
-x,-y,-z
x,1/2+y,1/2-z
-x,y,z
x,1/2-y,1/2+z
1/2+x,1/2+y,z
1/2-x,-y,1/2+z
1/2+x,1/2-y,-z
1/2-x,y,1/2-z
1/2-x,1/2-y,-z
1/2+x,y,1/2-z
1/2-x,1/2+y,z
1/2+x,-y,1/2+z
loop_
_atom_site_type_symbol
_atom_site_label
_atom_site_fract_x
_atom_site_fract_y
_atom_site_fract_z
Si Si1 0.282641 0.775785 0.082817
Si Si2 0.701374 0.577030 0.911710
Si Si3 0.207161 0.847346 0.511448
Si Si4 0.500000 0.500000 0.500000
Si Si5 0.215326 0.705194 0.318614
Si Si6 0.788821 0.146822 0.679124
Si Si7 0.798054 0.613394 0.356723
Si Si8 0.217344 0.024874 0.087436
O O1 0.500000 0.774189 0.078264
O O2 0.221843 0.800028 0.018327
O O3 0.220972 0.731015 0.118890
O O4 0.231341 0.812656 0.134995
O O5 0.500000 0.570747 0.935562
O O6 0.784467 0.615097 0.956506
O O7 0.700550 0.601377 0.844978
O O8 0.775375 0.526843 0.900437
O O9 0.301837 0.867424 0.572035
O O10 0.000000 0.841058 0.527519
O O11 0.659817 0.466471 0.527259
O O12 0.250000 0.725609 0.250000
O O13 0.289345 0.654374 0.319926
O O14 0.000000 0.703738 0.324710
O O15 0.750000 0.156918 0.750000
O O16 0.000000 0.141358 0.670596
O O17 0.728303 0.562754 0.362813
O O18 0.000000 0.608568 0.333054
O O19 0.000000 0.027469 0.079266
#
# Coordination Sequence:
#
# PCOD9477483 Si02
#       8
#    16  16  16   4  16  16  16  16
#     4   8  17  34  55  83 115 146 184 237 293 354
#     4  10  20  35  54  77 115 154 191 236 289 349
#     4  10  20  33  54  85 119 148 184 232 286 356
#     4  12  22  32  64  86 112 160 190 240 292 352
#     4  10  21  40  63  82 108 150 197 247 299 341
#     4  10  19  32  53  81 114 147 190 241 293 354
#     4  10  22  39  56  80 118 155 192 240 295 351
#     4  10  23  38  54  86 123 158 202 246 293 352
#
# _framework density 24.354702
#
# number of rings (size 3 to 8) (size 9 to 14) (size 15 to 20)
#    0.000    2.207    0.000    3.517    4.828    3.310 
#    0.000    4.138    0.000    1.655    0.000    0.000 
#    0.000    0.000    0.000    0.000    0.000    0.000 
#
# Total GULP energy -323056.889254 kJ/mol
# GULP energy per Si atom -5569.946366 kJ/mol
# Density = 2.429927 g / cm^3
# Si number density = 24.354702 Si / 1000 Ang^3
#
#
#
# Elastic Constant Matrix: (Units=GPa)
#
#
# Indices 1 2 3 4 5 6 
#
# 1 87.4630 10.2678 -6.3080 0.0000 0.0000 0.0000
# 2 10.2678 140.1714 4.0178 0.0000 0.0000 0.0000
# 3 -6.3080 4.0178 68.9526 0.0000 0.0000 0.0000
# 4 0.0000 0.0000 0.0000 25.4976 0.0000 0.0000
# 5 0.0000 0.0000 0.0000 0.0000 31.5022 0.0000
# 6 0.0000 0.0000 0.0000 0.0000 0.0000 5.0258
#
#
#
# Elastic Compliance Matrix: (Units=1/GPa)
#
#
# Indices 1 2 3 4 5 6 
#
# 1 0.011617 -0.000883 0.001114 0.000000 0.000000 0.000000
# 2 -0.000883 0.007213 -0.000501 0.000000 0.000000 0.000000
# 3 0.001114 -0.000501 0.014634 0.000000 0.000000 0.000000
# 4 0.000000 0.000000 0.000000 0.039219 0.000000 0.000000
# 5 0.000000 0.000000 0.000000 0.000000 0.031744 0.000000
# 6 0.000000 0.000000 0.000000 0.000000 0.000000 0.198975
#
#
# Mechanical properties :
#
#
# Convention : Reuss Voigt Hill
#
# Bulk Modulus (GPa) = 30.37214 34.72690 32.54952
# Shear Modulus (GPa) = 15.87722 31.64575 23.76148
#
# Velocity S-wave (km/s) = 2.55603 3.60859 3.12692
# Velocity P-wave (km/s) = 4.60531 5.62604 5.14107
#
# Compressibility (1/GPa) = 0.03292492
#
# Stress axis : x y z
#
# Youngs Moduli (GPa) = 86.07765 138.63543 68.33469
#
# Poissons Ratio (x) = 0.12241 -0.07614
# Poissons Ratio (y) = 0.07600 0.03424
# Poissons Ratio (z) = -0.09591 0.06947
#
# Static dielectric constant tensor:
#      x y z
#    x 1.999870 0.000000 0.000000 
#    y 0.000000 2.032140 0.000000 
#    z 0.000000 0.000000 2.012210 
# 
# From -- ./inp_files/43582.got.cif
#   From: 2010.05.17/outbox.cif.g08.bks.cpg/sg64_22_cif.got.tgz:43582.got - 2010.06.03 16:29:19.
