data_PCOD9477457
_publ_section_title
;
Structure prediction by ZEFSAII (Michael W. Deem and Ramdas Pophale) SiO2 
 PCOD9477457
Probable space group: C M C A
;
_chemical_formula_sum "Si O2"
_cell_formula_units_Z 116
_cell_length_a 7.453578
_cell_length_b 29.803432
_cell_length_c 21.460608
_cell_angle_alpha 90.000000
_cell_angle_beta 90.000000
_cell_angle_gamma 90.000000
_cell_volume 4767.306783
_symmetry_space_group_name_H-M "C M C A"
_symmetry_group_IT_number 64
_symmetry_cell_setting 'orthorhombic'
loop_
_space_group_symop_operation_xyz
x,y,z
-x,1/2-y,1/2+z
x,-y,-z
-x,1/2+y,1/2-z
-x,-y,-z
x,1/2+y,1/2-z
-x,y,z
x,1/2-y,1/2+z
1/2+x,1/2+y,z
1/2-x,-y,1/2+z
1/2+x,1/2-y,-z
1/2-x,y,1/2-z
1/2-x,1/2-y,-z
1/2+x,y,1/2-z
1/2-x,1/2+y,z
1/2+x,-y,1/2+z
loop_
_atom_site_type_symbol
_atom_site_label
_atom_site_fract_x
_atom_site_fract_y
_atom_site_fract_z
Si Si1 0.297815 0.772898 0.078621
Si Si2 0.713432 0.576729 0.896194
Si Si3 0.213274 0.851234 0.505411
Si Si4 0.500000 0.500000 0.500000
Si Si5 0.216228 0.706727 0.319161
Si Si6 0.712382 0.156011 0.679647
Si Si7 0.796644 0.614675 0.358390
Si Si8 0.218356 0.024967 0.088561
O O1 0.500000 0.760563 0.060813
O O2 0.221439 0.802619 0.021340
O O3 0.212505 0.732938 0.119581
O O4 0.306686 0.810509 0.132854
O O5 0.500000 0.571132 0.896089
O O6 0.753860 0.610969 0.952621
O O7 0.769977 0.605377 0.836244
O O8 0.781735 0.525779 0.895687
O O9 0.296767 0.867497 0.569993
O O10 0.000000 0.847393 0.514126
O O11 0.659840 0.467081 0.528204
O O12 0.250000 0.725834 0.250000
O O13 0.288630 0.655811 0.321460
O O14 0.000000 0.706356 0.326624
O O15 0.500000 0.159645 0.667064
O O16 0.750000 0.167253 0.750000
O O17 0.730008 0.563719 0.362728
O O18 0.000000 0.610672 0.335542
O O19 0.000000 0.026959 0.078272
#
# Coordination Sequence:
#
# PCOD9477457 Si02
#       8
#    16  16  16   4  16  16  16  16
#     4   9  19  36  56  82 114 145 183 235 292 350
#     4   9  19  35  53  75 111 154 190 226 283 349
#     4  10  20  32  53  85 118 146 179 230 285 345
#     4  12  22  32  60  90 112 152 194 236 284 352
#     4  10  22  41  62  82 107 147 197 246 293 340
#     4  10  19  32  52  79 110 146 187 234 291 349
#     4  10  22  39  57  79 115 155 191 234 293 352
#     4  10  22  38  55  83 122 159 197 242 291 346
#
# _framework density 24.332397
#
# number of rings (size 3 to 8) (size 9 to 14) (size 15 to 20)
#    0.000    2.207    0.000    2.276    3.862    6.069 
#    0.000    0.690    0.000    0.000    0.000    0.000 
#    0.000    0.000    0.000    0.000    0.000    0.000 
#
# Total GULP energy -323146.136669 kJ/mol
# GULP energy per Si atom -5571.485115 kJ/mol
# Density = 2.427702 g / cm^3
# Si number density = 24.332397 Si / 1000 Ang^3
#
#
#
# Elastic Constant Matrix: (Units=GPa)
#
#
# Indices 1 2 3 4 5 6 
#
# 1 96.2886 19.2097 -3.3584 0.0000 0.0000 0.0000
# 2 19.2097 162.4242 18.5480 0.0000 0.0000 0.0000
# 3 -3.3584 18.5480 67.2756 0.0000 0.0000 0.0000
# 4 0.0000 0.0000 0.0000 24.2561 0.0000 0.0000
# 5 0.0000 0.0000 0.0000 0.0000 -650.2884 0.0000
# 6 0.0000 0.0000 0.0000 0.0000 0.0000 -3.3391
#
#
#
# Elastic Compliance Matrix: (Units=1/GPa)
#
#
# Indices 1 2 3 4 5 6 
#
# 1 0.010690 -0.001368 0.000911 0.000000 0.000000 0.000000
# 2 -0.001368 0.006532 -0.001869 0.000000 0.000000 0.000000
# 3 0.000911 -0.001869 0.015425 0.000000 0.000000 0.000000
# 4 0.000000 0.000000 0.000000 0.041227 0.000000 0.000000
# 5 0.000000 0.000000 0.000000 0.000000 -0.001538 0.000000
# 6 0.000000 0.000000 0.000000 0.000000 0.000000 -0.299480
#
#
# Mechanical properties :
#
#
# Convention : Reuss Voigt Hill
#
# Bulk Modulus (GPa) = 35.72192 43.86523 39.79357
# Shear Modulus (GPa) = -23.45663 -106.43502 -64.94583
#
# Velocity S-wave (km/s) = -3.10822 -6.62096 -5.17195
# Velocity P-wave (km/s) = 1.35327 6.35474 4.39041
#
# Compressibility (1/GPa) = 0.02799402
#
# Stress axis : x y z
#
# Youngs Moduli (GPa) = 93.54359 153.09240 64.82959
#
# Poissons Ratio (x) = 0.20948 -0.05905
# Poissons Ratio (y) = 0.12800 0.12118
# Poissons Ratio (z) = -0.08521 0.28616
#
# Static dielectric constant tensor:
#      x y z
#    x 1.904360 0.000000 0.000000 
#    y 0.000000 2.049950 0.000000 
#    z 0.000000 0.000000 1.985930 
# 
# From -- ./inp_files/43581.got.cif
#   From: 2010.05.17/outbox.cif.g08.bks.cpg/sg64_22_cif.got.tgz:43581.got - 2010.06.03 16:29:19.
