data_PCOD9477691
_publ_section_title
;
Structure prediction by ZEFSAII (Michael W. Deem and Ramdas Pophale) SiO2 
 PCOD9477691
Probable space group: C M C A
;
_chemical_formula_sum "Si O2"
_cell_formula_units_Z 96
_cell_length_a 15.876594
_cell_length_b 18.787611
_cell_length_c 14.199394
_cell_angle_alpha 90.000000
_cell_angle_beta 90.000000
_cell_angle_gamma 90.000000
_cell_volume 4235.441704
_symmetry_space_group_name_H-M "C M C A"
_symmetry_group_IT_number 64
_symmetry_cell_setting 'orthorhombic'
loop_
_space_group_symop_operation_xyz
x,y,z
-x,1/2-y,1/2+z
x,-y,-z
-x,1/2+y,1/2-z
-x,-y,-z
x,1/2+y,1/2-z
-x,y,z
x,1/2-y,1/2+z
1/2+x,1/2+y,z
1/2-x,-y,1/2+z
1/2+x,1/2-y,-z
1/2-x,y,1/2-z
1/2-x,1/2-y,-z
1/2+x,y,1/2-z
1/2-x,1/2+y,z
1/2+x,-y,1/2+z
loop_
_atom_site_type_symbol
_atom_site_label
_atom_site_fract_x
_atom_site_fract_y
_atom_site_fract_z
Si Si1 0.911939 0.352366 0.317714
Si Si2 0.223060 0.501714 0.113014
Si Si3 0.352848 0.353367 0.388163
Si Si4 0.096756 0.618327 0.093678
Si Si5 0.092221 0.512629 0.386758
Si Si6 0.724123 0.244647 0.140702
O O1 0.904810 0.341198 0.206227
O O2 0.909982 0.435148 0.340114
O O3 0.839300 0.310319 0.367979
O O4 0.000000 0.322348 0.353206
O O5 0.209150 0.419475 0.140642
O O6 0.138905 0.546430 0.134516
O O7 0.312812 0.537686 0.141800
O O8 0.227567 0.500000 0.000000
O O9 0.401672 0.380947 0.479478
O O10 0.306143 0.278044 0.410077
O O11 0.168554 0.676610 0.116480
O O12 0.000000 0.629188 0.124960
O O13 0.092990 0.500000 0.500000
O O14 0.000000 0.547912 0.365467
O O15 0.750000 0.237710 0.250000
#
# Coordination Sequence:
#
# PCOD9477691 Si02
#       6
#    16  16  16  16  16  16
#     4  10  19  33  60  89 117 154 208 263 305 365
#     4   9  19  35  58  84 117 155 196 253 304 363
#     4  10  20  37  61  87 119 157 212 258 309 363
#     4  11  23  39  61  88 124 165 204 253 317 379
#     4   9  17  32  55  86 120 156 196 246 305 364
#     4  10  21  39  59  85 118 164 205 259 316 374
#
# _framework density 22.665876000000001
#
# number of rings (size 3 to 8) (size 9 to 14) (size 15 to 20)
#    0.000    2.167    1.667    1.500    0.000    3.667 
#    3.000    0.000    0.000    4.000    0.000    0.000 
#    0.000    0.000    0.000    0.000    0.000    0.000 
#
# Total GULP energy -267276.998678 kJ/mol
# GULP energy per Si atom -5568.270806 kJ/mol
# Density = 2.261429 g / cm^3
# Si number density = 22.665876 Si / 1000 Ang^3
#
#
#
# Elastic Constant Matrix: (Units=GPa)
#
#
# Indices 1 2 3 4 5 6 
#
# 1 130.4173 27.3383 6.3517 0.0000 0.0000 0.0000
# 2 27.3383 73.0942 -2.8062 0.0000 0.0000 0.0000
# 3 6.3517 -2.8062 24.3571 0.0000 0.0000 0.0000
# 4 0.0000 0.0000 0.0000 17.4922 0.0000 0.0000
# 5 0.0000 0.0000 0.0000 0.0000 16.4022 0.0000
# 6 0.0000 0.0000 0.0000 0.0000 0.0000 24.3086
#
#
#
# Elastic Compliance Matrix: (Units=1/GPa)
#
#
# Indices 1 2 3 4 5 6 
#
# 1 0.008479 -0.003271 -0.002588 0.000000 0.000000 0.000000
# 2 -0.003271 0.015003 0.002581 0.000000 0.000000 0.000000
# 3 -0.002588 0.002581 0.042028 0.000000 0.000000 0.000000
# 4 0.000000 0.000000 0.000000 0.057168 0.000000 0.000000
# 5 0.000000 0.000000 0.000000 0.000000 0.060968 0.000000
# 6 0.000000 0.000000 0.000000 0.000000 0.000000 0.041138
#
#
# Mechanical properties :
#
#
# Convention : Reuss Voigt Hill
#
# Bulk Modulus (GPa) = 16.96173 32.18180 24.57176
# Shear Modulus (GPa) = 19.92102 24.77291 22.34696
#
# Velocity S-wave (km/s) = 2.96784 3.30958 3.14336
# Velocity P-wave (km/s) = 4.38677 5.36969 4.90292
#
# Compressibility (1/GPa) = 0.05895625
#
# Stress axis : x y z
#
# Youngs Moduli (GPa) = 117.93340 66.65157 23.79360
#
# Poissons Ratio (x) = 0.21800 0.06158
# Poissons Ratio (y) = 0.38573 -0.06142
# Poissons Ratio (z) = 0.30521 -0.17206
#
# Static dielectric constant tensor:
#      x y z
#    x 1.925960 0.000000 0.000000 
#    y 0.000000 1.834730 0.000000 
#    z 0.000000 0.000000 1.875640 
# 
# From -- ./inp_files/23884.got.cif
#   From: 2010.05.17/outbox.cif.g08.bks.cpg/sg64_12_cif.got.tgz:23884.got - 2010.06.03 16:29:19.
