data_PCOD9477138
_publ_section_title
;
Structure prediction by ZEFSAII (Michael W. Deem and Ramdas Pophale) SiO2 
 PCOD9477138
Probable space group: C M C A
;
_chemical_formula_sum "Si O2"
_cell_formula_units_Z 96
_cell_length_a 23.039330
_cell_length_b 19.921272
_cell_length_c 7.354640
_cell_angle_alpha 90.000000
_cell_angle_beta 90.000000
_cell_angle_gamma 90.000000
_cell_volume 3375.579417
_symmetry_space_group_name_H-M "C M C A"
_symmetry_group_IT_number 64
_symmetry_cell_setting 'orthorhombic'
loop_
_space_group_symop_operation_xyz
x,y,z
-x,1/2-y,1/2+z
x,-y,-z
-x,1/2+y,1/2-z
-x,-y,-z
x,1/2+y,1/2-z
-x,y,z
x,1/2-y,1/2+z
1/2+x,1/2+y,z
1/2-x,-y,1/2+z
1/2+x,1/2-y,-z
1/2-x,y,1/2-z
1/2-x,1/2-y,-z
1/2+x,y,1/2-z
1/2-x,1/2+y,z
1/2+x,-y,1/2+z
loop_
_atom_site_type_symbol
_atom_site_label
_atom_site_fract_x
_atom_site_fract_y
_atom_site_fract_z
Si Si1 0.250000 0.186137 0.250000
Si Si2 0.118816 0.084844 0.246807
Si Si3 0.000000 0.096399 0.170194
Si Si4 0.500000 0.372255 0.234530
Si Si5 0.283404 0.930828 0.480093
Si Si6 0.500000 0.721570 0.436333
Si Si7 0.871121 0.890880 0.335550
Si Si8 0.624910 0.239140 0.232465
O O1 0.258312 0.136078 0.423905
O O2 0.306204 0.228689 0.190434
O O3 0.167033 0.052126 0.127806
O O4 0.115242 0.163918 0.186364
O O5 0.057453 0.054618 0.195866
O O6 0.132020 0.915635 0.541508
O O7 0.000000 0.150125 0.331980
O O8 0.000000 0.136298 0.982106
O O9 0.500000 0.303081 0.353633
O O10 0.437737 0.406199 0.275121
O O11 0.317518 0.912873 0.293425
O O12 0.247076 0.000000 0.500000
O O13 0.433479 0.746816 0.393683
O O14 0.870723 0.809975 0.333587
#
# Coordination Sequence:
#
# PCOD9477138 Si02
#       8
#     8  16   8   8  16   8  16  16
#     4  10  26  54  76 114 158 198 260 332 404 482
#     4  10  22  42  70 110 151 199 261 318 381 476
#     4  10  18  37  66 105 159 199 254 320 384 471
#     4  12  21  37  70 112 156 215 262 302 410 469
#     4  11  27  53  75 105 148 205 270 333 393 472
#     4  10  21  40  68 111 163 205 252 315 382 497
#     4  12  24  43  76 114 158 214 254 325 400 476
#     4  10  23  43  72 115 160 200 253 317 399 477
#
# _framework density 28.439564000000001
#
# number of rings (size 3 to 8) (size 9 to 14) (size 15 to 20)
#    0.000    1.333    5.000    0.500    4.667    1.333 
#   15.000    1.667    0.000    2.000    0.000    0.583 
#    0.000    0.000    0.000    0.000    0.000    0.000 
#
# Total GULP energy -268180.976110 kJ/mol
# GULP energy per Si atom -5587.103669 kJ/mol
# Density = 2.837483 g / cm^3
# Si number density = 28.439564 Si / 1000 Ang^3
#
#
#
# Elastic Constant Matrix: (Units=GPa)
#
#
# Indices 1 2 3 4 5 6 
#
# 1 214.1905 39.1836 53.6338 0.0000 0.0000 0.0000
# 2 39.1836 137.3427 38.5516 0.0000 0.0000 0.0000
# 3 53.6338 38.5516 164.7764 0.0000 0.0000 0.0000
# 4 0.0000 0.0000 0.0000 20.1683 0.0000 0.0000
# 5 0.0000 0.0000 0.0000 0.0000 47.4099 0.0000
# 6 0.0000 0.0000 0.0000 0.0000 0.0000 -10.0489
#
#
#
# Elastic Compliance Matrix: (Units=1/GPa)
#
#
# Indices 1 2 3 4 5 6 
#
# 1 0.005230 -0.001086 -0.001448 0.000000 0.000000 0.000000
# 2 -0.001086 0.008018 -0.001523 0.000000 0.000000 0.000000
# 3 -0.001448 -0.001523 0.006896 0.000000 0.000000 0.000000
# 4 0.000000 0.000000 0.000000 0.049583 0.000000 0.000000
# 5 0.000000 0.000000 0.000000 0.000000 0.021093 0.000000
# 6 0.000000 0.000000 0.000000 0.000000 0.000000 -0.099513
#
#
# Mechanical properties :
#
#
# Convention : Reuss Voigt Hill
#
# Bulk Modulus (GPa) = 83.11443 86.56084 84.83763
# Shear Modulus (GPa) = 1457.65430 37.16858 747.41144
#
# Velocity S-wave (km/s) = 22.66401 3.61907 16.22891
# Velocity P-wave (km/s) = 26.72386 6.92578 19.52090
#
# Compressibility (1/GPa) = 0.01203161
#
# Stress axis : x y z
#
# Youngs Moduli (GPa) = 191.20448 124.71699 145.00121
#
# Poissons Ratio (x) = 0.13539 0.21001
# Poissons Ratio (y) = 0.20756 0.22078
# Poissons Ratio (z) = 0.27693 0.18989
#
# Static dielectric constant tensor:
#      x y z
#    x 2.325750 0.000000 0.000000 
#    y 0.000000 2.582150 0.000000 
#    z 0.000000 0.000000 2.310340 
# 
# From -- ./inp_files/28032.got.cif
#   From: 2010.05.17/outbox.cif.g08.bks.cpg/sg64_15_cif.got.tgz:28032.got - 2010.06.03 16:29:19.
