data_PCOD9477494
_publ_section_title
;
Structure prediction by ZEFSAII (Michael W. Deem and Ramdas Pophale) SiO2 
 PCOD9477494
Probable space group: C M C A
;
_chemical_formula_sum "Si O2"
_cell_formula_units_Z 64
_cell_length_a 38.547438
_cell_length_b 14.443692
_cell_length_c 5.110395
_cell_angle_alpha 90.000000
_cell_angle_beta 90.000000
_cell_angle_gamma 90.000000
_cell_volume 2845.300938
_symmetry_space_group_name_H-M "C M C A"
_symmetry_group_IT_number 64
_symmetry_cell_setting 'orthorhombic'
loop_
_space_group_symop_operation_xyz
x,y,z
-x,1/2-y,1/2+z
x,-y,-z
-x,1/2+y,1/2-z
-x,-y,-z
x,1/2+y,1/2-z
-x,y,z
x,1/2-y,1/2+z
1/2+x,1/2+y,z
1/2-x,-y,1/2+z
1/2+x,1/2-y,-z
1/2-x,y,1/2-z
1/2-x,1/2-y,-z
1/2+x,y,1/2-z
1/2-x,1/2+y,z
1/2+x,-y,1/2+z
loop_
_atom_site_type_symbol
_atom_site_label
_atom_site_fract_x
_atom_site_fract_y
_atom_site_fract_z
Si Si1 0.179494 0.109016 0.049664
Si Si2 0.750000 0.683884 0.250000
Si Si3 0.426402 0.187214 0.771410
Si Si4 0.500000 0.813565 0.112735
Si Si5 0.854905 0.390316 0.046013
O O1 0.215989 0.123238 0.193587
O O2 0.151501 0.148308 0.255508
O O3 0.173120 0.146960 0.757609
O O4 0.174716 0.000000 0.000000
O O5 0.750000 0.750000 0.500000
O O6 0.425836 0.272289 0.979428
O O7 0.463387 0.138108 0.827208
O O8 0.392540 0.128549 0.836716
O O9 0.500000 0.727084 0.319428
O O10 0.850541 0.500000 0.000000
#
# Coordination Sequence:
#
# PCOD9477494 Si02
#       5
#    16   8  16   8  16
#     4  10  23  41  59  78 110 152 183 215 276 350
#     4  12  26  40  60  90 116 138 182 246 284 318
#     4  10  19  32  54  79 107 144 182 225 273 324
#     4   8  16  30  47  74 107 140 180 218 266 330
#     4  10  21  37  56  81 109 142 185 227 269 327
#
# _framework density 22.493227999999998
#
# number of rings (size 3 to 8) (size 9 to 14) (size 15 to 20)
#    0.000    2.000    0.000    3.000    0.000   10.000 
#    0.000    0.625    0.000    0.000    0.000   15.750 
#    0.000    0.000    0.000    0.000    0.000    0.000 
#
# Total GULP energy -178547.660099 kJ/mol
# GULP energy per Si atom -5579.614378 kJ/mol
# Density = 2.244203 g / cm^3
# Si number density = 22.493228 Si / 1000 Ang^3
#
#
#
# Elastic Constant Matrix: (Units=GPa)
#
#
# Indices 1 2 3 4 5 6 
#
# 1 133.0719 -11.2421 41.9235 0.0000 0.0000 0.0000
# 2 -11.2421 33.6894 16.5227 0.0000 0.0000 0.0000
# 3 41.9235 16.5227 150.1688 0.0000 0.0000 0.0000
# 4 0.0000 0.0000 0.0000 -140.5835 0.0000 0.0000
# 5 0.0000 0.0000 0.0000 0.0000 39.1636 0.0000
# 6 0.0000 0.0000 0.0000 0.0000 0.0000 13.1504
#
#
#
# Elastic Compliance Matrix: (Units=1/GPa)
#
#
# Indices 1 2 3 4 5 6 
#
# 1 0.008812 0.004384 -0.002942 0.000000 0.000000 0.000000
# 2 0.004384 0.033557 -0.004916 0.000000 0.000000 0.000000
# 3 -0.002942 -0.004916 0.008022 0.000000 0.000000 0.000000
# 4 0.000000 0.000000 0.000000 -0.007113 0.000000 0.000000
# 5 0.000000 0.000000 0.000000 0.000000 0.025534 0.000000
# 6 0.000000 0.000000 0.000000 0.000000 0.000000 0.076043
#
#
# Mechanical properties :
#
#
# Convention : Reuss Voigt Hill
#
# Bulk Modulus (GPa) = 23.01978 45.70425 34.36202
# Shear Modulus (GPa) = 30.06899 0.32783 15.19841
#
# Velocity S-wave (km/s) = 3.66020 0.38218 2.60222
# Velocity P-wave (km/s) = 5.30274 4.53409 4.93341
#
# Compressibility (1/GPa) = 0.04344091
#
# Stress axis : x y z
#
# Youngs Moduli (GPa) = 113.48067 29.80020 124.66452
#
# Poissons Ratio (x) = -0.13063 0.36682
# Poissons Ratio (y) = -0.49746 0.61285
# Poissons Ratio (z) = 0.33391 0.14650
#
# Static dielectric constant tensor:
#      x y z
#    x 1.921340 0.000000 0.000000 
#    y 0.000000 1.829890 0.000000 
#    z 0.000000 0.000000 1.842980 
# 
# From -- ./inp_files/3165.got.cif
#   From: 2010.05.17/outbox.cif.g08.bks.cpg/sg64_2_cif.got.tgz:3165.got - 2010.06.03 16:29:19.
