data_PCOD9477156
_publ_section_title
;
Structure prediction by ZEFSAII (Michael W. Deem and Ramdas Pophale) SiO2 
 PCOD9477156
Probable space group: C M C A
;
_chemical_formula_sum "Si O2"
_cell_formula_units_Z 96
_cell_length_a 14.173575
_cell_length_b 15.120549
_cell_length_c 22.445794
_cell_angle_alpha 90.000000
_cell_angle_beta 90.000000
_cell_angle_gamma 90.000000
_cell_volume 4810.408285
_symmetry_space_group_name_H-M "C M C A"
_symmetry_group_IT_number 64
_symmetry_cell_setting 'orthorhombic'
loop_
_space_group_symop_operation_xyz
x,y,z
-x,1/2-y,1/2+z
x,-y,-z
-x,1/2+y,1/2-z
-x,-y,-z
x,1/2+y,1/2-z
-x,y,z
x,1/2-y,1/2+z
1/2+x,1/2+y,z
1/2-x,-y,1/2+z
1/2+x,1/2-y,-z
1/2-x,y,1/2-z
1/2-x,1/2-y,-z
1/2+x,y,1/2-z
1/2-x,1/2+y,z
1/2+x,-y,1/2+z
loop_
_atom_site_type_symbol
_atom_site_label
_atom_site_fract_x
_atom_site_fract_y
_atom_site_fract_z
Si Si1 0.500000 0.553993 0.821550
Si Si2 0.708324 0.908520 0.599009
Si Si3 0.304782 0.754692 0.694550
Si Si4 0.500000 0.336705 0.294854
Si Si5 0.500000 0.605106 0.097595
Si Si6 0.703258 0.407094 0.134673
Si Si7 0.296546 0.155532 0.985484
Si Si8 0.000000 0.685075 0.927433
O O1 0.500000 0.583927 0.752789
O O2 0.500000 0.448964 0.838980
O O3 0.592602 0.595297 0.851755
O O4 0.699522 0.820393 0.638614
O O5 0.602284 0.922950 0.572053
O O6 0.782463 0.898989 0.546055
O O7 0.731510 0.990586 0.641565
O O8 0.250000 0.795286 0.750000
O O9 0.408920 0.725249 0.712684
O O10 0.254320 0.663453 0.675983
O O11 0.500000 0.366118 0.364223
O O12 0.500000 0.711207 0.091843
O O13 0.734630 0.384456 0.067808
O O14 0.250000 0.250000 0.000000
O O15 0.404170 0.165416 0.963396
#
# Coordination Sequence:
#
# PCOD9477156 Si02
#       8
#     8  16  16   8   8  16  16   8
#     4  10  24  36  64  96 131 164 221 281 325 387
#     4  11  23  42  65  98 132 171 221 269 334 397
#     4  12  23  41  67  92 128 173 219 270 335 393
#     4  12  20  42  66  87 129 174 212 262 340 390
#     4  10  18  39  63  95 123 165 216 274 324 388
#     4  11  23  41  64  95 132 168 218 275 324 389
#     4  12  22  41  67  94 129 176 215 269 337 399
#     4  12  22  39  72  94 130 177 222 269 333 409
#
# _framework density 19.956726
#
# number of rings (size 3 to 8) (size 9 to 14) (size 15 to 20)
#    0.000    0.667    8.333    0.500    0.000    2.000 
#    0.000    5.833    0.000    0.000    0.000    0.000 
#    0.000    0.000    0.000    0.000    0.000    0.000 
#
# Total GULP energy -267827.674629 kJ/mol
# GULP energy per Si atom -5579.743221 kJ/mol
# Density = 1.991130 g / cm^3
# Si number density = 19.956726 Si / 1000 Ang^3
#
#
#
# Elastic Constant Matrix: (Units=GPa)
#
#
# Indices 1 2 3 4 5 6 
#
# 1 150.6922 41.8126 71.1200 0.0000 0.0000 0.0000
# 2 41.8126 86.4124 25.1195 0.0000 0.0000 0.0000
# 3 71.1200 25.1195 99.7079 0.0000 0.0000 0.0000
# 4 0.0000 0.0000 0.0000 29.3924 0.0000 0.0000
# 5 0.0000 0.0000 0.0000 0.0000 29.6508 0.0000
# 6 0.0000 0.0000 0.0000 0.0000 0.0000 10.6523
#
#
#
# Elastic Compliance Matrix: (Units=1/GPa)
#
#
# Indices 1 2 3 4 5 6 
#
# 1 0.010772 -0.003214 -0.006874 0.000000 0.000000 0.000000
# 2 -0.003214 0.013446 -0.001095 0.000000 0.000000 0.000000
# 3 -0.006874 -0.001095 0.015208 0.000000 0.000000 0.000000
# 4 0.000000 0.000000 0.000000 0.034022 0.000000 0.000000
# 5 0.000000 0.000000 0.000000 0.000000 0.033726 0.000000
# 6 0.000000 0.000000 0.000000 0.000000 0.000000 0.093877
#
#
# Mechanical properties :
#
#
# Convention : Reuss Voigt Hill
#
# Bulk Modulus (GPa) = 58.61493 68.10187 63.35840
# Shear Modulus (GPa) = 21.82422 27.18978 24.50700
#
# Velocity S-wave (km/s) = 3.31052 3.69512 3.50809
# Velocity P-wave (km/s) = 6.63683 7.23907 6.94448
#
# Compressibility (1/GPa) = 0.01706050
#
# Stress axis : x y z
#
# Youngs Moduli (GPa) = 92.83361 74.37205 65.75463
#
# Poissons Ratio (x) = 0.23904 0.45198
# Poissons Ratio (y) = 0.29838 0.07199
# Poissons Ratio (z) = 0.63811 0.08143
#
# Static dielectric constant tensor:
#      x y z
#    x 1.727360 0.000000 0.000000 
#    y 0.000000 1.742390 0.000000 
#    z 0.000000 0.000000 1.711550 
# 
# From -- ./inp_files/39308.got.cif
#   From: 2010.05.17/outbox.cif.g08.bks.cpg/sg64_20_cif.got.tgz:39308.got - 2010.06.03 16:29:19.
