data_PCOD9477522
_publ_section_title
;
Structure prediction by ZEFSAII (Michael W. Deem and Ramdas Pophale) SiO2 
 PCOD9477522
Probable space group: C M C A
;
_chemical_formula_sum "Si O2"
_cell_formula_units_Z 112
_cell_length_a 16.518812
_cell_length_b 24.058941
_cell_length_c 15.109391
_cell_angle_alpha 90.000000
_cell_angle_beta 90.000000
_cell_angle_gamma 90.000000
_cell_volume 6004.851581
_symmetry_space_group_name_H-M "C M C A"
_symmetry_group_IT_number 64
_symmetry_cell_setting 'orthorhombic'
loop_
_space_group_symop_operation_xyz
x,y,z
-x,1/2-y,1/2+z
x,-y,-z
-x,1/2+y,1/2-z
-x,-y,-z
x,1/2+y,1/2-z
-x,y,z
x,1/2-y,1/2+z
1/2+x,1/2+y,z
1/2-x,-y,1/2+z
1/2+x,1/2-y,-z
1/2-x,y,1/2-z
1/2-x,1/2-y,-z
1/2+x,y,1/2-z
1/2-x,1/2+y,z
1/2+x,-y,1/2+z
loop_
_atom_site_type_symbol
_atom_site_label
_atom_site_fract_x
_atom_site_fract_y
_atom_site_fract_z
Si Si1 0.598596 0.761055 0.094075
Si Si2 0.195801 0.890260 0.167739
Si Si3 0.092981 0.966665 0.288325
Si Si4 0.598253 0.802242 0.770388
Si Si5 0.349214 0.887569 0.060541
Si Si6 0.596819 0.290011 0.089797
Si Si7 0.901644 0.413300 0.860897
O O1 0.500000 0.767411 0.095892
O O2 0.626038 0.729399 0.182416
O O3 0.634709 0.822446 0.080451
O O4 0.620212 0.722624 0.010663
O O5 0.250000 0.868300 0.250000
O O6 0.148032 0.941737 0.210467
O O7 0.258046 0.902890 0.089193
O O8 0.135640 0.843571 0.133572
O O9 0.097965 0.923857 0.370780
O O10 0.000000 0.971122 0.259036
O O11 0.121037 0.026365 0.324031
O O12 0.500000 0.803735 0.764378
O O13 0.620051 0.763743 0.853180
O O14 0.624487 0.864515 0.793584
O O15 0.369097 0.901400 0.959342
O O16 0.500000 0.295251 0.093593
O O17 0.000000 0.411803 0.867574
#
# Coordination Sequence:
#
# PCOD9477522 Si02
#       7
#    16  16  16  16  16  16  16
#     4  10  19  32  57  88 118 152 191 237 290 348
#     4  10  22  36  55  80 117 154 187 233 290 356
#     4  10  20  35  60  85 109 146 202 250 289 341
#     4   9  17  31  53  83 116 146 182 240 294 336
#     4  11  20  34  56  85 121 147 187 240 303 354
#     4  10  19  35  59  83 113 150 195 239 283 348
#     4  10  19  34  59  88 114 145 195 255 297 335
#
# _framework density 18.651584
#
# number of rings (size 3 to 8) (size 9 to 14) (size 15 to 20)
#    0.000    2.000    1.429    3.857    0.000    2.857 
#    0.000    0.000   15.714    0.000    0.000    5.000 
#    0.000    0.000    0.000    0.000    0.000    0.000 
#
# Total GULP energy -312512.485010 kJ/mol
# GULP energy per Si atom -5580.580089 kJ/mol
# Density = 1.860913 g / cm^3
# Si number density = 18.651584 Si / 1000 Ang^3
#
#
#
# Elastic Constant Matrix: (Units=GPa)
#
#
# Indices 1 2 3 4 5 6 
#
# 1 31.7082 39.2358 34.7914 0.0000 0.0000 0.0000
# 2 39.2358 127.5228 61.4971 0.0000 0.0000 0.0000
# 3 34.7914 61.4971 93.1334 0.0000 0.0000 0.0000
# 4 0.0000 0.0000 0.0000 26.2971 0.0000 0.0000
# 5 0.0000 0.0000 0.0000 0.0000 11.7951 0.0000
# 6 0.0000 0.0000 0.0000 0.0000 0.0000 -4.7761
#
#
#
# Elastic Compliance Matrix: (Units=1/GPa)
#
#
# Indices 1 2 3 4 5 6 
#
# 1 0.063822 -0.011942 -0.015957 0.000000 0.000000 0.000000
# 2 -0.011942 0.013740 -0.004612 0.000000 0.000000 0.000000
# 3 -0.015957 -0.004612 0.019743 0.000000 0.000000 0.000000
# 4 0.000000 0.000000 0.000000 0.038027 0.000000 0.000000
# 5 0.000000 0.000000 0.000000 0.000000 0.084781 0.000000
# 6 0.000000 0.000000 0.000000 0.000000 0.000000 -0.209377
#
#
# Mechanical properties :
#
#
# Convention : Reuss Voigt Hill
#
# Bulk Modulus (GPa) = 30.97350 58.15701 44.56525
# Shear Modulus (GPa) = 57.79161 14.45256 36.12209
#
# Velocity S-wave (km/s) = 5.57244 2.78667 4.40554
# Velocity P-wave (km/s) = 7.61874 6.45000 7.05860
#
# Compressibility (1/GPa) = 0.03228567
#
# Stress axis : x y z
#
# Youngs Moduli (GPa) = 15.66849 72.78125 50.65029
#
# Poissons Ratio (x) = 0.86913 0.80821
# Poissons Ratio (y) = 0.18711 0.23358
# Poissons Ratio (z) = 0.25002 0.33564
#
# Static dielectric constant tensor:
#      x y z
#    x 1.679690 0.000000 0.000000 
#    y 0.000000 1.628410 0.000000 
#    z 0.000000 0.000000 1.625700 
# 
# From -- ./inp_files/24247.got.cif
#   From: 2010.05.17/outbox.cif.g08.bks.cpg/sg64_13_cif.got.tgz:24247.got - 2010.06.03 16:29:19.
