data_PCOD9477250
_publ_section_title
;
Structure prediction by ZEFSAII (Michael W. Deem and Ramdas Pophale) SiO2 
 PCOD9477250
Probable space group: C M C A
;
_chemical_formula_sum "Si O2"
_cell_formula_units_Z 104
_cell_length_a 28.089561
_cell_length_b 8.672220
_cell_length_c 18.853405
_cell_angle_alpha 90.000000
_cell_angle_beta 90.000000
_cell_angle_gamma 90.000000
_cell_volume 4592.667827
_symmetry_space_group_name_H-M "C M C A"
_symmetry_group_IT_number 64
_symmetry_cell_setting 'orthorhombic'
loop_
_space_group_symop_operation_xyz
x,y,z
-x,1/2-y,1/2+z
x,-y,-z
-x,1/2+y,1/2-z
-x,-y,-z
x,1/2+y,1/2-z
-x,y,z
x,1/2-y,1/2+z
1/2+x,1/2+y,z
1/2-x,-y,1/2+z
1/2+x,1/2-y,-z
1/2-x,y,1/2-z
1/2-x,1/2-y,-z
1/2+x,y,1/2-z
1/2-x,1/2+y,z
1/2+x,-y,1/2+z
loop_
_atom_site_type_symbol
_atom_site_label
_atom_site_fract_x
_atom_site_fract_y
_atom_site_fract_z
Si Si1 0.260272 0.276139 0.664906
Si Si2 0.500000 0.744050 0.886457
Si Si3 0.180561 0.989681 0.870116
Si Si4 0.924770 0.475391 0.600878
Si Si5 0.500000 0.252622 0.958255
Si Si6 0.090056 0.264548 0.223178
Si Si7 0.652107 0.463373 0.705163
Si Si8 0.000000 0.559840 0.812343
O O1 0.250000 0.241764 0.750000
O O2 0.213426 0.338531 0.626317
O O3 0.284980 0.135805 0.624734
O O4 0.300107 0.411123 0.667367
O O5 0.545481 0.630466 0.886803
O O6 0.500000 0.877949 0.827741
O O7 0.500000 0.821717 0.964616
O O8 0.165134 0.991450 0.787296
O O9 0.131405 0.996994 0.913038
O O10 0.925923 0.372500 0.672268
O O11 0.954095 0.365145 0.547891
O O12 0.500000 0.142143 0.889901
O O13 0.127863 0.377078 0.183464
O O14 0.045443 0.377164 0.229505
O O15 0.115645 0.181754 0.289612
#
# Coordination Sequence:
#
# PCOD9477250 Si02
#       8
#    16   8  16  16   8  16  16   8
#     4  10  19  30  48  72 106 154 203 233 259 305
#     4  11  21  39  68  84 106 138 179 229 304 370
#     4  10  20  31  49  77 111 149 195 239 269 307
#     4   9  20  35  55  85 112 138 182 241 281 339
#     4   9  19  43  65  87 105 136 176 230 301 367
#     4  10  21  34  50  74 114 155 195 236 268 314
#     4  10  19  33  50  69 107 161 199 228 263 305
#     4  10  23  36  55  87 117 132 183 247 281 345
#
# _framework density 22.64479
#
# number of rings (size 3 to 8) (size 9 to 14) (size 15 to 20)
#    0.000    2.154    1.538    3.000    6.462    0.615 
#    0.000    1.538    0.000    0.000    0.000    4.308 
#    0.000    0.000    0.000    0.000    0.000    0.000 
#
# Total GULP energy -290398.893165 kJ/mol
# GULP energy per Si atom -5584.594099 kJ/mol
# Density = 2.259325 g / cm^3
# Si number density = 22.644790 Si / 1000 Ang^3
#
#
#
# Elastic Constant Matrix: (Units=GPa)
#
#
# Indices 1 2 3 4 5 6 
#
# 1 173.0739 69.5180 18.2992 0.0000 0.0000 0.0000
# 2 69.5180 132.8280 21.2661 0.0000 0.0000 0.0000
# 3 18.2992 21.2661 52.1726 0.0000 0.0000 0.0000
# 4 0.0000 0.0000 0.0000 26.3392 0.0000 0.0000
# 5 0.0000 0.0000 0.0000 0.0000 2.0426 0.0000
# 6 0.0000 0.0000 0.0000 0.0000 0.0000 -21.4482
#
#
#
# Elastic Compliance Matrix: (Units=1/GPa)
#
#
# Indices 1 2 3 4 5 6 
#
# 1 0.007373 -0.003685 -0.001084 0.000000 0.000000 0.000000
# 2 -0.003685 0.009896 -0.002741 0.000000 0.000000 0.000000
# 3 -0.001084 -0.002741 0.020665 0.000000 0.000000 0.000000
# 4 0.000000 0.000000 0.000000 0.037966 0.000000 0.000000
# 5 0.000000 0.000000 0.000000 0.000000 0.489576 0.000000
# 6 0.000000 0.000000 0.000000 0.000000 0.000000 -0.046624
#
#
# Mechanical properties :
#
#
# Convention : Reuss Voigt Hill
#
# Bulk Modulus (GPa) = 43.64317 64.02678 53.83497
# Shear Modulus (GPa) = 9.23345 17.98613 13.60979
#
# Velocity S-wave (km/s) = 2.02148 2.82134 2.45421
# Velocity P-wave (km/s) = 4.97627 6.24092 5.64413
#
# Compressibility (1/GPa) = 0.02291309
#
# Stress axis : x y z
#
# Youngs Moduli (GPa) = 135.63644 101.05022 48.39181
#
# Poissons Ratio (x) = 0.37238 0.05245
# Poissons Ratio (y) = 0.49983 0.13265
# Poissons Ratio (z) = 0.14701 0.27700
#
# Static dielectric constant tensor:
#      x y z
#    x 1.939010 0.000000 0.000000 
#    y 0.000000 1.890970 0.000000 
#    z 0.000000 0.000000 1.821550 
# 
# From -- ./inp_files/46926.got.cif
#   From: 2010.05.17/outbox.cif.g08.bks.cpg/sg64_24_cif.got.tgz:46926.got - 2010.06.03 16:29:19.
