data_PCOD9477398
_publ_section_title
;
Structure prediction by ZEFSAII (Michael W. Deem and Ramdas Pophale) SiO2 
 PCOD9477398
Probable space group: C M C A
;
_chemical_formula_sum "Si O2"
_cell_formula_units_Z 96
_cell_length_a 8.825734
_cell_length_b 23.917656
_cell_length_c 26.696582
_cell_angle_alpha 90.000000
_cell_angle_beta 90.000000
_cell_angle_gamma 90.000000
_cell_volume 5635.404714
_symmetry_space_group_name_H-M "C M C A"
_symmetry_group_IT_number 64
_symmetry_cell_setting 'orthorhombic'
loop_
_space_group_symop_operation_xyz
x,y,z
-x,1/2-y,1/2+z
x,-y,-z
-x,1/2+y,1/2-z
-x,-y,-z
x,1/2+y,1/2-z
-x,y,z
x,1/2-y,1/2+z
1/2+x,1/2+y,z
1/2-x,-y,1/2+z
1/2+x,1/2-y,-z
1/2-x,y,1/2-z
1/2-x,1/2-y,-z
1/2+x,y,1/2-z
1/2-x,1/2+y,z
1/2+x,-y,1/2+z
loop_
_atom_site_type_symbol
_atom_site_label
_atom_site_fract_x
_atom_site_fract_y
_atom_site_fract_z
Si Si1 0.679382 0.328345 0.111529
Si Si2 0.817350 0.091645 0.694887
Si Si3 0.676156 0.415523 0.460217
Si Si4 0.681024 0.269656 0.946725
Si Si5 0.676926 0.991074 0.875313
Si Si6 0.679145 0.099182 0.436229
O O1 0.500000 0.324527 0.118012
O O2 0.754473 0.359707 0.158656
O O3 0.720076 0.367815 0.064198
O O4 0.750587 0.269125 0.096789
O O5 0.750000 0.096673 0.750000
O O6 0.000000 0.094306 0.695022
O O7 0.773913 0.031859 0.669834
O O8 0.500000 0.397691 0.459343
O O9 0.689104 0.468591 0.423945
O O10 0.730371 0.425081 0.516246
O O11 0.500000 0.262505 0.949160
O O12 0.713634 0.334751 0.935912
O O13 0.750000 0.250000 0.000000
O O14 0.500000 0.977125 0.868551
O O15 0.769950 0.935655 0.887702
O O16 0.500000 0.092264 0.444002
#
# Coordination Sequence:
#
# PCOD9477398 Si02
#       6
#    16  16  16  16  16  16
#     4  11  21  34  54  81 109 142 184 228 272 320
#     4  10  21  39  62  86 109 137 174 223 278 330
#     4  10  19  32  50  72 105 145 181 220 264 317
#     4  11  22  35  51  75 109 150 189 227 269 322
#     4   9  20  35  51  75 106 140 176 216 269 324
#     4  11  22  32  48  75 107 144 185 222 263 316
#
# _framework density 17.035156000000001
#
# number of rings (size 3 to 8) (size 9 to 14) (size 15 to 20)
#    0.000    1.667    1.667    5.000    0.000    8.000 
#    0.000    0.000    0.000    1.000    0.000    2.333 
#    0.000    0.000    0.000    0.000    0.000    0.000 
#
# Total GULP energy -267967.341518 kJ/mol
# GULP energy per Si atom -5582.652948 kJ/mol
# Density = 1.699638 g / cm^3
# Si number density = 17.035156 Si / 1000 Ang^3
#
#
#
# Elastic Constant Matrix: (Units=GPa)
#
#
# Indices 1 2 3 4 5 6 
#
# 1 79.3252 44.2521 32.9524 0.0000 0.0000 0.0000
# 2 44.2521 71.9362 41.2479 0.0000 0.0000 0.0000
# 3 32.9524 41.2479 97.8878 0.0000 0.0000 0.0000
# 4 0.0000 0.0000 0.0000 14.6462 0.0000 0.0000
# 5 0.0000 0.0000 0.0000 0.0000 26.8160 0.0000
# 6 0.0000 0.0000 0.0000 0.0000 0.0000 25.2204
#
#
#
# Elastic Compliance Matrix: (Units=1/GPa)
#
#
# Indices 1 2 3 4 5 6 
#
# 1 0.019482 -0.010844 -0.001989 0.000000 0.000000 0.000000
# 2 -0.010844 0.024366 -0.006617 0.000000 0.000000 0.000000
# 3 -0.001989 -0.006617 0.013674 0.000000 0.000000 0.000000
# 4 0.000000 0.000000 0.000000 0.068277 0.000000 0.000000
# 5 0.000000 0.000000 0.000000 0.000000 0.037291 0.000000
# 6 0.000000 0.000000 0.000000 0.000000 0.000000 0.039650
#
#
# Mechanical properties :
#
#
# Convention : Reuss Voigt Hill
#
# Bulk Modulus (GPa) = 53.69999 54.00602 53.85300
# Shear Modulus (GPa) = 20.17370 22.04963 21.11167
#
# Velocity S-wave (km/s) = 3.44501 3.60163 3.52419
# Velocity P-wave (km/s) = 6.88590 7.00479 6.94560
#
# Compressibility (1/GPa) = 0.01862198
#
# Stress axis : x y z
#
# Youngs Moduli (GPa) = 51.32953 41.04050 73.13412
#
# Poissons Ratio (x) = 0.44505 0.14545
# Poissons Ratio (y) = 0.55662 0.48392
# Poissons Ratio (z) = 0.10208 0.27156
#
# Static dielectric constant tensor:
#      x y z
#    x 1.569540 0.000000 0.000000 
#    y 0.000000 1.597110 0.000000 
#    z 0.000000 0.000000 1.562100 
# 
# From -- ./inp_files/48373.got.cif
#   From: 2010.05.17/outbox.cif.g08.bks.cpg/sg64_25_cif.got.tgz:48373.got - 2010.06.03 16:29:19.
