data_PCOD9477553
_publ_section_title
;
Structure prediction by ZEFSAII (Michael W. Deem and Ramdas Pophale) SiO2 
 PCOD9477553
Probable space group: C M C A
;
_chemical_formula_sum "Si O2"
_cell_formula_units_Z 96
_cell_length_a 9.096715
_cell_length_b 32.223639
_cell_length_c 15.051761
_cell_angle_alpha 90.000000
_cell_angle_beta 90.000000
_cell_angle_gamma 90.000000
_cell_volume 4412.111567
_symmetry_space_group_name_H-M "C M C A"
_symmetry_group_IT_number 64
_symmetry_cell_setting 'orthorhombic'
loop_
_space_group_symop_operation_xyz
x,y,z
-x,1/2-y,1/2+z
x,-y,-z
-x,1/2+y,1/2-z
-x,-y,-z
x,1/2+y,1/2-z
-x,y,z
x,1/2-y,1/2+z
1/2+x,1/2+y,z
1/2-x,-y,1/2+z
1/2+x,1/2-y,-z
1/2-x,y,1/2-z
1/2-x,1/2-y,-z
1/2+x,y,1/2-z
1/2-x,1/2+y,z
1/2+x,-y,1/2+z
loop_
_atom_site_type_symbol
_atom_site_label
_atom_site_fract_x
_atom_site_fract_y
_atom_site_fract_z
Si Si1 0.333001 0.290473 0.609958
Si Si2 0.336646 0.372260 0.105407
Si Si3 0.675799 0.953426 0.847215
Si Si4 0.163901 0.129074 0.104279
Si Si5 0.166463 0.707673 0.892140
Si Si6 0.177224 0.965332 0.152763
O O1 0.500000 0.295433 0.640144
O O2 0.233579 0.328821 0.641231
O O3 0.267294 0.246100 0.635680
O O4 0.334828 0.291719 0.501037
O O5 0.500000 0.368577 0.146147
O O6 0.228676 0.336641 0.138819
O O7 0.290011 0.420107 0.113302
O O8 0.350790 0.364006 0.000777
O O9 0.500000 0.956982 0.843792
O O10 0.750000 0.952565 0.750000
O O11 0.728689 0.909949 0.886549
O O12 0.748116 0.994348 0.891416
O O13 0.000000 0.120110 0.140640
O O14 0.000000 0.713921 0.862435
O O15 0.250000 0.963259 0.250000
O O16 0.000000 0.970827 0.155784
#
# Coordination Sequence:
#
# PCOD9477553 Si02
#       6
#    16  16  16  16  16  16
#     4   9  16  27  44  69 101 134 167 203 246 297
#     4   9  19  33  51  75 104 135 167 206 253 301
#     4  11  22  37  55  75  99 131 169 207 250 301
#     4  10  19  33  52  76 104 133 167 208 252 297
#     4   9  16  26  44  70 100 133 168 205 246 294
#     4  10  20  36  55  75  99 132 171 208 250 300
#
# _framework density 21.758288
#
# number of rings (size 3 to 8) (size 9 to 14) (size 15 to 20)
#    0.000    2.333    0.000    4.500    0.000    6.667 
#    0.000    3.333    0.000    1.000    0.000    4.667 
#    0.000    0.000    0.000    0.000    0.000    0.000 
#
# Total GULP energy -267903.581994 kJ/mol
# GULP energy per Si atom -5581.324625 kJ/mol
# Density = 2.170877 g / cm^3
# Si number density = 21.758288 Si / 1000 Ang^3
#
#
#
# Elastic Constant Matrix: (Units=GPa)
#
#
# Indices 1 2 3 4 5 6 
#
# 1 161.1020 87.3442 6.7919 0.0000 0.0000 0.0000
# 2 87.3442 160.2332 -5.2317 0.0000 0.0000 0.0000
# 3 6.7919 -5.2317 25.3625 0.0000 0.0000 0.0000
# 4 0.0000 0.0000 0.0000 43.2413 0.0000 0.0000
# 5 0.0000 0.0000 0.0000 0.0000 12.6040 0.0000
# 6 0.0000 0.0000 0.0000 0.0000 0.0000 39.0178
#
#
#
# Elastic Compliance Matrix: (Units=1/GPa)
#
#
# Indices 1 2 3 4 5 6 
#
# 1 0.009108 -0.005078 -0.003486 0.000000 0.000000 0.000000
# 2 -0.005078 0.009115 0.003240 0.000000 0.000000 0.000000
# 3 -0.003486 0.003240 0.041030 0.000000 0.000000 0.000000
# 4 0.000000 0.000000 0.000000 0.023126 0.000000 0.000000
# 5 0.000000 0.000000 0.000000 0.000000 0.079340 0.000000
# 6 0.000000 0.000000 0.000000 0.000000 0.000000 0.025629
#
#
# Mechanical properties :
#
#
# Convention : Reuss Voigt Hill
#
# Bulk Modulus (GPa) = 20.57475 58.27852 39.42663
# Shear Modulus (GPa) = 23.34282 36.15885 29.75083
#
# Velocity S-wave (km/s) = 3.27895 4.08099 3.70176
# Velocity P-wave (km/s) = 4.87975 7.00348 6.03575
#
# Compressibility (1/GPa) = 0.04860326
#
# Stress axis : x y z
#
# Youngs Moduli (GPa) = 109.79839 109.70933 24.37227
#
# Poissons Ratio (x) = 0.55715 0.08497
# Poissons Ratio (y) = 0.55761 -0.07897
# Poissons Ratio (z) = 0.38281 -0.35548
#
# Static dielectric constant tensor:
#      x y z
#    x 1.744330 0.000000 0.000000 
#    y 0.000000 1.825090 0.000000 
#    z 0.000000 0.000000 1.852880 
# 
# From -- ./inp_files/37044.got.cif
#   From: 2010.05.17/outbox.cif.g08.bks.cpg/sg64_19_cif.got.tgz:37044.got - 2010.06.03 16:29:19.
