data_PCOD9477034
_publ_section_title
;
Structure prediction by ZEFSAII (Michael W. Deem and Ramdas Pophale) SiO2 
 PCOD9477034
Probable space group: C M C A
;
_chemical_formula_sum "Si O2"
_cell_formula_units_Z 116
_cell_length_a 17.578484
_cell_length_b 29.124004
_cell_length_c 12.626403
_cell_angle_alpha 90.000000
_cell_angle_beta 90.000000
_cell_angle_gamma 90.000000
_cell_volume 6464.160733
_symmetry_space_group_name_H-M "C M C A"
_symmetry_group_IT_number 64
_symmetry_cell_setting 'orthorhombic'
loop_
_space_group_symop_operation_xyz
x,y,z
-x,1/2-y,1/2+z
x,-y,-z
-x,1/2+y,1/2-z
-x,-y,-z
x,1/2+y,1/2-z
-x,y,z
x,1/2-y,1/2+z
1/2+x,1/2+y,z
1/2-x,-y,1/2+z
1/2+x,1/2-y,-z
1/2-x,y,1/2-z
1/2-x,1/2-y,-z
1/2+x,y,1/2-z
1/2-x,1/2+y,z
1/2+x,-y,1/2+z
loop_
_atom_site_type_symbol
_atom_site_label
_atom_site_fract_x
_atom_site_fract_y
_atom_site_fract_z
Si Si1 0.188651 0.052857 0.513853
Si Si2 0.694057 0.370647 0.651838
Si Si3 0.834579 0.293370 0.289414
Si Si4 0.089173 0.700780 0.268979
Si Si5 0.367413 0.571927 0.950260
Si Si6 0.000000 0.500000 0.500000
Si Si7 0.828693 0.329760 0.526056
Si Si8 0.840405 0.393372 0.224052
O O1 0.171345 0.083565 0.410571
O O2 0.280688 0.054121 0.531767
O O3 0.152125 0.078926 0.615074
O O4 0.165391 0.000000 0.500000
O O5 0.750000 0.382122 0.750000
O O6 0.627986 0.339188 0.698995
O O7 0.744497 0.340768 0.569709
O O8 0.750000 0.280656 0.250000
O O9 0.889110 0.250413 0.276059
O O10 0.827180 0.306681 0.412210
O O11 0.861604 0.339435 0.227109
O O12 0.126952 0.697742 0.384847
O O13 0.000000 0.694187 0.274573
O O14 0.432657 0.539295 0.991140
O O15 0.377435 0.581399 0.824577
O O16 0.368161 0.620860 0.009044
O O17 0.750000 0.392294 0.250000
#
# Coordination Sequence:
#
# PCOD9477034 Si02
#       8
#    16  16  16  16  16   4  16  16
#     4  10  18  34  57  84 113 148 194 241 280 328
#     4   9  19  36  58  83 111 145 196 239 283 340
#     4  10  19  36  63  84 107 148 195 239 282 341
#     4  11  24  38  54  86 117 150 186 233 297 351
#     4   9  19  34  53  84 113 145 185 233 293 346
#     4  12  20  32  56  88 118 148 182 236 308 360
#     4   9  20  39  58  80 114 150 187 239 284 333
#     4   8  17  34  54  78 109 143 191 240 278 332
#
# _framework density 17.945098000000002
#
# number of rings (size 3 to 8) (size 9 to 14) (size 15 to 20)
#    0.000    2.483    0.690    3.724    0.966    5.517 
#    6.207    0.000    1.517    0.414    0.000    0.000 
#    0.000    0.000    0.000    0.000    0.000    0.000 
#
# Total GULP energy -322981.695972 kJ/mol
# GULP energy per Si atom -5568.649931 kJ/mol
# Density = 1.790425 g / cm^3
# Si number density = 17.945098 Si / 1000 Ang^3
#
#
#
# Elastic Constant Matrix: (Units=GPa)
#
#
# Indices 1 2 3 4 5 6 
#
# 1 49.4410 15.1732 6.6499 0.0000 0.0000 0.0000
# 2 15.1732 77.7338 42.2006 0.0000 0.0000 0.0000
# 3 6.6499 42.2006 75.2272 0.0000 0.0000 0.0000
# 4 0.0000 0.0000 0.0000 12.9146 0.0000 0.0000
# 5 0.0000 0.0000 0.0000 0.0000 0.8742 0.0000
# 6 0.0000 0.0000 0.0000 0.0000 0.0000 11.8167
#
#
#
# Elastic Compliance Matrix: (Units=1/GPa)
#
#
# Indices 1 2 3 4 5 6 
#
# 1 0.021537 -0.004559 0.000654 0.000000 0.000000 0.000000
# 2 -0.004559 0.019463 -0.010515 0.000000 0.000000 0.000000
# 3 0.000654 -0.010515 0.019134 0.000000 0.000000 0.000000
# 4 0.000000 0.000000 0.000000 0.077432 0.000000 0.000000
# 5 0.000000 0.000000 0.000000 0.000000 1.143962 0.000000
# 6 0.000000 0.000000 0.000000 0.000000 0.000000 0.084626
#
#
# Mechanical properties :
#
#
# Convention : Reuss Voigt Hill
#
# Bulk Modulus (GPa) = 31.95570 36.71660 34.33615
# Shear Modulus (GPa) = 3.55764 14.34631 8.95197
#
# Velocity S-wave (km/s) = 1.40954 2.83053 2.23593
# Velocity P-wave (km/s) = 4.52717 5.58458 5.08344
#
# Compressibility (1/GPa) = 0.03129332
#
# Stress axis : x y z
#
# Youngs Moduli (GPa) = 46.43111 51.38009 52.26282
#
# Poissons Ratio (x) = 0.23423 -0.03415
# Poissons Ratio (y) = 0.21167 0.54955
# Poissons Ratio (z) = -0.03034 0.54027
#
# Static dielectric constant tensor:
#      x y z
#    x 1.587750 0.000000 0.000000 
#    y 0.000000 1.628250 0.000000 
#    z 0.000000 0.000000 1.626000 
# 
# From -- ./inp_files/16571.got.cif
#   From: 2010.05.17/outbox.cif.g08.bks.cpg/sg64_9_cif.got.tgz:16571.got - 2010.06.03 16:29:19.
