data_PCOD9477280
_publ_section_title
;
Structure prediction by ZEFSAII (Michael W. Deem and Ramdas Pophale) SiO2 
 PCOD9477280
Probable space group: C M C A
;
_chemical_formula_sum "Si O2"
_cell_formula_units_Z 112
_cell_length_a 7.392851
_cell_length_b 24.286503
_cell_length_c 29.541408
_cell_angle_alpha 90.000000
_cell_angle_beta 90.000000
_cell_angle_gamma 90.000000
_cell_volume 5304.056352
_symmetry_space_group_name_H-M "C M C A"
_symmetry_group_IT_number 64
_symmetry_cell_setting 'orthorhombic'
loop_
_space_group_symop_operation_xyz
x,y,z
-x,1/2-y,1/2+z
x,-y,-z
-x,1/2+y,1/2-z
-x,-y,-z
x,1/2+y,1/2-z
-x,y,z
x,1/2-y,1/2+z
1/2+x,1/2+y,z
1/2-x,-y,1/2+z
1/2+x,1/2-y,-z
1/2-x,y,1/2-z
1/2-x,1/2-y,-z
1/2+x,y,1/2-z
1/2-x,1/2+y,z
1/2+x,-y,1/2+z
loop_
_atom_site_type_symbol
_atom_site_label
_atom_site_fract_x
_atom_site_fract_y
_atom_site_fract_z
Si Si1 0.779159 0.836693 0.475399
Si Si2 0.219629 0.461800 0.041142
Si Si3 0.283202 0.148401 0.803011
Si Si4 0.284489 0.161256 0.077482
Si Si5 0.283831 0.724172 0.614626
Si Si6 0.779415 0.045342 0.382674
Si Si7 0.784382 0.976134 0.302228
O O1 0.723793 0.899286 0.464524
O O2 0.716980 0.824247 0.526682
O O3 0.715239 0.799992 0.433384
O O4 0.000000 0.833851 0.475540
O O5 0.272234 0.493790 0.085988
O O6 0.000000 0.460475 0.040152
O O7 0.279427 0.500000 0.000000
O O8 0.500000 0.146599 0.807450
O O9 0.250000 0.162165 0.750000
O O10 0.216348 0.191186 0.841162
O O11 0.214809 0.085962 0.811828
O O12 0.500000 0.154910 0.072489
O O13 0.251352 0.210929 0.111956
O O14 0.215000 0.102908 0.096395
O O15 0.500000 0.716709 0.614320
O O16 0.000000 0.049003 0.383136
O O17 0.718234 0.025852 0.333430
O O18 0.750000 0.987071 0.250000
O O19 0.000000 0.973060 0.309597
#
# Coordination Sequence:
#
# PCOD9477280 Si02
#       7
#    16  16  16  16  16  16  16
#     4   9  16  27  45  70  99 127 158 197 237 279
#     4   9  13  21  41  70  97 118 147 191 238 277
#     4   9  18  33  53  74  95 119 153 198 245 287
#     4  10  19  31  47  70  99 131 164 195 227 273
#     4  10  20  33  48  69  97 129 162 196 237 281
#     4   9  16  27  45  70  99 125 152 193 240 279
#     4   9  17  31  51  74  97 120 150 193 243 289
#
# _framework density 21.115914
#
# number of rings (size 3 to 8) (size 9 to 14) (size 15 to 20)
#    0.000    2.714    1.429    1.286    0.000    4.000 
#    0.000    1.429    0.000    3.429    0.000    4.000 
#    0.000    0.000    0.000    0.000    0.000    0.000 
#
# Total GULP energy -312448.642827 kJ/mol
# GULP energy per Si atom -5579.440050 kJ/mol
# Density = 2.106785 g / cm^3
# Si number density = 21.115914 Si / 1000 Ang^3
#
#
#
# Elastic Constant Matrix: (Units=GPa)
#
#
# Indices 1 2 3 4 5 6 
#
# 1 71.9043 -0.9897 2.2307 0.0000 0.0000 0.0000
# 2 -0.9897 85.5150 66.7315 0.0000 0.0000 0.0000
# 3 2.2307 66.7315 134.2068 0.0000 0.0000 0.0000
# 4 0.0000 0.0000 0.0000 39.7777 0.0000 0.0000
# 5 0.0000 0.0000 0.0000 0.0000 31.0296 0.0000
# 6 0.0000 0.0000 0.0000 0.0000 0.0000 21.2573
#
#
#
# Elastic Compliance Matrix: (Units=1/GPa)
#
#
# Indices 1 2 3 4 5 6 
#
# 1 0.013931 0.000559 -0.000509 0.000000 0.000000 0.000000
# 2 0.000559 0.019130 -0.009521 0.000000 0.000000 0.000000
# 3 -0.000509 -0.009521 0.012194 0.000000 0.000000 0.000000
# 4 0.000000 0.000000 0.000000 0.025140 0.000000 0.000000
# 5 0.000000 0.000000 0.000000 0.000000 0.032227 0.000000
# 6 0.000000 0.000000 0.000000 0.000000 0.000000 0.047043
#
#
# Mechanical properties :
#
#
# Convention : Reuss Voigt Hill
#
# Bulk Modulus (GPa) = 38.00690 47.50790 42.75740
# Shear Modulus (GPa) = 28.18815 33.32317 30.75566
#
# Velocity S-wave (km/s) = 3.65763 3.97685 3.82057
# Velocity P-wave (km/s) = 5.98965 6.60565 6.30517
#
# Compressibility (1/GPa) = 0.02631101
#
# Stress axis : x y z
#
# Youngs Moduli (GPa) = 71.78307 52.27283 82.00752
#
# Poissons Ratio (x) = -0.02920 0.04177
# Poissons Ratio (y) = -0.04010 0.78083
# Poissons Ratio (z) = 0.03656 0.49771
#
# Static dielectric constant tensor:
#      x y z
#    x 1.856290 0.000000 0.000000 
#    y 0.000000 1.737950 0.000000 
#    z 0.000000 0.000000 1.751120 
# 
# From -- ./inp_files/44399.got.cif
#   From: 2010.05.17/outbox.cif.g08.bks.cpg/sg64_23_cif.got.tgz:44399.got - 2010.06.03 16:29:19.
