data_PCOD9477204
_publ_section_title
;
Structure prediction by ZEFSAII (Michael W. Deem and Ramdas Pophale) SiO2 
 PCOD9477204
Probable space group: C M C A
;
_chemical_formula_sum "Si O2"
_cell_formula_units_Z 96
_cell_length_a 9.813133
_cell_length_b 26.205411
_cell_length_c 18.197419
_cell_angle_alpha 90.000000
_cell_angle_beta 90.000000
_cell_angle_gamma 90.000000
_cell_volume 4679.597016
_symmetry_space_group_name_H-M "C M C A"
_symmetry_group_IT_number 64
_symmetry_cell_setting 'orthorhombic'
loop_
_space_group_symop_operation_xyz
x,y,z
-x,1/2-y,1/2+z
x,-y,-z
-x,1/2+y,1/2-z
-x,-y,-z
x,1/2+y,1/2-z
-x,y,z
x,1/2-y,1/2+z
1/2+x,1/2+y,z
1/2-x,-y,1/2+z
1/2+x,1/2-y,-z
1/2-x,y,1/2-z
1/2-x,1/2-y,-z
1/2+x,y,1/2-z
1/2-x,1/2+y,z
1/2+x,-y,1/2+z
loop_
_atom_site_type_symbol
_atom_site_label
_atom_site_fract_x
_atom_site_fract_y
_atom_site_fract_z
Si Si1 0.848404 0.295738 0.081159
Si Si2 0.346596 0.042982 0.686464
Si Si3 0.148983 0.336610 0.310570
Si Si4 0.840897 0.692095 0.323522
Si Si5 0.652902 0.948996 0.047840
Si Si6 0.155462 0.647232 0.060012
O O1 0.724391 0.328060 0.113325
O O2 0.840918 0.242295 0.123720
O O3 0.000000 0.317022 0.100423
O O4 0.839648 0.302740 0.993554
O O5 0.500000 0.021439 0.682865
O O6 0.250000 0.020400 0.750000
O O7 0.362739 0.103359 0.703681
O O8 0.264888 0.043229 0.610341
O O9 0.250000 0.314655 0.250000
O O10 0.000000 0.312749 0.307944
O O11 0.750000 0.698099 0.250000
O O12 0.764716 0.651062 0.375529
O O13 0.000000 0.681007 0.306967
O O14 0.500000 0.941998 0.080644
O O15 0.677091 0.901069 0.993770
O O16 0.650841 0.000000 0.000000
O O17 0.000000 0.644139 0.088647
#
# Coordination Sequence:
#
# PCOD9477204 Si02
#       6
#    16  16  16  16  16  16
#     4  10  20  35  57  85 116 152 191 237 289 345
#     4  10  20  34  55  84 118 154 191 239 294 352
#     4  10  19  29  47  77 113 151 187 226 278 337
#     4  11  24  40  59  85 118 157 203 244 287 344
#     4  10  21  39  64  91 119 154 196 245 301 361
#     4  10  21  39  62  87 119 154 192 240 295 351
#
# _framework density 20.514586999999999
#
# number of rings (size 3 to 8) (size 9 to 14) (size 15 to 20)
#    0.000    1.833    1.667    2.500    0.000    5.667 
#    0.000    0.833    0.000    0.000    0.000    0.000 
#    0.000    0.000    0.000    0.000    0.000    0.000 
#
# Total GULP energy -267629.910085 kJ/mol
# GULP energy per Si atom -5575.623127 kJ/mol
# Density = 2.046790 g / cm^3
# Si number density = 20.514587 Si / 1000 Ang^3
#
#
#
# Elastic Constant Matrix: (Units=GPa)
#
#
# Indices 1 2 3 4 5 6 
#
# 1 207.3906 28.4909 91.5169 0.0000 0.0000 0.0000
# 2 28.4909 35.8548 22.2950 0.0000 0.0000 0.0000
# 3 91.5169 22.2950 92.8442 0.0000 0.0000 0.0000
# 4 0.0000 0.0000 0.0000 15.8225 0.0000 0.0000
# 5 0.0000 0.0000 0.0000 0.0000 30.7501 0.0000
# 6 0.0000 0.0000 0.0000 0.0000 0.0000 21.0974
#
#
#
# Elastic Compliance Matrix: (Units=1/GPa)
#
#
# Indices 1 2 3 4 5 6 
#
# 1 0.008636 -0.001845 -0.008070 0.000000 0.000000 0.000000
# 2 -0.001845 0.033180 -0.006149 0.000000 0.000000 0.000000
# 3 -0.008070 -0.006149 0.020202 0.000000 0.000000 0.000000
# 4 0.000000 0.000000 0.000000 0.063201 0.000000 0.000000
# 5 0.000000 0.000000 0.000000 0.000000 0.032520 0.000000
# 6 0.000000 0.000000 0.000000 0.000000 0.000000 0.047399
#
#
# Mechanical properties :
#
#
# Convention : Reuss Voigt Hill
#
# Bulk Modulus (GPa) = 33.45564 68.96611 51.21088
# Shear Modulus (GPa) = 20.22411 26.45311 23.33861
#
# Velocity S-wave (km/s) = 3.14322 3.59483 3.37658
# Velocity P-wave (km/s) = 5.43293 7.13593 6.34185
#
# Compressibility (1/GPa) = 0.02989032
#
# Stress axis : x y z
#
# Youngs Moduli (GPa) = 115.79053 30.13887 49.50027
#
# Poissons Ratio (x) = 0.05559 0.39946
# Poissons Ratio (y) = 0.21359 0.30439
# Poissons Ratio (z) = 0.93442 0.18533
#
# Static dielectric constant tensor:
#      x y z
#    x 1.767080 0.000000 0.000000 
#    y 0.000000 1.766010 0.000000 
#    z 0.000000 0.000000 1.740920 
# 
# From -- ./inp_files/37082.got.cif
#   From: 2010.05.17/outbox.cif.g08.bks.cpg/sg64_19_cif.got.tgz:37082.got - 2010.06.03 16:29:19.
