data_PCOD9477027
_publ_section_title
;
Structure prediction by ZEFSAII (Michael W. Deem and Ramdas Pophale) SiO2 
 PCOD9477027
Probable space group: C M C A
;
_chemical_formula_sum "Si O2"
_cell_formula_units_Z 104
_cell_length_a 20.833852
_cell_length_b 28.283585
_cell_length_c 9.249110
_cell_angle_alpha 90.000000
_cell_angle_beta 90.000000
_cell_angle_gamma 90.000000
_cell_volume 5450.093783
_symmetry_space_group_name_H-M "C M C A"
_symmetry_group_IT_number 64
_symmetry_cell_setting 'orthorhombic'
loop_
_space_group_symop_operation_xyz
x,y,z
-x,1/2-y,1/2+z
x,-y,-z
-x,1/2+y,1/2-z
-x,-y,-z
x,1/2+y,1/2-z
-x,y,z
x,1/2-y,1/2+z
1/2+x,1/2+y,z
1/2-x,-y,1/2+z
1/2+x,1/2-y,-z
1/2-x,y,1/2-z
1/2-x,1/2-y,-z
1/2+x,y,1/2-z
1/2-x,1/2+y,z
1/2+x,-y,1/2+z
loop_
_atom_site_type_symbol
_atom_site_label
_atom_site_fract_x
_atom_site_fract_y
_atom_site_fract_z
Si Si1 0.240168 0.049570 0.079440
Si Si2 0.134726 0.293058 0.154211
Si Si3 0.000000 0.775243 0.362447
Si Si4 0.500000 0.633796 0.436610
Si Si5 0.000000 0.661861 0.397399
Si Si6 0.358141 0.369501 0.893948
Si Si7 0.687899 0.720840 0.958178
Si Si8 0.642333 0.881446 0.951219
O O1 0.250000 0.041761 0.250000
O O2 0.175770 0.081307 0.064407
O O3 0.303377 0.078968 0.029150
O O4 0.235004 0.000000 0.000000
O O5 0.063744 0.291080 0.221055
O O6 0.132976 0.251845 0.034808
O O7 0.179759 0.283035 0.288314
O O8 0.153188 0.339512 0.065859
O O9 0.000000 0.719257 0.395657
O O10 0.000000 0.813368 0.494132
O O11 0.500000 0.644052 0.267818
O O12 0.433574 0.607262 0.474130
O O13 0.069054 0.640814 0.448975
O O14 0.314152 0.329510 0.965863
O O15 0.354049 0.365235 0.718188
O O16 0.750000 0.750000 0.000000
#
# Coordination Sequence:
#
# PCOD9477027 Si02
#       8
#    16  16   8   8   8  16  16  16
#     4  10  22  40  64  85 111 144 187 238 297 358
#     4  11  23  34  54  80 116 156 196 235 277 332
#     4  10  20  32  52  81 114 157 199 233 276 327
#     4   8  18  32  57  81 117 153 194 236 280 339
#     4  10  18  34  57  78 113 154 192 238 285 335
#     4  10  21  38  58  82 112 149 194 239 291 346
#     4  12  24  36  51  78 116 158 195 237 277 336
#     4   9  19  39  59  85 114 151 191 241 288 346
#
# _framework density 19.082241
#
# number of rings (size 3 to 8) (size 9 to 14) (size 15 to 20)
#    0.000    1.846    1.538    2.308    4.308    4.308 
#    0.000    0.769    0.000    0.000    0.000    0.000 
#    0.000    0.000    0.000    0.000    0.000    0.000 
#
# Total GULP energy -289872.638077 kJ/mol
# GULP energy per Si atom -5574.473809 kJ/mol
# Density = 1.903881 g / cm^3
# Si number density = 19.082241 Si / 1000 Ang^3
#
#
#
# Elastic Constant Matrix: (Units=GPa)
#
#
# Indices 1 2 3 4 5 6 
#
# 1 153.9007 73.1959 45.5575 0.0000 0.0000 0.0000
# 2 73.1959 134.9869 52.7682 0.0000 0.0000 0.0000
# 3 45.5575 52.7682 73.1957 0.0000 0.0000 0.0000
# 4 0.0000 0.0000 0.0000 31.2446 0.0000 0.0000
# 5 0.0000 0.0000 0.0000 0.0000 19.8772 0.0000
# 6 0.0000 0.0000 0.0000 0.0000 0.0000 19.6531
#
#
#
# Elastic Compliance Matrix: (Units=1/GPa)
#
#
# Indices 1 2 3 4 5 6 
#
# 1 0.009195 -0.003828 -0.002964 0.000000 0.000000 0.000000
# 2 -0.003828 0.011908 -0.006203 0.000000 0.000000 0.000000
# 3 -0.002964 -0.006203 0.019978 0.000000 0.000000 0.000000
# 4 0.000000 0.000000 0.000000 0.032006 0.000000 0.000000
# 5 0.000000 0.000000 0.000000 0.000000 0.050309 0.000000
# 6 0.000000 0.000000 0.000000 0.000000 0.000000 0.050882
#
#
# Mechanical properties :
#
#
# Convention : Reuss Voigt Hill
#
# Bulk Modulus (GPa) = 66.25206 78.34738 72.29972
# Shear Modulus (GPa) = 24.35476 26.85910 25.60693
#
# Velocity S-wave (km/s) = 3.57642 3.75580 3.66720
# Velocity P-wave (km/s) = 7.20062 7.74305 7.47676
#
# Compressibility (1/GPa) = 0.01509387
#
# Stress axis : x y z
#
# Youngs Moduli (GPa) = 108.74897 83.97517 50.05404
#
# Poissons Ratio (x) = 0.32142 0.14836
# Poissons Ratio (y) = 0.41624 0.31047
# Poissons Ratio (z) = 0.32233 0.52087
#
# Static dielectric constant tensor:
#      x y z
#    x 1.869530 0.000000 0.000000 
#    y 0.000000 1.640760 0.000000 
#    z 0.000000 0.000000 1.659660 
# 
# From -- ./inp_files/8576.got.cif
#   From: 2010.05.17/outbox.cif.g08.bks.cpg/sg64_5_cif.got.tgz:8576.got - 2010.06.03 16:29:19.
