data_PCOD9477996
_publ_section_title
;
Structure prediction by ZEFSAII (Michael W. Deem and Ramdas Pophale) SiO2 
 PCOD9477996
Probable space group: C M C A
;
_chemical_formula_sum "Si O2"
_cell_formula_units_Z 80
_cell_length_a 13.433586
_cell_length_b 18.231226
_cell_length_c 18.713938
_cell_angle_alpha 90.000000
_cell_angle_beta 90.000000
_cell_angle_gamma 90.000000
_cell_volume 4583.244448
_symmetry_space_group_name_H-M "C M C A"
_symmetry_group_IT_number 64
_symmetry_cell_setting 'orthorhombic'
loop_
_space_group_symop_operation_xyz
x,y,z
-x,1/2-y,1/2+z
x,-y,-z
-x,1/2+y,1/2-z
-x,-y,-z
x,1/2+y,1/2-z
-x,y,z
x,1/2-y,1/2+z
1/2+x,1/2+y,z
1/2-x,-y,1/2+z
1/2+x,1/2-y,-z
1/2-x,y,1/2-z
1/2-x,1/2-y,-z
1/2+x,y,1/2-z
1/2-x,1/2+y,z
1/2+x,-y,1/2+z
loop_
_atom_site_type_symbol
_atom_site_label
_atom_site_fract_x
_atom_site_fract_y
_atom_site_fract_z
Si Si1 0.118542 0.336232 0.090445
Si Si2 0.882810 0.367221 0.925868
Si Si3 0.312064 0.492237 0.356711
Si Si4 0.717352 0.296126 0.826352
Si Si5 0.883835 0.951995 0.798533
O O1 0.161384 0.409163 0.127216
O O2 0.162474 0.263945 0.126455
O O3 0.000000 0.337046 0.099050
O O4 0.139919 0.340856 0.005878
O O5 0.855605 0.452894 0.916152
O O6 0.813219 0.325313 0.869530
O O7 0.000000 0.356960 0.911490
O O8 0.193647 0.503871 0.348140
O O9 0.359945 0.521066 0.282085
O O10 0.750000 0.264373 0.750000
O O11 0.649359 0.367291 0.808477
O O12 0.000000 0.961507 0.813884
#
# Coordination Sequence:
#
# PCOD9477996 Si02
#       5
#    16  16  16  16  16
#     4  11  23  36  57  85 116 147 187 240 287 331
#     4  10  20  38  60  83 111 151 192 233 282 337
#     4  10  20  35  57  86 110 144 189 235 277 332
#     4  11  22  37  57  84 113 149 190 231 282 338
#     4  10  19  36  58  80 112 149 186 226 279 339
#
# _framework density 17.454882999999999
#
# number of rings (size 3 to 8) (size 9 to 14) (size 15 to 20)
#    0.000    1.600    4.000    3.600    2.800    2.400 
#    0.000    1.000    0.000   10.800    0.000    0.000 
#    0.000    0.000    0.000    0.000    0.000    0.000 
#
# Total GULP energy -223311.675176 kJ/mol
# GULP energy per Si atom -5582.791879 kJ/mol
# Density = 1.741516 g / cm^3
# Si number density = 17.454883 Si / 1000 Ang^3
#
#
#
# Elastic Constant Matrix: (Units=GPa)
#
#
# Indices 1 2 3 4 5 6 
#
# 1 126.3643 40.6828 59.9529 0.0000 0.0000 0.0000
# 2 40.6828 75.9218 47.3894 0.0000 0.0000 0.0000
# 3 59.9529 47.3894 87.1328 0.0000 0.0000 0.0000
# 4 0.0000 0.0000 0.0000 5.9785 0.0000 0.0000
# 5 0.0000 0.0000 0.0000 0.0000 18.5496 0.0000
# 6 0.0000 0.0000 0.0000 0.0000 0.0000 11.9965
#
#
#
# Elastic Compliance Matrix: (Units=1/GPa)
#
#
# Indices 1 2 3 4 5 6 
#
# 1 0.011931 -0.001921 -0.007165 0.000000 0.000000 0.000000
# 2 -0.001921 0.020250 -0.009692 0.000000 0.000000 0.000000
# 3 -0.007165 -0.009692 0.021677 0.000000 0.000000 0.000000
# 4 0.000000 0.000000 0.000000 0.167266 0.000000 0.000000
# 5 0.000000 0.000000 0.000000 0.000000 0.053909 0.000000
# 6 0.000000 0.000000 0.000000 0.000000 0.000000 0.083358
#
#
# Mechanical properties :
#
#
# Convention : Reuss Voigt Hill
#
# Bulk Modulus (GPa) = 61.33450 65.05212 63.19331
# Shear Modulus (GPa) = 12.45696 16.73118 14.59407
#
# Velocity S-wave (km/s) = 2.67435 3.09939 2.89468
# Velocity P-wave (km/s) = 6.68965 7.08222 6.88873
#
# Compressibility (1/GPa) = 0.01630404
#
# Stress axis : x y z
#
# Youngs Moduli (GPa) = 83.81240 49.38160 46.13092
#
# Poissons Ratio (x) = 0.09488 0.33051
# Poissons Ratio (y) = 0.16104 0.44708
# Poissons Ratio (z) = 0.60048 0.47859
#
# Static dielectric constant tensor:
#      x y z
#    x 1.582770 0.000000 0.000000 
#    y 0.000000 1.574100 0.000000 
#    z 0.000000 0.000000 1.601850 
# 
# From -- ./inp_files/32017.got.cif
#   From: 2010.05.17/outbox.cif.g08.bks.cpg/sg64_17_cif.got.tgz:32017.got - 2010.06.03 16:29:19.
