data_PCOD9477548
_publ_section_title
;
Structure prediction by ZEFSAII (Michael W. Deem and Ramdas Pophale) SiO2 
 PCOD9477548
Probable space group: C M C A
;
_chemical_formula_sum "Si O2"
_cell_formula_units_Z 112
_cell_length_a 13.958138
_cell_length_b 14.039848
_cell_length_c 28.550655
_cell_angle_alpha 90.000000
_cell_angle_beta 90.000000
_cell_angle_gamma 90.000000
_cell_volume 5595.075740
_symmetry_space_group_name_H-M "C M C A"
_symmetry_group_IT_number 64
_symmetry_cell_setting 'orthorhombic'
loop_
_space_group_symop_operation_xyz
x,y,z
-x,1/2-y,1/2+z
x,-y,-z
-x,1/2+y,1/2-z
-x,-y,-z
x,1/2+y,1/2-z
-x,y,z
x,1/2-y,1/2+z
1/2+x,1/2+y,z
1/2-x,-y,1/2+z
1/2+x,1/2-y,-z
1/2-x,y,1/2-z
1/2-x,1/2-y,-z
1/2+x,y,1/2-z
1/2-x,1/2+y,z
1/2+x,-y,1/2+z
loop_
_atom_site_type_symbol
_atom_site_label
_atom_site_fract_x
_atom_site_fract_y
_atom_site_fract_z
Si Si1 0.388899 0.717839 0.995167
Si Si2 0.710770 0.884909 0.869376
Si Si3 0.763723 0.706409 0.922236
Si Si4 0.386198 0.155970 0.836404
Si Si5 0.109529 0.563824 0.041106
Si Si6 0.111938 0.122308 0.183400
Si Si7 0.115006 0.469012 0.781854
O O1 0.500000 0.684740 0.997560
O O2 0.315496 0.666284 0.958827
O O3 0.391890 0.827161 0.976362
O O4 0.335729 0.730077 0.045147
O O5 0.707418 0.777252 0.887599
O O6 0.666076 0.943560 0.911275
O O7 0.819764 0.911529 0.858120
O O8 0.653297 0.899098 0.821818
O O9 0.828997 0.649070 0.885493
O O10 0.500000 0.144597 0.845690
O O11 0.373823 0.262759 0.815378
O O12 0.355776 0.074376 0.799624
O O13 0.000000 0.532946 0.049148
O O14 0.151187 0.500000 0.000000
O O15 0.143033 0.068277 0.230654
O O16 0.000000 0.104986 0.175329
O O17 0.000000 0.467293 0.781957
#
# Coordination Sequence:
#
# PCOD9477548 Si02
#       7
#    16  16  16  16  16  16  16
#     4   9  17  30  50  75 108 146 188 228 275 330
#     4  10  19  33  51  77 110 142 180 222 283 331
#     4   9  18  31  49  78 110 146 183 228 275 335
#     4   9  18  33  57  84 108 140 186 232 280 339
#     4   9  18  30  49  80 112 139 172 229 288 327
#     4   9  19  37  57  79 111 146 183 228 278 335
#     4  10  20  34  57  86 111 141 186 238 291 335
#
# _framework density 20.017600999999999
#
# number of rings (size 3 to 8) (size 9 to 14) (size 15 to 20)
#    0.000    2.714    0.000    1.286    2.000    1.143 
#    0.000    5.714    0.000    1.286    0.000    0.000 
#    0.000    0.000    0.000    0.000    0.000    0.000 
#
# Total GULP energy -312058.532425 kJ/mol
# GULP energy per Si atom -5572.473793 kJ/mol
# Density = 1.997204 g / cm^3
# Si number density = 20.017601 Si / 1000 Ang^3
#
#
#
# Elastic Constant Matrix: (Units=GPa)
#
#
# Indices 1 2 3 4 5 6 
#
# 1 62.9452 16.8942 35.3838 0.0000 0.0000 0.0000
# 2 16.8942 44.5282 20.0742 0.0000 0.0000 0.0000
# 3 35.3838 20.0742 97.7308 0.0000 0.0000 0.0000
# 4 0.0000 0.0000 0.0000 20.0857 0.0000 0.0000
# 5 0.0000 0.0000 0.0000 0.0000 41.1503 0.0000
# 6 0.0000 0.0000 0.0000 0.0000 0.0000 -0.4212
#
#
#
# Elastic Compliance Matrix: (Units=1/GPa)
#
#
# Indices 1 2 3 4 5 6 
#
# 1 0.020903 -0.004980 -0.006545 0.000000 0.000000 0.000000
# 2 -0.004980 0.025936 -0.003524 0.000000 0.000000 0.000000
# 3 -0.006545 -0.003524 0.013326 0.000000 0.000000 0.000000
# 4 0.000000 0.000000 0.000000 0.049787 0.000000 0.000000
# 5 0.000000 0.000000 0.000000 0.000000 0.024301 0.000000
# 6 0.000000 0.000000 0.000000 0.000000 0.000000 -2.373925
#
#
# Mechanical properties :
#
#
# Convention : Reuss Voigt Hill
#
# Bulk Modulus (GPa) = 33.26035 38.87871 36.06953
# Shear Modulus (GPa) = -2.27319 21.01977 9.37329
#
# Velocity S-wave (km/s) = -1.06680 3.24399 2.16626
# Velocity P-wave (km/s) = 3.89027 5.78755 4.93102
#
# Compressibility (1/GPa) = 0.03006583
#
# Stress axis : x y z
#
# Youngs Moduli (GPa) = 47.84102 38.55655 75.04290
#
# Poissons Ratio (x) = 0.19201 0.49115
# Poissons Ratio (y) = 0.23824 0.26447
# Poissons Ratio (z) = 0.31312 0.13589
#
# Static dielectric constant tensor:
#      x y z
#    x 1.747130 0.000000 0.000000 
#    y 0.000000 1.735980 0.000000 
#    z 0.000000 0.000000 1.686650 
# 
# From -- ./inp_files/50077.got.cif
#   From: 2010.05.17/outbox.cif.g08.bks.cpg/sg64_26_cif.got.tgz:50077.got - 2010.06.03 16:29:19.
