data_PCOD9477979
_publ_section_title
;
Structure prediction by ZEFSAII (Michael W. Deem and Ramdas Pophale) SiO2 
 PCOD9477979
Probable space group: C M C A
;
_chemical_formula_sum "Si O2"
_cell_formula_units_Z 104
_cell_length_a 21.658874
_cell_length_b 8.770107
_cell_length_c 27.495408
_cell_angle_alpha 90.000000
_cell_angle_beta 90.000000
_cell_angle_gamma 90.000000
_cell_volume 5222.770415
_symmetry_space_group_name_H-M "C M C A"
_symmetry_group_IT_number 64
_symmetry_cell_setting 'orthorhombic'
loop_
_space_group_symop_operation_xyz
x,y,z
-x,1/2-y,1/2+z
x,-y,-z
-x,1/2+y,1/2-z
-x,-y,-z
x,1/2+y,1/2-z
-x,y,z
x,1/2-y,1/2+z
1/2+x,1/2+y,z
1/2-x,-y,1/2+z
1/2+x,1/2-y,-z
1/2-x,y,1/2-z
1/2-x,1/2-y,-z
1/2+x,y,1/2-z
1/2-x,1/2+y,z
1/2+x,-y,1/2+z
loop_
_atom_site_type_symbol
_atom_site_label
_atom_site_fract_x
_atom_site_fract_y
_atom_site_fract_z
Si Si1 0.573605 0.156094 0.760409
Si Si2 0.336599 0.768221 0.655752
Si Si3 0.069055 0.908015 0.397142
Si Si4 0.767044 0.545815 0.616118
Si Si5 0.795261 0.699958 0.044006
Si Si6 0.601193 0.500000 0.500000
Si Si7 0.571101 0.853706 0.820326
O O1 0.500000 0.199954 0.764819
O O2 0.621322 0.237775 0.797115
O O3 0.594036 0.200939 0.705757
O O4 0.575107 0.980574 0.777284
O O5 0.384548 0.729609 0.612395
O O6 0.281312 0.645640 0.647682
O O7 0.307386 0.933773 0.649252
O O8 0.065602 0.946791 0.452951
O O9 0.000000 0.876487 0.377686
O O10 0.095864 0.053619 0.366708
O O11 0.804263 0.663481 0.582191
O O12 0.732864 0.436912 0.576710
O O13 0.750000 0.750000 0.000000
O O14 0.855654 0.636921 0.018337
O O15 0.500000 0.823811 0.833451
#
# Coordination Sequence:
#
# PCOD9477979 Si02
#       7
#    16  16  16  16  16   8  16
#     4   9  17  34  60  84 108 141 184 232 285 335
#     4  10  19  36  56  84 110 148 187 230 284 335
#     4  10  20  35  57  82 115 149 185 231 285 342
#     4  10  20  33  53  81 112 144 192 236 274 328
#     4  11  18  32  52  79 109 148 196 238 264 322
#     4  12  19  32  54  84 114 148 187 226 292 340
#     4   8  16  32  55  82 107 139 184 227 268 332
#
# _framework density 19.912804000000001
#
# number of rings (size 3 to 8) (size 9 to 14) (size 15 to 20)
#    0.000    2.154    3.077    2.538    0.000    0.000 
#    2.769    0.000    0.000   14.769    0.000    0.000 
#    0.000    0.000    0.000    0.000    0.000    0.000 
#
# Total GULP energy -289637.411762 kJ/mol
# GULP energy per Si atom -5569.950226 kJ/mol
# Density = 1.986748 g / cm^3
# Si number density = 19.912804 Si / 1000 Ang^3
#
#
#
# Elastic Constant Matrix: (Units=GPa)
#
#
# Indices 1 2 3 4 5 6 
#
# 1 81.3686 28.7078 14.9908 0.0000 0.0000 0.0000
# 2 28.7078 68.4621 16.5158 0.0000 0.0000 0.0000
# 3 14.9908 16.5158 49.5508 0.0000 0.0000 0.0000
# 4 0.0000 0.0000 0.0000 34.6369 0.0000 0.0000
# 5 0.0000 0.0000 0.0000 0.0000 26.2828 0.0000
# 6 0.0000 0.0000 0.0000 0.0000 0.0000 15.7010
#
#
#
# Elastic Compliance Matrix: (Units=1/GPa)
#
#
# Indices 1 2 3 4 5 6 
#
# 1 0.014727 -0.005547 -0.002607 0.000000 0.000000 0.000000
# 2 -0.005547 0.017973 -0.004312 0.000000 0.000000 0.000000
# 3 -0.002607 -0.004312 0.022407 0.000000 0.000000 0.000000
# 4 0.000000 0.000000 0.000000 0.028871 0.000000 0.000000
# 5 0.000000 0.000000 0.000000 0.000000 0.038048 0.000000
# 6 0.000000 0.000000 0.000000 0.000000 0.000000 0.063690
#
#
# Mechanical properties :
#
#
# Convention : Reuss Voigt Hill
#
# Bulk Modulus (GPa) = 33.13936 35.53447 34.33691
# Shear Modulus (GPa) = 22.65459 24.60194 23.62827
#
# Velocity S-wave (km/s) = 3.37662 3.51876 3.44842
# Velocity P-wave (km/s) = 5.64628 5.86452 5.75644
#
# Compressibility (1/GPa) = 0.03017560
#
# Stress axis : x y z
#
# Youngs Moduli (GPa) = 67.90310 55.63982 44.62834
#
# Poissons Ratio (x) = 0.30861 0.11633
# Poissons Ratio (y) = 0.37662 0.19246
# Poissons Ratio (z) = 0.17700 0.23995
#
# Static dielectric constant tensor:
#      x y z
#    x 1.718450 0.000000 0.000000 
#    y 0.000000 1.736820 0.000000 
#    z 0.000000 0.000000 1.737860 
# 
# From -- ./inp_files/51039.got.cif
#   From: 2010.05.17/outbox.cif.g08.bks.cpg/sg64_26_cif.got.tgz:51039.got - 2010.06.03 16:29:19.
