data_PCOD9477529
_publ_section_title
;
Structure prediction by ZEFSAII (Michael W. Deem and Ramdas Pophale) SiO2 
 PCOD9477529
Probable space group: C M C A
;
_chemical_formula_sum "Si O2"
_cell_formula_units_Z 96
_cell_length_a 8.397527
_cell_length_b 23.948051
_cell_length_c 27.237584
_cell_angle_alpha 90.000000
_cell_angle_beta 90.000000
_cell_angle_gamma 90.000000
_cell_volume 5477.598120
_symmetry_space_group_name_H-M "C M C A"
_symmetry_group_IT_number 64
_symmetry_cell_setting 'orthorhombic'
loop_
_space_group_symop_operation_xyz
x,y,z
-x,1/2-y,1/2+z
x,-y,-z
-x,1/2+y,1/2-z
-x,-y,-z
x,1/2+y,1/2-z
-x,y,z
x,1/2-y,1/2+z
1/2+x,1/2+y,z
1/2-x,-y,1/2+z
1/2+x,1/2-y,-z
1/2-x,y,1/2-z
1/2-x,1/2-y,-z
1/2+x,y,1/2-z
1/2-x,1/2+y,z
1/2+x,-y,1/2+z
loop_
_atom_site_type_symbol
_atom_site_label
_atom_site_fract_x
_atom_site_fract_y
_atom_site_fract_z
Si Si1 0.689375 0.257802 0.055021
Si Si2 0.182279 0.145994 0.619280
Si Si3 0.685314 0.227068 0.696754
Si Si4 0.809030 0.323848 0.639686
Si Si5 0.809234 0.442246 0.304286
Si Si6 0.691322 0.429772 0.803666
O O1 0.500000 0.252789 0.058042
O O2 0.735489 0.319973 0.074809
O O3 0.761870 0.208676 0.089775
O O4 0.750000 0.250000 0.000000
O O5 0.201209 0.192801 0.661061
O O6 0.255170 0.093251 0.648276
O O7 0.000000 0.134794 0.606649
O O8 0.500000 0.211236 0.690565
O O9 0.750000 0.217061 0.750000
O O10 0.712742 0.290491 0.681316
O O11 0.768095 0.388260 0.651463
O O12 0.000000 0.317907 0.645832
O O13 0.750000 0.422352 0.250000
O O14 0.752049 0.506363 0.309811
O O15 0.000000 0.440496 0.302591
O O16 0.500000 0.431682 0.801327
O O17 0.750000 0.410014 0.750000
#
# Coordination Sequence:
#
# PCOD9477529 Si02
#       6
#    16  16  16  16  16  16
#     4  11  22  38  58  80 102 130 164 209 262 313
#     4  11  21  34  51  74 100 131 168 210 254 303
#     4  11  20  30  44  67  98 133 166 204 250 301
#     4  10  19  33  51  75 102 132 168 209 252 303
#     4  10  19  33  50  74 106 143 179 212 248 295
#     4   9  19  32  50  74 106 143 178 210 247 293
#
# _framework density 17.525929999999999
#
# number of rings (size 3 to 8) (size 9 to 14) (size 15 to 20)
#    0.000    1.667    0.000    8.500    0.000    3.333 
#    0.000    0.000    0.000    1.000    0.000    7.000 
#    0.000    0.000    0.000    0.000    0.000    0.000 
#
# Total GULP energy -267381.311267 kJ/mol
# GULP energy per Si atom -5570.443985 kJ/mol
# Density = 1.748604 g / cm^3
# Si number density = 17.525930 Si / 1000 Ang^3
#
#
#
# Elastic Constant Matrix: (Units=GPa)
#
#
# Indices 1 2 3 4 5 6 
#
# 1 66.5381 14.7708 15.9337 0.0000 0.0000 0.0000
# 2 14.7708 96.7879 43.9893 0.0000 0.0000 0.0000
# 3 15.9337 43.9893 78.0017 0.0000 0.0000 0.0000
# 4 0.0000 0.0000 0.0000 26.8394 0.0000 0.0000
# 5 0.0000 0.0000 0.0000 0.0000 25.6391 0.0000
# 6 0.0000 0.0000 0.0000 0.0000 0.0000 21.6278
#
#
#
# Elastic Compliance Matrix: (Units=1/GPa)
#
#
# Indices 1 2 3 4 5 6 
#
# 1 0.015919 -0.001279 -0.002530 0.000000 0.000000 0.000000
# 2 -0.001279 0.013996 -0.007632 0.000000 0.000000 0.000000
# 3 -0.002530 -0.007632 0.017641 0.000000 0.000000 0.000000
# 4 0.000000 0.000000 0.000000 0.037259 0.000000 0.000000
# 5 0.000000 0.000000 0.000000 0.000000 0.039003 0.000000
# 6 0.000000 0.000000 0.000000 0.000000 0.000000 0.046237
#
#
# Mechanical properties :
#
#
# Convention : Reuss Voigt Hill
#
# Bulk Modulus (GPa) = 40.53012 43.41284 41.97148
# Shear Modulus (GPa) = 24.85576 25.93017 25.39297
#
# Velocity S-wave (km/s) = 3.77002 3.85064 3.81055
# Velocity P-wave (km/s) = 6.49051 6.67790 6.58487
#
# Compressibility (1/GPa) = 0.02467301
#
# Stress axis : x y z
#
# Youngs Moduli (GPa) = 62.81836 71.45109 56.68636
#
# Poissons Ratio (x) = 0.09141 0.14343
# Poissons Ratio (y) = 0.08037 0.43260
# Poissons Ratio (z) = 0.15895 0.54528
#
# Static dielectric constant tensor:
#      x y z
#    x 1.596370 0.000000 0.000000 
#    y 0.000000 1.662120 0.000000 
#    z 0.000000 0.000000 1.581850 
# 
# From -- ./inp_files/48391.got.cif
#   From: 2010.05.17/outbox.cif.g08.bks.cpg/sg64_25_cif.got.tgz:48391.got - 2010.06.03 16:29:19.
