data_PCOD9477651
_publ_section_title
;
Structure prediction by ZEFSAII (Michael W. Deem and Ramdas Pophale) SiO2 
 PCOD9477651
Probable space group: C M C A
;
_chemical_formula_sum "Si O2"
_cell_formula_units_Z 112
_cell_length_a 13.684419
_cell_length_b 13.678230
_cell_length_c 26.091400
_cell_angle_alpha 90.000000
_cell_angle_beta 90.000000
_cell_angle_gamma 90.000000
_cell_volume 4883.752520
_symmetry_space_group_name_H-M "C M C A"
_symmetry_group_IT_number 64
_symmetry_cell_setting 'orthorhombic'
loop_
_space_group_symop_operation_xyz
x,y,z
-x,1/2-y,1/2+z
x,-y,-z
-x,1/2+y,1/2-z
-x,-y,-z
x,1/2+y,1/2-z
-x,y,z
x,1/2-y,1/2+z
1/2+x,1/2+y,z
1/2-x,-y,1/2+z
1/2+x,1/2-y,-z
1/2-x,y,1/2-z
1/2-x,1/2-y,-z
1/2+x,y,1/2-z
1/2-x,1/2+y,z
1/2+x,-y,1/2+z
loop_
_atom_site_type_symbol
_atom_site_label
_atom_site_fract_x
_atom_site_fract_y
_atom_site_fract_z
Si Si1 0.115948 0.130136 0.864541
Si Si2 0.381253 0.309827 0.022729
Si Si3 0.387722 0.902557 0.951412
Si Si4 0.761869 0.973390 0.306645
Si Si5 0.807008 0.834881 0.653070
Si Si6 0.887008 0.908725 0.401961
Si Si7 0.887975 0.678440 0.411670
O O1 0.149725 0.139331 0.924088
O O2 0.158450 0.037149 0.835601
O O3 0.160600 0.225177 0.836005
O O4 0.000000 0.132954 0.863419
O O5 0.500000 0.303658 0.025680
O O6 0.344311 0.196800 0.024003
O O7 0.363395 0.361507 0.968515
O O8 0.500000 0.906929 0.969486
O O9 0.380866 0.870804 0.891334
O O10 0.349948 0.014409 0.945370
O O11 0.750000 0.932327 0.250000
O O12 0.831203 0.920510 0.348239
O O13 0.803200 0.083473 0.303568
O O14 0.700000 0.839654 0.626996
O O15 0.887129 0.796202 0.417494
O O16 0.000000 0.935600 0.394077
O O17 0.000000 0.649745 0.398003
#
# Coordination Sequence:
#
# PCOD9477651 Si02
#       7
#    16  16  16  16  16  16  16
#     4  10  21  41  65  91 124 160 201 248 302 368
#     4   8  16  31  55  86 120 161 197 236 290 356
#     4   8  15  29  51  78 110 147 190 234 284 343
#     4  11  24  41  63  86 115 151 202 260 314 360
#     4  10  20  37  58  85 120 156 195 250 303 358
#     4   9  18  35  56  82 116 150 189 246 302 356
#     4  10  19  33  56  85 123 163 197 237 294 357
#
# _framework density 22.933184000000001
#
# number of rings (size 3 to 8) (size 9 to 14) (size 15 to 20)
#    0.000    2.571    1.429    1.286    0.000    5.143 
#    0.000    3.571    0.000    2.571    0.000    0.000 
#    0.000    0.000    0.000    0.000    0.000    0.000 
#
# Total GULP energy -312260.647192 kJ/mol
# GULP energy per Si atom -5576.082986 kJ/mol
# Density = 2.288099 g / cm^3
# Si number density = 22.933184 Si / 1000 Ang^3
#
#
#
# Elastic Constant Matrix: (Units=GPa)
#
#
# Indices 1 2 3 4 5 6 
#
# 1 101.5524 5.6936 23.6062 0.0000 0.0000 0.0000
# 2 5.6936 56.3029 -0.1588 0.0000 0.0000 0.0000
# 3 23.6062 -0.1588 79.4239 0.0000 0.0000 0.0000
# 4 0.0000 0.0000 0.0000 8.4978 0.0000 0.0000
# 5 0.0000 0.0000 0.0000 0.0000 14.5652 0.0000
# 6 0.0000 0.0000 0.0000 0.0000 0.0000 22.9571
#
#
#
# Elastic Compliance Matrix: (Units=1/GPa)
#
#
# Indices 1 2 3 4 5 6 
#
# 1 0.010644 -0.001085 -0.003166 0.000000 0.000000 0.000000
# 2 -0.001085 0.017872 0.000358 0.000000 0.000000 0.000000
# 3 -0.003166 0.000358 0.013532 0.000000 0.000000 0.000000
# 4 0.000000 0.000000 0.000000 0.117677 0.000000 0.000000
# 5 0.000000 0.000000 0.000000 0.000000 0.068657 0.000000
# 6 0.000000 0.000000 0.000000 0.000000 0.000000 0.043559
#
#
# Mechanical properties :
#
#
# Convention : Reuss Voigt Hill
#
# Bulk Modulus (GPa) = 29.18638 32.84016 31.01327
# Shear Modulus (GPa) = 17.17342 23.07991 20.12667
#
# Velocity S-wave (km/s) = 2.73947 3.17582 2.96568
# Velocity P-wave (km/s) = 4.77081 5.27246 5.02789
#
# Compressibility (1/GPa) = 0.03426256
#
# Stress axis : x y z
#
# Youngs Moduli (GPa) = 93.95086 55.95399 73.89734
#
# Poissons Ratio (x) = 0.06073 0.23394
# Poissons Ratio (y) = 0.10196 -0.02648
# Poissons Ratio (z) = 0.29742 -0.02005
#
# Static dielectric constant tensor:
#      x y z
#    x 1.898020 0.000000 0.000000 
#    y 0.000000 1.949600 0.000000 
#    z 0.000000 0.000000 1.884190 
# 
# From -- ./inp_files/50051.got.cif
#   From: 2010.05.17/outbox.cif.g08.bks.cpg/sg64_26_cif.got.tgz:50051.got - 2010.06.03 16:29:19.
