data_PCOD9477972
_publ_section_title
;
Structure prediction by ZEFSAII (Michael W. Deem and Ramdas Pophale) SiO2 
 PCOD9477972
Probable space group: C M C A
;
_chemical_formula_sum "Si O2"
_cell_formula_units_Z 96
_cell_length_a 20.270000
_cell_length_b 12.025341
_cell_length_c 20.185748
_cell_angle_alpha 90.000000
_cell_angle_beta 90.000000
_cell_angle_gamma 90.000000
_cell_volume 4920.349997
_symmetry_space_group_name_H-M "C M C A"
_symmetry_group_IT_number 64
_symmetry_cell_setting 'orthorhombic'
loop_
_space_group_symop_operation_xyz
x,y,z
-x,1/2-y,1/2+z
x,-y,-z
-x,1/2+y,1/2-z
-x,-y,-z
x,1/2+y,1/2-z
-x,y,z
x,1/2-y,1/2+z
1/2+x,1/2+y,z
1/2-x,-y,1/2+z
1/2+x,1/2-y,-z
1/2-x,y,1/2-z
1/2-x,1/2-y,-z
1/2+x,y,1/2-z
1/2-x,1/2+y,z
1/2+x,-y,1/2+z
loop_
_atom_site_type_symbol
_atom_site_label
_atom_site_fract_x
_atom_site_fract_y
_atom_site_fract_z
Si Si1 0.250000 0.105013 0.750000
Si Si2 0.500000 0.132445 0.886583
Si Si3 0.356432 0.866313 0.856780
Si Si4 0.354339 0.423276 0.794346
Si Si5 0.225570 0.254312 0.623153
Si Si6 0.000000 0.138318 0.196752
Si Si7 0.358992 0.079450 0.937241
Si Si8 0.500000 0.377194 0.650984
O O1 0.310518 0.030812 0.722138
O O2 0.227163 0.180353 0.689445
O O3 0.500000 0.245475 0.843684
O O4 0.433024 0.125613 0.928783
O O5 0.500000 0.013442 0.846893
O O6 0.351962 0.858254 0.776844
O O7 0.299629 0.794196 0.889385
O O8 0.345954 0.994888 0.876202
O O9 0.430855 0.841213 0.880137
O O10 0.318107 0.358775 0.853571
O O11 0.431766 0.429655 0.812688
O O12 0.191732 0.180379 0.567254
O O13 0.000000 0.166987 0.274571
O O14 0.353293 0.000000 0.000000
#
# Coordination Sequence:
#
# PCOD9477972 Si02
#       8
#     8   8  16  16  16   8  16   8
#     4  12  20  34  54  80 116 148 178 224 292 344
#     4  10  19  38  58  76 115 152 185 229 286 340
#     4  10  19  36  53  82 108 145 187 230 282 335
#     4  11  19  33  52  83 112 136 182 231 280 341
#     4  12  20  34  59  79 112 151 184 229 288 337
#     4  10  20  31  53  82 110 144 178 228 286 331
#     4  11  23  37  57  83 114 152 193 234 276 339
#     4   8  20  33  51  80 116 136 179 236 279 337
#
# _framework density 19.510807
#
# number of rings (size 3 to 8) (size 9 to 14) (size 15 to 20)
#    0.000    1.333    6.667    0.250    0.000    0.667 
#    0.000    0.000    0.000    0.000    0.000    0.583 
#    0.000    0.000    0.000    0.000    0.000    0.000 
#
# Total GULP energy -267634.239432 kJ/mol
# GULP energy per Si atom -5575.713321 kJ/mol
# Density = 1.946640 g / cm^3
# Si number density = 19.510807 Si / 1000 Ang^3
#
#
#
# Elastic Constant Matrix: (Units=GPa)
#
#
# Indices 1 2 3 4 5 6 
#
# 1 141.5802 43.2824 -5.3390 0.0000 0.0000 0.0000
# 2 43.2824 36.0619 -9.1644 0.0000 0.0000 0.0000
# 3 -5.3390 -9.1644 17.7500 0.0000 0.0000 0.0000
# 4 0.0000 0.0000 0.0000 19.8458 0.0000 0.0000
# 5 0.0000 0.0000 0.0000 0.0000 7.1784 0.0000
# 6 0.0000 0.0000 0.0000 0.0000 0.0000 17.7601
#
#
#
# Elastic Compliance Matrix: (Units=1/GPa)
#
#
# Indices 1 2 3 4 5 6 
#
# 1 0.011422 -0.014774 -0.004192 0.000000 0.000000 0.000000
# 2 -0.014774 0.051028 0.021902 0.000000 0.000000 0.000000
# 3 -0.004192 0.021902 0.066385 0.000000 0.000000 0.000000
# 4 0.000000 0.000000 0.000000 0.050388 0.000000 0.000000
# 5 0.000000 0.000000 0.000000 0.000000 0.139307 0.000000
# 6 0.000000 0.000000 0.000000 0.000000 0.000000 0.056306
#
#
# Mechanical properties :
#
#
# Convention : Reuss Voigt Hill
#
# Bulk Modulus (GPa) = 7.42350 28.10556 17.76453
# Shear Modulus (GPa) = 12.08119 20.06439 16.07279
#
# Velocity S-wave (km/s) = 2.49108 3.21031 2.87329
# Velocity P-wave (km/s) = 3.47665 5.30828 4.48692
#
# Compressibility (1/GPa) = 0.13470737
#
# Stress axis : x y z
#
# Youngs Moduli (GPa) = 87.55385 19.59707 15.06354
#
# Poissons Ratio (x) = 0.28952 0.06315
# Poissons Ratio (y) = 1.29351 -0.32993
# Poissons Ratio (z) = 0.36706 -0.42922
#
# Static dielectric constant tensor:
#      x y z
#    x 1.745190 0.000000 0.000000 
#    y 0.000000 1.673090 0.000000 
#    z 0.000000 0.000000 1.695530 
# 
# From -- ./inp_files/40922.got.cif
#   From: 2010.05.17/outbox.cif.g08.bks.cpg/sg64_21_cif.got.tgz:40922.got - 2010.06.03 16:29:19.
