data_PCOD9477420
_publ_section_title
;
Structure prediction by ZEFSAII (Michael W. Deem and Ramdas Pophale) SiO2 
 PCOD9477420
Probable space group: C M C A
;
_chemical_formula_sum "Si O2"
_cell_formula_units_Z 80
_cell_length_a 16.993336
_cell_length_b 29.159895
_cell_length_c 8.890154
_cell_angle_alpha 90.000000
_cell_angle_beta 90.000000
_cell_angle_gamma 90.000000
_cell_volume 4405.283724
_symmetry_space_group_name_H-M "C M C A"
_symmetry_group_IT_number 64
_symmetry_cell_setting 'orthorhombic'
loop_
_space_group_symop_operation_xyz
x,y,z
-x,1/2-y,1/2+z
x,-y,-z
-x,1/2+y,1/2-z
-x,-y,-z
x,1/2+y,1/2-z
-x,y,z
x,1/2-y,1/2+z
1/2+x,1/2+y,z
1/2-x,-y,1/2+z
1/2+x,1/2-y,-z
1/2-x,y,1/2-z
1/2-x,1/2-y,-z
1/2+x,y,1/2-z
1/2-x,1/2+y,z
1/2+x,-y,1/2+z
loop_
_atom_site_type_symbol
_atom_site_label
_atom_site_fract_x
_atom_site_fract_y
_atom_site_fract_z
Si Si1 0.089587 0.703360 0.482417
Si Si2 0.664655 0.220363 0.174163
Si Si3 0.091028 0.596922 0.434240
Si Si4 0.826170 0.118673 0.360569
Si Si5 0.257627 0.549694 0.929440
O O1 0.102298 0.716373 0.308869
O O2 0.147026 0.735629 0.575443
O O3 0.105306 0.649082 0.492293
O O4 0.000000 0.711972 0.528660
O O5 0.750000 0.223698 0.250000
O O6 0.659365 0.171157 0.090764
O O7 0.107920 0.599797 0.254232
O O8 0.155347 0.565195 0.514732
O O9 0.000000 0.584811 0.461446
O O10 0.750000 0.120268 0.250000
O O11 0.803079 0.085760 0.496162
O O12 0.250000 0.548798 0.750000
O O13 0.241687 0.500000 0.000000
#
# Coordination Sequence:
#
# PCOD9477420 Si02
#       5
#    16  16  16  16  16
#     4  10  20  33  50  76 111 145 176 215 264 309
#     4  10  19  32  51  75 104 142 185 220 254 305
#     4   9  19  36  56  79 110 145 180 221 266 312
#     4   8  17  35  55  77 104 140 181 220 265 314
#     4  11  22  38  60  82 106 137 175 220 272 327
#
# _framework density 18.16001
#
# number of rings (size 3 to 8) (size 9 to 14) (size 15 to 20)
#    0.000    2.400    0.000    4.200    0.000    3.600 
#    0.000    1.000    0.000    2.400    0.000    0.000 
#    0.000    0.000    0.000    0.000    0.000    0.000 
#
# Total GULP energy -223070.839606 kJ/mol
# GULP energy per Si atom -5576.770990 kJ/mol
# Density = 1.811868 g / cm^3
# Si number density = 18.160010 Si / 1000 Ang^3
#
#
#
# Elastic Constant Matrix: (Units=GPa)
#
#
# Indices 1 2 3 4 5 6 
#
# 1 68.2725 37.1624 25.0461 0.0000 0.0000 0.0000
# 2 37.1624 84.7122 53.9424 0.0000 0.0000 0.0000
# 3 25.0461 53.9424 80.4676 0.0000 0.0000 0.0000
# 4 0.0000 0.0000 0.0000 26.5323 0.0000 0.0000
# 5 0.0000 0.0000 0.0000 0.0000 18.9224 0.0000
# 6 0.0000 0.0000 0.0000 0.0000 0.0000 0.8902
#
#
#
# Elastic Compliance Matrix: (Units=1/GPa)
#
#
# Indices 1 2 3 4 5 6 
#
# 1 0.019257 -0.008081 -0.000577 0.000000 0.000000 0.000000
# 2 -0.008081 0.023987 -0.013565 0.000000 0.000000 0.000000
# 3 -0.000577 -0.013565 0.021701 0.000000 0.000000 0.000000
# 4 0.000000 0.000000 0.000000 0.037690 0.000000 0.000000
# 5 0.000000 0.000000 0.000000 0.000000 0.052847 0.000000
# 6 0.000000 0.000000 0.000000 0.000000 0.000000 1.123320
#
#
# Mechanical properties :
#
#
# Convention : Reuss Voigt Hill
#
# Bulk Modulus (GPa) = 48.78105 51.75047 50.26576
# Shear Modulus (GPa) = 3.75917 17.08906 10.42412
#
# Velocity S-wave (km/s) = 1.44032 3.07094 2.39846
# Velocity P-wave (km/s) = 5.44850 6.41351 5.95060
#
# Compressibility (1/GPa) = 0.02049976
#
# Stress axis : x y z
#
# Youngs Moduli (GPa) = 51.92833 41.68850 46.08175
#
# Poissons Ratio (x) = 0.33686 0.02659
# Poissons Ratio (y) = 0.41961 0.62511
# Poissons Ratio (z) = 0.02997 0.56551
#
# Static dielectric constant tensor:
#      x y z
#    x 1.649600 0.000000 0.000000 
#    y 0.000000 1.627660 0.000000 
#    z 0.000000 0.000000 1.646570 
# 
# From -- ./inp_files/7025.got.cif
#   From: 2010.05.17/outbox.cif.g08.bks.cpg/sg64_4_cif.got.tgz:7025.got - 2010.06.03 16:29:19.
