data_PCOD9477418
_publ_section_title
;
Structure prediction by ZEFSAII (Michael W. Deem and Ramdas Pophale) SiO2 
 PCOD9477418
Probable space group: C M C A
;
_chemical_formula_sum "Si O2"
_cell_formula_units_Z 96
_cell_length_a 9.080649
_cell_length_b 19.527657
_cell_length_c 31.800372
_cell_angle_alpha 90.000000
_cell_angle_beta 90.000000
_cell_angle_gamma 90.000000
_cell_volume 5638.962773
_symmetry_space_group_name_H-M "C M C A"
_symmetry_group_IT_number 64
_symmetry_cell_setting 'orthorhombic'
loop_
_space_group_symop_operation_xyz
x,y,z
-x,1/2-y,1/2+z
x,-y,-z
-x,1/2+y,1/2-z
-x,-y,-z
x,1/2+y,1/2-z
-x,y,z
x,1/2-y,1/2+z
1/2+x,1/2+y,z
1/2-x,-y,1/2+z
1/2+x,1/2-y,-z
1/2-x,y,1/2-z
1/2-x,1/2-y,-z
1/2+x,y,1/2-z
1/2-x,1/2+y,z
1/2+x,-y,1/2+z
loop_
_atom_site_type_symbol
_atom_site_label
_atom_site_fract_x
_atom_site_fract_y
_atom_site_fract_z
Si Si1 0.173983 0.183739 0.048516
Si Si2 0.325535 0.171221 0.548208
Si Si3 0.331459 0.415431 0.291830
Si Si4 0.677951 0.426229 0.384407
Si Si5 0.170405 0.917669 0.707442
Si Si6 0.675514 0.074130 0.378566
O O1 0.270388 0.251312 0.055306
O O2 0.201659 0.126968 0.083697
O O3 0.000000 0.202526 0.050237
O O4 0.202258 0.156778 0.001266
O O5 0.500000 0.165128 0.555830
O O6 0.237211 0.120989 0.578553
O O7 0.500000 0.393406 0.288958
O O8 0.250000 0.391416 0.250000
O O9 0.274796 0.397215 0.338357
O O10 0.328162 0.498811 0.291507
O O11 0.500000 0.430562 0.384298
O O12 0.746396 0.501892 0.388027
O O13 0.250000 0.894036 0.750000
O O14 0.257162 0.898655 0.665225
O O15 0.000000 0.896485 0.705934
O O16 0.500000 0.063759 0.373918
#
# Coordination Sequence:
#
# PCOD9477418 Si02
#       6
#    16  16  16  16  16  16
#     4   9  20  37  54  73  99 131 166 206 253 303
#     4  10  20  35  55  75  96 129 171 208 247 302
#     4   8  15  26  42  65  94 127 159 194 236 284
#     4  10  20  33  49  74 106 134 164 206 253 297
#     4   9  16  27  44  69 100 132 166 202 244 293
#     4  10  19  32  51  75 103 133 166 207 253 296
#
# _framework density 17.024407
#
# number of rings (size 3 to 8) (size 9 to 14) (size 15 to 20)
#    0.000    2.667    0.000    3.000    0.000    7.333 
#    0.000    3.333    0.000    1.000    0.000    4.667 
#    0.000    0.000    0.000    0.000    0.000    0.000 
#
# Total GULP energy -267525.263325 kJ/mol
# GULP energy per Si atom -5573.442986 kJ/mol
# Density = 1.698566 g / cm^3
# Si number density = 17.024407 Si / 1000 Ang^3
#
#
#
# Elastic Constant Matrix: (Units=GPa)
#
#
# Indices 1 2 3 4 5 6 
#
# 1 95.5517 42.7453 87.1424 0.0000 0.0000 0.0000
# 2 42.7453 38.1978 64.3008 0.0000 0.0000 0.0000
# 3 87.1424 64.3008 159.1613 0.0000 0.0000 0.0000
# 4 0.0000 0.0000 0.0000 -13.7110 0.0000 0.0000
# 5 0.0000 0.0000 0.0000 0.0000 33.6965 0.0000
# 6 0.0000 0.0000 0.0000 0.0000 0.0000 19.3013
#
#
#
# Elastic Compliance Matrix: (Units=1/GPa)
#
#
# Indices 1 2 3 4 5 6 
#
# 1 0.023154 -0.014286 -0.006906 0.000000 0.000000 0.000000
# 2 -0.014286 0.090645 -0.028799 0.000000 0.000000 0.000000
# 3 -0.006906 -0.028799 0.021698 0.000000 0.000000 0.000000
# 4 0.000000 0.000000 0.000000 -0.072934 0.000000 0.000000
# 5 0.000000 0.000000 0.000000 0.000000 0.029677 0.000000
# 6 0.000000 0.000000 0.000000 0.000000 0.000000 0.051810
#
#
# Mechanical properties :
#
#
# Convention : Reuss Voigt Hill
#
# Bulk Modulus (GPa) = 28.15555 75.69863 51.92709
# Shear Modulus (GPa) = 19.54114 14.43884 16.98999
#
# Velocity S-wave (km/s) = 3.39164 2.91542 3.16251
# Velocity P-wave (km/s) = 5.64906 7.47624 6.62594
#
# Compressibility (1/GPa) = 0.03551698
#
# Stress axis : x y z
#
# Youngs Moduli (GPa) = 43.18820 11.03204 46.08632
#
# Poissons Ratio (x) = 0.15761 0.31826
# Poissons Ratio (y) = 0.61700 1.32722
# Poissons Ratio (z) = 0.29824 0.31771
#
# Static dielectric constant tensor:
#      x y z
#    x 1.573600 0.000000 0.000000 
#    y 0.000000 1.540500 0.000000 
#    z 0.000000 0.000000 1.590220 
# 
# From -- ./inp_files/48147.got.cif
#   From: 2010.05.17/outbox.cif.g08.bks.cpg/sg64_25_cif.got.tgz:48147.got - 2010.06.03 16:29:19.
