data_PCOD9477479
_publ_section_title
;
Structure prediction by ZEFSAII (Michael W. Deem and Ramdas Pophale) SiO2 
 PCOD9477479
Probable space group: C M C A
;
_chemical_formula_sum "Si O2"
_cell_formula_units_Z 80
_cell_length_a 15.674876
_cell_length_b 12.771032
_cell_length_c 21.388110
_cell_angle_alpha 90.000000
_cell_angle_beta 90.000000
_cell_angle_gamma 90.000000
_cell_volume 4281.564748
_symmetry_space_group_name_H-M "C M C A"
_symmetry_group_IT_number 64
_symmetry_cell_setting 'orthorhombic'
loop_
_space_group_symop_operation_xyz
x,y,z
-x,1/2-y,1/2+z
x,-y,-z
-x,1/2+y,1/2-z
-x,-y,-z
x,1/2+y,1/2-z
-x,y,z
x,1/2-y,1/2+z
1/2+x,1/2+y,z
1/2-x,-y,1/2+z
1/2+x,1/2-y,-z
1/2-x,y,1/2-z
1/2-x,1/2-y,-z
1/2+x,y,1/2-z
1/2-x,1/2+y,z
1/2+x,-y,1/2+z
loop_
_atom_site_type_symbol
_atom_site_label
_atom_site_fract_x
_atom_site_fract_y
_atom_site_fract_z
Si Si1 0.100327 0.036439 0.566095
Si Si2 0.898270 0.835113 0.201612
Si Si3 0.354942 0.432622 0.813494
Si Si4 0.344045 0.614921 0.327048
Si Si5 0.600255 0.207292 0.842658
O O1 0.110634 0.945235 0.617204
O O2 0.000000 0.057144 0.554641
O O3 0.138419 0.000000 0.500000
O O4 0.137480 0.138950 0.600828
O O5 0.852266 0.739658 0.166884
O O6 0.865966 0.828297 0.274178
O O7 0.000000 0.814848 0.201470
O O8 0.881957 0.949183 0.173163
O O9 0.382017 0.413107 0.741095
O O10 0.253626 0.421245 0.821938
O O11 0.390823 0.331801 0.849536
O O12 0.500000 0.182152 0.839916
#
# Coordination Sequence:
#
# PCOD9477479 Si02
#       5
#    16  16  16  16  16
#     4  10  20  36  57  77 105 147 190 224 254 313
#     4  10  19  32  53  80 111 141 172 222 278 328
#     4  10  20  31  54  80 113 138 166 224 285 325
#     4  10  21  32  52  81 111 137 177 219 274 328
#     4   9  18  32  52  77 106 139 181 219 264 324
#
# _framework density 18.684757999999999
#
# number of rings (size 3 to 8) (size 9 to 14) (size 15 to 20)
#    0.000    2.200    2.000    1.200    2.800    3.200 
#    0.000    1.000    0.000    0.000    0.000    5.600 
#    0.000    0.000    0.000    0.000    0.000    0.000 
#
# Total GULP energy -222962.700440 kJ/mol
# GULP energy per Si atom -5574.067511 kJ/mol
# Density = 1.864223 g / cm^3
# Si number density = 18.684758 Si / 1000 Ang^3
#
#
#
# Elastic Constant Matrix: (Units=GPa)
#
#
# Indices 1 2 3 4 5 6 
#
# 1 22.8595 -11.4273 -9.5190 0.0000 0.0000 0.0000
# 2 -11.4273 112.1994 3.9480 0.0000 0.0000 0.0000
# 3 -9.5190 3.9480 22.2709 0.0000 0.0000 0.0000
# 4 0.0000 0.0000 0.0000 10.7439 0.0000 0.0000
# 5 0.0000 0.0000 0.0000 0.0000 12.2324 0.0000
# 6 0.0000 0.0000 0.0000 0.0000 0.0000 25.7832
#
#
#
# Elastic Compliance Matrix: (Units=1/GPa)
#
#
# Indices 1 2 3 4 5 6 
#
# 1 0.055741 0.004869 0.022962 0.000000 0.000000 0.000000
# 2 0.004869 0.009394 0.000416 0.000000 0.000000 0.000000
# 3 0.022962 0.000416 0.054642 0.000000 0.000000 0.000000
# 4 0.000000 0.000000 0.000000 0.093076 0.000000 0.000000
# 5 0.000000 0.000000 0.000000 0.000000 0.081750 0.000000
# 6 0.000000 0.000000 0.000000 0.000000 0.000000 0.038785
#
#
# Mechanical properties :
#
#
# Convention : Reuss Voigt Hill
#
# Bulk Modulus (GPa) = 5.67310 13.70369 9.68840
# Shear Modulus (GPa) = 14.89639 21.37377 18.13508
#
# Velocity S-wave (km/s) = 2.82662 3.38585 3.11880
# Velocity P-wave (km/s) = 3.70079 4.75767 4.26211
#
# Compressibility (1/GPa) = 0.17627049
#
# Stress axis : x y z
#
# Youngs Moduli (GPa) = 17.94011 106.45108 18.30086
#
# Poissons Ratio (x) = -0.51833 -0.42022
# Poissons Ratio (y) = -0.08735 -0.00761
# Poissons Ratio (z) = -0.41193 -0.04427
#
# Static dielectric constant tensor:
#      x y z
#    x 1.688600 0.000000 0.000000 
#    y 0.000000 1.685060 0.000000 
#    z 0.000000 0.000000 1.654440 
# 
# From -- ./inp_files/44965.got.cif
#   From: 2010.05.17/outbox.cif.g08.bks.cpg/sg64_23_cif.got.tgz:44965.got - 2010.06.03 16:29:19.
