data_PCOD9477353
_publ_section_title
;
Structure prediction by ZEFSAII (Michael W. Deem and Ramdas Pophale) SiO2 
 PCOD9477353
Probable space group: C M C A
;
_chemical_formula_sum "Si O2"
_cell_formula_units_Z 112
_cell_length_a 15.738759
_cell_length_b 14.938239
_cell_length_c 27.271287
_cell_angle_alpha 90.000000
_cell_angle_beta 90.000000
_cell_angle_gamma 90.000000
_cell_volume 6411.734383
_symmetry_space_group_name_H-M "C M C A"
_symmetry_group_IT_number 64
_symmetry_cell_setting 'orthorhombic'
loop_
_space_group_symop_operation_xyz
x,y,z
-x,1/2-y,1/2+z
x,-y,-z
-x,1/2+y,1/2-z
-x,-y,-z
x,1/2+y,1/2-z
-x,y,z
x,1/2-y,1/2+z
1/2+x,1/2+y,z
1/2-x,-y,1/2+z
1/2+x,1/2-y,-z
1/2-x,y,1/2-z
1/2-x,1/2-y,-z
1/2+x,y,1/2-z
1/2-x,1/2+y,z
1/2+x,-y,1/2+z
loop_
_atom_site_type_symbol
_atom_site_label
_atom_site_fract_x
_atom_site_fract_y
_atom_site_fract_z
Si Si1 0.594300 0.546300 0.307923
Si Si2 0.903841 0.159043 0.679726
Si Si3 0.259332 0.422613 0.872107
Si Si4 0.339427 0.165257 0.277553
Si Si5 0.263250 0.621876 0.600168
Si Si6 0.093797 0.102278 0.516949
Si Si7 0.797535 0.715126 0.048899
O O1 0.500000 0.563497 0.327424
O O2 0.601524 0.440238 0.297738
O O3 0.665577 0.573309 0.347250
O O4 0.610336 0.599263 0.258120
O O5 0.888448 0.242223 0.715095
O O6 0.824313 0.160129 0.642639
O O7 0.000000 0.166478 0.658639
O O8 0.319376 0.381241 0.829965
O O9 0.276665 0.526177 0.885813
O O10 0.254245 0.358922 0.919645
O O11 0.250000 0.182286 0.250000
O O12 0.331561 0.607274 0.556695
O O13 0.197076 0.697617 0.583331
O O14 0.119264 0.166253 0.471750
O O15 0.000000 0.125830 0.536099
O O16 0.091913 0.000000 0.500000
O O17 0.750000 0.750000 0.000000
#
# Coordination Sequence:
#
# PCOD9477353 Si02
#       7
#    16  16  16  16  16  16  16
#     4   9  20  35  52  76 103 134 173 217 264 308
#     4  10  19  32  54  76 100 133 170 213 258 307
#     4  10  19  34  52  79 104 136 174 212 264 311
#     4  10  20  34  52  75 106 139 173 215 259 311
#     4  10  19  33  53  76 105 133 173 209 257 309
#     4  10  19  31  51  77 105 133 166 215 264 303
#     4  10  20  33  52  79 106 138 173 215 259 314
#
# _framework density 17.467973000000001
#
# number of rings (size 3 to 8) (size 9 to 14) (size 15 to 20)
#    0.000    2.143    2.857    0.857    0.000    4.000 
#    0.000    0.000    0.000    1.714    0.000    2.000 
#    0.000    0.000    0.000    0.000    0.000    0.000 
#
# Total GULP energy -311888.295113 kJ/mol
# GULP energy per Si atom -5569.433841 kJ/mol
# Density = 1.742821 g / cm^3
# Si number density = 17.467973 Si / 1000 Ang^3
#
#
#
# Elastic Constant Matrix: (Units=GPa)
#
#
# Indices 1 2 3 4 5 6 
#
# 1 35.3339 24.5164 2.4662 0.0000 0.0000 0.0000
# 2 24.5164 107.7665 42.3178 0.0000 0.0000 0.0000
# 3 2.4662 42.3178 59.9400 0.0000 0.0000 0.0000
# 4 0.0000 0.0000 0.0000 34.0151 0.0000 0.0000
# 5 0.0000 0.0000 0.0000 0.0000 -1.8263 0.0000
# 6 0.0000 0.0000 0.0000 0.0000 0.0000 -34.4420
#
#
#
# Elastic Compliance Matrix: (Units=1/GPa)
#
#
# Indices 1 2 3 4 5 6 
#
# 1 0.034998 -0.010234 0.005785 0.000000 0.000000 0.000000
# 2 -0.010234 0.015831 -0.010756 0.000000 0.000000 0.000000
# 3 0.005785 -0.010756 0.024039 0.000000 0.000000 0.000000
# 4 0.000000 0.000000 0.000000 0.029399 0.000000 0.000000
# 5 0.000000 0.000000 0.000000 0.000000 -0.547562 0.000000
# 6 0.000000 0.000000 0.000000 0.000000 0.000000 -0.029034
#
#
# Mechanical properties :
#
#
# Convention : Reuss Voigt Hill
#
# Bulk Modulus (GPa) = 22.49242 37.96015 30.22629
# Shear Modulus (GPa) = -11.70683 8.46536 -1.62074
#
# Velocity S-wave (km/s) = -2.59161 2.20380 -0.96429
# Velocity P-wave (km/s) = 1.98723 5.31546 4.01268
#
# Compressibility (1/GPa) = 0.04445941
#
# Stress axis : x y z
#
# Youngs Moduli (GPa) = 28.57294 63.16751 41.59939
#
# Poissons Ratio (x) = 0.64643 -0.24065
# Poissons Ratio (y) = 0.29240 0.44743
# Poissons Ratio (z) = -0.16529 0.67941
#
# Static dielectric constant tensor:
#      x y z
#    x 1.594740 0.000000 0.000000 
#    y 0.000000 1.605830 0.000000 
#    z 0.000000 0.000000 1.621560 
# 
# From -- ./inp_files/50052.got.cif
#   From: 2010.05.17/outbox.cif.g08.bks.cpg/sg64_26_cif.got.tgz:50052.got - 2010.06.03 16:29:19.
