data_PCOD9477151
_publ_section_title
;
Structure prediction by ZEFSAII (Michael W. Deem and Ramdas Pophale) SiO2 
 PCOD9477151
Probable space group: C M C A
;
_chemical_formula_sum "Si O2"
_cell_formula_units_Z 104
_cell_length_a 31.045197
_cell_length_b 17.886404
_cell_length_c 9.601962
_cell_angle_alpha 90.000000
_cell_angle_beta 90.000000
_cell_angle_gamma 90.000000
_cell_volume 5331.844057
_symmetry_space_group_name_H-M "C M C A"
_symmetry_group_IT_number 64
_symmetry_cell_setting 'orthorhombic'
loop_
_space_group_symop_operation_xyz
x,y,z
-x,1/2-y,1/2+z
x,-y,-z
-x,1/2+y,1/2-z
-x,-y,-z
x,1/2+y,1/2-z
-x,y,z
x,1/2-y,1/2+z
1/2+x,1/2+y,z
1/2-x,-y,1/2+z
1/2+x,1/2-y,-z
1/2-x,y,1/2-z
1/2-x,1/2-y,-z
1/2+x,y,1/2-z
1/2-x,1/2+y,z
1/2+x,-y,1/2+z
loop_
_atom_site_type_symbol
_atom_site_label
_atom_site_fract_x
_atom_site_fract_y
_atom_site_fract_z
Si Si1 0.447969 0.836747 0.479481
Si Si2 0.191038 0.589424 0.755990
Si Si3 0.550231 0.545472 0.358847
Si Si4 0.892836 0.465233 0.364671
Si Si5 0.748225 0.339924 0.477373
Si Si6 0.250000 0.555288 0.250000
Si Si7 0.051257 0.707092 0.214961
O O1 0.500000 0.838697 0.481788
O O2 0.429542 0.915525 0.435642
O O3 0.431821 0.778440 0.364372
O O4 0.432360 0.810721 0.631215
O O5 0.141111 0.582037 0.723645
O O6 0.214503 0.632896 0.629233
O O7 0.205144 0.633156 0.895242
O O8 0.210570 0.504573 0.761191
O O9 0.556843 0.500000 0.500000
O O10 0.500000 0.534367 0.314707
O O11 0.582981 0.520124 0.240346
O O12 0.556210 0.633676 0.379240
O O13 0.869234 0.500000 0.500000
O O14 0.750000 0.250000 0.500000
O O15 0.752200 0.390038 0.616589
O O16 0.000000 0.719555 0.231293
#
# Coordination Sequence:
#
# PCOD9477151 Si02
#       7
#    16  16  16  16  16   8  16
#     4  10  21  37  60  82 115 163 211 259 313 367
#     4  10  22  39  59  92 122 155 196 235 300 362
#     4  10  22  38  58  84 117 160 213 266 311 362
#     4  12  23  39  59  87 125 162 207 257 302 366
#     4  10  20  40  67  91 119 152 195 241 290 357
#     4  10  18  38  68  86 114 158 192 234 292 362
#     4   9  19  37  57  81 109 153 210 258 311 363
#
# _framework density 19.505445999999999
#
# number of rings (size 3 to 8) (size 9 to 14) (size 15 to 20)
#    0.000    2.000    1.538    4.154    2.154    1.846 
#    2.769    1.538    0.000    0.000    0.000    0.000 
#    0.000    0.000    0.000    0.000    0.000    0.000 
#
# Total GULP energy -289950.239794 kJ/mol
# GULP energy per Si atom -5575.966150 kJ/mol
# Density = 1.946105 g / cm^3
# Si number density = 19.505446 Si / 1000 Ang^3
#
#
#
# Elastic Constant Matrix: (Units=GPa)
#
#
# Indices 1 2 3 4 5 6 
#
# 1 39.0639 9.9762 12.8835 0.0000 0.0000 0.0000
# 2 9.9762 111.0498 42.8667 0.0000 0.0000 0.0000
# 3 12.8835 42.8667 83.7182 0.0000 0.0000 0.0000
# 4 0.0000 0.0000 0.0000 38.7161 0.0000 0.0000
# 5 0.0000 0.0000 0.0000 0.0000 9.2403 0.0000
# 6 0.0000 0.0000 0.0000 0.0000 0.0000 3.4193
#
#
#
# Elastic Compliance Matrix: (Units=1/GPa)
#
#
# Indices 1 2 3 4 5 6 
#
# 1 0.027061 -0.001026 -0.003639 0.000000 0.000000 0.000000
# 2 -0.001026 0.011262 -0.005609 0.000000 0.000000 0.000000
# 3 -0.003639 -0.005609 0.015377 0.000000 0.000000 0.000000
# 4 0.000000 0.000000 0.000000 0.025829 0.000000 0.000000
# 5 0.000000 0.000000 0.000000 0.000000 0.108221 0.000000
# 6 0.000000 0.000000 0.000000 0.000000 0.000000 0.292461
#
#
# Mechanical properties :
#
#
# Convention : Reuss Voigt Hill
#
# Bulk Modulus (GPa) = 30.16394 40.58718 35.37556
# Shear Modulus (GPa) = 9.76925 21.48217 15.62571
#
# Velocity S-wave (km/s) = 2.24039 3.32225 2.83343
# Velocity P-wave (km/s) = 4.71067 5.96404 5.37402
#
# Compressibility (1/GPa) = 0.03315217
#
# Stress axis : x y z
#
# Youngs Moduli (GPa) = 36.95307 88.79255 65.03347
#
# Poissons Ratio (x) = 0.09113 0.23666
# Poissons Ratio (y) = 0.03793 0.36475
# Poissons Ratio (z) = 0.13447 0.49801
#
# Static dielectric constant tensor:
#      x y z
#    x 1.688590 0.000000 0.000000 
#    y 0.000000 1.670280 0.000000 
#    z 0.000000 0.000000 1.698180 
# 
# From -- ./inp_files/11204.got.cif
#   From: 2010.05.17/outbox.cif.g08.bks.cpg/sg64_6_cif.got.tgz:11204.got - 2010.06.03 16:29:19.
