data_PCOD9477446
_publ_section_title
;
Structure prediction by ZEFSAII (Michael W. Deem and Ramdas Pophale) SiO2 
 PCOD9477446
Probable space group: C M C A
;
_chemical_formula_sum "Si O2"
_cell_formula_units_Z 80
_cell_length_a 17.207872
_cell_length_b 25.414027
_cell_length_c 7.695571
_cell_angle_alpha 90.000000
_cell_angle_beta 90.000000
_cell_angle_gamma 90.000000
_cell_volume 3365.437296
_symmetry_space_group_name_H-M "C M C A"
_symmetry_group_IT_number 64
_symmetry_cell_setting 'orthorhombic'
loop_
_space_group_symop_operation_xyz
x,y,z
-x,1/2-y,1/2+z
x,-y,-z
-x,1/2+y,1/2-z
-x,-y,-z
x,1/2+y,1/2-z
-x,y,z
x,1/2-y,1/2+z
1/2+x,1/2+y,z
1/2-x,-y,1/2+z
1/2+x,1/2-y,-z
1/2-x,y,1/2-z
1/2-x,1/2-y,-z
1/2+x,y,1/2-z
1/2-x,1/2+y,z
1/2+x,-y,1/2+z
loop_
_atom_site_type_symbol
_atom_site_label
_atom_site_fract_x
_atom_site_fract_y
_atom_site_fract_z
Si Si1 0.338547 0.981558 0.199300
Si Si2 0.088790 0.621691 0.898440
Si Si3 0.669566 0.316637 0.854955
Si Si4 0.412586 0.416221 0.803880
Si Si5 0.091253 0.732239 0.037257
O O1 0.250000 0.988483 0.250000
O O2 0.362678 0.920746 0.207652
O O3 0.389276 0.022968 0.307972
O O4 0.348173 0.000000 0.000000
O O5 0.110655 0.682995 0.909400
O O6 0.000000 0.619164 0.838342
O O7 0.090084 0.601352 0.099595
O O8 0.750000 0.313920 0.750000
O O9 0.648336 0.376905 0.892778
O O10 0.654176 0.278350 0.015194
O O11 0.603775 0.292996 0.726383
O O12 0.500000 0.407755 0.867183
O O13 0.000000 0.746535 0.019892
#
# Coordination Sequence:
#
# PCOD9477446 Si02
#       5
#    16  16  16  16  16
#     4  10  19  32  52  77 103 130 163 208 258 303
#     4   8  16  31  52  74  96 130 174 209 240 296
#     4  11  21  34  53  80 109 136 173 221 267 307
#     4   9  17  32  54  76  99 132 175 214 249 301
#     4  10  20  36  55  76 105 141 178 213 256 314
#
# _framework density 23.771056999999999
#
# number of rings (size 3 to 8) (size 9 to 14) (size 15 to 20)
#    0.000    2.400    0.000    4.800    0.000    3.200 
#    0.000    4.000    0.000    4.800    0.000    0.000 
#    0.000    0.000    0.000    0.000    0.000    0.000 
#
# Total GULP energy -223440.100252 kJ/mol
# GULP energy per Si atom -5586.002506 kJ/mol
# Density = 2.371695 g / cm^3
# Si number density = 23.771057 Si / 1000 Ang^3
#
#
#
# Elastic Constant Matrix: (Units=GPa)
#
#
# Indices 1 2 3 4 5 6 
#
# 1 64.0326 2.8440 0.3683 0.0000 0.0000 0.0000
# 2 2.8440 31.6508 18.0793 0.0000 0.0000 0.0000
# 3 0.3683 18.0793 44.7406 0.0000 0.0000 0.0000
# 4 0.0000 0.0000 0.0000 17.0547 0.0000 0.0000
# 5 0.0000 0.0000 0.0000 0.0000 21.5817 0.0000
# 6 0.0000 0.0000 0.0000 0.0000 0.0000 -36.0475
#
#
#
# Elastic Compliance Matrix: (Units=1/GPa)
#
#
# Indices 1 2 3 4 5 6 
#
# 1 0.015691 -0.001737 0.000573 0.000000 0.000000 0.000000
# 2 -0.001737 0.041268 -0.016662 0.000000 0.000000 0.000000
# 3 0.000573 -0.016662 0.029079 0.000000 0.000000 0.000000
# 4 0.000000 0.000000 0.000000 0.058635 0.000000 0.000000
# 5 0.000000 0.000000 0.000000 0.000000 0.046335 0.000000
# 6 0.000000 0.000000 0.000000 0.000000 0.000000 -0.027741
#
#
# Mechanical properties :
#
#
# Convention : Reuss Voigt Hill
#
# Bulk Modulus (GPa) = 19.84675 20.33415 20.09045
# Shear Modulus (GPa) = 23.17871 8.45995 15.81933
#
# Velocity S-wave (km/s) = 3.12602 1.88856 2.58250
# Velocity P-wave (km/s) = 4.62564 3.65079 4.16682
#
# Compressibility (1/GPa) = 0.05038608
#
# Stress axis : x y z
#
# Youngs Moduli (GPa) = 63.73118 24.23168 34.38882
#
# Poissons Ratio (x) = 0.04209 -0.01970
# Poissons Ratio (y) = 0.11071 0.57298
# Poissons Ratio (z) = -0.03650 0.40374
#
# Static dielectric constant tensor:
#      x y z
#    x 1.830860 0.000000 0.000000 
#    y 0.000000 1.988540 0.000000 
#    z 0.000000 0.000000 2.006730 
# 
# From -- ./inp_files/7090.got.cif
#   From: 2010.05.17/outbox.cif.g08.bks.cpg/sg64_4_cif.got.tgz:7090.got - 2010.06.03 16:29:19.
