data_PCOD9477150
_publ_section_title
;
Structure prediction by ZEFSAII (Michael W. Deem and Ramdas Pophale) SiO2 
 PCOD9477150
Probable space group: C M C A
;
_chemical_formula_sum "Si O2"
_cell_formula_units_Z 72
_cell_length_a 19.392284
_cell_length_b 12.663390
_cell_length_c 13.906952
_cell_angle_alpha 90.000000
_cell_angle_beta 90.000000
_cell_angle_gamma 90.000000
_cell_volume 3415.158785
_symmetry_space_group_name_H-M "C M C A"
_symmetry_group_IT_number 64
_symmetry_cell_setting 'orthorhombic'
loop_
_space_group_symop_operation_xyz
x,y,z
-x,1/2-y,1/2+z
x,-y,-z
-x,1/2+y,1/2-z
-x,-y,-z
x,1/2+y,1/2-z
-x,y,z
x,1/2-y,1/2+z
1/2+x,1/2+y,z
1/2-x,-y,1/2+z
1/2+x,1/2-y,-z
1/2-x,y,1/2-z
1/2-x,1/2-y,-z
1/2+x,y,1/2-z
1/2-x,1/2+y,z
1/2+x,-y,1/2+z
loop_
_atom_site_type_symbol
_atom_site_label
_atom_site_fract_x
_atom_site_fract_y
_atom_site_fract_z
Si Si1 0.921981 0.308744 0.786058
Si Si2 0.750000 0.393265 0.250000
Si Si3 0.364481 0.370369 0.112625
Si Si4 0.658678 0.620686 0.103565
Si Si5 0.185170 0.447643 0.894968
O O1 0.921849 0.190829 0.828684
O O2 0.877471 0.316208 0.688542
O O3 0.879736 0.378709 0.863249
O O4 0.000000 0.345579 0.770380
O O5 0.705246 0.336906 0.169125
O O6 0.802529 0.464846 0.187902
O O7 0.365093 0.497680 0.113168
O O8 0.362168 0.339068 0.001403
O O9 0.741690 0.614491 0.106996
O O10 0.178704 0.500000 0.000000
#
# Coordination Sequence:
#
# PCOD9477150 Si02
#       5
#    16   8  16  16  16
#     4  12  27  41  62 101 143 179 215 269 345 412
#     4  10  18  38  68 102 122 160 226 288 324 368
#     4  10  22  41  71  99 124 173 227 275 333 386
#     4  10  21  47  71  95 128 176 236 280 319 392
#     4  11  20  41  70  98 128 167 228 281 333 384
#
# _framework density 21.082474999999999
#
# number of rings (size 3 to 8) (size 9 to 14) (size 15 to 20)
#    0.000    1.333    8.889    0.000    3.111    4.889 
#    0.000    2.222    0.000    0.000    0.000    0.000 
#    0.000    0.000    0.000    0.000    0.000    0.000 
#
# Total GULP energy -201026.805658 kJ/mol
# GULP energy per Si atom -5584.077935 kJ/mol
# Density = 2.103449 g / cm^3
# Si number density = 21.082475 Si / 1000 Ang^3
#
#
#
# Elastic Constant Matrix: (Units=GPa)
#
#
# Indices 1 2 3 4 5 6 
#
# 1 83.2837 15.3443 44.3502 0.0000 0.0000 0.0000
# 2 15.3443 53.4028 41.4645 0.0000 0.0000 0.0000
# 3 44.3502 41.4645 198.5897 0.0000 0.0000 0.0000
# 4 0.0000 0.0000 0.0000 31.9711 0.0000 0.0000
# 5 0.0000 0.0000 0.0000 0.0000 -2.6563 0.0000
# 6 0.0000 0.0000 0.0000 0.0000 0.0000 0.6520
#
#
#
# Elastic Compliance Matrix: (Units=1/GPa)
#
#
# Indices 1 2 3 4 5 6 
#
# 1 0.013783 -0.001874 -0.002687 0.000000 0.000000 0.000000
# 2 -0.001874 0.022604 -0.004301 0.000000 0.000000 0.000000
# 3 -0.002687 -0.004301 0.006534 0.000000 0.000000 0.000000
# 4 0.000000 0.000000 0.000000 0.031278 0.000000 0.000000
# 5 0.000000 0.000000 0.000000 0.000000 -0.376467 0.000000
# 6 0.000000 0.000000 0.000000 0.000000 0.000000 1.533816
#
#
# Mechanical properties :
#
#
# Convention : Reuss Voigt Hill
#
# Bulk Modulus (GPa) = 39.68812 59.73270 49.71041
# Shear Modulus (GPa) = 3.97561 21.60117 12.78839
#
# Velocity S-wave (km/s) = 1.37471 3.20441 2.46557
# Velocity P-wave (km/s) = 4.62448 6.48733 5.63344
#
# Compressibility (1/GPa) = 0.02519646
#
# Stress axis : x y z
#
# Youngs Moduli (GPa) = 72.55183 44.24080 153.05578
#
# Poissons Ratio (x) = 0.08291 0.41124
# Poissons Ratio (y) = 0.13597 0.65829
# Poissons Ratio (z) = 0.19494 0.19028
#
# Static dielectric constant tensor:
#      x y z
#    x 1.744940 0.000000 0.000000 
#    y 0.000000 1.833890 0.000000 
#    z 0.000000 0.000000 1.749940 
# 
# From -- ./inp_files/25123.got.cif
#   From: 2010.05.17/outbox.cif.g08.bks.cpg/sg64_13_cif.got.tgz:25123.got - 2010.06.03 16:29:19.
