data_PCOD9477895
_publ_section_title
;
Structure prediction by ZEFSAII (Michael W. Deem and Ramdas Pophale) SiO2 
 PCOD9477895
Probable space group: C M C A
;
_chemical_formula_sum "Si O2"
_cell_formula_units_Z 128
_cell_length_a 24.955462
_cell_length_b 23.715593
_cell_length_c 12.324878
_cell_angle_alpha 90.000000
_cell_angle_beta 90.000000
_cell_angle_gamma 90.000000
_cell_volume 7294.276669
_symmetry_space_group_name_H-M "C M C A"
_symmetry_group_IT_number 64
_symmetry_cell_setting 'orthorhombic'
loop_
_space_group_symop_operation_xyz
x,y,z
-x,1/2-y,1/2+z
x,-y,-z
-x,1/2+y,1/2-z
-x,-y,-z
x,1/2+y,1/2-z
-x,y,z
x,1/2-y,1/2+z
1/2+x,1/2+y,z
1/2-x,-y,1/2+z
1/2+x,1/2-y,-z
1/2-x,y,1/2-z
1/2-x,1/2-y,-z
1/2+x,y,1/2-z
1/2-x,1/2+y,z
1/2+x,-y,1/2+z
loop_
_atom_site_type_symbol
_atom_site_label
_atom_site_fract_x
_atom_site_fract_y
_atom_site_fract_z
Si Si1 0.230787 0.131502 0.434948
Si Si2 0.607687 0.678368 0.753824
Si Si3 0.309140 0.972295 0.801458
Si Si4 0.147456 0.611368 0.356734
Si Si5 0.800259 0.901730 0.329807
Si Si6 0.143780 0.200330 0.334519
Si Si7 0.938904 0.652633 0.516889
Si Si8 0.438514 0.714534 0.525116
O O1 0.197998 0.077763 0.387702
O O2 0.292865 0.125311 0.402344
O O3 0.220501 0.128513 0.561919
O O4 0.202737 0.185392 0.380015
O O5 0.652598 0.633632 0.723188
O O6 0.635523 0.736325 0.793625
O O7 0.573157 0.656073 0.854950
O O8 0.574898 0.692087 0.644675
O O9 0.250000 0.975784 0.750000
O O10 0.347483 0.948069 0.706927
O O11 0.320336 0.033938 0.847739
O O12 0.133781 0.658083 0.265474
O O13 0.104352 0.615788 0.452023
O O14 0.750000 0.904154 0.250000
O O15 0.102381 0.191609 0.434185
O O16 0.932904 0.717459 0.475986
O O17 0.000000 0.634821 0.496969
O O18 0.500000 0.701579 0.495768
#
# Coordination Sequence:
#
# PCOD9477895 Si02
#       8
#    16  16  16  16  16  16  16  16
#     4  10  19  35  57  82 114 149 184 232 284 341
#     4  11  21  36  52  82 115 149 189 235 283 342
#     4   8  18  34  56  81 110 146 186 226 275 333
#     4  10  19  36  58  84 114 148 187 236 287 342
#     4  11  21  34  53  83 113 150 190 224 275 342
#     4  10  20  35  54  82 114 149 187 224 293 341
#     4  10  21  36  56  80 110 149 193 241 286 337
#     4  10  20  36  56  79 110 150 196 240 278 329
#
# _framework density 17.548005
#
# number of rings (size 3 to 8) (size 9 to 14) (size 15 to 20)
#    0.000    2.000    2.500    2.625    0.000    2.000 
#    0.000    4.375    0.000    2.250    0.000    1.750 
#    0.000    0.000    0.000    0.000    0.000    0.000 
#
# Total GULP energy -356874.331732 kJ/mol
# GULP energy per Si atom -5576.161433 kJ/mol
# Density = 1.750807 g / cm^3
# Si number density = 17.548005 Si / 1000 Ang^3
#
#
#
# Elastic Constant Matrix: (Units=GPa)
#
#
# Indices 1 2 3 4 5 6 
#
# 1 85.0451 16.8208 43.9945 0.0000 0.0000 0.0000
# 2 16.8208 39.0835 16.3328 0.0000 0.0000 0.0000
# 3 43.9945 16.3328 87.2460 0.0000 0.0000 0.0000
# 4 0.0000 0.0000 0.0000 21.3179 0.0000 0.0000
# 5 0.0000 0.0000 0.0000 0.0000 21.0846 0.0000
# 6 0.0000 0.0000 0.0000 0.0000 0.0000 137.2595
#
#
#
# Elastic Compliance Matrix: (Units=1/GPa)
#
#
# Indices 1 2 3 4 5 6 
#
# 1 0.016443 -0.003918 -0.007558 0.000000 0.000000 0.000000
# 2 -0.003918 0.028692 -0.003395 0.000000 0.000000 0.000000
# 3 -0.007558 -0.003395 0.015909 0.000000 0.000000 0.000000
# 4 0.000000 0.000000 0.000000 0.046909 0.000000 0.000000
# 5 0.000000 0.000000 0.000000 0.000000 0.047428 0.000000
# 6 0.000000 0.000000 0.000000 0.000000 0.000000 0.007285
#
#
# Mechanical properties :
#
#
# Convention : Reuss Voigt Hill
#
# Bulk Modulus (GPa) = 31.94898 40.63010 36.28954
# Shear Modulus (GPa) = 24.64963 44.88084 34.76524
#
# Velocity S-wave (km/s) = 3.75199 5.06276 4.45584
# Velocity P-wave (km/s) = 6.08409 7.57492 6.87006
#
# Compressibility (1/GPa) = 0.03129990
#
# Stress axis : x y z
#
# Youngs Moduli (GPa) = 60.81482 34.85353 62.85860
#
# Poissons Ratio (x) = 0.13657 0.47510
# Poissons Ratio (y) = 0.23830 0.21342
# Poissons Ratio (z) = 0.45965 0.11834
#
# Static dielectric constant tensor:
#      x y z
#    x 1.577230 0.000000 0.000000 
#    y 0.000000 1.607140 0.000000 
#    z 0.000000 0.000000 1.612060 
# 
# From -- ./inp_files/18666.got.cif
#   From: 2010.05.17/outbox.cif.g08.bks.cpg/sg64_10_cif.got.tgz:18666.got - 2010.06.03 16:29:19.
