data_PCOD9477611
_publ_section_title
;
Structure prediction by ZEFSAII (Michael W. Deem and Ramdas Pophale) SiO2 
 PCOD9477611
Probable space group: C M C A
;
_chemical_formula_sum "Si O2"
_cell_formula_units_Z 112
_cell_length_a 11.510275
_cell_length_b 14.022267
_cell_length_c 32.863083
_cell_angle_alpha 90.000000
_cell_angle_beta 90.000000
_cell_angle_gamma 90.000000
_cell_volume 5304.106502
_symmetry_space_group_name_H-M "C M C A"
_symmetry_group_IT_number 64
_symmetry_cell_setting 'orthorhombic'
loop_
_space_group_symop_operation_xyz
x,y,z
-x,1/2-y,1/2+z
x,-y,-z
-x,1/2+y,1/2-z
-x,-y,-z
x,1/2+y,1/2-z
-x,y,z
x,1/2-y,1/2+z
1/2+x,1/2+y,z
1/2-x,-y,1/2+z
1/2+x,1/2-y,-z
1/2-x,y,1/2-z
1/2-x,1/2-y,-z
1/2+x,y,1/2-z
1/2-x,1/2+y,z
1/2+x,-y,1/2+z
loop_
_atom_site_type_symbol
_atom_site_label
_atom_site_fract_x
_atom_site_fract_y
_atom_site_fract_z
Si Si1 0.795252 0.608176 0.003492
Si Si2 0.621216 0.714831 0.952524
Si Si3 0.865657 0.228245 0.276506
Si Si4 0.870889 0.540096 0.729613
Si Si5 0.210941 0.758774 0.633367
Si Si6 0.131617 0.438346 0.359060
Si Si7 0.632395 0.889613 0.582296
O O1 0.876236 0.695566 0.016803
O O2 0.703667 0.609572 0.040775
O O3 0.840416 0.500000 0.000000
O O4 0.727232 0.645959 0.963852
O O5 0.500000 0.661373 0.956838
O O6 0.631505 0.756954 0.907205
O O7 0.750000 0.200383 0.250000
O O8 0.869430 0.344038 0.272965
O O9 0.840376 0.203462 0.324061
O O10 0.000000 0.198067 0.265699
O O11 0.750000 0.511423 0.750000
O O12 0.863588 0.505232 0.683136
O O13 0.000000 0.515003 0.746311
O O14 0.225121 0.645715 0.641142
O O15 0.319908 0.815895 0.616078
O O16 0.143164 0.507939 0.396510
O O17 0.000000 0.396068 0.359268
O O18 0.500000 0.868016 0.573169
#
# Coordination Sequence:
#
# PCOD9477611 Si02
#       7
#    16  16  16  16  16  16  16
#     4  10  21  35  53  79 108 139 179 226 271 320
#     4  10  20  34  54  79 106 139 178 219 269 325
#     4   9  17  30  51  79 107 140 182 225 272 328
#     4   8  14  26  47  73 100 132 174 221 268 322
#     4  10  19  33  55  79 108 141 180 224 270 325
#     4   9  17  32  54  75  99 138 180 216 265 325
#     4  10  21  35  53  79 109 141 181 229 276 324
#
# _framework density 21.115714000000001
#
# number of rings (size 3 to 8) (size 9 to 14) (size 15 to 20)
#    0.000    2.571    0.000    3.429    0.000    3.143 
#    0.000    2.857    0.000   17.143    0.000    0.000 
#    0.000    0.000    0.000    0.000    0.000    0.000 
#
# Total GULP energy -311800.306112 kJ/mol
# GULP energy per Si atom -5567.862609 kJ/mol
# Density = 2.106765 g / cm^3
# Si number density = 21.115714 Si / 1000 Ang^3
#
#
#
# Elastic Constant Matrix: (Units=GPa)
#
#
# Indices 1 2 3 4 5 6 
#
# 1 101.3211 -3.5996 50.5291 0.0000 0.0000 0.0000
# 2 -3.5996 59.0856 6.7589 0.0000 0.0000 0.0000
# 3 50.5291 6.7589 100.8920 0.0000 0.0000 0.0000
# 4 0.0000 0.0000 0.0000 15.5384 0.0000 0.0000
# 5 0.0000 0.0000 0.0000 0.0000 12.0125 0.0000
# 6 0.0000 0.0000 0.0000 0.0000 0.0000 -4.1515
#
#
#
# Elastic Compliance Matrix: (Units=1/GPa)
#
#
# Indices 1 2 3 4 5 6 
#
# 1 0.013301 0.001584 -0.006768 0.000000 0.000000 0.000000
# 2 0.001584 0.017244 -0.001949 0.000000 0.000000 0.000000
# 3 -0.006768 -0.001949 0.013431 0.000000 0.000000 0.000000
# 4 0.000000 0.000000 0.000000 0.064357 0.000000 0.000000
# 5 0.000000 0.000000 0.000000 0.000000 0.083247 0.000000
# 6 0.000000 0.000000 0.000000 0.000000 0.000000 -0.240877
#
#
# Mechanical properties :
#
#
# Convention : Reuss Voigt Hill
#
# Bulk Modulus (GPa) = 33.65554 40.96394 37.30974
# Shear Modulus (GPa) = -198.97084 18.52057 -90.22514
#
# Velocity S-wave (km/s) = -9.71768 2.96480 -6.54383
# Velocity P-wave (km/s) = 10.48513 5.58228 6.27599
#
# Compressibility (1/GPa) = 0.02971279
#
# Stress axis : x y z
#
# Youngs Moduli (GPa) = 75.18293 57.99101 74.45194
#
# Poissons Ratio (x) = -0.09188 0.50386
# Poissons Ratio (y) = -0.11912 0.14509
# Poissons Ratio (z) = 0.50880 0.11301
#
# Static dielectric constant tensor:
#      x y z
#    x 1.769240 0.000000 0.000000 
#    y 0.000000 1.789250 0.000000 
#    z 0.000000 0.000000 1.815480 
# 
# From -- ./inp_files/52845.got.cif
#   From: 2010.05.17/outbox.cif.g08.bks.cpg/sg64_27_cif.got.tgz:52845.got - 2010.06.03 16:29:19.
