data_PCOD9477909
_publ_section_title
;
Structure prediction by ZEFSAII (Michael W. Deem and Ramdas Pophale) SiO2 
 PCOD9477909
Probable space group: C M C A
;
_chemical_formula_sum "Si O2"
_cell_formula_units_Z 72
_cell_length_a 16.472864
_cell_length_b 13.925993
_cell_length_c 14.430335
_cell_angle_alpha 90.000000
_cell_angle_beta 90.000000
_cell_angle_gamma 90.000000
_cell_volume 3310.333117
_symmetry_space_group_name_H-M "C M C A"
_symmetry_group_IT_number 64
_symmetry_cell_setting 'orthorhombic'
loop_
_space_group_symop_operation_xyz
x,y,z
-x,1/2-y,1/2+z
x,-y,-z
-x,1/2+y,1/2-z
-x,-y,-z
x,1/2+y,1/2-z
-x,y,z
x,1/2-y,1/2+z
1/2+x,1/2+y,z
1/2-x,-y,1/2+z
1/2+x,1/2-y,-z
1/2-x,y,1/2-z
1/2-x,1/2-y,-z
1/2+x,y,1/2-z
1/2-x,1/2+y,z
1/2+x,-y,1/2+z
loop_
_atom_site_type_symbol
_atom_site_label
_atom_site_fract_x
_atom_site_fract_y
_atom_site_fract_z
Si Si1 0.830630 0.482758 0.697633
Si Si2 0.174594 0.229534 0.126223
Si Si3 0.665295 0.661488 0.912331
Si Si4 0.500000 0.739324 0.395331
Si Si5 0.000000 0.249082 0.118052
Si Si6 0.000000 0.430714 0.751301
O O1 0.750000 0.515451 0.750000
O O2 0.820274 0.369491 0.681189
O O3 0.835686 0.548338 0.606398
O O4 0.917088 0.490318 0.748907
O O5 0.255040 0.292114 0.133752
O O6 0.089558 0.282617 0.148961
O O7 0.168394 0.193242 0.019328
O O8 0.582552 0.705197 0.871547
O O9 0.500000 0.734270 0.507391
O O10 0.500000 0.640195 0.339276
O O11 0.000000 0.138375 0.158152
#
# Coordination Sequence:
#
# PCOD9477909 Si02
#       6
#    16  16  16   8   8   8
#     4  11  22  35  54  83 115 148 188 236 290 349
#     4   9  19  37  57  80 111 147 190 241 289 340
#     4  10  20  35  58  82 108 149 194 236 289 347
#     4  10  19  35  58  83 114 148 188 238 288 347
#     4   8  18  34  57  84 108 146 191 232 291 346
#     4  10  21  37  56  81 117 154 192 242 291 345
#
# _framework density 21.750077000000001
#
# number of rings (size 3 to 8) (size 9 to 14) (size 15 to 20)
#    0.000    2.222    0.000    2.667    0.000    4.444 
#    0.000    7.778    0.000    0.000    0.000   15.556 
#    0.000    0.000    0.000    0.000    0.000    0.000 
#
# Total GULP energy -200778.354741 kJ/mol
# GULP energy per Si atom -5577.176521 kJ/mol
# Density = 2.170057 g / cm^3
# Si number density = 21.750077 Si / 1000 Ang^3
#
#
#
# Elastic Constant Matrix: (Units=GPa)
#
#
# Indices 1 2 3 4 5 6 
#
# 1 232.1477 38.3720 29.1387 0.0000 0.0000 0.0000
# 2 38.3720 59.2782 22.4372 0.0000 0.0000 0.0000
# 3 29.1387 22.4372 82.3079 0.0000 0.0000 0.0000
# 4 0.0000 0.0000 0.0000 33.2705 0.0000 0.0000
# 5 0.0000 0.0000 0.0000 0.0000 0.3281 0.0000
# 6 0.0000 0.0000 0.0000 0.0000 0.0000 -5.0822
#
#
#
# Elastic Compliance Matrix: (Units=1/GPa)
#
#
# Indices 1 2 3 4 5 6 
#
# 1 0.004892 -0.002800 -0.000969 0.000000 0.000000 0.000000
# 2 -0.002800 0.020413 -0.004573 0.000000 0.000000 0.000000
# 3 -0.000969 -0.004573 0.013739 0.000000 0.000000 0.000000
# 4 0.000000 0.000000 0.000000 0.030057 0.000000 0.000000
# 5 0.000000 0.000000 0.000000 0.000000 3.048151 0.000000
# 6 0.000000 0.000000 0.000000 0.000000 0.000000 -0.196766
#
#
# Mechanical properties :
#
#
# Convention : Reuss Voigt Hill
#
# Bulk Modulus (GPa) = 44.72217 61.51439 53.11828
# Shear Modulus (GPa) = 1.69801 24.62235 13.16018
#
# Velocity S-wave (km/s) = 0.88453 3.36826 2.46247
# Velocity P-wave (km/s) = 4.65292 6.59323 5.70615
#
# Compressibility (1/GPa) = 0.02236028
#
# Stress axis : x y z
#
# Youngs Moduli (GPa) = 204.41522 48.98794 72.78497
#
# Poissons Ratio (x) = 0.13717 0.07050
# Poissons Ratio (y) = 0.57238 0.33287
# Poissons Ratio (z) = 0.19799 0.22404
#
# Static dielectric constant tensor:
#      x y z
#    x 1.825090 0.000000 0.000000 
#    y 0.000000 1.727710 0.000000 
#    z 0.000000 0.000000 1.831050 
# 
# From -- ./inp_files/25154.got.cif
#   From: 2010.05.17/outbox.cif.g08.bks.cpg/sg64_13_cif.got.tgz:25154.got - 2010.06.03 16:29:19.
