data_PCOD9477119
_publ_section_title
;
Structure prediction by ZEFSAII (Michael W. Deem and Ramdas Pophale) SiO2 
 PCOD9477119
Probable space group: C M C A
;
_chemical_formula_sum "Si O2"
_cell_formula_units_Z 68
_cell_length_a 16.812320
_cell_length_b 9.612785
_cell_length_c 17.949563
_cell_angle_alpha 90.000000
_cell_angle_beta 90.000000
_cell_angle_gamma 90.000000
_cell_volume 2900.886629
_symmetry_space_group_name_H-M "C M C A"
_symmetry_group_IT_number 64
_symmetry_cell_setting 'orthorhombic'
loop_
_space_group_symop_operation_xyz
x,y,z
-x,1/2-y,1/2+z
x,-y,-z
-x,1/2+y,1/2-z
-x,-y,-z
x,1/2+y,1/2-z
-x,y,z
x,1/2-y,1/2+z
1/2+x,1/2+y,z
1/2-x,-y,1/2+z
1/2+x,1/2-y,-z
1/2-x,y,1/2-z
1/2-x,1/2-y,-z
1/2+x,y,1/2-z
1/2-x,1/2+y,z
1/2+x,-y,1/2+z
loop_
_atom_site_type_symbol
_atom_site_label
_atom_site_fract_x
_atom_site_fract_y
_atom_site_fract_z
Si Si1 0.837984 0.865475 0.532314
Si Si2 0.407366 0.019026 0.716859
Si Si3 0.908350 0.874759 0.940692
Si Si4 0.500000 0.500000 0.500000
Si Si5 0.321611 0.700624 0.305292
O O1 0.802246 0.807662 0.607921
O O2 0.927793 0.923311 0.547931
O O3 0.792955 0.000000 0.500000
O O4 0.647014 0.753103 0.528625
O O5 0.500000 0.002506 0.732922
O O6 0.389249 0.936725 0.639954
O O7 0.386493 0.179401 0.706065
O O8 0.355047 0.948172 0.780093
O O9 0.000000 0.817878 0.937294
O O10 0.908583 0.000000 0.000000
O O11 0.250000 0.735258 0.250000
#
# Coordination Sequence:
#
# PCOD9477119 Si02
#       5
#    16  16  16   4  16
#     4  10  21  39  71 106 141 186 242 311 367 429
#     4  11  26  42  74 104 139 189 252 304 356 438
#     4  10  18  36  65 104 134 169 235 309 357 406
#     4   8  20  32  70 112 144 172 250 322 362 414
#     4  12  27  48  67 102 154 197 231 296 381 452
#
# _framework density 23.441108
#
# number of rings (size 3 to 8) (size 9 to 14) (size 15 to 20)
#    0.706    0.706    3.529    1.412    6.588    0.000 
#    0.000    2.353    0.000    0.000    0.000    0.000 
#    0.000    0.000    0.000    0.000    0.000    0.000 
#
# Total GULP energy -189777.352792 kJ/mol
# GULP energy per Si atom -5581.686847 kJ/mol
# Density = 2.338775 g / cm^3
# Si number density = 23.441108 Si / 1000 Ang^3
#
#
#
# Elastic Constant Matrix: (Units=GPa)
#
#
# Indices 1 2 3 4 5 6 
#
# 1 73.6590 3.4180 35.9224 0.0000 0.0000 0.0000
# 2 3.4180 81.1399 -11.9678 0.0000 0.0000 0.0000
# 3 35.9224 -11.9678 1.0665 0.0000 0.0000 0.0000
# 4 0.0000 0.0000 0.0000 24.0930 0.0000 0.0000
# 5 0.0000 0.0000 0.0000 0.0000 21.9110 0.0000
# 6 0.0000 0.0000 0.0000 0.0000 0.0000 -30.6485
#
#
#
# Elastic Compliance Matrix: (Units=1/GPa)
#
#
# Indices 1 2 3 4 5 6 
#
# 1 0.000507 0.003877 0.026429 0.000000 0.000000 0.000000
# 2 0.003877 0.010836 -0.008981 0.000000 0.000000 0.000000
# 3 0.026429 -0.008981 -0.053339 0.000000 0.000000 0.000000
# 4 0.000000 0.000000 0.000000 0.041506 0.000000 0.000000
# 5 0.000000 0.000000 0.000000 0.000000 0.045639 0.000000
# 6 0.000000 0.000000 0.000000 0.000000 0.000000 -0.032628
#
#
# Mechanical properties :
#
#
# Convention : Reuss Voigt Hill
#
# Bulk Modulus (GPa) = 1525.22855 23.40117 774.31486
# Shear Modulus (GPa) = -167.16004 11.63729 -77.76138
#
# Velocity S-wave (km/s) = -8.45372 2.23053 -5.76586
# Velocity P-wave (km/s) = 23.59638 4.07901 16.93263
#
# Compressibility (1/GPa) = 0.00065564
#
# Stress axis : x y z
#
# Youngs Moduli (GPa) = 1972.54781 92.28091 -18.74799
#
# Poissons Ratio (x) = -0.35776 0.49550
# Poissons Ratio (y) = -7.64731 -0.16837
# Poissons Ratio (z) = -52.13324 0.82874
#
# Static dielectric constant tensor:
#      x y z
#    x 1.893180 0.000000 0.000000 
#    y 0.000000 1.887810 0.000000 
#    z 0.000000 0.000000 2.019470 
# 
# From -- ./inp_files/38862.got.cif
#   From: 2010.05.17/outbox.cif.g08.bks.cpg/sg64_20_cif.got.tgz:38862.got - 2010.06.03 16:29:19.
