data_PCOD9477569
_publ_section_title
;
Structure prediction by ZEFSAII (Michael W. Deem and Ramdas Pophale) SiO2 
 PCOD9477569
Probable space group: C M C A
;
_chemical_formula_sum "Si O2"
_cell_formula_units_Z 80
_cell_length_a 11.550070
_cell_length_b 13.486742
_cell_length_c 28.032678
_cell_angle_alpha 90.000000
_cell_angle_beta 90.000000
_cell_angle_gamma 90.000000
_cell_volume 4366.729141
_symmetry_space_group_name_H-M "C M C A"
_symmetry_group_IT_number 64
_symmetry_cell_setting 'orthorhombic'
loop_
_space_group_symop_operation_xyz
x,y,z
-x,1/2-y,1/2+z
x,-y,-z
-x,1/2+y,1/2-z
-x,-y,-z
x,1/2+y,1/2-z
-x,y,z
x,1/2-y,1/2+z
1/2+x,1/2+y,z
1/2-x,-y,1/2+z
1/2+x,1/2-y,-z
1/2-x,y,1/2-z
1/2-x,1/2-y,-z
1/2+x,y,1/2-z
1/2-x,1/2+y,z
1/2+x,-y,1/2+z
loop_
_atom_site_type_symbol
_atom_site_label
_atom_site_fract_x
_atom_site_fract_y
_atom_site_fract_z
Si Si1 0.360335 0.017856 0.445940
Si Si2 0.742905 0.606740 0.860698
Si Si3 0.863669 0.685651 0.376928
Si Si4 0.627593 0.282506 0.220814
Si Si5 0.286419 0.926945 0.802978
O O1 0.500000 0.010824 0.444871
O O2 0.309160 0.940054 0.408363
O O3 0.321633 0.000000 0.500000
O O4 0.327625 0.125174 0.424245
O O5 0.810479 0.706411 0.872629
O O6 0.644974 0.641725 0.822954
O O7 0.819261 0.523134 0.833588
O O8 0.821118 0.619866 0.332222
O O9 0.000000 0.692402 0.376176
O O10 0.500000 0.299413 0.243637
O O11 0.750000 0.291166 0.250000
O O12 0.630686 0.168153 0.202599
O O13 0.250000 0.957927 0.750000
#
# Coordination Sequence:
#
# PCOD9477569 Si02
#       5
#    16  16  16  16  16
#     4   9  18  34  55  76  99 131 171 214 263 320
#     4  10  19  33  53  77 104 136 172 217 267 313
#     4   9  19  34  51  74 103 133 171 217 261 309
#     4  10  21  36  53  77 108 142 182 224 265 313
#     4   9  19  33  48  71 102 139 174 209 254 308
#
# _framework density 18.320349
#
# number of rings (size 3 to 8) (size 9 to 14) (size 15 to 20)
#    0.000    2.600    0.000    1.200    0.000   10.400 
#    0.000    4.000    0.000    0.600    0.000    0.000 
#    0.000    0.000    0.000    0.000    0.000    0.000 
#
# Total GULP energy -222806.410327 kJ/mol
# GULP energy per Si atom -5570.160258 kJ/mol
# Density = 1.827865 g / cm^3
# Si number density = 18.320349 Si / 1000 Ang^3
#
#
#
# Elastic Constant Matrix: (Units=GPa)
#
#
# Indices 1 2 3 4 5 6 
#
# 1 73.1484 25.4659 28.9559 0.0000 0.0000 0.0000
# 2 25.4659 120.4597 57.3344 0.0000 0.0000 0.0000
# 3 28.9559 57.3344 135.7139 0.0000 0.0000 0.0000
# 4 0.0000 0.0000 0.0000 18.9121 0.0000 0.0000
# 5 0.0000 0.0000 0.0000 0.0000 19.6154 0.0000
# 6 0.0000 0.0000 0.0000 0.0000 0.0000 -1.0503
#
#
#
# Elastic Compliance Matrix: (Units=1/GPa)
#
#
# Indices 1 2 3 4 5 6 
#
# 1 0.015349 -0.002111 -0.002383 0.000000 0.000000 0.000000
# 2 -0.002111 0.010681 -0.004062 0.000000 0.000000 0.000000
# 3 -0.002383 -0.004062 0.009593 0.000000 0.000000 0.000000
# 4 0.000000 0.000000 0.000000 0.052876 0.000000 0.000000
# 5 0.000000 0.000000 0.000000 0.000000 0.050980 0.000000
# 6 0.000000 0.000000 0.000000 0.000000 0.000000 -0.952137
#
#
# Mechanical properties :
#
#
# Convention : Reuss Voigt Hill
#
# Bulk Modulus (GPa) = 54.02073 61.42605 57.72339
# Shear Modulus (GPa) = -6.33412 21.99983 7.83285
#
# Velocity S-wave (km/s) = -1.86143 3.46907 2.06997
# Velocity P-wave (km/s) = 4.99308 7.04611 6.10649
#
# Compressibility (1/GPa) = 0.01851141
#
# Stress axis : x y z
#
# Youngs Moduli (GPa) = 65.15075 93.62314 104.24245
#
# Poissons Ratio (x) = 0.19760 0.24843
# Poissons Ratio (y) = 0.13750 0.42344
# Poissons Ratio (z) = 0.15527 0.38031
#
# Static dielectric constant tensor:
#      x y z
#    x 1.630670 0.000000 0.000000 
#    y 0.000000 1.659770 0.000000 
#    z 0.000000 0.000000 1.648240 
# 
# From -- ./inp_files/43908.got.cif
#   From: 2010.05.17/outbox.cif.g08.bks.cpg/sg64_22_cif.got.tgz:43908.got - 2010.06.03 16:29:19.
