data_PCOD9477913
_publ_section_title
;
Structure prediction by ZEFSAII (Michael W. Deem and Ramdas Pophale) SiO2 
 PCOD9477913
Probable space group: C M C A
;
_chemical_formula_sum "Si O2"
_cell_formula_units_Z 96
_cell_length_a 8.720407
_cell_length_b 21.099855
_cell_length_c 28.915047
_cell_angle_alpha 90.000000
_cell_angle_beta 90.000000
_cell_angle_gamma 90.000000
_cell_volume 5320.349079
_symmetry_space_group_name_H-M "C M C A"
_symmetry_group_IT_number 64
_symmetry_cell_setting 'orthorhombic'
loop_
_space_group_symop_operation_xyz
x,y,z
-x,1/2-y,1/2+z
x,-y,-z
-x,1/2+y,1/2-z
-x,-y,-z
x,1/2+y,1/2-z
-x,y,z
x,1/2-y,1/2+z
1/2+x,1/2+y,z
1/2-x,-y,1/2+z
1/2+x,1/2-y,-z
1/2-x,y,1/2-z
1/2-x,1/2-y,-z
1/2+x,y,1/2-z
1/2-x,1/2+y,z
1/2+x,-y,1/2+z
loop_
_atom_site_type_symbol
_atom_site_label
_atom_site_fract_x
_atom_site_fract_y
_atom_site_fract_z
Si Si1 0.184976 0.120016 0.952961
Si Si2 0.185248 0.242506 0.892442
Si Si3 0.817058 0.196000 0.700908
Si Si4 0.684245 0.445747 0.201144
Si Si5 0.315089 0.004916 0.395867
Si Si6 0.316609 0.371699 0.555815
O O1 0.230297 0.180788 0.922378
O O2 0.231654 0.055256 0.927326
O O3 0.000000 0.119922 0.955639
O O4 0.250761 0.124425 0.004198
O O5 0.260757 0.236990 0.842283
O O6 0.229407 0.306069 0.919515
O O7 0.000000 0.241235 0.887318
O O8 0.750000 0.218485 0.750000
O O9 0.751163 0.124823 0.693873
O O10 0.000000 0.193389 0.703220
O O11 0.500000 0.440729 0.203640
O O12 0.750000 0.469182 0.250000
O O13 0.725000 0.488362 0.157058
O O14 0.500000 0.009954 0.398664
O O15 0.242029 0.068588 0.415033
O O16 0.500000 0.372920 0.553417
#
# Coordination Sequence:
#
# PCOD9477913 Si02
#       6
#    16  16  16  16  16  16
#     4  10  20  38  61  80 108 152 197 234 276 336
#     4  10  21  40  59  81 115 152 190 232 282 334
#     4  11  21  34  58  88 115 145 184 233 281 332
#     4  10  19  35  58  85 114 146 186 231 280 333
#     4  10  21  38  59  81 112 155 191 227 279 338
#     4  11  24  37  55  84 118 149 185 239 286 331
#
# _framework density 18.043928000000001
#
# number of rings (size 3 to 8) (size 9 to 14) (size 15 to 20)
#    0.000    1.667    1.667    4.500    0.000    6.000 
#    0.000    0.833    0.000    2.000    0.000    0.000 
#    0.000    0.000    0.000    0.000    0.000    0.000 
#
# Total GULP energy -268192.801949 kJ/mol
# GULP energy per Si atom -5587.350041 kJ/mol
# Density = 1.800286 g / cm^3
# Si number density = 18.043928 Si / 1000 Ang^3
#
#
#
# Elastic Constant Matrix: (Units=GPa)
#
#
# Indices 1 2 3 4 5 6 
#
# 1 43.2005 22.1089 36.9160 0.0000 0.0000 0.0000
# 2 22.1089 87.1777 37.4581 0.0000 0.0000 0.0000
# 3 36.9160 37.4581 138.3091 0.0000 0.0000 0.0000
# 4 0.0000 0.0000 0.0000 -10.7843 0.0000 0.0000
# 5 0.0000 0.0000 0.0000 0.0000 27.1218 0.0000
# 6 0.0000 0.0000 0.0000 0.0000 0.0000 25.1887
#
#
#
# Elastic Compliance Matrix: (Units=1/GPa)
#
#
# Indices 1 2 3 4 5 6 
#
# 1 0.031803 -0.005000 -0.007134 0.000000 0.000000 0.000000
# 2 -0.005000 0.013768 -0.002394 0.000000 0.000000 0.000000
# 3 -0.007134 -0.002394 0.009783 0.000000 0.000000 0.000000
# 4 0.000000 0.000000 0.000000 -0.092728 0.000000 0.000000
# 5 0.000000 0.000000 0.000000 0.000000 0.036871 0.000000
# 6 0.000000 0.000000 0.000000 0.000000 0.000000 0.039700
#
#
# Mechanical properties :
#
#
# Convention : Reuss Voigt Hill
#
# Bulk Modulus (GPa) = 38.02785 51.29482 44.66134
# Shear Modulus (GPa) = 64.91831 19.78552 42.35192
#
# Velocity S-wave (km/s) = 6.00467 3.31497 4.85000
# Velocity P-wave (km/s) = 8.31839 6.56822 7.49457
#
# Compressibility (1/GPa) = 0.02629652
#
# Stress axis : x y z
#
# Youngs Moduli (GPa) = 31.44321 72.63449 102.21999
#
# Poissons Ratio (x) = 0.36318 0.72928
# Poissons Ratio (y) = 0.15722 0.24472
# Poissons Ratio (z) = 0.22433 0.17389
#
# Static dielectric constant tensor:
#      x y z
#    x 1.608290 0.000000 0.000000 
#    y 0.000000 1.593730 0.000000 
#    z 0.000000 0.000000 1.607020 
# 
# From -- ./inp_files/48073.got.cif
#   From: 2010.05.17/outbox.cif.g08.bks.cpg/sg64_25_cif.got.tgz:48073.got - 2010.06.03 16:29:19.
