data_PCOD9477213
_publ_section_title
;
Structure prediction by ZEFSAII (Michael W. Deem and Ramdas Pophale) SiO2 
 PCOD9477213
Probable space group: C M C A
;
_chemical_formula_sum "Si O2"
_cell_formula_units_Z 112
_cell_length_a 7.642765
_cell_length_b 24.090453
_cell_length_c 30.444638
_cell_angle_alpha 90.000000
_cell_angle_beta 90.000000
_cell_angle_gamma 90.000000
_cell_volume 5605.395844
_symmetry_space_group_name_H-M "C M C A"
_symmetry_group_IT_number 64
_symmetry_cell_setting 'orthorhombic'
loop_
_space_group_symop_operation_xyz
x,y,z
-x,1/2-y,1/2+z
x,-y,-z
-x,1/2+y,1/2-z
-x,-y,-z
x,1/2+y,1/2-z
-x,y,z
x,1/2-y,1/2+z
1/2+x,1/2+y,z
1/2-x,-y,1/2+z
1/2+x,1/2-y,-z
1/2-x,y,1/2-z
1/2-x,1/2-y,-z
1/2+x,y,1/2-z
1/2-x,1/2+y,z
1/2+x,-y,1/2+z
loop_
_atom_site_type_symbol
_atom_site_label
_atom_site_fract_x
_atom_site_fract_y
_atom_site_fract_z
Si Si1 0.799664 0.572469 0.911649
Si Si2 0.293565 0.225938 0.441364
Si Si3 0.790069 0.234569 0.199464
Si Si4 0.784312 0.816854 0.376904
Si Si5 0.296573 0.631008 0.999421
Si Si6 0.205522 0.139898 0.140257
Si Si7 0.798296 0.549565 0.077073
O O1 0.723900 0.619774 0.879876
O O2 0.719565 0.511610 0.916906
O O3 0.000000 0.562904 0.897414
O O4 0.798304 0.602751 0.958832
O O5 0.500000 0.232856 0.449800
O O6 0.224290 0.282741 0.420375
O O7 0.222053 0.189721 0.481999
O O8 0.279287 0.184045 0.399752
O O9 0.750000 0.244435 0.250000
O O10 0.729116 0.282755 0.166121
O O11 0.725101 0.174729 0.181657
O O12 0.000000 0.232722 0.194317
O O13 0.000000 0.816701 0.378166
O O14 0.289644 0.587356 0.039870
O O15 0.000000 0.861544 0.011927
O O16 0.291595 0.084249 0.122262
O O17 0.000000 0.127810 0.146330
O O18 0.000000 0.543680 0.062743
#
# Coordination Sequence:
#
# PCOD9477213 Si02
#       7
#    16  16  16  16  16  16  16
#     4  10  20  31  44  64  91 125 162 194 225 266
#     4   7  12  25  44  63  84 113 150 187 222 264
#     4   9  17  31  54  79  98 116 142 180 227 279
#     4   8  15  30  48  65  91 125 152 180 228 280
#     4  10  19  30  45  65  89 121 161 201 238 272
#     4   8  15  29  48  69  92 118 146 180 228 276
#     4  10  19  30  45  66  91 120 158 200 232 264
#
# _framework density 19.980747000000001
#
# number of rings (size 3 to 8) (size 9 to 14) (size 15 to 20)
#    0.000    3.143    0.000    3.857    0.000    4.000 
#    0.000    0.714    0.000    4.286    0.000    4.000 
#    0.000    0.000    0.000    0.000    0.000    0.000 
#
# Total GULP energy -312117.351314 kJ/mol
# GULP energy per Si atom -5573.524131 kJ/mol
# Density = 1.993527 g / cm^3
# Si number density = 19.980747 Si / 1000 Ang^3
#
#
#
# Elastic Constant Matrix: (Units=GPa)
#
#
# Indices 1 2 3 4 5 6 
#
# 1 42.8828 2.0707 -4.0607 0.0000 0.0000 0.0000
# 2 2.0707 134.1008 37.2635 0.0000 0.0000 0.0000
# 3 -4.0607 37.2635 95.4953 0.0000 0.0000 0.0000
# 4 0.0000 0.0000 0.0000 16.4623 0.0000 0.0000
# 5 0.0000 0.0000 0.0000 0.0000 20.8383 0.0000
# 6 0.0000 0.0000 0.0000 0.0000 0.0000 10.4834
#
#
#
# Elastic Compliance Matrix: (Units=1/GPa)
#
#
# Indices 1 2 3 4 5 6 
#
# 1 0.023475 -0.000718 0.001278 0.000000 0.000000 0.000000
# 2 -0.000718 0.008386 -0.003303 0.000000 0.000000 0.000000
# 3 0.001278 -0.003303 0.011815 0.000000 0.000000 0.000000
# 4 0.000000 0.000000 0.000000 0.060745 0.000000 0.000000
# 5 0.000000 0.000000 0.000000 0.000000 0.047989 0.000000
# 6 0.000000 0.000000 0.000000 0.000000 0.000000 0.095389
#
#
# Mechanical properties :
#
#
# Convention : Reuss Voigt Hill
#
# Bulk Modulus (GPa) = 26.18391 38.11398 32.14895
# Shear Modulus (GPa) = 18.79605 25.37049 22.08327
#
# Velocity S-wave (km/s) = 3.07042 3.56722 3.32810
# Velocity P-wave (km/s) = 5.06982 6.00695 5.55817
#
# Compressibility (1/GPa) = 0.03819140
#
# Stress axis : x y z
#
# Youngs Moduli (GPa) = 42.59842 119.24735 84.63903
#
# Poissons Ratio (x) = 0.08558 -0.10819
# Poissons Ratio (y) = 0.03057 0.27955
# Poissons Ratio (z) = -0.05445 0.39385
#
# Static dielectric constant tensor:
#      x y z
#    x 1.816520 0.000000 0.000000 
#    y 0.000000 1.762790 0.000000 
#    z 0.000000 0.000000 1.710130 
# 
# From -- ./inp_files/44433.got.cif
#   From: 2010.05.17/outbox.cif.g08.bks.cpg/sg64_23_cif.got.tgz:44433.got - 2010.06.03 16:29:19.
