data_PCOD9477849
_publ_section_title
;
Structure prediction by ZEFSAII (Michael W. Deem and Ramdas Pophale) SiO2 
 PCOD9477849
Probable space group: C M C A
;
_chemical_formula_sum "Si O2"
_cell_formula_units_Z 88
_cell_length_a 18.917660
_cell_length_b 20.928529
_cell_length_c 11.425859
_cell_angle_alpha 90.000000
_cell_angle_beta 90.000000
_cell_angle_gamma 90.000000
_cell_volume 4523.712338
_symmetry_space_group_name_H-M "C M C A"
_symmetry_group_IT_number 64
_symmetry_cell_setting 'orthorhombic'
loop_
_space_group_symop_operation_xyz
x,y,z
-x,1/2-y,1/2+z
x,-y,-z
-x,1/2+y,1/2-z
-x,-y,-z
x,1/2+y,1/2-z
-x,y,z
x,1/2-y,1/2+z
1/2+x,1/2+y,z
1/2-x,-y,1/2+z
1/2+x,1/2-y,-z
1/2-x,y,1/2-z
1/2-x,1/2-y,-z
1/2+x,y,1/2-z
1/2-x,1/2+y,z
1/2+x,-y,1/2+z
loop_
_atom_site_type_symbol
_atom_site_label
_atom_site_fract_x
_atom_site_fract_y
_atom_site_fract_z
Si Si1 0.583422 0.386526 0.322101
Si Si2 0.194757 0.604715 0.418018
Si Si3 0.581974 0.972861 0.713587
Si Si4 0.688487 0.827169 0.334557
Si Si5 0.143245 0.069679 0.445480
Si Si6 0.250000 0.794876 0.750000
O O1 0.500000 0.381629 0.337454
O O2 0.597485 0.454720 0.256846
O O3 0.616953 0.333992 0.238165
O O4 0.620225 0.384383 0.449162
O O5 0.136597 0.552580 0.382903
O O6 0.183882 0.636239 0.544251
O O7 0.274399 0.577007 0.415142
O O8 0.196724 0.660830 0.321392
O O9 0.500000 0.969188 0.678008
O O10 0.596578 0.929542 0.828830
O O11 0.750000 0.856764 0.250000
O O12 0.711745 0.753251 0.340485
O O13 0.131577 0.000000 0.500000
#
# Coordination Sequence:
#
# PCOD9477849 Si02
#       6
#    16  16  16  16  16   8
#     4  10  21  39  60  88 127 162 195 246 307 362
#     4  12  21  38  65  89 118 157 202 257 306 351
#     4  10  22  36  57  92 128 158 192 244 311 370
#     4  10  23  37  61  84 118 152 206 248 294 355
#     4  10  19  34  61  90 119 156 202 242 291 364
#     4  10  22  42  60  88 116 156 208 256 296 352
#
# _framework density 19.453049
#
# number of rings (size 3 to 8) (size 9 to 14) (size 15 to 20)
#    0.545    1.091    3.636    1.091    2.545    2.909 
#    0.000    2.727    0.000    0.000    0.000    0.000 
#    0.000    0.000    0.000    0.000    0.000    0.000 
#
# Total GULP energy -245423.226338 kJ/mol
# GULP energy per Si atom -5577.800599 kJ/mol
# Density = 1.940877 g / cm^3
# Si number density = 19.453049 Si / 1000 Ang^3
#
#
#
# Elastic Constant Matrix: (Units=GPa)
#
#
# Indices 1 2 3 4 5 6 
#
# 1 89.9774 15.9083 23.8420 0.0000 0.0000 0.0000
# 2 15.9083 25.0509 8.5334 0.0000 0.0000 0.0000
# 3 23.8420 8.5334 64.1786 0.0000 0.0000 0.0000
# 4 0.0000 0.0000 0.0000 43.1132 0.0000 0.0000
# 5 0.0000 0.0000 0.0000 0.0000 27.8652 0.0000
# 6 0.0000 0.0000 0.0000 0.0000 0.0000 16.8791
#
#
#
# Elastic Compliance Matrix: (Units=1/GPa)
#
#
# Indices 1 2 3 4 5 6 
#
# 1 0.013452 -0.007165 -0.004045 0.000000 0.000000 0.000000
# 2 -0.007165 0.045629 -0.003405 0.000000 0.000000 0.000000
# 3 -0.004045 -0.003405 0.017537 0.000000 0.000000 0.000000
# 4 0.000000 0.000000 0.000000 0.023195 0.000000 0.000000
# 5 0.000000 0.000000 0.000000 0.000000 0.035887 0.000000
# 6 0.000000 0.000000 0.000000 0.000000 0.000000 0.059245
#
#
# Mechanical properties :
#
#
# Convention : Reuss Voigt Hill
#
# Bulk Modulus (GPa) = 21.10238 30.64161 25.87200
# Shear Modulus (GPa) = 20.83585 26.29971 23.56778
#
# Velocity S-wave (km/s) = 3.27629 3.68089 3.48447
# Velocity P-wave (km/s) = 5.01832 5.81816 5.43298
#
# Compressibility (1/GPa) = 0.04738802
#
# Stress axis : x y z
#
# Youngs Moduli (GPa) = 74.33568 21.91602 57.02258
#
# Poissons Ratio (x) = 0.15703 0.23065
# Poissons Ratio (y) = 0.53262 0.19417
# Poissons Ratio (z) = 0.30068 0.07463
#
# Static dielectric constant tensor:
#      x y z
#    x 1.667700 0.000000 0.000000 
#    y 0.000000 1.687720 0.000000 
#    z 0.000000 0.000000 1.712020 
# 
# From -- ./inp_files/16044.got.cif
#   From: 2010.05.17/outbox.cif.g08.bks.cpg/sg64_9_cif.got.tgz:16044.got - 2010.06.03 16:29:19.
