data_PCOD9477218
_publ_section_title
;
Structure prediction by ZEFSAII (Michael W. Deem and Ramdas Pophale) SiO2 
 PCOD9477218
Probable space group: C M C A
;
_chemical_formula_sum "Si O2"
_cell_formula_units_Z 96
_cell_length_a 8.928711
_cell_length_b 14.406310
_cell_length_c 33.443705
_cell_angle_alpha 90.000000
_cell_angle_beta 90.000000
_cell_angle_gamma 90.000000
_cell_volume 4301.856369
_symmetry_space_group_name_H-M "C M C A"
_symmetry_group_IT_number 64
_symmetry_cell_setting 'orthorhombic'
loop_
_space_group_symop_operation_xyz
x,y,z
-x,1/2-y,1/2+z
x,-y,-z
-x,1/2+y,1/2-z
-x,-y,-z
x,1/2+y,1/2-z
-x,y,z
x,1/2-y,1/2+z
1/2+x,1/2+y,z
1/2-x,-y,1/2+z
1/2+x,1/2-y,-z
1/2-x,y,1/2-z
1/2-x,1/2-y,-z
1/2+x,y,1/2-z
1/2-x,1/2+y,z
1/2+x,-y,1/2+z
loop_
_atom_site_type_symbol
_atom_site_label
_atom_site_fract_x
_atom_site_fract_y
_atom_site_fract_z
Si Si1 0.330831 0.014678 0.543025
Si Si2 0.318483 0.536789 0.872146
Si Si3 0.172908 0.967401 0.291049
Si Si4 0.328025 0.740155 0.209160
Si Si5 0.668095 0.237072 0.541869
Si Si6 0.680616 0.242819 0.877349
O O1 0.500000 0.974089 0.539642
O O2 0.271870 0.985829 0.586628
O O3 0.342188 0.125793 0.546675
O O4 0.253734 0.000000 0.500000
O O5 0.500000 0.544117 0.872473
O O6 0.263392 0.499165 0.829797
O O7 0.240095 0.637283 0.874430
O O8 0.250000 0.996789 0.250000
O O9 0.175448 0.853754 0.290713
O O10 0.000000 0.995593 0.293154
O O11 0.500000 0.710671 0.211020
O O12 0.250000 0.710216 0.250000
O O13 0.268253 0.713488 0.165029
O O14 0.500000 0.275053 0.540448
O O15 0.750000 0.250000 0.500000
O O16 0.755472 0.275885 0.580257
O O17 0.500000 0.245272 0.878121
#
# Coordination Sequence:
#
# PCOD9477218 Si02
#       6
#    16  16  16  16  16  16
#     4   8  15  28  45  64  85 112 147 181 212 252
#     4   9  15  23  37  56  78 106 138 172 213 256
#     4   9  15  22  32  48  73 104 137 171 207 251
#     4   8  14  21  31  48  71 101 132 164 200 240
#     4  10  19  30  46  65  86 114 145 181 221 260
#     4   9  16  26  38  54  79 109 141 175 210 252
#
# _framework density 22.315947000000001
#
# number of rings (size 3 to 8) (size 9 to 14) (size 15 to 20)
#    0.000    3.167    0.000    4.000    0.000    4.667 
#    0.000    0.000    0.000   18.000    0.000    0.000 
#    0.000    1.333    0.000    8.333    0.000   17.167 
#
# Total GULP energy -267481.820747 kJ/mol
# GULP energy per Si atom -5572.537932 kJ/mol
# Density = 2.226516 g / cm^3
# Si number density = 22.315947 Si / 1000 Ang^3
#
#
#
# Elastic Constant Matrix: (Units=GPa)
#
#
# Indices 1 2 3 4 5 6 
#
# 1 91.2108 4.6818 92.2145 0.0000 0.0000 0.0000
# 2 4.6818 59.4706 2.3148 0.0000 0.0000 0.0000
# 3 92.2145 2.3148 311.7099 0.0000 0.0000 0.0000
# 4 0.0000 0.0000 0.0000 3.5007 0.0000 0.0000
# 5 0.0000 0.0000 0.0000 0.0000 42.9293 0.0000
# 6 0.0000 0.0000 0.0000 0.0000 0.0000 -6.9026
#
#
#
# Elastic Compliance Matrix: (Units=1/GPa)
#
#
# Indices 1 2 3 4 5 6 
#
# 1 0.015708 -0.001056 -0.004639 0.000000 0.000000 0.000000
# 2 -0.001056 0.016891 0.000187 0.000000 0.000000 0.000000
# 3 -0.004639 0.000187 0.004579 0.000000 0.000000 0.000000
# 4 0.000000 0.000000 0.000000 0.285661 0.000000 0.000000
# 5 0.000000 0.000000 0.000000 0.000000 0.023294 0.000000
# 6 0.000000 0.000000 0.000000 0.000000 0.000000 -0.144872
#
#
# Mechanical properties :
#
#
# Convention : Reuss Voigt Hill
#
# Bulk Modulus (GPa) = 38.22390 73.42374 55.82382
# Shear Modulus (GPa) = 22.62466 32.11747 27.37107
#
# Velocity S-wave (km/s) = 3.18753 3.79782 3.50598
# Velocity P-wave (km/s) = 5.54192 7.22527 6.43884
#
# Compressibility (1/GPa) = 0.02616164
#
# Stress axis : x y z
#
# Youngs Moduli (GPa) = 63.66182 59.20354 218.38185
#
# Poissons Ratio (x) = 0.06252 1.01310
# Poissons Ratio (y) = 0.06723 -0.04083
# Poissons Ratio (z) = 0.29534 -0.01107
#
# Static dielectric constant tensor:
#      x y z
#    x 1.776210 0.000000 0.000000 
#    y 0.000000 2.087140 0.000000 
#    z 0.000000 0.000000 1.915970 
# 
# From -- ./inp_files/48613.got.cif
#   From: 2010.05.17/outbox.cif.g08.bks.cpg/sg64_25_cif.got.tgz:48613.got - 2010.06.03 16:29:19.
