data_PCOD9477497
_publ_section_title
;
Structure prediction by ZEFSAII (Michael W. Deem and Ramdas Pophale) SiO2 
 PCOD9477497
Probable space group: C M C A
;
_chemical_formula_sum "Si O2"
_cell_formula_units_Z 116
_cell_length_a 8.016817
_cell_length_b 24.256242
_cell_length_c 26.344685
_cell_angle_alpha 90.000000
_cell_angle_beta 90.000000
_cell_angle_gamma 90.000000
_cell_volume 5122.930889
_symmetry_space_group_name_H-M "C M C A"
_symmetry_group_IT_number 64
_symmetry_cell_setting 'orthorhombic'
loop_
_space_group_symop_operation_xyz
x,y,z
-x,1/2-y,1/2+z
x,-y,-z
-x,1/2+y,1/2-z
-x,-y,-z
x,1/2+y,1/2-z
-x,y,z
x,1/2-y,1/2+z
1/2+x,1/2+y,z
1/2-x,-y,1/2+z
1/2+x,1/2-y,-z
1/2-x,y,1/2-z
1/2-x,1/2-y,-z
1/2+x,y,1/2-z
1/2-x,1/2+y,z
1/2+x,-y,1/2+z
loop_
_atom_site_type_symbol
_atom_site_label
_atom_site_fract_x
_atom_site_fract_y
_atom_site_fract_z
Si Si1 0.799954 0.308809 0.695084
Si Si2 0.184411 0.586981 0.909439
Si Si3 0.194899 0.214312 0.081834
Si Si4 0.192636 0.320852 0.476330
Si Si5 0.313390 0.541353 0.442702
Si Si6 0.702112 0.571766 0.164327
Si Si7 0.301689 0.550423 0.805036
Si Si8 0.000000 0.000000 0.000000
O O1 0.750000 0.284654 0.750000
O O2 0.736883 0.287357 0.639645
O O3 0.750074 0.373475 0.693996
O O4 0.000000 0.305073 0.694117
O O5 0.299124 0.623108 0.945019
O O6 0.186446 0.522738 0.924054
O O7 0.231636 0.586825 0.850566
O O8 0.000000 0.609177 0.916791
O O9 0.215525 0.274771 0.057342
O O10 0.000000 0.199361 0.087436
O O11 0.260836 0.177153 0.034260
O O12 0.000000 0.303165 0.480024
O O13 0.500000 0.552828 0.463916
O O14 0.279748 0.575122 0.391637
O O15 0.148521 0.540469 0.476594
O O16 0.500000 0.570228 0.159731
O O17 0.756887 0.513361 0.188119
O O18 0.500000 0.549781 0.810019
O O19 0.250000 0.570263 0.750000
#
# Coordination Sequence:
#
# PCOD9477497 Si02
#       8
#    16  16  16  16  16  16  16   4
#     4  10  21  37  59  88 121 160 200 245 306 362
#     4  10  21  37  57  84 117 148 195 248 294 355
#     4   9  20  39  59  84 116 150 194 244 300 367
#     4  10  20  36  62  89 112 148 195 245 305 367
#     4  10  22  37  55  83 116 163 209 246 299 362
#     4   9  18  35  55  81 115 161 202 245 299 353
#     4  10  19  32  54  81 116 155 199 242 293 350
#     4  12  22  36  56  74 124 164 194 256 300 352
#
# _framework density 22.643287000000001
#
# number of rings (size 3 to 8) (size 9 to 14) (size 15 to 20)
#    0.000    2.207    0.690    1.862    1.931    3.310 
#    2.483    0.690    0.000    1.655    0.000    0.000 
#    0.000    0.000    0.000    0.000    0.000    0.000 
#
# Total GULP energy -323190.800706 kJ/mol
# GULP energy per Si atom -5572.255185 kJ/mol
# Density = 2.259175 g / cm^3
# Si number density = 22.643287 Si / 1000 Ang^3
#
#
#
# Elastic Constant Matrix: (Units=GPa)
#
#
# Indices 1 2 3 4 5 6 
#
# 1 66.6158 -1.2994 28.2947 0.0000 0.0000 0.0000
# 2 -1.2994 38.2687 42.0693 0.0000 0.0000 0.0000
# 3 28.2947 42.0693 211.1646 0.0000 0.0000 0.0000
# 4 0.0000 0.0000 0.0000 29.0036 0.0000 0.0000
# 5 0.0000 0.0000 0.0000 0.0000 25.0665 0.0000
# 6 0.0000 0.0000 0.0000 0.0000 0.0000 2.8342
#
#
#
# Elastic Compliance Matrix: (Units=1/GPa)
#
#
# Indices 1 2 3 4 5 6 
#
# 1 0.016336 0.003791 -0.002944 0.000000 0.000000 0.000000
# 2 0.003791 0.034339 -0.007349 0.000000 0.000000 0.000000
# 3 -0.002944 -0.007349 0.006594 0.000000 0.000000 0.000000
# 4 0.000000 0.000000 0.000000 0.034478 0.000000 0.000000
# 5 0.000000 0.000000 0.000000 0.000000 0.039894 0.000000
# 6 0.000000 0.000000 0.000000 0.000000 0.000000 0.352835
#
#
# Mechanical properties :
#
#
# Convention : Reuss Voigt Hill
#
# Bulk Modulus (GPa) = 22.59129 50.46428 36.52778
# Shear Modulus (GPa) = 9.76113 27.84649 18.80381
#
# Velocity S-wave (km/s) = 2.07851 3.51064 2.88486
# Velocity P-wave (km/s) = 3.96975 6.22638 5.22143
#
# Compressibility (1/GPa) = 0.04426484
#
# Stress axis : x y z
#
# Youngs Moduli (GPa) = 61.21461 29.12160 151.64626
#
# Poissons Ratio (x) = -0.11041 0.44648
# Poissons Ratio (y) = -0.23208 1.11447
# Poissons Ratio (z) = 0.18023 0.21402
#
# Static dielectric constant tensor:
#      x y z
#    x 1.854060 0.000000 0.000000 
#    y 0.000000 1.870750 0.000000 
#    z 0.000000 0.000000 1.874910 
# 
# From -- ./inp_files/48559.got.cif
#   From: 2010.05.17/outbox.cif.g08.bks.cpg/sg64_25_cif.got.tgz:48559.got - 2010.06.03 16:29:19.
