data_PCOD9477326
_publ_section_title
;
Structure prediction by ZEFSAII (Michael W. Deem and Ramdas Pophale) SiO2 
 PCOD9477326
Probable space group: C M C A
;
_chemical_formula_sum "Si O2"
_cell_formula_units_Z 104
_cell_length_a 24.478361
_cell_length_b 13.260336
_cell_length_c 18.146422
_cell_angle_alpha 90.000000
_cell_angle_beta 90.000000
_cell_angle_gamma 90.000000
_cell_volume 5890.170555
_symmetry_space_group_name_H-M "C M C A"
_symmetry_group_IT_number 64
_symmetry_cell_setting 'orthorhombic'
loop_
_space_group_symop_operation_xyz
x,y,z
-x,1/2-y,1/2+z
x,-y,-z
-x,1/2+y,1/2-z
-x,-y,-z
x,1/2+y,1/2-z
-x,y,z
x,1/2-y,1/2+z
1/2+x,1/2+y,z
1/2-x,-y,1/2+z
1/2+x,1/2-y,-z
1/2-x,y,1/2-z
1/2-x,1/2-y,-z
1/2+x,y,1/2-z
1/2-x,1/2+y,z
1/2+x,-y,1/2+z
loop_
_atom_site_type_symbol
_atom_site_label
_atom_site_fract_x
_atom_site_fract_y
_atom_site_fract_z
Si Si1 0.154231 0.000000 0.000000
Si Si2 0.625171 0.656299 0.777157
Si Si3 0.940227 0.477215 0.381153
Si Si4 0.890450 0.333308 0.672777
Si Si5 0.811987 0.465964 0.773971
Si Si6 0.315198 0.285742 0.953213
Si Si7 0.698491 0.787711 0.888155
O O1 0.111653 0.026077 0.935376
O O2 0.189531 0.902261 0.980483
O O3 0.576242 0.602079 0.819428
O O4 0.599846 0.744998 0.729295
O O5 0.656509 0.572612 0.727592
O O6 0.667988 0.706489 0.835611
O O7 0.937488 0.588355 0.345920
O O8 0.000000 0.457660 0.413415
O O9 0.842294 0.400514 0.710460
O O10 0.867986 0.285749 0.597691
O O11 0.750000 0.483490 0.750000
O O12 0.810422 0.395009 0.846913
O O13 0.262678 0.262858 0.902082
O O14 0.321472 0.219822 0.026957
#
# Coordination Sequence:
#
# PCOD9477326 Si02
#       7
#     8  16  16  16  16  16  16
#     4  10  19  36  52  80 112 136 181 228 272 322
#     4  10  21  35  54  77 110 141 179 218 273 325
#     4  10  20  36  58  79 101 137 181 233 277 311
#     4   9  20  35  50  77 108 135 176 226 260 321
#     4  10  19  31  49  75 106 144 180 210 258 322
#     4  10  19  33  51  75 112 145 179 221 257 313
#     4  10  20  33  49  76 109 148 180 212 260 321
#
# _framework density 17.656534000000001
#
# number of rings (size 3 to 8) (size 9 to 14) (size 15 to 20)
#    0.000    2.154    3.077    0.231    2.154    0.615 
#    2.769    0.000    0.000    0.000    0.000    0.000 
#    0.000    7.077    0.000    0.000    0.000    0.000 
#
# Total GULP energy -289591.398515 kJ/mol
# GULP energy per Si atom -5569.065356 kJ/mol
# Density = 1.761635 g / cm^3
# Si number density = 17.656534 Si / 1000 Ang^3
#
#
#
# Elastic Constant Matrix: (Units=GPa)
#
#
# Indices 1 2 3 4 5 6 
#
# 1 43.6539 9.5930 2.9060 0.0000 0.0000 0.0000
# 2 9.5930 55.5571 22.3119 0.0000 0.0000 0.0000
# 3 2.9060 22.3119 61.6789 0.0000 0.0000 0.0000
# 4 0.0000 0.0000 0.0000 25.1800 0.0000 0.0000
# 5 0.0000 0.0000 0.0000 0.0000 -0.5537 0.0000
# 6 0.0000 0.0000 0.0000 0.0000 0.0000 2.7142
#
#
#
# Elastic Compliance Matrix: (Units=1/GPa)
#
#
# Indices 1 2 3 4 5 6 
#
# 1 0.023821 -0.004285 0.000428 0.000000 0.000000 0.000000
# 2 -0.004285 0.021830 -0.007695 0.000000 0.000000 0.000000
# 3 0.000428 -0.007695 0.018976 0.000000 0.000000 0.000000
# 4 0.000000 0.000000 0.000000 0.039714 0.000000 0.000000
# 5 0.000000 0.000000 0.000000 0.000000 -1.806018 0.000000
# 6 0.000000 0.000000 0.000000 0.000000 0.000000 0.368436
#
#
# Mechanical properties :
#
#
# Convention : Reuss Voigt Hill
#
# Bulk Modulus (GPa) = 24.08324 25.61243 24.84784
# Shear Modulus (GPa) = -3.85714 13.87336 5.00811
#
# Velocity S-wave (km/s) = -1.47962 2.80614 1.68599
# Velocity P-wave (km/s) = 3.27878 5.00366 4.23007
#
# Compressibility (1/GPa) = 0.04152265
#
# Stress axis : x y z
#
# Youngs Moduli (GPa) = 41.98044 45.80930 52.69704
#
# Poissons Ratio (x) = 0.19629 -0.02254
# Poissons Ratio (y) = 0.17988 0.40550
# Poissons Ratio (z) = -0.01796 0.35250
#
# Static dielectric constant tensor:
#      x y z
#    x 1.592630 0.000000 0.000000 
#    y 0.000000 1.618080 0.000000 
#    z 0.000000 0.000000 1.644330 
# 
# From -- ./inp_files/35784.got.cif
#   From: 2010.05.17/outbox.cif.g08.bks.cpg/sg64_18_cif.got.tgz:35784.got - 2010.06.03 16:29:19.
