data_PCOD9477958
_publ_section_title
;
Structure prediction by ZEFSAII (Michael W. Deem and Ramdas Pophale) SiO2 
 PCOD9477958
Probable space group: C M C A
;
_chemical_formula_sum "Si O2"
_cell_formula_units_Z 112
_cell_length_a 27.902017
_cell_length_b 11.354186
_cell_length_c 17.184945
_cell_angle_alpha 90.000000
_cell_angle_beta 90.000000
_cell_angle_gamma 90.000000
_cell_volume 5444.271187
_symmetry_space_group_name_H-M "C M C A"
_symmetry_group_IT_number 64
_symmetry_cell_setting 'orthorhombic'
loop_
_space_group_symop_operation_xyz
x,y,z
-x,1/2-y,1/2+z
x,-y,-z
-x,1/2+y,1/2-z
-x,-y,-z
x,1/2+y,1/2-z
-x,y,z
x,1/2-y,1/2+z
1/2+x,1/2+y,z
1/2-x,-y,1/2+z
1/2+x,1/2-y,-z
1/2-x,y,1/2-z
1/2-x,1/2-y,-z
1/2+x,y,1/2-z
1/2-x,1/2+y,z
1/2+x,-y,1/2+z
loop_
_atom_site_type_symbol
_atom_site_label
_atom_site_fract_x
_atom_site_fract_y
_atom_site_fract_z
Si Si1 0.732976 0.764206 0.588547
Si Si2 0.123766 0.946810 0.691525
Si Si3 0.785190 0.994796 0.404460
Si Si4 0.448141 0.279692 0.641307
Si Si5 0.947582 0.983637 0.090697
Si Si6 0.128989 0.166788 0.144718
Si Si7 0.554367 0.841849 0.193430
O O1 0.750000 0.750000 0.500000
O O2 0.760166 0.881245 0.618680
O O3 0.740591 0.629305 0.618127
O O4 0.677079 0.797424 0.600151
O O5 0.166235 0.007666 0.645203
O O6 0.096142 0.863968 0.630523
O O7 0.140819 0.868891 0.765326
O O8 0.082772 0.040204 0.717363
O O9 0.791049 0.000000 0.500000
O O10 0.500000 0.330229 0.619580
O O11 0.441691 0.154457 0.602622
O O12 0.449231 0.245066 0.732623
O O13 0.000000 0.018012 0.127653
O O14 0.901193 0.054925 0.116193
O O15 0.951946 0.000000 0.000000
O O16 0.090301 0.272184 0.137580
O O17 0.500000 0.864504 0.166578
#
# Coordination Sequence:
#
# PCOD9477958 Si02
#       7
#    16  16  16  16  16  16  16
#     4  10  23  44  66  91 121 168 216 271 335 392
#     4  11  21  37  63  94 124 167 206 265 317 380
#     4  10  23  44  67  92 126 164 216 270 331 397
#     4   9  19  34  55  89 128 165 205 245 307 383
#     4  10  21  36  56  87 128 166 206 260 311 377
#     4  11  22  38  64  94 124 163 221 262 318 396
#     4  10  19  35  62  93 130 168 204 253 315 384
#
# _framework density 20.572084
#
# number of rings (size 3 to 8) (size 9 to 14) (size 15 to 20)
#    0.000    1.857    2.857    0.857    0.000    6.857 
#    0.000    1.429    0.000    0.857    0.000    0.000 
#    0.000    0.000    0.000    0.000    0.000    0.000 
#
# Total GULP energy -311806.672013 kJ/mol
# GULP energy per Si atom -5567.976286 kJ/mol
# Density = 2.052526 g / cm^3
# Si number density = 20.572084 Si / 1000 Ang^3
#
#
#
# Elastic Constant Matrix: (Units=GPa)
#
#
# Indices 1 2 3 4 5 6 
#
# 1 89.5196 41.6565 22.9463 0.0000 0.0000 0.0000
# 2 41.6565 100.2860 8.6253 0.0000 0.0000 0.0000
# 3 22.9463 8.6253 26.8626 0.0000 0.0000 0.0000
# 4 0.0000 0.0000 0.0000 11.1798 0.0000 0.0000
# 5 0.0000 0.0000 0.0000 0.0000 27.4439 0.0000
# 6 0.0000 0.0000 0.0000 0.0000 0.0000 43.6591
#
#
#
# Elastic Compliance Matrix: (Units=1/GPa)
#
#
# Indices 1 2 3 4 5 6 
#
# 1 0.017282 -0.006077 -0.012812 0.000000 0.000000 0.000000
# 2 -0.006077 0.012391 0.001212 0.000000 0.000000 0.000000
# 3 -0.012812 0.001212 0.047781 0.000000 0.000000 0.000000
# 4 0.000000 0.000000 0.000000 0.089447 0.000000 0.000000
# 5 0.000000 0.000000 0.000000 0.000000 0.036438 0.000000
# 6 0.000000 0.000000 0.000000 0.000000 0.000000 0.022905
#
#
# Mechanical properties :
#
#
# Convention : Reuss Voigt Hill
#
# Bulk Modulus (GPa) = 23.75169 40.34717 32.04943
# Shear Modulus (GPa) = 18.14014 26.01923 22.07969
#
# Velocity S-wave (km/s) = 2.97271 3.56024 3.27966
# Velocity P-wave (km/s) = 4.83253 6.04612 5.47306
#
# Compressibility (1/GPa) = 0.04210227
#
# Stress axis : x y z
#
# Youngs Moduli (GPa) = 57.86205 80.70105 20.92878
#
# Poissons Ratio (x) = 0.49041 0.26813
# Poissons Ratio (y) = 0.35162 -0.02537
# Poissons Ratio (z) = 0.74131 -0.09782
#
# Static dielectric constant tensor:
#      x y z
#    x 1.752650 0.000000 0.000000 
#    y 0.000000 1.783500 0.000000 
#    z 0.000000 0.000000 1.738680 
# 
# From -- ./inp_files/41531.got.cif
#   From: 2010.05.17/outbox.cif.g08.bks.cpg/sg64_21_cif.got.tgz:41531.got - 2010.06.03 16:29:19.
