data_PCOD9477866
_publ_section_title
;
Structure prediction by ZEFSAII (Michael W. Deem and Ramdas Pophale) SiO2 
 PCOD9477866
Probable space group: C M C A
;
_chemical_formula_sum "Si O2"
_cell_formula_units_Z 72
_cell_length_a 31.564646
_cell_length_b 22.685269
_cell_length_c 5.250556
_cell_angle_alpha 90.000000
_cell_angle_beta 90.000000
_cell_angle_gamma 90.000000
_cell_volume 3759.673674
_symmetry_space_group_name_H-M "C M C A"
_symmetry_group_IT_number 64
_symmetry_cell_setting 'orthorhombic'
loop_
_space_group_symop_operation_xyz
x,y,z
-x,1/2-y,1/2+z
x,-y,-z
-x,1/2+y,1/2-z
-x,-y,-z
x,1/2+y,1/2-z
-x,y,z
x,1/2-y,1/2+z
1/2+x,1/2+y,z
1/2-x,-y,1/2+z
1/2+x,1/2-y,-z
1/2-x,y,1/2-z
1/2-x,1/2-y,-z
1/2+x,y,1/2-z
1/2-x,1/2+y,z
1/2+x,-y,1/2+z
loop_
_atom_site_type_symbol
_atom_site_label
_atom_site_fract_x
_atom_site_fract_y
_atom_site_fract_z
Si Si1 0.000000 0.715347 0.933655
Si Si2 0.702905 0.190755 0.652306
Si Si3 0.167575 0.322387 0.854098
Si Si4 0.426106 0.130419 0.114677
Si Si5 0.550264 0.562638 0.876769
O O1 0.000000 0.768691 0.136535
O O2 0.958604 0.678271 0.004583
O O3 0.750000 0.205784 0.750000
O O4 0.696946 0.159919 0.382552
O O5 0.676605 0.251870 0.621849
O O6 0.683007 0.152951 0.877128
O O7 0.119164 0.340134 0.828233
O O8 0.426233 0.082164 0.883937
O O9 0.442742 0.106445 0.385067
O O10 0.500000 0.560174 0.813281
O O11 0.562887 0.500000 0.000000
#
# Coordination Sequence:
#
# PCOD9477866 Si02
#       5
#     8  16  16  16  16
#     4  12  26  36  53  74 121 166 190 226 268 350
#     4  10  19  35  52  77 111 155 192 222 265 329
#     4  10  20  30  52  75 110 143 181 230 271 319
#     4  12  23  39  54  85 114 146 206 234 289 349
#     4  11  22  41  62  79 103 147 200 262 302 327
#
# _framework density 19.150597000000001
#
# number of rings (size 3 to 8) (size 9 to 14) (size 15 to 20)
#    0.000    1.111    2.222    6.667    6.222    1.778 
#    0.000    0.000    0.000    0.000    0.000    0.000 
#    0.000   80.000    0.000    0.000    0.000    0.000 
#
# Total GULP energy -200651.146919 kJ/mol
# GULP energy per Si atom -5573.642970 kJ/mol
# Density = 1.910701 g / cm^3
# Si number density = 19.150597 Si / 1000 Ang^3
#
#
#
# Elastic Constant Matrix: (Units=GPa)
#
#
# Indices 1 2 3 4 5 6 
#
# 1 80.0917 21.2385 -6.6699 0.0000 0.0000 0.0000
# 2 21.2385 31.7481 -4.3475 0.0000 0.0000 0.0000
# 3 -6.6699 -4.3475 108.3157 0.0000 0.0000 0.0000
# 4 0.0000 0.0000 0.0000 51.4543 0.0000 0.0000
# 5 0.0000 0.0000 0.0000 0.0000 38.8936 0.0000
# 6 0.0000 0.0000 0.0000 0.0000 0.0000 17.9245
#
#
#
# Elastic Compliance Matrix: (Units=1/GPa)
#
#
# Indices 1 2 3 4 5 6 
#
# 1 0.015209 -0.010101 0.000531 0.000000 0.000000 0.000000
# 2 -0.010101 0.038381 0.000919 0.000000 0.000000 0.000000
# 3 0.000531 0.000919 0.009302 0.000000 0.000000 0.000000
# 4 0.000000 0.000000 0.000000 0.019435 0.000000 0.000000
# 5 0.000000 0.000000 0.000000 0.000000 0.025711 0.000000
# 6 0.000000 0.000000 0.000000 0.000000 0.000000 0.055789
#
#
# Mechanical properties :
#
#
# Convention : Reuss Voigt Hill
#
# Bulk Modulus (GPa) = 21.93553 26.73306 24.33429
# Shear Modulus (GPa) = 25.46777 35.65011 30.55894
#
# Velocity S-wave (km/s) = 3.65069 4.31927 3.99898
# Velocity P-wave (km/s) = 5.40825 6.23414 5.83582
#
# Compressibility (1/GPa) = 0.04558815
#
# Stress axis : x y z
#
# Youngs Moduli (GPa) = 65.75241 26.05437 107.50556
#
# Poissons Ratio (x) = 0.26318 -0.05709
# Poissons Ratio (y) = 0.66419 -0.09874
# Poissons Ratio (z) = -0.03492 -0.02393
#
# Static dielectric constant tensor:
#      x y z
#    x 1.679640 0.000000 0.000000 
#    y 0.000000 1.705140 0.000000 
#    z 0.000000 0.000000 1.789670 
# 
# From -- ./inp_files/2824.got.cif
#   From: 2010.05.17/outbox.cif.g08.bks.cpg/sg64_2_cif.got.tgz:2824.got - 2010.06.03 16:29:19.
