data_PCOD9477596
_publ_section_title
;
Structure prediction by ZEFSAII (Michael W. Deem and Ramdas Pophale) SiO2 
 PCOD9477596
Probable space group: C M C A
;
_chemical_formula_sum "Si O2"
_cell_formula_units_Z 96
_cell_length_a 20.613928
_cell_length_b 13.626600
_cell_length_c 15.074481
_cell_angle_alpha 90.000000
_cell_angle_beta 90.000000
_cell_angle_gamma 90.000000
_cell_volume 4234.387815
_symmetry_space_group_name_H-M "C M C A"
_symmetry_group_IT_number 64
_symmetry_cell_setting 'orthorhombic'
loop_
_space_group_symop_operation_xyz
x,y,z
-x,1/2-y,1/2+z
x,-y,-z
-x,1/2+y,1/2-z
-x,-y,-z
x,1/2+y,1/2-z
-x,y,z
x,1/2-y,1/2+z
1/2+x,1/2+y,z
1/2-x,-y,1/2+z
1/2+x,1/2-y,-z
1/2-x,y,1/2-z
1/2-x,1/2-y,-z
1/2+x,y,1/2-z
1/2-x,1/2+y,z
1/2+x,-y,1/2+z
loop_
_atom_site_type_symbol
_atom_site_label
_atom_site_fract_x
_atom_site_fract_y
_atom_site_fract_z
Si Si1 0.570158 0.311438 0.758583
Si Si2 0.210403 0.407679 0.164126
Si Si3 0.701894 0.327694 0.826998
Si Si4 0.928309 0.610947 0.873231
Si Si5 0.425353 0.235208 0.052731
Si Si6 0.683730 0.896284 0.486122
O O1 0.500000 0.356845 0.775848
O O2 0.629762 0.364106 0.805310
O O3 0.568140 0.202249 0.803298
O O4 0.580984 0.304011 0.653164
O O5 0.250000 0.440226 0.250000
O O6 0.200428 0.290264 0.173536
O O7 0.137562 0.447686 0.149325
O O8 0.259963 0.416902 0.083829
O O9 0.750000 0.356435 0.750000
O O10 0.718933 0.361115 0.924538
O O11 0.000000 0.562230 0.871153
O O12 0.919171 0.657434 0.971922
O O13 0.500000 0.273339 0.045141
O O14 0.368882 0.315058 0.040299
O O15 0.648956 0.000000 0.500000
#
# Coordination Sequence:
#
# PCOD9477596 Si02
#       6
#    16  16  16  16  16  16
#     4   9  17  31  54  83 107 131 173 229 282 327
#     4  10  20  36  59  81 110 141 189 241 282 325
#     4  10  20  34  56  80 104 142 183 238 278 319
#     4   9  17  31  55  83 107 133 174 237 283 317
#     4  10  19  33  54  81 111 142 181 227 278 334
#     4  12  24  35  52  80 117 156 183 223 285 351
#
# _framework density 22.671517000000001
#
# number of rings (size 3 to 8) (size 9 to 14) (size 15 to 20)
#    0.000    2.000    3.333    3.500    2.333    1.000 
#    0.000    0.000    0.000    0.500    0.000    2.333 
#    0.000    0.000    0.000    0.000    0.000    0.000 
#
# Total GULP energy -268072.965302 kJ/mol
# GULP energy per Si atom -5584.853444 kJ/mol
# Density = 2.261992 g / cm^3
# Si number density = 22.671517 Si / 1000 Ang^3
#
#
#
# Elastic Constant Matrix: (Units=GPa)
#
#
# Indices 1 2 3 4 5 6 
#
# 1 165.3539 6.6125 48.6579 0.0000 0.0000 0.0000
# 2 6.6125 27.6361 -9.4772 0.0000 0.0000 0.0000
# 3 48.6579 -9.4772 143.1980 0.0000 0.0000 0.0000
# 4 0.0000 0.0000 0.0000 13.9403 0.0000 0.0000
# 5 0.0000 0.0000 0.0000 0.0000 38.2350 0.0000
# 6 0.0000 0.0000 0.0000 0.0000 0.0000 -2.7042
#
#
#
# Elastic Compliance Matrix: (Units=1/GPa)
#
#
# Indices 1 2 3 4 5 6 
#
# 1 0.006885 -0.002507 -0.002505 0.000000 0.000000 0.000000
# 2 -0.002507 0.037937 0.003363 0.000000 0.000000 0.000000
# 3 -0.002505 0.003363 0.008057 0.000000 0.000000 0.000000
# 4 0.000000 0.000000 0.000000 0.071734 0.000000 0.000000
# 5 0.000000 0.000000 0.000000 0.000000 0.026154 0.000000
# 6 0.000000 0.000000 0.000000 0.000000 0.000000 -0.369794
#
#
# Mechanical properties :
#
#
# Convention : Reuss Voigt Hill
#
# Bulk Modulus (GPa) = 20.16911 47.53049 33.84980
# Shear Modulus (GPa) = -25.10036 29.25387 2.07676
#
# Velocity S-wave (km/s) = -3.33097 3.59602 0.95813
# Velocity P-wave (km/s) = 2.42451 6.18484 4.02330
#
# Compressibility (1/GPa) = 0.04958078
#
# Stress axis : x y z
#
# Youngs Moduli (GPa) = 145.24047 26.35919 124.11251
#
# Poissons Ratio (x) = 0.06607 0.31095
# Poissons Ratio (y) = 0.36406 -0.41733
# Poissons Ratio (z) = 0.36389 -0.08863
#
# Static dielectric constant tensor:
#      x y z
#    x 1.630150 0.000000 0.000000 
#    y 0.000000 1.833200 0.000000 
#    z 0.000000 0.000000 1.830080 
# 
# From -- ./inp_files/26306.got.cif
#   From: 2010.05.17/outbox.cif.g08.bks.cpg/sg64_14_cif.got.tgz:26306.got - 2010.06.03 16:29:19.
