data_PCOD9477120
_publ_section_title
;
Structure prediction by ZEFSAII (Michael W. Deem and Ramdas Pophale) SiO2 
 PCOD9477120
Probable space group: C M C A
;
_chemical_formula_sum "Si O2"
_cell_formula_units_Z 56
_cell_length_a 10.322299
_cell_length_b 18.417490
_cell_length_c 14.471698
_cell_angle_alpha 90.000000
_cell_angle_beta 90.000000
_cell_angle_gamma 90.000000
_cell_volume 2751.226643
_symmetry_space_group_name_H-M "C M C A"
_symmetry_group_IT_number 64
_symmetry_cell_setting 'orthorhombic'
loop_
_space_group_symop_operation_xyz
x,y,z
-x,1/2-y,1/2+z
x,-y,-z
-x,1/2+y,1/2-z
-x,-y,-z
x,1/2+y,1/2-z
-x,y,z
x,1/2-y,1/2+z
1/2+x,1/2+y,z
1/2-x,-y,1/2+z
1/2+x,1/2-y,-z
1/2-x,y,1/2-z
1/2-x,1/2-y,-z
1/2+x,y,1/2-z
1/2-x,1/2+y,z
1/2+x,-y,1/2+z
loop_
_atom_site_type_symbol
_atom_site_label
_atom_site_fract_x
_atom_site_fract_y
_atom_site_fract_z
Si Si1 0.211110 0.912395 0.591609
Si Si2 0.500000 0.864818 0.053798
Si Si3 0.250000 0.792986 0.750000
Si Si4 0.500000 0.262871 0.831086
Si Si5 0.000000 0.567034 0.379683
Si Si6 0.500000 0.511854 0.688755
O O1 0.125855 0.889163 0.504009
O O2 0.216612 0.845119 0.663558
O O3 0.359283 0.935763 0.571867
O O4 0.126564 0.973443 0.643714
O O5 0.500000 0.779205 0.072794
O O6 0.500000 0.906593 0.151507
O O7 0.371340 0.744925 0.723566
O O8 0.500000 0.350546 0.838564
O O9 0.000000 0.509145 0.296167
#
# Coordination Sequence:
#
# PCOD9477120 Si02
#       6
#    16   8   8   8   8   8
#     4  10  18  37  61  90 109 159 197 239 279 359
#     4  11  25  35  58  91 131 144 188 247 319 315
#     4  10  18  36  66  80 118 160 210 224 282 360
#     4  10  20  39  56  93 114 156 191 253 279 355
#     4  10  19  35  69  84 111 158 215 225 282 359
#     4  11  18  39  58  87 115 165 189 241 281 364
#
# _framework density 20.354558000000001
#
# number of rings (size 3 to 8) (size 9 to 14) (size 15 to 20)
#    0.000    1.714    5.714    2.571    0.000    4.571 
#    5.143    4.286    0.000    0.000    0.000    0.000 
#    0.000    0.000    0.000    0.000    0.000    0.000 
#
# Total GULP energy -156143.461323 kJ/mol
# GULP energy per Si atom -5576.552190 kJ/mol
# Density = 2.030823 g / cm^3
# Si number density = 20.354558 Si / 1000 Ang^3
#
#
#
# Elastic Constant Matrix: (Units=GPa)
#
#
# Indices 1 2 3 4 5 6 
#
# 1 196.5548 21.1804 39.0271 0.0000 0.0000 0.0000
# 2 21.1804 30.2758 37.3235 0.0000 0.0000 0.0000
# 3 39.0271 37.3235 75.8445 0.0000 0.0000 0.0000
# 4 0.0000 0.0000 0.0000 -325.5994 0.0000 0.0000
# 5 0.0000 0.0000 0.0000 0.0000 12.3255 0.0000
# 6 0.0000 0.0000 0.0000 0.0000 0.0000 -14.9800
#
#
#
# Elastic Compliance Matrix: (Units=1/GPa)
#
#
# Indices 1 2 3 4 5 6 
#
# 1 0.005677 -0.000942 -0.002458 0.000000 0.000000 0.000000
# 2 -0.000942 0.084128 -0.040915 0.000000 0.000000 0.000000
# 3 -0.002458 -0.040915 0.034584 0.000000 0.000000 0.000000
# 4 0.000000 0.000000 0.000000 -0.003071 0.000000 0.000000
# 5 0.000000 0.000000 0.000000 0.000000 0.081133 0.000000
# 6 0.000000 0.000000 0.000000 0.000000 0.000000 -0.066756
#
#
# Mechanical properties :
#
#
# Convention : Reuss Voigt Hill
#
# Bulk Modulus (GPa) = 27.96435 55.30414 41.63424
# Shear Modulus (GPa) = 21.16448 -51.97452 -15.40502
#
# Velocity S-wave (km/s) = 3.22808 -5.05866 -2.75405
# Velocity P-wave (km/s) = 5.25951 2.62500 3.22271
#
# Compressibility (1/GPa) = 0.03575982
#
# Stress axis : x y z
#
# Youngs Moduli (GPa) = 176.14514 11.88664 28.91482
#
# Poissons Ratio (x) = 0.01119 0.07107
# Poissons Ratio (y) = 0.16584 1.18306
# Poissons Ratio (z) = 0.43296 0.48635
#
# Static dielectric constant tensor:
#      x y z
#    x 1.766380 0.000000 0.000000 
#    y 0.000000 1.719300 0.000000 
#    z 0.000000 0.000000 1.724790 
# 
# From -- ./inp_files/12780.got.cif
#   From: 2010.05.17/outbox.cif.g08.bks.cpg/sg64_7_cif.got.tgz:12780.got - 2010.06.03 16:29:19.
