data_PCOD9477837
_publ_section_title
;
Structure prediction by ZEFSAII (Michael W. Deem and Ramdas Pophale) SiO2 
 PCOD9477837
Probable space group: C M C A
;
_chemical_formula_sum "Si O2"
_cell_formula_units_Z 112
_cell_length_a 12.990072
_cell_length_b 31.580246
_cell_length_c 11.248906
_cell_angle_alpha 90.000000
_cell_angle_beta 90.000000
_cell_angle_gamma 90.000000
_cell_volume 4614.634989
_symmetry_space_group_name_H-M "C M C A"
_symmetry_group_IT_number 64
_symmetry_cell_setting 'orthorhombic'
loop_
_space_group_symop_operation_xyz
x,y,z
-x,1/2-y,1/2+z
x,-y,-z
-x,1/2+y,1/2-z
-x,-y,-z
x,1/2+y,1/2-z
-x,y,z
x,1/2-y,1/2+z
1/2+x,1/2+y,z
1/2-x,-y,1/2+z
1/2+x,1/2-y,-z
1/2-x,y,1/2-z
1/2-x,1/2-y,-z
1/2+x,y,1/2-z
1/2-x,1/2+y,z
1/2+x,-y,1/2+z
loop_
_atom_site_type_symbol
_atom_site_label
_atom_site_fract_x
_atom_site_fract_y
_atom_site_fract_z
Si Si1 0.619489 0.214933 0.938459
Si Si2 0.178972 0.120220 0.534138
Si Si3 0.614837 0.577386 0.762965
Si Si4 0.659786 0.039041 0.083728
Si Si5 0.611472 0.650686 0.956414
Si Si6 0.376706 0.740239 0.824549
Si Si7 0.884384 0.483557 0.650003
O O1 0.500000 0.227319 0.941751
O O2 0.626476 0.164076 0.929034
O O3 0.660070 0.235426 0.813882
O O4 0.660639 0.228292 0.069405
O O5 0.186637 0.091624 0.654011
O O6 0.126859 0.086099 0.450779
O O7 0.286711 0.135783 0.476639
O O8 0.500000 0.571517 0.708440
O O9 0.605399 0.615724 0.853895
O O10 0.634065 0.533868 0.832684
O O11 0.785695 0.036528 0.085771
O O12 0.621491 0.031442 0.215202
O O13 0.626533 0.000000 0.000000
O O14 0.500000 0.653234 0.017864
O O15 0.633026 0.694649 0.889314
O O16 0.500000 0.748525 0.811424
O O17 0.000000 0.474683 0.603191
#
# Coordination Sequence:
#
# PCOD9477837 Si02
#       7
#    16  16  16  16  16  16  16
#     4  10  21  39  64  96 133 172 217 276 340 405
#     4  12  22  35  62  94 126 164 212 274 332 386
#     4  10  19  34  60  90 120 157 208 263 317 382
#     4  11  23  39  60  91 129 164 215 276 324 389
#     4  10  21  36  57  90 125 162 211 261 318 389
#     4   9  19  38  62  93 131 169 214 269 329 400
#     4  10  23  41  61  87 126 172 214 263 330 401
#
# _framework density 24.270609
#
# number of rings (size 3 to 8) (size 9 to 14) (size 15 to 20)
#    0.000    1.714    2.857    1.714    2.000    2.857 
#    0.000    2.857    0.000    1.714    0.000    0.000 
#    0.000    0.000    0.000    0.000    0.000    0.000 
#
# Total GULP energy -312567.223020 kJ/mol
# GULP energy per Si atom -5581.557554 kJ/mol
# Density = 2.421537 g / cm^3
# Si number density = 24.270609 Si / 1000 Ang^3
#
#
#
# Elastic Constant Matrix: (Units=GPa)
#
#
# Indices 1 2 3 4 5 6 
#
# 1 98.5875 5.7118 11.1241 0.0000 0.0000 0.0000
# 2 5.7118 85.2492 29.3741 0.0000 0.0000 0.0000
# 3 11.1241 29.3741 114.4770 0.0000 0.0000 0.0000
# 4 0.0000 0.0000 0.0000 31.3610 0.0000 0.0000
# 5 0.0000 0.0000 0.0000 0.0000 15.7311 0.0000
# 6 0.0000 0.0000 0.0000 0.0000 0.0000 13.4720
#
#
#
# Elastic Compliance Matrix: (Units=1/GPa)
#
#
# Indices 1 2 3 4 5 6 
#
# 1 0.010267 -0.000378 -0.000901 0.000000 0.000000 0.000000
# 2 -0.000378 0.012882 -0.003269 0.000000 0.000000 0.000000
# 3 -0.000901 -0.003269 0.009662 0.000000 0.000000 0.000000
# 4 0.000000 0.000000 0.000000 0.031887 0.000000 0.000000
# 5 0.000000 0.000000 0.000000 0.000000 0.063568 0.000000
# 6 0.000000 0.000000 0.000000 0.000000 0.000000 0.074228
#
#
# Mechanical properties :
#
#
# Convention : Reuss Voigt Hill
#
# Bulk Modulus (GPa) = 42.16512 43.41485 42.78998
# Shear Modulus (GPa) = 22.77979 28.91974 25.84976
#
# Velocity S-wave (km/s) = 3.06694 3.45563 3.26707
# Velocity P-wave (km/s) = 5.47285 5.81795 5.64804
#
# Compressibility (1/GPa) = 0.02371629
#
# Stress axis : x y z
#
# Youngs Moduli (GPa) = 97.40142 77.62822 103.50205
#
# Poissons Ratio (x) = 0.02931 0.09323
# Poissons Ratio (y) = 0.03677 0.33832
# Poissons Ratio (z) = 0.08774 0.25375
#
# Static dielectric constant tensor:
#      x y z
#    x 2.131970 0.000000 0.000000 
#    y 0.000000 1.861880 0.000000 
#    z 0.000000 0.000000 1.907560 
# 
# From -- ./inp_files/14974.got.cif
#   From: 2010.05.17/outbox.cif.g08.bks.cpg/sg64_8_cif.got.tgz:14974.got - 2010.06.03 16:29:19.
