data_PCOD9477019
_publ_section_title
;
Structure prediction by ZEFSAII (Michael W. Deem and Ramdas Pophale) SiO2 
 PCOD9477019
Probable space group: C M C A
;
_chemical_formula_sum "Si O2"
_cell_formula_units_Z 112
_cell_length_a 23.871830
_cell_length_b 23.804931
_cell_length_c 10.894646
_cell_angle_alpha 90.000000
_cell_angle_beta 90.000000
_cell_angle_gamma 90.000000
_cell_volume 6191.070696
_symmetry_space_group_name_H-M "C M C A"
_symmetry_group_IT_number 64
_symmetry_cell_setting 'orthorhombic'
loop_
_space_group_symop_operation_xyz
x,y,z
-x,1/2-y,1/2+z
x,-y,-z
-x,1/2+y,1/2-z
-x,-y,-z
x,1/2+y,1/2-z
-x,y,z
x,1/2-y,1/2+z
1/2+x,1/2+y,z
1/2-x,-y,1/2+z
1/2+x,1/2-y,-z
1/2-x,y,1/2-z
1/2-x,1/2-y,-z
1/2+x,y,1/2-z
1/2-x,1/2+y,z
1/2+x,-y,1/2+z
loop_
_atom_site_type_symbol
_atom_site_label
_atom_site_fract_x
_atom_site_fract_y
_atom_site_fract_z
Si Si1 0.316483 0.191811 0.778332
Si Si2 0.000000 0.544807 0.810693
Si Si3 0.121335 0.087508 0.333371
Si Si4 0.620567 0.028280 0.704650
Si Si5 0.187354 0.913398 0.424152
Si Si6 0.181823 0.611318 0.555679
Si Si7 0.500000 0.580788 0.424039
Si Si8 0.186873 0.680171 0.302476
O O1 0.250000 0.193835 0.750000
O O2 0.327144 0.151720 0.894317
O O3 0.336721 0.156831 0.659781
O O4 0.333567 0.255449 0.803607
O O5 0.057378 0.548269 0.735200
O O6 0.000000 0.483681 0.875611
O O7 0.000000 0.585059 0.928799
O O8 0.156530 0.067352 0.452525
O O9 0.150636 0.143030 0.287783
O O10 0.058448 0.102120 0.372600
O O11 0.121783 0.038577 0.229900
O O12 0.662570 0.052275 0.809780
O O13 0.641846 0.057738 0.580174
O O14 0.254792 0.912944 0.427972
O O15 0.183498 0.647027 0.431095
O O16 0.250000 0.679844 0.250000
#
# Coordination Sequence:
#
# PCOD9477019 Si02
#       8
#    16   8  16  16  16  16   8  16
#     4   8  19  33  55  78 108 145 185 228 269 322
#     4   9  16  32  59  80  98 145 197 227 264 306
#     4  11  21  34  56  84 109 145 188 226 274 325
#     4  10  20  35  54  83 113 145 182 229 274 324
#     4  10  18  34  55  82 111 145 177 226 279 323
#     4  10  21  37  51  80 123 144 174 225 282 338
#     4   9  18  34  55  78 110 137 191 245 250 312
#     4  11  22  34  54  83 110 149 187 222 273 336
#
# _framework density 18.09057
#
# number of rings (size 3 to 8) (size 9 to 14) (size 15 to 20)
#    0.000    2.143    2.857    1.714    2.000    3.429 
#    2.571    0.714    0.000    6.857    0.000    0.000 
#    0.000    0.000    0.000    0.000    0.000    0.000 
#
# Total GULP energy -311907.610448 kJ/mol
# GULP energy per Si atom -5569.778758 kJ/mol
# Density = 1.804940 g / cm^3
# Si number density = 18.090570 Si / 1000 Ang^3
#
#
#
# Elastic Constant Matrix: (Units=GPa)
#
#
# Indices 1 2 3 4 5 6 
#
# 1 87.1269 24.4159 17.4052 0.0000 0.0000 0.0000
# 2 24.4159 86.4035 17.3241 0.0000 0.0000 0.0000
# 3 17.4052 17.3241 67.9651 0.0000 0.0000 0.0000
# 4 0.0000 0.0000 0.0000 24.5064 0.0000 0.0000
# 5 0.0000 0.0000 0.0000 0.0000 -4.4111 0.0000
# 6 0.0000 0.0000 0.0000 0.0000 0.0000 -91.6196
#
#
#
# Elastic Compliance Matrix: (Units=1/GPa)
#
#
# Indices 1 2 3 4 5 6 
#
# 1 0.012853 -0.003132 -0.002493 0.000000 0.000000 0.000000
# 2 -0.003132 0.012960 -0.002501 0.000000 0.000000 0.000000
# 3 -0.002493 -0.002501 0.015990 0.000000 0.000000 0.000000
# 4 0.000000 0.000000 0.000000 0.040806 0.000000 0.000000
# 5 0.000000 0.000000 0.000000 0.000000 -0.226702 0.000000
# 6 0.000000 0.000000 0.000000 0.000000 0.000000 -0.010915
#
#
# Mechanical properties :
#
#
# Convention : Reuss Voigt Hill
#
# Bulk Modulus (GPa) = 39.13979 39.97621 39.55800
# Shear Modulus (GPa) = -38.39133 -2.14817 -20.26975
#
# Velocity S-wave (km/s) = -4.61170 -1.09089 -3.35096
# Velocity P-wave (km/s) = 2.58353 4.53421 2.63481
#
# Compressibility (1/GPa) = 0.02554945
#
# Stress axis : x y z
#
# Youngs Moduli (GPa) = 77.80089 77.15908 62.54091
#
# Poissons Ratio (x) = 0.24168 0.15593
# Poissons Ratio (y) = 0.24369 0.15644
# Poissons Ratio (z) = 0.19398 0.19301
#
# Static dielectric constant tensor:
#      x y z
#    x 1.626850 0.000000 0.000000 
#    y 0.000000 1.632500 0.000000 
#    z 0.000000 0.000000 2.235540 
# 
# From -- ./inp_files/18659.got.cif
#   From: 2010.05.17/outbox.cif.g08.bks.cpg/sg64_10_cif.got.tgz:18659.got - 2010.06.03 16:29:19.
