data_PCOD9477816
_publ_section_title
;
Structure prediction by ZEFSAII (Michael W. Deem and Ramdas Pophale) SiO2 
 PCOD9477816
Probable space group: C M C A
;
_chemical_formula_sum "Si O2"
_cell_formula_units_Z 88
_cell_length_a 13.915939
_cell_length_b 24.199385
_cell_length_c 11.981295
_cell_angle_alpha 90.000000
_cell_angle_beta 90.000000
_cell_angle_gamma 90.000000
_cell_volume 4034.786943
_symmetry_space_group_name_H-M "C M C A"
_symmetry_group_IT_number 64
_symmetry_cell_setting 'orthorhombic'
loop_
_space_group_symop_operation_xyz
x,y,z
-x,1/2-y,1/2+z
x,-y,-z
-x,1/2+y,1/2-z
-x,-y,-z
x,1/2+y,1/2-z
-x,y,z
x,1/2-y,1/2+z
1/2+x,1/2+y,z
1/2-x,-y,1/2+z
1/2+x,1/2-y,-z
1/2-x,y,1/2-z
1/2-x,1/2-y,-z
1/2+x,y,1/2-z
1/2-x,1/2+y,z
1/2+x,-y,1/2+z
loop_
_atom_site_type_symbol
_atom_site_label
_atom_site_fract_x
_atom_site_fract_y
_atom_site_fract_z
Si Si1 0.605306 0.974275 0.802559
Si Si2 0.703850 0.190279 0.631389
Si Si3 0.250395 0.000000 0.500000
Si Si4 0.842357 0.578467 0.669529
Si Si5 0.201740 0.185492 0.417085
Si Si6 0.389654 0.139223 0.294826
O O1 0.500000 0.961365 0.849127
O O2 0.627815 0.926700 0.711789
O O3 0.601522 0.032806 0.739463
O O4 0.682929 0.977695 0.900210
O O5 0.750000 0.203416 0.750000
O O6 0.626955 0.141063 0.643763
O O7 0.785364 0.168330 0.545180
O O8 0.674230 0.249779 0.584905
O O9 0.312885 0.048153 0.555583
O O10 0.750000 0.587106 0.750000
O O11 0.307797 0.171308 0.364419
O O12 0.128183 0.156102 0.334488
O O13 0.500000 0.150074 0.328413
#
# Coordination Sequence:
#
# PCOD9477816 Si02
#       6
#    16  16   8  16  16  16
#     4  10  21  36  55  87 121 152 193 245 294 346
#     4  10  19  38  60  88 112 154 199 246 295 367
#     4  10  19  34  59  84 112 156 196 232 283 360
#     4   9  20  32  55  83 115 144 192 229 287 347
#     4  10  21  37  67  81 117 160 200 246 309 344
#     4  10  21  38  61  91 120 156 208 248 289 358
#
# _framework density 21.810320999999998
#
# number of rings (size 3 to 8) (size 9 to 14) (size 15 to 20)
#    0.000    2.182    1.818    1.364   10.182    0.000 
#    0.000    5.909    0.000    1.091    0.000    0.000 
#    0.000    0.000    0.000    0.000    0.000    0.000 
#
# Total GULP energy -245270.713222 kJ/mol
# GULP energy per Si atom -5574.334391 kJ/mol
# Density = 2.176068 g / cm^3
# Si number density = 21.810321 Si / 1000 Ang^3
#
#
#
# Elastic Constant Matrix: (Units=GPa)
#
#
# Indices 1 2 3 4 5 6 
#
# 1 77.3786 10.6027 6.2849 0.0000 0.0000 0.0000
# 2 10.6027 104.4380 -3.9808 0.0000 0.0000 0.0000
# 3 6.2849 -3.9808 102.6157 0.0000 0.0000 0.0000
# 4 0.0000 0.0000 0.0000 28.5960 0.0000 0.0000
# 5 0.0000 0.0000 0.0000 0.0000 6.3784 0.0000
# 6 0.0000 0.0000 0.0000 0.0000 0.0000 19.6176
#
#
#
# Elastic Compliance Matrix: (Units=1/GPa)
#
#
# Indices 1 2 3 4 5 6 
#
# 1 0.013181 -0.001371 -0.000860 0.000000 0.000000 0.000000
# 2 -0.001371 0.009732 0.000461 0.000000 0.000000 0.000000
# 3 -0.000860 0.000461 0.009816 0.000000 0.000000 0.000000
# 4 0.000000 0.000000 0.000000 0.034970 0.000000 0.000000
# 5 0.000000 0.000000 0.000000 0.000000 0.156780 0.000000
# 6 0.000000 0.000000 0.000000 0.000000 0.000000 0.050975
#
#
# Mechanical properties :
#
#
# Convention : Reuss Voigt Hill
#
# Bulk Modulus (GPa) = 34.25971 34.47177 34.36574
# Shear Modulus (GPa) = 17.31763 29.02010 23.16886
#
# Velocity S-wave (km/s) = 2.82088 3.65165 3.26281
# Velocity P-wave (km/s) = 5.13341 5.79819 5.47590
#
# Compressibility (1/GPa) = 0.02918881
#
# Stress axis : x y z
#
# Youngs Moduli (GPa) = 75.86550 102.75561 101.87759
#
# Poissons Ratio (x) = 0.14088 0.08767
# Poissons Ratio (y) = 0.10401 -0.04702
# Poissons Ratio (z) = 0.06528 -0.04742
#
# Static dielectric constant tensor:
#      x y z
#    x 1.794250 0.000000 0.000000 
#    y 0.000000 1.881850 0.000000 
#    z 0.000000 0.000000 1.829640 
# 
# From -- ./inp_files/14583.got.cif
#   From: 2010.05.17/outbox.cif.g08.bks.cpg/sg64_8_cif.got.tgz:14583.got - 2010.06.03 16:29:19.
