data_PCOD9477074
_publ_section_title
;
Structure prediction by ZEFSAII (Michael W. Deem and Ramdas Pophale) SiO2 
 PCOD9477074
Probable space group: C M C A
;
_chemical_formula_sum "Si O2"
_cell_formula_units_Z 80
_cell_length_a 20.031075
_cell_length_b 14.094624
_cell_length_c 11.387750
_cell_angle_alpha 90.000000
_cell_angle_beta 90.000000
_cell_angle_gamma 90.000000
_cell_volume 3215.108815
_symmetry_space_group_name_H-M "C M C A"
_symmetry_group_IT_number 64
_symmetry_cell_setting 'orthorhombic'
loop_
_space_group_symop_operation_xyz
x,y,z
-x,1/2-y,1/2+z
x,-y,-z
-x,1/2+y,1/2-z
-x,-y,-z
x,1/2+y,1/2-z
-x,y,z
x,1/2-y,1/2+z
1/2+x,1/2+y,z
1/2-x,-y,1/2+z
1/2+x,1/2-y,-z
1/2-x,y,1/2-z
1/2-x,1/2-y,-z
1/2+x,y,1/2-z
1/2-x,1/2+y,z
1/2+x,-y,1/2+z
loop_
_atom_site_type_symbol
_atom_site_label
_atom_site_fract_x
_atom_site_fract_y
_atom_site_fract_z
Si Si1 0.421743 0.845007 0.686873
Si Si2 0.891203 0.643338 0.062249
Si Si3 0.385175 0.374819 0.314159
Si Si4 0.391088 0.857740 0.434063
Si Si5 0.259232 0.100385 0.943782
O O1 0.500000 0.825211 0.689866
O O2 0.403238 0.896755 0.808574
O O3 0.385091 0.741666 0.685573
O O4 0.406130 0.896010 0.563615
O O5 0.918658 0.750302 0.065567
O O6 0.917438 0.598446 0.940071
O O7 0.811590 0.645712 0.036612
O O8 0.414267 0.403029 0.188583
O O9 0.308915 0.408136 0.333010
O O10 0.310901 0.851092 0.423446
O O11 0.242302 0.000000 0.000000
#
# Coordination Sequence:
#
# PCOD9477074 Si02
#       5
#    16  16  16  16  16
#     4  10  20  35  58  87 114 146 195 245 280 327
#     4   8  19  34  53  84 115 146 187 231 283 332
#     4   8  19  34  54  84 112 146 184 236 286 338
#     4  10  18  35  57  85 115 147 183 244 289 335
#     4  10  20  37  56  86 120 150 185 230 295 364
#
# _framework density 24.882517
#
# number of rings (size 3 to 8) (size 9 to 14) (size 15 to 20)
#    1.200    1.600    0.000    1.200    0.000    8.000 
#    7.200    0.000    0.000    3.000    0.000    0.000 
#    0.000    0.000    0.000    0.000    0.000    0.000 
#
# Total GULP energy -222789.792738 kJ/mol
# GULP energy per Si atom -5569.744818 kJ/mol
# Density = 2.482588 g / cm^3
# Si number density = 24.882517 Si / 1000 Ang^3
#
#
#
# Elastic Constant Matrix: (Units=GPa)
#
#
# Indices 1 2 3 4 5 6 
#
# 1 89.3732 -4.4928 10.9148 0.0000 0.0000 0.0000
# 2 -4.4928 62.9110 31.4273 0.0000 0.0000 0.0000
# 3 10.9148 31.4273 308.9260 0.0000 0.0000 0.0000
# 4 0.0000 0.0000 0.0000 29.6246 0.0000 0.0000
# 5 0.0000 0.0000 0.0000 0.0000 57.5329 0.0000
# 6 0.0000 0.0000 0.0000 0.0000 0.0000 -34.8379
#
#
#
# Elastic Compliance Matrix: (Units=1/GPa)
#
#
# Indices 1 2 3 4 5 6 
#
# 1 0.011304 0.001061 -0.000507 0.000000 0.000000 0.000000
# 2 0.001061 0.016846 -0.001751 0.000000 0.000000 0.000000
# 3 -0.000507 -0.001751 0.003433 0.000000 0.000000 0.000000
# 4 0.000000 0.000000 0.000000 0.033756 0.000000 0.000000
# 5 0.000000 0.000000 0.000000 0.000000 0.017381 0.000000
# 6 0.000000 0.000000 0.000000 0.000000 0.000000 -0.028704
#
#
# Mechanical properties :
#
#
# Convention : Reuss Voigt Hill
#
# Bulk Modulus (GPa) = 34.26085 59.65652 46.95869
# Shear Modulus (GPa) = 75.59594 38.68798 57.14196
#
# Velocity S-wave (km/s) = 5.51789 3.94741 4.79735
# Velocity P-wave (km/s) = 7.37530 6.69353 7.04267
#
# Compressibility (1/GPa) = 0.02918784
#
# Stress axis : x y z
#
# Youngs Moduli (GPa) = 88.46183 59.36109 291.28197
#
# Poissons Ratio (x) = -0.06297 0.14777
# Poissons Ratio (y) = -0.09383 0.51010
# Poissons Ratio (z) = 0.04488 0.10396
#
# Static dielectric constant tensor:
#      x y z
#    x 1.889140 0.000000 0.000000 
#    y 0.000000 1.957120 0.000000 
#    z 0.000000 0.000000 2.091750 
# 
# From -- ./inp_files/18076.got.cif
#   From: 2010.05.17/outbox.cif.g08.bks.cpg/sg64_10_cif.got.tgz:18076.got - 2010.06.03 16:29:19.
