data_PCOD9477306
_publ_section_title
;
Structure prediction by ZEFSAII (Michael W. Deem and Ramdas Pophale) SiO2 
 PCOD9477306
Probable space group: C M C A
;
_chemical_formula_sum "Si O2"
_cell_formula_units_Z 80
_cell_length_a 13.668808
_cell_length_b 17.445006
_cell_length_c 20.760463
_cell_angle_alpha 90.000000
_cell_angle_beta 90.000000
_cell_angle_gamma 90.000000
_cell_volume 4950.383007
_symmetry_space_group_name_H-M "C M C A"
_symmetry_group_IT_number 64
_symmetry_cell_setting 'orthorhombic'
loop_
_space_group_symop_operation_xyz
x,y,z
-x,1/2-y,1/2+z
x,-y,-z
-x,1/2+y,1/2-z
-x,-y,-z
x,1/2+y,1/2-z
-x,y,z
x,1/2-y,1/2+z
1/2+x,1/2+y,z
1/2-x,-y,1/2+z
1/2+x,1/2-y,-z
1/2-x,y,1/2-z
1/2-x,1/2-y,-z
1/2+x,y,1/2-z
1/2-x,1/2+y,z
1/2+x,-y,1/2+z
loop_
_atom_site_type_symbol
_atom_site_label
_atom_site_fract_x
_atom_site_fract_y
_atom_site_fract_z
Si Si1 0.764387 0.419408 0.530023
Si Si2 0.114401 0.820215 0.608838
Si Si3 0.685367 0.996710 0.656451
Si Si4 0.612142 0.048600 0.206120
Si Si5 0.383733 0.354871 0.089653
O O1 0.727184 0.500000 0.500000
O O2 0.679478 0.365350 0.557058
O O3 0.827036 0.445843 0.592288
O O4 0.827318 0.377442 0.475635
O O5 0.125093 0.866454 0.676042
O O6 0.141963 0.731152 0.611341
O O7 0.000000 0.824674 0.591199
O O8 0.634795 0.959042 0.718400
O O9 0.802002 0.999257 0.671126
O O10 0.645186 0.080782 0.641660
O O11 0.500000 0.025083 0.193129
O O12 0.500000 0.358629 0.079134
#
# Coordination Sequence:
#
# PCOD9477306 Si02
#       5
#    16  16  16  16  16
#     4   9  18  31  49  72  96 124 159 195 234 283
#     4   9  18  32  50  71  96 127 159 195 240 284
#     4   9  18  31  48  72  95 124 160 196 238 282
#     4   9  17  32  51  69  93 125 162 198 235 283
#     4  10  19  31  49  72  98 127 158 196 242 285
#
# _framework density 16.160366
#
# number of rings (size 3 to 8) (size 9 to 14) (size 15 to 20)
#    0.000    2.800    0.000    1.200    0.000    4.800 
#    0.000   11.000    0.000    1.200    0.000    2.800 
#    0.000    0.000    0.000    0.000    0.000    0.000 
#
# Total GULP energy -222681.723349 kJ/mol
# GULP energy per Si atom -5567.043084 kJ/mol
# Density = 1.612358 g / cm^3
# Si number density = 16.160366 Si / 1000 Ang^3
#
#
#
# Elastic Constant Matrix: (Units=GPa)
#
#
# Indices 1 2 3 4 5 6 
#
# 1 72.9229 61.2942 34.3425 0.0000 0.0000 0.0000
# 2 61.2942 142.9826 64.8140 0.0000 0.0000 0.0000
# 3 34.3425 64.8140 106.0752 0.0000 0.0000 0.0000
# 4 0.0000 0.0000 0.0000 16.1492 0.0000 0.0000
# 5 0.0000 0.0000 0.0000 0.0000 14.5103 0.0000
# 6 0.0000 0.0000 0.0000 0.0000 0.0000 25.8551
#
#
#
# Elastic Compliance Matrix: (Units=1/GPa)
#
#
# Indices 1 2 3 4 5 6 
#
# 1 0.021698 -0.008461 -0.001855 0.000000 0.000000 0.000000
# 2 -0.008461 0.012972 -0.005187 0.000000 0.000000 0.000000
# 3 -0.001855 -0.005187 0.013197 0.000000 0.000000 0.000000
# 4 0.000000 0.000000 0.000000 0.061923 0.000000 0.000000
# 5 0.000000 0.000000 0.000000 0.000000 0.068916 0.000000
# 6 0.000000 0.000000 0.000000 0.000000 0.000000 0.038677
#
#
# Mechanical properties :
#
#
# Convention : Reuss Voigt Hill
#
# Bulk Modulus (GPa) = 59.30594 71.43133 65.36863
# Shear Modulus (GPa) = 19.68422 22.07160 20.87791
#
# Velocity S-wave (km/s) = 3.49385 3.69966 3.59823
# Velocity P-wave (km/s) = 7.28382 7.90870 7.60268
#
# Compressibility (1/GPa) = 0.01686172
#
# Stress axis : x y z
#
# Youngs Moduli (GPa) = 46.08642 77.08868 75.77313
#
# Poissons Ratio (x) = 0.65222 0.14058
# Poissons Ratio (y) = 0.38992 0.39303
# Poissons Ratio (z) = 0.08551 0.39986
#
# Static dielectric constant tensor:
#      x y z
#    x 1.544730 0.000000 0.000000 
#    y 0.000000 1.531050 0.000000 
#    z 0.000000 0.000000 1.545290 
# 
# From -- ./inp_files/38961.got.cif
#   From: 2010.05.17/outbox.cif.g08.bks.cpg/sg64_20_cif.got.tgz:38961.got - 2010.06.03 16:29:19.
