data_PCOD9477448
_publ_section_title
;
Structure prediction by ZEFSAII (Michael W. Deem and Ramdas Pophale) SiO2 
 PCOD9477448
Probable space group: C M C A
;
_chemical_formula_sum "Si O2"
_cell_formula_units_Z 112
_cell_length_a 14.393886
_cell_length_b 14.267923
_cell_length_c 22.920436
_cell_angle_alpha 90.000000
_cell_angle_beta 90.000000
_cell_angle_gamma 90.000000
_cell_volume 4707.189587
_symmetry_space_group_name_H-M "C M C A"
_symmetry_group_IT_number 64
_symmetry_cell_setting 'orthorhombic'
loop_
_space_group_symop_operation_xyz
x,y,z
-x,1/2-y,1/2+z
x,-y,-z
-x,1/2+y,1/2-z
-x,-y,-z
x,1/2+y,1/2-z
-x,y,z
x,1/2-y,1/2+z
1/2+x,1/2+y,z
1/2-x,-y,1/2+z
1/2+x,1/2-y,-z
1/2-x,y,1/2-z
1/2-x,1/2-y,-z
1/2+x,y,1/2-z
1/2-x,1/2+y,z
1/2+x,-y,1/2+z
loop_
_atom_site_type_symbol
_atom_site_label
_atom_site_fract_x
_atom_site_fract_y
_atom_site_fract_z
Si Si1 0.398101 0.878565 0.234549
Si Si2 0.107455 0.551643 0.152019
Si Si3 0.691394 0.457385 0.904299
Si Si4 0.193775 0.869749 0.031331
Si Si5 0.897239 0.193016 0.515754
Si Si6 0.188679 0.732822 0.194471
Si Si7 0.632225 0.778490 0.638751
O O1 0.500000 0.898861 0.256933
O O2 0.338940 0.836488 0.286521
O O3 0.402170 0.788432 0.190389
O O4 0.369388 0.969276 0.198339
O O5 0.197680 0.548698 0.109734
O O6 0.112707 0.654805 0.180970
O O7 0.000000 0.534339 0.131566
O O8 0.665123 0.564536 0.915333
O O9 0.633004 0.391904 0.859574
O O10 0.670997 0.412489 0.967620
O O11 0.306502 0.869516 0.027559
O O12 0.141411 0.770346 0.029643
O O13 0.907134 0.242354 0.578613
O O14 0.000000 0.155958 0.499429
O O15 0.250000 0.696138 0.250000
O O16 0.257402 0.740427 0.140144
#
# Coordination Sequence:
#
# PCOD9477448 Si02
#       7
#    16  16  16  16  16  16  16
#     4  10  19  32  52  77 103 133 176 224 269 324
#     4  10  20  33  53  78 102 136 180 224 271 324
#     4   9  18  34  51  72 105 138 172 218 270 320
#     4   9  19  34  52  76 107 140 176 219 268 323
#     4  10  19  33  54  78 105 139 179 222 267 318
#     4   9  19  34  51  72 102 137 171 216 274 324
#     4   9  18  32  49  73 100 132 173 215 262 313
#
# _framework density 23.793389000000001
#
# number of rings (size 3 to 8) (size 9 to 14) (size 15 to 20)
#    0.000    2.571    0.000    1.714    0.000    4.000 
#    0.000    9.286    0.000    0.857    0.000    0.000 
#    0.000    2.286    0.000    0.000    0.000    0.000 
#
# Total GULP energy -311785.957609 kJ/mol
# GULP energy per Si atom -5567.606386 kJ/mol
# Density = 2.373923 g / cm^3
# Si number density = 23.793389 Si / 1000 Ang^3
#
#
#
# Elastic Constant Matrix: (Units=GPa)
#
#
# Indices 1 2 3 4 5 6 
#
# 1 45.6402 9.4775 14.3464 0.0000 0.0000 0.0000
# 2 9.4775 59.0049 11.3481 0.0000 0.0000 0.0000
# 3 14.3464 11.3481 51.6795 0.0000 0.0000 0.0000
# 4 0.0000 0.0000 0.0000 30.5498 0.0000 0.0000
# 5 0.0000 0.0000 0.0000 0.0000 7.5382 0.0000
# 6 0.0000 0.0000 0.0000 0.0000 0.0000 -37.3275
#
#
#
# Elastic Compliance Matrix: (Units=1/GPa)
#
#
# Indices 1 2 3 4 5 6 
#
# 1 0.024421 -0.002734 -0.006179 0.000000 0.000000 0.000000
# 2 -0.002734 0.018001 -0.003194 0.000000 0.000000 0.000000
# 3 -0.006179 -0.003194 0.021767 0.000000 0.000000 0.000000
# 4 0.000000 0.000000 0.000000 0.032733 0.000000 0.000000
# 5 0.000000 0.000000 0.000000 0.000000 0.132659 0.000000
# 6 0.000000 0.000000 0.000000 0.000000 0.000000 -0.026790
#
#
# Mechanical properties :
#
#
# Convention : Reuss Voigt Hill
#
# Bulk Modulus (GPa) = 25.01581 25.18541 25.10061
# Shear Modulus (GPa) = 20.80484 8.22895 14.51689
#
# Velocity S-wave (km/s) = 2.96023 1.86172 2.47275
# Velocity P-wave (km/s) = 4.71386 3.90248 4.32723
#
# Compressibility (1/GPa) = 0.03997472
#
# Stress axis : x y z
#
# Youngs Moduli (GPa) = 40.94915 55.55203 45.94195
#
# Poissons Ratio (x) = 0.15189 0.28387
# Poissons Ratio (y) = 0.11196 0.14673
# Poissons Ratio (z) = 0.25302 0.17742
#
# Static dielectric constant tensor:
#      x y z
#    x 1.951640 0.000000 0.000000 
#    y 0.000000 1.988120 0.000000 
#    z 0.000000 0.000000 1.958270 
# 
# From -- ./inp_files/50026.got.cif
#   From: 2010.05.17/outbox.cif.g08.bks.cpg/sg64_26_cif.got.tgz:50026.got - 2010.06.03 16:29:19.
