data_PCOD9477100
_publ_section_title
;
Structure prediction by ZEFSAII (Michael W. Deem and Ramdas Pophale) SiO2 
 PCOD9477100
Probable space group: C M C A
;
_chemical_formula_sum "Si O2"
_cell_formula_units_Z 72
_cell_length_a 15.145414
_cell_length_b 24.658783
_cell_length_c 8.637909
_cell_angle_alpha 90.000000
_cell_angle_beta 90.000000
_cell_angle_gamma 90.000000
_cell_volume 3225.978083
_symmetry_space_group_name_H-M "C M C A"
_symmetry_group_IT_number 64
_symmetry_cell_setting 'orthorhombic'
loop_
_space_group_symop_operation_xyz
x,y,z
-x,1/2-y,1/2+z
x,-y,-z
-x,1/2+y,1/2-z
-x,-y,-z
x,1/2+y,1/2-z
-x,y,z
x,1/2-y,1/2+z
1/2+x,1/2+y,z
1/2-x,-y,1/2+z
1/2+x,1/2-y,-z
1/2-x,y,1/2-z
1/2-x,1/2-y,-z
1/2+x,y,1/2-z
1/2-x,1/2+y,z
1/2+x,-y,1/2+z
loop_
_atom_site_type_symbol
_atom_site_label
_atom_site_fract_x
_atom_site_fract_y
_atom_site_fract_z
Si Si1 0.500000 0.004540 0.254545
Si Si2 0.655007 0.000000 0.500000
Si Si3 0.677231 0.382491 0.947626
Si Si4 0.145190 0.341543 0.892279
Si Si5 0.500000 0.410299 0.472624
Si Si6 0.500000 0.666921 0.936863
Si Si7 0.000000 0.265933 0.754423
O O1 0.587626 0.007655 0.357495
O O2 0.500000 0.049608 0.121420
O O3 0.500000 0.946315 0.176627
O O4 0.706823 0.942969 0.501686
O O5 0.756543 0.338907 0.960540
O O6 0.653231 0.377355 0.765368
O O7 0.588517 0.367603 0.039128
O O8 0.085434 0.373551 0.011683
O O9 0.088156 0.290092 0.837038
O O10 0.500000 0.702207 0.781990
O O11 0.500000 0.710101 0.081395
#
# Coordination Sequence:
#
# PCOD9477100 Si02
#       7
#     8   8  16  16   8   8   8
#     4  10  20  30  56  78 110 153 197 227 279 323
#     4  11  20  36  54  87 116 160 188 237 272 345
#     4  10  20  36  61  84 117 153 198 225 282 346
#     4   9  19  38  58  83 112 156 191 230 279 358
#     4  10  18  36  52  77 111 151 190 235 271 335
#     4  10  20  39  61  86 109 150 191 244 287 345
#     4   9  20  38  65  82 111 146 193 238 298 334
#
# _framework density 22.318811
#
# number of rings (size 3 to 8) (size 9 to 14) (size 15 to 20)
#    0.000    2.222    2.222    2.000    0.000    2.667 
#    8.000    0.000    0.000    0.000    0.000    0.000 
#    0.000    0.000    0.000    0.000    0.000    0.000 
#
# Total GULP energy -200998.732415 kJ/mol
# GULP energy per Si atom -5583.298123 kJ/mol
# Density = 2.226801 g / cm^3
# Si number density = 22.318811 Si / 1000 Ang^3
#
#
#
# Elastic Constant Matrix: (Units=GPa)
#
#
# Indices 1 2 3 4 5 6 
#
# 1 114.9477 17.4080 11.5988 0.0000 0.0000 0.0000
# 2 17.4080 64.4430 16.5617 0.0000 0.0000 0.0000
# 3 11.5988 16.5617 37.6728 0.0000 0.0000 0.0000
# 4 0.0000 0.0000 0.0000 37.3064 0.0000 0.0000
# 5 0.0000 0.0000 0.0000 0.0000 -45.5238 0.0000
# 6 0.0000 0.0000 0.0000 0.0000 0.0000 -147.2176
#
#
#
# Elastic Compliance Matrix: (Units=1/GPa)
#
#
# Indices 1 2 3 4 5 6 
#
# 1 0.009197 -0.001981 -0.001961 0.000000 0.000000 0.000000
# 2 -0.001981 0.017921 -0.007268 0.000000 0.000000 0.000000
# 3 -0.001961 -0.007268 0.030344 0.000000 0.000000 0.000000
# 4 0.000000 0.000000 0.000000 0.026805 0.000000 0.000000
# 5 0.000000 0.000000 0.000000 0.000000 -0.021967 0.000000
# 6 0.000000 0.000000 0.000000 0.000000 0.000000 -0.006793
#
#
# Mechanical properties :
#
#
# Convention : Reuss Voigt Hill
#
# Bulk Modulus (GPa) = 28.53768 34.24452 31.39110
# Shear Modulus (GPa) = 55.79861 -19.65401 18.07230
#
# Velocity S-wave (km/s) = 5.00550 -2.97071 2.84867
# Velocity P-wave (km/s) = 6.79859 1.89994 4.99152
#
# Compressibility (1/GPa) = 0.03504139
#
# Stress axis : x y z
#
# Youngs Moduli (GPa) = 108.72609 55.80178 32.95597
#
# Poissons Ratio (x) = 0.11052 0.06463
# Poissons Ratio (y) = 0.21533 0.23954
# Poissons Ratio (z) = 0.21322 0.40559
#
# Static dielectric constant tensor:
#      x y z
#    x 1.849790 0.000000 0.000000 
#    y 0.000000 1.828220 0.000000 
#    z 0.000000 0.000000 1.822290 
# 
# From -- ./inp_files/5905.got.cif
#   From: 2010.05.17/outbox.cif.g08.bks.cpg/sg64_3_cif.got.tgz:5905.got - 2010.06.03 16:29:19.
