data_PCOD9477613
_publ_section_title
;
Structure prediction by ZEFSAII (Michael W. Deem and Ramdas Pophale) SiO2 
 PCOD9477613
Probable space group: C M C A
;
_chemical_formula_sum "Si O2"
_cell_formula_units_Z 96
_cell_length_a 24.440665
_cell_length_b 21.830626
_cell_length_c 9.701541
_cell_angle_alpha 90.000000
_cell_angle_beta 90.000000
_cell_angle_gamma 90.000000
_cell_volume 5176.305871
_symmetry_space_group_name_H-M "C M C A"
_symmetry_group_IT_number 64
_symmetry_cell_setting 'orthorhombic'
loop_
_space_group_symop_operation_xyz
x,y,z
-x,1/2-y,1/2+z
x,-y,-z
-x,1/2+y,1/2-z
-x,-y,-z
x,1/2+y,1/2-z
-x,y,z
x,1/2-y,1/2+z
1/2+x,1/2+y,z
1/2-x,-y,1/2+z
1/2+x,1/2-y,-z
1/2-x,y,1/2-z
1/2-x,1/2-y,-z
1/2+x,y,1/2-z
1/2-x,1/2+y,z
1/2+x,-y,1/2+z
loop_
_atom_site_type_symbol
_atom_site_label
_atom_site_fract_x
_atom_site_fract_y
_atom_site_fract_z
Si Si1 0.221809 0.955511 0.127595
Si Si2 0.374326 0.764416 0.091949
Si Si3 0.392319 0.067937 0.535621
Si Si4 0.170966 0.141917 0.191086
Si Si5 0.563382 0.309192 0.150371
Si Si6 0.216516 0.354073 0.975389
O O1 0.250000 0.991323 0.250000
O O2 0.158980 0.936357 0.142387
O O3 0.263094 0.900037 0.093569
O O4 0.221491 0.000000 0.000000
O O5 0.359491 0.706357 0.186963
O O6 0.409885 0.805296 0.197213
O O7 0.405660 0.735017 0.960299
O O8 0.319865 0.800016 0.040411
O O9 0.363224 0.093592 0.397230
O O10 0.430710 0.121556 0.591388
O O11 0.413872 0.000000 0.500000
O O12 0.181232 0.120683 0.346675
O O13 0.226273 0.157830 0.104870
O O14 0.500000 0.291622 0.157957
#
# Coordination Sequence:
#
# PCOD9477613 Si02
#       6
#    16  16  16  16  16  16
#     4  10  21  33  53  81 115 149 183 216 267 334
#     4  11  20  38  55  82 114 141 184 230 280 336
#     4   9  20  36  57  80 113 140 188 231 273 325
#     4   9  19  33  54  86 113 148 176 220 271 340
#     4  11  23  38  59  81 106 147 193 241 285 322
#     4  10  19  33  55  80 117 149 179 213 275 336
#
# _framework density 18.546044999999999
#
# number of rings (size 3 to 8) (size 9 to 14) (size 15 to 20)
#    0.000    2.000    1.667    2.000    7.000    0.333 
#    3.000    0.000    0.000    0.000    0.000    1.167 
#    0.000    0.000    0.000    0.000    0.000    0.000 
#
# Total GULP energy -267255.702205 kJ/mol
# GULP energy per Si atom -5567.827129 kJ/mol
# Density = 1.850383 g / cm^3
# Si number density = 18.546045 Si / 1000 Ang^3
#
#
#
# Elastic Constant Matrix: (Units=GPa)
#
#
# Indices 1 2 3 4 5 6 
#
# 1 34.3881 16.1735 8.9650 0.0000 0.0000 0.0000
# 2 16.1735 86.1714 5.7305 0.0000 0.0000 0.0000
# 3 8.9650 5.7305 58.5745 0.0000 0.0000 0.0000
# 4 0.0000 0.0000 0.0000 14.6526 0.0000 0.0000
# 5 0.0000 0.0000 0.0000 0.0000 13.0412 0.0000
# 6 0.0000 0.0000 0.0000 0.0000 0.0000 15.0717
#
#
#
# Elastic Compliance Matrix: (Units=1/GPa)
#
#
# Indices 1 2 3 4 5 6 
#
# 1 0.033022 -0.005900 -0.004477 0.000000 0.000000 0.000000
# 2 -0.005900 0.012735 -0.000343 0.000000 0.000000 0.000000
# 3 -0.004477 -0.000343 0.017791 0.000000 0.000000 0.000000
# 4 0.000000 0.000000 0.000000 0.068247 0.000000 0.000000
# 5 0.000000 0.000000 0.000000 0.000000 0.076680 0.000000
# 6 0.000000 0.000000 0.000000 0.000000 0.000000 0.066349
#
#
# Mechanical properties :
#
#
# Convention : Reuss Voigt Hill
#
# Bulk Modulus (GPa) = 23.74837 26.76355 25.25596
# Shear Modulus (GPa) = 16.11341 18.43744 17.27543
#
# Velocity S-wave (km/s) = 2.95079 3.15643 3.05534
# Velocity P-wave (km/s) = 4.94393 5.26747 5.10826
#
# Compressibility (1/GPa) = 0.04210815
#
# Stress axis : x y z
#
# Youngs Moduli (GPa) = 30.28293 78.52389 56.20818
#
# Poissons Ratio (x) = 0.46330 0.25164
# Poissons Ratio (y) = 0.17867 0.01927
# Poissons Ratio (z) = 0.13557 0.02692
#
# Static dielectric constant tensor:
#      x y z
#    x 1.666580 0.000000 0.000000 
#    y 0.000000 1.672940 0.000000 
#    z 0.000000 0.000000 1.689810 
# 
# From -- ./inp_files/10365.got.cif
#   From: 2010.05.17/outbox.cif.g08.bks.cpg/sg64_6_cif.got.tgz:10365.got - 2010.06.03 16:29:19.
