data_PCOD9477761
_publ_section_title
;
Structure prediction by ZEFSAII (Michael W. Deem and Ramdas Pophale) SiO2 
 PCOD9477761
Probable space group: C M C A
;
_chemical_formula_sum "Si O2"
_cell_formula_units_Z 80
_cell_length_a 17.025892
_cell_length_b 26.098051
_cell_length_c 7.194903
_cell_angle_alpha 90.000000
_cell_angle_beta 90.000000
_cell_angle_gamma 90.000000
_cell_volume 3197.001889
_symmetry_space_group_name_H-M "C M C A"
_symmetry_group_IT_number 64
_symmetry_cell_setting 'orthorhombic'
loop_
_space_group_symop_operation_xyz
x,y,z
-x,1/2-y,1/2+z
x,-y,-z
-x,1/2+y,1/2-z
-x,-y,-z
x,1/2+y,1/2-z
-x,y,z
x,1/2-y,1/2+z
1/2+x,1/2+y,z
1/2-x,-y,1/2+z
1/2+x,1/2-y,-z
1/2-x,y,1/2-z
1/2-x,1/2-y,-z
1/2+x,y,1/2-z
1/2-x,1/2+y,z
1/2+x,-y,1/2+z
loop_
_atom_site_type_symbol
_atom_site_label
_atom_site_fract_x
_atom_site_fract_y
_atom_site_fract_z
Si Si1 0.910004 0.704197 0.227477
Si Si2 0.915901 0.561298 0.027238
Si Si3 0.585483 0.103825 0.446549
Si Si4 0.807347 0.291014 0.101958
Si Si5 0.745198 0.439220 0.971575
O O1 0.908344 0.663656 0.394691
O O2 0.873144 0.757611 0.291706
O O3 0.000000 0.709547 0.165984
O O4 0.854344 0.682500 0.064382
O O5 0.916172 0.574699 0.246822
O O6 0.830361 0.576455 0.951523
O O7 0.000000 0.582540 0.957027
O O8 0.917886 0.500000 0.000000
O O9 0.500000 0.093807 0.534074
O O10 0.665189 0.086155 0.541009
O O11 0.750000 0.317710 0.250000
O O12 0.750000 0.250000 0.000000
O O13 0.750000 0.428567 0.750000
O O14 0.736935 0.500000 0.000000
#
# Coordination Sequence:
#
# PCOD9477761 Si02
#       5
#    16  16  16  16  16
#     4  10  19  34  56  79 105 143 186 224 272 337
#     4   8  14  26  44  66  92 123 162 204 246 302
#     4   9  18  30  49  75  99 132 177 218 261 319
#     4   9  19  33  52  79 109 139 175 224 281 329
#     4   9  17  29  48  72  99 132 169 216 269 323
#
# _framework density 25.023446
#
# number of rings (size 3 to 8) (size 9 to 14) (size 15 to 20)
#    0.000    3.000    0.000    0.600    0.000    7.600 
#    0.000    0.000    0.000   40.800    0.000   43.400 
#    0.000    0.000    0.000    0.000    0.000    0.800 
#
# Total GULP energy -223312.529059 kJ/mol
# GULP energy per Si atom -5582.813226 kJ/mol
# Density = 2.496649 g / cm^3
# Si number density = 25.023446 Si / 1000 Ang^3
#
#
#
# Elastic Constant Matrix: (Units=GPa)
#
#
# Indices 1 2 3 4 5 6 
#
# 1 320.6178 33.0211 35.3307 0.0000 0.0000 0.0000
# 2 33.0211 58.7491 3.5137 0.0000 0.0000 0.0000
# 3 35.3307 3.5137 96.3850 0.0000 0.0000 0.0000
# 4 0.0000 0.0000 0.0000 17.9760 0.0000 0.0000
# 5 0.0000 0.0000 0.0000 0.0000 9.2582 0.0000
# 6 0.0000 0.0000 0.0000 0.0000 0.0000-8615.8251
#
#
#
# Elastic Compliance Matrix: (Units=1/GPa)
#
#
# Indices 1 2 3 4 5 6 
#
# 1 0.003442 -0.001864 -0.001194 0.000000 0.000000 0.000000
# 2 -0.001864 0.018068 0.000024 0.000000 0.000000 0.000000
# 3 -0.001194 0.000024 0.010812 0.000000 0.000000 0.000000
# 4 0.000000 0.000000 0.000000 0.055630 0.000000 0.000000
# 5 0.000000 0.000000 0.000000 0.000000 0.108013 0.000000
# 6 0.000000 0.000000 0.000000 0.000000 0.000000 -0.000116
#
#
# Mechanical properties :
#
#
# Convention : Reuss Voigt Hill
#
# Bulk Modulus (GPa) = 38.08684 68.83142 53.45913
# Shear Modulus (GPa) = 23.73421 -1690.79243 -833.52911
#
# Velocity S-wave (km/s) = 3.08308 -26.02211 -18.27081
# Velocity P-wave (km/s) = 5.28463 29.58548 20.58365
#
# Compressibility (1/GPa) = 0.02625579
#
# Stress axis : x y z
#
# Youngs Moduli (GPa) = 290.48909 55.34800 92.49144
#
# Poissons Ratio (x) = 0.10314 0.11043
# Poissons Ratio (y) = 0.54133 -0.00226
# Poissons Ratio (z) = 0.34682 -0.00135
#
# Static dielectric constant tensor:
#      x y z
#    x 2.001520 0.000000 0.000000 
#    y 0.000000 1.961990 0.000000 
#    z 0.000000 0.000000 1.961130 
# 
# From -- ./inp_files/7270.got.cif
#   From: 2010.05.17/outbox.cif.g08.bks.cpg/sg64_4_cif.got.tgz:7270.got - 2010.06.03 16:29:19.
