data_PCOD9477731
_publ_section_title
;
Structure prediction by ZEFSAII (Michael W. Deem and Ramdas Pophale) SiO2 
 PCOD9477731
Probable space group: C M C A
;
_chemical_formula_sum "Si O2"
_cell_formula_units_Z 88
_cell_length_a 12.904601
_cell_length_b 17.301507
_cell_length_c 22.510075
_cell_angle_alpha 90.000000
_cell_angle_beta 90.000000
_cell_angle_gamma 90.000000
_cell_volume 5025.802938
_symmetry_space_group_name_H-M "C M C A"
_symmetry_group_IT_number 64
_symmetry_cell_setting 'orthorhombic'
loop_
_space_group_symop_operation_xyz
x,y,z
-x,1/2-y,1/2+z
x,-y,-z
-x,1/2+y,1/2-z
-x,-y,-z
x,1/2+y,1/2-z
-x,y,z
x,1/2-y,1/2+z
1/2+x,1/2+y,z
1/2-x,-y,1/2+z
1/2+x,1/2-y,-z
1/2-x,y,1/2-z
1/2-x,1/2-y,-z
1/2+x,y,1/2-z
1/2-x,1/2+y,z
1/2+x,-y,1/2+z
loop_
_atom_site_type_symbol
_atom_site_label
_atom_site_fract_x
_atom_site_fract_y
_atom_site_fract_z
Si Si1 0.750000 0.523319 0.250000
Si Si2 0.272306 0.450200 0.556979
Si Si3 0.376392 0.383499 0.847367
Si Si4 0.377356 0.438368 0.351137
Si Si5 0.880492 0.286413 0.966495
Si Si6 0.808411 0.273966 0.098222
O O1 0.676168 0.577471 0.209941
O O2 0.681545 0.470047 0.293314
O O3 0.243834 0.500000 0.500000
O O4 0.173050 0.428714 0.596561
O O5 0.349860 0.500430 0.597249
O O6 0.329458 0.371255 0.538603
O O7 0.500000 0.387592 0.845173
O O8 0.339377 0.295401 0.857969
O O9 0.500000 0.433899 0.341797
O O10 0.335669 0.355599 0.373087
O O11 0.810671 0.233528 0.923413
O O12 0.000000 0.287402 0.949619
O O13 0.868799 0.262643 0.035500
#
# Coordination Sequence:
#
# PCOD9477731 Si02
#       6
#     8  16  16  16  16  16
#     4  10  24  40  58  78 106 144 202 240 266 336
#     4  10  20  33  55  88 117 145 190 226 266 341
#     4  10  21  39  57  78 112 150 182 228 286 331
#     4  11  21  37  59  82 110 148 188 239 284 319
#     4  10  19  34  54  82 121 153 178 222 275 335
#     4  10  21  34  55  85 112 143 188 223 278 346
#
# _framework density 17.509640000000001
#
# number of rings (size 3 to 8) (size 9 to 14) (size 15 to 20)
#    0.000    1.818    1.818    2.727    0.000    1.818 
#    0.000    5.455    0.000    0.000    0.000    0.000 
#    0.000    0.000    0.000    0.000    0.000    0.000 
#
# Total GULP energy -245628.937921 kJ/mol
# GULP energy per Si atom -5582.475862 kJ/mol
# Density = 1.746979 g / cm^3
# Si number density = 17.509640 Si / 1000 Ang^3
#
#
#
# Elastic Constant Matrix: (Units=GPa)
#
#
# Indices 1 2 3 4 5 6 
#
# 1 125.9363 44.0889 45.0205 0.0000 0.0000 0.0000
# 2 44.0889 101.2844 46.3047 0.0000 0.0000 0.0000
# 3 45.0205 46.3047 92.3637 0.0000 0.0000 0.0000
# 4 0.0000 0.0000 0.0000 24.7698 0.0000 0.0000
# 5 0.0000 0.0000 0.0000 0.0000 7.8143 0.0000
# 6 0.0000 0.0000 0.0000 0.0000 0.0000 12.7768
#
#
#
# Elastic Compliance Matrix: (Units=1/GPa)
#
#
# Indices 1 2 3 4 5 6 
#
# 1 0.010198 -0.002811 -0.003561 0.000000 0.000000 0.000000
# 2 -0.002811 0.013584 -0.005440 0.000000 0.000000 0.000000
# 3 -0.003561 -0.005440 0.015290 0.000000 0.000000 0.000000
# 4 0.000000 0.000000 0.000000 0.040372 0.000000 0.000000
# 5 0.000000 0.000000 0.000000 0.000000 0.127970 0.000000
# 6 0.000000 0.000000 0.000000 0.000000 0.000000 0.078267
#
#
# Mechanical properties :
#
#
# Convention : Reuss Voigt Hill
#
# Bulk Modulus (GPa) = 64.73751 65.60139 65.16945
# Shear Modulus (GPa) = 15.90062 21.35021 18.62542
#
# Velocity S-wave (km/s) = 3.01675 3.49569 3.26502
# Velocity P-wave (km/s) = 7.01335 7.33760 7.17731
#
# Compressibility (1/GPa) = 0.01544699
#
# Stress axis : x y z
#
# Youngs Moduli (GPa) = 98.06083 73.61757 65.40267
#
# Poissons Ratio (x) = 0.20693 0.23293
# Poissons Ratio (y) = 0.27563 0.35578
# Poissons Ratio (z) = 0.34924 0.40047
#
# Static dielectric constant tensor:
#      x y z
#    x 1.574520 0.000000 0.000000 
#    y 0.000000 1.587720 0.000000 
#    z 0.000000 0.000000 1.583750 
# 
# From -- ./inp_files/38081.got.cif
#   From: 2010.05.17/outbox.cif.g08.bks.cpg/sg64_20_cif.got.tgz:38081.got - 2010.06.03 16:29:19.
