data_PCOD9477007
_publ_section_title
;
Structure prediction by ZEFSAII (Michael W. Deem and Ramdas Pophale) SiO2 
 PCOD9477007
Probable space group: C M C A
;
_chemical_formula_sum "Si O2"
_cell_formula_units_Z 104
_cell_length_a 23.185966
_cell_length_b 14.354756
_cell_length_c 17.769659
_cell_angle_alpha 90.000000
_cell_angle_beta 90.000000
_cell_angle_gamma 90.000000
_cell_volume 5914.255784
_symmetry_space_group_name_H-M "C M C A"
_symmetry_group_IT_number 64
_symmetry_cell_setting 'orthorhombic'
loop_
_space_group_symop_operation_xyz
x,y,z
-x,1/2-y,1/2+z
x,-y,-z
-x,1/2+y,1/2-z
-x,-y,-z
x,1/2+y,1/2-z
-x,y,z
x,1/2-y,1/2+z
1/2+x,1/2+y,z
1/2-x,-y,1/2+z
1/2+x,1/2-y,-z
1/2-x,y,1/2-z
1/2-x,1/2-y,-z
1/2+x,y,1/2-z
1/2-x,1/2+y,z
1/2+x,-y,1/2+z
loop_
_atom_site_type_symbol
_atom_site_label
_atom_site_fract_x
_atom_site_fract_y
_atom_site_fract_z
Si Si1 0.432773 0.859508 0.047674
Si Si2 0.232065 0.363079 0.411779
Si Si3 0.750000 0.784120 0.250000
Si Si4 0.329381 0.885111 0.780999
Si Si5 0.215835 0.434441 0.628527
Si Si6 0.932279 0.053277 0.380641
Si Si7 0.671348 0.762058 0.529062
O O1 0.500000 0.838333 0.059767
O O2 0.391273 0.771567 0.052724
O O3 0.416819 0.944789 0.103339
O O4 0.426507 0.897926 0.962278
O O5 0.248213 0.342675 0.325714
O O6 0.216744 0.470451 0.417186
O O7 0.286878 0.326962 0.459275
O O8 0.180379 0.299235 0.444323
O O9 0.693952 0.716557 0.255159
O O10 0.280275 0.915820 0.840609
O O11 0.322493 0.943830 0.704223
O O12 0.390197 0.899196 0.820705
O O13 0.194157 0.346322 0.580999
O O14 0.000000 0.057639 0.359954
#
# Coordination Sequence:
#
# PCOD9477007 Si02
#       7
#    16  16   8  16  16  16  16
#     4   9  19  34  55  79 108 142 182 233 278 319
#     4  11  21  33  54  77 112 144 177 227 271 330
#     4  10  18  34  50  76 112 146 176 214 278 322
#     4  10  18  34  52  77 110 145 176 222 277 331
#     4  10  21  35  51  79 114 144 179 225 283 326
#     4   9  18  34  56  83 107 141 187 228 275 328
#     4  11  21  35  53  84 108 143 189 223 270 337
#
# _framework density 17.584629
#
# number of rings (size 3 to 8) (size 9 to 14) (size 15 to 20)
#    0.000    2.154    3.077    4.154    2.154    0.000 
#    0.000    0.769    0.000    2.769    0.000    0.000 
#    0.000    0.000    0.000    0.000    0.000    0.000 
#
# Total GULP energy -289962.016451 kJ/mol
# GULP energy per Si atom -5576.192624 kJ/mol
# Density = 1.754461 g / cm^3
# Si number density = 17.584629 Si / 1000 Ang^3
#
#
#
# Elastic Constant Matrix: (Units=GPa)
#
#
# Indices 1 2 3 4 5 6 
#
# 1 78.4969 45.1211 34.6246 0.0000 0.0000 0.0000
# 2 45.1211 93.0026 31.0825 0.0000 0.0000 0.0000
# 3 34.6246 31.0825 83.0777 0.0000 0.0000 0.0000
# 4 0.0000 0.0000 0.0000 26.4563 0.0000 0.0000
# 5 0.0000 0.0000 0.0000 0.0000 25.5860 0.0000
# 6 0.0000 0.0000 0.0000 0.0000 0.0000 14.1391
#
#
#
# Elastic Compliance Matrix: (Units=1/GPa)
#
#
# Indices 1 2 3 4 5 6 
#
# 1 0.019474 -0.007698 -0.005236 0.000000 0.000000 0.000000
# 2 -0.007698 0.015332 -0.002528 0.000000 0.000000 0.000000
# 3 -0.005236 -0.002528 0.015165 0.000000 0.000000 0.000000
# 4 0.000000 0.000000 0.000000 0.037798 0.000000 0.000000
# 5 0.000000 0.000000 0.000000 0.000000 0.039084 0.000000
# 6 0.000000 0.000000 0.000000 0.000000 0.000000 0.070726
#
#
# Mechanical properties :
#
#
# Convention : Reuss Voigt Hill
#
# Bulk Modulus (GPa) = 52.50224 52.91484 52.70854
# Shear Modulus (GPa) = 21.29001 22.81954 22.05478
#
# Velocity S-wave (km/s) = 3.48331 3.60627 3.54532
# Velocity P-wave (km/s) = 6.78967 6.89181 6.84093
#
# Compressibility (1/GPa) = 0.01904681
#
# Stress axis : x y z
#
# Youngs Moduli (GPa) = 51.35087 65.22298 65.94136
#
# Poissons Ratio (x) = 0.50209 0.34527
# Poissons Ratio (y) = 0.39530 0.16670
# Poissons Ratio (z) = 0.26888 0.16488
#
# Static dielectric constant tensor:
#      x y z
#    x 1.591390 0.000000 0.000000 
#    y 0.000000 1.630310 0.000000 
#    z 0.000000 0.000000 1.648020 
# 
# From -- ./inp_files/35074.got.cif
#   From: 2010.05.17/outbox.cif.g08.bks.cpg/sg64_18_cif.got.tgz:35074.got - 2010.06.03 16:29:19.
