data_PCOD9477070
_publ_section_title
;
Structure prediction by ZEFSAII (Michael W. Deem and Ramdas Pophale) SiO2 
 PCOD9477070
Probable space group: C M C A
;
_chemical_formula_sum "Si O2"
_cell_formula_units_Z 112
_cell_length_a 14.955146
_cell_length_b 24.024121
_cell_length_c 12.505170
_cell_angle_alpha 90.000000
_cell_angle_beta 90.000000
_cell_angle_gamma 90.000000
_cell_volume 4492.910463
_symmetry_space_group_name_H-M "C M C A"
_symmetry_group_IT_number 64
_symmetry_cell_setting 'orthorhombic'
loop_
_space_group_symop_operation_xyz
x,y,z
-x,1/2-y,1/2+z
x,-y,-z
-x,1/2+y,1/2-z
-x,-y,-z
x,1/2+y,1/2-z
-x,y,z
x,1/2-y,1/2+z
1/2+x,1/2+y,z
1/2-x,-y,1/2+z
1/2+x,1/2-y,-z
1/2-x,y,1/2-z
1/2-x,1/2-y,-z
1/2+x,y,1/2-z
1/2-x,1/2+y,z
1/2+x,-y,1/2+z
loop_
_atom_site_type_symbol
_atom_site_label
_atom_site_fract_x
_atom_site_fract_y
_atom_site_fract_z
Si Si1 0.602502 0.264295 0.767629
Si Si2 0.890386 0.392182 0.712287
Si Si3 0.402130 0.831014 0.063054
Si Si4 0.605730 0.021467 0.115513
Si Si5 0.157426 0.740478 0.557037
Si Si6 0.106551 0.909130 0.256269
Si Si7 0.604975 0.884784 0.479197
O O1 0.500000 0.262565 0.725610
O O2 0.631648 0.327035 0.783359
O O3 0.597549 0.228010 0.874515
O O4 0.662815 0.232302 0.683527
O O5 0.857803 0.426196 0.816105
O O6 0.859460 0.409266 0.591766
O O7 0.000000 0.396340 0.712183
O O8 0.500000 0.856148 0.048882
O O9 0.379441 0.804367 0.949983
O O10 0.354497 0.871677 0.146233
O O11 0.500000 0.032928 0.096015
O O12 0.611473 0.971105 0.199654
O O13 0.641722 0.000000 0.000000
O O14 0.250000 0.750000 0.500000
O O15 0.113017 0.682707 0.519447
O O16 0.000000 0.892465 0.247631
O O17 0.142819 0.903638 0.135936
O O18 0.500000 0.899195 0.478311
#
# Coordination Sequence:
#
# PCOD9477070 Si02
#       7
#    16  16  16  16  16  16  16
#     4  10  19  34  56  79 107 145 186 223 274 335
#     4   9  18  31  52  79 108 144 180 231 280 323
#     4  10  19  34  56  79 107 145 186 223 274 335
#     4   9  18  31  47  79 118 141 175 228 284 331
#     4  12  24  34  49  80 118 150 177 229 284 332
#     4   9  18  31  52  79 108 144 180 231 280 323
#     4  10  18  35  56  78 108 145 196 229 267 336
#
# _framework density 24.928162
#
# number of rings (size 3 to 8) (size 9 to 14) (size 15 to 20)
#    0.000    2.143    2.857    1.286    2.000    1.143 
#    0.000    2.857    0.000    0.000    0.000    6.000 
#    0.000    0.000    0.000    0.000    0.000    0.000 
#
# Total GULP energy -312032.324322 kJ/mol
# GULP energy per Si atom -5572.005791 kJ/mol
# Density = 2.487142 g / cm^3
# Si number density = 24.928162 Si / 1000 Ang^3
#
#
#
# Elastic Constant Matrix: (Units=GPa)
#
#
# Indices 1 2 3 4 5 6 
#
# 1 36.7474 -14.5090 0.3316 0.0000 0.0000 0.0000
# 2 -14.5090 93.1724 37.5375 0.0000 0.0000 0.0000
# 3 0.3316 37.5375 123.9535 0.0000 0.0000 0.0000
# 4 0.0000 0.0000 0.0000 40.7484 0.0000 0.0000
# 5 0.0000 0.0000 0.0000 0.0000 16.4766 0.0000
# 6 0.0000 0.0000 0.0000 0.0000 0.0000 -7.3582
#
#
#
# Elastic Compliance Matrix: (Units=1/GPa)
#
#
# Indices 1 2 3 4 5 6 
#
# 1 0.029293 0.005231 -0.001663 0.000000 0.000000 0.000000
# 2 0.005231 0.013159 -0.003999 0.000000 0.000000 0.000000
# 3 -0.001663 -0.003999 0.009283 0.000000 0.000000 0.000000
# 4 0.000000 0.000000 0.000000 0.024541 0.000000 0.000000
# 5 0.000000 0.000000 0.000000 0.000000 0.060692 0.000000
# 6 0.000000 0.000000 0.000000 0.000000 0.000000 -0.135903
#
#
# Mechanical properties :
#
#
# Convention : Reuss Voigt Hill
#
# Bulk Modulus (GPa) = 19.65611 33.39928 26.52770
# Shear Modulus (GPa) = 264.78750 25.34092 145.06421
#
# Velocity S-wave (km/s) = 10.31750 3.19181 7.63670
# Velocity P-wave (km/s) = 12.24078 5.19719 9.40339
#
# Compressibility (1/GPa) = 0.05087475
#
# Stress axis : x y z
#
# Youngs Moduli (GPa) = 34.13747 75.99647 107.72401
#
# Poissons Ratio (x) = -0.39757 0.17911
# Poissons Ratio (y) = -0.17859 0.43077
# Poissons Ratio (z) = 0.05676 0.30390
#
# Static dielectric constant tensor:
#      x y z
#    x 2.167970 0.000000 0.000000 
#    y 0.000000 2.093610 0.000000 
#    z 0.000000 0.000000 -1.322230 
# 
# From -- ./inp_files/17658.got.cif
#   From: 2010.05.17/outbox.cif.g08.bks.cpg/sg64_9_cif.got.tgz:17658.got - 2010.06.03 16:29:19.
