data_PCOD9477164
_publ_section_title
;
Structure prediction by ZEFSAII (Michael W. Deem and Ramdas Pophale) SiO2 
 PCOD9477164
Probable space group: C M C A
;
_chemical_formula_sum "Si O2"
_cell_formula_units_Z 72
_cell_length_a 14.818246
_cell_length_b 14.543996
_cell_length_c 12.848608
_cell_angle_alpha 90.000000
_cell_angle_beta 90.000000
_cell_angle_gamma 90.000000
_cell_volume 2769.087162
_symmetry_space_group_name_H-M "C M C A"
_symmetry_group_IT_number 64
_symmetry_cell_setting 'orthorhombic'
loop_
_space_group_symop_operation_xyz
x,y,z
-x,1/2-y,1/2+z
x,-y,-z
-x,1/2+y,1/2-z
-x,-y,-z
x,1/2+y,1/2-z
-x,y,z
x,1/2-y,1/2+z
1/2+x,1/2+y,z
1/2-x,-y,1/2+z
1/2+x,1/2-y,-z
1/2-x,y,1/2-z
1/2-x,1/2-y,-z
1/2+x,y,1/2-z
1/2-x,1/2+y,z
1/2+x,-y,1/2+z
loop_
_atom_site_type_symbol
_atom_site_label
_atom_site_fract_x
_atom_site_fract_y
_atom_site_fract_z
Si Si1 0.000000 0.073890 0.149005
Si Si2 0.357360 0.589355 0.884811
Si Si3 0.599439 0.724608 0.465756
Si Si4 0.652474 0.107251 0.204820
Si Si5 0.148343 0.590058 0.856002
O O1 0.079400 0.999031 0.112935
O O2 0.080580 0.133419 0.208025
O O3 0.390231 0.666148 0.965871
O O4 0.250760 0.576685 0.896373
O O5 0.362772 0.622046 0.763569
O O6 0.500000 0.705932 0.422961
O O7 0.667907 0.684585 0.381289
O O8 0.607726 0.666436 0.569690
O O9 0.750000 0.081592 0.250000
O O10 0.612202 0.015001 0.148868
#
# Coordination Sequence:
#
# PCOD9477164 Si02
#       5
#     8  16  16  16  16
#     4  10  18  40  67  81 125 174 203 238 325 384
#     4  10  21  42  62  89 128 169 205 255 325 382
#     4  12  25  36  65 103 123 156 220 276 304 374
#     4  11  22  40  65  94 129 168 208 260 320 377
#     4  10  22  41  64  88 125 173 205 254 329 373
#
# _framework density 26.001349000000001
#
# number of rings (size 3 to 8) (size 9 to 14) (size 15 to 20)
#    0.000    1.333    6.667    1.333    9.333    0.889 
#    0.000    0.000    0.000    2.667    0.000    0.000 
#    0.000    0.000    0.000    0.000    0.000    0.000 
#
# Total GULP energy -200406.295278 kJ/mol
# GULP energy per Si atom -5566.841535 kJ/mol
# Density = 2.594217 g / cm^3
# Si number density = 26.001349 Si / 1000 Ang^3
#
#
#
# Elastic Constant Matrix: (Units=GPa)
#
#
# Indices 1 2 3 4 5 6 
#
# 1 116.3384 -14.3686 3.7371 0.0000 0.0000 0.0000
# 2 -14.3686 94.0524 32.6748 0.0000 0.0000 0.0000
# 3 3.7371 32.6748 80.8045 0.0000 0.0000 0.0000
# 4 0.0000 0.0000 0.0000 39.2153 0.0000 0.0000
# 5 0.0000 0.0000 0.0000 0.0000 9.9997 0.0000
# 6 0.0000 0.0000 0.0000 0.0000 0.0000 952.5825
#
#
#
# Elastic Compliance Matrix: (Units=1/GPa)
#
#
# Indices 1 2 3 4 5 6 
#
# 1 0.008846 0.001738 -0.001112 0.000000 0.000000 0.000000
# 2 0.001738 0.012711 -0.005220 0.000000 0.000000 0.000000
# 3 -0.001112 -0.005220 0.014538 0.000000 0.000000 0.000000
# 4 0.000000 0.000000 0.000000 0.025500 0.000000 0.000000
# 5 0.000000 0.000000 0.000000 0.000000 0.100003 0.000000
# 6 0.000000 0.000000 0.000000 0.000000 0.000000 0.001050
#
#
# Mechanical properties :
#
#
# Convention : Reuss Voigt Hill
#
# Bulk Modulus (GPa) = 37.16615 37.25353 37.20984
# Shear Modulus (GPa) = 27.65385 218.30295 122.97840
#
# Velocity S-wave (km/s) = 3.26476 9.17282 6.88474
# Velocity P-wave (km/s) = 5.34195 11.24927 8.80575
#
# Compressibility (1/GPa) = 0.02690620
#
# Stress axis : x y z
#
# Youngs Moduli (GPa) = 113.04627 78.66898 68.78541
#
# Poissons Ratio (x) = -0.13670 0.07647
# Poissons Ratio (y) = -0.19643 0.35909
# Poissons Ratio (z) = 0.12568 0.41069
#
# Static dielectric constant tensor:
#      x y z
#    x 2.005520 0.000000 0.000000 
#    y 0.000000 2.009680 0.000000 
#    z 0.000000 0.000000 2.155160 
# 
# From -- ./inp_files/23460.got.cif
#   From: 2010.05.17/outbox.cif.g08.bks.cpg/sg64_12_cif.got.tgz:23460.got - 2010.06.03 16:29:19.
