data_PCOD9477949
_publ_section_title
;
Structure prediction by ZEFSAII (Michael W. Deem and Ramdas Pophale) SiO2 
 PCOD9477949
Probable space group: C M C A
;
_chemical_formula_sum "Si O2"
_cell_formula_units_Z 96
_cell_length_a 14.068493
_cell_length_b 19.372026
_cell_length_c 14.779870
_cell_angle_alpha 90.000000
_cell_angle_beta 90.000000
_cell_angle_gamma 90.000000
_cell_volume 4028.035006
_symmetry_space_group_name_H-M "C M C A"
_symmetry_group_IT_number 64
_symmetry_cell_setting 'orthorhombic'
loop_
_space_group_symop_operation_xyz
x,y,z
-x,1/2-y,1/2+z
x,-y,-z
-x,1/2+y,1/2-z
-x,-y,-z
x,1/2+y,1/2-z
-x,y,z
x,1/2-y,1/2+z
1/2+x,1/2+y,z
1/2-x,-y,1/2+z
1/2+x,1/2-y,-z
1/2-x,y,1/2-z
1/2-x,1/2-y,-z
1/2+x,y,1/2-z
1/2-x,1/2+y,z
1/2+x,-y,1/2+z
loop_
_atom_site_type_symbol
_atom_site_label
_atom_site_fract_x
_atom_site_fract_y
_atom_site_fract_z
Si Si1 0.616646 0.308605 0.029320
Si Si2 0.607514 0.635519 0.228684
Si Si3 0.812900 0.554710 0.431582
Si Si4 0.894682 0.562546 0.082315
Si Si5 0.615555 0.288314 0.237626
Si Si6 0.111659 0.670184 0.923304
O O1 0.500000 0.317584 0.023624
O O2 0.644134 0.303554 0.134995
O O3 0.671313 0.372271 0.983095
O O4 0.644002 0.238196 0.977521
O O5 0.500000 0.641420 0.194819
O O6 0.651098 0.575518 0.167837
O O7 0.606924 0.614516 0.333246
O O8 0.647237 0.712630 0.227379
O O9 0.860567 0.500000 0.500000
O O10 0.706661 0.525969 0.412819
O O11 0.000000 0.528954 0.087602
O O12 0.885214 0.605628 0.990017
O O13 0.500000 0.286218 0.230539
O O14 0.646320 0.337782 0.320087
O O15 0.000000 0.683817 0.911325
#
# Coordination Sequence:
#
# PCOD9477949 Si02
#       6
#    16  16  16  16  16  16
#     4  10  19  35  61  95 134 165 199 257 324 384
#     4  10  19  38  67  95 124 160 206 261 323 383
#     4  12  26  41  59  92 135 175 217 256 308 385
#     4  10  22  42  65  88 118 166 221 271 317 368
#     4   9  16  31  58  95 133 164 198 256 323 383
#     4   9  16  32  60  92 126 156 201 265 326 379
#
# _framework density 23.832961000000001
#
# number of rings (size 3 to 8) (size 9 to 14) (size 15 to 20)
#    0.000    2.000    3.333    1.000    0.000    2.333 
#    0.000    4.167    0.000    4.000    0.000    0.000 
#    0.000    0.000    0.000    0.000    0.000    0.000 
#
# Total GULP energy -267711.615845 kJ/mol
# GULP energy per Si atom -5577.325330 kJ/mol
# Density = 2.377872 g / cm^3
# Si number density = 23.832961 Si / 1000 Ang^3
#
#
#
# Elastic Constant Matrix: (Units=GPa)
#
#
# Indices 1 2 3 4 5 6 
#
# 1 111.9919 -5.7606 -5.4506 0.0000 0.0000 0.0000
# 2 -5.7606 28.4938 2.3138 0.0000 0.0000 0.0000
# 3 -5.4506 2.3138 156.6429 0.0000 0.0000 0.0000
# 4 0.0000 0.0000 0.0000 33.8909 0.0000 0.0000
# 5 0.0000 0.0000 0.0000 0.0000 16.2684 0.0000
# 6 0.0000 0.0000 0.0000 0.0000 0.0000 7.8331
#
#
#
# Elastic Compliance Matrix: (Units=1/GPa)
#
#
# Indices 1 2 3 4 5 6 
#
# 1 0.009036 0.001803 0.000288 0.000000 0.000000 0.000000
# 2 0.001803 0.035497 -0.000462 0.000000 0.000000 0.000000
# 3 0.000288 -0.000462 0.006401 0.000000 0.000000 0.000000
# 4 0.000000 0.000000 0.000000 0.029506 0.000000 0.000000
# 5 0.000000 0.000000 0.000000 0.000000 0.061469 0.000000
# 6 0.000000 0.000000 0.000000 0.000000 0.000000 0.127663
#
#
# Mechanical properties :
#
#
# Convention : Reuss Voigt Hill
#
# Bulk Modulus (GPa) = 18.45241 31.03709 24.74475
# Shear Modulus (GPa) = 17.58223 32.00021 24.79122
#
# Velocity S-wave (km/s) = 2.71906 3.66824 3.22872
# Velocity P-wave (km/s) = 4.19725 5.56708 4.92998
#
# Compressibility (1/GPa) = 0.05419345
#
# Stress axis : x y z
#
# Youngs Moduli (GPa) = 110.66859 28.17105 156.23102
#
# Poissons Ratio (x) = -0.05080 -0.04496
# Poissons Ratio (y) = -0.19958 0.07211
# Poissons Ratio (z) = -0.03185 0.01300
#
# Static dielectric constant tensor:
#      x y z
#    x 2.013740 0.000000 0.000000 
#    y 0.000000 1.881010 0.000000 
#    z 0.000000 0.000000 1.931750 
# 
# From -- ./inp_files/23937.got.cif
#   From: 2010.05.17/outbox.cif.g08.bks.cpg/sg64_12_cif.got.tgz:23937.got - 2010.06.03 16:29:19.
