data_PCOD9477290
_publ_section_title
;
Structure prediction by ZEFSAII (Michael W. Deem and Ramdas Pophale) SiO2 
 PCOD9477290
Probable space group: C M C A
;
_chemical_formula_sum "Si O2"
_cell_formula_units_Z 80
_cell_length_a 9.195015
_cell_length_b 30.909459
_cell_length_c 13.137284
_cell_angle_alpha 90.000000
_cell_angle_beta 90.000000
_cell_angle_gamma 90.000000
_cell_volume 3733.786098
_symmetry_space_group_name_H-M "C M C A"
_symmetry_group_IT_number 64
_symmetry_cell_setting 'orthorhombic'
loop_
_space_group_symop_operation_xyz
x,y,z
-x,1/2-y,1/2+z
x,-y,-z
-x,1/2+y,1/2-z
-x,-y,-z
x,1/2+y,1/2-z
-x,y,z
x,1/2-y,1/2+z
1/2+x,1/2+y,z
1/2-x,-y,1/2+z
1/2+x,1/2-y,-z
1/2-x,y,1/2-z
1/2-x,1/2-y,-z
1/2+x,y,1/2-z
1/2-x,1/2+y,z
1/2+x,-y,1/2+z
loop_
_atom_site_type_symbol
_atom_site_label
_atom_site_fract_x
_atom_site_fract_y
_atom_site_fract_z
Si Si1 0.829727 0.922746 0.346189
Si Si2 0.837096 0.490329 0.619950
Si Si3 0.327707 0.904995 0.917140
Si Si4 0.327433 0.688860 0.441212
Si Si5 0.827779 0.216692 0.854641
O O1 0.750000 0.901341 0.250000
O O2 0.801546 0.905670 0.460035
O O3 0.000000 0.920455 0.328292
O O4 0.773489 0.972160 0.348762
O O5 0.851817 0.500000 0.500000
O O6 0.767945 0.442986 0.630583
O O7 0.000000 0.493487 0.664412
O O8 0.500000 0.913671 0.901380
O O9 0.291207 0.856116 0.885848
O O10 0.500000 0.686975 0.465873
O O11 0.239607 0.693948 0.546141
O O12 0.302995 0.731964 0.375773
O O13 0.750000 0.204625 0.750000
O O14 0.000000 0.208894 0.848741
#
# Coordination Sequence:
#
# PCOD9477290 Si02
#       5
#    16  16  16  16  16
#     4  10  19  31  48  70  98 131 167 208 254 302
#     4   9  17  30  48  69  94 126 163 199 238 289
#     4   9  18  33  52  73  99 131 166 208 256 303
#     4   9  19  36  56  79 106 138 177 218 263 315
#     4  10  20  35  56  79 106 139 174 215 263 318
#
# _framework density 21.425972999999999
#
# number of rings (size 3 to 8) (size 9 to 14) (size 15 to 20)
#    0.000    2.600    0.000    1.800    0.000    5.600 
#    0.000    3.000    0.000    2.400    0.000    0.000 
#    0.000    0.000    0.000    0.000    0.000    0.000 
#
# Total GULP energy -223333.246769 kJ/mol
# GULP energy per Si atom -5583.331169 kJ/mol
# Density = 2.137721 g / cm^3
# Si number density = 21.425973 Si / 1000 Ang^3
#
#
#
# Elastic Constant Matrix: (Units=GPa)
#
#
# Indices 1 2 3 4 5 6 
#
# 1 59.7545 27.2693 24.8487 0.0000 0.0000 0.0000
# 2 27.2693 115.0670 -15.1267 0.0000 0.0000 0.0000
# 3 24.8487 -15.1267 64.4522 0.0000 0.0000 0.0000
# 4 0.0000 0.0000 0.0000 -2.3976 0.0000 0.0000
# 5 0.0000 0.0000 0.0000 0.0000 26.2482 0.0000
# 6 0.0000 0.0000 0.0000 0.0000 0.0000 17.4272
#
#
#
# Elastic Compliance Matrix: (Units=1/GPa)
#
#
# Indices 1 2 3 4 5 6 
#
# 1 0.024784 -0.007356 -0.011282 0.000000 0.000000 0.000000
# 2 -0.007356 0.011151 0.005453 0.000000 0.000000 0.000000
# 3 -0.011282 0.005453 0.021145 0.000000 0.000000 0.000000
# 4 0.000000 0.000000 0.000000 -0.417080 0.000000 0.000000
# 5 0.000000 0.000000 0.000000 0.000000 0.038098 0.000000
# 6 0.000000 0.000000 0.000000 0.000000 0.000000 0.057382
#
#
# Mechanical properties :
#
#
# Convention : Reuss Voigt Hill
#
# Bulk Modulus (GPa) = 32.56300 34.80624 33.68462
# Shear Modulus (GPa) = -21.93797 21.74104 -0.09846
#
# Velocity S-wave (km/s) = -3.20331 3.18890 -0.21460
# Velocity P-wave (km/s) = 1.24472 5.46250 3.96158
#
# Compressibility (1/GPa) = 0.03070970
#
# Stress axis : x y z
#
# Youngs Moduli (GPa) = 40.34910 89.67914 47.29320
#
# Poissons Ratio (x) = 0.65972 0.53354
# Poissons Ratio (y) = 0.29683 -0.25790
# Poissons Ratio (z) = 0.45520 -0.48904
#
# Static dielectric constant tensor:
#      x y z
#    x 1.739370 0.000000 0.000000 
#    y 0.000000 1.788500 0.000000 
#    z 0.000000 0.000000 1.880450 
# 
# From -- ./inp_files/29997.got.cif
#   From: 2010.05.17/outbox.cif.g08.bks.cpg/sg64_15_cif.got.tgz:29997.got - 2010.06.03 16:29:19.
