data_PCOD9477641
_publ_section_title
;
Structure prediction by ZEFSAII (Michael W. Deem and Ramdas Pophale) SiO2 
 PCOD9477641
Probable space group: C M C A
;
_chemical_formula_sum "Si O2"
_cell_formula_units_Z 64
_cell_length_a 8.673826
_cell_length_b 20.923810
_cell_length_c 19.772892
_cell_angle_alpha 90.000000
_cell_angle_beta 90.000000
_cell_angle_gamma 90.000000
_cell_volume 3588.572029
_symmetry_space_group_name_H-M "C M C A"
_symmetry_group_IT_number 64
_symmetry_cell_setting 'orthorhombic'
loop_
_space_group_symop_operation_xyz
x,y,z
-x,1/2-y,1/2+z
x,-y,-z
-x,1/2+y,1/2-z
-x,-y,-z
x,1/2+y,1/2-z
-x,y,z
x,1/2-y,1/2+z
1/2+x,1/2+y,z
1/2-x,-y,1/2+z
1/2+x,1/2-y,-z
1/2-x,y,1/2-z
1/2-x,1/2-y,-z
1/2+x,y,1/2-z
1/2-x,1/2+y,z
1/2+x,-y,1/2+z
loop_
_atom_site_type_symbol
_atom_site_label
_atom_site_fract_x
_atom_site_fract_y
_atom_site_fract_z
Si Si1 0.315699 0.759868 0.822620
Si Si2 0.314316 0.067277 0.966887
Si Si3 0.684764 0.616692 0.678069
Si Si4 0.183729 0.690317 0.457862
O O1 0.500000 0.759166 0.821830
O O2 0.250000 0.780169 0.750000
O O3 0.254720 0.687381 0.833847
O O4 0.252932 0.803101 0.883002
O O5 0.500000 0.074270 0.973104
O O6 0.277478 0.073886 0.887151
O O7 0.235794 0.125607 0.005886
O O8 0.270054 0.000000 0.000000
O O9 0.500000 0.622878 0.683082
O O10 0.750000 0.593515 0.750000
O O11 0.250000 0.750000 0.500000
O O12 0.000000 0.695031 0.455606
#
# Coordination Sequence:
#
# PCOD9477641 Si02
#       4
#    16  16  16  16
#     4  11  21  35  57  86 119 152 191 243 295 350
#     4  10  22  40  60  84 117 158 199 243 294 350
#     4  10  19  33  56  83 114 149 192 239 290 350
#     4  12  23  37  59  87 117 152 195 244 294 346
#
# _framework density 17.834392000000001
#
# number of rings (size 3 to 8) (size 9 to 14) (size 15 to 20)
#    0.000    1.250    2.500    6.750    0.000    1.500 
#    0.000    1.250    0.000    3.000    0.000    0.000 
#    0.000    0.000    0.000    0.000    0.000    0.000 
#
# Total GULP energy -178830.168150 kJ/mol
# GULP energy per Si atom -5588.442755 kJ/mol
# Density = 1.779380 g / cm^3
# Si number density = 17.834392 Si / 1000 Ang^3
#
#
#
# Elastic Constant Matrix: (Units=GPa)
#
#
# Indices 1 2 3 4 5 6 
#
# 1 118.1434 59.8386 79.3311 0.0000 0.0000 0.0000
# 2 59.8386 97.6689 79.7585 0.0000 0.0000 0.0000
# 3 79.3311 79.7585 188.3437 0.0000 0.0000 0.0000
# 4 0.0000 0.0000 0.0000 29.5124 0.0000 0.0000
# 5 0.0000 0.0000 0.0000 0.0000 32.0016 0.0000
# 6 0.0000 0.0000 0.0000 0.0000 0.0000 21.4351
#
#
#
# Elastic Compliance Matrix: (Units=1/GPa)
#
#
# Indices 1 2 3 4 5 6 
#
# 1 0.013523 -0.005554 -0.003344 0.000000 0.000000 0.000000
# 2 -0.005554 0.017933 -0.005254 0.000000 0.000000 0.000000
# 3 -0.003344 -0.005254 0.008943 0.000000 0.000000 0.000000
# 4 0.000000 0.000000 0.000000 0.033884 0.000000 0.000000
# 5 0.000000 0.000000 0.000000 0.000000 0.031248 0.000000
# 6 0.000000 0.000000 0.000000 0.000000 0.000000 0.046653
#
#
# Mechanical properties :
#
#
# Convention : Reuss Voigt Hill
#
# Bulk Modulus (GPa) = 82.69119 93.55693 88.12406
# Shear Modulus (GPa) = 27.09740 28.93832 28.01786
#
# Velocity S-wave (km/s) = 3.90216 4.03254 3.96789
# Velocity P-wave (km/s) = 8.17125 8.61710 8.39713
#
# Compressibility (1/GPa) = 0.01209319
#
# Stress axis : x y z
#
# Youngs Moduli (GPa) = 73.94912 55.76448 111.82035
#
# Poissons Ratio (x) = 0.30974 0.37389
# Poissons Ratio (y) = 0.41075 0.58755
# Poissons Ratio (z) = 0.24726 0.29301
#
# Static dielectric constant tensor:
#      x y z
#    x 1.596600 0.000000 0.000000 
#    y 0.000000 1.570530 0.000000 
#    z 0.000000 0.000000 2.031990 
# 
# From -- ./inp_files/29244.got.cif
#   From: 2010.05.17/outbox.cif.g08.bks.cpg/sg64_15_cif.got.tgz:29244.got - 2010.06.03 16:29:19.
