data_PCOD9477965
_publ_section_title
;
Structure prediction by ZEFSAII (Michael W. Deem and Ramdas Pophale) SiO2 
 PCOD9477965
Probable space group: C M C A
;
_chemical_formula_sum "Si O2"
_cell_formula_units_Z 88
_cell_length_a 20.425723
_cell_length_b 9.080145
_cell_length_c 22.492551
_cell_angle_alpha 90.000000
_cell_angle_beta 90.000000
_cell_angle_gamma 90.000000
_cell_volume 4171.660293
_symmetry_space_group_name_H-M "C M C A"
_symmetry_group_IT_number 64
_symmetry_cell_setting 'orthorhombic'
loop_
_space_group_symop_operation_xyz
x,y,z
-x,1/2-y,1/2+z
x,-y,-z
-x,1/2+y,1/2-z
-x,-y,-z
x,1/2+y,1/2-z
-x,y,z
x,1/2-y,1/2+z
1/2+x,1/2+y,z
1/2-x,-y,1/2+z
1/2+x,1/2-y,-z
1/2-x,y,1/2-z
1/2-x,1/2-y,-z
1/2+x,y,1/2-z
1/2-x,1/2+y,z
1/2+x,-y,1/2+z
loop_
_atom_site_type_symbol
_atom_site_label
_atom_site_fract_x
_atom_site_fract_y
_atom_site_fract_z
Si Si1 0.312097 0.386295 0.830755
Si Si2 0.306311 0.344593 0.967154
Si Si3 0.424186 0.972584 0.829428
Si Si4 0.923973 0.219504 0.229746
Si Si5 0.250000 0.864560 0.250000
Si Si6 0.076501 0.378239 0.051302
O O1 0.289022 0.376996 0.898127
O O2 0.390012 0.368401 0.823814
O O3 0.289616 0.243686 0.793100
O O4 0.288579 0.527770 0.794522
O O5 0.373834 0.251327 0.965654
O O6 0.314121 0.500000 0.000000
O O7 0.250000 0.250000 0.000000
O O8 0.500000 0.939203 0.844689
O O9 0.421224 0.108037 0.783345
O O10 0.395900 0.038013 0.889965
O O11 0.395279 0.835450 0.793182
O O12 0.000000 0.179397 0.231210
O O13 0.000000 0.331832 0.062019
O O14 0.075518 0.500000 0.000000
#
# Coordination Sequence:
#
# PCOD9477965 Si02
#       6
#    16  16  16  16   8  16
#     4  11  22  42  64  90 127 161 212 262 320 388
#     4  12  26  45  67  95 129 179 227 280 332 394
#     4   9  18  35  59  93 131 164 200 254 321 392
#     4  10  19  35  63  95 127 160 198 254 328 389
#     4  10  24  40  62  92 120 170 204 260 320 384
#     4  10  22  44  68  94 131 176 222 272 330 397
#
# _framework density 21.094716999999999
#
# number of rings (size 3 to 8) (size 9 to 14) (size 15 to 20)
#    0.000    1.636    1.818    2.727    0.000    0.364 
#    9.818    0.000    0.000    0.000    0.000    0.000 
#    0.000    0.000    0.000    0.000    0.000    0.000 
#
# Total GULP energy -245610.758216 kJ/mol
# GULP energy per Si atom -5582.062687 kJ/mol
# Density = 2.104670 g / cm^3
# Si number density = 21.094717 Si / 1000 Ang^3
#
#
#
# Elastic Constant Matrix: (Units=GPa)
#
#
# Indices 1 2 3 4 5 6 
#
# 1 65.1516 28.4413 38.0182 0.0000 0.0000 0.0000
# 2 28.4413 101.1107 61.0183 0.0000 0.0000 0.0000
# 3 38.0182 61.0183 148.3095 0.0000 0.0000 0.0000
# 4 0.0000 0.0000 0.0000 37.3010 0.0000 0.0000
# 5 0.0000 0.0000 0.0000 0.0000 26.6213 0.0000
# 6 0.0000 0.0000 0.0000 0.0000 0.0000 25.3881
#
#
#
# Elastic Compliance Matrix: (Units=1/GPa)
#
#
# Indices 1 2 3 4 5 6 
#
# 1 0.018779 -0.003162 -0.003513 0.000000 0.000000 0.000000
# 2 -0.003162 0.013689 -0.004821 0.000000 0.000000 0.000000
# 3 -0.003513 -0.004821 0.009627 0.000000 0.000000 0.000000
# 4 0.000000 0.000000 0.000000 0.026809 0.000000 0.000000
# 5 0.000000 0.000000 0.000000 0.000000 0.037564 0.000000
# 6 0.000000 0.000000 0.000000 0.000000 0.000000 0.039388
#
#
# Mechanical properties :
#
#
# Convention : Reuss Voigt Hill
#
# Bulk Modulus (GPa) = 52.35084 63.28083 57.81583
# Shear Modulus (GPa) = 28.53598 30.33504 29.43551
#
# Velocity S-wave (km/s) = 3.68197 3.79626 3.73955
# Velocity P-wave (km/s) = 6.55338 7.01990 6.79065
#
# Compressibility (1/GPa) = 0.01910189
#
# Stress axis : x y z
#
# Youngs Moduli (GPa) = 53.25044 73.04934 103.87647
#
# Poissons Ratio (x) = 0.23102 0.36490
# Poissons Ratio (y) = 0.16840 0.50084
# Poissons Ratio (z) = 0.18706 0.35221
#
# Static dielectric constant tensor:
#      x y z
#    x 1.909800 0.000000 0.000000 
#    y 0.000000 1.746380 0.000000 
#    z 0.000000 0.000000 1.783100 
# 
# From -- ./inp_files/41382.got.cif
#   From: 2010.05.17/outbox.cif.g08.bks.cpg/sg64_21_cif.got.tgz:41382.got - 2010.06.03 16:29:19.
