data_PCOD9477967
_publ_section_title
;
Structure prediction by ZEFSAII (Michael W. Deem and Ramdas Pophale) SiO2 
 PCOD9477967
Probable space group: C M C A
;
_chemical_formula_sum "Si O2"
_cell_formula_units_Z 64
_cell_length_a 35.298605
_cell_length_b 5.440947
_cell_length_c 13.007011
_cell_angle_alpha 90.000000
_cell_angle_beta 90.000000
_cell_angle_gamma 90.000000
_cell_volume 2498.098424
_symmetry_space_group_name_H-M "C M C A"
_symmetry_group_IT_number 64
_symmetry_cell_setting 'orthorhombic'
loop_
_space_group_symop_operation_xyz
x,y,z
-x,1/2-y,1/2+z
x,-y,-z
-x,1/2+y,1/2-z
-x,-y,-z
x,1/2+y,1/2-z
-x,y,z
x,1/2-y,1/2+z
1/2+x,1/2+y,z
1/2-x,-y,1/2+z
1/2+x,1/2-y,-z
1/2-x,y,1/2-z
1/2-x,1/2-y,-z
1/2+x,y,1/2-z
1/2-x,1/2+y,z
1/2+x,-y,1/2+z
loop_
_atom_site_type_symbol
_atom_site_label
_atom_site_fract_x
_atom_site_fract_y
_atom_site_fract_z
Si Si1 0.543701 0.858788 0.373745
Si Si2 0.653074 0.250221 0.432734
Si Si3 0.264673 0.356633 0.366238
Si Si4 0.926914 0.857981 0.359883
O O1 0.500000 0.786852 0.382159
O O2 0.555262 0.889780 0.253161
O O3 0.569684 0.630309 0.406594
O O4 0.549916 0.136529 0.412694
O O5 0.652294 0.500000 0.500000
O O6 0.692551 0.260670 0.372006
O O7 0.616279 0.266863 0.360334
O O8 0.651378 0.000000 0.500000
O O9 0.250000 0.391561 0.250000
O O10 0.261030 0.633785 0.409703
#
# Coordination Sequence:
#
# PCOD9477967 Si02
#       4
#    16  16  16  16
#     4  10  19  35  64  92 116 151 204 272 316 346
#     4  12  26  42  61  88 128 170 202 245 312 382
#     4  10  23  42  67  94 121 155 208 259 302 359
#     4  10  20  35  59  88 121 156 201 249 310 369
#
# _framework density 25.619489000000002
#
# number of rings (size 3 to 8) (size 9 to 14) (size 15 to 20)
#    0.000    1.500    0.000    6.750    0.000   11.000 
#    0.000    0.000    0.000   25.500    0.000    0.000 
#    0.000    0.000    0.000    0.000    0.000    0.000 
#
# Total GULP energy -179103.596804 kJ/mol
# GULP energy per Si atom -5596.987400 kJ/mol
# Density = 2.556118 g / cm^3
# Si number density = 25.619489 Si / 1000 Ang^3
#
#
#
# Elastic Constant Matrix: (Units=GPa)
#
#
# Indices 1 2 3 4 5 6 
#
# 1 180.3152 9.0984 -9.1396 0.0000 0.0000 0.0000
# 2 9.0984 225.2232 26.1523 0.0000 0.0000 0.0000
# 3 -9.1396 26.1523 47.4887 0.0000 0.0000 0.0000
# 4 0.0000 0.0000 0.0000 57.6689 0.0000 0.0000
# 5 0.0000 0.0000 0.0000 0.0000 41.5609 0.0000
# 6 0.0000 0.0000 0.0000 0.0000 0.0000 49.3963
#
#
#
# Elastic Compliance Matrix: (Units=1/GPa)
#
#
# Indices 1 2 3 4 5 6 
#
# 1 0.005630 -0.000377 0.001291 0.000000 0.000000 0.000000
# 2 -0.000377 0.004769 -0.002699 0.000000 0.000000 0.000000
# 3 0.001291 -0.002699 0.022792 0.000000 0.000000 0.000000
# 4 0.000000 0.000000 0.000000 0.017340 0.000000 0.000000
# 5 0.000000 0.000000 0.000000 0.000000 0.024061 0.000000
# 6 0.000000 0.000000 0.000000 0.000000 0.000000 0.020244
#
#
# Mechanical properties :
#
#
# Convention : Reuss Voigt Hill
#
# Bulk Modulus (GPa) = 33.75872 56.13881 44.94876
# Shear Modulus (GPa) = 46.17627 58.18630 52.18128
#
# Velocity S-wave (km/s) = 4.25006 4.77085 4.51797
# Velocity P-wave (km/s) = 6.10652 7.23244 6.69320
#
# Compressibility (1/GPa) = 0.02962197
#
# Stress axis : x y z
#
# Youngs Moduli (GPa) = 177.60900 209.70259 43.87423
#
# Poissons Ratio (x) = 0.07914 -0.05666
# Poissons Ratio (y) = 0.06703 0.11841
# Poissons Ratio (z) = -0.22937 0.56594
#
# Static dielectric constant tensor:
#      x y z
#    x 1.899540 0.000000 0.000000 
#    y 0.000000 2.061950 0.000000 
#    z 0.000000 0.000000 0.771510 
# 
# From -- ./inp_files/35625.got.cif
#   From: 2010.05.17/outbox.cif.g08.bks.cpg/sg64_18_cif.got.tgz:35625.got - 2010.06.03 16:29:19.
