data_PCOD9477192
_publ_section_title
;
Structure prediction by ZEFSAII (Michael W. Deem and Ramdas Pophale) SiO2 
 PCOD9477192
Probable space group: C M C A
;
_chemical_formula_sum "Si O2"
_cell_formula_units_Z 96
_cell_length_a 7.665239
_cell_length_b 28.235547
_cell_length_c 24.868866
_cell_angle_alpha 90.000000
_cell_angle_beta 90.000000
_cell_angle_gamma 90.000000
_cell_volume 5382.423779
_symmetry_space_group_name_H-M "C M C A"
_symmetry_group_IT_number 64
_symmetry_cell_setting 'orthorhombic'
loop_
_space_group_symop_operation_xyz
x,y,z
-x,1/2-y,1/2+z
x,-y,-z
-x,1/2+y,1/2-z
-x,-y,-z
x,1/2+y,1/2-z
-x,y,z
x,1/2-y,1/2+z
1/2+x,1/2+y,z
1/2-x,-y,1/2+z
1/2+x,1/2-y,-z
1/2-x,y,1/2-z
1/2-x,1/2-y,-z
1/2+x,y,1/2-z
1/2-x,1/2+y,z
1/2+x,-y,1/2+z
loop_
_atom_site_type_symbol
_atom_site_label
_atom_site_fract_x
_atom_site_fract_y
_atom_site_fract_z
Si Si1 0.713091 0.017709 0.584215
Si Si2 0.705478 0.181507 0.015918
Si Si3 0.290513 0.929711 0.310489
Si Si4 0.710579 0.573668 0.022258
Si Si5 0.710051 0.321427 0.189400
Si Si6 0.202379 0.234361 0.911765
O O1 0.500000 0.017219 0.584696
O O2 0.774216 0.037000 0.641500
O O3 0.764784 0.053294 0.536074
O O4 0.768665 0.965230 0.566022
O O5 0.500000 0.191416 0.009648
O O6 0.788864 0.194820 0.958655
O O7 0.729328 0.127008 0.030368
O O8 0.776670 0.218218 0.060597
O O9 0.500000 0.927861 0.315192
O O10 0.250000 0.945765 0.250000
O O11 0.224590 0.875593 0.316602
O O12 0.500000 0.574107 0.022502
O O13 0.500000 0.323508 0.183737
O O14 0.750000 0.305704 0.250000
O O15 0.779491 0.287378 0.142580
O O16 0.000000 0.245018 0.900004
#
# Coordination Sequence:
#
# PCOD9477192 Si02
#       6
#    16  16  16  16  16  16
#     4   8  15  28  47  66  84 113 150 178 205 258
#     4  10  19  29  44  68  93 115 144 183 222 258
#     4   9  16  27  43  64  87 110 139 174 212 254
#     4   9  16  29  48  66  85 113 147 180 216 258
#     4   9  17  29  46  66  88 114 143 178 218 259
#     4   9  18  32  47  63  88 122 151 175 213 265
#
# _framework density 17.835830000000001
#
# number of rings (size 3 to 8) (size 9 to 14) (size 15 to 20)
#    0.000    3.000    0.000    2.500    0.000    4.000 
#    0.000    6.667    0.000    1.000    0.000    7.000 
#    0.000    0.000    0.000    0.000    0.000    0.000 
#
# Total GULP energy -267520.157600 kJ/mol
# GULP energy per Si atom -5573.336617 kJ/mol
# Density = 1.779524 g / cm^3
# Si number density = 17.835830 Si / 1000 Ang^3
#
#
#
# Elastic Constant Matrix: (Units=GPa)
#
#
# Indices 1 2 3 4 5 6 
#
# 1 30.0218 -0.0042 -1.7745 0.0000 0.0000 0.0000
# 2 -0.0042 122.0474 86.5778 0.0000 0.0000 0.0000
# 3 -1.7745 86.5778 161.8061 0.0000 0.0000 0.0000
# 4 0.0000 0.0000 0.0000 22.2278 0.0000 0.0000
# 5 0.0000 0.0000 0.0000 0.0000 14.3972 0.0000
# 6 0.0000 0.0000 0.0000 0.0000 0.0000 31.1048
#
#
#
# Elastic Compliance Matrix: (Units=1/GPa)
#
#
# Indices 1 2 3 4 5 6 
#
# 1 0.033344 -0.000416 0.000588 0.000000 0.000000 0.000000
# 2 -0.000416 0.013211 -0.007074 0.000000 0.000000 0.000000
# 3 0.000588 -0.007074 0.009972 0.000000 0.000000 0.000000
# 4 0.000000 0.000000 0.000000 0.044989 0.000000 0.000000
# 5 0.000000 0.000000 0.000000 0.000000 0.069458 0.000000
# 6 0.000000 0.000000 0.000000 0.000000 0.000000 0.032149
#
#
# Mechanical properties :
#
#
# Convention : Reuss Voigt Hill
#
# Bulk Modulus (GPa) = 23.40608 53.71927 38.56268
# Shear Modulus (GPa) = 21.62937 28.81771 25.22354
#
# Velocity S-wave (km/s) = 3.48615 4.02396 3.76467
# Velocity P-wave (km/s) = 5.41811 7.19540 6.36905
#
# Compressibility (1/GPa) = 0.04272394
#
# Stress axis : x y z
#
# Youngs Moduli (GPa) = 29.99050 75.69230 100.28508
#
# Poissons Ratio (x) = 0.03151 -0.05901
# Poissons Ratio (y) = 0.01248 0.70938
# Poissons Ratio (z) = -0.01765 0.53542
#
# Static dielectric constant tensor:
#      x y z
#    x 1.669960 0.000000 0.000000 
#    y 0.000000 1.605540 0.000000 
#    z 0.000000 0.000000 1.607340 
# 
# From -- ./inp_files/38542.got.cif
#   From: 2010.05.17/outbox.cif.g08.bks.cpg/sg64_20_cif.got.tgz:38542.got - 2010.06.03 16:29:19.
