data_PCOD9477467
_publ_section_title
;
Structure prediction by ZEFSAII (Michael W. Deem and Ramdas Pophale) SiO2 
 PCOD9477467
Probable space group: C M C A
;
_chemical_formula_sum "Si O2"
_cell_formula_units_Z 80
_cell_length_a 36.632888
_cell_length_b 23.271559
_cell_length_c 5.134505
_cell_angle_alpha 90.000000
_cell_angle_beta 90.000000
_cell_angle_gamma 90.000000
_cell_volume 4377.188178
_symmetry_space_group_name_H-M "C M C A"
_symmetry_group_IT_number 64
_symmetry_cell_setting 'orthorhombic'
loop_
_space_group_symop_operation_xyz
x,y,z
-x,1/2-y,1/2+z
x,-y,-z
-x,1/2+y,1/2-z
-x,-y,-z
x,1/2+y,1/2-z
-x,y,z
x,1/2-y,1/2+z
1/2+x,1/2+y,z
1/2-x,-y,1/2+z
1/2+x,1/2-y,-z
1/2-x,y,1/2-z
1/2-x,1/2-y,-z
1/2+x,y,1/2-z
1/2-x,1/2+y,z
1/2+x,-y,1/2+z
loop_
_atom_site_type_symbol
_atom_site_label
_atom_site_fract_x
_atom_site_fract_y
_atom_site_fract_z
Si Si1 0.000000 0.710930 0.809172
Si Si2 0.725905 0.306905 0.461201
Si Si3 0.274131 0.000000 0.500000
Si Si4 0.346985 0.346127 0.286051
Si Si5 0.422441 0.788290 0.074289
Si Si6 0.683426 0.608304 0.223894
O O1 0.038686 0.681245 0.867992
O O2 0.000000 0.764166 0.016744
O O3 0.750000 0.341823 0.250000
O O4 0.750000 0.250000 0.500000
O O5 0.685542 0.298949 0.331297
O O6 0.786089 0.343269 0.788004
O O7 0.298264 0.948045 0.610877
O O8 0.250000 0.018336 0.750000
O O9 0.386227 0.323262 0.362995
O O10 0.335356 0.395626 0.492762
O O11 0.343745 0.366864 0.991919
O O12 0.421899 0.764616 0.780684
#
# Coordination Sequence:
#
# PCOD9477467 Si02
#       6
#     8  16   8  16  16  16
#     4   8  16  30  48  76 106 145 188 221 248 322
#     4  10  26  36  54  75 115 149 186 225 286 338
#     4  12  26  42  66  76  98 143 196 261 300 324
#     4  10  23  36  54  76 111 139 185 232 277 340
#     4  10  19  32  53  77 112 151 185 216 270 327
#     4  10  25  42  54  80 102 139 191 241 286 343
#
# _framework density 18.276574
#
# number of rings (size 3 to 8) (size 9 to 14) (size 15 to 20)
#    1.200    0.800    0.000    2.400    8.400    0.000 
#    0.000    0.000    0.000    0.000    0.000    0.000 
#    0.000    4.800    0.000    0.000    0.000    0.000 
#
# Total GULP energy -222832.598292 kJ/mol
# GULP energy per Si atom -5570.814957 kJ/mol
# Density = 1.823498 g / cm^3
# Si number density = 18.276574 Si / 1000 Ang^3
#
#
#
# Elastic Constant Matrix: (Units=GPa)
#
#
# Indices 1 2 3 4 5 6 
#
# 1 132.2414 23.5964 4.4367 0.0000 0.0000 0.0000
# 2 23.5964 58.7829 10.4628 0.0000 0.0000 0.0000
# 3 4.4367 10.4628 106.0145 0.0000 0.0000 0.0000
# 4 0.0000 0.0000 0.0000 12.0731 0.0000 0.0000
# 5 0.0000 0.0000 0.0000 0.0000 27.5094 0.0000
# 6 0.0000 0.0000 0.0000 0.0000 0.0000 3.2593
#
#
#
# Elastic Compliance Matrix: (Units=1/GPa)
#
#
# Indices 1 2 3 4 5 6 
#
# 1 0.008145 -0.003266 -0.000019 0.000000 0.000000 0.000000
# 2 -0.003266 0.018626 -0.001702 0.000000 0.000000 0.000000
# 3 -0.000019 -0.001702 0.009601 0.000000 0.000000 0.000000
# 4 0.000000 0.000000 0.000000 0.082829 0.000000 0.000000
# 5 0.000000 0.000000 0.000000 0.000000 0.036351 0.000000
# 6 0.000000 0.000000 0.000000 0.000000 0.000000 0.306816
#
#
# Mechanical properties :
#
#
# Convention : Reuss Voigt Hill
#
# Bulk Modulus (GPa) = 37.87924 41.55896 39.71910
# Shear Modulus (GPa) = 10.39196 25.80455 18.09826
#
# Velocity S-wave (km/s) = 2.38711 3.76159 3.15023
# Velocity P-wave (km/s) = 5.32619 6.45402 5.91704
#
# Compressibility (1/GPa) = 0.02639969
#
# Stress axis : x y z
#
# Youngs Moduli (GPa) = 122.76894 53.68899 104.15173
#
# Poissons Ratio (x) = 0.17537 0.00193
# Poissons Ratio (y) = 0.40101 0.17722
# Poissons Ratio (z) = 0.00227 0.09135
#
# Static dielectric constant tensor:
#      x y z
#    x 1.688020 0.000000 0.000000 
#    y 0.000000 1.641380 0.000000 
#    z 0.000000 0.000000 1.805100 
# 
# From -- ./inp_files/3279.got.cif
#   From: 2010.05.17/outbox.cif.g08.bks.cpg/sg64_2_cif.got.tgz:3279.got - 2010.06.03 16:29:19.
