data_PCOD9477738
_publ_section_title
;
Structure prediction by ZEFSAII (Michael W. Deem and Ramdas Pophale) SiO2 
 PCOD9477738
Probable space group: C M C A
;
_chemical_formula_sum "Si O2"
_cell_formula_units_Z 96
_cell_length_a 11.403044
_cell_length_b 19.470513
_cell_length_c 23.033416
_cell_angle_alpha 90.000000
_cell_angle_beta 90.000000
_cell_angle_gamma 90.000000
_cell_volume 5113.950803
_symmetry_space_group_name_H-M "C M C A"
_symmetry_group_IT_number 64
_symmetry_cell_setting 'orthorhombic'
loop_
_space_group_symop_operation_xyz
x,y,z
-x,1/2-y,1/2+z
x,-y,-z
-x,1/2+y,1/2-z
-x,-y,-z
x,1/2+y,1/2-z
-x,y,z
x,1/2-y,1/2+z
1/2+x,1/2+y,z
1/2-x,-y,1/2+z
1/2+x,1/2-y,-z
1/2-x,y,1/2-z
1/2-x,1/2-y,-z
1/2+x,y,1/2-z
1/2-x,1/2+y,z
1/2+x,-y,1/2+z
loop_
_atom_site_type_symbol
_atom_site_label
_atom_site_fract_x
_atom_site_fract_y
_atom_site_fract_z
Si Si1 0.869886 0.080232 0.777387
Si Si2 0.751362 0.071450 0.102020
Si Si3 0.000000 0.464625 0.904403
Si Si4 0.500000 0.896145 0.033594
Si Si5 0.869421 0.417495 0.722201
Si Si6 0.759243 0.830776 0.493302
Si Si7 0.367613 0.933667 0.415406
O O1 0.750000 0.109285 0.750000
O O2 0.858340 0.083140 0.847104
O O3 0.000000 0.108016 0.761211
O O4 0.872663 0.998805 0.762246
O O5 0.619128 0.060253 0.125527
O O6 0.842981 0.083890 0.153238
O O7 0.783804 0.998510 0.072387
O O8 0.750064 0.131469 0.055316
O O9 0.000000 0.545838 0.916782
O O10 0.000000 0.432264 0.969664
O O11 0.616458 0.851331 0.034783
O O12 0.750000 0.387379 0.750000
O O13 0.000000 0.389306 0.734794
O O14 0.750000 0.750000 0.500000
O O15 0.664071 0.867549 0.452755
O O16 0.500000 0.956041 0.427329
#
# Coordination Sequence:
#
# PCOD9477738 Si02
#       7
#    16  16   8   8  16  16  16
#     4   8  15  30  48  75 107 132 166 214 263 313
#     4  10  19  34  55  78 108 141 180 221 268 321
#     4   9  16  30  56  72 101 139 177 223 258 313
#     4   9  18  36  48  74 102 133 187 219 256 322
#     4   9  18  31  50  80 110 136 174 222 270 323
#     4  11  23  36  52  77 108 145 179 224 270 319
#     4  10  20  34  54  79 107 140 177 218 268 322
#
# _framework density 18.772179000000001
#
# number of rings (size 3 to 8) (size 9 to 14) (size 15 to 20)
#    0.000    2.500    1.667    2.000    2.333    2.000 
#    6.000    0.000    0.000    1.000    0.000    2.333 
#    0.000    0.000    0.000    0.000    0.000    0.000 
#
# Total GULP energy -267560.146664 kJ/mol
# GULP energy per Si atom -5574.169722 kJ/mol
# Density = 1.872945 g / cm^3
# Si number density = 18.772179 Si / 1000 Ang^3
#
#
#
# Elastic Constant Matrix: (Units=GPa)
#
#
# Indices 1 2 3 4 5 6 
#
# 1 150.6620 28.3495 27.3763 0.0000 0.0000 0.0000
# 2 28.3495 85.0887 19.6312 0.0000 0.0000 0.0000
# 3 27.3763 19.6312 41.8479 0.0000 0.0000 0.0000
# 4 0.0000 0.0000 0.0000 -2.4575 0.0000 0.0000
# 5 0.0000 0.0000 0.0000 0.0000 18.0319 0.0000
# 6 0.0000 0.0000 0.0000 0.0000 0.0000 8.4258
#
#
#
# Elastic Compliance Matrix: (Units=1/GPa)
#
#
# Indices 1 2 3 4 5 6 
#
# 1 0.007717 -0.001577 -0.004309 0.000000 0.000000 0.000000
# 2 -0.001577 0.013501 -0.005302 0.000000 0.000000 0.000000
# 3 -0.004309 -0.005302 0.029202 0.000000 0.000000 0.000000
# 4 0.000000 0.000000 0.000000 -0.406918 0.000000 0.000000
# 5 0.000000 0.000000 0.000000 0.000000 0.055457 0.000000
# 6 0.000000 0.000000 0.000000 0.000000 0.000000 0.118684
#
#
# Mechanical properties :
#
#
# Convention : Reuss Voigt Hill
#
# Bulk Modulus (GPa) = 35.65689 47.59029 41.62359
# Shear Modulus (GPa) = -33.19292 18.28281 -7.45505
#
# Velocity S-wave (km/s) = -4.20956 3.12417 -1.99498
# Velocity P-wave (km/s) = 2.14275 6.19843 4.11273
#
# Compressibility (1/GPa) = 0.02804507
#
# Stress axis : x y z
#
# Youngs Moduli (GPa) = 129.58380 74.06808 34.24450
#
# Poissons Ratio (x) = 0.11681 0.14754
# Poissons Ratio (y) = 0.20436 0.18156
# Poissons Ratio (z) = 0.55832 0.39269
#
# Static dielectric constant tensor:
#      x y z
#    x 1.727560 0.000000 0.000000 
#    y 0.000000 1.588980 0.000000 
#    z 0.000000 0.000000 1.676240 
# 
# From -- ./inp_files/44255.got.cif
#   From: 2010.05.17/outbox.cif.g08.bks.cpg/sg64_23_cif.got.tgz:44255.got - 2010.06.03 16:29:19.
