data_PCOD9477310
_publ_section_title
;
Structure prediction by ZEFSAII (Michael W. Deem and Ramdas Pophale) SiO2 
 PCOD9477310
Probable space group: C M C A
;
_chemical_formula_sum "Si O2"
_cell_formula_units_Z 96
_cell_length_a 8.911374
_cell_length_b 23.479972
_cell_length_c 27.377841
_cell_angle_alpha 90.000000
_cell_angle_beta 90.000000
_cell_angle_gamma 90.000000
_cell_volume 5728.506926
_symmetry_space_group_name_H-M "C M C A"
_symmetry_group_IT_number 64
_symmetry_cell_setting 'orthorhombic'
loop_
_space_group_symop_operation_xyz
x,y,z
-x,1/2-y,1/2+z
x,-y,-z
-x,1/2+y,1/2-z
-x,-y,-z
x,1/2+y,1/2-z
-x,y,z
x,1/2-y,1/2+z
1/2+x,1/2+y,z
1/2-x,-y,1/2+z
1/2+x,1/2-y,-z
1/2-x,y,1/2-z
1/2-x,1/2-y,-z
1/2+x,y,1/2-z
1/2-x,1/2+y,z
1/2+x,-y,1/2+z
loop_
_atom_site_type_symbol
_atom_site_label
_atom_site_fract_x
_atom_site_fract_y
_atom_site_fract_z
Si Si1 0.170812 0.912959 0.626586
Si Si2 0.180132 0.500963 0.696523
Si Si3 0.673992 0.401310 0.120699
Si Si4 0.820911 0.692213 0.941081
Si Si5 0.318681 0.817223 0.948131
Si Si6 0.165052 0.019492 0.554626
O O1 0.264021 0.943358 0.669438
O O2 0.231960 0.859836 0.595054
O O3 0.000000 0.900115 0.643510
O O4 0.160285 0.963223 0.586974
O O5 0.250000 0.503964 0.750000
O O6 0.226367 0.557469 0.665064
O O7 0.000000 0.500859 0.698135
O O8 0.500000 0.387875 0.127927
O O9 0.763187 0.345416 0.104215
O O10 0.702484 0.441939 0.074211
O O11 0.746643 0.754478 0.939941
O O12 0.000000 0.697428 0.939420
O O13 0.781083 0.666651 0.995289
O O14 0.500000 0.816389 0.945801
O O15 0.000000 0.048740 0.559853
O O16 0.182910 0.000000 0.500000
#
# Coordination Sequence:
#
# PCOD9477310 Si02
#       6
#    16  16  16  16  16  16
#     4   9  17  30  49  71  97 129 162 199 243 289
#     4  10  21  36  54  75  97 123 159 204 255 304
#     4  10  20  32  47  70  98 127 161 202 246 292
#     4  10  19  31  49  73 102 138 174 203 235 280
#     4   9  18  32  49  72 103 138 172 202 235 279
#     4   9  16  27  44  67  96 128 160 193 233 286
#
# _framework density 16.758293999999999
#
# number of rings (size 3 to 8) (size 9 to 14) (size 15 to 20)
#    0.000    2.500    0.000    2.500    0.000    6.333 
#    0.000    3.333    0.000    1.000    0.000    4.667 
#    0.000    0.000    0.000    0.000    0.000    0.000 
#
# Total GULP energy -267217.107871 kJ/mol
# GULP energy per Si atom -5567.023081 kJ/mol
# Density = 1.672015 g / cm^3
# Si number density = 16.758294 Si / 1000 Ang^3
#
#
#
# Elastic Constant Matrix: (Units=GPa)
#
#
# Indices 1 2 3 4 5 6 
#
# 1 27.8827 23.2957 39.7171 0.0000 0.0000 0.0000
# 2 23.2957 75.8066 47.5516 0.0000 0.0000 0.0000
# 3 39.7171 47.5516 110.8588 0.0000 0.0000 0.0000
# 4 0.0000 0.0000 0.0000 23.7800 0.0000 0.0000
# 5 0.0000 0.0000 0.0000 0.0000 18.0286 0.0000
# 6 0.0000 0.0000 0.0000 0.0000 0.0000 26.4044
#
#
#
# Elastic Compliance Matrix: (Units=1/GPa)
#
#
# Indices 1 2 3 4 5 6 
#
# 1 0.077242 -0.008726 -0.023931 0.000000 0.000000 0.000000
# 2 -0.008726 0.019033 -0.005038 0.000000 0.000000 0.000000
# 3 -0.023931 -0.005038 0.019755 0.000000 0.000000 0.000000
# 4 0.000000 0.000000 0.000000 0.042052 0.000000 0.000000
# 5 0.000000 0.000000 0.000000 0.000000 0.055468 0.000000
# 6 0.000000 0.000000 0.000000 0.000000 0.000000 0.037872
#
#
# Mechanical properties :
#
#
# Convention : Reuss Voigt Hill
#
# Bulk Modulus (GPa) = 24.60518 48.40858 36.50688
# Shear Modulus (GPa) = 14.69039 20.57485 17.63262
#
# Velocity S-wave (km/s) = 2.96396 3.50772 3.24724
# Velocity P-wave (km/s) = 5.14079 6.73457 5.99092
#
# Compressibility (1/GPa) = 0.04064185
#
# Stress axis : x y z
#
# Youngs Moduli (GPa) = 12.94625 52.54017 50.62019
#
# Poissons Ratio (x) = 0.45846 1.21137
# Poissons Ratio (y) = 0.11297 0.25501
# Poissons Ratio (z) = 0.30981 0.26469
#
# Static dielectric constant tensor:
#      x y z
#    x 1.588530 0.000000 0.000000 
#    y 0.000000 1.593530 0.000000 
#    z 0.000000 0.000000 1.594520 
# 
# From -- ./inp_files/48144.got.cif
#   From: 2010.05.17/outbox.cif.g08.bks.cpg/sg64_25_cif.got.tgz:48144.got - 2010.06.03 16:29:19.
