data_PCOD9477763
_publ_section_title
;
Structure prediction by ZEFSAII (Michael W. Deem and Ramdas Pophale) SiO2 
 PCOD9477763
Probable space group: C M C A
;
_chemical_formula_sum "Si O2"
_cell_formula_units_Z 112
_cell_length_a 15.639012
_cell_length_b 16.132065
_cell_length_c 22.868849
_cell_angle_alpha 90.000000
_cell_angle_beta 90.000000
_cell_angle_gamma 90.000000
_cell_volume 5769.571809
_symmetry_space_group_name_H-M "C M C A"
_symmetry_group_IT_number 64
_symmetry_cell_setting 'orthorhombic'
loop_
_space_group_symop_operation_xyz
x,y,z
-x,1/2-y,1/2+z
x,-y,-z
-x,1/2+y,1/2-z
-x,-y,-z
x,1/2+y,1/2-z
-x,y,z
x,1/2-y,1/2+z
1/2+x,1/2+y,z
1/2-x,-y,1/2+z
1/2+x,1/2-y,-z
1/2-x,y,1/2-z
1/2-x,1/2-y,-z
1/2+x,y,1/2-z
1/2-x,1/2+y,z
1/2+x,-y,1/2+z
loop_
_atom_site_type_symbol
_atom_site_label
_atom_site_fract_x
_atom_site_fract_y
_atom_site_fract_z
Si Si1 0.602061 0.913385 0.728510
Si Si2 0.098800 0.092911 0.803017
Si Si3 0.320864 0.772049 0.799313
Si Si4 0.902278 0.269732 0.014655
Si Si5 0.269199 0.085173 0.011309
Si Si6 0.596097 0.389917 0.058590
Si Si7 0.309390 0.167277 0.384500
O O1 0.500000 0.915731 0.723167
O O2 0.625263 0.855072 0.784022
O O3 0.639852 0.870180 0.670213
O O4 0.634830 0.009080 0.727008
O O5 0.134492 0.184083 0.790775
O O6 0.103124 0.086719 0.873569
O O7 0.000000 0.095652 0.785701
O O8 0.250000 0.775039 0.750000
O O9 0.268106 0.777331 0.859340
O O10 0.870854 0.216396 0.070850
O O11 0.000000 0.299222 0.023169
O O12 0.830644 0.339042 0.004977
O O13 0.903656 0.207539 0.958965
O O14 0.236441 0.097283 0.077035
O O15 0.182084 0.081183 0.973249
O O16 0.317209 0.000000 0.000000
O O17 0.500000 0.418549 0.039194
#
# Coordination Sequence:
#
# PCOD9477763 Si02
#       7
#    16  16  16  16  16  16  16
#     4  10  21  36  55  81 109 139 180 227 277 332
#     4  10  19  34  56  79 107 139 174 222 274 326
#     4  10  21  35  54  76 103 141 181 225 273 324
#     4  10  20  35  55  78 109 148 187 228 276 333
#     4  11  21  33  53  81 114 146 180 224 276 340
#     4   9  18  33  56  83 107 138 181 227 276 329
#     4  10  20  36  56  77 106 142 181 229 279 328
#
# _framework density 19.412185999999998
#
# number of rings (size 3 to 8) (size 9 to 14) (size 15 to 20)
#    0.000    2.000    0.000    5.143    0.000    2.857 
#    0.000    2.143    0.000    3.429    0.000    0.000 
#    0.000    0.000    0.000    0.000    0.000    0.000 
#
# Total GULP energy -311878.391590 kJ/mol
# GULP energy per Si atom -5569.256993 kJ/mol
# Density = 1.936800 g / cm^3
# Si number density = 19.412186 Si / 1000 Ang^3
#
#
#
# Elastic Constant Matrix: (Units=GPa)
#
#
# Indices 1 2 3 4 5 6 
#
# 1 85.5136 42.3883 17.2421 0.0000 0.0000 0.0000
# 2 42.3883 96.4506 -7.1924 0.0000 0.0000 0.0000
# 3 17.2421 -7.1924 20.1543 0.0000 0.0000 0.0000
# 4 0.0000 0.0000 0.0000 12.8269 0.0000 0.0000
# 5 0.0000 0.0000 0.0000 0.0000 -72.7874 0.0000
# 6 0.0000 0.0000 0.0000 0.0000 0.0000 4.1328
#
#
#
# Elastic Compliance Matrix: (Units=1/GPa)
#
#
# Indices 1 2 3 4 5 6 
#
# 1 0.021898 -0.011322 -0.022775 0.000000 0.000000 0.000000
# 2 -0.011322 0.016506 0.015577 0.000000 0.000000 0.000000
# 3 -0.022775 0.015577 0.074660 0.000000 0.000000 0.000000
# 4 0.000000 0.000000 0.000000 0.077961 0.000000 0.000000
# 5 0.000000 0.000000 0.000000 0.000000 -0.013739 0.000000
# 6 0.000000 0.000000 0.000000 0.000000 0.000000 0.241966
#
#
# Mechanical properties :
#
#
# Convention : Reuss Voigt Hill
#
# Bulk Modulus (GPa) = 13.15397 34.11049 23.63223
# Shear Modulus (GPa) = 10.38133 -1.18682 4.59726
#
# Velocity S-wave (km/s) = 2.31505 -0.78276 1.54058
# Velocity P-wave (km/s) = 3.73320 4.09791 3.91980
#
# Compressibility (1/GPa) = 0.07602265
#
# Stress axis : x y z
#
# Youngs Moduli (GPa) = 45.66528 60.58583 13.39410
#
# Poissons Ratio (x) = 0.68597 0.30505
# Poissons Ratio (y) = 0.51704 -0.20863
# Poissons Ratio (z) = 1.04001 -0.94372
#
# Static dielectric constant tensor:
#      x y z
#    x 1.688990 0.000000 0.000000 
#    y 0.000000 1.856020 0.000000 
#    z 0.000000 0.000000 1.689310 
# 
# From -- ./inp_files/45234.got.cif
#   From: 2010.05.17/outbox.cif.g08.bks.cpg/sg64_23_cif.got.tgz:45234.got - 2010.06.03 16:29:19.
