data_PCOD9477075
_publ_section_title
;
Structure prediction by ZEFSAII (Michael W. Deem and Ramdas Pophale) SiO2 
 PCOD9477075
Probable space group: C M C A
;
_chemical_formula_sum "Si O2"
_cell_formula_units_Z 128
_cell_length_a 24.964707
_cell_length_b 20.456031
_cell_length_c 9.686550
_cell_angle_alpha 90.000000
_cell_angle_beta 90.000000
_cell_angle_gamma 90.000000
_cell_volume 4946.715927
_symmetry_space_group_name_H-M "C M C A"
_symmetry_group_IT_number 64
_symmetry_cell_setting 'orthorhombic'
loop_
_space_group_symop_operation_xyz
x,y,z
-x,1/2-y,1/2+z
x,-y,-z
-x,1/2+y,1/2-z
-x,-y,-z
x,1/2+y,1/2-z
-x,y,z
x,1/2-y,1/2+z
1/2+x,1/2+y,z
1/2-x,-y,1/2+z
1/2+x,1/2-y,-z
1/2-x,y,1/2-z
1/2-x,1/2-y,-z
1/2+x,y,1/2-z
1/2-x,1/2+y,z
1/2+x,-y,1/2+z
loop_
_atom_site_type_symbol
_atom_site_label
_atom_site_fract_x
_atom_site_fract_y
_atom_site_fract_z
Si Si1 0.558223 0.372826 0.053904
Si Si2 0.319977 0.905598 0.067845
Si Si3 0.441755 0.955243 0.707889
Si Si4 0.559995 0.616293 0.480406
Si Si5 0.172431 0.000661 0.209000
Si Si6 0.149161 0.315397 0.305066
Si Si7 0.560634 0.750826 0.651281
Si Si8 0.707532 0.892253 0.518520
O O1 0.500000 0.371111 0.115924
O O2 0.563020 0.431552 0.948760
O O3 0.565259 0.310894 0.953167
O O4 0.601184 0.366620 0.170151
O O5 0.318325 0.845312 0.178045
O O6 0.271257 0.888886 0.967673
O O7 0.304452 0.971921 0.149716
O O8 0.380840 0.911819 0.015811
O O9 0.500000 0.986410 0.724904
O O10 0.440819 0.894151 0.814360
O O11 0.390979 0.998716 0.733811
O O12 0.500000 0.589071 0.520958
O O13 0.561678 0.687332 0.550852
O O14 0.190611 0.947653 0.094911
O O15 0.185119 0.073938 0.156888
O O16 0.112134 0.254609 0.254368
O O17 0.182942 0.326126 0.447415
O O18 0.500000 0.754092 0.714802
#
# Coordination Sequence:
#
# PCOD9477075 Si02
#       8
#    16  16  16  16  16  16  16  16
#     4  10  20  33  55  86 118 153 193 242 297 347
#     4  10  22  38  62  85 112 153 195 242 295 347
#     4  10  21  36  53  82 121 154 185 241 299 348
#     4   9  20  38  58  83 119 153 191 236 293 358
#     4  10  20  36  56  83 112 148 198 239 284 345
#     4  10  18  35  58  83 115 149 189 242 293 347
#     4   9  19  33  55  87 114 151 197 237 285 351
#     4  10  21  38  59  84 112 151 196 244 288 343
#
# _framework density 25.875755000000002
#
# number of rings (size 3 to 8) (size 9 to 14) (size 15 to 20)
#    0.000    2.250    1.250    1.875    1.750    4.500 
#    0.000    6.250    0.000    6.750    0.000    0.000 
#    0.000    0.000    0.000    0.000    0.000    0.000 
#
# Total GULP energy -357155.301088 kJ/mol
# GULP energy per Si atom -5580.551580 kJ/mol
# Density = 2.581686 g / cm^3
# Si number density = 25.875755 Si / 1000 Ang^3
#
#
#
# Elastic Constant Matrix: (Units=GPa)
#
#
# Indices 1 2 3 4 5 6 
#
# 1 165.7594 15.3660 7.1657 0.0000 0.0000 0.0000
# 2 15.3660 74.5707 18.0296 0.0000 0.0000 0.0000
# 3 7.1657 18.0296 53.0598 0.0000 0.0000 0.0000
# 4 0.0000 0.0000 0.0000 30.6596 0.0000 0.0000
# 5 0.0000 0.0000 0.0000 0.0000 22.7109 0.0000
# 6 0.0000 0.0000 0.0000 0.0000 0.0000 25.4773
#
#
#
# Elastic Compliance Matrix: (Units=1/GPa)
#
#
# Indices 1 2 3 4 5 6 
#
# 1 0.006160 -0.001164 -0.000436 0.000000 0.000000 0.000000
# 2 -0.001164 0.014830 -0.004882 0.000000 0.000000 0.000000
# 3 -0.000436 -0.004882 0.020565 0.000000 0.000000 0.000000
# 4 0.000000 0.000000 0.000000 0.032616 0.000000 0.000000
# 5 0.000000 0.000000 0.000000 0.000000 0.044032 0.000000
# 6 0.000000 0.000000 0.000000 0.000000 0.000000 0.039251
#
#
# Mechanical properties :
#
#
# Convention : Reuss Voigt Hill
#
# Bulk Modulus (GPa) = 34.97744 41.61250 38.29497
# Shear Modulus (GPa) = 27.78586 32.62478 30.20532
#
# Velocity S-wave (km/s) = 3.28047 3.55466 3.42032
# Velocity P-wave (km/s) = 5.28162 5.74143 5.51632
#
# Compressibility (1/GPa) = 0.02858986
#
# Stress axis : x y z
#
# Youngs Moduli (GPa) = 162.34859 67.42960 48.62739
#
# Poissons Ratio (x) = 0.07847 0.02122
# Poissons Ratio (y) = 0.18893 0.23741
# Poissons Ratio (z) = 0.07085 0.32920
#
# Static dielectric constant tensor:
#      x y z
#    x 2.063020 0.000000 0.000000 
#    y 0.000000 2.051740 0.000000 
#    z 0.000000 0.000000 2.057660 
# 
# From -- ./inp_files/18699.got.cif
#   From: 2010.05.17/outbox.cif.g08.bks.cpg/sg64_10_cif.got.tgz:18699.got - 2010.06.03 16:29:19.
