data_PCOD9477846
_publ_section_title
;
Structure prediction by ZEFSAII (Michael W. Deem and Ramdas Pophale) SiO2 
 PCOD9477846
Probable space group: C M C A
;
_chemical_formula_sum "Si O2"
_cell_formula_units_Z 80
_cell_length_a 15.857990
_cell_length_b 9.310907
_cell_length_c 25.831659
_cell_angle_alpha 90.000000
_cell_angle_beta 90.000000
_cell_angle_gamma 90.000000
_cell_volume 3814.103092
_symmetry_space_group_name_H-M "C M C A"
_symmetry_group_IT_number 64
_symmetry_cell_setting 'orthorhombic'
loop_
_space_group_symop_operation_xyz
x,y,z
-x,1/2-y,1/2+z
x,-y,-z
-x,1/2+y,1/2-z
-x,-y,-z
x,1/2+y,1/2-z
-x,y,z
x,1/2-y,1/2+z
1/2+x,1/2+y,z
1/2-x,-y,1/2+z
1/2+x,1/2-y,-z
1/2-x,y,1/2-z
1/2-x,1/2-y,-z
1/2+x,y,1/2-z
1/2-x,1/2+y,z
1/2+x,-y,1/2+z
loop_
_atom_site_type_symbol
_atom_site_label
_atom_site_fract_x
_atom_site_fract_y
_atom_site_fract_z
Si Si1 0.767421 0.915363 0.305023
Si Si2 0.737905 0.238659 0.091653
Si Si3 0.360925 0.999337 0.444048
Si Si4 0.596590 0.376889 0.659391
Si Si5 0.589088 0.457358 0.171193
O O1 0.750000 0.842439 0.250000
O O2 0.769163 0.813012 0.354871
O O3 0.851317 0.011411 0.305832
O O4 0.681671 0.010709 0.312738
O O5 0.705098 0.367349 0.056302
O O6 0.809248 0.144049 0.066215
O O7 0.657059 0.142634 0.109083
O O8 0.411847 0.973263 0.391190
O O9 0.403334 0.000000 0.500000
O O10 0.500000 0.421063 0.649316
O O11 0.592345 0.214462 0.681810
O O12 0.500000 0.515740 0.192171
#
# Coordination Sequence:
#
# PCOD9477846 Si02
#       5
#    16  16  16  16  16
#     4  10  20  34  59  81 116 151 196 232 289 339
#     4  10  19  37  54  88 118 149 190 244 291 343
#     4  10  19  34  61  85 113 153 195 236 294 352
#     4   9  17  34  57  78 110 153 187 227 282 340
#     4   9  20  37  56  82 118 150 189 239 292 342
#
# _framework density 20.974786000000002
#
# number of rings (size 3 to 8) (size 9 to 14) (size 15 to 20)
#    0.000    2.800    4.000    0.600    0.000    4.400 
#    0.000    1.000    0.000    0.600    0.000    0.000 
#    0.000    0.000    0.000    0.000    0.000    0.000 
#
# Total GULP energy -222676.567010 kJ/mol
# GULP energy per Si atom -5566.914175 kJ/mol
# Density = 2.092705 g / cm^3
# Si number density = 20.974786 Si / 1000 Ang^3
#
#
#
# Elastic Constant Matrix: (Units=GPa)
#
#
# Indices 1 2 3 4 5 6 
#
# 1 84.2597 44.8682 13.6578 0.0000 0.0000 0.0000
# 2 44.8682 52.0049 15.8503 0.0000 0.0000 0.0000
# 3 13.6578 15.8503 104.9690 0.0000 0.0000 0.0000
# 4 0.0000 0.0000 0.0000 7.9251 0.0000 0.0000
# 5 0.0000 0.0000 0.0000 0.0000 3.2394 0.0000
# 6 0.0000 0.0000 0.0000 0.0000 0.0000 4.5594
#
#
#
# Elastic Compliance Matrix: (Units=1/GPa)
#
#
# Indices 1 2 3 4 5 6 
#
# 1 0.021954 -0.018943 0.000004 0.000000 0.000000 0.000000
# 2 -0.018943 0.036501 -0.003047 0.000000 0.000000 0.000000
# 3 0.000004 -0.003047 0.009986 0.000000 0.000000 0.000000
# 4 0.000000 0.000000 0.000000 0.126182 0.000000 0.000000
# 5 0.000000 0.000000 0.000000 0.000000 0.308696 0.000000
# 6 0.000000 0.000000 0.000000 0.000000 0.000000 0.219329
#
#
# Mechanical properties :
#
#
# Convention : Reuss Voigt Hill
#
# Bulk Modulus (GPa) = 40.86683 43.33180 42.09932
# Shear Modulus (GPa) = 6.45347 14.26859 10.36103
#
# Velocity S-wave (km/s) = 1.75598 2.61103 2.22497
# Velocity P-wave (km/s) = 4.86183 5.45837 5.16871
#
# Compressibility (1/GPa) = 0.02446972
#
# Stress axis : x y z
#
# Youngs Moduli (GPa) = 45.54879 27.39658 100.13805
#
# Poissons Ratio (x) = 0.51897 -0.00038
# Poissons Ratio (y) = 0.86282 0.30511
# Poissons Ratio (z) = -0.00017 0.08348
#
# Static dielectric constant tensor:
#      x y z
#    x 1.815710 0.000000 0.000000 
#    y 0.000000 1.781440 0.000000 
#    z 0.000000 0.000000 1.814130 
# 
# From -- ./inp_files/49895.got.cif
#   From: 2010.05.17/outbox.cif.g08.bks.cpg/sg64_25_cif.got.tgz:49895.got - 2010.06.03 16:29:19.
