data_PCOD9477868
_publ_section_title
;
Structure prediction by ZEFSAII (Michael W. Deem and Ramdas Pophale) SiO2 
 PCOD9477868
Probable space group: C M C A
;
_chemical_formula_sum "Si O2"
_cell_formula_units_Z 96
_cell_length_a 25.698945
_cell_length_b 27.430265
_cell_length_c 8.771165
_cell_angle_alpha 90.000000
_cell_angle_beta 90.000000
_cell_angle_gamma 90.000000
_cell_volume 6183.047446
_symmetry_space_group_name_H-M "C M C A"
_symmetry_group_IT_number 64
_symmetry_cell_setting 'orthorhombic'
loop_
_space_group_symop_operation_xyz
x,y,z
-x,1/2-y,1/2+z
x,-y,-z
-x,1/2+y,1/2-z
-x,-y,-z
x,1/2+y,1/2-z
-x,y,z
x,1/2-y,1/2+z
1/2+x,1/2+y,z
1/2-x,-y,1/2+z
1/2+x,1/2-y,-z
1/2-x,y,1/2-z
1/2-x,1/2-y,-z
1/2+x,y,1/2-z
1/2-x,1/2+y,z
1/2+x,-y,1/2+z
loop_
_atom_site_type_symbol
_atom_site_label
_atom_site_fract_x
_atom_site_fract_y
_atom_site_fract_z
Si Si1 0.500000 0.303915 0.318510
Si Si2 0.000000 0.803915 0.681492
Si Si3 0.307259 0.697243 0.682499
Si Si4 0.599119 0.143891 0.326068
Si Si5 0.099118 0.643890 0.673933
Si Si6 0.437373 0.057115 0.499999
Si Si7 0.692741 0.197244 0.182498
O O1 0.500000 0.301709 0.500001
O O2 0.500000 0.250000 0.250001
O O3 0.449154 0.331748 0.258485
O O4 0.050846 0.831748 0.741517
O O5 0.250000 0.687497 0.750000
O O6 0.348549 0.657481 0.738895
O O7 0.305079 0.699944 0.500000
O O8 0.323721 0.749999 0.750001
O O9 0.602360 0.164169 0.500001
O O10 0.586520 0.086971 0.357073
O O11 0.651451 0.157482 0.238897
O O12 0.086519 0.586971 0.642927
O O13 0.500000 0.064194 0.499997
O O14 0.426313 0.000000 0.500000
O O15 0.750000 0.187498 0.250000
#
# Coordination Sequence:
#
# PCOD9477868 Si02
#       7
#     8   8  16  16  16  16  16
#     4  12  22  32  48  75 115 149 175 210 260 323
#     4  12  22  32  48  75 115 149 175 210 260 323
#     4  11  21  34  52  79 113 151 187 218 261 321
#     4  10  19  35  53  79 105 137 182 219 274 315
#     4  10  19  35  53  79 105 137 182 219 274 315
#     4   9  18  36  64  83 102 136 186 228 273 327
#     4  11  21  34  52  79 113 151 187 218 261 321
#
# _framework density 15.526325
#
# number of rings (size 3 to 8) (size 9 to 14) (size 15 to 20)
#    1.000    0.500    1.667    7.500    0.000    0.000 
#    0.000    0.000    0.000    6.000    0.000    0.000 
#    0.000    0.000    0.000    0.000    0.000    0.000 
#
# Total GULP energy -267550.139727 kJ/mol
# GULP energy per Si atom -5573.961244 kJ/mol
# Density = 1.549099 g / cm^3
# Si number density = 15.526325 Si / 1000 Ang^3
#
#
#
# Elastic Constant Matrix: (Units=GPa)
#
#
# Indices 1 2 3 4 5 6 
#
# 1 83.2421 62.8377 41.5869 0.0000 0.0000 0.0000
# 2 62.8377 131.9275 45.6826 0.0000 0.0000 0.0000
# 3 41.5869 45.6826 149.9069 0.0000 0.0000 0.0000
# 4 0.0000 0.0000 0.0000 18.4375 0.0000 0.0000
# 5 0.0000 0.0000 0.0000 0.0000 31.6080 0.0000
# 6 0.0000 0.0000 0.0000 0.0000 0.0000 13.4618
#
#
#
# Elastic Compliance Matrix: (Units=1/GPa)
#
#
# Indices 1 2 3 4 5 6 
#
# 1 0.019849 -0.008438 -0.002935 0.000000 0.000000 0.000000
# 2 -0.008438 0.012061 -0.001335 0.000000 0.000000 0.000000
# 3 -0.002935 -0.001335 0.007892 0.000000 0.000000 0.000000
# 4 0.000000 0.000000 0.000000 0.054237 0.000000 0.000000
# 5 0.000000 0.000000 0.000000 0.000000 0.031638 0.000000
# 6 0.000000 0.000000 0.000000 0.000000 0.000000 0.074284
#
#
# Mechanical properties :
#
#
# Convention : Reuss Voigt Hill
#
# Bulk Modulus (GPa) = 69.50913 73.92120 71.71517
# Shear Modulus (GPa) = 21.72289 27.03276 24.37782
#
# Velocity S-wave (km/s) = 3.74451 4.17717 3.96674
# Velocity P-wave (km/s) = 7.97251 8.42488 8.20181
#
# Compressibility (1/GPa) = 0.01438660
#
# Stress axis : x y z
#
# Youngs Moduli (GPa) = 50.38020 82.91136 126.71386
#
# Poissons Ratio (x) = 0.69959 0.37192
# Poissons Ratio (y) = 0.42510 0.16912
# Poissons Ratio (z) = 0.14787 0.11066
#
# Static dielectric constant tensor:
#      x y z
#    x 1.512720 0.000000 0.000000 
#    y 0.000000 1.504530 0.000000 
#    z 0.000000 0.000000 1.515290 
# 
# From -- ./inp_files/9632.got.cif
#   From: 2010.05.17/outbox.cif.g08.bks.cpg/sg64_5_cif.got.tgz:9632.got - 2010.06.03 16:29:19.
