data_PCOD9477988
_publ_section_title
;
Structure prediction by ZEFSAII (Michael W. Deem and Ramdas Pophale) SiO2 
 PCOD9477988
Probable space group: C M C A
;
_chemical_formula_sum "Si O2"
_cell_formula_units_Z 96
_cell_length_a 16.265838
_cell_length_b 10.606432
_cell_length_c 28.790273
_cell_angle_alpha 90.000000
_cell_angle_beta 90.000000
_cell_angle_gamma 90.000000
_cell_volume 4966.970008
_symmetry_space_group_name_H-M "C M C A"
_symmetry_group_IT_number 64
_symmetry_cell_setting 'orthorhombic'
loop_
_space_group_symop_operation_xyz
x,y,z
-x,1/2-y,1/2+z
x,-y,-z
-x,1/2+y,1/2-z
-x,-y,-z
x,1/2+y,1/2-z
-x,y,z
x,1/2-y,1/2+z
1/2+x,1/2+y,z
1/2-x,-y,1/2+z
1/2+x,1/2-y,-z
1/2-x,y,1/2-z
1/2-x,1/2-y,-z
1/2+x,y,1/2-z
1/2-x,1/2+y,z
1/2+x,-y,1/2+z
loop_
_atom_site_type_symbol
_atom_site_label
_atom_site_fract_x
_atom_site_fract_y
_atom_site_fract_z
Si Si1 0.341433 0.876600 0.027985
Si Si2 0.856885 0.627682 0.524390
Si Si3 0.403543 0.223569 0.622678
Si Si4 0.165091 0.704824 0.722641
Si Si5 0.097238 0.517384 0.880097
Si Si6 0.904019 0.480316 0.777088
O O1 0.242631 0.873357 0.024349
O O2 0.361834 0.895430 0.081796
O O3 0.379149 0.751707 0.005231
O O4 0.371081 0.000000 0.000000
O O5 0.885938 0.500000 0.500000
O O6 0.886522 0.641303 0.577245
O O7 0.500000 0.212285 0.636775
O O8 0.344422 0.198236 0.666656
O O9 0.390013 0.369649 0.608217
O O10 0.250000 0.682715 0.750000
O O11 0.137934 0.847667 0.735021
O O12 0.107866 0.592660 0.741303
O O13 0.127441 0.529052 0.827223
O O14 0.000000 0.542503 0.881046
O O15 0.000000 0.451062 0.783155
#
# Coordination Sequence:
#
# PCOD9477988 Si02
#       6
#    16  16  16  16  16  16
#     4  10  19  36  57  83 115 154 201 247 288 351
#     4  10  22  37  56  87 123 159 193 248 311 358
#     4  10  21  40  63  86 122 165 197 239 312 378
#     4  11  23  40  63  94 120 158 207 258 305 366
#     4   9  19  35  61  86 109 155 208 246 285 356
#     4  10  21  41  62  87 126 162 200 253 313 369
#
# _framework density 19.327679
#
# number of rings (size 3 to 8) (size 9 to 14) (size 15 to 20)
#    0.000    2.000    1.667    3.000    2.333    1.333 
#    3.000    0.000    0.000    0.000    0.000    0.000 
#    0.000    0.000    0.000    0.000    0.000    0.000 
#
# Total GULP energy -267746.828918 kJ/mol
# GULP energy per Si atom -5578.058936 kJ/mol
# Density = 1.928369 g / cm^3
# Si number density = 19.327679 Si / 1000 Ang^3
#
#
#
# Elastic Constant Matrix: (Units=GPa)
#
#
# Indices 1 2 3 4 5 6 
#
# 1 36.3536 12.4538 18.7462 0.0000 0.0000 0.0000
# 2 12.4538 106.5573 62.3147 0.0000 0.0000 0.0000
# 3 18.7462 62.3147 109.8193 0.0000 0.0000 0.0000
# 4 0.0000 0.0000 0.0000 43.3808 0.0000 0.0000
# 5 0.0000 0.0000 0.0000 0.0000 20.5390 0.0000
# 6 0.0000 0.0000 0.0000 0.0000 0.0000 13.9920
#
#
#
# Elastic Compliance Matrix: (Units=1/GPa)
#
#
# Indices 1 2 3 4 5 6 
#
# 1 0.030205 -0.000771 -0.004719 0.000000 0.000000 0.000000
# 2 -0.000771 0.014065 -0.007849 0.000000 0.000000 0.000000
# 3 -0.004719 -0.007849 0.014365 0.000000 0.000000 0.000000
# 4 0.000000 0.000000 0.000000 0.023052 0.000000 0.000000
# 5 0.000000 0.000000 0.000000 0.000000 0.048688 0.000000
# 6 0.000000 0.000000 0.000000 0.000000 0.000000 0.071470
#
#
# Mechanical properties :
#
#
# Convention : Reuss Voigt Hill
#
# Bulk Modulus (GPa) = 31.29130 48.86218 40.07674
# Shear Modulus (GPa) = 20.90526 26.19673 23.55099
#
# Velocity S-wave (km/s) = 3.29237 3.68557 3.49450
# Velocity P-wave (km/s) = 5.53877 6.59144 6.08790
#
# Compressibility (1/GPa) = 0.03195777
#
# Stress axis : x y z
#
# Youngs Moduli (GPa) = 33.10721 71.09863 69.61230
#
# Poissons Ratio (x) = 0.05479 0.32848
# Poissons Ratio (y) = 0.02552 0.54641
# Poissons Ratio (z) = 0.15622 0.55808
#
# Static dielectric constant tensor:
#      x y z
#    x 1.684880 0.000000 0.000000 
#    y 0.000000 1.653850 0.000000 
#    z 0.000000 0.000000 1.684030 
# 
# From -- ./inp_files/45755.got.cif
#   From: 2010.05.17/outbox.cif.g08.bks.cpg/sg64_23_cif.got.tgz:45755.got - 2010.06.03 16:29:19.
