data_PCOD9477372
_publ_section_title
;
Structure prediction by ZEFSAII (Michael W. Deem and Ramdas Pophale) SiO2 
 PCOD9477372
Probable space group: C M C A
;
_chemical_formula_sum "Si O2"
_cell_formula_units_Z 120
_cell_length_a 16.754231
_cell_length_b 19.691581
_cell_length_c 18.653937
_cell_angle_alpha 90.000000
_cell_angle_beta 90.000000
_cell_angle_gamma 90.000000
_cell_volume 6154.256470
_symmetry_space_group_name_H-M "C M C A"
_symmetry_group_IT_number 64
_symmetry_cell_setting 'orthorhombic'
loop_
_space_group_symop_operation_xyz
x,y,z
-x,1/2-y,1/2+z
x,-y,-z
-x,1/2+y,1/2-z
-x,-y,-z
x,1/2+y,1/2-z
-x,y,z
x,1/2-y,1/2+z
1/2+x,1/2+y,z
1/2-x,-y,1/2+z
1/2+x,1/2-y,-z
1/2-x,y,1/2-z
1/2-x,1/2-y,-z
1/2+x,y,1/2-z
1/2-x,1/2+y,z
1/2+x,-y,1/2+z
loop_
_atom_site_type_symbol
_atom_site_label
_atom_site_fract_x
_atom_site_fract_y
_atom_site_fract_z
Si Si1 0.905158 0.669438 0.654843
Si Si2 0.750000 0.033035 0.250000
Si Si3 0.193695 0.145173 0.350067
Si Si4 0.093118 0.979189 0.186707
Si Si5 0.846038 0.292806 0.584241
Si Si6 0.408080 0.563959 0.045115
Si Si7 0.404341 0.288826 0.542465
Si Si8 0.908922 0.722638 0.262779
O O1 0.880453 0.591810 0.649619
O O2 0.885069 0.725223 0.595440
O O3 0.885189 0.703541 0.731581
O O4 0.000000 0.665319 0.650834
O O5 0.762815 0.078121 0.321975
O O6 0.834671 0.995111 0.240574
O O7 0.260432 0.196782 0.379538
O O8 0.129503 0.146239 0.414491
O O9 0.148634 0.171546 0.279037
O O10 0.000000 0.973095 0.213557
O O11 0.090271 0.037692 0.126774
O O12 0.865657 0.363510 0.543657
O O13 0.859700 0.230554 0.530685
O O14 0.903079 0.284299 0.652727
O O15 0.500000 0.574575 0.020253
O O16 0.375361 0.500000 0.000000
O O17 0.500000 0.291932 0.532143
O O18 0.000000 0.709352 0.239592
#
# Coordination Sequence:
#
# PCOD9477372 Si02
#       8
#    16   8  16  16  16  16  16  16
#     4   8  17  35  55  80 111 142 182 231 286 340
#     4  12  22  38  56  82 112 150 202 234 270 350
#     4  11  21  37  51  76 119 147 180 232 283 334
#     4  10  20  36  56  80 111 145 184 236 283 334
#     4  12  20  34  54  85 117 143 183 238 284 341
#     4  10  19  31  54  81 108 141 176 224 289 341
#     4  10  21  36  58  82 111 150 187 231 292 348
#     4  10  19  34  59  84 112 150 189 232 286 344
#
# _framework density 19.498699999999999
#
# number of rings (size 3 to 8) (size 9 to 14) (size 15 to 20)
#    0.000    1.733    2.667    3.600    0.000    4.267 
#    4.800    0.000    0.000    0.000    0.000    0.000 
#    0.000    6.933    0.000    0.000    0.000    0.000 
#
# Total GULP energy -334234.532777 kJ/mol
# GULP energy per Si atom -5570.575546 kJ/mol
# Density = 1.945432 g / cm^3
# Si number density = 19.498700 Si / 1000 Ang^3
#
#
#
# Elastic Constant Matrix: (Units=GPa)
#
#
# Indices 1 2 3 4 5 6 
#
# 1 85.3194 6.9766 17.3967 0.0000 0.0000 0.0000
# 2 6.9766 29.2565 -1.1983 0.0000 0.0000 0.0000
# 3 17.3967 -1.1983 68.6107 0.0000 0.0000 0.0000
# 4 0.0000 0.0000 0.0000 26.7441 0.0000 0.0000
# 5 0.0000 0.0000 0.0000 0.0000 19.5872 0.0000
# 6 0.0000 0.0000 0.0000 0.0000 0.0000 -20.8725
#
#
#
# Elastic Compliance Matrix: (Units=1/GPa)
#
#
# Indices 1 2 3 4 5 6 
#
# 1 0.012643 -0.003148 -0.003261 0.000000 0.000000 0.000000
# 2 -0.003148 0.034989 0.001409 0.000000 0.000000 0.000000
# 3 -0.003261 0.001409 0.015426 0.000000 0.000000 0.000000
# 4 0.000000 0.000000 0.000000 0.037391 0.000000 0.000000
# 5 0.000000 0.000000 0.000000 0.000000 0.051054 0.000000
# 6 0.000000 0.000000 0.000000 0.000000 0.000000 -0.047910
#
#
# Mechanical properties :
#
#
# Convention : Reuss Voigt Hill
#
# Bulk Modulus (GPa) = 18.84701 25.50408 22.17554
# Shear Modulus (GPa) = 38.08670 15.75919 26.92294
#
# Velocity S-wave (km/s) = 4.42440 2.84600 3.71988
# Velocity P-wave (km/s) = 5.98224 4.88957 5.46329
#
# Compressibility (1/GPa) = 0.05305881
#
# Stress axis : x y z
#
# Youngs Moduli (GPa) = 79.09532 28.58043 64.82410
#
# Poissons Ratio (x) = 0.08998 0.21137
# Poissons Ratio (y) = 0.24903 -0.09136
# Poissons Ratio (z) = 0.25791 -0.04028
#
# Static dielectric constant tensor:
#      x y z
#    x 1.734110 0.000000 0.000000 
#    y 0.000000 1.720500 0.000000 
#    z 0.000000 0.000000 1.725300 
# 
# From -- ./inp_files/33654.got.cif
#   From: 2010.05.17/outbox.cif.g08.bks.cpg/sg64_17_cif.got.tgz:33654.got - 2010.06.03 16:29:19.
