data_PCOD9477752
_publ_section_title
;
Structure prediction by ZEFSAII (Michael W. Deem and Ramdas Pophale) SiO2 
 PCOD9477752
Probable space group: C M C A
;
_chemical_formula_sum "Si O2"
_cell_formula_units_Z 64
_cell_length_a 5.606812
_cell_length_b 22.760442
_cell_length_c 21.382026
_cell_angle_alpha 90.000000
_cell_angle_beta 90.000000
_cell_angle_gamma 90.000000
_cell_volume 2728.635588
_symmetry_space_group_name_H-M "C M C A"
_symmetry_group_IT_number 64
_symmetry_cell_setting 'orthorhombic'
loop_
_space_group_symop_operation_xyz
x,y,z
-x,1/2-y,1/2+z
x,-y,-z
-x,1/2+y,1/2-z
-x,-y,-z
x,1/2+y,1/2-z
-x,y,z
x,1/2-y,1/2+z
1/2+x,1/2+y,z
1/2-x,-y,1/2+z
1/2+x,1/2-y,-z
1/2-x,y,1/2-z
1/2-x,1/2-y,-z
1/2+x,y,1/2-z
1/2-x,1/2+y,z
1/2+x,-y,1/2+z
loop_
_atom_site_type_symbol
_atom_site_label
_atom_site_fract_x
_atom_site_fract_y
_atom_site_fract_z
Si Si1 0.500000 0.274116 0.544372
Si Si2 0.000000 0.147079 0.236035
Si Si3 0.000000 0.539049 0.435690
Si Si4 0.500000 0.720286 0.782584
Si Si5 0.000000 0.825637 0.910962
Si Si6 0.500000 0.849848 0.412803
Si Si7 0.000000 0.628183 0.958026
Si Si8 0.000000 0.537912 0.063500
O O1 0.255716 0.294345 0.577675
O O2 0.500000 0.203877 0.537853
O O3 0.500000 0.303689 0.476048
O O4 0.250000 0.115957 0.250000
O O5 0.000000 0.208094 0.277039
O O6 0.000000 0.162674 0.163351
O O7 0.000000 0.500000 0.500000
O O8 0.000000 0.609841 0.444751
O O9 0.251762 0.527470 0.402826
O O10 0.750000 0.703014 0.750000
O O11 0.500000 0.687338 0.848808
O O12 0.249666 0.884088 0.422824
O O13 0.000000 0.599967 0.027398
O O14 0.000000 0.500000 0.000000
#
# Coordination Sequence:
#
# PCOD9477752 Si02
#       8
#     8   8   8   8   8   8   8   8
#     4  12  22  35  52  78 118 164 191 220 265 350
#     4  10  20  33  51  76 105 144 198 245 284 324
#     4  10  19  34  55  83 112 148 186 237 292 356
#     4  10  19  36  52  71 101 146 196 248 274 316
#     4  12  20  35  58  81 112 159 199 236 292 348
#     4  12  24  35  53  78 115 161 196 225 283 335
#     4  12  22  37  52  81 118 153 191 229 274 352
#     4  10  20  37  58  78 112 149 180 236 280 331
#
# _framework density 23.454948000000002
#
# number of rings (size 3 to 8) (size 9 to 14) (size 15 to 20)
#    0.000    1.000    2.500    7.500    0.000    0.000 
#    0.000    0.000    0.000    0.000    0.000    0.000 
#    0.000   80.000    0.000    0.000    0.000    0.000 
#
# Total GULP energy -178490.220753 kJ/mol
# GULP energy per Si atom -5577.819399 kJ/mol
# Density = 2.340156 g / cm^3
# Si number density = 23.454948 Si / 1000 Ang^3
#
#
#
# Elastic Constant Matrix: (Units=GPa)
#
#
# Indices 1 2 3 4 5 6 
#
# 1 305.6193 15.4338 27.6866 0.0000 0.0000 0.0000
# 2 15.4338 75.6023 5.4620 0.0000 0.0000 0.0000
# 3 27.6866 5.4620 45.4577 0.0000 0.0000 0.0000
# 4 0.0000 0.0000 0.0000 11.2090 0.0000 0.0000
# 5 0.0000 0.0000 0.0000 0.0000 33.0265 0.0000
# 6 0.0000 0.0000 0.0000 0.0000 0.0000 12.0011
#
#
#
# Elastic Compliance Matrix: (Units=1/GPa)
#
#
# Indices 1 2 3 4 5 6 
#
# 1 0.003487 -0.000563 -0.002056 0.000000 0.000000 0.000000
# 2 -0.000563 0.013434 -0.001271 0.000000 0.000000 0.000000
# 3 -0.002056 -0.001271 0.023403 0.000000 0.000000 0.000000
# 4 0.000000 0.000000 0.000000 0.089214 0.000000 0.000000
# 5 0.000000 0.000000 0.000000 0.000000 0.030279 0.000000
# 6 0.000000 0.000000 0.000000 0.000000 0.000000 0.083325
#
#
# Mechanical properties :
#
#
# Convention : Reuss Voigt Hill
#
# Bulk Modulus (GPa) = 30.72816 58.20490 44.46653
# Shear Modulus (GPa) = 19.10067 36.45378 27.77723
#
# Velocity S-wave (km/s) = 2.85679 3.94662 3.44507
# Velocity P-wave (km/s) = 4.90010 6.75553 5.90120
#
# Compressibility (1/GPa) = 0.03254343
#
# Stress axis : x y z
#
# Youngs Moduli (GPa) = 286.80061 74.43835 42.72876
#
# Poissons Ratio (x) = 0.04193 0.08785
# Poissons Ratio (y) = 0.16154 0.05431
# Poissons Ratio (z) = 0.58965 0.09462
#
# Static dielectric constant tensor:
#      x y z
#    x 2.019170 0.000000 0.000000 
#    y 0.000000 1.432070 0.000000 
#    z 0.000000 0.000000 1.902920 
# 
# From -- ./inp_files/35965.got.cif
#   From: 2010.05.17/outbox.cif.g08.bks.cpg/sg64_18_cif.got.tgz:35965.got - 2010.06.03 16:29:19.
