data_PCOD9477581
_publ_section_title
;
Structure prediction by ZEFSAII (Michael W. Deem and Ramdas Pophale) SiO2 
 PCOD9477581
Probable space group: C M C A
;
_chemical_formula_sum "Si O2"
_cell_formula_units_Z 96
_cell_length_a 19.791256
_cell_length_b 8.600305
_cell_length_c 29.864075
_cell_angle_alpha 90.000000
_cell_angle_beta 90.000000
_cell_angle_gamma 90.000000
_cell_volume 5083.189230
_symmetry_space_group_name_H-M "C M C A"
_symmetry_group_IT_number 64
_symmetry_cell_setting 'orthorhombic'
loop_
_space_group_symop_operation_xyz
x,y,z
-x,1/2-y,1/2+z
x,-y,-z
-x,1/2+y,1/2-z
-x,-y,-z
x,1/2+y,1/2-z
-x,y,z
x,1/2-y,1/2+z
1/2+x,1/2+y,z
1/2-x,-y,1/2+z
1/2+x,1/2-y,-z
1/2-x,y,1/2-z
1/2-x,1/2-y,-z
1/2+x,y,1/2-z
1/2-x,1/2+y,z
1/2+x,-y,1/2+z
loop_
_atom_site_type_symbol
_atom_site_label
_atom_site_fract_x
_atom_site_fract_y
_atom_site_fract_z
Si Si1 0.919621 0.700564 0.900560
Si Si2 0.921950 0.985200 0.314136
Si Si3 0.839523 0.450759 0.648635
Si Si4 0.220105 0.748523 0.109913
Si Si5 0.817628 0.533048 0.949079
Si Si6 0.919954 0.840479 0.766481
O O1 0.894333 0.585070 0.860167
O O2 0.887812 0.626637 0.944635
O O3 0.000000 0.706352 0.900148
O O4 0.889447 0.867589 0.887252
O O5 0.895077 0.124635 0.283806
O O6 0.918504 0.839334 0.280178
O O7 0.000000 0.022550 0.324256
O O8 0.824674 0.628699 0.636965
O O9 0.770184 0.351743 0.641812
O O10 0.874484 0.425867 0.696504
O O11 0.181154 0.627255 0.078534
O O12 0.264952 0.854838 0.076454
O O13 0.798883 0.500000 0.000000
O O14 0.000000 0.886666 0.769974
#
# Coordination Sequence:
#
# PCOD9477581 Si02
#       6
#    16  16  16  16  16  16
#     4   9  18  33  51  72 101 130 155 197 255 295
#     4   8  15  27  44  68  94 122 155 189 228 279
#     4   9  17  32  52  70  97 129 163 201 236 284
#     4   9  19  33  51  74  95 126 168 202 239 284
#     4  10  19  33  54  74  96 125 161 205 245 294
#     4   9  16  28  49  73  95 123 160 198 237 281
#
# _framework density 18.885781999999999
#
# number of rings (size 3 to 8) (size 9 to 14) (size 15 to 20)
#    0.000    3.000    0.000    2.000    0.000    1.667 
#    0.000    3.333    0.000   35.000    0.000    0.000 
#    0.000    0.000    0.000    0.000    0.000    0.000 
#
# Total GULP energy -267287.619214 kJ/mol
# GULP energy per Si atom -5568.492067 kJ/mol
# Density = 1.884280 g / cm^3
# Si number density = 18.885782 Si / 1000 Ang^3
#
#
#
# Elastic Constant Matrix: (Units=GPa)
#
#
# Indices 1 2 3 4 5 6 
#
# 1 53.3844 21.4728 12.5313 0.0000 0.0000 0.0000
# 2 21.4728 70.4052 23.7788 0.0000 0.0000 0.0000
# 3 12.5313 23.7788 31.1718 0.0000 0.0000 0.0000
# 4 0.0000 0.0000 0.0000 21.8644 0.0000 0.0000
# 5 0.0000 0.0000 0.0000 0.0000 14.3798 0.0000
# 6 0.0000 0.0000 0.0000 0.0000 0.0000 14.9449
#
#
#
# Elastic Compliance Matrix: (Units=1/GPa)
#
#
# Indices 1 2 3 4 5 6 
#
# 1 0.021915 -0.004995 -0.004999 0.000000 0.000000 0.000000
# 2 -0.004995 0.020272 -0.013456 0.000000 0.000000 0.000000
# 3 -0.004999 -0.013456 0.044354 0.000000 0.000000 0.000000
# 4 0.000000 0.000000 0.000000 0.045736 0.000000 0.000000
# 5 0.000000 0.000000 0.000000 0.000000 0.069542 0.000000
# 6 0.000000 0.000000 0.000000 0.000000 0.000000 0.066913
#
#
# Mechanical properties :
#
#
# Convention : Reuss Voigt Hill
#
# Bulk Modulus (GPa) = 25.22691 30.05858 27.64275
# Shear Modulus (GPa) = 15.20471 16.71639 15.96055
#
# Velocity S-wave (km/s) = 2.84048 2.97834 2.91023
# Velocity P-wave (km/s) = 4.91370 5.27047 5.09521
#
# Compressibility (1/GPa) = 0.03964021
#
# Stress axis : x y z
#
# Youngs Moduli (GPa) = 45.63110 49.33030 22.54570
#
# Poissons Ratio (x) = 0.24642 0.11272
# Poissons Ratio (y) = 0.22794 0.30337
# Poissons Ratio (z) = 0.22813 0.66377
#
# Static dielectric constant tensor:
#      x y z
#    x 1.681880 0.000000 0.000000 
#    y 0.000000 1.674870 0.000000 
#    z 0.000000 0.000000 1.651470 
# 
# From -- ./inp_files/50648.got.cif
#   From: 2010.05.17/outbox.cif.g08.bks.cpg/sg64_26_cif.got.tgz:50648.got - 2010.06.03 16:29:19.
