data_PCOD9477058
_publ_section_title
;
Structure prediction by ZEFSAII (Michael W. Deem and Ramdas Pophale) SiO2 
 PCOD9477058
Probable space group: C M C A
;
_chemical_formula_sum "Si O2"
_cell_formula_units_Z 88
_cell_length_a 14.649472
_cell_length_b 23.335172
_cell_length_c 12.287820
_cell_angle_alpha 90.000000
_cell_angle_beta 90.000000
_cell_angle_gamma 90.000000
_cell_volume 4200.566063
_symmetry_space_group_name_H-M "C M C A"
_symmetry_group_IT_number 64
_symmetry_cell_setting 'orthorhombic'
loop_
_space_group_symop_operation_xyz
x,y,z
-x,1/2-y,1/2+z
x,-y,-z
-x,1/2+y,1/2-z
-x,-y,-z
x,1/2+y,1/2-z
-x,y,z
x,1/2-y,1/2+z
1/2+x,1/2+y,z
1/2-x,-y,1/2+z
1/2+x,1/2-y,-z
1/2-x,y,1/2-z
1/2-x,1/2-y,-z
1/2+x,y,1/2-z
1/2-x,1/2+y,z
1/2+x,-y,1/2+z
loop_
_atom_site_type_symbol
_atom_site_label
_atom_site_fract_x
_atom_site_fract_y
_atom_site_fract_z
Si Si1 0.250000 0.191552 0.750000
Si Si2 0.105267 0.893502 0.265600
Si Si3 0.842381 0.757694 0.566967
Si Si4 0.604766 0.514803 0.372097
Si Si5 0.099070 0.638794 0.510408
Si Si6 0.719404 0.872059 0.868860
O O1 0.181316 0.149248 0.685658
O O2 0.182103 0.231272 0.816234
O O3 0.000000 0.880730 0.297849
O O4 0.126297 0.957742 0.303377
O O5 0.110096 0.884529 0.134519
O O6 0.750000 0.750000 0.500000
O O7 0.904972 0.708535 0.516054
O O8 0.852020 0.825547 0.580998
O O9 0.609091 0.500000 0.500000
O O10 0.500000 0.530806 0.346245
O O11 0.671579 0.567290 0.353539
O O12 0.188777 0.623545 0.441603
O O13 0.000000 0.618035 0.469095
O O14 0.750000 0.851107 0.750000
#
# Coordination Sequence:
#
# PCOD9477058 Si02
#       6
#     8  16  16  16  16  16
#     4  10  18  34  64  82 114 156 198 248 296 352
#     4   9  20  38  62  88 112 152 210 254 290 353
#     4   9  19  35  56  86 118 156 195 241 295 366
#     4  10  24  41  58  86 122 159 207 258 310 370
#     4   9  20  40  64  89 120 160 211 252 293 368
#     4  11  23  38  61  90 128 160 197 251 321 370
#
# _framework density 20.949558
#
# number of rings (size 3 to 8) (size 9 to 14) (size 15 to 20)
#    0.000    2.364    0.909    0.000    8.909    1.455 
#    0.000    3.636    0.000    3.818    0.000    0.000 
#    0.000    0.000    0.000    0.000    0.000    0.000 
#
# Total GULP energy -245111.125704 kJ/mol
# GULP energy per Si atom -5570.707402 kJ/mol
# Density = 2.090188 g / cm^3
# Si number density = 20.949558 Si / 1000 Ang^3
#
#
#
# Elastic Constant Matrix: (Units=GPa)
#
#
# Indices 1 2 3 4 5 6 
#
# 1 88.5493 51.7642 12.4744 0.0000 0.0000 0.0000
# 2 51.7642 110.9906 20.4281 0.0000 0.0000 0.0000
# 3 12.4744 20.4281 46.3760 0.0000 0.0000 0.0000
# 4 0.0000 0.0000 0.0000 22.5067 0.0000 0.0000
# 5 0.0000 0.0000 0.0000 0.0000 20.1847 0.0000
# 6 0.0000 0.0000 0.0000 0.0000 0.0000 -4.0200
#
#
#
# Elastic Compliance Matrix: (Units=1/GPa)
#
#
# Indices 1 2 3 4 5 6 
#
# 1 0.015575 -0.007066 -0.001077 0.000000 0.000000 0.000000
# 2 -0.007066 0.013010 -0.003830 0.000000 0.000000 0.000000
# 3 -0.001077 -0.003830 0.023540 0.000000 0.000000 0.000000
# 4 0.000000 0.000000 0.000000 0.044431 0.000000 0.000000
# 5 0.000000 0.000000 0.000000 0.000000 0.049542 0.000000
# 6 0.000000 0.000000 0.000000 0.000000 0.000000 -0.248758
#
#
# Mechanical properties :
#
#
# Convention : Reuss Voigt Hill
#
# Bulk Modulus (GPa) = 35.48744 46.13879 40.81312
# Shear Modulus (GPa) = -72.12997 18.48423 -26.82287
#
# Velocity S-wave (km/s) = -5.87410 2.97361 -3.58209
# Velocity P-wave (km/s) = 5.38800 5.81905 1.55417
#
# Compressibility (1/GPa) = 0.02817898
#
# Stress axis : x y z
#
# Youngs Moduli (GPa) = 64.20350 76.86309 42.48132
#
# Poissons Ratio (x) = 0.54311 0.04576
# Poissons Ratio (y) = 0.45366 0.16271
# Poissons Ratio (z) = 0.06915 0.29440
#
# Static dielectric constant tensor:
#      x y z
#    x 1.793780 0.000000 0.000000 
#    y 0.000000 1.686550 0.000000 
#    z 0.000000 0.000000 1.773970 
# 
# From -- ./inp_files/23754.got.cif
#   From: 2010.05.17/outbox.cif.g08.bks.cpg/sg64_12_cif.got.tgz:23754.got - 2010.06.03 16:29:19.
