data_PCOD9477767
_publ_section_title
;
Structure prediction by ZEFSAII (Michael W. Deem and Ramdas Pophale) SiO2 
 PCOD9477767
Probable space group: C M C A
;
_chemical_formula_sum "Si O2"
_cell_formula_units_Z 112
_cell_length_a 12.008387
_cell_length_b 27.726049
_cell_length_c 15.498905
_cell_angle_alpha 90.000000
_cell_angle_beta 90.000000
_cell_angle_gamma 90.000000
_cell_volume 5160.284884
_symmetry_space_group_name_H-M "C M C A"
_symmetry_group_IT_number 64
_symmetry_cell_setting 'orthorhombic'
loop_
_space_group_symop_operation_xyz
x,y,z
-x,1/2-y,1/2+z
x,-y,-z
-x,1/2+y,1/2-z
-x,-y,-z
x,1/2+y,1/2-z
-x,y,z
x,1/2-y,1/2+z
1/2+x,1/2+y,z
1/2-x,-y,1/2+z
1/2+x,1/2-y,-z
1/2-x,y,1/2-z
1/2-x,1/2-y,-z
1/2+x,y,1/2-z
1/2-x,1/2+y,z
1/2+x,-y,1/2+z
loop_
_atom_site_type_symbol
_atom_site_label
_atom_site_fract_x
_atom_site_fract_y
_atom_site_fract_z
Si Si1 0.874094 0.998753 0.211699
Si Si2 0.695667 0.050005 0.541459
Si Si3 0.120973 0.630522 0.936968
Si Si4 0.621348 0.601989 0.128564
Si Si5 0.373813 0.861136 0.253066
Si Si6 0.749477 0.687853 0.071223
Si Si7 0.126862 0.719012 0.598263
O O1 0.750000 0.988716 0.250000
O O2 0.866769 0.055646 0.189101
O O3 0.000000 0.992244 0.252375
O O4 0.873246 0.967079 0.124024
O O5 0.792135 0.086974 0.565945
O O6 0.629373 0.078379 0.467261
O O7 0.739203 0.000000 0.500000
O O8 0.121149 0.657640 0.845320
O O9 0.000000 0.609085 0.950412
O O10 0.150973 0.666408 0.013322
O O11 0.500000 0.623434 0.142041
O O12 0.709239 0.644908 0.132292
O O13 0.500000 0.883646 0.264325
O O14 0.250000 0.885826 0.250000
O O15 0.365412 0.822143 0.328963
O O16 0.788910 0.737022 0.114082
O O17 0.657527 0.698465 0.996661
O O18 0.000000 0.736301 0.598371
#
# Coordination Sequence:
#
# PCOD9477767 Si02
#       7
#    16  16  16  16  16  16  16
#     4  10  21  39  61  86 119 156 197 243 291 348
#     4   9  19  36  58  87 119 151 196 245 293 350
#     4  10  20  34  55  82 118 155 191 238 295 357
#     4   9  18  36  61  86 111 148 197 249 293 341
#     4  10  20  37  54  78 114 151 190 234 292 352
#     4  10  19  34  56  82 109 140 199 245 298 344
#     4  10  20  34  55  80 112 149 189 240 296 356
#
# _framework density 21.704228000000001
#
# number of rings (size 3 to 8) (size 9 to 14) (size 15 to 20)
#    0.000    2.286    1.429    1.286    0.000    3.143 
#    0.000   10.000    0.000    3.429    0.000    0.000 
#    0.000    0.000    0.000    0.000    0.000    0.000 
#
# Total GULP energy -311857.836800 kJ/mol
# GULP energy per Si atom -5568.889943 kJ/mol
# Density = 2.165483 g / cm^3
# Si number density = 21.704228 Si / 1000 Ang^3
#
#
#
# Elastic Constant Matrix: (Units=GPa)
#
#
# Indices 1 2 3 4 5 6 
#
# 1 145.9622 31.5589 31.6025 0.0000 0.0000 0.0000
# 2 31.5589 98.4918 16.3378 0.0000 0.0000 0.0000
# 3 31.6025 16.3378 36.8485 0.0000 0.0000 0.0000
# 4 0.0000 0.0000 0.0000 13.5301 0.0000 0.0000
# 5 0.0000 0.0000 0.0000 0.0000 11.7206 0.0000
# 6 0.0000 0.0000 0.0000 0.0000 0.0000 5.4906
#
#
#
# Elastic Compliance Matrix: (Units=1/GPa)
#
#
# Indices 1 2 3 4 5 6 
#
# 1 0.008659 -0.001665 -0.006688 0.000000 0.000000 0.000000
# 2 -0.001665 0.011279 -0.003573 0.000000 0.000000 0.000000
# 3 -0.006688 -0.003573 0.034458 0.000000 0.000000 0.000000
# 4 0.000000 0.000000 0.000000 0.073909 0.000000 0.000000
# 5 0.000000 0.000000 0.000000 0.000000 0.085320 0.000000
# 6 0.000000 0.000000 0.000000 0.000000 0.000000 0.182128
#
#
# Mechanical properties :
#
#
# Convention : Reuss Voigt Hill
#
# Bulk Modulus (GPa) = 32.73919 48.92232 40.83075
# Shear Modulus (GPa) = 11.63364 19.60181 15.61773
#
# Velocity S-wave (km/s) = 2.31770 3.00848 2.68539
# Velocity P-wave (km/s) = 4.72009 5.88705 5.33557
#
# Compressibility (1/GPa) = 0.03054444
#
# Stress axis : x y z
#
# Youngs Moduli (GPa) = 115.48444 88.65755 29.02063
#
# Poissons Ratio (x) = 0.14763 0.19409
# Poissons Ratio (y) = 0.19230 0.10369
# Poissons Ratio (z) = 0.77237 0.31676
#
# Static dielectric constant tensor:
#      x y z
#    x 1.953880 0.000000 0.000000 
#    y 0.000000 1.776650 0.000000 
#    z 0.000000 0.000000 1.803070 
# 
# From -- ./inp_files/22732.got.cif
#   From: 2010.05.17/outbox.cif.g08.bks.cpg/sg64_12_cif.got.tgz:22732.got - 2010.06.03 16:29:19.
