data_PCOD9477682
_publ_section_title
;
Structure prediction by ZEFSAII (Michael W. Deem and Ramdas Pophale) SiO2 
 PCOD9477682
Probable space group: C M C A
;
_chemical_formula_sum "Si O2"
_cell_formula_units_Z 112
_cell_length_a 28.485011
_cell_length_b 11.175570
_cell_length_c 18.809565
_cell_angle_alpha 90.000000
_cell_angle_beta 90.000000
_cell_angle_gamma 90.000000
_cell_volume 5987.766092
_symmetry_space_group_name_H-M "C M C A"
_symmetry_group_IT_number 64
_symmetry_cell_setting 'orthorhombic'
loop_
_space_group_symop_operation_xyz
x,y,z
-x,1/2-y,1/2+z
x,-y,-z
-x,1/2+y,1/2-z
-x,-y,-z
x,1/2+y,1/2-z
-x,y,z
x,1/2-y,1/2+z
1/2+x,1/2+y,z
1/2-x,-y,1/2+z
1/2+x,1/2-y,-z
1/2-x,y,1/2-z
1/2-x,1/2-y,-z
1/2+x,y,1/2-z
1/2-x,1/2+y,z
1/2+x,-y,1/2+z
loop_
_atom_site_type_symbol
_atom_site_label
_atom_site_fract_x
_atom_site_fract_y
_atom_site_fract_z
Si Si1 0.392279 0.340836 0.386238
Si Si2 0.555115 0.538300 0.320430
Si Si3 0.554681 0.617007 0.164683
Si Si4 0.798348 0.123549 0.546408
Si Si5 0.192942 0.872840 0.042812
Si Si6 0.054107 0.837870 0.531091
Si Si7 0.409990 0.415676 0.069137
O O1 0.415515 0.417734 0.324144
O O2 0.408530 0.205971 0.371851
O O3 0.337891 0.369764 0.393709
O O4 0.414917 0.372310 0.463263
O O5 0.500000 0.508625 0.323105
O O6 0.562348 0.612734 0.249111
O O7 0.567447 0.605014 0.393475
O O8 0.500000 0.650243 0.150185
O O9 0.565280 0.487001 0.132228
O O10 0.807505 0.247550 0.501934
O O11 0.745142 0.127937 0.575736
O O12 0.803252 0.000000 0.500000
O O13 0.143935 0.877454 0.085306
O O14 0.192836 0.000000 0.000000
O O15 0.060688 0.698095 0.544941
O O16 0.000000 0.865615 0.515081
O O17 0.408364 0.500000 0.000000
#
# Coordination Sequence:
#
# PCOD9477682 Si02
#       7
#    16  16  16  16  16  16  16
#     4  12  21  37  60  86 114 149 196 245 298 350
#     4  10  24  39  54  79 115 156 194 235 289 355
#     4  11  24  39  57  83 118 160 198 238 294 364
#     4  10  19  33  58  89 121 151 194 248 308 352
#     4   9  18  34  55  88 122 152 192 250 300 357
#     4  11  21  34  56  84 114 145 190 243 287 338
#     4  11  20  35  57  86 116 149 194 239 293 343
#
# _framework density 18.704806000000001
#
# number of rings (size 3 to 8) (size 9 to 14) (size 15 to 20)
#    0.000    1.429    2.857    3.857    2.000    1.714 
#    0.000    0.000    0.000    0.857    0.000    0.000 
#    0.000    0.000    0.000    0.000    0.000    0.000 
#
# Total GULP energy -312226.080923 kJ/mol
# GULP energy per Si atom -5575.465731 kJ/mol
# Density = 1.866223 g / cm^3
# Si number density = 18.704806 Si / 1000 Ang^3
#
#
#
# Elastic Constant Matrix: (Units=GPa)
#
#
# Indices 1 2 3 4 5 6 
#
# 1 53.2655 17.5743 33.9457 0.0000 0.0000 0.0000
# 2 17.5743 92.8195 5.7030 0.0000 0.0000 0.0000
# 3 33.9457 5.7030 46.7250 0.0000 0.0000 0.0000
# 4 0.0000 0.0000 0.0000 22.4824 0.0000 0.0000
# 5 0.0000 0.0000 0.0000 0.0000 0.1254 0.0000
# 6 0.0000 0.0000 0.0000 0.0000 0.0000 26.8784
#
#
#
# Elastic Compliance Matrix: (Units=1/GPa)
#
#
# Indices 1 2 3 4 5 6 
#
# 1 0.037529 -0.005472 -0.026597 0.000000 0.000000 0.000000
# 2 -0.005472 0.011653 0.002553 0.000000 0.000000 0.000000
# 3 -0.026597 0.002553 0.040413 0.000000 0.000000 0.000000
# 4 0.000000 0.000000 0.000000 0.044479 0.000000 0.000000
# 5 0.000000 0.000000 0.000000 0.000000 7.972341 0.000000
# 6 0.000000 0.000000 0.000000 0.000000 0.000000 0.037205
#
#
# Mechanical properties :
#
#
# Convention : Reuss Voigt Hill
#
# Bulk Modulus (GPa) = 32.71904 34.13956 33.42930
# Shear Modulus (GPa) = 0.60880 18.93639 9.77260
#
# Velocity S-wave (km/s) = 0.57113 3.18525 2.28823
# Velocity P-wave (km/s) = 4.23854 5.64084 4.98920
#
# Compressibility (1/GPa) = 0.03056325
#
# Stress axis : x y z
#
# Youngs Moduli (GPa) = 26.64579 85.81684 24.74441
#
# Poissons Ratio (x) = 0.46955 0.65813
# Poissons Ratio (y) = 0.14579 -0.06317
# Poissons Ratio (z) = 0.70871 -0.21908
#
# Static dielectric constant tensor:
#      x y z
#    x 1.668150 0.000000 0.000000 
#    y 0.000000 1.758460 0.000000 
#    z 0.000000 0.000000 1.631400 
# 
# From -- ./inp_files/41962.got.cif
#   From: 2010.05.17/outbox.cif.g08.bks.cpg/sg64_21_cif.got.tgz:41962.got - 2010.06.03 16:29:19.
