data_PCOD9477961
_publ_section_title
;
Structure prediction by ZEFSAII (Michael W. Deem and Ramdas Pophale) SiO2 
 PCOD9477961
Probable space group: C M C A
;
_chemical_formula_sum "Si O2"
_cell_formula_units_Z 84
_cell_length_a 13.133782
_cell_length_b 13.120418
_cell_length_c 21.641984
_cell_angle_alpha 90.000000
_cell_angle_beta 90.000000
_cell_angle_gamma 90.000000
_cell_volume 3729.362044
_symmetry_space_group_name_H-M "C M C A"
_symmetry_group_IT_number 64
_symmetry_cell_setting 'orthorhombic'
loop_
_space_group_symop_operation_xyz
x,y,z
-x,1/2-y,1/2+z
x,-y,-z
-x,1/2+y,1/2-z
-x,-y,-z
x,1/2+y,1/2-z
-x,y,z
x,1/2-y,1/2+z
1/2+x,1/2+y,z
1/2-x,-y,1/2+z
1/2+x,1/2-y,-z
1/2-x,y,1/2-z
1/2-x,1/2-y,-z
1/2+x,y,1/2-z
1/2-x,1/2+y,z
1/2+x,-y,1/2+z
loop_
_atom_site_type_symbol
_atom_site_label
_atom_site_fract_x
_atom_site_fract_y
_atom_site_fract_z
Si Si1 0.696921 0.504571 0.315510
Si Si2 0.607801 0.928131 0.382997
Si Si3 0.886171 0.199317 0.639654
Si Si4 0.000000 0.000000 0.000000
Si Si5 0.182424 0.797268 0.625873
Si Si6 0.119399 0.379738 0.999482
O O1 0.750000 0.515727 0.250000
O O2 0.791784 0.485347 0.361844
O O3 0.629863 0.402607 0.320223
O O4 0.639589 0.605251 0.338229
O O5 0.500000 0.963715 0.353534
O O6 0.624539 0.809457 0.368178
O O7 0.586916 0.947242 0.455162
O O8 0.795500 0.276959 0.652227
O O9 0.870578 0.164493 0.568227
O O10 0.000000 0.240267 0.646257
O O11 0.183273 0.825324 0.553530
O O12 0.000000 0.366578 0.981939
O O13 0.140500 0.500000 0.000000
#
# Coordination Sequence:
#
# PCOD9477961 Si02
#       6
#    16  16  16   4  16  16
#     4  11  25  43  64  92 134 178 225 276 328 394
#     4   9  22  44  69  96 131 172 220 277 342 401
#     4  10  23  42  64  94 129 172 220 272 333 396
#     4   8  20  44  72  96 136 160 216 278 344 392
#     4  11  22  39  66  99 132 172 223 270 339 399
#     4  10  19  35  62  97 135 165 207 271 335 406
#
# _framework density 22.523959000000001
#
# number of rings (size 3 to 8) (size 9 to 14) (size 15 to 20)
#    0.571    1.333    1.905    1.143    0.000    9.905 
#    3.429    0.000    0.000    0.571    0.000    0.000 
#    0.000    0.000    0.000    0.000    0.000    0.000 
#
# Total GULP energy -234113.899530 kJ/mol
# GULP energy per Si atom -5574.140465 kJ/mol
# Density = 2.247269 g / cm^3
# Si number density = 22.523959 Si / 1000 Ang^3
#
#
#
# Elastic Constant Matrix: (Units=GPa)
#
#
# Indices 1 2 3 4 5 6 
#
# 1 82.6689 6.4483 -7.8439 0.0000 0.0000 0.0000
# 2 6.4483 77.5477 6.7641 0.0000 0.0000 0.0000
# 3 -7.8439 6.7641 52.9750 0.0000 0.0000 0.0000
# 4 0.0000 0.0000 0.0000 3.9566 0.0000 0.0000
# 5 0.0000 0.0000 0.0000 0.0000 -1.6547 0.0000
# 6 0.0000 0.0000 0.0000 0.0000 0.0000 7.5529
#
#
#
# Elastic Compliance Matrix: (Units=1/GPa)
#
#
# Indices 1 2 3 4 5 6 
#
# 1 0.012379 -0.001203 0.001986 0.000000 0.000000 0.000000
# 2 -0.001203 0.013157 -0.001858 0.000000 0.000000 0.000000
# 3 0.001986 -0.001858 0.019408 0.000000 0.000000 0.000000
# 4 0.000000 0.000000 0.000000 0.252742 0.000000 0.000000
# 5 0.000000 0.000000 0.000000 0.000000 -0.604343 0.000000
# 6 0.000000 0.000000 0.000000 0.000000 0.000000 0.132400
#
#
# Mechanical properties :
#
#
# Convention : Reuss Voigt Hill
#
# Bulk Modulus (GPa) = 23.36675 24.88097 24.12386
# Shear Modulus (GPa) = -31.67702 15.82583 -7.92559
#
# Velocity S-wave (km/s) = -3.75423 2.65358 -1.87787
# Velocity P-wave (km/s) = 2.89752 4.52317 2.45596
#
# Compressibility (1/GPa) = 0.04279586
#
# Stress axis : x y z
#
# Youngs Moduli (GPa) = 80.78369 76.00311 51.52462
#
# Poissons Ratio (x) = 0.09140 -0.10235
# Poissons Ratio (y) = 0.09715 0.09574
# Poissons Ratio (z) = -0.16047 0.14122
#
# Static dielectric constant tensor:
#      x y z
#    x 1.832560 0.000000 0.000000 
#    y 0.000000 1.816550 0.000000 
#    z 0.000000 0.000000 1.836260 
# 
# From -- ./inp_files/45039.got.cif
#   From: 2010.05.17/outbox.cif.g08.bks.cpg/sg64_23_cif.got.tgz:45039.got - 2010.06.03 16:29:19.
