data_PCOD9477342
_publ_section_title
;
Structure prediction by ZEFSAII (Michael W. Deem and Ramdas Pophale) SiO2 
 PCOD9477342
Probable space group: C M C A
;
_chemical_formula_sum "Si O2"
_cell_formula_units_Z 104
_cell_length_a 32.110923
_cell_length_b 17.126742
_cell_length_c 7.942922
_cell_angle_alpha 90.000000
_cell_angle_beta 90.000000
_cell_angle_gamma 90.000000
_cell_volume 4368.253589
_symmetry_space_group_name_H-M "C M C A"
_symmetry_group_IT_number 64
_symmetry_cell_setting 'orthorhombic'
loop_
_space_group_symop_operation_xyz
x,y,z
-x,1/2-y,1/2+z
x,-y,-z
-x,1/2+y,1/2-z
-x,-y,-z
x,1/2+y,1/2-z
-x,y,z
x,1/2-y,1/2+z
1/2+x,1/2+y,z
1/2-x,-y,1/2+z
1/2+x,1/2-y,-z
1/2-x,y,1/2-z
1/2-x,1/2-y,-z
1/2+x,y,1/2-z
1/2-x,1/2+y,z
1/2+x,-y,1/2+z
loop_
_atom_site_type_symbol
_atom_site_label
_atom_site_fract_x
_atom_site_fract_y
_atom_site_fract_z
Si Si1 0.578713 0.000000 0.000000
Si Si2 0.189438 0.703522 0.666885
Si Si3 0.125033 0.080731 0.234095
Si Si4 0.712386 0.367097 0.851387
Si Si5 0.045198 0.843523 0.360074
Si Si6 0.455144 0.593739 0.018786
Si Si7 0.632239 0.698364 0.542299
O O1 0.607590 0.005498 0.166220
O O2 0.551698 0.922407 0.028721
O O3 0.205708 0.785695 0.743569
O O4 0.221099 0.657312 0.546400
O O5 0.153571 0.724908 0.531214
O O6 0.164452 0.665180 0.819651
O O7 0.170624 0.080305 0.153260
O O8 0.087299 0.108052 0.117308
O O9 0.129363 0.141423 0.385923
O O10 0.750000 0.406416 0.750000
O O11 0.085822 0.791596 0.390249
O O12 0.000000 0.808972 0.400400
O O13 0.045787 0.868734 0.165549
O O14 0.500000 0.615463 0.100098
O O15 0.455970 0.500000 0.000000
#
# Coordination Sequence:
#
# PCOD9477342 Si02
#       7
#     8  16  16  16  16  16  16
#     4  10  19  32  50  70 102 138 174 214 263 320
#     4   9  18  35  55  78 106 136 176 220 273 325
#     4  10  20  33  52  77 108 141 175 225 269 318
#     4  10  19  33  57  83 107 136 175 223 271 328
#     4  10  19  31  50  77 104 134 176 222 267 320
#     4  10  19  32  52  79 106 137 180 225 270 320
#     4   9  19  33  53  78 104 142 178 218 274 329
#
# _framework density 23.808140999999999
#
# number of rings (size 3 to 8) (size 9 to 14) (size 15 to 20)
#    0.000    2.308    1.538    1.615    0.000    2.462 
#    0.000    0.769    1.692    5.538    0.000    0.000 
#    0.000    0.000    0.000    0.000    0.000    0.000 
#
# Total GULP energy -290230.055833 kJ/mol
# GULP energy per Si atom -5581.347228 kJ/mol
# Density = 2.375395 g / cm^3
# Si number density = 23.808141 Si / 1000 Ang^3
#
#
#
# Elastic Constant Matrix: (Units=GPa)
#
#
# Indices 1 2 3 4 5 6 
#
# 1 139.1386 10.2151 35.5428 0.0000 0.0000 0.0000
# 2 10.2151 31.0558 -1.3157 0.0000 0.0000 0.0000
# 3 35.5428 -1.3157 92.9354 0.0000 0.0000 0.0000
# 4 0.0000 0.0000 0.0000 24.9769 0.0000 0.0000
# 5 0.0000 0.0000 0.0000 0.0000 43.0871 0.0000
# 6 0.0000 0.0000 0.0000 0.0000 0.0000 21.9575
#
#
#
# Elastic Compliance Matrix: (Units=1/GPa)
#
#
# Indices 1 2 3 4 5 6 
#
# 1 0.008207 -0.002834 -0.003179 0.000000 0.000000 0.000000
# 2 -0.002834 0.033198 0.001554 0.000000 0.000000 0.000000
# 3 -0.003179 0.001554 0.011998 0.000000 0.000000 0.000000
# 4 0.000000 0.000000 0.000000 0.040037 0.000000 0.000000
# 5 0.000000 0.000000 0.000000 0.000000 0.023209 0.000000
# 6 0.000000 0.000000 0.000000 0.000000 0.000000 0.045542
#
#
# Mechanical properties :
#
#
# Convention : Reuss Voigt Hill
#
# Bulk Modulus (GPa) = 22.47956 39.11268 30.79612
# Shear Modulus (GPa) = 26.89062 32.58348 29.73705
#
# Velocity S-wave (km/s) = 3.36441 3.70345 3.53799
# Velocity P-wave (km/s) = 4.95528 5.89503 5.44546
#
# Compressibility (1/GPa) = 0.04448486
#
# Stress axis : x y z
#
# Youngs Moduli (GPa) = 121.84399 30.12210 83.34765
#
# Poissons Ratio (x) = 0.08537 0.26496
# Poissons Ratio (y) = 0.34534 -0.12952
# Poissons Ratio (z) = 0.38733 -0.04681
#
# Static dielectric constant tensor:
#      x y z
#    x 2.048280 0.000000 0.000000 
#    y 0.000000 1.957380 0.000000 
#    z 0.000000 0.000000 1.923960 
# 
# From -- ./inp_files/10581.got.cif
#   From: 2010.05.17/outbox.cif.g08.bks.cpg/sg64_6_cif.got.tgz:10581.got - 2010.06.03 16:29:19.
