data_PCOD9477485
_publ_section_title
;
Structure prediction by ZEFSAII (Michael W. Deem and Ramdas Pophale) SiO2 
 PCOD9477485
Probable space group: C M C A
;
_chemical_formula_sum "Si O2"
_cell_formula_units_Z 116
_cell_length_a 7.550365
_cell_length_b 25.245210
_cell_length_c 28.156278
_cell_angle_alpha 90.000000
_cell_angle_beta 90.000000
_cell_angle_gamma 90.000000
_cell_volume 5366.883636
_symmetry_space_group_name_H-M "C M C A"
_symmetry_group_IT_number 64
_symmetry_cell_setting 'orthorhombic'
loop_
_space_group_symop_operation_xyz
x,y,z
-x,1/2-y,1/2+z
x,-y,-z
-x,1/2+y,1/2-z
-x,-y,-z
x,1/2+y,1/2-z
-x,y,z
x,1/2-y,1/2+z
1/2+x,1/2+y,z
1/2-x,-y,1/2+z
1/2+x,1/2-y,-z
1/2-x,y,1/2-z
1/2-x,1/2-y,-z
1/2+x,y,1/2-z
1/2-x,1/2+y,z
1/2+x,-y,1/2+z
loop_
_atom_site_type_symbol
_atom_site_label
_atom_site_fract_x
_atom_site_fract_y
_atom_site_fract_z
Si Si1 0.715349 0.419292 0.020203
Si Si2 0.788100 0.358234 0.304166
Si Si3 0.288337 0.702439 0.963971
Si Si4 0.215487 0.548645 0.627462
Si Si5 0.291342 0.661183 0.197063
Si Si6 0.212864 0.958011 0.803546
Si Si7 0.288689 0.760888 0.361420
Si Si8 0.500000 0.000000 0.000000
O O1 0.500000 0.424551 0.012544
O O2 0.765104 0.356772 0.020091
O O3 0.763348 0.441124 0.073130
O O4 0.841565 0.455367 0.988318
O O5 0.750000 0.370316 0.250000
O O6 0.722284 0.402417 0.340459
O O7 0.721103 0.301115 0.321104
O O8 0.000000 0.358112 0.308611
O O9 0.500000 0.697959 0.959628
O O10 0.217699 0.720205 0.912322
O O11 0.250000 0.750000 0.000000
O O12 0.277555 0.496075 0.654573
O O13 0.000000 0.548395 0.627888
O O14 0.500000 0.655521 0.194841
O O15 0.250000 0.682178 0.250000
O O16 0.214887 0.601850 0.193257
O O17 0.241546 0.701507 0.155834
O O18 0.250000 0.978222 0.750000
O O19 0.000000 0.956500 0.807684
O O20 0.500000 0.766850 0.364075
#
# Coordination Sequence:
#
# PCOD9477485 Si02
#       8
#    16  16  16  16  16  16  16   4
#     4  10  22  46  70  95 134 174 211 276 350 401
#     4  10  19  32  53  84 118 154 199 242 300 377
#     4  10  22  42  68  93 125 170 214 274 346 407
#     4   9  17  36  61  81 116 162 199 242 314 389
#     4  10  20  34  52  79 115 156 201 249 302 362
#     4   9  18  33  53  78 112 156 204 249 300 369
#     4  10  20  37  57  82 115 157 203 250 315 379
#     4  12  26  44  72 106 128 164 226 274 324 422
#
# _framework density 21.614034
#
# number of rings (size 3 to 8) (size 9 to 14) (size 15 to 20)
#    0.000    2.207    1.379    1.448    0.966    2.759 
#    4.966    0.000    0.000    0.000    0.000    0.000 
#    0.000    0.000    0.000    0.000    0.000    0.000 
#
# Total GULP energy -323139.231188 kJ/mol
# GULP energy per Si atom -5571.366055 kJ/mol
# Density = 2.156484 g / cm^3
# Si number density = 21.614034 Si / 1000 Ang^3
#
#
#
# Elastic Constant Matrix: (Units=GPa)
#
#
# Indices 1 2 3 4 5 6 
#
# 1 73.5587 17.9941 3.3704 0.0000 0.0000 0.0000
# 2 17.9941 122.6761 24.8680 0.0000 0.0000 0.0000
# 3 3.3704 24.8680 37.5733 0.0000 0.0000 0.0000
# 4 0.0000 0.0000 0.0000 15.6337 0.0000 0.0000
# 5 0.0000 0.0000 0.0000 0.0000 14.7190 0.0000
# 6 0.0000 0.0000 0.0000 0.0000 0.0000 31.8050
#
#
#
# Elastic Compliance Matrix: (Units=1/GPa)
#
#
# Indices 1 2 3 4 5 6 
#
# 1 0.014101 -0.002093 0.000120 0.000000 0.000000 0.000000
# 2 -0.002093 0.009725 -0.006249 0.000000 0.000000 0.000000
# 3 0.000120 -0.006249 0.030740 0.000000 0.000000 0.000000
# 4 0.000000 0.000000 0.000000 0.063964 0.000000 0.000000
# 5 0.000000 0.000000 0.000000 0.000000 0.067939 0.000000
# 6 0.000000 0.000000 0.000000 0.000000 0.000000 0.031442
#
#
# Mechanical properties :
#
#
# Convention : Reuss Voigt Hill
#
# Bulk Modulus (GPa) = 26.23085 36.25258 31.24172
# Shear Modulus (GPa) = 20.23783 24.93657 22.58720
#
# Velocity S-wave (km/s) = 3.06327 3.40033 3.23619
# Velocity P-wave (km/s) = 4.96728 5.67675 5.33382
#
# Compressibility (1/GPa) = 0.03812305
#
# Stress axis : x y z
#
# Youngs Moduli (GPa) = 70.91696 102.82509 32.53110
#
# Poissons Ratio (x) = 0.21518 -0.00391
# Poissons Ratio (y) = 0.14841 0.20329
# Poissons Ratio (z) = -0.00852 0.64255
#
# Static dielectric constant tensor:
#      x y z
#    x 1.827570 0.000000 0.000000 
#    y 0.000000 1.832210 0.000000 
#    z 0.000000 0.000000 1.882910 
# 
# From -- ./inp_files/43392.got.cif
#   From: 2010.05.17/outbox.cif.g08.bks.cpg/sg64_22_cif.got.tgz:43392.got - 2010.06.03 16:29:19.
