data_PCOD9477575
_publ_section_title
;
Structure prediction by ZEFSAII (Michael W. Deem and Ramdas Pophale) SiO2 
 PCOD9477575
Probable space group: C M C A
;
_chemical_formula_sum "Si O2"
_cell_formula_units_Z 128
_cell_length_a 19.729418
_cell_length_b 22.488326
_cell_length_c 15.981128
_cell_angle_alpha 90.000000
_cell_angle_beta 90.000000
_cell_angle_gamma 90.000000
_cell_volume 7090.532182
_symmetry_space_group_name_H-M "C M C A"
_symmetry_group_IT_number 64
_symmetry_cell_setting 'orthorhombic'
loop_
_space_group_symop_operation_xyz
x,y,z
-x,1/2-y,1/2+z
x,-y,-z
-x,1/2+y,1/2-z
-x,-y,-z
x,1/2+y,1/2-z
-x,y,z
x,1/2-y,1/2+z
1/2+x,1/2+y,z
1/2-x,-y,1/2+z
1/2+x,1/2-y,-z
1/2-x,y,1/2-z
1/2-x,1/2-y,-z
1/2+x,y,1/2-z
1/2-x,1/2+y,z
1/2+x,-y,1/2+z
loop_
_atom_site_type_symbol
_atom_site_label
_atom_site_fract_x
_atom_site_fract_y
_atom_site_fract_z
Si Si1 0.669097 0.850336 0.759005
Si Si2 0.078071 0.792384 0.881790
Si Si3 0.826033 0.191514 0.569705
Si Si4 0.687740 0.747695 0.888291
Si Si5 0.647546 0.964927 0.414278
Si Si6 0.309385 0.449265 0.427677
Si Si7 0.168448 0.517581 0.236547
Si Si8 0.424114 0.342175 0.070357
O O1 0.750000 0.856485 0.750000
O O2 0.628458 0.829417 0.677459
O O3 0.665026 0.797633 0.824328
O O4 0.645217 0.915769 0.785740
O O5 0.108985 0.726175 0.893520
O O6 0.000000 0.791532 0.852489
O O7 0.079336 0.823794 0.972618
O O8 0.760659 0.215635 0.621968
O O9 0.813613 0.219235 0.477839
O O10 0.830374 0.120034 0.561128
O O11 0.631487 0.697454 0.885115
O O12 0.727284 0.946958 0.418500
O O13 0.598393 0.909161 0.416602
O O14 0.634836 0.000000 0.500000
O O15 0.638749 0.999372 0.326645
O O16 0.322426 0.500000 0.500000
O O17 0.341696 0.473740 0.341461
O O18 0.250000 0.517993 0.250000
O O19 0.500000 0.330823 0.099922
#
# Coordination Sequence:
#
# PCOD9477575 Si02
#       8
#    16  16  16  16  16  16  16  16
#     4  11  20  35  57  83 111 148 191 237 286 341
#     4  10  22  38  57  84 116 151 188 238 300 356
#     4  10  19  35  57  83 113 146 190 238 287 344
#     4  10  20  33  55  84 109 144 193 238 281 345
#     4  10  19  33  53  79 113 153 189 238 289 345
#     4  10  19  33  56  84 115 151 189 240 293 339
#     4   9  20  33  50  81 113 145 192 241 284 345
#     4  10  21  37  55  79 116 154 191 236 294 356
#
# _framework density 18.052240999999999
#
# number of rings (size 3 to 8) (size 9 to 14) (size 15 to 20)
#    0.000    2.000    2.500    1.500    0.000    3.750 
#    2.250    0.625    0.000    1.125    0.000    0.000 
#    0.000    0.000    0.000    0.000    0.000    0.000 
#
# Total GULP energy -356560.777076 kJ/mol
# GULP energy per Si atom -5571.262142 kJ/mol
# Density = 1.801115 g / cm^3
# Si number density = 18.052241 Si / 1000 Ang^3
#
#
#
# Elastic Constant Matrix: (Units=GPa)
#
#
# Indices 1 2 3 4 5 6 
#
# 1 73.0746 24.9751 16.8610 0.0000 0.0000 0.0000
# 2 24.9751 101.2160 12.5445 0.0000 0.0000 0.0000
# 3 16.8610 12.5445 35.7470 0.0000 0.0000 0.0000
# 4 0.0000 0.0000 0.0000 14.7746 0.0000 0.0000
# 5 0.0000 0.0000 0.0000 0.0000 11.7377 0.0000
# 6 0.0000 0.0000 0.0000 0.0000 0.0000 -2.9496
#
#
#
# Elastic Compliance Matrix: (Units=1/GPa)
#
#
# Indices 1 2 3 4 5 6 
#
# 1 0.016295 -0.003208 -0.006560 0.000000 0.000000 0.000000
# 2 -0.003208 0.010961 -0.002333 0.000000 0.000000 0.000000
# 3 -0.006560 -0.002333 0.031887 0.000000 0.000000 0.000000
# 4 0.000000 0.000000 0.000000 0.067684 0.000000 0.000000
# 5 0.000000 0.000000 0.000000 0.000000 0.085196 0.000000
# 6 0.000000 0.000000 0.000000 0.000000 0.000000 -0.339031
#
#
# Mechanical properties :
#
#
# Convention : Reuss Voigt Hill
#
# Bulk Modulus (GPa) = 28.62022 35.42210 32.02116
# Shear Modulus (GPa) = -54.84889 15.08967 -19.87961
#
# Velocity S-wave (km/s) = -5.51810 2.89431 -3.32207
# Velocity P-wave (km/s) = 4.97098 5.55283 1.74976
#
# Compressibility (1/GPa) = 0.03494033
#
# Stress axis : x y z
#
# Youngs Moduli (GPa) = 61.36995 91.23636 31.36028
#
# Poissons Ratio (x) = 0.29266 0.20573
# Poissons Ratio (y) = 0.19685 0.07317
# Poissons Ratio (z) = 0.40260 0.21289
#
# Static dielectric constant tensor:
#      x y z
#    x 1.577300 0.000000 0.000000 
#    y 0.000000 3.757240 0.000000 
#    z 0.000000 0.000000 1.650210 
# 
# From -- ./inp_files/34696.got.cif
#   From: 2010.05.17/outbox.cif.g08.bks.cpg/sg64_18_cif.got.tgz:34696.got - 2010.06.03 16:29:19.
