data_PCOD9477733
_publ_section_title
;
Structure prediction by ZEFSAII (Michael W. Deem and Ramdas Pophale) SiO2 
 PCOD9477733
Probable space group: C M C A
;
_chemical_formula_sum "Si O2"
_cell_formula_units_Z 92
_cell_length_a 27.089398
_cell_length_b 8.755709
_cell_length_c 19.017507
_cell_angle_alpha 90.000000
_cell_angle_beta 90.000000
_cell_angle_gamma 90.000000
_cell_volume 4510.703262
_symmetry_space_group_name_H-M "C M C A"
_symmetry_group_IT_number 64
_symmetry_cell_setting 'orthorhombic'
loop_
_space_group_symop_operation_xyz
x,y,z
-x,1/2-y,1/2+z
x,-y,-z
-x,1/2+y,1/2-z
-x,-y,-z
x,1/2+y,1/2-z
-x,y,z
x,1/2-y,1/2+z
1/2+x,1/2+y,z
1/2-x,-y,1/2+z
1/2+x,1/2-y,-z
1/2-x,y,1/2-z
1/2-x,1/2-y,-z
1/2+x,y,1/2-z
1/2-x,1/2+y,z
1/2+x,-y,1/2+z
loop_
_atom_site_type_symbol
_atom_site_label
_atom_site_fract_x
_atom_site_fract_y
_atom_site_fract_z
Si Si1 0.326914 0.500000 0.500000
Si Si2 0.220770 0.748338 0.816950
Si Si3 0.411843 0.162448 0.913471
Si Si4 0.864298 0.006258 0.709317
Si Si5 0.500000 0.500000 0.500000
Si Si6 0.135370 0.544473 0.371375
Si Si7 0.183144 0.745169 0.109207
O O1 0.362366 0.598069 0.550097
O O2 0.301953 0.375202 0.549191
O O3 0.250000 0.818183 0.750000
O O4 0.183220 0.618149 0.791747
O O5 0.265763 0.686841 0.862775
O O6 0.186809 0.863633 0.860406
O O7 0.407196 0.086928 0.835994
O O8 0.404077 0.343455 0.906662
O O9 0.456911 0.098469 0.957702
O O10 0.879252 0.982768 0.789728
O O11 0.846242 0.853469 0.668737
O O12 0.147359 0.385414 0.409504
#
# Coordination Sequence:
#
# PCOD9477733 Si02
#       7
#     8  16  16  16   4  16  16
#     4   9  22  41  54  80 124 170 220 263 310 373
#     4  11  19  31  52  87 126 173 218 246 305 368
#     4   9  21  40  66  89 112 162 206 252 333 386
#     4  10  19  34  54  90 128 160 204 261 318 375
#     4  10  20  48  76  86 116 162 212 254 316 430
#     4  11  20  33  57  92 124 157 210 273 311 374
#     4  11  20  32  55  81 126 175 215 261 306 372
#
# _framework density 20.395931999999998
#
# number of rings (size 3 to 8) (size 9 to 14) (size 15 to 20)
#    0.000    1.739    3.478    2.087    0.000    0.696 
#    0.000   14.783    0.000   18.783    0.000    0.000 
#    0.000    0.000    0.000    0.000    0.000    0.000 
#
# Total GULP energy -256126.500406 kJ/mol
# GULP energy per Si atom -5567.967400 kJ/mol
# Density = 2.034951 g / cm^3
# Si number density = 20.395932 Si / 1000 Ang^3
#
#
#
# Elastic Constant Matrix: (Units=GPa)
#
#
# Indices 1 2 3 4 5 6 
#
# 1 71.7486 36.5523 22.4361 0.0000 0.0000 0.0000
# 2 36.5523 127.6769 34.5811 0.0000 0.0000 0.0000
# 3 22.4361 34.5811 62.2411 0.0000 0.0000 0.0000
# 4 0.0000 0.0000 0.0000 22.1485 0.0000 0.0000
# 5 0.0000 0.0000 0.0000 0.0000 17.6668 0.0000
# 6 0.0000 0.0000 0.0000 0.0000 0.0000 6.0611
#
#
#
# Elastic Compliance Matrix: (Units=1/GPa)
#
#
# Indices 1 2 3 4 5 6 
#
# 1 0.017149 -0.003808 -0.004066 0.000000 0.000000 0.000000
# 2 -0.003808 0.010065 -0.004220 0.000000 0.000000 0.000000
# 3 -0.004066 -0.004220 0.019877 0.000000 0.000000 0.000000
# 4 0.000000 0.000000 0.000000 0.045150 0.000000 0.000000
# 5 0.000000 0.000000 0.000000 0.000000 0.056603 0.000000
# 6 0.000000 0.000000 0.000000 0.000000 0.000000 0.164987
#
#
# Mechanical properties :
#
#
# Convention : Reuss Voigt Hill
#
# Bulk Modulus (GPa) = 43.66121 49.86728 46.76425
# Shear Modulus (GPa) = 14.46539 20.38175 17.42357
#
# Velocity S-wave (km/s) = 2.66602 3.16461 2.92596
# Velocity P-wave (km/s) = 5.56149 6.15270 5.86455
#
# Compressibility (1/GPa) = 0.02290362
#
# Stress axis : x y z
#
# Youngs Moduli (GPa) = 58.31206 99.35019 50.31052
#
# Poissons Ratio (x) = 0.37836 0.20455
# Poissons Ratio (y) = 0.22207 0.21229
# Poissons Ratio (z) = 0.23709 0.41921
#
# Static dielectric constant tensor:
#      x y z
#    x 1.669440 0.000000 0.000000 
#    y 0.000000 1.794230 0.000000 
#    z 0.000000 0.000000 1.855200 
# 
# From -- ./inp_files/41845.got.cif
#   From: 2010.05.17/outbox.cif.g08.bks.cpg/sg64_21_cif.got.tgz:41845.got - 2010.06.03 16:29:19.
