data_PCOD9477360
_publ_section_title
;
Structure prediction by ZEFSAII (Michael W. Deem and Ramdas Pophale) SiO2 
 PCOD9477360
Probable space group: C M C A
;
_chemical_formula_sum "Si O2"
_cell_formula_units_Z 104
_cell_length_a 21.978612
_cell_length_b 7.666882
_cell_length_c 29.268679
_cell_angle_alpha 90.000000
_cell_angle_beta 90.000000
_cell_angle_gamma 90.000000
_cell_volume 4931.989723
_symmetry_space_group_name_H-M "C M C A"
_symmetry_group_IT_number 64
_symmetry_cell_setting 'orthorhombic'
loop_
_space_group_symop_operation_xyz
x,y,z
-x,1/2-y,1/2+z
x,-y,-z
-x,1/2+y,1/2-z
-x,-y,-z
x,1/2+y,1/2-z
-x,y,z
x,1/2-y,1/2+z
1/2+x,1/2+y,z
1/2-x,-y,1/2+z
1/2+x,1/2-y,-z
1/2-x,y,1/2-z
1/2-x,1/2-y,-z
1/2+x,y,1/2-z
1/2-x,1/2+y,z
1/2+x,-y,1/2+z
loop_
_atom_site_type_symbol
_atom_site_label
_atom_site_fract_x
_atom_site_fract_y
_atom_site_fract_z
Si Si1 0.690936 0.161328 0.398495
Si Si2 0.321630 0.707976 0.003071
Si Si3 0.250000 0.486679 0.250000
Si Si4 0.929946 0.362206 0.827691
Si Si5 0.829328 0.270863 0.698857
Si Si6 0.666651 0.254996 0.596414
Si Si7 0.570016 0.522831 0.762995
O O1 0.663378 0.248017 0.444402
O O2 0.669198 0.265043 0.354240
O O3 0.764511 0.172288 0.399473
O O4 0.671992 0.956476 0.396000
O O5 0.328598 0.500000 0.000000
O O6 0.250000 0.750000 0.000000
O O7 0.351157 0.784041 0.957117
O O8 0.192690 0.375459 0.234003
O O9 0.228968 0.598231 0.293171
O O10 0.880652 0.333272 0.867251
O O11 0.919913 0.522506 0.792238
O O12 0.000000 0.368840 0.844510
O O13 0.924749 0.197423 0.792937
O O14 0.885819 0.383679 0.714395
O O15 0.500000 0.464196 0.767413
#
# Coordination Sequence:
#
# PCOD9477360 Si02
#       7
#    16  16   8  16  16  16  16
#     4  10  19  31  52  77 106 137 164 212 261 312
#     4   8  16  30  50  72 102 129 166 203 252 309
#     4  10  24  30  46  74 110 138 156 214 252 310
#     4  10  21  38  55  73 101 140 179 216 250 299
#     4  11  20  34  47  72 106 132 170 199 262 297
#     4  10  19  35  52  79 102 135 169 213 261 312
#     4  10  21  36  53  70  98 139 179 210 245 299
#
# _framework density 21.086825000000001
#
# number of rings (size 3 to 8) (size 9 to 14) (size 15 to 20)
#    0.000    2.154    1.538    1.846    4.308    0.000 
#    2.769    0.000    0.000    5.077    0.000    0.000 
#    0.000   55.385    0.000    0.000    0.000    0.000 
#
# Total GULP energy -290160.868520 kJ/mol
# GULP energy per Si atom -5580.016702 kJ/mol
# Density = 2.103883 g / cm^3
# Si number density = 21.086825 Si / 1000 Ang^3
#
#
#
# Elastic Constant Matrix: (Units=GPa)
#
#
# Indices 1 2 3 4 5 6 
#
# 1 72.5074 2.0036 41.7988 0.0000 0.0000 0.0000
# 2 2.0036 49.6493 14.7613 0.0000 0.0000 0.0000
# 3 41.7988 14.7613 192.4521 0.0000 0.0000 0.0000
# 4 0.0000 0.0000 0.0000 9.9960 0.0000 0.0000
# 5 0.0000 0.0000 0.0000 0.0000 31.3747 0.0000
# 6 0.0000 0.0000 0.0000 0.0000 0.0000 22.5248
#
#
#
# Elastic Compliance Matrix: (Units=1/GPa)
#
#
# Indices 1 2 3 4 5 6 
#
# 1 0.015773 0.000391 -0.003456 0.000000 0.000000 0.000000
# 2 0.000391 0.020621 -0.001667 0.000000 0.000000 0.000000
# 3 -0.003456 -0.001667 0.006074 0.000000 0.000000 0.000000
# 4 0.000000 0.000000 0.000000 0.100040 0.000000 0.000000
# 5 0.000000 0.000000 0.000000 0.000000 0.031873 0.000000
# 6 0.000000 0.000000 0.000000 0.000000 0.000000 0.044396
#
#
# Mechanical properties :
#
#
# Convention : Reuss Voigt Hill
#
# Bulk Modulus (GPa) = 30.29777 47.97069 39.13423
# Shear Modulus (GPa) = 20.89934 29.84876 25.37405
#
# Velocity S-wave (km/s) = 3.15160 3.76642 3.47264
# Velocity P-wave (km/s) = 5.25764 6.45856 5.88880
#
# Compressibility (1/GPa) = 0.03300573
#
# Stress axis : x y z
#
# Youngs Moduli (GPa) = 63.39927 48.49426 164.62317
#
# Poissons Ratio (x) = -0.01896 0.56889
# Poissons Ratio (y) = -0.02478 0.27435
# Poissons Ratio (z) = 0.21909 0.08082
#
# Static dielectric constant tensor:
#      x y z
#    x 1.772220 0.000000 0.000000 
#    y 0.000000 1.874690 0.000000 
#    z 0.000000 0.000000 1.810640 
# 
# From -- ./inp_files/53943.got.cif
#   From: 2010.05.17/outbox.cif.g08.bks.cpg/sg64_27_cif.got.tgz:53943.got - 2010.06.03 16:29:19.
