data_PCOD9477795
_publ_section_title
;
Structure prediction by ZEFSAII (Michael W. Deem and Ramdas Pophale) SiO2 
 PCOD9477795
Probable space group: C M C A
;
_chemical_formula_sum "Si O2"
_cell_formula_units_Z 116
_cell_length_a 7.814259
_cell_length_b 26.882854
_cell_length_c 28.592226
_cell_angle_alpha 90.000000
_cell_angle_beta 90.000000
_cell_angle_gamma 90.000000
_cell_volume 6006.357016
_symmetry_space_group_name_H-M "C M C A"
_symmetry_group_IT_number 64
_symmetry_cell_setting 'orthorhombic'
loop_
_space_group_symop_operation_xyz
x,y,z
-x,1/2-y,1/2+z
x,-y,-z
-x,1/2+y,1/2-z
-x,-y,-z
x,1/2+y,1/2-z
-x,y,z
x,1/2-y,1/2+z
1/2+x,1/2+y,z
1/2-x,-y,1/2+z
1/2+x,1/2-y,-z
1/2-x,y,1/2-z
1/2-x,1/2-y,-z
1/2+x,y,1/2-z
1/2-x,1/2+y,z
1/2+x,-y,1/2+z
loop_
_atom_site_type_symbol
_atom_site_label
_atom_site_fract_x
_atom_site_fract_y
_atom_site_fract_z
Si Si1 0.209612 0.248190 0.603420
Si Si2 0.314816 0.045010 0.049839
Si Si3 0.794293 0.848685 0.454505
Si Si4 0.299447 0.852522 0.562885
Si Si5 0.500000 0.000000 0.500000
Si Si6 0.294419 0.913475 0.197468
Si Si7 0.204933 0.298503 0.198542
Si Si8 0.805654 0.449538 0.401149
O O1 0.262995 0.201932 0.571017
O O2 0.268447 0.301597 0.585300
O O3 0.266403 0.234732 0.655769
O O4 0.000000 0.248835 0.602402
O O5 0.500000 0.048095 0.025807
O O6 0.289332 0.096172 0.077679
O O7 0.305121 0.995820 0.081523
O O8 0.153993 0.039290 0.015595
O O9 0.726320 0.849304 0.507044
O O10 0.741068 0.897138 0.424791
O O11 0.000000 0.848505 0.455999
O O12 0.500000 0.856131 0.573770
O O13 0.500000 0.914876 0.191252
O O14 0.250000 0.930629 0.250000
O O15 0.234303 0.855769 0.194203
O O16 0.210549 0.942426 0.154380
O O17 0.250000 0.280050 0.250000
O O18 0.000000 0.301098 0.195167
O O19 0.000000 0.463054 0.416912
#
# Coordination Sequence:
#
# PCOD9477795 Si02
#       8
#    16  16  16  16   4  16  16  16
#     4   9  19  36  58  80 117 160 196 241 299 355
#     4  12  25  42  62  86 118 160 202 254 305 352
#     4  11  21  36  55  83 115 158 200 243 297 355
#     4  11  22  39  57  82 117 160 207 250 294 356
#     4  12  22  44  60  90 116 148 206 252 292 356
#     4  10  19  34  57  86 120 154 190 241 306 367
#     4   9  17  33  54  82 114 149 191 239 297 356
#     4  12  23  38  58  87 121 156 202 252 302 360
#
# _framework density 19.312871999999999
#
# number of rings (size 3 to 8) (size 9 to 14) (size 15 to 20)
#    0.000    1.379    2.759    3.931    0.000    0.552 
#    0.000    3.448    0.000    0.828    0.000    3.862 
#    0.000    0.000    0.000    0.000    0.000    0.000 
#
# Total GULP energy -323674.646254 kJ/mol
# GULP energy per Si atom -5580.597349 kJ/mol
# Density = 1.926891 g / cm^3
# Si number density = 19.312872 Si / 1000 Ang^3
#
#
#
# Elastic Constant Matrix: (Units=GPa)
#
#
# Indices 1 2 3 4 5 6 
#
# 1 91.6579 16.4143 -0.3588 0.0000 0.0000 0.0000
# 2 16.4143 143.8947 44.5916 0.0000 0.0000 0.0000
# 3 -0.3588 44.5916 89.0293 0.0000 0.0000 0.0000
# 4 0.0000 0.0000 0.0000 18.9054 0.0000 0.0000
# 5 0.0000 0.0000 0.0000 0.0000 5.0823 0.0000
# 6 0.0000 0.0000 0.0000 0.0000 0.0000 17.7595
#
#
#
# Elastic Compliance Matrix: (Units=1/GPa)
#
#
# Indices 1 2 3 4 5 6 
#
# 1 0.011187 -0.001527 0.000810 0.000000 0.000000 0.000000
# 2 -0.001527 0.008435 -0.004231 0.000000 0.000000 0.000000
# 3 0.000810 -0.004231 0.013355 0.000000 0.000000 0.000000
# 4 0.000000 0.000000 0.000000 0.052895 0.000000 0.000000
# 5 0.000000 0.000000 0.000000 0.000000 0.196760 0.000000
# 6 0.000000 0.000000 0.000000 0.000000 0.000000 0.056308
#
#
# Mechanical properties :
#
#
# Convention : Reuss Voigt Hill
#
# Bulk Modulus (GPa) = 43.32715 49.54179 46.43447
# Shear Modulus (GPa) = 14.02414 25.94510 19.98462
#
# Velocity S-wave (km/s) = 2.69765 3.66923 3.22029
# Velocity P-wave (km/s) = 5.67328 6.60749 6.15813
#
# Compressibility (1/GPa) = 0.02308021
#
# Stress axis : x y z
#
# Youngs Moduli (GPa) = 89.39121 118.55607 74.88058
#
# Poissons Ratio (x) = 0.18105 -0.06065
# Poissons Ratio (y) = 0.13651 0.31681
# Poissons Ratio (z) = -0.07240 0.50159
#
# Static dielectric constant tensor:
#      x y z
#    x 1.722310 0.000000 0.000000 
#    y 0.000000 1.613880 0.000000 
#    z 0.000000 0.000000 1.554340 
# 
# From -- ./inp_files/52264.got.cif
#   From: 2010.05.17/outbox.cif.g08.bks.cpg/sg64_27_cif.got.tgz:52264.got - 2010.06.03 16:29:19.
