data_PCOD9477929
_publ_section_title
;
Structure prediction by ZEFSAII (Michael W. Deem and Ramdas Pophale) SiO2 
 PCOD9477929
Probable space group: C M C A
;
_chemical_formula_sum "Si O2"
_cell_formula_units_Z 48
_cell_length_a 15.113854
_cell_length_b 26.161953
_cell_length_c 5.318708
_cell_angle_alpha 90.000000
_cell_angle_beta 90.000000
_cell_angle_gamma 90.000000
_cell_volume 2103.059363
_symmetry_space_group_name_H-M "C M C A"
_symmetry_group_IT_number 64
_symmetry_cell_setting 'orthorhombic'
loop_
_space_group_symop_operation_xyz
x,y,z
-x,1/2-y,1/2+z
x,-y,-z
-x,1/2+y,1/2-z
-x,-y,-z
x,1/2+y,1/2-z
-x,y,z
x,1/2-y,1/2+z
1/2+x,1/2+y,z
1/2-x,-y,1/2+z
1/2+x,1/2-y,-z
1/2-x,y,1/2-z
1/2-x,1/2-y,-z
1/2+x,y,1/2-z
1/2-x,1/2+y,z
1/2+x,-y,1/2+z
loop_
_atom_site_type_symbol
_atom_site_label
_atom_site_fract_x
_atom_site_fract_y
_atom_site_fract_z
Si Si1 0.750000 0.127472 0.250000
Si Si2 0.500000 0.283484 0.109232
Si Si3 0.595961 0.642034 0.586142
Si Si4 0.158715 0.451015 0.377015
O O1 0.818497 0.156841 0.427598
O O2 0.689311 0.089955 0.416306
O O3 0.500000 0.243070 0.341196
O O4 0.582471 0.320835 0.173759
O O5 0.500000 0.645646 0.453376
O O6 0.608306 0.583686 0.675683
O O7 0.113475 0.500000 0.500000
O O8 0.250000 0.470206 0.250000
#
# Coordination Sequence:
#
# PCOD9477929 Si02
#       4
#     8   8  16  16
#     4  10  20  38  64  88 138 168 222 262 336 398
#     4  10  24  46  71  95 135 177 228 294 360 394
#     4   9  23  38  64  97 126 176 220 280 337 397
#     4  10  19  35  59  91 131 178 215 263 331 397
#
# _framework density 22.823893000000002
#
# number of rings (size 3 to 8) (size 9 to 14) (size 15 to 20)
#    1.000    1.333    1.667    0.000    4.667    2.000 
#    0.000    3.333    0.000    0.000    0.000    0.000 
#    0.000    0.000    0.000    0.000    0.000    0.000 
#
# Total GULP energy -133809.564839 kJ/mol
# GULP energy per Si atom -5575.398535 kJ/mol
# Density = 2.277195 g / cm^3
# Si number density = 22.823893 Si / 1000 Ang^3
#
#
#
# Elastic Constant Matrix: (Units=GPa)
#
#
# Indices 1 2 3 4 5 6 
#
# 1 87.4992 40.1221 23.5626 0.0000 0.0000 0.0000
# 2 40.1221 93.3699 25.3670 0.0000 0.0000 0.0000
# 3 23.5626 25.3670 65.1758 0.0000 0.0000 0.0000
# 4 0.0000 0.0000 0.0000 51.2838 0.0000 0.0000
# 5 0.0000 0.0000 0.0000 0.0000 -39.7092 0.0000
# 6 0.0000 0.0000 0.0000 0.0000 0.0000 17.8226
#
#
#
# Elastic Compliance Matrix: (Units=1/GPa)
#
#
# Indices 1 2 3 4 5 6 
#
# 1 0.014813 -0.005491 -0.003218 0.000000 0.000000 0.000000
# 2 -0.005491 0.014012 -0.003468 0.000000 0.000000 0.000000
# 3 -0.003218 -0.003468 0.017856 0.000000 0.000000 0.000000
# 4 0.000000 0.000000 0.000000 0.019499 0.000000 0.000000
# 5 0.000000 0.000000 0.000000 0.000000 -0.025183 0.000000
# 6 0.000000 0.000000 0.000000 0.000000 0.000000 0.056108
#
#
# Mechanical properties :
#
#
# Convention : Reuss Voigt Hill
#
# Bulk Modulus (GPa) = 44.79011 47.12758 45.95885
# Shear Modulus (GPa) = 38.78866 16.34567 27.56716
#
# Velocity S-wave (km/s) = 4.12694 2.67903 3.47914
# Velocity P-wave (km/s) = 6.50966 5.50116 6.02654
#
# Compressibility (1/GPa) = 0.02232636
#
# Stress axis : x y z
#
# Youngs Moduli (GPa) = 67.50746 71.36755 56.00206
#
# Poissons Ratio (x) = 0.39188 0.18022
# Poissons Ratio (y) = 0.37069 0.19424
# Poissons Ratio (z) = 0.21725 0.24753
#
# Static dielectric constant tensor:
#      x y z
#    x 1.865530 0.000000 0.000000 
#    y 0.000000 1.833990 0.000000 
#    z 0.000000 0.000000 1.957740 
# 
# From -- ./inp_files/794.got.cif
#   From: 2010.05.17/outbox.cif.g08.bks.cpg/sg64_1_cif.got.tgz:794.got - 2010.06.03 16:29:19.
