data_PCOD9477351
_publ_section_title
;
Structure prediction by ZEFSAII (Michael W. Deem and Ramdas Pophale) SiO2 
 PCOD9477351
Probable space group: C M C A
;
_chemical_formula_sum "Si O2"
_cell_formula_units_Z 80
_cell_length_a 8.740078
_cell_length_b 27.247555
_cell_length_c 18.339774
_cell_angle_alpha 90.000000
_cell_angle_beta 90.000000
_cell_angle_gamma 90.000000
_cell_volume 4367.539344
_symmetry_space_group_name_H-M "C M C A"
_symmetry_group_IT_number 64
_symmetry_cell_setting 'orthorhombic'
loop_
_space_group_symop_operation_xyz
x,y,z
-x,1/2-y,1/2+z
x,-y,-z
-x,1/2+y,1/2-z
-x,-y,-z
x,1/2+y,1/2-z
-x,y,z
x,1/2-y,1/2+z
1/2+x,1/2+y,z
1/2-x,-y,1/2+z
1/2+x,1/2-y,-z
1/2-x,y,1/2-z
1/2-x,1/2-y,-z
1/2+x,y,1/2-z
1/2-x,1/2+y,z
1/2+x,-y,1/2+z
loop_
_atom_site_type_symbol
_atom_site_label
_atom_site_fract_x
_atom_site_fract_y
_atom_site_fract_z
Si Si1 0.816543 0.695219 0.332328
Si Si2 0.818234 0.405122 0.831610
Si Si3 0.183226 0.097347 0.831599
Si Si4 0.316670 0.697602 0.667646
Si Si5 0.816592 0.002430 0.085445
O O1 0.750000 0.696312 0.250000
O O2 0.746852 0.645707 0.365091
O O3 0.778514 0.748818 0.365291
O O4 0.000000 0.690920 0.329094
O O5 0.750000 0.410035 0.750000
O O6 0.766751 0.452145 0.877006
O O7 0.000000 0.401895 0.826419
O O8 0.250000 0.092444 0.750000
O O9 0.247577 0.148002 0.865283
O O10 0.225087 0.049002 0.876652
O O11 0.000000 0.100861 0.827269
O O12 0.500000 0.693514 0.671206
O O13 0.250000 0.698489 0.750000
O O14 0.000000 0.009094 0.094400
O O15 0.782570 0.000000 0.000000
#
# Coordination Sequence:
#
# PCOD9477351 Si02
#       5
#    16  16  16  16  16
#     4   9  16  27  45  71 102 133 163 199 246 295
#     4  11  21  33  53  79 105 134 169 210 252 297
#     4  10  19  31  51  76 101 131 165 204 248 296
#     4   9  16  26  44  71 102 132 161 199 245 293
#     4  10  22  39  55  72  99 135 172 212 260 308
#
# _framework density 18.316949999999999
#
# number of rings (size 3 to 8) (size 9 to 14) (size 15 to 20)
#    0.000    2.200    0.000    6.600    0.000    6.000 
#    0.000    0.000    0.000    1.200    0.000    0.000 
#    0.000    0.000    0.000    0.000    0.000    0.000 
#
# Total GULP energy -223033.218335 kJ/mol
# GULP energy per Si atom -5575.830458 kJ/mol
# Density = 1.827526 g / cm^3
# Si number density = 18.316950 Si / 1000 Ang^3
#
#
#
# Elastic Constant Matrix: (Units=GPa)
#
#
# Indices 1 2 3 4 5 6 
#
# 1 90.3822 87.9198 32.0342 0.0000 0.0000 0.0000
# 2 87.9198 232.0595 52.9293 0.0000 0.0000 0.0000
# 3 32.0342 52.9293 36.6676 0.0000 0.0000 0.0000
# 4 0.0000 0.0000 0.0000 9.2003 0.0000 0.0000
# 5 0.0000 0.0000 0.0000 0.0000 11.9369 0.0000
# 6 0.0000 0.0000 0.0000 0.0000 0.0000 55.6139
#
#
#
# Elastic Compliance Matrix: (Units=1/GPa)
#
#
# Indices 1 2 3 4 5 6 
#
# 1 0.019518 -0.005226 -0.009508 0.000000 0.000000 0.000000
# 2 -0.005226 0.007824 -0.006728 0.000000 0.000000 0.000000
# 3 -0.009508 -0.006728 0.045290 0.000000 0.000000 0.000000
# 4 0.000000 0.000000 0.000000 0.108693 0.000000 0.000000
# 5 0.000000 0.000000 0.000000 0.000000 0.083774 0.000000
# 6 0.000000 0.000000 0.000000 0.000000 0.000000 0.017981
#
#
# Mechanical properties :
#
#
# Convention : Reuss Voigt Hill
#
# Bulk Modulus (GPa) = 33.66073 78.31952 55.99012
# Shear Modulus (GPa) = 14.88521 27.76528 21.32524
#
# Velocity S-wave (km/s) = 2.85379 3.89758 3.41579
# Velocity P-wave (km/s) = 5.41069 7.94391 6.79637
#
# Compressibility (1/GPa) = 0.02970821
#
# Stress axis : x y z
#
# Youngs Moduli (GPa) = 51.23602 127.81638 22.08009
#
# Poissons Ratio (x) = 0.66797 0.20993
# Poissons Ratio (y) = 0.26776 0.14855
# Poissons Ratio (z) = 0.48713 0.85992
#
# Static dielectric constant tensor:
#      x y z
#    x 1.613650 0.000000 0.000000 
#    y 0.000000 1.695770 0.000000 
#    z 0.000000 0.000000 1.585830 
# 
# From -- ./inp_files/29824.got.cif
#   From: 2010.05.17/outbox.cif.g08.bks.cpg/sg64_15_cif.got.tgz:29824.got - 2010.06.03 16:29:19.
