data_PCOD9477491
_publ_section_title
;
Structure prediction by ZEFSAII (Michael W. Deem and Ramdas Pophale) SiO2 
 PCOD9477491
Probable space group: C M C A
;
_chemical_formula_sum "Si O2"
_cell_formula_units_Z 80
_cell_length_a 15.637672
_cell_length_b 29.638345
_cell_length_c 9.320519
_cell_angle_alpha 90.000000
_cell_angle_beta 90.000000
_cell_angle_gamma 90.000000
_cell_volume 4319.824913
_symmetry_space_group_name_H-M "C M C A"
_symmetry_group_IT_number 64
_symmetry_cell_setting 'orthorhombic'
loop_
_space_group_symop_operation_xyz
x,y,z
-x,1/2-y,1/2+z
x,-y,-z
-x,1/2+y,1/2-z
-x,-y,-z
x,1/2+y,1/2-z
-x,y,z
x,1/2-y,1/2+z
1/2+x,1/2+y,z
1/2-x,-y,1/2+z
1/2+x,1/2-y,-z
1/2-x,y,1/2-z
1/2-x,1/2-y,-z
1/2+x,y,1/2-z
1/2-x,1/2+y,z
1/2+x,-y,1/2+z
loop_
_atom_site_type_symbol
_atom_site_label
_atom_site_fract_x
_atom_site_fract_y
_atom_site_fract_z
Si Si1 0.500000 0.556170 0.168303
Si Si2 0.841106 0.212500 0.326259
Si Si3 0.097535 0.710476 0.868636
Si Si4 0.344454 0.392072 0.683662
Si Si5 0.000000 0.448976 0.329412
Si Si6 0.403108 0.890959 0.122064
O O1 0.415530 0.578026 0.237972
O O2 0.500000 0.502354 0.192185
O O3 0.500000 0.562887 0.996556
O O4 0.750000 0.215032 0.250000
O O5 0.841801 0.219854 0.496483
O O6 0.894042 0.252097 0.252197
O O7 0.871146 0.160851 0.304055
O O8 0.116014 0.659153 0.819368
O O9 0.000000 0.711419 0.923211
O O10 0.250000 0.397386 0.750000
O O11 0.344039 0.402317 0.512534
O O12 0.081878 0.426484 0.249005
O O13 0.500000 0.888570 0.057598
#
# Coordination Sequence:
#
# PCOD9477491 Si02
#       6
#     8  16  16  16   8  16
#     4  11  21  39  62  85 114 145 192 245 286 353
#     4  10  21  35  51  79 115 149 186 235 278 327
#     4  10  19  32  54  78 110 147 190 227 269 341
#     4  10  21  37  60  87 114 152 198 235 282 349
#     4   9  21  39  60  85 116 149 184 243 304 341
#     4   8  17  37  58  79 115 152 187 230 287 342
#
# _framework density 18.519269000000001
#
# number of rings (size 3 to 8) (size 9 to 14) (size 15 to 20)
#    0.600    1.800    1.000    1.200    2.800    3.200 
#    0.000    5.000    0.000    0.000    0.000    0.000 
#    0.000    0.000    0.000    0.000    0.000    0.000 
#
# Total GULP energy -222736.522384 kJ/mol
# GULP energy per Si atom -5568.413060 kJ/mol
# Density = 1.847712 g / cm^3
# Si number density = 18.519269 Si / 1000 Ang^3
#
#
#
# Elastic Constant Matrix: (Units=GPa)
#
#
# Indices 1 2 3 4 5 6 
#
# 1 40.0875 35.7595 16.9906 0.0000 0.0000 0.0000
# 2 35.7595 113.8419 85.3540 0.0000 0.0000 0.0000
# 3 16.9906 85.3540 94.8878 0.0000 0.0000 0.0000
# 4 0.0000 0.0000 0.0000 33.3621 0.0000 0.0000
# 5 0.0000 0.0000 0.0000 0.0000 13.0606 0.0000
# 6 0.0000 0.0000 0.0000 0.0000 0.0000 11.9683
#
#
#
# Elastic Compliance Matrix: (Units=1/GPa)
#
#
# Indices 1 2 3 4 5 6 
#
# 1 0.038860 -0.021468 0.012353 0.000000 0.000000 0.000000
# 2 -0.021468 0.038841 -0.031094 0.000000 0.000000 0.000000
# 3 0.012353 -0.031094 0.036297 0.000000 0.000000 0.000000
# 4 0.000000 0.000000 0.000000 0.029974 0.000000 0.000000
# 5 0.000000 0.000000 0.000000 0.000000 0.076566 0.000000
# 6 0.000000 0.000000 0.000000 0.000000 0.000000 0.083554
#
#
# Mechanical properties :
#
#
# Convention : Reuss Voigt Hill
#
# Bulk Modulus (GPa) = 29.78061 58.33615 44.05838
# Shear Modulus (GPa) = 12.63569 19.05906 15.84737
#
# Velocity S-wave (km/s) = 2.61492 3.21151 2.92845
# Velocity P-wave (km/s) = 5.02323 6.73204 5.93941
#
# Compressibility (1/GPa) = 0.03357889
#
# Stress axis : x y z
#
# Youngs Moduli (GPa) = 25.73321 25.74609 27.55060
#
# Poissons Ratio (x) = 0.55273 -0.34034
# Poissons Ratio (y) = 0.55245 0.85666
# Poissons Ratio (z) = -0.31789 0.80055
#
# Static dielectric constant tensor:
#      x y z
#    x 1.674850 0.000000 0.000000 
#    y 0.000000 1.644060 0.000000 
#    z 0.000000 0.000000 1.639940 
# 
# From -- ./inp_files/7181.got.cif
#   From: 2010.05.17/outbox.cif.g08.bks.cpg/sg64_4_cif.got.tgz:7181.got - 2010.06.03 16:29:19.
