data_PCOD9477624
_publ_section_title
;
Structure prediction by ZEFSAII (Michael W. Deem and Ramdas Pophale) SiO2 
 PCOD9477624
Probable space group: C M C A
;
_chemical_formula_sum "Si O2"
_cell_formula_units_Z 96
_cell_length_a 8.951588
_cell_length_b 21.738678
_cell_length_c 23.574725
_cell_angle_alpha 90.000000
_cell_angle_beta 90.000000
_cell_angle_gamma 90.000000
_cell_volume 4587.539857
_symmetry_space_group_name_H-M "C M C A"
_symmetry_group_IT_number 64
_symmetry_cell_setting 'orthorhombic'
loop_
_space_group_symop_operation_xyz
x,y,z
-x,1/2-y,1/2+z
x,-y,-z
-x,1/2+y,1/2-z
-x,-y,-z
x,1/2+y,1/2-z
-x,y,z
x,1/2-y,1/2+z
1/2+x,1/2+y,z
1/2-x,-y,1/2+z
1/2+x,1/2-y,-z
1/2-x,y,1/2-z
1/2-x,1/2-y,-z
1/2+x,y,1/2-z
1/2-x,1/2+y,z
1/2+x,-y,1/2+z
loop_
_atom_site_type_symbol
_atom_site_label
_atom_site_fract_x
_atom_site_fract_y
_atom_site_fract_z
Si Si1 0.176677 0.596420 0.915526
Si Si2 0.173598 0.972587 0.914451
Si Si3 0.675167 0.781335 0.879407
Si Si4 0.179440 0.342072 0.312137
Si Si5 0.673058 0.843547 0.517753
Si Si6 0.323663 0.091024 0.188631
O O1 0.229448 0.529361 0.936197
O O2 0.255445 0.607787 0.855254
O O3 0.000000 0.599614 0.910428
O O4 0.235879 0.646776 0.960230
O O5 0.183914 0.909884 0.950507
O O6 0.236566 0.954839 0.852836
O O7 0.000000 0.991117 0.913442
O O8 0.500000 0.774837 0.893517
O O9 0.720900 0.722658 0.842417
O O10 0.763278 0.794849 0.937286
O O11 0.691262 0.841591 0.839835
O O12 0.250000 0.346125 0.250000
O O13 0.000000 0.345913 0.308718
O O14 0.500000 0.831407 0.505053
O O15 0.500000 0.076206 0.190939
O O16 0.250000 0.090942 0.250000
#
# Coordination Sequence:
#
# PCOD9477624 Si02
#       6
#    16  16  16  16  16  16
#     4  12  25  40  60  86 118 157 197 238 288 346
#     4  10  21  38  59  85 117 153 194 240 292 347
#     4   9  20  38  61  88 118 152 191 239 292 346
#     4  11  24  43  64  87 118 156 198 241 288 343
#     4  10  21  38  63  92 120 151 190 239 292 345
#     4  10  19  33  55  85 117 150 192 240 292 346
#
# _framework density 20.926248000000001
#
# number of rings (size 3 to 8) (size 9 to 14) (size 15 to 20)
#    0.000    1.667    0.000    4.500    0.000    7.333 
#    0.000    3.333    0.000    0.000    0.000    0.000 
#    0.000    0.000    0.000    0.000    0.000    0.000 
#
# Total GULP energy -268529.247584 kJ/mol
# GULP energy per Si atom -5594.359325 kJ/mol
# Density = 2.087862 g / cm^3
# Si number density = 20.926248 Si / 1000 Ang^3
#
#
#
# Elastic Constant Matrix: (Units=GPa)
#
#
# Indices 1 2 3 4 5 6 
#
# 1 102.8291 22.9818 56.8536 0.0000 0.0000 0.0000
# 2 22.9818 56.6829 24.1462 0.0000 0.0000 0.0000
# 3 56.8536 24.1462 129.4915 0.0000 0.0000 0.0000
# 4 0.0000 0.0000 0.0000 22.3501 0.0000 0.0000
# 5 0.0000 0.0000 0.0000 0.0000 37.5869 0.0000
# 6 0.0000 0.0000 0.0000 0.0000 0.0000 24.1842
#
#
#
# Elastic Compliance Matrix: (Units=1/GPa)
#
#
# Indices 1 2 3 4 5 6 
#
# 1 0.013346 -0.003166 -0.005269 0.000000 0.000000 0.000000
# 2 -0.003166 0.019916 -0.002323 0.000000 0.000000 0.000000
# 3 -0.005269 -0.002323 0.010469 0.000000 0.000000 0.000000
# 4 0.000000 0.000000 0.000000 0.044743 0.000000 0.000000
# 5 0.000000 0.000000 0.000000 0.000000 0.026605 0.000000
# 6 0.000000 0.000000 0.000000 0.000000 0.000000 0.041349
#
#
# Mechanical properties :
#
#
# Convention : Reuss Voigt Hill
#
# Bulk Modulus (GPa) = 45.01932 55.21854 50.11893
# Shear Modulus (GPa) = 26.97607 29.15902 28.06755
#
# Velocity S-wave (km/s) = 3.59430 3.73690 3.66630
# Velocity P-wave (km/s) = 6.22779 6.71295 6.47492
#
# Compressibility (1/GPa) = 0.02221269
#
# Stress axis : x y z
#
# Youngs Moduli (GPa) = 74.92999 50.21199 95.51870
#
# Poissons Ratio (x) = 0.15899 0.50329
# Poissons Ratio (y) = 0.23726 0.22193
# Poissons Ratio (z) = 0.39481 0.11666
#
# Static dielectric constant tensor:
#      x y z
#    x 1.694110 0.000000 0.000000 
#    y 0.000000 1.787130 0.000000 
#    z 0.000000 0.000000 1.738390 
# 
# From -- ./inp_files/43063.got.cif
#   From: 2010.05.17/outbox.cif.g08.bks.cpg/sg64_22_cif.got.tgz:43063.got - 2010.06.03 16:29:19.
