data_PCOD9477132
_publ_section_title
;
Structure prediction by ZEFSAII (Michael W. Deem and Ramdas Pophale) SiO2 
 PCOD9477132
Probable space group: C M C A
;
_chemical_formula_sum "Si O2"
_cell_formula_units_Z 104
_cell_length_a 19.951510
_cell_length_b 13.586644
_cell_length_c 16.726584
_cell_angle_alpha 90.000000
_cell_angle_beta 90.000000
_cell_angle_gamma 90.000000
_cell_volume 4534.143096
_symmetry_space_group_name_H-M "C M C A"
_symmetry_group_IT_number 64
_symmetry_cell_setting 'orthorhombic'
loop_
_space_group_symop_operation_xyz
x,y,z
-x,1/2-y,1/2+z
x,-y,-z
-x,1/2+y,1/2-z
-x,-y,-z
x,1/2+y,1/2-z
-x,y,z
x,1/2-y,1/2+z
1/2+x,1/2+y,z
1/2-x,-y,1/2+z
1/2+x,1/2-y,-z
1/2-x,y,1/2-z
1/2-x,1/2-y,-z
1/2+x,y,1/2-z
1/2-x,1/2+y,z
1/2+x,-y,1/2+z
loop_
_atom_site_type_symbol
_atom_site_label
_atom_site_fract_x
_atom_site_fract_y
_atom_site_fract_z
Si Si1 0.428038 0.337901 0.896032
Si Si2 0.888740 0.277986 0.946410
Si Si3 0.075771 0.473398 0.866306
Si Si4 0.614548 0.500000 0.000000
Si Si5 0.312728 0.403436 0.449094
Si Si6 0.173875 0.584759 0.276572
Si Si7 0.183247 0.118590 0.872397
O O1 0.500000 0.317362 0.856344
O O2 0.427418 0.449257 0.930896
O O3 0.363604 0.340185 0.837725
O O4 0.422951 0.274794 0.977648
O O5 0.926913 0.376896 0.922378
O O6 0.866980 0.211297 0.869995
O O7 0.820802 0.319180 0.985561
O O8 0.117573 0.561103 0.908325
O O9 0.123266 0.433777 0.795974
O O10 0.000000 0.501703 0.843901
O O11 0.661226 0.419002 0.039623
O O12 0.291830 0.500000 0.500000
O O13 0.262168 0.366401 0.381434
O O14 0.250000 0.611609 0.250000
O O15 0.176629 0.475724 0.316395
#
# Coordination Sequence:
#
# PCOD9477132 Si02
#       7
#    16  16  16   8  16  16  16
#     4  10  20  37  62  93 127 166 218 272 326 385
#     4  10  23  38  67 101 127 166 220 284 326 383
#     4  11  24  44  65  94 138 183 220 265 337 408
#     4   8  17  30  60  90 121 152 202 266 323 378
#     4  10  20  36  65  92 126 166 212 265 325 389
#     4  11  23  41  65  91 132 180 221 267 332 406
#     4  10  18  37  62  94 125 161 211 271 323 375
#
# _framework density 22.937079000000001
#
# number of rings (size 3 to 8) (size 9 to 14) (size 15 to 20)
#    0.000    1.846    2.308    1.615    0.000    4.615 
#    2.769    3.077    0.000    0.000    0.000    0.000 
#    0.000    0.000    0.000    0.000    0.000    0.000 
#
# Total GULP energy -289505.863617 kJ/mol
# GULP energy per Si atom -5567.420454 kJ/mol
# Density = 2.288487 g / cm^3
# Si number density = 22.937079 Si / 1000 Ang^3
#
#
#
# Elastic Constant Matrix: (Units=GPa)
#
#
# Indices 1 2 3 4 5 6 
#
# 1 158.7146 25.0627 45.7121 0.0000 0.0000 0.0000
# 2 25.0627 40.0235 -6.5306 0.0000 0.0000 0.0000
# 3 45.7121 -6.5306 62.9064 0.0000 0.0000 0.0000
# 4 0.0000 0.0000 0.0000 32.6010 0.0000 0.0000
# 5 0.0000 0.0000 0.0000 0.0000 13.9957 0.0000
# 6 0.0000 0.0000 0.0000 0.0000 0.0000 -23.5718
#
#
#
# Elastic Compliance Matrix: (Units=1/GPa)
#
#
# Indices 1 2 3 4 5 6 
#
# 1 0.009717 -0.007361 -0.007825 0.000000 0.000000 0.000000
# 2 -0.007361 0.030993 0.008567 0.000000 0.000000 0.000000
# 3 -0.007825 0.008567 0.022472 0.000000 0.000000 0.000000
# 4 0.000000 0.000000 0.000000 0.030674 0.000000 0.000000
# 5 0.000000 0.000000 0.000000 0.000000 0.071451 0.000000
# 6 0.000000 0.000000 0.000000 0.000000 0.000000 -0.042424
#
#
# Mechanical properties :
#
#
# Convention : Reuss Voigt Hill
#
# Bulk Modulus (GPa) = 20.02304 43.34812 31.68558
# Shear Modulus (GPa) = 32.72898 17.76501 25.24700
#
# Velocity S-wave (km/s) = 3.78153 2.78602 3.32129
# Velocity P-wave (km/s) = 5.27401 5.41193 5.34341
#
# Compressibility (1/GPa) = 0.04994247
#
# Stress axis : x y z
#
# Youngs Moduli (GPa) = 102.91434 32.26543 44.49933
#
# Poissons Ratio (x) = 0.23752 0.34821
# Poissons Ratio (y) = 0.75760 -0.38122
# Poissons Ratio (z) = 0.80532 -0.27641
#
# Static dielectric constant tensor:
#      x y z
#    x 1.974290 0.000000 0.000000 
#    y 0.000000 1.938520 0.000000 
#    z 0.000000 0.000000 1.902160 
# 
# From -- ./inp_files/34366.got.cif
#   From: 2010.05.17/outbox.cif.g08.bks.cpg/sg64_18_cif.got.tgz:34366.got - 2010.06.03 16:29:19.
