data_PCOD9477424
_publ_section_title
;
Structure prediction by ZEFSAII (Michael W. Deem and Ramdas Pophale) SiO2 
 PCOD9477424
Probable space group: C M C A
;
_chemical_formula_sum "Si O2"
_cell_formula_units_Z 96
_cell_length_a 8.718245
_cell_length_b 28.651587
_cell_length_c 21.806914
_cell_angle_alpha 90.000000
_cell_angle_beta 90.000000
_cell_angle_gamma 90.000000
_cell_volume 5447.182960
_symmetry_space_group_name_H-M "C M C A"
_symmetry_group_IT_number 64
_symmetry_cell_setting 'orthorhombic'
loop_
_space_group_symop_operation_xyz
x,y,z
-x,1/2-y,1/2+z
x,-y,-z
-x,1/2+y,1/2-z
-x,-y,-z
x,1/2+y,1/2-z
-x,y,z
x,1/2-y,1/2+z
1/2+x,1/2+y,z
1/2-x,-y,1/2+z
1/2+x,1/2-y,-z
1/2-x,y,1/2-z
1/2-x,1/2-y,-z
1/2+x,y,1/2-z
1/2-x,1/2+y,z
1/2+x,-y,1/2+z
loop_
_atom_site_type_symbol
_atom_site_label
_atom_site_fract_x
_atom_site_fract_y
_atom_site_fract_z
Si Si1 0.679292 0.100049 0.188010
Si Si2 0.182769 0.535731 0.945373
Si Si3 0.324000 0.364355 0.036410
Si Si4 0.185338 0.764825 0.066561
Si Si5 0.817544 0.502384 0.683635
Si Si6 0.675532 0.326960 0.897009
O O1 0.500000 0.089922 0.194347
O O2 0.750000 0.120374 0.250000
O O3 0.713900 0.136939 0.135974
O O4 0.767702 0.051703 0.177265
O O5 0.225133 0.589012 0.961476
O O6 0.254857 0.525637 0.878567
O O7 0.000000 0.530010 0.940496
O O8 0.235340 0.500000 0.000000
O O9 0.500000 0.376535 0.052796
O O10 0.274102 0.319282 0.076514
O O11 0.326164 0.343547 0.967735
O O12 0.260775 0.725517 0.108996
O O13 0.000000 0.761422 0.066359
O O14 0.250000 0.750000 0.000000
O O15 0.750000 0.518267 0.750000
O O16 0.000000 0.506557 0.686058
O O17 0.500000 0.330210 0.874550
#
# Coordination Sequence:
#
# PCOD9477424 Si02
#       6
#    16  16  16  16  16  16
#     4  11  21  34  52  75 103 134 171 212 257 309
#     4  11  23  36  53  80 111 142 180 225 270 316
#     4   9  19  33  50  74 104 137 172 212 259 309
#     4   9  17  30  48  72 101 133 169 207 252 308
#     4  11  22  38  58  78 106 142 181 221 265 321
#     4  10  19  32  51  76 105 136 171 210 258 312
#
# _framework density 17.623788000000001
#
# number of rings (size 3 to 8) (size 9 to 14) (size 15 to 20)
#    0.000    1.833    0.000    7.500    0.000    8.000 
#    0.000    0.000    0.000    1.000    0.000    0.000 
#    0.000    0.000    0.000    0.000    0.000    0.000 
#
# Total GULP energy -267552.946934 kJ/mol
# GULP energy per Si atom -5574.019728 kJ/mol
# Density = 1.758368 g / cm^3
# Si number density = 17.623788 Si / 1000 Ang^3
#
#
#
# Elastic Constant Matrix: (Units=GPa)
#
#
# Indices 1 2 3 4 5 6 
#
# 1 101.1703 34.3921 31.0424 0.0000 0.0000 0.0000
# 2 34.3921 87.7590 35.1486 0.0000 0.0000 0.0000
# 3 31.0424 35.1486 60.8871 0.0000 0.0000 0.0000
# 4 0.0000 0.0000 0.0000 18.2044 0.0000 0.0000
# 5 0.0000 0.0000 0.0000 0.0000 27.1116 0.0000
# 6 0.0000 0.0000 0.0000 0.0000 0.0000 28.9531
#
#
#
# Elastic Compliance Matrix: (Units=1/GPa)
#
#
# Indices 1 2 3 4 5 6 
#
# 1 0.012297 -0.003002 -0.004536 0.000000 0.000000 0.000000
# 2 -0.003002 0.015555 -0.007449 0.000000 0.000000 0.000000
# 3 -0.004536 -0.007449 0.023037 0.000000 0.000000 0.000000
# 4 0.000000 0.000000 0.000000 0.054932 0.000000 0.000000
# 5 0.000000 0.000000 0.000000 0.000000 0.036885 0.000000
# 6 0.000000 0.000000 0.000000 0.000000 0.000000 0.034539
#
#
# Mechanical properties :
#
#
# Convention : Reuss Voigt Hill
#
# Bulk Modulus (GPa) = 47.81550 50.10914 48.96232
# Shear Modulus (GPa) = 23.34394 24.80272 24.07333
#
# Velocity S-wave (km/s) = 3.64341 3.75553 3.69989
# Velocity P-wave (km/s) = 6.69996 6.87748 6.78930
#
# Compressibility (1/GPa) = 0.02091372
#
# Stress axis : x y z
#
# Youngs Moduli (GPa) = 81.32224 64.28934 43.40935
#
# Poissons Ratio (x) = 0.19301 0.19691
# Poissons Ratio (y) = 0.24414 0.32334
# Poissons Ratio (z) = 0.36890 0.47887
#
# Static dielectric constant tensor:
#      x y z
#    x 1.604770 0.000000 0.000000 
#    y 0.000000 1.614520 0.000000 
#    z 0.000000 0.000000 1.731830 
# 
# From -- ./inp_files/36980.got.cif
#   From: 2010.05.17/outbox.cif.g08.bks.cpg/sg64_19_cif.got.tgz:36980.got - 2010.06.03 16:29:19.
