data_PCOD9477746
_publ_section_title
;
Structure prediction by ZEFSAII (Michael W. Deem and Ramdas Pophale) SiO2 
 PCOD9477746
Probable space group: C M C A
;
_chemical_formula_sum "Si O2"
_cell_formula_units_Z 128
_cell_length_a 18.626457
_cell_length_b 21.332435
_cell_length_c 17.590317
_cell_angle_alpha 90.000000
_cell_angle_beta 90.000000
_cell_angle_gamma 90.000000
_cell_volume 6989.471707
_symmetry_space_group_name_H-M "C M C A"
_symmetry_group_IT_number 64
_symmetry_cell_setting 'orthorhombic'
loop_
_space_group_symop_operation_xyz
x,y,z
-x,1/2-y,1/2+z
x,-y,-z
-x,1/2+y,1/2-z
-x,-y,-z
x,1/2+y,1/2-z
-x,y,z
x,1/2-y,1/2+z
1/2+x,1/2+y,z
1/2-x,-y,1/2+z
1/2+x,1/2-y,-z
1/2-x,y,1/2-z
1/2-x,1/2-y,-z
1/2+x,y,1/2-z
1/2-x,1/2+y,z
1/2+x,-y,1/2+z
loop_
_atom_site_type_symbol
_atom_site_label
_atom_site_fract_x
_atom_site_fract_y
_atom_site_fract_z
Si Si1 0.418724 0.123966 0.191511
Si Si2 0.791451 0.606917 0.426678
Si Si3 0.083724 0.392739 0.302902
Si Si4 0.353365 0.970015 0.923285
Si Si5 0.717254 0.708793 0.327732
Si Si6 0.417920 0.460092 0.843202
Si Si7 0.304761 0.582693 0.683157
Si Si8 0.695129 0.333186 0.088324
O O1 0.500000 0.147740 0.190757
O O2 0.403378 0.080056 0.118671
O O3 0.359474 0.177964 0.190314
O O4 0.409816 0.080058 0.265798
O O5 0.721809 0.564230 0.442815
O O6 0.767938 0.653062 0.358380
O O7 0.858121 0.564375 0.401185
O O8 0.808318 0.647643 0.500890
O O9 0.091137 0.466585 0.324007
O O10 0.129892 0.383418 0.226348
O O11 0.122543 0.353651 0.368585
O O12 0.000000 0.378589 0.294099
O O13 0.334616 0.024434 0.863603
O O14 0.383697 0.000000 0.000000
O O15 0.750000 0.736185 0.250000
O O16 0.709575 0.761137 0.392102
O O17 0.500000 0.451124 0.870766
O O18 0.250000 0.561544 0.750000
O O19 0.258971 0.627153 0.628221
#
# Coordination Sequence:
#
# PCOD9477746 Si02
#       8
#    16  16  16  16  16  16  16  16
#     4  10  22  39  60  85 113 150 197 239 280 337
#     4  11  22  36  58  87 119 151 191 242 290 339
#     4  10  21  36  59  87 116 153 189 232 288 346
#     4  11  21  33  58  90 119 152 188 230 296 341
#     4  11  22  40  62  85 107 152 202 241 279 336
#     4  10  20  36  59  86 116 149 188 236 291 345
#     4  10  19  34  55  81 116 152 187 231 278 339
#     4  11  23  38  57  86 120 151 188 237 290 345
#
# _framework density 18.313258999999999
#
# number of rings (size 3 to 8) (size 9 to 14) (size 15 to 20)
#    0.000    1.500    3.750    3.000    0.000    1.250 
#    0.000    1.250    0.000    0.000    0.000    0.000 
#    0.000    0.000    0.000    0.000    0.000    0.000 
#
# Total GULP energy -357479.355950 kJ/mol
# GULP energy per Si atom -5585.614937 kJ/mol
# Density = 1.827158 g / cm^3
# Si number density = 18.313259 Si / 1000 Ang^3
#
#
#
# Elastic Constant Matrix: (Units=GPa)
#
#
# Indices 1 2 3 4 5 6 
#
# 1 94.4275 3.0876 17.8687 0.0000 0.0000 0.0000
# 2 3.0876 17.8898 -8.1831 0.0000 0.0000 0.0000
# 3 17.8687 -8.1831 56.5012 0.0000 0.0000 0.0000
# 4 0.0000 0.0000 0.0000 26.3273 0.0000 0.0000
# 5 0.0000 0.0000 0.0000 0.0000 9.0170 0.0000
# 6 0.0000 0.0000 0.0000 0.0000 0.0000 10.6441
#
#
#
# Elastic Compliance Matrix: (Units=1/GPa)
#
#
# Indices 1 2 3 4 5 6 
#
# 1 0.011514 -0.003912 -0.004208 0.000000 0.000000 0.000000
# 2 -0.003912 0.061193 0.010100 0.000000 0.000000 0.000000
# 3 -0.004208 0.010100 0.020492 0.000000 0.000000 0.000000
# 4 0.000000 0.000000 0.000000 0.037983 0.000000 0.000000
# 5 0.000000 0.000000 0.000000 0.000000 0.110902 0.000000
# 6 0.000000 0.000000 0.000000 0.000000 0.000000 0.093949
#
#
# Mechanical properties :
#
#
# Convention : Reuss Voigt Hill
#
# Bulk Modulus (GPa) = 10.29243 21.59608 15.94425
# Shear Modulus (GPa) = 13.71892 19.60070 16.65981
#
# Velocity S-wave (km/s) = 2.73998 3.27510 3.01942
# Velocity P-wave (km/s) = 3.95505 5.11076 4.56959
#
# Compressibility (1/GPa) = 0.09715880
#
# Stress axis : x y z
#
# Youngs Moduli (GPa) = 86.84816 16.34181 48.79884
#
# Poissons Ratio (x) = 0.06393 0.20535
# Poissons Ratio (y) = 0.33976 -0.49286
# Poissons Ratio (z) = 0.36546 -0.16505
#
# Static dielectric constant tensor:
#      x y z
#    x 1.616280 0.000000 0.000000 
#    y 0.000000 1.610820 0.000000 
#    z 0.000000 0.000000 1.627970 
# 
# From -- ./inp_files/33796.got.cif
#   From: 2010.05.17/outbox.cif.g08.bks.cpg/sg64_17_cif.got.tgz:33796.got - 2010.06.03 16:29:19.
