data_PCOD9477002
_publ_section_title
;
Structure prediction by ZEFSAII (Michael W. Deem and Ramdas Pophale) SiO2 
 PCOD9477002
Probable space group: C M C A
;
_chemical_formula_sum "Si O2"
_cell_formula_units_Z 80
_cell_length_a 29.719934
_cell_length_b 13.007369
_cell_length_c 8.371781
_cell_angle_alpha 90.000000
_cell_angle_beta 90.000000
_cell_angle_gamma 90.000000
_cell_volume 3236.347596
_symmetry_space_group_name_H-M "C M C A"
_symmetry_group_IT_number 64
_symmetry_cell_setting 'orthorhombic'
loop_
_space_group_symop_operation_xyz
x,y,z
-x,1/2-y,1/2+z
x,-y,-z
-x,1/2+y,1/2-z
-x,-y,-z
x,1/2+y,1/2-z
-x,y,z
x,1/2-y,1/2+z
1/2+x,1/2+y,z
1/2-x,-y,1/2+z
1/2+x,1/2-y,-z
1/2-x,y,1/2-z
1/2-x,1/2-y,-z
1/2+x,y,1/2-z
1/2-x,1/2+y,z
1/2+x,-y,1/2+z
loop_
_atom_site_type_symbol
_atom_site_label
_atom_site_fract_x
_atom_site_fract_y
_atom_site_fract_z
Si Si1 0.799520 0.418554 0.297101
Si Si2 0.100904 0.745005 0.513041
Si Si3 0.615996 0.951631 0.676446
Si Si4 0.802936 0.241175 0.038121
Si Si5 0.553155 0.389150 0.289029
O O1 0.750000 0.458652 0.250000
O O2 0.838657 0.497760 0.252531
O O3 0.805979 0.379921 0.481174
O O4 0.804244 0.310957 0.198611
O O5 0.111309 0.668027 0.362224
O O6 0.151637 0.784354 0.546452
O O7 0.068936 0.833403 0.449594
O O8 0.076699 0.678050 0.647907
O O9 0.574708 0.998438 0.774635
O O10 0.611394 0.000000 0.500000
O O11 0.750000 0.250000 0.000000
O O12 0.500000 0.390159 0.270601
#
# Coordination Sequence:
#
# PCOD9477002 Si02
#       5
#    16  16  16  16  16
#     4  10  19  35  60  90 125 157 202 244 299 365
#     4  11  21  40  64  88 123 160 202 257 311 363
#     4  10  20  37  63  87 121 157 204 254 302 366
#     4  10  18  33  61  89 121 163 198 242 301 364
#     4  11  23  39  62  89 118 158 208 258 312 369
#
# _framework density 24.719221999999998
#
# number of rings (size 3 to 8) (size 9 to 14) (size 15 to 20)
#    0.000    1.600    6.000    0.600    0.000    4.400 
#    0.000    6.000    0.000    2.400    0.000    0.000 
#    0.000    0.000    0.000    0.000    0.000    0.000 
#
# Total GULP energy -222813.243688 kJ/mol
# GULP energy per Si atom -5570.331092 kJ/mol
# Density = 2.466296 g / cm^3
# Si number density = 24.719222 Si / 1000 Ang^3
#
#
#
# Elastic Constant Matrix: (Units=GPa)
#
#
# Indices 1 2 3 4 5 6 
#
# 1 216.5308 38.8723 45.0253 0.0000 0.0000 0.0000
# 2 38.8723 97.5912 45.9486 0.0000 0.0000 0.0000
# 3 45.0253 45.9486 65.7051 0.0000 0.0000 0.0000
# 4 0.0000 0.0000 0.0000 52.0522 0.0000 0.0000
# 5 0.0000 0.0000 0.0000 0.0000 35.4537 0.0000
# 6 0.0000 0.0000 0.0000 0.0000 0.0000 12.4699
#
#
#
# Elastic Compliance Matrix: (Units=1/GPa)
#
#
# Indices 1 2 3 4 5 6 
#
# 1 0.005410 -0.000610 -0.003280 0.000000 0.000000 0.000000
# 2 -0.000610 0.015346 -0.010313 0.000000 0.000000 0.000000
# 3 -0.003280 -0.010313 0.024680 0.000000 0.000000 0.000000
# 4 0.000000 0.000000 0.000000 0.019211 0.000000 0.000000
# 5 0.000000 0.000000 0.000000 0.000000 0.028206 0.000000
# 6 0.000000 0.000000 0.000000 0.000000 0.000000 0.080193
#
#
# Mechanical properties :
#
#
# Convention : Reuss Voigt Hill
#
# Bulk Modulus (GPa) = 58.72915 71.05770 64.89343
# Shear Modulus (GPa) = 24.13950 36.66056 30.40003
#
# Velocity S-wave (km/s) = 3.12837 3.85525 3.51067
# Velocity P-wave (km/s) = 6.07116 6.97321 6.53776
#
# Compressibility (1/GPa) = 0.01702732
#
# Stress axis : x y z
#
# Youngs Moduli (GPa) = 184.84334 65.16483 40.51921
#
# Poissons Ratio (x) = 0.03978 0.13292
# Poissons Ratio (y) = 0.11283 0.41788
# Poissons Ratio (z) = 0.60636 0.67206
#
# Static dielectric constant tensor:
#      x y z
#    x 1.930310 0.000000 0.000000 
#    y 0.000000 1.995080 0.000000 
#    z 0.000000 0.000000 2.090910 
# 
# From -- ./inp_files/18979.got.cif
#   From: 2010.05.17/outbox.cif.g08.bks.cpg/sg64_10_cif.got.tgz:18979.got - 2010.06.03 16:29:19.
