data_PCOD9477140
_publ_section_title
;
Structure prediction by ZEFSAII (Michael W. Deem and Ramdas Pophale) SiO2 
 PCOD9477140
Probable space group: C M C A
;
_chemical_formula_sum "Si O2"
_cell_formula_units_Z 96
_cell_length_a 23.148479
_cell_length_b 27.416634
_cell_length_c 8.340030
_cell_angle_alpha 90.000000
_cell_angle_beta 90.000000
_cell_angle_gamma 90.000000
_cell_volume 5293.028199
_symmetry_space_group_name_H-M "C M C A"
_symmetry_group_IT_number 64
_symmetry_cell_setting 'orthorhombic'
loop_
_space_group_symop_operation_xyz
x,y,z
-x,1/2-y,1/2+z
x,-y,-z
-x,1/2+y,1/2-z
-x,-y,-z
x,1/2+y,1/2-z
-x,y,z
x,1/2-y,1/2+z
1/2+x,1/2+y,z
1/2-x,-y,1/2+z
1/2+x,1/2-y,-z
1/2-x,y,1/2-z
1/2-x,1/2-y,-z
1/2+x,y,1/2-z
1/2-x,1/2+y,z
1/2+x,-y,1/2+z
loop_
_atom_site_type_symbol
_atom_site_label
_atom_site_fract_x
_atom_site_fract_y
_atom_site_fract_z
Si Si1 0.646247 0.710209 0.415829
Si Si2 0.818423 0.192411 0.769947
Si Si3 0.568399 0.635282 0.241511
Si Si4 0.665301 0.892974 0.497746
Si Si5 0.750000 0.347444 0.750000
Si Si6 0.931021 0.472566 0.839210
Si Si7 0.127139 0.500000 0.500000
O O1 0.653439 0.767757 0.388331
O O2 0.649775 0.698820 0.602227
O O3 0.593078 0.682968 0.330320
O O4 0.702754 0.685958 0.335795
O O5 0.750000 0.202635 0.750000
O O6 0.825285 0.138672 0.840035
O O7 0.500000 0.638386 0.212304
O O8 0.605873 0.625415 0.081830
O O9 0.580238 0.585791 0.344447
O O10 0.716272 0.879214 0.620139
O O11 0.662280 0.950427 0.474432
O O12 0.907570 0.491448 0.667174
O O13 0.000000 0.479130 0.834855
O O14 0.909203 0.500000 0.000000
#
# Coordination Sequence:
#
# PCOD9477140 Si02
#       7
#    16  16  16  16   8  16   8
#     4  11  21  35  62  86 116 150 197 247 294 352
#     4  12  22  38  60  91 113 153 206 245 293 356
#     4   9  20  39  59  86 122 157 194 243 299 354
#     4  10  22  38  60  86 119 158 202 242 304 350
#     4  10  18  38  56  82 112 152 192 250 294 352
#     4   9  18  34  60  86 114 159 206 247 288 345
#     4  10  21  38  56  86 126 156 197 250 302 358
#
# _framework density 18.137065
#
# number of rings (size 3 to 8) (size 9 to 14) (size 15 to 20)
#    0.000    1.833    2.500    2.750    2.333    0.667 
#    1.500    4.167    3.667    0.000    0.000    0.000 
#    0.000    0.000    0.000    0.000    0.000    0.000 
#
# Total GULP energy -267759.388935 kJ/mol
# GULP energy per Si atom -5578.320603 kJ/mol
# Density = 1.809578 g / cm^3
# Si number density = 18.137065 Si / 1000 Ang^3
#
#
#
# Elastic Constant Matrix: (Units=GPa)
#
#
# Indices 1 2 3 4 5 6 
#
# 1 48.0392 5.6481 -7.3775 0.0000 0.0000 0.0000
# 2 5.6481 107.3395 22.8416 0.0000 0.0000 0.0000
# 3 -7.3775 22.8416 76.0637 0.0000 0.0000 0.0000
# 4 0.0000 0.0000 0.0000 43.9490 0.0000 0.0000
# 5 0.0000 0.0000 0.0000 0.0000 8.8109 0.0000
# 6 0.0000 0.0000 0.0000 0.0000 0.0000 29.9985
#
#
#
# Elastic Compliance Matrix: (Units=1/GPa)
#
#
# Indices 1 2 3 4 5 6 
#
# 1 0.021409 -0.001676 0.002580 0.000000 0.000000 0.000000
# 2 -0.001676 0.010083 -0.003190 0.000000 0.000000 0.000000
# 3 0.002580 -0.003190 0.014355 0.000000 0.000000 0.000000
# 4 0.000000 0.000000 0.000000 0.022754 0.000000 0.000000
# 5 0.000000 0.000000 0.000000 0.000000 0.113496 0.000000
# 6 0.000000 0.000000 0.000000 0.000000 0.000000 0.033335
#
#
# Mechanical properties :
#
#
# Convention : Reuss Voigt Hill
#
# Bulk Modulus (GPa) = 24.22751 30.40742 27.31746
# Shear Modulus (GPa) = 21.38913 30.57370 25.98142
#
# Velocity S-wave (km/s) = 3.43783 4.11019 3.78895
# Velocity P-wave (km/s) = 5.39863 6.27109 5.85114
#
# Compressibility (1/GPa) = 0.04127539
#
# Stress axis : x y z
#
# Youngs Moduli (GPa) = 46.70824 99.17366 69.66130
#
# Poissons Ratio (x) = 0.16617 -0.17970
# Poissons Ratio (y) = 0.07826 0.22225
# Poissons Ratio (z) = -0.12049 0.31641
#
# Static dielectric constant tensor:
#      x y z
#    x 1.606900 0.000000 0.000000 
#    y 0.000000 1.632280 0.000000 
#    z 0.000000 0.000000 1.645820 
# 
# From -- ./inp_files/9532.got.cif
#   From: 2010.05.17/outbox.cif.g08.bks.cpg/sg64_5_cif.got.tgz:9532.got - 2010.06.03 16:29:19.
