data_PCOD9477693
_publ_section_title
;
Structure prediction by ZEFSAII (Michael W. Deem and Ramdas Pophale) SiO2 
 PCOD9477693
Probable space group: C M C A
;
_chemical_formula_sum "Si O2"
_cell_formula_units_Z 128
_cell_length_a 21.448691
_cell_length_b 20.968483
_cell_length_c 14.788321
_cell_angle_alpha 90.000000
_cell_angle_beta 90.000000
_cell_angle_gamma 90.000000
_cell_volume 6650.995797
_symmetry_space_group_name_H-M "C M C A"
_symmetry_group_IT_number 64
_symmetry_cell_setting 'orthorhombic'
loop_
_space_group_symop_operation_xyz
x,y,z
-x,1/2-y,1/2+z
x,-y,-z
-x,1/2+y,1/2-z
-x,-y,-z
x,1/2+y,1/2-z
-x,y,z
x,1/2-y,1/2+z
1/2+x,1/2+y,z
1/2-x,-y,1/2+z
1/2+x,1/2-y,-z
1/2-x,y,1/2-z
1/2-x,1/2-y,-z
1/2+x,y,1/2-z
1/2-x,1/2+y,z
1/2+x,-y,1/2+z
loop_
_atom_site_type_symbol
_atom_site_label
_atom_site_fract_x
_atom_site_fract_y
_atom_site_fract_z
Si Si1 0.646248 0.215836 0.150491
Si Si2 0.268056 0.614606 0.433034
Si Si3 0.650085 0.620333 0.193463
Si Si4 0.747727 0.200765 0.917472
Si Si5 0.572156 0.833958 0.355367
Si Si6 0.573825 0.928627 0.523793
Si Si7 0.822251 0.367957 0.211450
Si Si8 0.191517 0.008805 0.317874
O O1 0.635341 0.182045 0.246364
O O2 0.671793 0.159702 0.085165
O O3 0.589294 0.260499 0.120936
O O4 0.684553 0.313483 0.364661
O O5 0.217743 0.630358 0.353984
O O6 0.239208 0.633896 0.529744
O O7 0.286986 0.542920 0.409924
O O8 0.334212 0.438283 0.329127
O O9 0.650619 0.560612 0.263038
O O10 0.606016 0.601458 0.111164
O O11 0.702950 0.267015 0.149449
O O12 0.750000 0.250000 0.000000
O O13 0.500000 0.839057 0.327816
O O14 0.582343 0.880716 0.440098
O O15 0.621325 0.854909 0.279003
O O16 0.500000 0.934677 0.540904
O O17 0.597959 0.000000 0.500000
O O18 0.750000 0.370357 0.250000
O O19 0.250000 0.002894 0.250000
#
# Coordination Sequence:
#
# PCOD9477693 Si02
#       8
#    16  16  16  16  16  16  16  16
#     4  10  20  35  56  80 115 158 197 233 303 369
#     4   9  19  34  55  86 115 145 191 247 299 352
#     4  10  19  33  61  82 117 153 193 247 297 366
#     4  10  21  32  55  87 113 151 200 238 292 357
#     4  11  24  39  56  85 122 158 201 254 306 364
#     4  10  22  41  62  86 119 161 208 256 310 370
#     4  11  21  35  59  82 116 156 192 245 304 366
#     4   8  17  33  51  86 116 145 188 241 302 348
#
# _framework density 19.245239000000002
#
# number of rings (size 3 to 8) (size 9 to 14) (size 15 to 20)
#    0.000    2.125    1.250    2.625    5.250    1.000 
#    0.000    0.000    0.000    0.750    0.000    0.875 
#    0.000    0.000    0.000    0.000    0.000    0.000 
#
# Total GULP energy -356330.463573 kJ/mol
# GULP energy per Si atom -5567.663493 kJ/mol
# Density = 1.920144 g / cm^3
# Si number density = 19.245239 Si / 1000 Ang^3
#
#
#
# Elastic Constant Matrix: (Units=GPa)
#
#
# Indices 1 2 3 4 5 6 
#
# 1 77.0543 44.4867 42.4026 0.0000 0.0000 0.0000
# 2 44.4867 114.7356 53.1327 0.0000 0.0000 0.0000
# 3 42.4026 53.1327 89.0514 0.0000 0.0000 0.0000
# 4 0.0000 0.0000 0.0000 40.6424 0.0000 0.0000
# 5 0.0000 0.0000 0.0000 0.0000 25.5749 0.0000
# 6 0.0000 0.0000 0.0000 0.0000 0.0000 22.9509
#
#
#
# Elastic Compliance Matrix: (Units=1/GPa)
#
#
# Indices 1 2 3 4 5 6 
#
# 1 0.019073 -0.004407 -0.006452 0.000000 0.000000 0.000000
# 2 -0.004407 0.013062 -0.005695 0.000000 0.000000 0.000000
# 3 -0.006452 -0.005695 0.017699 0.000000 0.000000 0.000000
# 4 0.000000 0.000000 0.000000 0.024605 0.000000 0.000000
# 5 0.000000 0.000000 0.000000 0.000000 0.039101 0.000000
# 6 0.000000 0.000000 0.000000 0.000000 0.000000 0.043571
#
#
# Mechanical properties :
#
#
# Convention : Reuss Voigt Hill
#
# Bulk Modulus (GPa) = 59.78776 62.32061 61.05419
# Shear Modulus (GPa) = 25.53697 27.22161 26.37929
#
# Velocity S-wave (km/s) = 3.64665 3.76501 3.70630
# Velocity P-wave (km/s) = 6.99031 7.16610 7.07875
#
# Compressibility (1/GPa) = 0.01672583
#
# Stress axis : x y z
#
# Youngs Moduli (GPa) = 52.43024 76.55978 56.49889
#
# Poissons Ratio (x) = 0.33742 0.36454
# Poissons Ratio (y) = 0.23108 0.32174
# Poissons Ratio (z) = 0.33829 0.43599
#
# Static dielectric constant tensor:
#      x y z
#    x 1.674610 0.000000 0.000000 
#    y 0.000000 1.749330 0.000000 
#    z 0.000000 0.000000 1.751530 
# 
# From -- ./inp_files/35190.got.cif
#   From: 2010.05.17/outbox.cif.g08.bks.cpg/sg64_18_cif.got.tgz:35190.got - 2010.06.03 16:29:19.
