data_PCOD9477253
_publ_section_title
;
Structure prediction by ZEFSAII (Michael W. Deem and Ramdas Pophale) SiO2 
 PCOD9477253
Probable space group: C M C A
;
_chemical_formula_sum "Si O2"
_cell_formula_units_Z 80
_cell_length_a 8.635477
_cell_length_b 25.978597
_cell_length_c 21.473075
_cell_angle_alpha 90.000000
_cell_angle_beta 90.000000
_cell_angle_gamma 90.000000
_cell_volume 4817.217614
_symmetry_space_group_name_H-M "C M C A"
_symmetry_group_IT_number 64
_symmetry_cell_setting 'orthorhombic'
loop_
_space_group_symop_operation_xyz
x,y,z
-x,1/2-y,1/2+z
x,-y,-z
-x,1/2+y,1/2-z
-x,-y,-z
x,1/2+y,1/2-z
-x,y,z
x,1/2-y,1/2+z
1/2+x,1/2+y,z
1/2-x,-y,1/2+z
1/2+x,1/2-y,-z
1/2-x,y,1/2-z
1/2-x,1/2-y,-z
1/2+x,y,1/2-z
1/2-x,1/2+y,z
1/2+x,-y,1/2+z
loop_
_atom_site_type_symbol
_atom_site_label
_atom_site_fract_x
_atom_site_fract_y
_atom_site_fract_z
Si Si1 0.815125 0.317713 0.947142
Si Si2 0.687093 0.427515 0.948020
Si Si3 0.812023 0.461322 0.412345
Si Si4 0.814950 0.788595 0.411387
Si Si5 0.314262 0.873304 0.319423
O O1 0.758986 0.373904 0.927090
O O2 0.740357 0.270406 0.910044
O O3 0.000000 0.313888 0.943581
O O4 0.768719 0.309685 0.019912
O O5 0.500000 0.423757 0.946023
O O6 0.735759 0.478918 0.910883
O O7 0.732338 0.438406 0.020148
O O8 0.758997 0.423862 0.357633
O O9 0.000000 0.461475 0.411883
O O10 0.740205 0.824105 0.358997
O O11 0.000000 0.791102 0.406744
O O12 0.500000 0.874058 0.317737
O O13 0.250000 0.872444 0.250000
#
# Coordination Sequence:
#
# PCOD9477253 Si02
#       5
#    16  16  16  16  16
#     4  10  19  30  48  76 106 132 161 209 263 306
#     4   9  15  29  51  74  99 131 166 206 253 304
#     4   8  16  29  49  73  99 131 169 205 247 299
#     4  10  20  33  49  72 101 135 172 207 252 305
#     4  11  21  35  53  74 102 136 171 209 248 295
#
# _framework density 16.607097
#
# number of rings (size 3 to 8) (size 9 to 14) (size 15 to 20)
#    0.000    2.400    2.000    3.000    0.000    1.600 
#    0.000    4.000    0.000    1.200    0.000    5.600 
#    0.000    0.000    0.000    0.000    0.000    0.000 
#
# Total GULP energy -223050.228240 kJ/mol
# GULP energy per Si atom -5576.255706 kJ/mol
# Density = 1.656930 g / cm^3
# Si number density = 16.607097 Si / 1000 Ang^3
#
#
#
# Elastic Constant Matrix: (Units=GPa)
#
#
# Indices 1 2 3 4 5 6 
#
# 1 33.4743 33.8208 28.7681 0.0000 0.0000 0.0000
# 2 33.8208 170.5407 68.0488 0.0000 0.0000 0.0000
# 3 28.7681 68.0488 94.3324 0.0000 0.0000 0.0000
# 4 0.0000 0.0000 0.0000 17.9570 0.0000 0.0000
# 5 0.0000 0.0000 0.0000 0.0000 17.7855 0.0000
# 6 0.0000 0.0000 0.0000 0.0000 0.0000 26.4224
#
#
#
# Elastic Compliance Matrix: (Units=1/GPa)
#
#
# Indices 1 2 3 4 5 6 
#
# 1 0.042928 -0.004619 -0.009759 0.000000 0.000000 0.000000
# 2 -0.004619 0.008731 -0.004889 0.000000 0.000000 0.000000
# 3 -0.009759 -0.004889 0.017104 0.000000 0.000000 0.000000
# 4 0.000000 0.000000 0.000000 0.055689 0.000000 0.000000
# 5 0.000000 0.000000 0.000000 0.000000 0.056226 0.000000
# 6 0.000000 0.000000 0.000000 0.000000 0.000000 0.037847
#
#
# Mechanical properties :
#
#
# Convention : Reuss Voigt Hill
#
# Bulk Modulus (GPa) = 33.08310 62.18031 47.63170
# Shear Modulus (GPa) = 18.71712 23.61362 21.16537
#
# Velocity S-wave (km/s) = 3.36081 3.77490 3.57386
# Velocity P-wave (km/s) = 5.91814 7.51819 6.76563
#
# Compressibility (1/GPa) = 0.03022692
#
# Stress axis : x y z
#
# Youngs Moduli (GPa) = 23.29488 114.53822 58.46513
#
# Poissons Ratio (x) = 0.52906 0.57059
# Poissons Ratio (y) = 0.10760 0.28586
# Poissons Ratio (z) = 0.22734 0.56003
#
# Static dielectric constant tensor:
#      x y z
#    x 1.554250 0.000000 0.000000 
#    y 0.000000 1.571130 0.000000 
#    z 0.000000 0.000000 1.532030 
# 
# From -- ./inp_files/29805.got.cif
#   From: 2010.05.17/outbox.cif.g08.bks.cpg/sg64_15_cif.got.tgz:29805.got - 2010.06.03 16:29:19.
