data_PCOD9477790
_publ_section_title
;
Structure prediction by ZEFSAII (Michael W. Deem and Ramdas Pophale) SiO2 
 PCOD9477790
Probable space group: C M C A
;
_chemical_formula_sum "Si O2"
_cell_formula_units_Z 80
_cell_length_a 9.918493
_cell_length_b 15.795657
_cell_length_c 25.321663
_cell_angle_alpha 90.000000
_cell_angle_beta 90.000000
_cell_angle_gamma 90.000000
_cell_volume 3967.122492
_symmetry_space_group_name_H-M "C M C A"
_symmetry_group_IT_number 64
_symmetry_cell_setting 'orthorhombic'
loop_
_space_group_symop_operation_xyz
x,y,z
-x,1/2-y,1/2+z
x,-y,-z
-x,1/2+y,1/2-z
-x,-y,-z
x,1/2+y,1/2-z
-x,y,z
x,1/2-y,1/2+z
1/2+x,1/2+y,z
1/2-x,-y,1/2+z
1/2+x,1/2-y,-z
1/2-x,y,1/2-z
1/2-x,1/2-y,-z
1/2+x,y,1/2-z
1/2-x,1/2+y,z
1/2+x,-y,1/2+z
loop_
_atom_site_type_symbol
_atom_site_label
_atom_site_fract_x
_atom_site_fract_y
_atom_site_fract_z
Si Si1 0.357119 0.436153 0.451979
Si Si2 0.841919 0.169807 0.010497
Si Si3 0.658530 0.347012 0.865189
Si Si4 0.346713 0.006190 0.164883
Si Si5 0.839034 0.683127 0.799379
O O1 0.370286 0.500000 0.500000
O O2 0.500000 0.383956 0.450845
O O3 0.217619 0.391887 0.466002
O O4 0.352490 0.483736 0.397095
O O5 0.818453 0.143334 0.071710
O O6 0.000000 0.183337 0.003932
O O7 0.750000 0.250000 0.000000
O O8 0.500000 0.363070 0.855732
O O9 0.747554 0.413955 0.832177
O O10 0.686099 0.250078 0.846800
O O11 0.500000 0.026263 0.182723
O O12 0.304731 0.915371 0.189083
O O13 0.750000 0.711238 0.750000
O O14 0.000000 0.685693 0.788990
#
# Coordination Sequence:
#
# PCOD9477790 Si02
#       5
#    16  16  16  16  16
#     4  10  19  34  57  84 118 155 191 231 282 345
#     4  11  22  35  55  83 119 158 198 240 287 344
#     4  10  22  40  61  86 119 155 196 245 295 349
#     4  10  21  39  63  89 121 158 197 242 297 356
#     4  10  23  43  63  85 116 153 195 249 305 357
#
# _framework density 20.165751
#
# number of rings (size 3 to 8) (size 9 to 14) (size 15 to 20)
#    0.000    1.800    2.000    1.800    0.000    7.600 
#    0.000    6.000    0.000    0.000    0.000    0.000 
#    0.000    0.000    0.000    0.000    0.000    0.000 
#
# Total GULP energy -222875.889376 kJ/mol
# GULP energy per Si atom -5571.897234 kJ/mol
# Density = 2.011985 g / cm^3
# Si number density = 20.165751 Si / 1000 Ang^3
#
#
#
# Elastic Constant Matrix: (Units=GPa)
#
#
# Indices 1 2 3 4 5 6 
#
# 1 104.3108 57.6325 16.9812 0.0000 0.0000 0.0000
# 2 57.6325 80.1497 -5.4769 0.0000 0.0000 0.0000
# 3 16.9812 -5.4769 37.6467 0.0000 0.0000 0.0000
# 4 0.0000 0.0000 0.0000 25.5897 0.0000 0.0000
# 5 0.0000 0.0000 0.0000 0.0000 27.0279 0.0000
# 6 0.0000 0.0000 0.0000 0.0000 0.0000 45.9713
#
#
#
# Elastic Compliance Matrix: (Units=1/GPa)
#
#
# Indices 1 2 3 4 5 6 
#
# 1 0.019559 -0.014814 -0.010977 0.000000 0.000000 0.000000
# 2 -0.014814 0.023822 0.010148 0.000000 0.000000 0.000000
# 3 -0.010977 0.010148 0.032991 0.000000 0.000000 0.000000
# 4 0.000000 0.000000 0.000000 0.039078 0.000000 0.000000
# 5 0.000000 0.000000 0.000000 0.000000 0.036999 0.000000
# 6 0.000000 0.000000 0.000000 0.000000 0.000000 0.021753
#
#
# Mechanical properties :
#
#
# Convention : Reuss Voigt Hill
#
# Bulk Modulus (GPa) = 22.18064 40.04229 31.11146
# Shear Modulus (GPa) = 22.67404 29.91581 26.29492
#
# Velocity S-wave (km/s) = 3.35682 3.85580 3.61493
# Velocity P-wave (km/s) = 5.10366 6.30258 5.73454
#
# Compressibility (1/GPa) = 0.04508437
#
# Stress axis : x y z
#
# Youngs Moduli (GPa) = 51.12836 41.97762 30.31160
#
# Poissons Ratio (x) = 0.62185 0.33274
# Poissons Ratio (y) = 0.75741 -0.30760
# Poissons Ratio (z) = 0.56126 -0.42598
#
# Static dielectric constant tensor:
#      x y z
#    x 1.934250 0.000000 0.000000 
#    y 0.000000 1.826270 0.000000 
#    z 0.000000 0.000000 1.713360 
# 
# From -- ./inp_files/47866.got.cif
#   From: 2010.05.17/outbox.cif.g08.bks.cpg/sg64_24_cif.got.tgz:47866.got - 2010.06.03 16:29:19.
