data_PCOD9477152
_publ_section_title
;
Structure prediction by ZEFSAII (Michael W. Deem and Ramdas Pophale) SiO2 
 PCOD9477152
Probable space group: C M C A
;
_chemical_formula_sum "Si O2"
_cell_formula_units_Z 64
_cell_length_a 12.772563
_cell_length_b 15.883434
_cell_length_c 13.975289
_cell_angle_alpha 90.000000
_cell_angle_beta 90.000000
_cell_angle_gamma 90.000000
_cell_volume 2835.197086
_symmetry_space_group_name_H-M "C M C A"
_symmetry_group_IT_number 64
_symmetry_cell_setting 'orthorhombic'
loop_
_space_group_symop_operation_xyz
x,y,z
-x,1/2-y,1/2+z
x,-y,-z
-x,1/2+y,1/2-z
-x,-y,-z
x,1/2+y,1/2-z
-x,y,z
x,1/2-y,1/2+z
1/2+x,1/2+y,z
1/2-x,-y,1/2+z
1/2+x,1/2-y,-z
1/2-x,y,1/2-z
1/2-x,1/2-y,-z
1/2+x,y,1/2-z
1/2-x,1/2+y,z
1/2+x,-y,1/2+z
loop_
_atom_site_type_symbol
_atom_site_label
_atom_site_fract_x
_atom_site_fract_y
_atom_site_fract_z
Si Si1 0.000000 0.862243 0.381154
Si Si2 0.500000 0.922882 0.338975
Si Si3 0.318039 0.552655 0.153687
Si Si4 0.000000 0.314161 0.670394
Si Si5 0.500000 0.759413 0.877566
Si Si6 0.186163 0.660700 0.014787
O O1 0.000000 0.760481 0.405147
O O2 0.114474 0.879114 0.429233
O O3 0.000000 0.905308 0.276418
O O4 0.500000 0.838592 0.402257
O O5 0.605499 0.973765 0.362664
O O6 0.250000 0.539903 0.250000
O O7 0.398997 0.628930 0.171059
O O8 0.253101 0.587313 0.063898
O O9 0.000000 0.258007 0.764069
O O10 0.600491 0.810409 0.908497
O O11 0.250000 0.750000 0.000000
#
# Coordination Sequence:
#
# PCOD9477152 Si02
#       6
#     8   8  16   8   8  16
#     4  10  22  41  66 104 135 173 229 293 334 393
#     4  10  26  44  66  96 144 179 222 277 347 412
#     4  11  22  41  66  97 133 180 220 274 342 410
#     4  10  18  38  68  92 129 170 230 273 317 412
#     4  10  22  41  66  98 126 178 233 280 325 404
#     4  11  22  39  71 100 132 174 232 284 339 401
#
# _framework density 22.573385999999999
#
# number of rings (size 3 to 8) (size 9 to 14) (size 15 to 20)
#    0.000    1.500    5.000    0.000    0.000    2.000 
#    0.000    7.500    0.000    0.000    0.000    0.000 
#    0.000    0.000    0.000    0.000    0.000    0.000 
#
# Total GULP energy -178422.117952 kJ/mol
# GULP energy per Si atom -5575.691186 kJ/mol
# Density = 2.252201 g / cm^3
# Si number density = 22.573386 Si / 1000 Ang^3
#
#
#
# Elastic Constant Matrix: (Units=GPa)
#
#
# Indices 1 2 3 4 5 6 
#
# 1 140.0254 50.3821 37.7782 0.0000 0.0000 0.0000
# 2 50.3821 108.3413 34.3177 0.0000 0.0000 0.0000
# 3 37.7782 34.3177 51.3064 0.0000 0.0000 0.0000
# 4 0.0000 0.0000 0.0000 30.2346 0.0000 0.0000
# 5 0.0000 0.0000 0.0000 0.0000 32.2215 0.0000
# 6 0.0000 0.0000 0.0000 0.0000 0.0000 354.2317
#
#
#
# Elastic Compliance Matrix: (Units=1/GPa)
#
#
# Indices 1 2 3 4 5 6 
#
# 1 0.009540 -0.002806 -0.005148 0.000000 0.000000 0.000000
# 2 -0.002806 0.012537 -0.006319 0.000000 0.000000 0.000000
# 3 -0.005148 -0.006319 0.027508 0.000000 0.000000 0.000000
# 4 0.000000 0.000000 0.000000 0.033075 0.000000 0.000000
# 5 0.000000 0.000000 0.000000 0.000000 0.031035 0.000000
# 6 0.000000 0.000000 0.000000 0.000000 0.000000 0.002823
#
#
# Mechanical properties :
#
#
# Convention : Reuss Voigt Hill
#
# Bulk Modulus (GPa) = 47.53166 60.51435 54.02301
# Shear Modulus (GPa) = 32.87819 95.15057 64.01438
#
# Velocity S-wave (km/s) = 3.82056 6.49947 5.33103
# Velocity P-wave (km/s) = 6.36902 9.12087 7.86621
#
# Compressibility (1/GPa) = 0.02103861
#
# Stress axis : x y z
#
# Youngs Moduli (GPa) = 104.82242 79.76642 36.35284
#
# Poissons Ratio (x) = 0.22381 0.18714
# Poissons Ratio (y) = 0.29411 0.22973
# Poissons Ratio (z) = 0.53960 0.50408
#
# Static dielectric constant tensor:
#      x y z
#    x 1.961830 0.000000 0.000000 
#    y 0.000000 1.857780 0.000000 
#    z 0.000000 0.000000 1.926610 
# 
# From -- ./inp_files/22028.got.cif
#   From: 2010.05.17/outbox.cif.g08.bks.cpg/sg64_12_cif.got.tgz:22028.got - 2010.06.03 16:29:19.
