data_PCOD9477951
_publ_section_title
;
Structure prediction by ZEFSAII (Michael W. Deem and Ramdas Pophale) SiO2 
 PCOD9477951
Probable space group: C M C A
;
_chemical_formula_sum "Si O2"
_cell_formula_units_Z 80
_cell_length_a 14.897451
_cell_length_b 19.962710
_cell_length_c 11.875040
_cell_angle_alpha 90.000000
_cell_angle_beta 90.000000
_cell_angle_gamma 90.000000
_cell_volume 3531.559638
_symmetry_space_group_name_H-M "C M C A"
_symmetry_group_IT_number 64
_symmetry_cell_setting 'orthorhombic'
loop_
_space_group_symop_operation_xyz
x,y,z
-x,1/2-y,1/2+z
x,-y,-z
-x,1/2+y,1/2-z
-x,-y,-z
x,1/2+y,1/2-z
-x,y,z
x,1/2-y,1/2+z
1/2+x,1/2+y,z
1/2-x,-y,1/2+z
1/2+x,1/2-y,-z
1/2-x,y,1/2-z
1/2-x,1/2-y,-z
1/2+x,y,1/2-z
1/2-x,1/2+y,z
1/2+x,-y,1/2+z
loop_
_atom_site_type_symbol
_atom_site_label
_atom_site_fract_x
_atom_site_fract_y
_atom_site_fract_z
Si Si1 0.699661 0.922024 0.013107
Si Si2 0.101001 0.451557 0.220678
Si Si3 0.000000 0.734279 0.521505
Si Si4 0.500000 0.708390 0.223984
Si Si5 0.148626 0.108425 0.284901
Si Si6 0.097482 0.603990 0.527776
O O1 0.669843 0.911244 0.140941
O O2 0.805116 0.916479 0.984024
O O3 0.644384 0.881353 0.920351
O O4 0.675213 0.000000 0.000000
O O5 0.125898 0.530062 0.233256
O O6 0.099824 0.420859 0.344069
O O7 0.000000 0.447657 0.172233
O O8 0.000000 0.766299 0.646268
O O9 0.085194 0.683673 0.526542
O O10 0.000000 0.756354 0.387728
O O11 0.584709 0.658375 0.219749
O O12 0.250000 0.120033 0.250000
O O13 0.000000 0.578735 0.479987
#
# Coordination Sequence:
#
# PCOD9477951 Si02
#       6
#    16  16   8   8  16  16
#     4  10  20  33  59  96 137 166 211 254 321 406
#     4  10  19  35  62 101 139 170 205 254 327 400
#     4  10  26  45  69  88 126 169 232 268 335 378
#     4  12  26  49  68  92 130 171 227 290 323 388
#     4  11  23  39  64  95 131 172 215 265 328 390
#     4   9  20  39  62  90 130 165 209 262 321 391
#
# _framework density 22.65288
#
# number of rings (size 3 to 8) (size 9 to 14) (size 15 to 20)
#    0.600    1.200    1.000    4.200    1.400    3.200 
#    0.000    6.000    0.000    0.000    0.000    0.000 
#    0.000    0.000    0.000    0.000    0.000    0.000 
#
# Total GULP energy -222891.882918 kJ/mol
# GULP energy per Si atom -5572.297073 kJ/mol
# Density = 2.260132 g / cm^3
# Si number density = 22.652880 Si / 1000 Ang^3
#
#
#
# Elastic Constant Matrix: (Units=GPa)
#
#
# Indices 1 2 3 4 5 6 
#
# 1 89.6788 8.4377 27.3264 0.0000 0.0000 0.0000
# 2 8.4377 22.2340 31.9922 0.0000 0.0000 0.0000
# 3 27.3264 31.9922 157.4274 0.0000 0.0000 0.0000
# 4 0.0000 0.0000 0.0000 32.2160 0.0000 0.0000
# 5 0.0000 0.0000 0.0000 0.0000 32.3164 0.0000
# 6 0.0000 0.0000 0.0000 0.0000 0.0000 2.9727
#
#
#
# Elastic Compliance Matrix: (Units=1/GPa)
#
#
# Indices 1 2 3 4 5 6 
#
# 1 0.011847 -0.002172 -0.001615 0.000000 0.000000 0.000000
# 2 -0.002172 0.063961 -0.012621 0.000000 0.000000 0.000000
# 3 -0.001615 -0.012621 0.009197 0.000000 0.000000 0.000000
# 4 0.000000 0.000000 0.000000 0.031040 0.000000 0.000000
# 5 0.000000 0.000000 0.000000 0.000000 0.030944 0.000000
# 6 0.000000 0.000000 0.000000 0.000000 0.000000 0.336392
#
#
# Mechanical properties :
#
#
# Convention : Reuss Voigt Hill
#
# Bulk Modulus (GPa) = 19.16112 44.98366 32.07239
# Shear Modulus (GPa) = 9.37042 26.93995 18.15518
#
# Velocity S-wave (km/s) = 2.03605 3.45229 2.83406
# Velocity P-wave (km/s) = 3.74223 5.98264 4.98980
#
# Compressibility (1/GPa) = 0.05218901
#
# Stress axis : x y z
#
# Youngs Moduli (GPa) = 84.40660 15.63461 108.72764
#
# Poissons Ratio (x) = 0.03396 0.17560
# Poissons Ratio (y) = 0.18334 1.37225
# Poissons Ratio (z) = 0.13632 0.19732
#
# Static dielectric constant tensor:
#      x y z
#    x 1.861920 0.000000 0.000000 
#    y 0.000000 1.816860 0.000000 
#    z 0.000000 0.000000 1.989210 
# 
# From -- ./inp_files/14506.got.cif
#   From: 2010.05.17/outbox.cif.g08.bks.cpg/sg64_8_cif.got.tgz:14506.got - 2010.06.03 16:29:19.
