data_PCOD9477048
_publ_section_title
;
Structure prediction by ZEFSAII (Michael W. Deem and Ramdas Pophale) SiO2 
 PCOD9477048
Probable space group: C M C A
;
_chemical_formula_sum "Si O2"
_cell_formula_units_Z 60
_cell_length_a 17.585050
_cell_length_b 8.325604
_cell_length_c 15.364269
_cell_angle_alpha 90.000000
_cell_angle_beta 90.000000
_cell_angle_gamma 90.000000
_cell_volume 2249.423666
_symmetry_space_group_name_H-M "C M C A"
_symmetry_group_IT_number 64
_symmetry_cell_setting 'orthorhombic'
loop_
_space_group_symop_operation_xyz
x,y,z
-x,1/2-y,1/2+z
x,-y,-z
-x,1/2+y,1/2-z
-x,-y,-z
x,1/2+y,1/2-z
-x,y,z
x,1/2-y,1/2+z
1/2+x,1/2+y,z
1/2-x,-y,1/2+z
1/2+x,1/2-y,-z
1/2-x,y,1/2-z
1/2-x,1/2-y,-z
1/2+x,y,1/2-z
1/2-x,1/2+y,z
1/2+x,-y,1/2+z
loop_
_atom_site_type_symbol
_atom_site_label
_atom_site_fract_x
_atom_site_fract_y
_atom_site_fract_z
Si Si1 0.000000 0.616157 0.109288
Si Si2 0.000000 0.890274 0.257294
Si Si3 0.376116 0.500000 0.500000
Si Si4 0.131469 0.501950 0.349392
Si Si5 0.268823 0.203028 0.900179
Si Si6 0.500000 0.500000 0.000000
O O1 0.000000 0.427294 0.139350
O O2 0.000000 0.736797 0.191457
O O3 0.070548 0.635505 0.043619
O O4 0.079019 0.976617 0.233481
O O5 0.324990 0.555926 0.580142
O O6 0.191880 0.357959 0.357263
O O7 0.183326 0.660181 0.353038
O O8 0.067927 0.510701 0.424872
O O9 0.250000 0.250000 0.000000
#
# Coordination Sequence:
#
# PCOD9477048 Si02
#       6
#     8   8   8  16  16   4
#     4  11  28  48  74 107 147 193 244 304 367 440
#     4  11  28  50  72 105 148 195 241 302 380 441
#     4  11  25  42  79 105 146 190 254 301 355 440
#     4  11  24  38  72  98 154 184 240 297 364 434
#     4  12  20  40  68 110 142 188 240 302 357 429
#     4  10  18  34  60 106 128 194 228 290 346 420
#
# _framework density 26.673499
#
# number of rings (size 3 to 8) (size 9 to 14) (size 15 to 20)
#    0.000    0.800    5.333    1.600    7.467    2.133 
#    0.000    1.333    5.867    0.000    0.000    0.000 
#    0.000    0.000    0.000    0.000    0.000    0.000 
#
# Total GULP energy -167328.964809 kJ/mol
# GULP energy per Si atom -5577.632160 kJ/mol
# Density = 2.661279 g / cm^3
# Si number density = 26.673499 Si / 1000 Ang^3
#
#
#
# Elastic Constant Matrix: (Units=GPa)
#
#
# Indices 1 2 3 4 5 6 
#
# 1 232.4046 70.2365 36.9378 0.0000 0.0000 0.0000
# 2 70.2365 109.0179 24.3624 0.0000 0.0000 0.0000
# 3 36.9378 24.3624 84.8461 0.0000 0.0000 0.0000
# 4 0.0000 0.0000 0.0000 37.0455 0.0000 0.0000
# 5 0.0000 0.0000 0.0000 0.0000 35.5670 0.0000
# 6 0.0000 0.0000 0.0000 0.0000 0.0000 32.6261
#
#
#
# Elastic Compliance Matrix: (Units=1/GPa)
#
#
# Indices 1 2 3 4 5 6 
#
# 1 0.005511 -0.003221 -0.001474 0.000000 0.000000 0.000000
# 2 -0.003221 0.011684 -0.001953 0.000000 0.000000 0.000000
# 3 -0.001474 -0.001953 0.012989 0.000000 0.000000 0.000000
# 4 0.000000 0.000000 0.000000 0.026994 0.000000 0.000000
# 5 0.000000 0.000000 0.000000 0.000000 0.028116 0.000000
# 6 0.000000 0.000000 0.000000 0.000000 0.000000 0.030650
#
#
# Mechanical properties :
#
#
# Convention : Reuss Voigt Hill
#
# Bulk Modulus (GPa) = 59.21456 76.59357 67.90406
# Shear Modulus (GPa) = 37.07320 40.69650 38.88485
#
# Velocity S-wave (km/s) = 3.73217 3.91029 3.82227
# Velocity P-wave (km/s) = 6.38906 7.01176 6.70764
#
# Compressibility (1/GPa) = 0.01688774
#
# Stress axis : x y z
#
# Youngs Moduli (GPa) = 181.47082 85.58528 76.99077
#
# Poissons Ratio (x) = 0.27565 0.11350
# Poissons Ratio (y) = 0.58448 0.15035
# Poissons Ratio (z) = 0.26753 0.16713
#
# Static dielectric constant tensor:
#      x y z
#    x 2.820960 0.000000 0.000000 
#    y 0.000000 2.351720 0.000000 
#    z 0.000000 0.000000 2.023890 
# 
# From -- ./inp_files/32713.got.cif
#   From: 2010.05.17/outbox.cif.g08.bks.cpg/sg64_17_cif.got.tgz:32713.got - 2010.06.03 16:29:19.
