data_PCOD9477515
_publ_section_title
;
Structure prediction by ZEFSAII (Michael W. Deem and Ramdas Pophale) SiO2 
 PCOD9477515
Probable space group: C M C A
;
_chemical_formula_sum "Si O2"
_cell_formula_units_Z 120
_cell_length_a 21.602435
_cell_length_b 12.759254
_cell_length_c 18.766628
_cell_angle_alpha 90.000000
_cell_angle_beta 90.000000
_cell_angle_gamma 90.000000
_cell_volume 5172.663601
_symmetry_space_group_name_H-M "C M C A"
_symmetry_group_IT_number 64
_symmetry_cell_setting 'orthorhombic'
loop_
_space_group_symop_operation_xyz
x,y,z
-x,1/2-y,1/2+z
x,-y,-z
-x,1/2+y,1/2-z
-x,-y,-z
x,1/2+y,1/2-z
-x,y,z
x,1/2-y,1/2+z
1/2+x,1/2+y,z
1/2-x,-y,1/2+z
1/2+x,1/2-y,-z
1/2-x,y,1/2-z
1/2-x,1/2-y,-z
1/2+x,y,1/2-z
1/2-x,1/2+y,z
1/2+x,-y,1/2+z
loop_
_atom_site_type_symbol
_atom_site_label
_atom_site_fract_x
_atom_site_fract_y
_atom_site_fract_z
Si Si1 0.195591 0.965140 0.300259
Si Si2 0.123098 0.814267 0.883096
Si Si3 0.429958 0.442644 0.566475
Si Si4 0.230803 0.848417 0.625707
Si Si5 0.250000 0.268578 0.250000
Si Si6 0.136571 0.733968 0.549558
Si Si7 0.930196 0.390825 0.194275
Si Si8 0.930513 0.969071 0.083888
O O1 0.250000 0.008915 0.250000
O O2 0.219033 0.846234 0.307133
O O3 0.128111 0.946489 0.266014
O O4 0.202687 0.034401 0.370939
O O5 0.195006 0.846242 0.870610
O O6 0.092817 0.722502 0.834958
O O7 0.085961 0.923179 0.876923
O O8 0.120888 0.776604 0.965980
O O9 0.398023 0.500000 0.500000
O O10 0.500000 0.416102 0.544090
O O11 0.400952 0.330907 0.583131
O O12 0.433109 0.528450 0.628053
O O13 0.205776 0.799076 0.700561
O O14 0.205629 0.774269 0.564120
O O15 0.118168 0.625938 0.588064
O O16 0.000000 0.384057 0.224482
O O17 0.000000 0.933080 0.101765
O O18 0.930246 0.000000 0.000000
#
# Coordination Sequence:
#
# PCOD9477515 Si02
#       8
#    16  16  16  16   8  16  16  16
#     4  10  22  41  65  91 116 161 209 267 323 378
#     4  11  22  37  58  92 129 168 200 253 314 378
#     4  10  19  32  56  88 124 165 200 245 310 374
#     4  12  23  39  62  92 118 160 213 258 313 381
#     4  10  22  42  66  82 112 160 216 256 314 368
#     4  11  22  36  57  91 132 164 203 255 311 380
#     4  11  21  37  64  96 124 155 209 266 315 373
#     4   9  20  36  54  80 121 171 207 234 289 371
#
# _framework density 23.198879999999999
#
# number of rings (size 3 to 8) (size 9 to 14) (size 15 to 20)
#    0.400    1.067    4.667    1.200    1.867    1.067 
#    0.000    0.667    0.000    7.200    0.000    0.000 
#    0.000    0.000    0.000    0.000    0.000    0.000 
#
# Total GULP energy -334137.093459 kJ/mol
# GULP energy per Si atom -5568.951558 kJ/mol
# Density = 2.314608 g / cm^3
# Si number density = 23.198880 Si / 1000 Ang^3
#
#
#
# Elastic Constant Matrix: (Units=GPa)
#
#
# Indices 1 2 3 4 5 6 
#
# 1 138.1430 37.4349 4.9312 0.0000 0.0000 0.0000
# 2 37.4349 118.6460 20.5369 0.0000 0.0000 0.0000
# 3 4.9312 20.5369 36.5167 0.0000 0.0000 0.0000
# 4 0.0000 0.0000 0.0000 16.3402 0.0000 0.0000
# 5 0.0000 0.0000 0.0000 0.0000 16.2318 0.0000
# 6 0.0000 0.0000 0.0000 0.0000 0.0000 -33.0543
#
#
#
# Elastic Compliance Matrix: (Units=1/GPa)
#
#
# Indices 1 2 3 4 5 6 
#
# 1 0.007920 -0.002563 0.000372 0.000000 0.000000 0.000000
# 2 -0.002563 0.010167 -0.005372 0.000000 0.000000 0.000000
# 3 0.000372 -0.005372 0.030356 0.000000 0.000000 0.000000
# 4 0.000000 0.000000 0.000000 0.061199 0.000000 0.000000
# 5 0.000000 0.000000 0.000000 0.000000 0.061607 0.000000
# 6 0.000000 0.000000 0.000000 0.000000 0.000000 -0.030253
#
#
# Mechanical properties :
#
#
# Convention : Reuss Voigt Hill
#
# Bulk Modulus (GPa) = 30.01495 46.56798 38.29146
# Shear Modulus (GPa) = 29.89938 15.26371 22.58154
#
# Velocity S-wave (km/s) = 3.59392 2.56784 3.12330
# Velocity P-wave (km/s) = 5.49435 5.37668 5.43583
#
# Compressibility (1/GPa) = 0.03331673
#
# Stress axis : x y z
#
# Youngs Moduli (GPa) = 126.25885 98.35697 32.94286
#
# Poissons Ratio (x) = 0.25213 -0.01226
# Poissons Ratio (y) = 0.32365 0.17696
# Poissons Ratio (z) = -0.04698 0.52835
#
# Static dielectric constant tensor:
#      x y z
#    x 1.996150 0.000000 0.000000 
#    y 0.000000 1.874200 0.000000 
#    z 0.000000 0.000000 1.987030 
# 
# From -- ./inp_files/41582.got.cif
#   From: 2010.05.17/outbox.cif.g08.bks.cpg/sg64_21_cif.got.tgz:41582.got - 2010.06.03 16:29:19.
