data_PCOD9477272
_publ_section_title
;
Structure prediction by ZEFSAII (Michael W. Deem and Ramdas Pophale) SiO2 
 PCOD9477272
Probable space group: C M C A
;
_chemical_formula_sum "Si O2"
_cell_formula_units_Z 80
_cell_length_a 7.519367
_cell_length_b 26.472261
_cell_length_c 21.615395
_cell_angle_alpha 90.000000
_cell_angle_beta 90.000000
_cell_angle_gamma 90.000000
_cell_volume 4302.644795
_symmetry_space_group_name_H-M "C M C A"
_symmetry_group_IT_number 64
_symmetry_cell_setting 'orthorhombic'
loop_
_space_group_symop_operation_xyz
x,y,z
-x,1/2-y,1/2+z
x,-y,-z
-x,1/2+y,1/2-z
-x,-y,-z
x,1/2+y,1/2-z
-x,y,z
x,1/2-y,1/2+z
1/2+x,1/2+y,z
1/2-x,-y,1/2+z
1/2+x,1/2-y,-z
1/2-x,y,1/2-z
1/2-x,1/2-y,-z
1/2+x,y,1/2-z
1/2-x,1/2+y,z
1/2+x,-y,1/2+z
loop_
_atom_site_type_symbol
_atom_site_label
_atom_site_fract_x
_atom_site_fract_y
_atom_site_fract_z
Si Si1 0.786744 0.624829 0.677641
Si Si2 0.283510 0.070039 0.449221
Si Si3 0.286517 0.681132 0.050772
Si Si4 0.787669 0.789276 0.086456
Si Si5 0.783353 0.037678 0.911647
O O1 0.750000 0.625974 0.750000
O O2 0.720071 0.673961 0.640125
O O3 0.720832 0.574526 0.642500
O O4 0.000000 0.624412 0.671212
O O5 0.500000 0.069664 0.446986
O O6 0.222505 0.125678 0.429678
O O7 0.235849 0.060795 0.521254
O O8 0.223246 0.020590 0.411815
O O9 0.500000 0.678252 0.046935
O O10 0.245730 0.729664 0.092431
O O11 0.218859 0.693637 0.981254
O O12 0.000000 0.795567 0.084116
O O13 0.000000 0.036951 0.910094
#
# Coordination Sequence:
#
# PCOD9477272 Si02
#       5
#    16  16  16  16  16
#     4  10  19  31  46  64  89 119 150 182 215 255
#     4   8  12  21  42  68  89 109 137 178 220 260
#     4   9  15  25  44  68  90 111 140 180 219 262
#     4   9  17  28  41  62  91 118 143 175 220 262
#     4   8  13  23  41  65  89 111 140 178 219 256
#
# _framework density 18.593214
#
# number of rings (size 3 to 8) (size 9 to 14) (size 15 to 20)
#    0.000    3.200    2.000    1.200    0.000    0.800 
#    0.000    0.000    0.000    2.400    0.000    8.400 
#    0.000    0.000    0.000    0.000    0.000    0.000 
#
# Total GULP energy -222834.694438 kJ/mol
# GULP energy per Si atom -5570.867361 kJ/mol
# Density = 1.855089 g / cm^3
# Si number density = 18.593214 Si / 1000 Ang^3
#
#
#
# Elastic Constant Matrix: (Units=GPa)
#
#
# Indices 1 2 3 4 5 6 
#
# 1 45.8941 6.1660 2.3706 0.0000 0.0000 0.0000
# 2 6.1660 221.8906 91.9821 0.0000 0.0000 0.0000
# 3 2.3706 91.9821 97.7636 0.0000 0.0000 0.0000
# 4 0.0000 0.0000 0.0000 22.6863 0.0000 0.0000
# 5 0.0000 0.0000 0.0000 0.0000 12.3649 0.0000
# 6 0.0000 0.0000 0.0000 0.0000 0.0000 23.9720
#
#
#
# Elastic Compliance Matrix: (Units=1/GPa)
#
#
# Indices 1 2 3 4 5 6 
#
# 1 0.021871 -0.000636 0.000068 0.000000 0.000000 0.000000
# 2 -0.000636 0.007407 -0.006953 0.000000 0.000000 0.000000
# 3 0.000068 -0.006953 0.016769 0.000000 0.000000 0.000000
# 4 0.000000 0.000000 0.000000 0.044079 0.000000 0.000000
# 5 0.000000 0.000000 0.000000 0.000000 0.080874 0.000000
# 6 0.000000 0.000000 0.000000 0.000000 0.000000 0.041715
#
#
# Mechanical properties :
#
#
# Convention : Reuss Voigt Hill
#
# Bulk Modulus (GPa) = 32.25322 62.95396 47.60359
# Shear Modulus (GPa) = 21.00015 29.47329 25.23672
#
# Velocity S-wave (km/s) = 3.36438 3.98573 3.68816
# Velocity P-wave (km/s) = 5.69881 7.42385 6.61778
#
# Compressibility (1/GPa) = 0.03100465
#
# Stress axis : x y z
#
# Youngs Moduli (GPa) = 45.72222 135.01027 59.63277
#
# Poissons Ratio (x) = 0.08586 -0.00406
# Poissons Ratio (y) = 0.02908 0.41465
# Poissons Ratio (z) = -0.00311 0.93878
#
# Static dielectric constant tensor:
#      x y z
#    x 1.723940 0.000000 0.000000 
#    y 0.000000 1.692860 0.000000 
#    z 0.000000 0.000000 1.596680 
# 
# From -- ./inp_files/29981.got.cif
#   From: 2010.05.17/outbox.cif.g08.bks.cpg/sg64_15_cif.got.tgz:29981.got - 2010.06.03 16:29:19.
