data_PCOD9477698
_publ_section_title
;
Structure prediction by ZEFSAII (Michael W. Deem and Ramdas Pophale) SiO2 
 PCOD9477698
Probable space group: C M C A
;
_chemical_formula_sum "Si O2"
_cell_formula_units_Z 80
_cell_length_a 23.752383
_cell_length_b 9.520897
_cell_length_c 15.359870
_cell_angle_alpha 90.000000
_cell_angle_beta 90.000000
_cell_angle_gamma 90.000000
_cell_volume 3473.542319
_symmetry_space_group_name_H-M "C M C A"
_symmetry_group_IT_number 64
_symmetry_cell_setting 'orthorhombic'
loop_
_space_group_symop_operation_xyz
x,y,z
-x,1/2-y,1/2+z
x,-y,-z
-x,1/2+y,1/2-z
-x,-y,-z
x,1/2+y,1/2-z
-x,y,z
x,1/2-y,1/2+z
1/2+x,1/2+y,z
1/2-x,-y,1/2+z
1/2+x,1/2-y,-z
1/2-x,y,1/2-z
1/2-x,1/2-y,-z
1/2+x,y,1/2-z
1/2-x,1/2+y,z
1/2+x,-y,1/2+z
loop_
_atom_site_type_symbol
_atom_site_label
_atom_site_fract_x
_atom_site_fract_y
_atom_site_fract_z
Si Si1 0.813586 0.900423 0.213383
Si Si2 0.000000 0.508553 0.253318
Si Si3 0.688776 0.890603 0.572025
Si Si4 0.680505 0.833161 0.937381
Si Si5 0.500000 0.737896 0.643740
Si Si6 0.099216 0.053614 0.641649
O O1 0.750000 0.898681 0.250000
O O2 0.819773 0.785061 0.137960
O O3 0.826044 0.050486 0.166542
O O4 0.857355 0.878576 0.290331
O O5 0.000000 0.337759 0.241169
O O6 0.943912 0.541589 0.199191
O O7 0.000000 0.596651 0.341440
O O8 0.674021 0.739950 0.531640
O O9 0.756806 0.895622 0.568780
O O10 0.666452 0.000000 0.500000
O O11 0.634357 0.947606 0.916251
O O12 0.556086 0.669754 0.602861
#
# Coordination Sequence:
#
# PCOD9477698 Si02
#       6
#    16   8  16  16   8  16
#     4  11  20  30  50  82 112 140 190 227 274 339
#     4   8  18  34  52  80 114 143 185 249 294 321
#     4   9  20  35  47  71 115 148 180 216 276 343
#     4  10  19  34  50  73 111 152 181 221 282 333
#     4   8  18  34  50  76 111 138 187 237 291 324
#     4   9  19  31  57  78 108 140 194 230 284 321
#
# _framework density 23.031244999999998
#
# number of rings (size 3 to 8) (size 9 to 14) (size 15 to 20)
#    1.200    1.200    2.000    1.200    2.800    0.000 
#    0.000    0.000    0.000    4.800    0.000   22.400 
#    0.000    0.000    0.000    0.000    0.000    0.000 
#
# Total GULP energy -223121.585511 kJ/mol
# GULP energy per Si atom -5578.039638 kJ/mol
# Density = 2.297882 g / cm^3
# Si number density = 23.031245 Si / 1000 Ang^3
#
#
#
# Elastic Constant Matrix: (Units=GPa)
#
#
# Indices 1 2 3 4 5 6 
#
# 1 110.2087 8.1447 31.5038 0.0000 0.0000 0.0000
# 2 8.1447 68.5027 30.6256 0.0000 0.0000 0.0000
# 3 31.5038 30.6256 92.3251 0.0000 0.0000 0.0000
# 4 0.0000 0.0000 0.0000 36.1108 0.0000 0.0000
# 5 0.0000 0.0000 0.0000 0.0000 33.1407 0.0000
# 6 0.0000 0.0000 0.0000 0.0000 0.0000 5.5962
#
#
#
# Elastic Compliance Matrix: (Units=1/GPa)
#
#
# Indices 1 2 3 4 5 6 
#
# 1 0.010064 0.000398 -0.003566 0.000000 0.000000 0.000000
# 2 0.000398 0.017156 -0.005826 0.000000 0.000000 0.000000
# 3 -0.003566 -0.005826 0.013981 0.000000 0.000000 0.000000
# 4 0.000000 0.000000 0.000000 0.027693 0.000000 0.000000
# 5 0.000000 0.000000 0.000000 0.000000 0.030174 0.000000
# 6 0.000000 0.000000 0.000000 0.000000 0.000000 0.178693
#
#
# Mechanical properties :
#
#
# Convention : Reuss Voigt Hill
#
# Bulk Modulus (GPa) = 43.08370 45.73164 44.40767
# Shear Modulus (GPa) = 16.47525 28.35369 22.41447
#
# Velocity S-wave (km/s) = 2.67749 3.51251 3.12303
# Velocity P-wave (km/s) = 5.32033 6.02907 5.68575
#
# Compressibility (1/GPa) = 0.02321063
#
# Stress axis : x y z
#
# Youngs Moduli (GPa) = 99.36766 58.29031 71.52675
#
# Poissons Ratio (x) = -0.02318 0.25506
# Poissons Ratio (y) = -0.03952 0.41675
# Poissons Ratio (z) = 0.35434 0.33962
#
# Static dielectric constant tensor:
#      x y z
#    x 1.838900 0.000000 0.000000 
#    y 0.000000 1.941210 0.000000 
#    z 0.000000 0.000000 1.863150 
# 
# From -- ./inp_files/34905.got.cif
#   From: 2010.05.17/outbox.cif.g08.bks.cpg/sg64_18_cif.got.tgz:34905.got - 2010.06.03 16:29:19.
