data_PCOD9477567
_publ_section_title
;
Structure prediction by ZEFSAII (Michael W. Deem and Ramdas Pophale) SiO2 
 PCOD9477567
Probable space group: C M C A
;
_chemical_formula_sum "Si O2"
_cell_formula_units_Z 80
_cell_length_a 8.874149
_cell_length_b 19.359437
_cell_length_c 28.992539
_cell_angle_alpha 90.000000
_cell_angle_beta 90.000000
_cell_angle_gamma 90.000000
_cell_volume 4980.875538
_symmetry_space_group_name_H-M "C M C A"
_symmetry_group_IT_number 64
_symmetry_cell_setting 'orthorhombic'
loop_
_space_group_symop_operation_xyz
x,y,z
-x,1/2-y,1/2+z
x,-y,-z
-x,1/2+y,1/2-z
-x,-y,-z
x,1/2+y,1/2-z
-x,y,z
x,1/2-y,1/2+z
1/2+x,1/2+y,z
1/2-x,-y,1/2+z
1/2+x,1/2-y,-z
1/2-x,y,1/2-z
1/2-x,1/2-y,-z
1/2+x,y,1/2-z
1/2-x,1/2+y,z
1/2+x,-y,1/2+z
loop_
_atom_site_type_symbol
_atom_site_label
_atom_site_fract_x
_atom_site_fract_y
_atom_site_fract_z
Si Si1 0.681210 0.954316 0.544293
Si Si2 0.679408 0.800955 0.383588
Si Si3 0.319062 0.293936 0.958282
Si Si4 0.177122 0.057820 0.611349
Si Si5 0.822476 0.367068 0.200246
O O1 0.500000 0.958069 0.548705
O O2 0.723133 0.874474 0.538401
O O3 0.725707 0.000000 0.500000
O O4 0.756099 0.990250 0.588419
O O5 0.500000 0.796533 0.384806
O O6 0.755691 0.739567 0.411494
O O7 0.734258 0.873850 0.406279
O O8 0.741155 0.809146 0.331393
O O9 0.500000 0.288725 0.959510
O O10 0.250000 0.250000 0.000000
O O11 0.195049 0.065897 0.666780
O O12 0.000000 0.064887 0.601075
O O13 0.750000 0.374477 0.250000
O O14 0.000000 0.352612 0.203899
#
# Coordination Sequence:
#
# PCOD9477567 Si02
#       5
#    16  16  16  16  16
#     4  10  21  35  52  75 105 141 180 220 267 320
#     4  10  19  33  53  76 106 141 177 220 265 312
#     4  11  22  35  52  77 108 142 181 224 268 322
#     4   9  19  33  52  78 106 134 175 221 262 316
#     4   9  18  32  54  84 109 137 176 222 269 317
#
# _framework density 16.061433000000001
#
# number of rings (size 3 to 8) (size 9 to 14) (size 15 to 20)
#    1.200    1.000    0.000    4.200    0.000    3.600 
#    0.000    0.000    0.000    1.200    0.000    2.800 
#    0.000    0.000    0.000    0.000    0.000    0.000 
#
# Total GULP energy -222714.468941 kJ/mol
# GULP energy per Si atom -5567.861724 kJ/mol
# Density = 1.602488 g / cm^3
# Si number density = 16.061433 Si / 1000 Ang^3
#
#
#
# Elastic Constant Matrix: (Units=GPa)
#
#
# Indices 1 2 3 4 5 6 
#
# 1 86.5229 61.4099 54.0998 0.0000 0.0000 0.0000
# 2 61.4099 123.9710 66.6148 0.0000 0.0000 0.0000
# 3 54.0998 66.6148 114.7218 0.0000 0.0000 0.0000
# 4 0.0000 0.0000 0.0000 21.8311 0.0000 0.0000
# 5 0.0000 0.0000 0.0000 0.0000 30.2747 0.0000
# 6 0.0000 0.0000 0.0000 0.0000 0.0000 22.5554
#
#
#
# Elastic Compliance Matrix: (Units=1/GPa)
#
#
# Indices 1 2 3 4 5 6 
#
# 1 0.019817 -0.006970 -0.005298 0.000000 0.000000 0.000000
# 2 -0.006970 0.014176 -0.004945 0.000000 0.000000 0.000000
# 3 -0.005298 -0.004945 0.014086 0.000000 0.000000 0.000000
# 4 0.000000 0.000000 0.000000 0.045806 0.000000 0.000000
# 5 0.000000 0.000000 0.000000 0.000000 0.033031 0.000000
# 6 0.000000 0.000000 0.000000 0.000000 0.000000 0.044335
#
#
# Mechanical properties :
#
#
# Convention : Reuss Voigt Hill
#
# Bulk Modulus (GPa) = 73.23685 76.60719 74.92202
# Shear Modulus (GPa) = 23.78365 24.47165 24.12765
#
# Velocity S-wave (km/s) = 3.85228 3.90760 3.88004
# Velocity P-wave (km/s) = 8.09220 8.25585 8.17443
#
# Compressibility (1/GPa) = 0.01365433
#
# Stress axis : x y z
#
# Youngs Moduli (GPa) = 50.46141 70.54258 70.99011
#
# Poissons Ratio (x) = 0.49165 0.37612
# Poissons Ratio (y) = 0.35170 0.35103
# Poissons Ratio (z) = 0.26736 0.34881
#
# Static dielectric constant tensor:
#      x y z
#    x 1.532300 0.000000 0.000000 
#    y 0.000000 1.531790 0.000000 
#    z 0.000000 0.000000 1.544580 
# 
# From -- ./inp_files/51763.got.cif
#   From: 2010.05.17/outbox.cif.g08.bks.cpg/sg64_26_cif.got.tgz:51763.got - 2010.06.03 16:29:19.
