data_PCOD9477175
_publ_section_title
;
Structure prediction by ZEFSAII (Michael W. Deem and Ramdas Pophale) SiO2 
 PCOD9477175
Probable space group: C M C A
;
_chemical_formula_sum "Si O2"
_cell_formula_units_Z 96
_cell_length_a 8.625154
_cell_length_b 23.654015
_cell_length_c 27.487642
_cell_angle_alpha 90.000000
_cell_angle_beta 90.000000
_cell_angle_gamma 90.000000
_cell_volume 5608.015584
_symmetry_space_group_name_H-M "C M C A"
_symmetry_group_IT_number 64
_symmetry_cell_setting 'orthorhombic'
loop_
_space_group_symop_operation_xyz
x,y,z
-x,1/2-y,1/2+z
x,-y,-z
-x,1/2+y,1/2-z
-x,-y,-z
x,1/2+y,1/2-z
-x,y,z
x,1/2-y,1/2+z
1/2+x,1/2+y,z
1/2-x,-y,1/2+z
1/2+x,1/2-y,-z
1/2-x,y,1/2-z
1/2-x,1/2-y,-z
1/2+x,y,1/2-z
1/2-x,1/2+y,z
1/2+x,-y,1/2+z
loop_
_atom_site_type_symbol
_atom_site_label
_atom_site_fract_x
_atom_site_fract_y
_atom_site_fract_z
Si Si1 0.684917 0.312480 0.302527
Si Si2 0.674211 0.001024 0.701224
Si Si3 0.812510 0.814401 0.697247
Si Si4 0.324994 0.399397 0.123011
Si Si5 0.312493 0.507163 0.556108
Si Si6 0.317700 0.914201 0.867364
O O1 0.500000 0.310984 0.298957
O O2 0.750000 0.333575 0.250000
O O3 0.752133 0.249346 0.308486
O O4 0.735429 0.349793 0.348900
O O5 0.500000 0.978689 0.708552
O O6 0.750000 0.022516 0.750000
O O7 0.785584 0.953964 0.678860
O O8 0.666051 0.051689 0.663494
O O9 0.750000 0.834805 0.750000
O O10 0.758871 0.853780 0.652084
O O11 0.000000 0.814869 0.698939
O O12 0.500000 0.381196 0.110516
O O13 0.247542 0.433736 0.078604
O O14 0.268307 0.500000 0.500000
O O15 0.500000 0.507908 0.559649
O O16 0.255394 0.452754 0.587990
O O17 0.500000 0.907304 0.876589
#
# Coordination Sequence:
#
# PCOD9477175 Si02
#       6
#    16  16  16  16  16  16
#     4  11  21  33  50  72 100 134 169 202 239 285
#     4  10  19  28  42  65  94 126 156 191 234 283
#     4  10  19  31  47  69  99 133 167 199 234 280
#     4  10  20  33  49  71  98 128 163 202 245 292
#     4   9  18  34  55  77 100 127 161 204 255 305
#     4   9  18  31  48  70  96 127 161 198 241 290
#
# _framework density 17.118355000000001
#
# number of rings (size 3 to 8) (size 9 to 14) (size 15 to 20)
#    0.000    2.167    0.000    5.000    0.000    6.333 
#    0.000    0.000    0.000    1.000    0.000    0.000 
#    0.000    0.000    0.000    0.000    0.000    0.000 
#
# Total GULP energy -267308.854828 kJ/mol
# GULP energy per Si atom -5568.934476 kJ/mol
# Density = 1.707939 g / cm^3
# Si number density = 17.118355 Si / 1000 Ang^3
#
#
#
# Elastic Constant Matrix: (Units=GPa)
#
#
# Indices 1 2 3 4 5 6 
#
# 1 42.3003 16.6327 36.7028 0.0000 0.0000 0.0000
# 2 16.6327 82.4298 50.9722 0.0000 0.0000 0.0000
# 3 36.7028 50.9722 95.5107 0.0000 0.0000 0.0000
# 4 0.0000 0.0000 0.0000 24.9026 0.0000 0.0000
# 5 0.0000 0.0000 0.0000 0.0000 18.2238 0.0000
# 6 0.0000 0.0000 0.0000 0.0000 0.0000 10.0805
#
#
#
# Elastic Compliance Matrix: (Units=1/GPa)
#
#
# Indices 1 2 3 4 5 6 
#
# 1 0.035666 0.001908 -0.014724 0.000000 0.000000 0.000000
# 2 0.001908 0.018209 -0.010451 0.000000 0.000000 0.000000
# 3 -0.014724 -0.010451 0.021706 0.000000 0.000000 0.000000
# 4 0.000000 0.000000 0.000000 0.040156 0.000000 0.000000
# 5 0.000000 0.000000 0.000000 0.000000 0.054873 0.000000
# 6 0.000000 0.000000 0.000000 0.000000 0.000000 0.099201
#
#
# Mechanical properties :
#
#
# Convention : Reuss Voigt Hill
#
# Bulk Modulus (GPa) = 34.42717 47.65070 41.03894
# Shear Modulus (GPa) = 15.33611 18.37026 16.85319
#
# Velocity S-wave (km/s) = 2.99638 3.27942 3.14109
# Velocity P-wave (km/s) = 5.66798 6.49892 6.09762
#
# Compressibility (1/GPa) = 0.02904683
#
# Stress axis : x y z
#
# Youngs Moduli (GPa) = 28.03808 54.91718 46.07063
#
# Poissons Ratio (x) = -0.10480 0.67835
# Poissons Ratio (y) = -0.05350 0.48150
# Poissons Ratio (z) = 0.41283 0.57395
#
# Static dielectric constant tensor:
#      x y z
#    x 1.612760 0.000000 0.000000 
#    y 0.000000 1.596810 0.000000 
#    z 0.000000 0.000000 1.599920 
# 
# From -- ./inp_files/43040.got.cif
#   From: 2010.05.17/outbox.cif.g08.bks.cpg/sg64_22_cif.got.tgz:43040.got - 2010.06.03 16:29:19.
