data_PCOD9477228
_publ_section_title
;
Structure prediction by ZEFSAII (Michael W. Deem and Ramdas Pophale) SiO2 
 PCOD9477228
Probable space group: C M C A
;
_chemical_formula_sum "Si O2"
_cell_formula_units_Z 104
_cell_length_a 22.217280
_cell_length_b 8.821888
_cell_length_c 27.971800
_cell_angle_alpha 90.000000
_cell_angle_beta 90.000000
_cell_angle_gamma 90.000000
_cell_volume 5482.426809
_symmetry_space_group_name_H-M "C M C A"
_symmetry_group_IT_number 64
_symmetry_cell_setting 'orthorhombic'
loop_
_space_group_symop_operation_xyz
x,y,z
-x,1/2-y,1/2+z
x,-y,-z
-x,1/2+y,1/2-z
-x,-y,-z
x,1/2+y,1/2-z
-x,y,z
x,1/2-y,1/2+z
1/2+x,1/2+y,z
1/2-x,-y,1/2+z
1/2+x,1/2-y,-z
1/2-x,y,1/2-z
1/2-x,1/2-y,-z
1/2+x,y,1/2-z
1/2-x,1/2+y,z
1/2+x,-y,1/2+z
loop_
_atom_site_type_symbol
_atom_site_label
_atom_site_fract_x
_atom_site_fract_y
_atom_site_fract_z
Si Si1 0.068552 0.315882 0.088932
Si Si2 0.750000 0.035948 0.750000
Si Si3 0.808589 0.675362 0.393837
Si Si4 0.740740 0.955223 0.053998
Si Si5 0.204679 0.286081 0.817608
Si Si6 0.126261 0.365923 0.904345
Si Si7 0.570952 0.668160 0.986247
O O1 0.122432 0.221126 0.113342
O O2 0.079962 0.493289 0.099013
O O3 0.000000 0.273161 0.101223
O O4 0.076812 0.277311 0.032450
O O5 0.790536 0.139825 0.784366
O O6 0.791269 0.930568 0.716952
O O7 0.795614 0.506121 0.412016
O O8 0.781400 0.785644 0.435475
O O9 0.766594 0.709199 0.348587
O O10 0.684745 0.055044 0.072325
O O11 0.753358 0.000000 0.000000
O O12 0.149406 0.301264 0.854008
O O13 0.102708 0.241861 0.941109
O O14 0.500000 0.654223 0.975574
O O15 0.593216 0.500000 0.000000
#
# Coordination Sequence:
#
# PCOD9477228 Si02
#       7
#    16   8  16  16  16  16  16
#     4  10  20  34  53  77 112 159 197 221 250 300
#     4  10  20  38  58  80 112 134 164 222 296 362
#     4  10  20  33  50  77 108 137 185 226 260 320
#     4  10  19  30  46  73 108 145 177 219 269 309
#     4  10  21  36  57  85 107 136 174 223 290 346
#     4  10  19  34  54  78 106 141 190 229 266 326
#     4  10  21  34  49  76 114 156 196 228 257 295
#
# _framework density 18.969702000000002
#
# number of rings (size 3 to 8) (size 9 to 14) (size 15 to 20)
#    0.000    2.000    0.000    6.000    0.000    6.769 
#    0.000    0.000    0.000    0.000    0.000   29.077 
#    0.000    0.000    0.000    0.000    0.000    0.000 
#
# Total GULP energy -290441.078331 kJ/mol
# GULP energy per Si atom -5585.405353 kJ/mol
# Density = 1.892653 g / cm^3
# Si number density = 18.969702 Si / 1000 Ang^3
#
#
#
# Elastic Constant Matrix: (Units=GPa)
#
#
# Indices 1 2 3 4 5 6 
#
# 1 89.9709 23.5451 22.0034 0.0000 0.0000 0.0000
# 2 23.5451 61.8413 17.4467 0.0000 0.0000 0.0000
# 3 22.0034 17.4467 81.1431 0.0000 0.0000 0.0000
# 4 0.0000 0.0000 0.0000 18.9195 0.0000 0.0000
# 5 0.0000 0.0000 0.0000 0.0000 22.4136 0.0000
# 6 0.0000 0.0000 0.0000 0.0000 0.0000 28.3414
#
#
#
# Elastic Compliance Matrix: (Units=1/GPa)
#
#
# Indices 1 2 3 4 5 6 
#
# 1 0.012835 -0.004157 -0.002587 0.000000 0.000000 0.000000
# 2 -0.004157 0.018561 -0.002864 0.000000 0.000000 0.000000
# 3 -0.002587 -0.002864 0.013641 0.000000 0.000000 0.000000
# 4 0.000000 0.000000 0.000000 0.052856 0.000000 0.000000
# 5 0.000000 0.000000 0.000000 0.000000 0.044616 0.000000
# 6 0.000000 0.000000 0.000000 0.000000 0.000000 0.035284
#
#
# Mechanical properties :
#
#
# Convention : Reuss Voigt Hill
#
# Bulk Modulus (GPa) = 38.72567 39.88283 39.30425
# Shear Modulus (GPa) = 24.31732 25.26558 24.79145
#
# Velocity S-wave (km/s) = 3.58425 3.65347 3.61903
# Velocity P-wave (km/s) = 6.13090 6.23436 6.18285
#
# Compressibility (1/GPa) = 0.02582267
#
# Stress axis : x y z
#
# Youngs Moduli (GPa) = 77.91077 53.87631 73.30823
#
# Poissons Ratio (x) = 0.22397 0.18962
# Poissons Ratio (y) = 0.32388 0.20992
# Poissons Ratio (z) = 0.20153 0.15428
#
# Static dielectric constant tensor:
#      x y z
#    x 1.685980 0.000000 0.000000 
#    y 0.000000 1.738710 0.000000 
#    z 0.000000 0.000000 1.647530 
# 
# From -- ./inp_files/53931.got.cif
#   From: 2010.05.17/outbox.cif.g08.bks.cpg/sg64_27_cif.got.tgz:53931.got - 2010.06.03 16:29:19.
