data_PCOD9477654
_publ_section_title
;
Structure prediction by ZEFSAII (Michael W. Deem and Ramdas Pophale) SiO2 
 PCOD9477654
Probable space group: C M C A
;
_chemical_formula_sum "Si O2"
_cell_formula_units_Z 80
_cell_length_a 20.994029
_cell_length_b 12.490959
_cell_length_c 17.956382
_cell_angle_alpha 90.000000
_cell_angle_beta 90.000000
_cell_angle_gamma 90.000000
_cell_volume 4708.801808
_symmetry_space_group_name_H-M "C M C A"
_symmetry_group_IT_number 64
_symmetry_cell_setting 'orthorhombic'
loop_
_space_group_symop_operation_xyz
x,y,z
-x,1/2-y,1/2+z
x,-y,-z
-x,1/2+y,1/2-z
-x,-y,-z
x,1/2+y,1/2-z
-x,y,z
x,1/2-y,1/2+z
1/2+x,1/2+y,z
1/2-x,-y,1/2+z
1/2+x,1/2-y,-z
1/2-x,y,1/2-z
1/2-x,1/2-y,-z
1/2+x,y,1/2-z
1/2-x,1/2+y,z
1/2+x,-y,1/2+z
loop_
_atom_site_type_symbol
_atom_site_label
_atom_site_fract_x
_atom_site_fract_y
_atom_site_fract_z
Si Si1 0.337267 0.247271 0.065537
Si Si2 0.668897 0.409835 0.320334
Si Si3 0.074747 0.047402 0.416775
Si Si4 0.692265 0.800980 0.603226
Si Si5 0.687244 0.540059 0.852269
O O1 0.391228 0.162678 0.086143
O O2 0.269213 0.204139 0.096210
O O3 0.344010 0.365435 0.099911
O O4 0.332377 0.259464 0.976488
O O5 0.611461 0.468146 0.361377
O O6 0.669331 0.282401 0.334170
O O7 0.670889 0.440706 0.234018
O O8 0.735900 0.446883 0.357209
O O9 0.000000 0.054478 0.400473
O O10 0.082713 0.000000 0.500000
O O11 0.671493 0.921324 0.620576
#
# Coordination Sequence:
#
# PCOD9477654 Si02
#       5
#    16  16  16  16  16
#     4  10  20  34  57  84 114 149 191 231 290 336
#     4  10  21  34  53  87 115 148 190 228 292 346
#     4  11  22  39  60  80 114 158 200 234 264 341
#     4  10  19  33  56  86 118 142 182 244 289 342
#     4  10  21  32  58  86 120 144 173 249 305 336
#
# _framework density 16.989460000000001
#
# number of rings (size 3 to 8) (size 9 to 14) (size 15 to 20)
#    0.000    1.800    4.000    0.600    2.800    1.600 
#    0.000    1.000    0.000    4.800    0.000    0.000 
#    0.000    0.000    0.000    0.000    0.000    0.000 
#
# Total GULP energy -223252.415274 kJ/mol
# GULP energy per Si atom -5581.310382 kJ/mol
# Density = 1.695079 g / cm^3
# Si number density = 16.989460 Si / 1000 Ang^3
#
#
#
# Elastic Constant Matrix: (Units=GPa)
#
#
# Indices 1 2 3 4 5 6 
#
# 1 89.5366 45.0128 35.4587 0.0000 0.0000 0.0000
# 2 45.0128 140.0742 29.4510 0.0000 0.0000 0.0000
# 3 35.4587 29.4510 39.6804 0.0000 0.0000 0.0000
# 4 0.0000 0.0000 0.0000 24.3135 0.0000 0.0000
# 5 0.0000 0.0000 0.0000 0.0000 17.5988 0.0000
# 6 0.0000 0.0000 0.0000 0.0000 0.0000 21.9024
#
#
#
# Elastic Compliance Matrix: (Units=1/GPa)
#
#
# Indices 1 2 3 4 5 6 
#
# 1 0.018217 -0.002881 -0.014141 0.000000 0.000000 0.000000
# 2 -0.002881 0.008915 -0.004042 0.000000 0.000000 0.000000
# 3 -0.014141 -0.004042 0.040838 0.000000 0.000000 0.000000
# 4 0.000000 0.000000 0.000000 0.041129 0.000000 0.000000
# 5 0.000000 0.000000 0.000000 0.000000 0.056822 0.000000
# 6 0.000000 0.000000 0.000000 0.000000 0.000000 0.045657
#
#
# Mechanical properties :
#
#
# Convention : Reuss Voigt Hill
#
# Bulk Modulus (GPa) = 38.69671 54.34847 46.52259
# Shear Modulus (GPa) = 19.06074 23.38751 21.22413
#
# Velocity S-wave (km/s) = 3.35313 3.71427 3.53831
# Velocity P-wave (km/s) = 6.14961 7.10305 6.64346
#
# Compressibility (1/GPa) = 0.02584199
#
# Stress axis : x y z
#
# Youngs Moduli (GPa) = 54.89386 112.17392 24.48724
#
# Poissons Ratio (x) = 0.32316 0.34626
# Poissons Ratio (y) = 0.15814 0.09898
# Poissons Ratio (z) = 0.77623 0.45342
#
# Static dielectric constant tensor:
#      x y z
#    x 1.546400 0.000000 0.000000 
#    y 0.000000 1.575540 0.000000 
#    z 0.000000 0.000000 1.569330 
# 
# From -- ./inp_files/27060.got.cif
#   From: 2010.05.17/outbox.cif.g08.bks.cpg/sg64_14_cif.got.tgz:27060.got - 2010.06.03 16:29:19.
