data_PCOD9477933
_publ_section_title
;
Structure prediction by ZEFSAII (Michael W. Deem and Ramdas Pophale) SiO2 
 PCOD9477933
Probable space group: C M C A
;
_chemical_formula_sum "Si O2"
_cell_formula_units_Z 112
_cell_length_a 14.035542
_cell_length_b 25.602353
_cell_length_c 14.728211
_cell_angle_alpha 90.000000
_cell_angle_beta 90.000000
_cell_angle_gamma 90.000000
_cell_volume 5292.478065
_symmetry_space_group_name_H-M "C M C A"
_symmetry_group_IT_number 64
_symmetry_cell_setting 'orthorhombic'
loop_
_space_group_symop_operation_xyz
x,y,z
-x,1/2-y,1/2+z
x,-y,-z
-x,1/2+y,1/2-z
-x,-y,-z
x,1/2+y,1/2-z
-x,y,z
x,1/2-y,1/2+z
1/2+x,1/2+y,z
1/2-x,-y,1/2+z
1/2+x,1/2-y,-z
1/2-x,y,1/2-z
1/2-x,1/2-y,-z
1/2+x,y,1/2-z
1/2-x,1/2+y,z
1/2+x,-y,1/2+z
loop_
_atom_site_type_symbol
_atom_site_label
_atom_site_fract_x
_atom_site_fract_y
_atom_site_fract_z
Si Si1 0.719198 0.807770 0.534898
Si Si2 0.395236 0.851858 0.863103
Si Si3 0.262787 0.995113 0.392830
Si Si4 0.144708 0.767133 0.785017
Si Si5 0.812215 0.121943 0.877028
Si Si6 0.102212 0.849445 0.311770
Si Si7 0.387157 0.461168 0.740683
O O1 0.750000 0.750000 0.500000
O O2 0.813392 0.839601 0.564970
O O3 0.657765 0.801052 0.625230
O O4 0.663755 0.840658 0.460218
O O5 0.500000 0.857780 0.904848
O O6 0.396285 0.802589 0.794656
O O7 0.374837 0.903757 0.804191
O O8 0.314773 0.939582 0.388604
O O9 0.240895 0.000000 0.500000
O O10 0.334461 0.034162 0.338339
O O11 0.168275 0.000025 0.329414
O O12 0.250000 0.751886 0.750000
O O13 0.098311 0.713193 0.812485
O O14 0.877288 0.135803 0.792181
O O15 0.699674 0.133749 0.859846
O O16 0.000000 0.870635 0.343468
O O17 0.500000 0.471713 0.747451
#
# Coordination Sequence:
#
# PCOD9477933 Si02
#       7
#    16  16  16  16  16  16  16
#     4  11  21  38  62  88 126 164 199 257 317 369
#     4  10  22  38  62  91 123 166 213 256 313 382
#     4  11  25  41  68  96 126 170 219 276 335 397
#     4  10  19  35  60  86 119 159 198 247 299 367
#     4  11  23  40  59  93 121 155 211 251 312 375
#     4  11  21  39  61  84 122 163 199 246 304 368
#     4  10  23  44  66  95 131 171 221 278 336 393
#
# _framework density 21.162109000000001
#
# number of rings (size 3 to 8) (size 9 to 14) (size 15 to 20)
#    0.000    1.429    2.857    3.857    8.000    3.429 
#    0.000    1.429    0.000    0.000    0.000    0.000 
#    0.000    0.000    0.000    0.000    0.000    0.000 
#
# Total GULP energy -312593.084405 kJ/mol
# GULP energy per Si atom -5582.019364 kJ/mol
# Density = 2.111394 g / cm^3
# Si number density = 21.162109 Si / 1000 Ang^3
#
#
#
# Elastic Constant Matrix: (Units=GPa)
#
#
# Indices 1 2 3 4 5 6 
#
# 1 78.4100 -11.0710 4.2822 0.0000 0.0000 0.0000
# 2 -11.0710 47.4211 -20.8169 0.0000 0.0000 0.0000
# 3 4.2822 -20.8169 76.4833 0.0000 0.0000 0.0000
# 4 0.0000 0.0000 0.0000 18.9840 0.0000 0.0000
# 5 0.0000 0.0000 0.0000 0.0000 1.4445 0.0000
# 6 0.0000 0.0000 0.0000 0.0000 0.0000 10.7070
#
#
#
# Elastic Compliance Matrix: (Units=1/GPa)
#
#
# Indices 1 2 3 4 5 6 
#
# 1 0.013189 0.003129 0.000113 0.000000 0.000000 0.000000
# 2 0.003129 0.024691 0.006545 0.000000 0.000000 0.000000
# 3 0.000113 0.006545 0.014850 0.000000 0.000000 0.000000
# 4 0.000000 0.000000 0.000000 0.052676 0.000000 0.000000
# 5 0.000000 0.000000 0.000000 0.000000 0.692284 0.000000
# 6 0.000000 0.000000 0.000000 0.000000 0.000000 0.093396
#
#
# Mechanical properties :
#
#
# Convention : Reuss Voigt Hill
#
# Bulk Modulus (GPa) = 13.83036 16.34475 15.08756
# Shear Modulus (GPa) = 5.58277 21.55512 13.56894
#
# Velocity S-wave (km/s) = 1.62598 3.19497 2.53492
# Velocity P-wave (km/s) = 3.17407 4.62069 3.96393
#
# Compressibility (1/GPa) = 0.07230471
#
# Stress axis : x y z
#
# Youngs Moduli (GPa) = 75.82043 40.49999 67.34062
#
# Poissons Ratio (x) = -0.12672 -0.00762
# Poissons Ratio (y) = -0.23723 -0.44076
# Poissons Ratio (z) = -0.00858 -0.26508
#
# Static dielectric constant tensor:
#      x y z
#    x 1.810490 0.000000 0.000000 
#    y 0.000000 1.797860 0.000000 
#    z 0.000000 0.000000 1.768680 
# 
# From -- ./inp_files/24215.got.cif
#   From: 2010.05.17/outbox.cif.g08.bks.cpg/sg64_13_cif.got.tgz:24215.got - 2010.06.03 16:29:19.
