data_PCOD9477570
_publ_section_title
;
Structure prediction by ZEFSAII (Michael W. Deem and Ramdas Pophale) SiO2 
 PCOD9477570
Probable space group: C M C A
;
_chemical_formula_sum "Si O2"
_cell_formula_units_Z 128
_cell_length_a 19.395624
_cell_length_b 19.882721
_cell_length_c 18.152551
_cell_angle_alpha 90.000000
_cell_angle_beta 90.000000
_cell_angle_gamma 90.000000
_cell_volume 7000.309480
_symmetry_space_group_name_H-M "C M C A"
_symmetry_group_IT_number 64
_symmetry_cell_setting 'orthorhombic'
loop_
_space_group_symop_operation_xyz
x,y,z
-x,1/2-y,1/2+z
x,-y,-z
-x,1/2+y,1/2-z
-x,-y,-z
x,1/2+y,1/2-z
-x,y,z
x,1/2-y,1/2+z
1/2+x,1/2+y,z
1/2-x,-y,1/2+z
1/2+x,1/2-y,-z
1/2-x,y,1/2-z
1/2-x,1/2-y,-z
1/2+x,y,1/2-z
1/2-x,1/2+y,z
1/2+x,-y,1/2+z
loop_
_atom_site_type_symbol
_atom_site_label
_atom_site_fract_x
_atom_site_fract_y
_atom_site_fract_z
Si Si1 0.130863 0.376324 0.759545
Si Si2 0.423158 0.989711 0.176712
Si Si3 0.717647 0.280528 0.571815
Si Si4 0.578833 0.845437 0.237945
Si Si5 0.713332 0.029589 0.916741
Si Si6 0.731901 0.401629 0.856961
Si Si7 0.780365 0.667117 0.831100
Si Si8 0.079092 0.258092 0.857425
O O1 0.086703 0.441560 0.778988
O O2 0.202167 0.385625 0.805094
O O3 0.160174 0.377367 0.677323
O O4 0.093874 0.310844 0.791022
O O5 0.500000 0.986898 0.144410
O O6 0.363251 0.984618 0.115969
O O7 0.415449 0.925878 0.230848
O O8 0.750000 0.250000 0.500000
O O9 0.746620 0.355852 0.574818
O O10 0.745529 0.235330 0.639996
O O11 0.635280 0.275584 0.580690
O O12 0.500000 0.826998 0.217544
O O13 0.638621 0.820042 0.183725
O O14 0.590522 0.814247 0.318801
O O15 0.765378 0.980423 0.872562
O O16 0.728006 0.106318 0.890279
O O17 0.715580 0.000000 0.000000
O O18 0.750000 0.648627 0.750000
O O19 0.000000 0.263860 0.881498
#
# Coordination Sequence:
#
# PCOD9477570 Si02
#       8
#    16  16  16  16  16  16  16  16
#     4   9  17  29  50  74  99 130 172 223 266 311
#     4   9  18  31  49  74 105 139 178 218 269 327
#     4  11  22  36  54  80 113 145 181 223 274 330
#     4   9  18  32  51  79 107 134 177 231 273 316
#     4  10  21  34  50  77 112 144 178 224 276 326
#     4   9  19  31  50  74 106 134 173 220 272 314
#     4  11  21  34  58  81 108 143 189 228 274 325
#     4  10  19  33  53  77 106 140 180 222 271 323
#
# _framework density 18.284904999999998
#
# number of rings (size 3 to 8) (size 9 to 14) (size 15 to 20)
#    0.000    2.250    1.250    1.875    7.000    0.250 
#    0.000    0.625    0.000    4.500    0.000    0.000 
#    0.000    7.000    0.000    0.000    0.000    0.000 
#
# Total GULP energy -356296.364360 kJ/mol
# GULP energy per Si atom -5567.130693 kJ/mol
# Density = 1.824329 g / cm^3
# Si number density = 18.284905 Si / 1000 Ang^3
#
#
#
# Elastic Constant Matrix: (Units=GPa)
#
#
# Indices 1 2 3 4 5 6 
#
# 1 71.4750 10.4342 15.0657 0.0000 0.0000 0.0000
# 2 10.4342 61.5929 4.0074 0.0000 0.0000 0.0000
# 3 15.0657 4.0074 43.1810 0.0000 0.0000 0.0000
# 4 0.0000 0.0000 0.0000 14.7558 0.0000 0.0000
# 5 0.0000 0.0000 0.0000 0.0000 16.8221 0.0000
# 6 0.0000 0.0000 0.0000 0.0000 0.0000 22.0644
#
#
#
# Elastic Compliance Matrix: (Units=1/GPa)
#
#
# Indices 1 2 3 4 5 6 
#
# 1 0.015412 -0.002275 -0.005166 0.000000 0.000000 0.000000
# 2 -0.002275 0.016670 -0.000753 0.000000 0.000000 0.000000
# 3 -0.005166 -0.000753 0.025031 0.000000 0.000000 0.000000
# 4 0.000000 0.000000 0.000000 0.067770 0.000000 0.000000
# 5 0.000000 0.000000 0.000000 0.000000 0.059445 0.000000
# 6 0.000000 0.000000 0.000000 0.000000 0.000000 0.045322
#
#
# Mechanical properties :
#
#
# Convention : Reuss Voigt Hill
#
# Bulk Modulus (GPa) = 24.55546 26.14041 25.34793
# Shear Modulus (GPa) = 19.25945 20.51126 19.88535
#
# Velocity S-wave (km/s) = 3.24898 3.35290 3.30135
# Velocity P-wave (km/s) = 5.24719 5.41447 5.33148
#
# Compressibility (1/GPa) = 0.04072415
#
# Stress axis : x y z
#
# Youngs Moduli (GPa) = 64.88496 59.98794 39.95102
#
# Poissons Ratio (x) = 0.13646 0.20639
# Poissons Ratio (y) = 0.14760 0.03010
# Poissons Ratio (z) = 0.33520 0.04519
#
# Static dielectric constant tensor:
#      x y z
#    x 1.655220 0.000000 0.000000 
#    y 0.000000 1.664290 0.000000 
#    z 0.000000 0.000000 1.778860 
# 
# From -- ./inp_files/41158.got.cif
#   From: 2010.05.17/outbox.cif.g08.bks.cpg/sg64_21_cif.got.tgz:41158.got - 2010.06.03 16:29:19.
