data_PCOD9477549
_publ_section_title
;
Structure prediction by ZEFSAII (Michael W. Deem and Ramdas Pophale) SiO2 
 PCOD9477549
Probable space group: C M C A
;
_chemical_formula_sum "Si O2"
_cell_formula_units_Z 96
_cell_length_a 8.981238
_cell_length_b 29.003243
_cell_length_c 21.906008
_cell_angle_alpha 90.000000
_cell_angle_beta 90.000000
_cell_angle_gamma 90.000000
_cell_volume 5706.187111
_symmetry_space_group_name_H-M "C M C A"
_symmetry_group_IT_number 64
_symmetry_cell_setting 'orthorhombic'
loop_
_space_group_symop_operation_xyz
x,y,z
-x,1/2-y,1/2+z
x,-y,-z
-x,1/2+y,1/2-z
-x,-y,-z
x,1/2+y,1/2-z
-x,y,z
x,1/2-y,1/2+z
1/2+x,1/2+y,z
1/2-x,-y,1/2+z
1/2+x,1/2-y,-z
1/2-x,y,1/2-z
1/2-x,1/2-y,-z
1/2+x,y,1/2-z
1/2-x,1/2+y,z
1/2+x,-y,1/2+z
loop_
_atom_site_type_symbol
_atom_site_label
_atom_site_fract_x
_atom_site_fract_y
_atom_site_fract_z
Si Si1 0.669838 0.171022 0.398031
Si Si2 0.323962 0.231384 0.937853
Si Si3 0.681166 0.035661 0.553413
Si Si4 0.825305 0.394936 0.810712
Si Si5 0.679349 0.495074 0.814120
Si Si6 0.672243 0.140739 0.539775
O O1 0.500000 0.161499 0.376549
O O2 0.699589 0.225653 0.392404
O O3 0.788688 0.140252 0.363961
O O4 0.673813 0.156231 0.468990
O O5 0.500000 0.227404 0.947534
O O6 0.257803 0.181172 0.924527
O O7 0.250000 0.250000 0.000000
O O8 0.500000 0.035670 0.549553
O O9 0.730888 0.088494 0.543623
O O10 0.731930 0.000000 0.500000
O O11 0.719352 0.020430 0.622477
O O12 0.750000 0.375077 0.750000
O O13 0.741812 0.443294 0.821567
O O14 0.000000 0.402953 0.802763
O O15 0.500000 0.494676 0.808548
O O16 0.750000 0.512660 0.750000
O O17 0.500000 0.140464 0.559916
#
# Coordination Sequence:
#
# PCOD9477549 Si02
#       6
#    16  16  16  16  16  16
#     4   9  17  30  48  69  95 124 154 192 238 287
#     4   9  17  29  46  68  95 126 156 189 232 285
#     4   9  17  30  50  74  98 128 166 205 244 285
#     4  11  21  32  48  69  94 123 157 196 238 287
#     4  10  19  33  52  71  97 131 166 201 239 291
#     4   9  17  30  49  72  97 125 160 200 239 282
#
# _framework density 16.823844000000001
#
# number of rings (size 3 to 8) (size 9 to 14) (size 15 to 20)
#    0.000    2.500    0.000    5.500    0.000    6.000 
#    0.000    1.667    0.000    4.500    0.000    4.667 
#    0.000    0.000    0.000    0.000    0.000    0.000 
#
# Total GULP energy -267236.116849 kJ/mol
# GULP energy per Si atom -5567.419101 kJ/mol
# Density = 1.678555 g / cm^3
# Si number density = 16.823844 Si / 1000 Ang^3
#
#
#
# Elastic Constant Matrix: (Units=GPa)
#
#
# Indices 1 2 3 4 5 6 
#
# 1 58.4005 37.0719 27.6052 0.0000 0.0000 0.0000
# 2 37.0719 118.3051 45.4208 0.0000 0.0000 0.0000
# 3 27.6052 45.4208 62.9327 0.0000 0.0000 0.0000
# 4 0.0000 0.0000 0.0000 14.1221 0.0000 0.0000
# 5 0.0000 0.0000 0.0000 0.0000 23.0231 0.0000
# 6 0.0000 0.0000 0.0000 0.0000 0.0000 23.2023
#
#
#
# Elastic Compliance Matrix: (Units=1/GPa)
#
#
# Indices 1 2 3 4 5 6 
#
# 1 0.023336 -0.004679 -0.006859 0.000000 0.000000 0.000000
# 2 -0.004679 0.012631 -0.007064 0.000000 0.000000 0.000000
# 3 -0.006859 -0.007064 0.023997 0.000000 0.000000 0.000000
# 4 0.000000 0.000000 0.000000 0.070811 0.000000 0.000000
# 5 0.000000 0.000000 0.000000 0.000000 0.043435 0.000000
# 6 0.000000 0.000000 0.000000 0.000000 0.000000 0.043099
#
#
# Mechanical properties :
#
#
# Convention : Reuss Voigt Hill
#
# Bulk Modulus (GPa) = 43.93734 51.09267 47.51500
# Shear Modulus (GPa) = 19.07683 20.70553 19.89118
#
# Velocity S-wave (km/s) = 3.37102 3.51198 3.44222
# Velocity P-wave (km/s) = 6.42841 6.84693 6.64097
#
# Compressibility (1/GPa) = 0.02275969
#
# Stress axis : x y z
#
# Youngs Moduli (GPa) = 42.85316 79.17099 41.67220
#
# Poissons Ratio (x) = 0.37044 0.28583
# Poissons Ratio (y) = 0.20051 0.29436
# Poissons Ratio (z) = 0.29393 0.55924
#
# Static dielectric constant tensor:
#      x y z
#    x 1.579300 0.000000 0.000000 
#    y 0.000000 1.591790 0.000000 
#    z 0.000000 0.000000 1.600460 
# 
# From -- ./inp_files/43172.got.cif
#   From: 2010.05.17/outbox.cif.g08.bks.cpg/sg64_22_cif.got.tgz:43172.got - 2010.06.03 16:29:19.
