data_PCOD9477541
_publ_section_title
;
Structure prediction by ZEFSAII (Michael W. Deem and Ramdas Pophale) SiO2 
 PCOD9477541
Probable space group: C M C A
;
_chemical_formula_sum "Si O2"
_cell_formula_units_Z 96
_cell_length_a 23.469319
_cell_length_b 24.018216
_cell_length_c 7.620396
_cell_angle_alpha 90.000000
_cell_angle_beta 90.000000
_cell_angle_gamma 90.000000
_cell_volume 4295.549961
_symmetry_space_group_name_H-M "C M C A"
_symmetry_group_IT_number 64
_symmetry_cell_setting 'orthorhombic'
loop_
_space_group_symop_operation_xyz
x,y,z
-x,1/2-y,1/2+z
x,-y,-z
-x,1/2+y,1/2-z
-x,-y,-z
x,1/2+y,1/2-z
-x,y,z
x,1/2-y,1/2+z
1/2+x,1/2+y,z
1/2-x,-y,1/2+z
1/2+x,1/2-y,-z
1/2-x,y,1/2-z
1/2-x,1/2-y,-z
1/2+x,y,1/2-z
1/2-x,1/2+y,z
1/2+x,-y,1/2+z
loop_
_atom_site_type_symbol
_atom_site_label
_atom_site_fract_x
_atom_site_fract_y
_atom_site_fract_z
Si Si1 0.565968 0.533423 0.685724
Si Si2 0.362106 0.378160 0.508942
Si Si3 0.566924 0.220186 0.146493
Si Si4 0.245904 0.438119 0.958637
Si Si5 0.436098 0.665475 0.967079
Si Si6 0.627308 0.437551 0.893112
O O1 0.565354 0.500000 0.500000
O O2 0.500000 0.539761 0.737431
O O3 0.598189 0.589294 0.627721
O O4 0.599747 0.495397 0.825812
O O5 0.389106 0.317749 0.537946
O O6 0.295957 0.391603 0.462599
O O7 0.365693 0.406839 0.702513
O O8 0.500000 0.218211 0.082108
O O9 0.564693 0.194088 0.339900
O O10 0.588175 0.283958 0.148012
O O11 0.250000 0.432121 0.750000
O O12 0.312907 0.438524 0.999246
O O13 0.222049 0.500000 0.000000
O O14 0.500000 0.658261 0.903794
O O15 0.411337 0.604765 0.997989
#
# Coordination Sequence:
#
# PCOD9477541 Si02
#       6
#    16  16  16  16  16  16
#     4   9  15  25  46  75 100 122 160 213 255 292
#     4   9  16  28  47  72  97 126 168 209 243 288
#     4   9  17  30  49  72  97 126 161 205 255 302
#     4  10  19  33  51  71  99 134 170 207 250 302
#     4   9  17  31  50  70  94 126 164 204 249 299
#     4   9  17  29  47  70  97 131 164 199 250 305
#
# _framework density 22.348710000000001
#
# number of rings (size 3 to 8) (size 9 to 14) (size 15 to 20)
#    0.000    2.833    0.000    3.500    0.000    4.000 
#    0.000    4.167    0.000    4.000    0.000    0.000 
#    0.000    0.000    0.000    0.000    0.000    0.000 
#
# Total GULP energy -267698.782911 kJ/mol
# GULP energy per Si atom -5577.057977 kJ/mol
# Density = 2.229784 g / cm^3
# Si number density = 22.348710 Si / 1000 Ang^3
#
#
#
# Elastic Constant Matrix: (Units=GPa)
#
#
# Indices 1 2 3 4 5 6 
#
# 1 96.9013 13.0498 17.8542 0.0000 0.0000 0.0000
# 2 13.0498 99.8507 8.2202 0.0000 0.0000 0.0000
# 3 17.8542 8.2202 67.7104 0.0000 0.0000 0.0000
# 4 0.0000 0.0000 0.0000 29.4405 0.0000 0.0000
# 5 0.0000 0.0000 0.0000 0.0000 39.2682 0.0000
# 6 0.0000 0.0000 0.0000 0.0000 0.0000 25.9375
#
#
#
# Elastic Compliance Matrix: (Units=1/GPa)
#
#
# Indices 1 2 3 4 5 6 
#
# 1 0.010990 -0.001210 -0.002751 0.000000 0.000000 0.000000
# 2 -0.001210 0.010249 -0.000925 0.000000 0.000000 0.000000
# 3 -0.002751 -0.000925 0.015606 0.000000 0.000000 0.000000
# 4 0.000000 0.000000 0.000000 0.033967 0.000000 0.000000
# 5 0.000000 0.000000 0.000000 0.000000 0.025466 0.000000
# 6 0.000000 0.000000 0.000000 0.000000 0.000000 0.038554
#
#
# Mechanical properties :
#
#
# Convention : Reuss Voigt Hill
#
# Bulk Modulus (GPa) = 36.93672 38.07897 37.50784
# Shear Modulus (GPa) = 32.54602 33.95179 33.24890
#
# Velocity S-wave (km/s) = 3.82027 3.90190 3.86130
# Velocity P-wave (km/s) = 6.00188 6.11353 6.05796
#
# Compressibility (1/GPa) = 0.02707333
#
# Stress axis : x y z
#
# Youngs Moduli (GPa) = 90.99539 97.56825 64.07595
#
# Poissons Ratio (x) = 0.11804 0.17627
# Poissons Ratio (y) = 0.11009 0.05929
# Poissons Ratio (z) = 0.25032 0.09028
#
# Static dielectric constant tensor:
#      x y z
#    x 1.869320 0.000000 0.000000 
#    y 0.000000 1.859930 0.000000 
#    z 0.000000 0.000000 1.921490 
# 
# From -- ./inp_files/8400.got.cif
#   From: 2010.05.17/outbox.cif.g08.bks.cpg/sg64_5_cif.got.tgz:8400.got - 2010.06.03 16:29:19.
