data_PCOD9477117
_publ_section_title
;
Structure prediction by ZEFSAII (Michael W. Deem and Ramdas Pophale) SiO2 
 PCOD9477117
Probable space group: C M C A
;
_chemical_formula_sum "Si O2"
_cell_formula_units_Z 96
_cell_length_a 27.306085
_cell_length_b 20.142709
_cell_length_c 9.541443
_cell_angle_alpha 90.000000
_cell_angle_beta 90.000000
_cell_angle_gamma 90.000000
_cell_volume 5247.970396
_symmetry_space_group_name_H-M "C M C A"
_symmetry_group_IT_number 64
_symmetry_cell_setting 'orthorhombic'
loop_
_space_group_symop_operation_xyz
x,y,z
-x,1/2-y,1/2+z
x,-y,-z
-x,1/2+y,1/2-z
-x,-y,-z
x,1/2+y,1/2-z
-x,y,z
x,1/2-y,1/2+z
1/2+x,1/2+y,z
1/2-x,-y,1/2+z
1/2+x,1/2-y,-z
1/2-x,y,1/2-z
1/2-x,1/2-y,-z
1/2+x,y,1/2-z
1/2-x,1/2+y,z
1/2+x,-y,1/2+z
loop_
_atom_site_type_symbol
_atom_site_label
_atom_site_fract_x
_atom_site_fract_y
_atom_site_fract_z
Si Si1 0.188465 0.719099 0.133030
Si Si2 0.625779 0.435651 0.904100
Si Si3 0.792014 0.169566 0.074180
Si Si4 0.921901 0.806325 0.615377
Si Si5 0.054788 0.679163 0.438288
Si Si6 0.943706 0.046975 0.368593
O O1 0.191372 0.719029 0.300832
O O2 0.233159 0.671629 0.084590
O O3 0.136104 0.691559 0.090747
O O4 0.194757 0.792117 0.068059
O O5 0.678443 0.397962 0.894290
O O6 0.592206 0.378958 0.976017
O O7 0.596287 0.452578 0.758853
O O8 0.629730 0.500000 0.000000
O O9 0.931898 0.799001 0.780736
O O10 0.941876 0.742934 0.535542
O O11 0.943792 0.877242 0.576597
O O12 0.000000 0.652024 0.438069
O O13 0.000000 0.031268 0.321620
O O14 0.931408 0.000000 0.500000
#
# Coordination Sequence:
#
# PCOD9477117 Si02
#       6
#    16  16  16  16  16  16
#     4  10  18  36  64  86 115 142 187 235 296 343
#     4  11  22  39  57  82 119 158 195 238 288 344
#     4  10  20  36  61  90 112 148 187 239 290 349
#     4  11  19  37  59  86 114 147 187 241 290 342
#     4  11  22  35  56  87 117 150 192 240 287 337
#     4  10  22  40  58  81 115 158 200 238 287 348
#
# _framework density 18.292787000000001
#
# number of rings (size 3 to 8) (size 9 to 14) (size 15 to 20)
#    0.000    1.500    5.000    3.000    0.000    2.667 
#    3.000    2.500    0.000    0.000    0.000    0.000 
#    0.000    0.000    0.000    0.000    0.000    0.000 
#
# Total GULP energy -267460.457624 kJ/mol
# GULP energy per Si atom -5572.092867 kJ/mol
# Density = 1.825115 g / cm^3
# Si number density = 18.292787 Si / 1000 Ang^3
#
#
#
# Elastic Constant Matrix: (Units=GPa)
#
#
# Indices 1 2 3 4 5 6 
#
# 1 109.2955 7.3397 -1.7488 0.0000 0.0000 0.0000
# 2 7.3397 81.1246 45.9336 0.0000 0.0000 0.0000
# 3 -1.7488 45.9336 50.5520 0.0000 0.0000 0.0000
# 4 0.0000 0.0000 0.0000 33.2847 0.0000 0.0000
# 5 0.0000 0.0000 0.0000 0.0000 14.1564 0.0000
# 6 0.0000 0.0000 0.0000 0.0000 0.0000 -6.3646
#
#
#
# Elastic Compliance Matrix: (Units=1/GPa)
#
#
# Indices 1 2 3 4 5 6 
#
# 1 0.009327 -0.002114 0.002244 0.000000 0.000000 0.000000
# 2 -0.002114 0.025868 -0.023578 0.000000 0.000000 0.000000
# 3 0.002244 -0.023578 0.041283 0.000000 0.000000 0.000000
# 4 0.000000 0.000000 0.000000 0.030044 0.000000 0.000000
# 5 0.000000 0.000000 0.000000 0.000000 0.070639 0.000000
# 6 0.000000 0.000000 0.000000 0.000000 0.000000 -0.157118
#
#
# Mechanical properties :
#
#
# Convention : Reuss Voigt Hill
#
# Bulk Modulus (GPa) = 33.80464 38.22457 36.01460
# Shear Modulus (GPa) = 65.10280 20.84513 42.97396
#
# Velocity S-wave (km/s) = 5.97215 3.37935 4.85214
# Velocity P-wave (km/s) = 8.12867 6.01399 7.14994
#
# Compressibility (1/GPa) = 0.02958174
#
# Stress axis : x y z
#
# Youngs Moduli (GPa) = 107.21093 38.65760 24.22293
#
# Poissons Ratio (x) = 0.08174 -0.05435
# Poissons Ratio (y) = 0.22669 0.57113
# Poissons Ratio (z) = -0.24058 0.91147
#
# Static dielectric constant tensor:
#      x y z
#    x 1.694150 0.000000 0.000000 
#    y 0.000000 1.603810 0.000000 
#    z 0.000000 0.000000 1.688100 
# 
# From -- ./inp_files/10356.got.cif
#   From: 2010.05.17/outbox.cif.g08.bks.cpg/sg64_6_cif.got.tgz:10356.got - 2010.06.03 16:29:19.
