data_PCOD9477258
_publ_section_title
;
Structure prediction by ZEFSAII (Michael W. Deem and Ramdas Pophale) SiO2 
 PCOD9477258
Probable space group: C M C A
;
_chemical_formula_sum "Si O2"
_cell_formula_units_Z 80
_cell_length_a 8.919604
_cell_length_b 25.699731
_cell_length_c 21.161659
_cell_angle_alpha 90.000000
_cell_angle_beta 90.000000
_cell_angle_gamma 90.000000
_cell_volume 4850.917215
_symmetry_space_group_name_H-M "C M C A"
_symmetry_group_IT_number 64
_symmetry_cell_setting 'orthorhombic'
loop_
_space_group_symop_operation_xyz
x,y,z
-x,1/2-y,1/2+z
x,-y,-z
-x,1/2+y,1/2-z
-x,-y,-z
x,1/2+y,1/2-z
-x,y,z
x,1/2-y,1/2+z
1/2+x,1/2+y,z
1/2-x,-y,1/2+z
1/2+x,1/2-y,-z
1/2-x,y,1/2-z
1/2-x,1/2-y,-z
1/2+x,y,1/2-z
1/2-x,1/2+y,z
1/2+x,-y,1/2+z
loop_
_atom_site_type_symbol
_atom_site_label
_atom_site_fract_x
_atom_site_fract_y
_atom_site_fract_z
Si Si1 0.321912 0.708049 0.588471
Si Si2 0.678579 0.626536 0.819140
Si Si3 0.322425 0.821465 0.545398
Si Si4 0.821159 0.572660 0.054971
Si Si5 0.820514 0.541682 0.909131
O O1 0.500000 0.698628 0.592916
O O2 0.238170 0.676816 0.642864
O O3 0.294459 0.770057 0.587208
O O4 0.263650 0.687453 0.520735
O O5 0.500000 0.627351 0.815354
O O6 0.750000 0.624930 0.750000
O O7 0.733854 0.576986 0.859715
O O8 0.500000 0.823865 0.532696
O O9 0.265023 0.875421 0.573969
O O10 0.781131 0.519488 0.091167
O O11 0.000000 0.580265 0.061030
O O12 0.790909 0.561642 0.980566
O O13 0.000000 0.546414 0.899046
#
# Coordination Sequence:
#
# PCOD9477258 Si02
#       5
#    16  16  16  16  16
#     4  10  20  34  50  73 107 140 173 214 259 309
#     4  12  24  37  55  77 103 139 178 218 259 306
#     4  10  19  30  50  79 108 137 170 213 262 309
#     4   9  17  30  52  77 108 141 167 208 263 311
#     4   9  18  33  51  76 106 139 174 210 258 309
#
# _framework density 16.491726
#
# number of rings (size 3 to 8) (size 9 to 14) (size 15 to 20)
#    0.000    2.000    2.000    4.200    0.000    3.200 
#    0.000    2.000    0.000    1.200    0.000    8.400 
#    0.000    0.000    0.000    0.000    0.000    0.000 
#
# Total GULP energy -223224.852456 kJ/mol
# GULP energy per Si atom -5580.621311 kJ/mol
# Density = 1.645419 g / cm^3
# Si number density = 16.491726 Si / 1000 Ang^3
#
#
#
# Elastic Constant Matrix: (Units=GPa)
#
#
# Indices 1 2 3 4 5 6 
#
# 1 100.1625 80.3027 59.5145 0.0000 0.0000 0.0000
# 2 80.3027 158.1387 53.1626 0.0000 0.0000 0.0000
# 3 59.5145 53.1626 84.8008 0.0000 0.0000 0.0000
# 4 0.0000 0.0000 0.0000 14.9913 0.0000 0.0000
# 5 0.0000 0.0000 0.0000 0.0000 23.6714 0.0000
# 6 0.0000 0.0000 0.0000 0.0000 0.0000 32.6075
#
#
#
# Elastic Compliance Matrix: (Units=1/GPa)
#
#
# Indices 1 2 3 4 5 6 
#
# 1 0.022944 -0.007903 -0.011148 0.000000 0.000000 0.000000
# 2 -0.007903 0.010734 -0.001183 0.000000 0.000000 0.000000
# 3 -0.011148 -0.001183 0.020357 0.000000 0.000000 0.000000
# 4 0.000000 0.000000 0.000000 0.066705 0.000000 0.000000
# 5 0.000000 0.000000 0.000000 0.000000 0.042245 0.000000
# 6 0.000000 0.000000 0.000000 0.000000 0.000000 0.030668
#
#
# Mechanical properties :
#
#
# Convention : Reuss Voigt Hill
#
# Bulk Modulus (GPa) = 73.70235 81.00686 77.35461
# Shear Modulus (GPa) = 20.95173 24.26220 22.60697
#
# Velocity S-wave (km/s) = 3.56819 3.83975 3.70646
# Velocity P-wave (km/s) = 7.85897 8.29967 8.08233
#
# Compressibility (1/GPa) = 0.01356809
#
# Stress axis : x y z
#
# Youngs Moduli (GPa) = 43.58517 93.15766 49.12195
#
# Poissons Ratio (x) = 0.73624 0.54759
# Poissons Ratio (y) = 0.34446 0.05811
# Poissons Ratio (z) = 0.48587 0.11021
#
# Static dielectric constant tensor:
#      x y z
#    x 1.547160 0.000000 0.000000 
#    y 0.000000 1.584520 0.000000 
#    z 0.000000 0.000000 1.514590 
# 
# From -- ./inp_files/29806.got.cif
#   From: 2010.05.17/outbox.cif.g08.bks.cpg/sg64_15_cif.got.tgz:29806.got - 2010.06.03 16:29:19.
