data_PCOD9477374
_publ_section_title
;
Structure prediction by ZEFSAII (Michael W. Deem and Ramdas Pophale) SiO2 
 PCOD9477374
Probable space group: C M C A
;
_chemical_formula_sum "Si O2"
_cell_formula_units_Z 120
_cell_length_a 26.844834
_cell_length_b 13.694962
_cell_length_c 12.647035
_cell_angle_alpha 90.000000
_cell_angle_beta 90.000000
_cell_angle_gamma 90.000000
_cell_volume 4649.543067
_symmetry_space_group_name_H-M "C M C A"
_symmetry_group_IT_number 64
_symmetry_cell_setting 'orthorhombic'
loop_
_space_group_symop_operation_xyz
x,y,z
-x,1/2-y,1/2+z
x,-y,-z
-x,1/2+y,1/2-z
-x,-y,-z
x,1/2+y,1/2-z
-x,y,z
x,1/2-y,1/2+z
1/2+x,1/2+y,z
1/2-x,-y,1/2+z
1/2+x,1/2-y,-z
1/2-x,y,1/2-z
1/2-x,1/2-y,-z
1/2+x,y,1/2-z
1/2-x,1/2+y,z
1/2+x,-y,1/2+z
loop_
_atom_site_type_symbol
_atom_site_label
_atom_site_fract_x
_atom_site_fract_y
_atom_site_fract_z
Si Si1 0.409988 0.086142 0.196286
Si Si2 0.556485 0.197255 0.749227
Si Si3 0.812126 0.115770 0.016289
Si Si4 0.803786 0.414443 0.754508
Si Si5 0.926735 0.853713 0.021970
Si Si6 0.095420 0.856461 0.461842
Si Si7 0.205241 0.381272 0.991319
Si Si8 0.500000 0.442944 0.847928
O O1 0.410766 0.204261 0.227632
O O2 0.357982 0.037963 0.233230
O O3 0.457134 0.049035 0.256580
O O4 0.412242 0.081025 0.068725
O O5 0.500000 0.232651 0.773337
O O6 0.554082 0.137469 0.640437
O O7 0.576539 0.130276 0.843356
O O8 0.808438 0.137558 0.141585
O O9 0.867026 0.137899 0.976330
O O10 0.759518 0.150813 0.967785
O O11 0.808791 0.000000 0.000000
O O12 0.750000 0.469296 0.750000
O O13 0.799896 0.357526 0.865901
O O14 0.934518 0.742043 0.989137
O O15 0.955976 0.916805 0.937176
O O16 0.155291 0.842147 0.455705
O O17 0.202333 0.500000 0.000000
#
# Coordination Sequence:
#
# PCOD9477374 Si02
#       8
#    16  16  16  16  16  16  16   8
#     4  10  19  31  54  82 106 146 185 228 266 319
#     4  11  20  33  52  79 115 147 178 223 281 326
#     4  10  20  37  58  80 109 147 182 221 279 333
#     4   9  17  33  55  78 106 142 185 227 271 325
#     4  11  22  35  55  85 113 143 184 229 270 322
#     4  10  21  34  56  85 108 144 183 226 272 325
#     4   9  20  37  58  81 109 143 182 226 274 331
#     4  12  18  34  57  82 114 142 192 232 260 324
#
# _framework density 25.808987999999999
#
# number of rings (size 3 to 8) (size 9 to 14) (size 15 to 20)
#    0.000    1.867    4.000    0.000    0.933    1.600 
#    0.000    5.000    0.000    0.400    0.000    0.000 
#    0.000    0.000    0.000    0.000    0.000    0.000 
#
# Total GULP energy -334165.157060 kJ/mol
# GULP energy per Si atom -5569.419284 kJ/mol
# Density = 2.575025 g / cm^3
# Si number density = 25.808988 Si / 1000 Ang^3
#
#
#
# Elastic Constant Matrix: (Units=GPa)
#
#
# Indices 1 2 3 4 5 6 
#
# 1 246.2221 24.5291 94.9198 0.0000 0.0000 0.0000
# 2 24.5291 72.9835 28.1144 0.0000 0.0000 0.0000
# 3 94.9198 28.1144 187.7172 0.0000 0.0000 0.0000
# 4 0.0000 0.0000 0.0000 29.5266 0.0000 0.0000
# 5 0.0000 0.0000 0.0000 0.0000 -7.2595 0.0000
# 6 0.0000 0.0000 0.0000 0.0000 0.0000 9.3534
#
#
#
# Elastic Compliance Matrix: (Units=1/GPa)
#
#
# Indices 1 2 3 4 5 6 
#
# 1 0.005084 -0.000762 -0.002457 0.000000 0.000000 0.000000
# 2 -0.000762 0.014655 -0.001809 0.000000 0.000000 0.000000
# 3 -0.002457 -0.001809 0.006840 0.000000 0.000000 0.000000
# 4 0.000000 0.000000 0.000000 0.033868 0.000000 0.000000
# 5 0.000000 0.000000 0.000000 0.000000 -0.137750 0.000000
# 6 0.000000 0.000000 0.000000 0.000000 0.000000 0.106913
#
#
# Mechanical properties :
#
#
# Convention : Reuss Voigt Hill
#
# Bulk Modulus (GPa) = 60.52278 89.11663 74.81971
# Shear Modulus (GPa) = 110.68095 30.28140 70.48118
#
# Velocity S-wave (km/s) = 6.55574 3.42905 5.23145
# Velocity P-wave (km/s) = 8.98915 7.09099 8.09589
#
# Compressibility (1/GPa) = 0.01652270
#
# Stress axis : x y z
#
# Youngs Moduli (GPa) = 196.67909 68.23624 146.18990
#
# Poissons Ratio (x) = 0.05203 0.35915
# Poissons Ratio (y) = 0.14996 0.26451
# Poissons Ratio (z) = 0.48319 0.12346
#
# Static dielectric constant tensor:
#      x y z
#    x 2.006810 0.000000 0.000000 
#    y 0.000000 2.198030 0.000000 
#    z 0.000000 0.000000 2.026540 
# 
# From -- ./inp_files/18584.got.cif
#   From: 2010.05.17/outbox.cif.g08.bks.cpg/sg64_10_cif.got.tgz:18584.got - 2010.06.03 16:29:19.
