data_PCOD9477264
_publ_section_title
;
Structure prediction by ZEFSAII (Michael W. Deem and Ramdas Pophale) SiO2 
 PCOD9477264
Probable space group: C M C A
;
_chemical_formula_sum "Si O2"
_cell_formula_units_Z 104
_cell_length_a 14.451514
_cell_length_b 14.926306
_cell_length_c 24.026992
_cell_angle_alpha 90.000000
_cell_angle_beta 90.000000
_cell_angle_gamma 90.000000
_cell_volume 5182.807666
_symmetry_space_group_name_H-M "C M C A"
_symmetry_group_IT_number 64
_symmetry_cell_setting 'orthorhombic'
loop_
_space_group_symop_operation_xyz
x,y,z
-x,1/2-y,1/2+z
x,-y,-z
-x,1/2+y,1/2-z
-x,-y,-z
x,1/2+y,1/2-z
-x,y,z
x,1/2-y,1/2+z
1/2+x,1/2+y,z
1/2-x,-y,1/2+z
1/2+x,1/2-y,-z
1/2-x,y,1/2-z
1/2-x,1/2-y,-z
1/2+x,y,1/2-z
1/2-x,1/2+y,z
1/2+x,-y,1/2+z
loop_
_atom_site_type_symbol
_atom_site_label
_atom_site_fract_x
_atom_site_fract_y
_atom_site_fract_z
Si Si1 0.178678 0.740691 0.701080
Si Si2 0.769043 0.239475 0.089148
Si Si3 0.709876 0.000000 0.000000
Si Si4 0.647344 0.949881 0.277479
Si Si5 0.717360 0.468911 0.886882
Si Si6 0.610210 0.813785 0.993351
Si Si7 0.098641 0.933566 0.675866
O O1 0.250000 0.765200 0.750000
O O2 0.240740 0.715370 0.647172
O O3 0.119756 0.653995 0.718099
O O4 0.122126 0.829450 0.686208
O O5 0.797817 0.136862 0.102637
O O6 0.850750 0.282368 0.053284
O O7 0.675056 0.237077 0.051840
O O8 0.644598 0.084140 0.012081
O O9 0.775225 0.016170 0.946476
O O10 0.750000 0.945642 0.250000
O O11 0.652037 0.991780 0.339113
O O12 0.597214 0.014596 0.234428
O O13 0.819938 0.474007 0.860717
O O14 0.500000 0.802923 0.987012
O O15 0.000000 0.941877 0.647345
#
# Coordination Sequence:
#
# PCOD9477264 Si02
#       7
#    16  16   8  16  16  16  16
#     4  10  19  34  55  76 102 136 174 212 260 317
#     4   9  19  34  53  77 104 143 180 214 272 323
#     4  10  19  30  52  80 103 134 171 216 274 322
#     4   9  18  34  55  75  98 133 173 213 256 308
#     4   9  18  34  53  73 103 135 172 217 262 316
#     4  10  20  34  52  77 107 137 177 224 267 318
#     4  10  20  33  50  75 106 136 170 215 262 312
#
# _framework density 20.066343
#
# number of rings (size 3 to 8) (size 9 to 14) (size 15 to 20)
#    0.000    2.462    0.000    3.462    0.000    6.769 
#    0.000    3.077    0.000    0.000    0.000   45.231 
#    0.000    0.000    0.000    0.000    0.000    0.000 
#
# Total GULP energy -290043.003481 kJ/mol
# GULP energy per Si atom -5577.750067 kJ/mol
# Density = 2.002067 g / cm^3
# Si number density = 20.066343 Si / 1000 Ang^3
#
#
#
# Elastic Constant Matrix: (Units=GPa)
#
#
# Indices 1 2 3 4 5 6 
#
# 1 35.3711 -2.0930 3.0042 0.0000 0.0000 0.0000
# 2 -2.0930 39.4228 2.4755 0.0000 0.0000 0.0000
# 3 3.0042 2.4755 109.8417 0.0000 0.0000 0.0000
# 4 0.0000 0.0000 0.0000 31.7350 0.0000 0.0000
# 5 0.0000 0.0000 0.0000 0.0000 0.0552 0.0000
# 6 0.0000 0.0000 0.0000 0.0000 0.0000 -27.7278
#
#
#
# Elastic Compliance Matrix: (Units=1/GPa)
#
#
# Indices 1 2 3 4 5 6 
#
# 1 0.028433 0.001561 -0.000813 0.000000 0.000000 0.000000
# 2 0.001561 0.025488 -0.000617 0.000000 0.000000 0.000000
# 3 -0.000813 -0.000617 0.009140 0.000000 0.000000 0.000000
# 4 0.000000 0.000000 0.000000 0.031511 0.000000 0.000000
# 5 0.000000 0.000000 0.000000 0.000000 18.113936 0.000000
# 6 0.000000 0.000000 0.000000 0.000000 0.000000 -0.036065
#
#
# Mechanical properties :
#
#
# Convention : Reuss Voigt Hill
#
# Bulk Modulus (GPa) = 15.79224 21.26765 18.52994
# Shear Modulus (GPa) = 0.27483 12.89574 6.58528
#
# Velocity S-wave (km/s) = 0.37048 2.53781 1.81353
# Velocity P-wave (km/s) = 2.84079 4.38281 3.69318
#
# Compressibility (1/GPa) = 0.06332225
#
# Stress axis : x y z
#
# Youngs Moduli (GPa) = 35.17029 39.23473 109.40736
#
# Poissons Ratio (x) = -0.06123 0.08893
# Poissons Ratio (y) = -0.05489 0.06751
# Poissons Ratio (z) = 0.02859 0.02421
#
# Static dielectric constant tensor:
#      x y z
#    x 1.681430 0.000000 0.000000 
#    y 0.000000 1.745210 0.000000 
#    z 0.000000 0.000000 1.753480 
# 
# From -- ./inp_files/45868.got.cif
#   From: 2010.05.17/outbox.cif.g08.bks.cpg/sg64_23_cif.got.tgz:45868.got - 2010.06.03 16:29:19.
