data_PCOD9477281
_publ_section_title
;
Structure prediction by ZEFSAII (Michael W. Deem and Ramdas Pophale) SiO2 
 PCOD9477281
Probable space group: C M C A
;
_chemical_formula_sum "Si O2"
_cell_formula_units_Z 112
_cell_length_a 7.517865
_cell_length_b 28.293823
_cell_length_c 25.452856
_cell_angle_alpha 90.000000
_cell_angle_beta 90.000000
_cell_angle_gamma 90.000000
_cell_volume 5414.055152
_symmetry_space_group_name_H-M "C M C A"
_symmetry_group_IT_number 64
_symmetry_cell_setting 'orthorhombic'
loop_
_space_group_symop_operation_xyz
x,y,z
-x,1/2-y,1/2+z
x,-y,-z
-x,1/2+y,1/2-z
-x,-y,-z
x,1/2+y,1/2-z
-x,y,z
x,1/2-y,1/2+z
1/2+x,1/2+y,z
1/2-x,-y,1/2+z
1/2+x,1/2-y,-z
1/2-x,y,1/2-z
1/2-x,1/2-y,-z
1/2+x,y,1/2-z
1/2-x,1/2+y,z
1/2+x,-y,1/2+z
loop_
_atom_site_type_symbol
_atom_site_label
_atom_site_fract_x
_atom_site_fract_y
_atom_site_fract_z
Si Si1 0.717596 0.583244 0.627543
Si Si2 0.285022 0.266964 0.409012
Si Si3 0.292407 0.341342 0.585252
Si Si4 0.712189 0.824503 0.189349
Si Si5 0.282564 0.859716 0.027483
Si Si6 0.786531 0.112925 0.308795
Si Si7 0.212864 0.505197 0.190794
O O1 0.500000 0.582422 0.627770
O O2 0.775221 0.624678 0.667769
O O3 0.772125 0.600762 0.569727
O O4 0.779616 0.532771 0.648721
O O5 0.500000 0.264961 0.410044
O O6 0.218769 0.214965 0.421045
O O7 0.224658 0.284606 0.351328
O O8 0.230242 0.308565 0.448855
O O9 0.500000 0.354580 0.586112
O O10 0.217393 0.364261 0.532024
O O11 0.217870 0.357387 0.641561
O O12 0.500000 0.825514 0.183486
O O13 0.750000 0.816531 0.250000
O O14 0.500000 0.859865 0.027000
O O15 0.750000 0.131177 0.250000
O O16 0.000000 0.111359 0.311851
O O17 0.718304 0.058834 0.312922
O O18 0.250000 0.487946 0.250000
O O19 0.000000 0.507780 0.184777
#
# Coordination Sequence:
#
# PCOD9477281 Si02
#       7
#    16  16  16  16  16  16  16
#     4   8  14  26  45  67  90 116 142 172 218 268
#     4   9  18  31  46  64  87 117 150 180 217 265
#     4  10  19  31  48  67  87 114 149 186 219 252
#     4   9  17  28  42  63  90 116 143 177 217 262
#     4   8  15  29  47  67  91 115 141 179 223 263
#     4   9  19  33  47  67  92 116 147 185 219 254
#     4   9  16  28  47  68  90 117 148 179 213 258
#
# _framework density 20.686896000000001
#
# number of rings (size 3 to 8) (size 9 to 14) (size 15 to 20)
#    0.000    3.143    0.000    2.571    0.000    1.714 
#    0.000    3.571    0.000    6.857    0.000    0.000 
#    0.000    5.714    0.000    0.000    0.000    0.000 
#
# Total GULP energy -312254.735091 kJ/mol
# GULP energy per Si atom -5575.977412 kJ/mol
# Density = 2.063981 g / cm^3
# Si number density = 20.686896 Si / 1000 Ang^3
#
#
#
# Elastic Constant Matrix: (Units=GPa)
#
#
# Indices 1 2 3 4 5 6 
#
# 1 50.2772 0.0236 6.8726 0.0000 0.0000 0.0000
# 2 0.0236 42.1870 44.3248 0.0000 0.0000 0.0000
# 3 6.8726 44.3248 176.7759 0.0000 0.0000 0.0000
# 4 0.0000 0.0000 0.0000 20.5383 0.0000 0.0000
# 5 0.0000 0.0000 0.0000 0.0000 11.1423 0.0000
# 6 0.0000 0.0000 0.0000 0.0000 0.0000 10.0774
#
#
#
# Elastic Compliance Matrix: (Units=1/GPa)
#
#
# Indices 1 2 3 4 5 6 
#
# 1 0.020033 0.001096 -0.001054 0.000000 0.000000 0.000000
# 2 0.001096 0.032242 -0.008127 0.000000 0.000000 0.000000
# 3 -0.001054 -0.008127 0.007736 0.000000 0.000000 0.000000
# 4 0.000000 0.000000 0.000000 0.048689 0.000000 0.000000
# 5 0.000000 0.000000 0.000000 0.000000 0.089748 0.000000
# 6 0.000000 0.000000 0.000000 0.000000 0.000000 0.099232
#
#
# Mechanical properties :
#
#
# Convention : Reuss Voigt Hill
#
# Bulk Modulus (GPa) = 22.80949 41.29800 32.05375
# Shear Modulus (GPa) = 15.22236 22.88622 19.05429
#
# Velocity S-wave (km/s) = 2.71559 3.32974 3.03822
# Velocity P-wave (km/s) = 4.56975 5.89827 5.27599
#
# Compressibility (1/GPa) = 0.04384139
#
# Stress axis : x y z
#
# Youngs Moduli (GPa) = 49.91705 31.01527 129.27240
#
# Poissons Ratio (x) = -0.03399 0.13620
# Poissons Ratio (y) = -0.05470 1.05060
# Poissons Ratio (z) = 0.05259 0.25206
#
# Static dielectric constant tensor:
#      x y z
#    x 1.812220 0.000000 0.000000 
#    y 0.000000 1.718990 0.000000 
#    z 0.000000 0.000000 1.763830 
# 
# From -- ./inp_files/44530.got.cif
#   From: 2010.05.17/outbox.cif.g08.bks.cpg/sg64_23_cif.got.tgz:44530.got - 2010.06.03 16:29:19.
