data_PCOD9477660
_publ_section_title
;
Structure prediction by ZEFSAII (Michael W. Deem and Ramdas Pophale) SiO2 
 PCOD9477660
Probable space group: C M C A
;
_chemical_formula_sum "Si O2"
_cell_formula_units_Z 128
_cell_length_a 17.796051
_cell_length_b 20.986030
_cell_length_c 18.078273
_cell_angle_alpha 90.000000
_cell_angle_beta 90.000000
_cell_angle_gamma 90.000000
_cell_volume 6751.664780
_symmetry_space_group_name_H-M "C M C A"
_symmetry_group_IT_number 64
_symmetry_cell_setting 'orthorhombic'
loop_
_space_group_symop_operation_xyz
x,y,z
-x,1/2-y,1/2+z
x,-y,-z
-x,1/2+y,1/2-z
-x,-y,-z
x,1/2+y,1/2-z
-x,y,z
x,1/2-y,1/2+z
1/2+x,1/2+y,z
1/2-x,-y,1/2+z
1/2+x,1/2-y,-z
1/2-x,y,1/2-z
1/2-x,1/2-y,-z
1/2+x,y,1/2-z
1/2-x,1/2+y,z
1/2+x,-y,1/2+z
loop_
_atom_site_type_symbol
_atom_site_label
_atom_site_fract_x
_atom_site_fract_y
_atom_site_fract_z
Si Si1 0.416236 0.305159 0.011502
Si Si2 0.300530 0.838308 0.174516
Si Si3 0.742507 0.893319 0.661473
Si Si4 0.696872 0.761595 0.893341
Si Si5 0.411788 0.450950 0.069500
Si Si6 0.259714 0.968995 0.339378
Si Si7 0.080511 0.148117 0.151645
Si Si8 0.915597 0.266505 0.259480
O O1 0.500000 0.283615 0.035687
O O2 0.348839 0.259269 0.034964
O O3 0.404514 0.377229 0.042443
O O4 0.418303 0.312617 0.923847
O O5 0.250000 0.837524 0.250000
O O6 0.268055 0.783040 0.122822
O O7 0.381764 0.819133 0.204261
O O8 0.287267 0.906706 0.138262
O O9 0.750000 0.882405 0.750000
O O10 0.778372 0.834170 0.618400
O O11 0.771080 0.962205 0.636399
O O12 0.652989 0.895173 0.650083
O O13 0.637651 0.742142 0.829298
O O14 0.500000 0.458759 0.093187
O O15 0.345028 0.460251 0.129811
O O16 0.400605 0.500000 0.000000
O O17 0.250000 0.971877 0.250000
O O18 0.085960 0.198919 0.217303
O O19 0.000000 0.113956 0.155800
O O20 0.000000 0.282413 0.280694
#
# Coordination Sequence:
#
# PCOD9477660 Si02
#       8
#    16  16  16  16  16  16  16  16
#     4  10  21  34  54  83 113 142 183 234 285 340
#     4   9  17  33  52  76 106 138 179 232 268 323
#     4  11  20  35  54  78 110 148 186 228 274 330
#     4  11  18  34  55  79 107 140 185 234 275 332
#     4  10  20  37  59  85 117 157 190 231 299 358
#     4  10  21  35  53  79 117 154 189 235 280 343
#     4  10  20  35  53  81 112 144 180 223 281 342
#     4  10  19  33  57  78 104 146 188 230 282 333
#
# _framework density 18.958286000000001
#
# number of rings (size 3 to 8) (size 9 to 14) (size 15 to 20)
#    0.000    1.875    3.750    1.500    0.000    2.000 
#    0.000    0.000    0.000    2.250    0.000    0.000 
#    0.000    5.000    0.000    0.000    0.000    0.000 
#
# Total GULP energy -356829.607809 kJ/mol
# GULP energy per Si atom -5575.462622 kJ/mol
# Density = 1.891514 g / cm^3
# Si number density = 18.958286 Si / 1000 Ang^3
#
#
#
# Elastic Constant Matrix: (Units=GPa)
#
#
# Indices 1 2 3 4 5 6 
#
# 1 87.0373 20.2239 15.9268 0.0000 0.0000 0.0000
# 2 20.2239 94.4672 -7.9780 0.0000 0.0000 0.0000
# 3 15.9268 -7.9780 46.6876 0.0000 0.0000 0.0000
# 4 0.0000 0.0000 0.0000 5.6375 0.0000 0.0000
# 5 0.0000 0.0000 0.0000 0.0000 22.5986 0.0000
# 6 0.0000 0.0000 0.0000 0.0000 0.0000 41.6662
#
#
#
# Elastic Compliance Matrix: (Units=1/GPa)
#
#
# Indices 1 2 3 4 5 6 
#
# 1 0.013167 -0.003245 -0.005046 0.000000 0.000000 0.000000
# 2 -0.003245 0.011540 0.003079 0.000000 0.000000 0.000000
# 3 -0.005046 0.003079 0.023667 0.000000 0.000000 0.000000
# 4 0.000000 0.000000 0.000000 0.177384 0.000000 0.000000
# 5 0.000000 0.000000 0.000000 0.000000 0.044251 0.000000
# 6 0.000000 0.000000 0.000000 0.000000 0.000000 0.024000
#
#
# Mechanical properties :
#
#
# Convention : Reuss Voigt Hill
#
# Bulk Modulus (GPa) = 26.35080 31.61525 28.98303
# Shear Modulus (GPa) = 15.76875 27.31509 21.54192
#
# Velocity S-wave (km/s) = 2.88715 3.79990 3.37453
# Velocity P-wave (km/s) = 5.00437 5.99706 5.52307
#
# Compressibility (1/GPa) = 0.03794951
#
# Stress axis : x y z
#
# Youngs Moduli (GPa) = 75.94919 86.65207 42.25380
#
# Poissons Ratio (x) = 0.28118 0.21322
# Poissons Ratio (y) = 0.24645 -0.13010
# Poissons Ratio (z) = 0.38325 -0.26680
#
# Static dielectric constant tensor:
#      x y z
#    x 1.702550 0.000000 0.000000 
#    y 0.000000 1.684980 0.000000 
#    z 0.000000 0.000000 1.687880 
# 
# From -- ./inp_files/40584.got.cif
#   From: 2010.05.17/outbox.cif.g08.bks.cpg/sg64_21_cif.got.tgz:40584.got - 2010.06.03 16:29:19.
