data_PCOD9477588
_publ_section_title
;
Structure prediction by ZEFSAII (Michael W. Deem and Ramdas Pophale) SiO2 
 PCOD9477588
Probable space group: C M C A
;
_chemical_formula_sum "Si O2"
_cell_formula_units_Z 96
_cell_length_a 7.565799
_cell_length_b 21.233497
_cell_length_c 27.611681
_cell_angle_alpha 90.000000
_cell_angle_beta 90.000000
_cell_angle_gamma 90.000000
_cell_volume 4435.771556
_symmetry_space_group_name_H-M "C M C A"
_symmetry_group_IT_number 64
_symmetry_cell_setting 'orthorhombic'
loop_
_space_group_symop_operation_xyz
x,y,z
-x,1/2-y,1/2+z
x,-y,-z
-x,1/2+y,1/2-z
-x,-y,-z
x,1/2+y,1/2-z
-x,y,z
x,1/2-y,1/2+z
1/2+x,1/2+y,z
1/2-x,-y,1/2+z
1/2+x,1/2-y,-z
1/2-x,y,1/2-z
1/2-x,1/2-y,-z
1/2+x,y,1/2-z
1/2-x,1/2+y,z
1/2+x,-y,1/2+z
loop_
_atom_site_type_symbol
_atom_site_label
_atom_site_fract_x
_atom_site_fract_y
_atom_site_fract_z
Si Si1 0.289820 0.673323 0.693199
Si Si2 0.707006 0.451395 0.135461
Si Si3 0.216729 0.300712 0.641323
Si Si4 0.288231 0.187630 0.469408
Si Si5 0.716312 0.935485 0.473435
Si Si6 0.712280 0.571975 0.193311
O O1 0.500000 0.671536 0.687208
O O2 0.250000 0.676149 0.750000
O O3 0.219890 0.609806 0.668981
O O4 0.223477 0.735932 0.666109
O O5 0.500000 0.465203 0.127709
O O6 0.779483 0.437154 0.082059
O O7 0.782068 0.512423 0.162831
O O8 0.275874 0.306092 0.585707
O O9 0.275224 0.361746 0.671528
O O10 0.000000 0.300102 0.641724
O O11 0.500000 0.181185 0.466153
O O12 0.250000 0.250000 0.500000
O O13 0.221533 0.125800 0.497334
O O14 0.500000 0.932778 0.473241
O O15 0.766058 0.000000 0.500000
O O16 0.500000 0.572223 0.188555
O O17 0.750000 0.565699 0.250000
#
# Coordination Sequence:
#
# PCOD9477588 Si02
#       6
#    16  16  16  16  16  16
#     4  11  22  36  54  75 103 137 173 213 258 310
#     4  10  20  34  54  80 108 137 171 213 259 306
#     4   9  19  35  54  76 102 135 171 210 257 303
#     4  10  19  33  54  78 105 135 169 209 253 302
#     4   9  17  31  54  81 105 135 177 217 250 296
#     4  10  20  35  54  75 101 133 171 213 256 302
#
# _framework density 21.642232
#
# number of rings (size 3 to 8) (size 9 to 14) (size 15 to 20)
#    0.000    2.167    0.000    3.500    0.000    6.000 
#    0.000    2.500    0.000    4.000    0.000    0.000 
#    0.000    0.000    0.000    0.000    0.000    0.000 
#
# Total GULP energy -268320.410871 kJ/mol
# GULP energy per Si atom -5590.008560 kJ/mol
# Density = 2.159297 g / cm^3
# Si number density = 21.642232 Si / 1000 Ang^3
#
#
#
# Elastic Constant Matrix: (Units=GPa)
#
#
# Indices 1 2 3 4 5 6 
#
# 1 46.3567 -17.5014 -16.2233 0.0000 0.0000 0.0000
# 2 -17.5014 147.8428 54.2026 0.0000 0.0000 0.0000
# 3 -16.2233 54.2026 154.7407 0.0000 0.0000 0.0000
# 4 0.0000 0.0000 0.0000 51.6159 0.0000 0.0000
# 5 0.0000 0.0000 0.0000 0.0000 -13.2742 0.0000
# 6 0.0000 0.0000 0.0000 0.0000 0.0000 -13.6523
#
#
#
# Elastic Compliance Matrix: (Units=1/GPa)
#
#
# Indices 1 2 3 4 5 6 
#
# 1 0.022951 0.002105 0.001669 0.000000 0.000000 0.000000
# 2 0.002105 0.007954 -0.002565 0.000000 0.000000 0.000000
# 3 0.001669 -0.002565 0.007536 0.000000 0.000000 0.000000
# 4 0.000000 0.000000 0.000000 0.019374 0.000000 0.000000
# 5 0.000000 0.000000 0.000000 0.000000 -0.075334 0.000000
# 6 0.000000 0.000000 0.000000 0.000000 0.000000 -0.073248
#
#
# Mechanical properties :
#
#
# Convention : Reuss Voigt Hill
#
# Bulk Modulus (GPa) = 24.47539 43.32176 33.89857
# Shear Modulus (GPa) = -62.84097 26.83537 -18.00280
#
# Velocity S-wave (km/s) = -5.39438 3.52512 -2.88729
# Velocity P-wave (km/s) = 5.24075 6.05221 2.14054
#
# Compressibility (1/GPa) = 0.04085737
#
# Stress axis : x y z
#
# Youngs Moduli (GPa) = 43.57176 125.72874 132.69706
#
# Poissons Ratio (x) = -0.26466 -0.22145
# Poissons Ratio (y) = -0.09172 0.34041
# Poissons Ratio (z) = -0.07271 0.32253
#
# Static dielectric constant tensor:
#      x y z
#    x 1.805460 0.000000 0.000000 
#    y 0.000000 1.707410 0.000000 
#    z 0.000000 0.000000 1.735110 
# 
# From -- ./inp_files/42997.got.cif
#   From: 2010.05.17/outbox.cif.g08.bks.cpg/sg64_22_cif.got.tgz:42997.got - 2010.06.03 16:29:19.
