data_PCOD9477953
_publ_section_title
;
Structure prediction by ZEFSAII (Michael W. Deem and Ramdas Pophale) SiO2 
 PCOD9477953
Probable space group: C M C A
;
_chemical_formula_sum "Si O2"
_cell_formula_units_Z 104
_cell_length_a 19.770184
_cell_length_b 18.463439
_cell_length_c 14.618393
_cell_angle_alpha 90.000000
_cell_angle_beta 90.000000
_cell_angle_gamma 90.000000
_cell_volume 5336.087476
_symmetry_space_group_name_H-M "C M C A"
_symmetry_group_IT_number 64
_symmetry_cell_setting 'orthorhombic'
loop_
_space_group_symop_operation_xyz
x,y,z
-x,1/2-y,1/2+z
x,-y,-z
-x,1/2+y,1/2-z
-x,-y,-z
x,1/2+y,1/2-z
-x,y,z
x,1/2-y,1/2+z
1/2+x,1/2+y,z
1/2-x,-y,1/2+z
1/2+x,1/2-y,-z
1/2-x,y,1/2-z
1/2-x,1/2-y,-z
1/2+x,y,1/2-z
1/2-x,1/2+y,z
1/2+x,-y,1/2+z
loop_
_atom_site_type_symbol
_atom_site_label
_atom_site_fract_x
_atom_site_fract_y
_atom_site_fract_z
Si Si1 0.500000 0.691043 0.545522
Si Si2 0.380050 0.318732 0.168991
Si Si3 0.105188 0.916825 0.995948
Si Si4 0.746596 0.225434 0.104686
Si Si5 0.643982 0.833503 0.134603
Si Si6 0.232899 0.415704 0.988745
Si Si7 0.500000 0.292839 0.672115
Si Si8 0.000000 0.850173 0.865151
O O1 0.428065 0.662492 0.583301
O O2 0.500000 0.685433 0.435021
O O3 0.500000 0.771107 0.588632
O O4 0.407429 0.368224 0.086232
O O5 0.311704 0.275432 0.146055
O O6 0.366432 0.361042 0.262655
O O7 0.435618 0.258056 0.187781
O O8 0.186045 0.915031 0.991173
O O9 0.066560 0.885716 0.908815
O O10 0.083718 0.000000 0.000000
O O11 0.819972 0.253052 0.141383
O O12 0.722939 0.141017 0.097194
O O13 0.750000 0.250000 0.000000
O O14 0.696730 0.879038 0.075317
O O15 0.212271 0.500000 0.000000
O O16 0.500000 0.349392 0.755473
#
# Coordination Sequence:
#
# PCOD9477953 Si02
#       8
#     8  16  16  16  16  16   8   8
#     4  12  22  41  66  98 127 160 218 273 334 372
#     4  12  21  37  65  98 126 175 218 266 329 376
#     4  11  23  41  65  94 136 176 212 273 332 390
#     4  10  19  35  62  87 124 164 208 269 313 366
#     4  11  22  39  66  95 130 169 220 275 314 395
#     4  10  22  40  63  89 133 178 211 263 330 382
#     4  12  24  36  66  97 130 160 214 278 320 382
#     4  12  23  41  62  97 130 164 217 274 322 393
#
# _framework density 19.489936
#
# number of rings (size 3 to 8) (size 9 to 14) (size 15 to 20)
#    0.000    0.923    6.154    3.462    0.000    0.000 
#    0.000    3.462    3.385    0.000    0.000    0.000 
#    0.000    0.000    0.000    0.000    0.000    0.000 
#
# Total GULP energy -289530.240885 kJ/mol
# GULP energy per Si atom -5567.889248 kJ/mol
# Density = 1.944558 g / cm^3
# Si number density = 19.489936 Si / 1000 Ang^3
#
#
#
# Elastic Constant Matrix: (Units=GPa)
#
#
# Indices 1 2 3 4 5 6 
#
# 1 116.3866 21.7228 37.8079 0.0000 0.0000 0.0000
# 2 21.7228 93.2005 27.6447 0.0000 0.0000 0.0000
# 3 37.8079 27.6447 114.8982 0.0000 0.0000 0.0000
# 4 0.0000 0.0000 0.0000 -12.0865 0.0000 0.0000
# 5 0.0000 0.0000 0.0000 0.0000 27.7816 0.0000
# 6 0.0000 0.0000 0.0000 0.0000 0.0000 22.3682
#
#
#
# Elastic Compliance Matrix: (Units=1/GPa)
#
#
# Indices 1 2 3 4 5 6 
#
# 1 0.009794 -0.001429 -0.002879 0.000000 0.000000 0.000000
# 2 -0.001429 0.011763 -0.002360 0.000000 0.000000 0.000000
# 3 -0.002879 -0.002360 0.010219 0.000000 0.000000 0.000000
# 4 0.000000 0.000000 0.000000 -0.082737 0.000000 0.000000
# 5 0.000000 0.000000 0.000000 0.000000 0.035995 0.000000
# 6 0.000000 0.000000 0.000000 0.000000 0.000000 0.044706
#
#
# Mechanical properties :
#
#
# Convention : Reuss Voigt Hill
#
# Bulk Modulus (GPa) = 54.23109 55.42623 54.82866
# Shear Modulus (GPa) = 101.58168 23.43331 62.50750
#
# Velocity S-wave (km/s) = 7.22726 3.47122 5.66933
# Velocity P-wave (km/s) = 9.87572 6.67578 8.42899
#
# Compressibility (1/GPa) = 0.01843961
#
# Stress axis : x y z
#
# Youngs Moduli (GPa) = 102.10374 85.01543 97.86163
#
# Poissons Ratio (x) = 0.12147 0.28174
# Poissons Ratio (y) = 0.14588 0.23095
# Poissons Ratio (z) = 0.29396 0.20063
#
# Static dielectric constant tensor:
#      x y z
#    x 1.724360 0.000000 0.000000 
#    y 0.000000 1.742850 0.000000 
#    z 0.000000 0.000000 1.707010 
# 
# From -- ./inp_files/26602.got.cif
#   From: 2010.05.17/outbox.cif.g08.bks.cpg/sg64_14_cif.got.tgz:26602.got - 2010.06.03 16:29:19.
