data_PCOD9477760
_publ_section_title
;
Structure prediction by ZEFSAII (Michael W. Deem and Ramdas Pophale) SiO2 
 PCOD9477760
Probable space group: C M C A
;
_chemical_formula_sum "Si O2"
_cell_formula_units_Z 96
_cell_length_a 15.160389
_cell_length_b 32.021066
_cell_length_c 9.357381
_cell_angle_alpha 90.000000
_cell_angle_beta 90.000000
_cell_angle_gamma 90.000000
_cell_volume 4542.557607
_symmetry_space_group_name_H-M "C M C A"
_symmetry_group_IT_number 64
_symmetry_cell_setting 'orthorhombic'
loop_
_space_group_symop_operation_xyz
x,y,z
-x,1/2-y,1/2+z
x,-y,-z
-x,1/2+y,1/2-z
-x,-y,-z
x,1/2+y,1/2-z
-x,y,z
x,1/2-y,1/2+z
1/2+x,1/2+y,z
1/2-x,-y,1/2+z
1/2+x,1/2-y,-z
1/2-x,y,1/2-z
1/2-x,1/2-y,-z
1/2+x,y,1/2-z
1/2-x,1/2+y,z
1/2+x,-y,1/2+z
loop_
_atom_site_type_symbol
_atom_site_label
_atom_site_fract_x
_atom_site_fract_y
_atom_site_fract_z
Si Si1 0.138023 0.961290 0.096529
Si Si2 0.392295 0.291863 0.651585
Si Si3 0.844273 0.870553 0.168383
Si Si4 0.099349 0.871247 0.480637
Si Si5 0.892220 0.207825 0.015101
Si Si6 0.348591 0.038687 0.916865
O O1 0.126968 0.911131 0.074576
O O2 0.243661 0.967090 0.096999
O O3 0.109148 0.963139 0.260788
O O4 0.103743 0.000000 0.000000
O O5 0.500000 0.292416 0.647049
O O6 0.359665 0.333233 0.569022
O O7 0.367293 0.290797 0.817882
O O8 0.366582 0.250492 0.565128
O O9 0.750000 0.878418 0.250000
O O10 0.901725 0.862156 0.310458
O O11 0.848537 0.830714 0.067759
O O12 0.140563 0.916952 0.492745
O O13 0.000000 0.875550 0.532585
O O14 0.000000 0.203448 0.006987
O O15 0.386512 0.000000 0.000000
#
# Coordination Sequence:
#
# PCOD9477760 Si02
#       6
#    16  16  16  16  16  16
#     4   9  17  33  53  73 101 144 179 215 261 326
#     4   9  19  36  57  83 108 144 187 222 267 336
#     4  11  20  36  55  81 111 142 184 231 271 325
#     4  10  19  34  56  78 110 144 180 225 276 328
#     4  10  20  36  59  81 108 145 187 226 271 326
#     4   9  17  31  51  75 104 136 177 222 268 321
#
# _framework density 21.133469000000002
#
# number of rings (size 3 to 8) (size 9 to 14) (size 15 to 20)
#    0.000    2.333    3.333    1.500    0.000    4.333 
#    0.000    4.167    0.000   12.500    0.000    0.000 
#    0.000    0.000    0.000    0.000    0.000    0.000 
#
# Total GULP energy -267419.523463 kJ/mol
# GULP energy per Si atom -5571.240072 kJ/mol
# Density = 2.108537 g / cm^3
# Si number density = 21.133469 Si / 1000 Ang^3
#
#
#
# Elastic Constant Matrix: (Units=GPa)
#
#
# Indices 1 2 3 4 5 6 
#
# 1 41.1625 6.6686 3.9962 0.0000 0.0000 0.0000
# 2 6.6686 232.7554 118.2803 0.0000 0.0000 0.0000
# 3 3.9962 118.2803 109.6499 0.0000 0.0000 0.0000
# 4 0.0000 0.0000 0.0000 55.2808 0.0000 0.0000
# 5 0.0000 0.0000 0.0000 0.0000 13.6741 0.0000
# 6 0.0000 0.0000 0.0000 0.0000 0.0000 19.8617
#
#
#
# Elastic Compliance Matrix: (Units=1/GPa)
#
#
# Indices 1 2 3 4 5 6 
#
# 1 0.024412 -0.000547 -0.000299 0.000000 0.000000 0.000000
# 2 -0.000547 0.009521 -0.010251 0.000000 0.000000 0.000000
# 3 -0.000299 -0.010251 0.020188 0.000000 0.000000 0.000000
# 4 0.000000 0.000000 0.000000 0.018089 0.000000 0.000000
# 5 0.000000 0.000000 0.000000 0.000000 0.073131 0.000000
# 6 0.000000 0.000000 0.000000 0.000000 0.000000 0.050348
#
#
# Mechanical properties :
#
#
# Convention : Reuss Voigt Hill
#
# Bulk Modulus (GPa) = 31.32177 71.27311 51.29744
# Shear Modulus (GPa) = 21.87935 34.73817 28.30876
#
# Velocity S-wave (km/s) = 3.22109 4.05872 3.66392
# Velocity P-wave (km/s) = 5.35602 7.46744 6.49806
#
# Compressibility (1/GPa) = 0.03192668
#
# Stress axis : x y z
#
# Youngs Moduli (GPa) = 40.96399 105.02995 49.53394
#
# Poissons Ratio (x) = 0.05749 0.01482
# Poissons Ratio (y) = 0.02242 0.50775
# Poissons Ratio (z) = 0.01226 1.07661
#
# Static dielectric constant tensor:
#      x y z
#    x 1.866230 0.000000 0.000000 
#    y 0.000000 1.783830 0.000000 
#    z 0.000000 0.000000 1.797060 
# 
# From -- ./inp_files/8434.got.cif
#   From: 2010.05.17/outbox.cif.g08.bks.cpg/sg64_5_cif.got.tgz:8434.got - 2010.06.03 16:29:19.
