data_PCOD9477546
_publ_section_title
;
Structure prediction by ZEFSAII (Michael W. Deem and Ramdas Pophale) SiO2 
 PCOD9477546
Probable space group: C M C A
;
_chemical_formula_sum "Si O2"
_cell_formula_units_Z 96
_cell_length_a 8.475169
_cell_length_b 26.136975
_cell_length_c 24.278830
_cell_angle_alpha 90.000000
_cell_angle_beta 90.000000
_cell_angle_gamma 90.000000
_cell_volume 5378.131832
_symmetry_space_group_name_H-M "C M C A"
_symmetry_group_IT_number 64
_symmetry_cell_setting 'orthorhombic'
loop_
_space_group_symop_operation_xyz
x,y,z
-x,1/2-y,1/2+z
x,-y,-z
-x,1/2+y,1/2-z
-x,-y,-z
x,1/2+y,1/2-z
-x,y,z
x,1/2-y,1/2+z
1/2+x,1/2+y,z
1/2-x,-y,1/2+z
1/2+x,1/2-y,-z
1/2-x,y,1/2-z
1/2-x,1/2-y,-z
1/2+x,y,1/2-z
1/2-x,1/2+y,z
1/2+x,-y,1/2+z
loop_
_atom_site_type_symbol
_atom_site_label
_atom_site_fract_x
_atom_site_fract_y
_atom_site_fract_z
Si Si1 0.189338 0.559652 0.188720
Si Si2 0.190841 0.346264 0.886480
Si Si3 0.192422 0.150966 0.880184
Si Si4 0.809653 0.249904 0.311867
Si Si5 0.810909 0.191667 0.998287
Si Si6 0.310411 0.553959 0.811348
O O1 0.250000 0.573006 0.250000
O O2 0.240502 0.601945 0.144439
O O3 0.249872 0.502845 0.175445
O O4 0.000000 0.558923 0.190569
O O5 0.241239 0.297991 0.849130
O O6 0.255210 0.337911 0.947478
O O7 0.000000 0.345783 0.889014
O O8 0.242699 0.197431 0.840534
O O9 0.243152 0.097066 0.854470
O O10 0.000000 0.150716 0.880438
O O11 0.243913 0.164177 0.942058
O O12 0.750000 0.245552 0.250000
O O13 0.000000 0.249845 0.311138
O O14 0.000000 0.193601 0.997189
O O15 0.750000 0.250000 0.000000
O O16 0.500000 0.553037 0.809990
O O17 0.250000 0.566970 0.750000
#
# Coordination Sequence:
#
# PCOD9477546 Si02
#       6
#    16  16  16  16  16  16
#     4  10  20  35  56  81 111 144 179 223 271 321
#     4  10  21  37  55  77 109 143 178 223 270 315
#     4   9  19  35  54  76 107 141 175 220 269 316
#     4  10  19  33  51  75 108 136 169 217 267 319
#     4  11  21  37  58  79 107 144 184 222 269 323
#     4  10  19  34  56  80 108 142 178 219 267 320
#
# _framework density 17.850064
#
# number of rings (size 3 to 8) (size 9 to 14) (size 15 to 20)
#    0.000    2.000    1.667    3.500    0.000    2.000 
#    0.000    5.000    0.000    5.000    0.000    0.000 
#    0.000    0.000    0.000    0.000    0.000    0.000 
#
# Total GULP energy -267987.904854 kJ/mol
# GULP energy per Si atom -5583.081351 kJ/mol
# Density = 1.780944 g / cm^3
# Si number density = 17.850064 Si / 1000 Ang^3
#
#
#
# Elastic Constant Matrix: (Units=GPa)
#
#
# Indices 1 2 3 4 5 6 
#
# 1 28.7664 27.9532 24.3357 0.0000 0.0000 0.0000
# 2 27.9532 130.0038 86.8714 0.0000 0.0000 0.0000
# 3 24.3357 86.8714 139.9792 0.0000 0.0000 0.0000
# 4 0.0000 0.0000 0.0000 48.8494 0.0000 0.0000
# 5 0.0000 0.0000 0.0000 0.0000 30.8736 0.0000
# 6 0.0000 0.0000 0.0000 0.0000 0.0000 20.8987
#
#
#
# Elastic Compliance Matrix: (Units=1/GPa)
#
#
# Indices 1 2 3 4 5 6 
#
# 1 0.044712 -0.007551 -0.003087 0.000000 0.000000 0.000000
# 2 -0.007551 0.014417 -0.007635 0.000000 0.000000 0.000000
# 3 -0.003087 -0.007635 0.012419 0.000000 0.000000 0.000000
# 4 0.000000 0.000000 0.000000 0.020471 0.000000 0.000000
# 5 0.000000 0.000000 0.000000 0.000000 0.032390 0.000000
# 6 0.000000 0.000000 0.000000 0.000000 0.000000 0.047850
#
#
# Mechanical properties :
#
#
# Convention : Reuss Voigt Hill
#
# Bulk Modulus (GPa) = 28.56945 64.11887 46.34416
# Shear Modulus (GPa) = 22.67861 30.76361 26.72111
#
# Velocity S-wave (km/s) = 3.56828 4.15594 3.87327
# Velocity P-wave (km/s) = 5.74603 7.68296 6.78398
#
# Compressibility (1/GPa) = 0.03500243
#
# Stress axis : x y z
#
# Youngs Moduli (GPa) = 22.36540 69.36086 80.52368
#
# Poissons Ratio (x) = 0.52375 0.24858
# Poissons Ratio (y) = 0.16888 0.61477
# Poissons Ratio (z) = 0.06904 0.52955
#
# Static dielectric constant tensor:
#      x y z
#    x 1.615040 0.000000 0.000000 
#    y 0.000000 1.601220 0.000000 
#    z 0.000000 0.000000 1.585060 
# 
# From -- ./inp_files/37037.got.cif
#   From: 2010.05.17/outbox.cif.g08.bks.cpg/sg64_19_cif.got.tgz:37037.got - 2010.06.03 16:29:19.
