data_PCOD9477031
_publ_section_title
;
Structure prediction by ZEFSAII (Michael W. Deem and Ramdas Pophale) SiO2 
 PCOD9477031
Probable space group: C M C A
;
_chemical_formula_sum "Si O2"
_cell_formula_units_Z 128
_cell_length_a 18.863007
_cell_length_b 15.133485
_cell_length_c 22.839447
_cell_angle_alpha 90.000000
_cell_angle_beta 90.000000
_cell_angle_gamma 90.000000
_cell_volume 6519.817824
_symmetry_space_group_name_H-M "C M C A"
_symmetry_group_IT_number 64
_symmetry_cell_setting 'orthorhombic'
loop_
_space_group_symop_operation_xyz
x,y,z
-x,1/2-y,1/2+z
x,-y,-z
-x,1/2+y,1/2-z
-x,-y,-z
x,1/2+y,1/2-z
-x,y,z
x,1/2-y,1/2+z
1/2+x,1/2+y,z
1/2-x,-y,1/2+z
1/2+x,1/2-y,-z
1/2-x,y,1/2-z
1/2-x,1/2-y,-z
1/2+x,y,1/2-z
1/2-x,1/2+y,z
1/2+x,-y,1/2+z
loop_
_atom_site_type_symbol
_atom_site_label
_atom_site_fract_x
_atom_site_fract_y
_atom_site_fract_z
Si Si1 0.420210 0.110404 0.643395
Si Si2 0.923805 0.903112 0.824539
Si Si3 0.305513 0.670369 0.510192
Si Si4 0.085450 0.869106 0.274999
Si Si5 0.691469 0.039550 0.559985
Si Si6 0.173220 0.952830 0.727131
Si Si7 0.139789 0.251165 0.618927
Si Si8 0.771403 0.627034 0.112405
O O1 0.500000 0.139008 0.626146
O O2 0.400804 0.154031 0.706122
O O3 0.359934 0.107397 0.593969
O O4 0.424732 0.004992 0.657105
O O5 0.861846 0.893882 0.777614
O O6 0.909709 0.837249 0.877575
O O7 0.000000 0.881634 0.797477
O O8 0.250000 0.750000 0.500000
O O9 0.261064 0.592302 0.540227
O O10 0.363523 0.701412 0.556860
O O11 0.321258 0.640770 0.444120
O O12 0.117926 0.806785 0.325032
O O13 0.000000 0.873393 0.280925
O O14 0.121757 0.964609 0.283245
O O15 0.658479 0.000000 0.500000
O O16 0.719303 0.956554 0.598031
O O17 0.250000 0.984775 0.750000
O O18 0.185403 0.897373 0.669284
O O19 0.219968 0.289274 0.622564
#
# Coordination Sequence:
#
# PCOD9477031 Si02
#       8
#    16  16  16  16  16  16  16  16
#     4   9  18  35  54  78 109 151 198 238 284 351
#     4  10  20  35  57  80 115 154 190 239 289 348
#     4   9  21  35  54  82 115 150 186 246 303 340
#     4  10  22  37  57  83 118 157 193 244 303 356
#     4  10  18  34  57  80 113 152 191 242 300 349
#     4  11  19  36  57  84 114 147 203 240 288 359
#     4  11  19  36  57  81 113 148 196 230 303 356
#     4  10  19  35  55  87 116 142 189 250 287 350
#
# _framework density 19.632451
#
# number of rings (size 3 to 8) (size 9 to 14) (size 15 to 20)
#    0.000    2.000    2.500    3.000    0.000    0.250 
#    9.000    0.000    0.000    3.750    0.000    0.000 
#    0.000    0.000    0.000    0.000    0.000    0.000 
#
# Total GULP energy -356719.051727 kJ/mol
# GULP energy per Si atom -5573.735183 kJ/mol
# Density = 1.958777 g / cm^3
# Si number density = 19.632451 Si / 1000 Ang^3
#
#
#
# Elastic Constant Matrix: (Units=GPa)
#
#
# Indices 1 2 3 4 5 6 
#
# 1 63.7595 10.7738 38.4756 0.0000 0.0000 0.0000
# 2 10.7738 44.0287 16.8101 0.0000 0.0000 0.0000
# 3 38.4756 16.8101 83.4418 0.0000 0.0000 0.0000
# 4 0.0000 0.0000 0.0000 28.8427 0.0000 0.0000
# 5 0.0000 0.0000 0.0000 0.0000 20.6669 0.0000
# 6 0.0000 0.0000 0.0000 0.0000 0.0000 5.8172
#
#
#
# Elastic Compliance Matrix: (Units=1/GPa)
#
#
# Indices 1 2 3 4 5 6 
#
# 1 0.021837 -0.001624 -0.009742 0.000000 0.000000 0.000000
# 2 -0.001624 0.024726 -0.004232 0.000000 0.000000 0.000000
# 3 -0.009742 -0.004232 0.017329 0.000000 0.000000 0.000000
# 4 0.000000 0.000000 0.000000 0.034671 0.000000 0.000000
# 5 0.000000 0.000000 0.000000 0.000000 0.048386 0.000000
# 6 0.000000 0.000000 0.000000 0.000000 0.000000 0.171905
#
#
# Mechanical properties :
#
#
# Convention : Reuss Voigt Hill
#
# Bulk Modulus (GPa) = 30.58556 35.92766 33.25661
# Shear Modulus (GPa) = 13.85234 19.41007 16.63120
#
# Velocity S-wave (km/s) = 2.65916 3.14773 2.91370
# Velocity P-wave (km/s) = 5.00411 5.61701 5.31939
#
# Compressibility (1/GPa) = 0.03269517
#
# Stress axis : x y z
#
# Youngs Moduli (GPa) = 45.79338 40.44364 57.70607
#
# Poissons Ratio (x) = 0.06568 0.56218
# Poissons Ratio (y) = 0.07437 0.24423
# Poissons Ratio (z) = 0.44612 0.17117
#
# Static dielectric constant tensor:
#      x y z
#    x 1.705230 0.000000 0.000000 
#    y 0.000000 1.747840 0.000000 
#    z 0.000000 0.000000 1.736410 
# 
# From -- ./inp_files/41167.got.cif
#   From: 2010.05.17/outbox.cif.g08.bks.cpg/sg64_21_cif.got.tgz:41167.got - 2010.06.03 16:29:19.
