data_PCOD9477921
_publ_section_title
;
Structure prediction by ZEFSAII (Michael W. Deem and Ramdas Pophale) SiO2 
 PCOD9477921
Probable space group: C M C A
;
_chemical_formula_sum "Si O2"
_cell_formula_units_Z 80
_cell_length_a 7.764645
_cell_length_b 16.225875
_cell_length_c 29.852272
_cell_angle_alpha 90.000000
_cell_angle_beta 90.000000
_cell_angle_gamma 90.000000
_cell_volume 3761.032797
_symmetry_space_group_name_H-M "C M C A"
_symmetry_group_IT_number 64
_symmetry_cell_setting 'orthorhombic'
loop_
_space_group_symop_operation_xyz
x,y,z
-x,1/2-y,1/2+z
x,-y,-z
-x,1/2+y,1/2-z
-x,-y,-z
x,1/2+y,1/2-z
-x,y,z
x,1/2-y,1/2+z
1/2+x,1/2+y,z
1/2-x,-y,1/2+z
1/2+x,1/2-y,-z
1/2-x,y,1/2-z
1/2-x,1/2-y,-z
1/2+x,y,1/2-z
1/2-x,1/2+y,z
1/2+x,-y,1/2+z
loop_
_atom_site_type_symbol
_atom_site_label
_atom_site_fract_x
_atom_site_fract_y
_atom_site_fract_z
Si Si1 0.295387 0.871379 0.197969
Si Si2 0.293423 0.787568 0.451852
Si Si3 0.200612 0.024104 0.547887
Si Si4 0.211712 0.031091 0.355645
Si Si5 0.205314 0.788296 0.640280
O O1 0.500000 0.873992 0.194007
O O2 0.250000 0.867998 0.250000
O O3 0.238762 0.789519 0.171821
O O4 0.227051 0.955027 0.174689
O O5 0.500000 0.795884 0.448732
O O6 0.250000 0.750000 0.500000
O O7 0.213297 0.877908 0.447372
O O8 0.231866 0.732667 0.409944
O O9 0.000000 0.998068 0.546277
O O10 0.279650 0.000000 0.500000
O O11 0.270405 0.984311 0.593211
O O12 0.268441 0.123031 0.342401
O O13 0.000000 0.028149 0.354994
O O14 0.000000 0.796709 0.636559
#
# Coordination Sequence:
#
# PCOD9477921 Si02
#       5
#    16  16  16  16  16
#     4  11  23  41  64  89 119 156 200 252 304 361
#     4  11  22  35  56  86 124 163 205 252 300 359
#     4  10  19  35  59  85 119 161 202 245 302 363
#     4   9  19  37  61  87 119 157 198 243 299 361
#     4  10  21  40  63  89 121 159 202 250 301 359
#
# _framework density 21.270752999999999
#
# number of rings (size 3 to 8) (size 9 to 14) (size 15 to 20)
#    0.000    1.800    2.000    2.400    0.000    5.200 
#    0.000    5.000    0.000    0.000    0.000    0.000 
#    0.000    0.000    0.000    0.000    0.000    0.000 
#
# Total GULP energy -223431.974874 kJ/mol
# GULP energy per Si atom -5585.799372 kJ/mol
# Density = 2.122234 g / cm^3
# Si number density = 21.270753 Si / 1000 Ang^3
#
#
#
# Elastic Constant Matrix: (Units=GPa)
#
#
# Indices 1 2 3 4 5 6 
#
# 1 19.7887 -7.7228 -4.1328 0.0000 0.0000 0.0000
# 2 -7.7228 194.2265 92.4898 0.0000 0.0000 0.0000
# 3 -4.1328 92.4898 152.6163 0.0000 0.0000 0.0000
# 4 0.0000 0.0000 0.0000 30.2264 0.0000 0.0000
# 5 0.0000 0.0000 0.0000 0.0000 4.2123 0.0000
# 6 0.0000 0.0000 0.0000 0.0000 0.0000 -27.9066
#
#
#
# Elastic Compliance Matrix: (Units=1/GPa)
#
#
# Indices 1 2 3 4 5 6 
#
# 1 0.051336 0.001939 0.000215 0.000000 0.000000 0.000000
# 2 0.001939 0.007310 -0.004378 0.000000 0.000000 0.000000
# 3 0.000215 -0.004378 0.009211 0.000000 0.000000 0.000000
# 4 0.000000 0.000000 0.000000 0.033084 0.000000 0.000000
# 5 0.000000 0.000000 0.000000 0.000000 0.237403 0.000000
# 6 0.000000 0.000000 0.000000 0.000000 0.000000 -0.035834
#
#
# Mechanical properties :
#
#
# Convention : Reuss Voigt Hill
#
# Bulk Modulus (GPa) = 15.77051 58.65556 37.21304
# Shear Modulus (GPa) = 15.23953 20.37289 17.80621
#
# Velocity S-wave (km/s) = 2.67957 3.09817 2.89644
# Velocity P-wave (km/s) = 4.12356 6.35876 5.35899
#
# Compressibility (1/GPa) = 0.06340949
#
# Stress axis : x y z
#
# Youngs Moduli (GPa) = 19.47967 136.79117 108.56239
#
# Poissons Ratio (x) = -0.26520 -0.02337
# Poissons Ratio (y) = -0.03777 0.47527
# Poissons Ratio (z) = -0.00419 0.59885
#
# Static dielectric constant tensor:
#      x y z
#    x 1.807810 0.000000 0.000000 
#    y 0.000000 1.772260 0.000000 
#    z 0.000000 0.000000 1.738690 
# 
# From -- ./inp_files/47870.got.cif
#   From: 2010.05.17/outbox.cif.g08.bks.cpg/sg64_24_cif.got.tgz:47870.got - 2010.06.03 16:29:19.
