data_PCOD9477371
_publ_section_title
;
Structure prediction by ZEFSAII (Michael W. Deem and Ramdas Pophale) SiO2 
 PCOD9477371
Probable space group: C M C A
;
_chemical_formula_sum "Si O2"
_cell_formula_units_Z 96
_cell_length_a 14.271944
_cell_length_b 15.389065
_cell_length_c 20.319958
_cell_angle_alpha 90.000000
_cell_angle_beta 90.000000
_cell_angle_gamma 90.000000
_cell_volume 4462.910453
_symmetry_space_group_name_H-M "C M C A"
_symmetry_group_IT_number 64
_symmetry_cell_setting 'orthorhombic'
loop_
_space_group_symop_operation_xyz
x,y,z
-x,1/2-y,1/2+z
x,-y,-z
-x,1/2+y,1/2-z
-x,-y,-z
x,1/2+y,1/2-z
-x,y,z
x,1/2-y,1/2+z
1/2+x,1/2+y,z
1/2-x,-y,1/2+z
1/2+x,1/2-y,-z
1/2-x,y,1/2-z
1/2-x,1/2-y,-z
1/2+x,y,1/2-z
1/2-x,1/2+y,z
1/2+x,-y,1/2+z
loop_
_atom_site_type_symbol
_atom_site_label
_atom_site_fract_x
_atom_site_fract_y
_atom_site_fract_z
Si Si1 0.769735 0.944805 0.134151
Si Si2 0.895970 0.076781 0.552221
Si Si3 0.748312 0.743427 0.326872
Si Si4 0.601511 0.392487 0.020779
Si Si5 0.891610 0.607709 0.363881
Si Si6 0.392413 0.806186 0.937524
O O1 0.661631 0.956157 0.114701
O O2 0.771898 0.847535 0.165568
O O3 0.825694 0.027853 0.163263
O O4 0.817734 0.935422 0.062637
O O5 0.852586 0.150174 0.504220
O O6 0.000000 0.106094 0.571840
O O7 0.902901 0.000000 0.500000
O O8 0.750000 0.723431 0.250000
O O9 0.847196 0.702438 0.349677
O O10 0.672727 0.692846 0.373020
O O11 0.500000 0.428076 0.042672
O O12 0.609799 0.397185 0.943124
O O13 0.601446 0.293558 0.042893
O O14 0.000000 0.600011 0.342054
O O15 0.500000 0.838357 0.926181
#
# Coordination Sequence:
#
# PCOD9477371 Si02
#       6
#    16  16  16  16  16  16
#     4  11  21  36  60  89 123 161 198 248 309 370
#     4  10  19  31  53  87 122 155 193 242 306 377
#     4  11  25  41  59  84 119 164 214 259 300 350
#     4   9  17  31  56  89 118 145 185 241 306 372
#     4  11  23  40  64  93 123 157 200 251 308 370
#     4   9  18  34  56  83 118 158 199 245 302 365
#
# _framework density 21.510626999999999
#
# number of rings (size 3 to 8) (size 9 to 14) (size 15 to 20)
#    0.000    1.833    0.000    5.000    0.000    8.000 
#    0.000    0.000    0.000    4.000    0.000    0.000 
#    0.000    0.000    0.000    0.000    0.000    0.000 
#
# Total GULP energy -267374.182024 kJ/mol
# GULP energy per Si atom -5570.295459 kJ/mol
# Density = 2.146167 g / cm^3
# Si number density = 21.510627 Si / 1000 Ang^3
#
#
#
# Elastic Constant Matrix: (Units=GPa)
#
#
# Indices 1 2 3 4 5 6 
#
# 1 97.3653 25.7487 36.0327 0.0000 0.0000 0.0000
# 2 25.7487 65.9183 12.8266 0.0000 0.0000 0.0000
# 3 36.0327 12.8266 43.0543 0.0000 0.0000 0.0000
# 4 0.0000 0.0000 0.0000 11.6951 0.0000 0.0000
# 5 0.0000 0.0000 0.0000 0.0000 9.2360 0.0000
# 6 0.0000 0.0000 0.0000 0.0000 0.0000 -29.1593
#
#
#
# Elastic Compliance Matrix: (Units=1/GPa)
#
#
# Indices 1 2 3 4 5 6 
#
# 1 0.015728 -0.003803 -0.012030 0.000000 0.000000 0.000000
# 2 -0.003803 0.017023 -0.001889 0.000000 0.000000 0.000000
# 3 -0.012030 -0.001889 0.033858 0.000000 0.000000 0.000000
# 4 0.000000 0.000000 0.000000 0.085506 0.000000 0.000000
# 5 0.000000 0.000000 0.000000 0.000000 0.108272 0.000000
# 6 0.000000 0.000000 0.000000 0.000000 0.000000 -0.034294
#
#
# Mechanical properties :
#
#
# Convention : Reuss Voigt Hill
#
# Bulk Modulus (GPa) = 32.08719 39.50599 35.79659
# Shear Modulus (GPa) = 18.38743 7.13637 12.76190
#
# Velocity S-wave (km/s) = 2.92688 1.82340 2.43838
# Velocity P-wave (km/s) = 5.13531 4.77899 4.96035
#
# Compressibility (1/GPa) = 0.03116508
#
# Stress axis : x y z
#
# Youngs Moduli (GPa) = 63.57904 58.74309 29.53551
#
# Poissons Ratio (x) = 0.22339 0.35532
# Poissons Ratio (y) = 0.24178 0.05579
# Poissons Ratio (z) = 0.76488 0.11096
#
# Static dielectric constant tensor:
#      x y z
#    x 1.910450 0.000000 0.000000 
#    y 0.000000 1.897440 0.000000 
#    z 0.000000 0.000000 1.752440 
# 
# From -- ./inp_files/39215.got.cif
#   From: 2010.05.17/outbox.cif.g08.bks.cpg/sg64_20_cif.got.tgz:39215.got - 2010.06.03 16:29:19.
