data_PCOD9477241
_publ_section_title
;
Structure prediction by ZEFSAII (Michael W. Deem and Ramdas Pophale) SiO2 
 PCOD9477241
Probable space group: C M C A
;
_chemical_formula_sum "Si O2"
_cell_formula_units_Z 96
_cell_length_a 9.581940
_cell_length_b 14.332673
_cell_length_c 31.899570
_cell_angle_alpha 90.000000
_cell_angle_beta 90.000000
_cell_angle_gamma 90.000000
_cell_volume 4380.921472
_symmetry_space_group_name_H-M "C M C A"
_symmetry_group_IT_number 64
_symmetry_cell_setting 'orthorhombic'
loop_
_space_group_symop_operation_xyz
x,y,z
-x,1/2-y,1/2+z
x,-y,-z
-x,1/2+y,1/2-z
-x,-y,-z
x,1/2+y,1/2-z
-x,y,z
x,1/2-y,1/2+z
1/2+x,1/2+y,z
1/2-x,-y,1/2+z
1/2+x,1/2-y,-z
1/2-x,y,1/2-z
1/2-x,1/2-y,-z
1/2+x,y,1/2-z
1/2-x,1/2+y,z
1/2+x,-y,1/2+z
loop_
_atom_site_type_symbol
_atom_site_label
_atom_site_fract_x
_atom_site_fract_y
_atom_site_fract_z
Si Si1 0.342451 0.091393 0.288505
Si Si2 0.157091 0.573714 0.129099
Si Si3 0.842896 0.647740 0.881499
Si Si4 0.838287 0.599467 0.447868
Si Si5 0.657563 0.686008 0.711281
Si Si6 0.660813 0.372963 0.040918
O O1 0.500000 0.052813 0.290389
O O2 0.250000 0.055841 0.250000
O O3 0.255470 0.078216 0.330656
O O4 0.355072 0.202936 0.283037
O O5 0.145467 0.464285 0.118560
O O6 0.236178 0.620976 0.090314
O O7 0.000000 0.609851 0.136556
O O8 0.782221 0.671808 0.835573
O O9 0.755193 0.670225 0.922783
O O10 0.000000 0.687637 0.883089
O O11 0.793524 0.640593 0.492772
O O12 0.838241 0.486055 0.452800
O O13 0.000000 0.624984 0.439856
O O14 0.500000 0.645259 0.711590
O O15 0.750000 0.651713 0.750000
O O16 0.500000 0.342803 0.044933
#
# Coordination Sequence:
#
# PCOD9477241 Si02
#       6
#    16  16  16  16  16  16
#     4  10  20  35  53  69  90 122 158 194 231 276
#     4  10  19  30  47  73 101 125 153 191 234 278
#     4   9  18  31  47  71 100 124 151 191 236 278
#     4   8  14  26  43  65  95 127 158 190 226 272
#     4   9  19  35  52  69  90 121 158 192 230 277
#     4   8  14  25  43  67  94 125 158 190 227 273
#
# _framework density 21.913198999999999
#
# number of rings (size 3 to 8) (size 9 to 14) (size 15 to 20)
#    0.000    3.000    0.000    2.000    0.000    3.333 
#    0.000    5.000    0.000    1.000    0.000    0.000 
#    0.000    0.000    0.000    0.000    0.000    0.000 
#
# Total GULP energy -267924.923394 kJ/mol
# GULP energy per Si atom -5581.769237 kJ/mol
# Density = 2.186332 g / cm^3
# Si number density = 21.913199 Si / 1000 Ang^3
#
#
#
# Elastic Constant Matrix: (Units=GPa)
#
#
# Indices 1 2 3 4 5 6 
#
# 1 150.1381 -1.8488 125.9861 0.0000 0.0000 0.0000
# 2 -1.8488 51.7586 -2.3026 0.0000 0.0000 0.0000
# 3 125.9861 -2.3026 219.9132 0.0000 0.0000 0.0000
# 4 0.0000 0.0000 0.0000 32.0624 0.0000 0.0000
# 5 0.0000 0.0000 0.0000 0.0000 37.8645 0.0000
# 6 0.0000 0.0000 0.0000 0.0000 0.0000 7.3316
#
#
#
# Elastic Compliance Matrix: (Units=1/GPa)
#
#
# Indices 1 2 3 4 5 6 
#
# 1 0.012828 0.000131 -0.007347 0.000000 0.000000 0.000000
# 2 0.000131 0.019331 0.000127 0.000000 0.000000 0.000000
# 3 -0.007347 0.000127 0.008758 0.000000 0.000000 0.000000
# 4 0.000000 0.000000 0.000000 0.031189 0.000000 0.000000
# 5 0.000000 0.000000 0.000000 0.000000 0.026410 0.000000
# 6 0.000000 0.000000 0.000000 0.000000 0.000000 0.136395
#
#
# Mechanical properties :
#
#
# Convention : Reuss Voigt Hill
#
# Bulk Modulus (GPa) = 37.39935 73.94214 55.67075
# Shear Modulus (GPa) = 19.37972 35.45005 27.41489
#
# Velocity S-wave (km/s) = 2.97709 4.02649 3.54088
# Velocity P-wave (km/s) = 5.37787 7.44535 6.49441
#
# Compressibility (1/GPa) = 0.02673843
#
# Stress axis : x y z
#
# Youngs Moduli (GPa) = 77.95645 51.73084 114.18291
#
# Poissons Ratio (x) = -0.00679 0.83896
# Poissons Ratio (y) = -0.01024 -0.01452
# Poissons Ratio (z) = 0.57278 -0.00658
#
# Static dielectric constant tensor:
#      x y z
#    x 1.796830 0.000000 0.000000 
#    y 0.000000 1.853440 0.000000 
#    z 0.000000 0.000000 1.788060 
# 
# From -- ./inp_files/48070.got.cif
#   From: 2010.05.17/outbox.cif.g08.bks.cpg/sg64_25_cif.got.tgz:48070.got - 2010.06.03 16:29:19.
