data_PCOD9477519
_publ_section_title
;
Structure prediction by ZEFSAII (Michael W. Deem and Ramdas Pophale) SiO2 
 PCOD9477519
Probable space group: C M C A
;
_chemical_formula_sum "Si O2"
_cell_formula_units_Z 116
_cell_length_a 7.996644
_cell_length_b 33.711584
_cell_length_c 23.272426
_cell_angle_alpha 90.000000
_cell_angle_beta 90.000000
_cell_angle_gamma 90.000000
_cell_volume 6273.769801
_symmetry_space_group_name_H-M "C M C A"
_symmetry_group_IT_number 64
_symmetry_cell_setting 'orthorhombic'
loop_
_space_group_symop_operation_xyz
x,y,z
-x,1/2-y,1/2+z
x,-y,-z
-x,1/2+y,1/2-z
-x,-y,-z
x,1/2+y,1/2-z
-x,y,z
x,1/2-y,1/2+z
1/2+x,1/2+y,z
1/2-x,-y,1/2+z
1/2+x,1/2-y,-z
1/2-x,y,1/2-z
1/2-x,1/2-y,-z
1/2+x,y,1/2-z
1/2-x,1/2+y,z
1/2+x,-y,1/2+z
loop_
_atom_site_type_symbol
_atom_site_label
_atom_site_fract_x
_atom_site_fract_y
_atom_site_fract_z
Si Si1 0.801794 0.691837 0.028776
Si Si2 0.799675 0.732516 0.911560
Si Si3 0.698365 0.592193 0.878623
Si Si4 0.699332 0.603853 0.009036
Si Si5 0.799190 0.172808 0.683803
Si Si6 0.806602 0.987145 0.315663
Si Si7 0.195064 0.023317 0.075108
Si Si8 0.500000 0.500000 0.500000
O O1 0.733148 0.708934 0.967895
O O2 0.758101 0.645885 0.033059
O O3 0.000000 0.695295 0.026465
O O4 0.741988 0.721593 0.078272
O O5 0.740825 0.710323 0.854404
O O6 0.000000 0.729174 0.912097
O O7 0.500000 0.583759 0.881928
O O8 0.764509 0.596864 0.944061
O O9 0.727113 0.633254 0.845430
O O10 0.778255 0.556331 0.843329
O O11 0.500000 0.605866 0.004458
O O12 0.737920 0.566759 0.049962
O O13 0.750000 0.175855 0.750000
O O14 0.000000 0.170100 0.680291
O O15 0.750000 0.986783 0.250000
O O16 0.708503 0.017438 0.356917
O O17 0.000000 0.997553 0.317424
O O18 0.346860 0.997371 0.048664
O O19 0.000000 0.013980 0.059373
#
# Coordination Sequence:
#
# PCOD9477519 Si02
#       8
#    16  16  16  16  16  16  16   4
#     4  10  19  32  57  84 112 144 188 237 286 350
#     4   9  19  35  52  78 112 148 188 232 288 343
#     4  11  22  37  57  85 118 159 201 246 296 360
#     4  10  22  37  59  87 123 157 191 249 305 358
#     4  11  22  37  54  79 114 157 198 241 285 350
#     4  12  25  43  64  87 119 165 212 260 311 372
#     4  11  24  42  62  93 126 161 211 259 317 376
#     4  12  22  40  64  94 124 168 198 258 320 374
#
# _framework density 18.48968
#
# number of rings (size 3 to 8) (size 9 to 14) (size 15 to 20)
#    0.000    1.379    2.069    3.931    0.966    3.310 
#    0.000    0.000    0.000    0.828    0.000    3.862 
#    0.000    0.000    0.000    0.000    0.000    0.000 
#
# Total GULP energy -323307.021703 kJ/mol
# GULP energy per Si atom -5574.258995 kJ/mol
# Density = 1.844760 g / cm^3
# Si number density = 18.489680 Si / 1000 Ang^3
#
#
#
# Elastic Constant Matrix: (Units=GPa)
#
#
# Indices 1 2 3 4 5 6 
#
# 1 58.3719 18.9168 16.2146 0.0000 0.0000 0.0000
# 2 18.9168 106.1402 84.8894 0.0000 0.0000 0.0000
# 3 16.2146 84.8894 142.2797 0.0000 0.0000 0.0000
# 4 0.0000 0.0000 0.0000 25.1198 0.0000 0.0000
# 5 0.0000 0.0000 0.0000 0.0000 24.3138 0.0000
# 6 0.0000 0.0000 0.0000 0.0000 0.0000 17.6637
#
#
#
# Elastic Compliance Matrix: (Units=1/GPa)
#
#
# Indices 1 2 3 4 5 6 
#
# 1 0.018187 -0.003029 -0.000265 0.000000 0.000000 0.000000
# 2 -0.003029 0.018525 -0.010708 0.000000 0.000000 0.000000
# 3 -0.000265 -0.010708 0.013447 0.000000 0.000000 0.000000
# 4 0.000000 0.000000 0.000000 0.039809 0.000000 0.000000
# 5 0.000000 0.000000 0.000000 0.000000 0.041129 0.000000
# 6 0.000000 0.000000 0.000000 0.000000 0.000000 0.056613
#
#
# Mechanical properties :
#
#
# Convention : Reuss Voigt Hill
#
# Bulk Modulus (GPa) = 45.13630 60.75927 52.94779
# Shear Modulus (GPa) = 22.41151 25.87088 24.14119
#
# Velocity S-wave (km/s) = 3.48531 3.74465 3.61731
# Velocity P-wave (km/s) = 6.37661 7.18534 6.79302
#
# Compressibility (1/GPa) = 0.02215511
#
# Stress axis : x y z
#
# Youngs Moduli (GPa) = 54.98467 53.98066 74.36490
#
# Poissons Ratio (x) = 0.16351 0.01973
# Poissons Ratio (y) = 0.16656 0.79627
# Poissons Ratio (z) = 0.01459 0.57800
#
# Static dielectric constant tensor:
#      x y z
#    x 1.657840 0.000000 0.000000 
#    y 0.000000 1.653100 0.000000 
#    z 0.000000 0.000000 1.657220 
# 
# From -- ./inp_files/43573.got.cif
#   From: 2010.05.17/outbox.cif.g08.bks.cpg/sg64_22_cif.got.tgz:43573.got - 2010.06.03 16:29:19.
