data_PCOD9477081
_publ_section_title
;
Structure prediction by ZEFSAII (Michael W. Deem and Ramdas Pophale) SiO2 
 PCOD9477081
Probable space group: C M C A
;
_chemical_formula_sum "Si O2"
_cell_formula_units_Z 88
_cell_length_a 12.811054
_cell_length_b 14.007140
_cell_length_c 28.093995
_cell_angle_alpha 90.000000
_cell_angle_beta 90.000000
_cell_angle_gamma 90.000000
_cell_volume 5041.361402
_symmetry_space_group_name_H-M "C M C A"
_symmetry_group_IT_number 64
_symmetry_cell_setting 'orthorhombic'
loop_
_space_group_symop_operation_xyz
x,y,z
-x,1/2-y,1/2+z
x,-y,-z
-x,1/2+y,1/2-z
-x,-y,-z
x,1/2+y,1/2-z
-x,y,z
x,1/2-y,1/2+z
1/2+x,1/2+y,z
1/2-x,-y,1/2+z
1/2+x,1/2-y,-z
1/2-x,y,1/2-z
1/2-x,1/2-y,-z
1/2+x,y,1/2-z
1/2-x,1/2+y,z
1/2+x,-y,1/2+z
loop_
_atom_site_type_symbol
_atom_site_label
_atom_site_fract_x
_atom_site_fract_y
_atom_site_fract_z
Si Si1 0.196207 0.408380 0.065055
Si Si2 0.376247 0.616199 0.461019
Si Si3 0.624803 0.795059 0.390319
Si Si4 0.500000 0.558833 0.301965
Si Si5 0.338069 0.773962 0.787906
Si Si6 0.500000 0.142548 0.763996
Si Si7 0.000000 0.110008 0.629833
O O1 0.178657 0.521772 0.059585
O O2 0.308207 0.379063 0.085668
O O3 0.103621 0.372927 0.099651
O O4 0.174349 0.365894 0.012646
O O5 0.500000 0.595481 0.467828
O O6 0.367740 0.704912 0.425710
O O7 0.500000 0.813482 0.382272
O O8 0.680041 0.767252 0.340574
O O9 0.596526 0.629594 0.296579
O O10 0.500000 0.472365 0.264055
O O11 0.500000 0.501033 0.351757
O O12 0.250000 0.797374 0.750000
O O13 0.403270 0.690938 0.761670
O O14 0.500000 0.166203 0.820299
#
# Coordination Sequence:
#
# PCOD9477081 Si02
#       7
#    16  16  16   8  16   8   8
#     4  11  19  35  64  89 117 153 204 249 293 348
#     4  10  20  38  61  92 119 155 206 251 290 357
#     4  11  23  39  60  86 125 160 196 239 309 362
#     4   9  21  38  58  81 113 143 197 240 299 338
#     4  11  21  40  57  83 115 154 191 242 296 353
#     4   9  21  36  55  82 116 142 194 238 288 345
#     4  10  18  35  59  91 109 147 203 251 285 341
#
# _framework density 17.455601999999999
#
# number of rings (size 3 to 8) (size 9 to 14) (size 15 to 20)
#    0.545    1.091    3.636    3.273    0.000    0.727 
#    3.273    1.818    2.000    0.000    0.000    0.000 
#    0.000    0.000    0.000    0.000    0.000    0.000 
#
# Total GULP energy -245166.281347 kJ/mol
# GULP energy per Si atom -5571.960940 kJ/mol
# Density = 1.741587 g / cm^3
# Si number density = 17.455602 Si / 1000 Ang^3
#
#
#
# Elastic Constant Matrix: (Units=GPa)
#
#
# Indices 1 2 3 4 5 6 
#
# 1 70.8512 9.5278 34.7365 0.0000 0.0000 0.0000
# 2 9.5278 39.4723 21.2508 0.0000 0.0000 0.0000
# 3 34.7365 21.2508 117.8848 0.0000 0.0000 0.0000
# 4 0.0000 0.0000 0.0000 29.0917 0.0000 0.0000
# 5 0.0000 0.0000 0.0000 0.0000 10.7708 0.0000
# 6 0.0000 0.0000 0.0000 0.0000 0.0000 -1.2025
#
#
#
# Elastic Compliance Matrix: (Units=1/GPa)
#
#
# Indices 1 2 3 4 5 6 
#
# 1 0.016579 -0.001519 -0.004611 0.000000 0.000000 0.000000
# 2 -0.001519 0.028196 -0.004635 0.000000 0.000000 0.000000
# 3 -0.004611 -0.004635 0.010677 0.000000 0.000000 0.000000
# 4 0.000000 0.000000 0.000000 0.034374 0.000000 0.000000
# 5 0.000000 0.000000 0.000000 0.000000 0.092844 0.000000
# 6 0.000000 0.000000 0.000000 0.000000 0.000000 -0.831632
#
#
# Mechanical properties :
#
#
# Convention : Reuss Voigt Hill
#
# Bulk Modulus (GPa) = 29.48012 39.91538 34.69775
# Shear Modulus (GPa) = -8.11528 18.57822 5.23147
#
# Velocity S-wave (km/s) = -2.15852 3.26592 1.73307
# Velocity P-wave (km/s) = 3.27308 6.09410 4.89138
#
# Compressibility (1/GPa) = 0.03392116
#
# Stress axis : x y z
#
# Youngs Moduli (GPa) = 60.31633 35.46549 93.65683
#
# Poissons Ratio (x) = 0.05388 0.43190
# Poissons Ratio (y) = 0.09163 0.43412
# Poissons Ratio (z) = 0.27815 0.16439
#
# Static dielectric constant tensor:
#      x y z
#    x 1.583220 0.000000 0.000000 
#    y 0.000000 1.576350 0.000000 
#    z 0.000000 0.000000 1.616390 
# 
# From -- ./inp_files/52765.got.cif
#   From: 2010.05.17/outbox.cif.g08.bks.cpg/sg64_27_cif.got.tgz:52765.got - 2010.06.03 16:29:19.
