data_PCOD9477451
_publ_section_title
;
Structure prediction by ZEFSAII (Michael W. Deem and Ramdas Pophale) SiO2 
 PCOD9477451
Probable space group: C M C A
;
_chemical_formula_sum "Si O2"
_cell_formula_units_Z 96
_cell_length_a 7.616965
_cell_length_b 31.253141
_cell_length_c 19.779121
_cell_angle_alpha 90.000000
_cell_angle_beta 90.000000
_cell_angle_gamma 90.000000
_cell_volume 4708.500475
_symmetry_space_group_name_H-M "C M C A"
_symmetry_group_IT_number 64
_symmetry_cell_setting 'orthorhombic'
loop_
_space_group_symop_operation_xyz
x,y,z
-x,1/2-y,1/2+z
x,-y,-z
-x,1/2+y,1/2-z
-x,-y,-z
x,1/2+y,1/2-z
-x,y,z
x,1/2-y,1/2+z
1/2+x,1/2+y,z
1/2-x,-y,1/2+z
1/2+x,1/2-y,-z
1/2-x,y,1/2-z
1/2-x,1/2-y,-z
1/2+x,y,1/2-z
1/2-x,1/2+y,z
1/2+x,-y,1/2+z
loop_
_atom_site_type_symbol
_atom_site_label
_atom_site_fract_x
_atom_site_fract_y
_atom_site_fract_z
Si Si1 0.714361 0.481435 0.073555
Si Si2 0.784411 0.860649 0.911639
Si Si3 0.789574 0.444069 0.670982
Si Si4 0.707133 0.114385 0.560088
Si Si5 0.210795 0.779747 0.827856
Si Si6 0.208675 0.816665 0.327575
O O1 0.500000 0.481205 0.076707
O O2 0.776408 0.514040 0.131256
O O3 0.777487 0.432601 0.078854
O O4 0.761154 0.500000 0.000000
O O5 0.727656 0.900866 0.865960
O O6 0.724153 0.816299 0.878270
O O7 0.000000 0.859723 0.911148
O O8 0.724059 0.868302 0.988375
O O9 0.750000 0.444460 0.750000
O O10 0.000000 0.443922 0.663725
O O11 0.500000 0.108007 0.548755
O O12 0.727559 0.148599 0.619275
O O13 0.250000 0.791220 0.750000
O O14 0.279061 0.731551 0.839902
O O15 0.000000 0.778129 0.834413
O O16 0.250000 0.828050 0.250000
O O17 0.000000 0.814903 0.334205
#
# Coordination Sequence:
#
# PCOD9477451 Si02
#       6
#    16  16  16  16  16  16
#     4   9  16  31  54  76  99 135 178 211 245 300
#     4   9  17  31  53  78 103 134 172 209 252 312
#     4  10  19  32  52  78 105 133 170 213 255 303
#     4  10  19  33  56  80 102 135 175 213 255 306
#     4   9  18  33  52  74 102 137 173 212 257 306
#     4  10  21  37  54  74 103 136 173 216 260 306
#
# _framework density 20.388656999999998
#
# number of rings (size 3 to 8) (size 9 to 14) (size 15 to 20)
#    0.000    2.500    1.667    1.000    0.000    2.000 
#    0.000    4.167    0.000    1.000    0.000    0.000 
#    0.000    0.000    0.000    0.000    0.000    0.000 
#
# Total GULP energy -267948.616782 kJ/mol
# GULP energy per Si atom -5582.262850 kJ/mol
# Density = 2.034225 g / cm^3
# Si number density = 20.388657 Si / 1000 Ang^3
#
#
#
# Elastic Constant Matrix: (Units=GPa)
#
#
# Indices 1 2 3 4 5 6 
#
# 1 35.8223 -2.9598 -11.8874 0.0000 0.0000 0.0000
# 2 -2.9598 179.6614 125.3006 0.0000 0.0000 0.0000
# 3 -11.8874 125.3006 168.5243 0.0000 0.0000 0.0000
# 4 0.0000 0.0000 0.0000 41.5439 0.0000 0.0000
# 5 0.0000 0.0000 0.0000 0.0000 16.8677 0.0000
# 6 0.0000 0.0000 0.0000 0.0000 0.0000 2.2190
#
#
#
# Elastic Compliance Matrix: (Units=1/GPa)
#
#
# Indices 1 2 3 4 5 6 
#
# 1 0.028915 -0.001965 0.003501 0.000000 0.000000 0.000000
# 2 -0.001965 0.011694 -0.008834 0.000000 0.000000 0.000000
# 3 0.003501 -0.008834 0.012749 0.000000 0.000000 0.000000
# 4 0.000000 0.000000 0.000000 0.024071 0.000000 0.000000
# 5 0.000000 0.000000 0.000000 0.000000 0.059285 0.000000
# 6 0.000000 0.000000 0.000000 0.000000 0.000000 0.450646
#
#
# Mechanical properties :
#
#
# Convention : Reuss Voigt Hill
#
# Bulk Modulus (GPa) = 25.79850 67.21277 46.50563
# Shear Modulus (GPa) = 8.13170 30.36308 19.24739
#
# Velocity S-wave (km/s) = 1.99925 3.86322 3.07583
# Velocity P-wave (km/s) = 4.24384 7.27576 5.95595
#
# Compressibility (1/GPa) = 0.03876195
#
# Stress axis : x y z
#
# Youngs Moduli (GPa) = 34.58428 85.51042 78.43892
#
# Poissons Ratio (x) = 0.16804 -0.27459
# Poissons Ratio (y) = 0.06796 0.69290
# Poissons Ratio (z) = -0.12107 0.75537
#
# Static dielectric constant tensor:
#      x y z
#    x 1.773200 0.000000 0.000000 
#    y 0.000000 1.730410 0.000000 
#    z 0.000000 0.000000 1.665390 
# 
# From -- ./inp_files/37021.got.cif
#   From: 2010.05.17/outbox.cif.g08.bks.cpg/sg64_19_cif.got.tgz:37021.got - 2010.06.03 16:29:19.
