data_PCOD9477656
_publ_section_title
;
Structure prediction by ZEFSAII (Michael W. Deem and Ramdas Pophale) SiO2 
 PCOD9477656
Probable space group: C M C A
;
_chemical_formula_sum "Si O2"
_cell_formula_units_Z 112
_cell_length_a 18.131523
_cell_length_b 21.731571
_cell_length_c 12.651126
_cell_angle_alpha 90.000000
_cell_angle_beta 90.000000
_cell_angle_gamma 90.000000
_cell_volume 4984.878638
_symmetry_space_group_name_H-M "C M C A"
_symmetry_group_IT_number 64
_symmetry_cell_setting 'orthorhombic'
loop_
_space_group_symop_operation_xyz
x,y,z
-x,1/2-y,1/2+z
x,-y,-z
-x,1/2+y,1/2-z
-x,-y,-z
x,1/2+y,1/2-z
-x,y,z
x,1/2-y,1/2+z
1/2+x,1/2+y,z
1/2-x,-y,1/2+z
1/2+x,1/2-y,-z
1/2-x,y,1/2-z
1/2-x,1/2-y,-z
1/2+x,y,1/2-z
1/2-x,1/2+y,z
1/2+x,-y,1/2+z
loop_
_atom_site_type_symbol
_atom_site_label
_atom_site_fract_x
_atom_site_fract_y
_atom_site_fract_z
Si Si1 0.088081 0.439935 0.734207
Si Si2 0.870760 0.745278 0.522816
Si Si3 0.415540 0.874046 0.361617
Si Si4 0.808056 0.433222 0.529483
Si Si5 0.911477 0.068273 0.651864
Si Si6 0.915002 0.379705 0.940777
Si Si7 0.735867 0.310658 0.872877
O O1 0.136396 0.438273 0.629395
O O2 0.105541 0.502954 0.796440
O O3 0.110406 0.387992 0.820034
O O4 0.000000 0.437088 0.709437
O O5 0.912444 0.693695 0.589404
O O6 0.912114 0.809849 0.518890
O O7 0.796796 0.762737 0.586726
O O8 0.843052 0.716834 0.411560
O O9 0.500000 0.897678 0.370411
O O10 0.358509 0.913012 0.430756
O O11 0.392350 0.880323 0.239312
O O12 0.775892 0.500000 0.500000
O O13 0.757815 0.375159 0.563112
O O14 0.881136 0.080156 0.535501
O O15 0.000000 0.070265 0.641646
O O16 0.000000 0.400305 0.930771
O O17 0.750000 0.319020 0.750000
#
# Coordination Sequence:
#
# PCOD9477656 Si02
#       7
#    16  16  16  16  16  16  16
#     4  10  19  33  56  88 124 159 188 236 305 366
#     4  10  22  39  60  82 114 157 201 249 298 354
#     4  10  20  35  60  92 121 151 190 239 303 367
#     4  11  21  37  62  86 120 154 201 252 303 358
#     4   9  18  32  53  84 122 155 185 232 291 362
#     4  10  20  35  57  89 122 155 197 240 299 370
#     4  10  23  42  60  80 112 158 205 255 303 347
#
# _framework density 22.467949000000001
#
# number of rings (size 3 to 8) (size 9 to 14) (size 15 to 20)
#    0.000    2.000    1.429    2.143    2.000    2.286 
#    0.000    2.857    0.000    0.000    0.000    0.000 
#    0.000    0.000    0.000    0.000    0.000    0.000 
#
# Total GULP energy -312623.771218 kJ/mol
# GULP energy per Si atom -5582.567343 kJ/mol
# Density = 2.241681 g / cm^3
# Si number density = 22.467949 Si / 1000 Ang^3
#
#
#
# Elastic Constant Matrix: (Units=GPa)
#
#
# Indices 1 2 3 4 5 6 
#
# 1 38.2406 -0.3029 16.6391 0.0000 0.0000 0.0000
# 2 -0.3029 81.8631 20.6390 0.0000 0.0000 0.0000
# 3 16.6391 20.6390 100.8030 0.0000 0.0000 0.0000
# 4 0.0000 0.0000 0.0000 25.9529 0.0000 0.0000
# 5 0.0000 0.0000 0.0000 0.0000 19.0487 0.0000
# 6 0.0000 0.0000 0.0000 0.0000 0.0000 1016.2858
#
#
#
# Elastic Compliance Matrix: (Units=1/GPa)
#
#
# Indices 1 2 3 4 5 6 
#
# 1 0.028315 0.001353 -0.004951 0.000000 0.000000 0.000000
# 2 0.001353 0.012945 -0.002874 0.000000 0.000000 0.000000
# 3 -0.004951 -0.002874 0.011326 0.000000 0.000000 0.000000
# 4 0.000000 0.000000 0.000000 0.038531 0.000000 0.000000
# 5 0.000000 0.000000 0.000000 0.000000 0.052497 0.000000
# 6 0.000000 0.000000 0.000000 0.000000 0.000000 0.000984
#
#
# Mechanical properties :
#
#
# Convention : Reuss Voigt Hill
#
# Bulk Modulus (GPa) = 25.22525 32.76188 28.99357
# Shear Modulus (GPa) = 29.28152 224.51957 126.90055
#
# Velocity S-wave (km/s) = 3.61398 10.00729 7.52352
# Velocity P-wave (km/s) = 5.35407 12.17132 9.40231
#
# Compressibility (1/GPa) = 0.03964282
#
# Stress axis : x y z
#
# Youngs Moduli (GPa) = 35.31677 77.24963 88.29279
#
# Poissons Ratio (x) = -0.10452 0.43713
# Poissons Ratio (y) = -0.04778 0.25373
# Poissons Ratio (z) = 0.17485 0.22200
#
# Static dielectric constant tensor:
#      x y z
#    x 1.860140 0.000000 0.000000 
#    y 0.000000 1.848920 0.000000 
#    z 0.000000 0.000000 1.818670 
# 
# From -- ./inp_files/18514.got.cif
#   From: 2010.05.17/outbox.cif.g08.bks.cpg/sg64_10_cif.got.tgz:18514.got - 2010.06.03 16:29:19.
