data_PCOD9477874
_publ_section_title
;
Structure prediction by ZEFSAII (Michael W. Deem and Ramdas Pophale) SiO2 
 PCOD9477874
Probable space group: C M C A
;
_chemical_formula_sum "Si O2"
_cell_formula_units_Z 96
_cell_length_a 8.809133
_cell_length_b 30.621095
_cell_length_c 21.281525
_cell_angle_alpha 90.000000
_cell_angle_beta 90.000000
_cell_angle_gamma 90.000000
_cell_volume 5740.591313
_symmetry_space_group_name_H-M "C M C A"
_symmetry_group_IT_number 64
_symmetry_cell_setting 'orthorhombic'
loop_
_space_group_symop_operation_xyz
x,y,z
-x,1/2-y,1/2+z
x,-y,-z
-x,1/2+y,1/2-z
-x,-y,-z
x,1/2+y,1/2-z
-x,y,z
x,1/2-y,1/2+z
1/2+x,1/2+y,z
1/2-x,-y,1/2+z
1/2+x,1/2-y,-z
1/2-x,y,1/2-z
1/2-x,1/2-y,-z
1/2+x,y,1/2-z
1/2-x,1/2+y,z
1/2+x,-y,1/2+z
loop_
_atom_site_type_symbol
_atom_site_label
_atom_site_fract_x
_atom_site_fract_y
_atom_site_fract_z
Si Si1 0.820352 0.118064 0.986615
Si Si2 0.181195 0.001268 0.686196
Si Si3 0.816358 0.463293 0.948042
Si Si4 0.680655 0.694564 0.684589
Si Si5 0.318568 0.403099 0.355379
Si Si6 0.182951 0.788545 0.457813
O O1 0.775915 0.097858 0.919174
O O2 0.741070 0.165353 0.985350
O O3 0.000000 0.123102 0.993148
O O4 0.754818 0.083317 0.035676
O O5 0.250000 0.982960 0.750000
O O6 0.218506 0.052740 0.680656
O O7 0.000000 0.997717 0.689305
O O8 0.230223 0.979201 0.621103
O O9 0.000000 0.460049 0.950350
O O10 0.773308 0.500000 0.000000
O O11 0.500000 0.700237 0.687979
O O12 0.750000 0.711205 0.750000
O O13 0.711991 0.642488 0.679174
O O14 0.730642 0.713389 0.616375
O O15 0.500000 0.403880 0.370644
O O16 0.250000 0.750000 0.500000
O O17 0.000000 0.787874 0.458957
#
# Coordination Sequence:
#
# PCOD9477874 Si02
#       6
#    16  16  16  16  16  16
#     4  11  21  32  52  81 107 135 175 224 267 308
#     4  10  20  32  49  71 101 141 179 222 269 314
#     4  10  19  35  55  72 101 144 184 216 259 316
#     4   9  18  30  49  75 107 139 170 208 255 314
#     4   9  17  32  48  69 103 143 177 208 256 316
#     4  10  21  38  58  81 109 140 176 218 267 321
#
# _framework density 16.723015
#
# number of rings (size 3 to 8) (size 9 to 14) (size 15 to 20)
#    0.000    2.167    1.667    3.500    0.000    5.000 
#    0.000    0.000    0.000    1.000    0.000    7.000 
#    0.000    0.000    0.000    0.000    0.000    0.000 
#
# Total GULP energy -267624.942746 kJ/mol
# GULP energy per Si atom -5575.519641 kJ/mol
# Density = 1.668495 g / cm^3
# Si number density = 16.723015 Si / 1000 Ang^3
#
#
#
# Elastic Constant Matrix: (Units=GPa)
#
#
# Indices 1 2 3 4 5 6 
#
# 1 31.0240 34.9252 49.0264 0.0000 0.0000 0.0000
# 2 34.9252 84.1220 73.3519 0.0000 0.0000 0.0000
# 3 49.0264 73.3519 157.0080 0.0000 0.0000 0.0000
# 4 0.0000 0.0000 0.0000 17.4114 0.0000 0.0000
# 5 0.0000 0.0000 0.0000 0.0000 29.4859 0.0000
# 6 0.0000 0.0000 0.0000 0.0000 0.0000 20.1262
#
#
#
# Elastic Compliance Matrix: (Units=1/GPa)
#
#
# Indices 1 2 3 4 5 6 
#
# 1 0.078023 -0.018813 -0.015574 0.000000 0.000000 0.000000
# 2 -0.018813 0.024595 -0.005616 0.000000 0.000000 0.000000
# 3 -0.015574 -0.005616 0.013856 0.000000 0.000000 0.000000
# 4 0.000000 0.000000 0.000000 0.057434 0.000000 0.000000
# 5 0.000000 0.000000 0.000000 0.000000 0.033915 0.000000
# 6 0.000000 0.000000 0.000000 0.000000 0.000000 0.049686
#
#
# Mechanical properties :
#
#
# Convention : Reuss Voigt Hill
#
# Bulk Modulus (GPa) = 27.42129 65.19565 46.30847
# Shear Modulus (GPa) = 14.29918 21.06138 17.68028
#
# Velocity S-wave (km/s) = 2.92731 3.55269 3.25505
# Velocity P-wave (km/s) = 5.27811 7.47656 6.47138
#
# Compressibility (1/GPa) = 0.03646802
#
# Stress axis : x y z
#
# Youngs Moduli (GPa) = 12.81677 40.65828 72.17178
#
# Poissons Ratio (x) = 0.76491 1.12399
# Poissons Ratio (y) = 0.24112 0.40532
# Poissons Ratio (z) = 0.19961 0.22834
#
# Static dielectric constant tensor:
#      x y z
#    x 1.563770 0.000000 0.000000 
#    y 0.000000 1.554670 0.000000 
#    z 0.000000 0.000000 1.584540 
# 
# From -- ./inp_files/37097.got.cif
#   From: 2010.05.17/outbox.cif.g08.bks.cpg/sg64_19_cif.got.tgz:37097.got - 2010.06.03 16:29:19.
