data_PCOD9477468
_publ_section_title
;
Structure prediction by ZEFSAII (Michael W. Deem and Ramdas Pophale) SiO2 
 PCOD9477468
Probable space group: C M C A
;
_chemical_formula_sum "Si O2"
_cell_formula_units_Z 96
_cell_length_a 7.651090
_cell_length_b 21.235704
_cell_length_c 28.996241
_cell_angle_alpha 90.000000
_cell_angle_beta 90.000000
_cell_angle_gamma 90.000000
_cell_volume 4711.201445
_symmetry_space_group_name_H-M "C M C A"
_symmetry_group_IT_number 64
_symmetry_cell_setting 'orthorhombic'
loop_
_space_group_symop_operation_xyz
x,y,z
-x,1/2-y,1/2+z
x,-y,-z
-x,1/2+y,1/2-z
-x,-y,-z
x,1/2+y,1/2-z
-x,y,z
x,1/2-y,1/2+z
1/2+x,1/2+y,z
1/2-x,-y,1/2+z
1/2+x,1/2-y,-z
1/2-x,y,1/2-z
1/2-x,1/2-y,-z
1/2+x,y,1/2-z
1/2-x,1/2+y,z
1/2+x,-y,1/2+z
loop_
_atom_site_type_symbol
_atom_site_label
_atom_site_fract_x
_atom_site_fract_y
_atom_site_fract_z
Si Si1 0.788024 0.863315 0.448739
Si Si2 0.785316 0.618504 0.054849
Si Si3 0.294483 0.489811 0.399905
Si Si4 0.710002 0.807356 0.301434
Si Si5 0.705713 0.259657 0.608442
Si Si6 0.207706 0.451565 0.301464
O O1 0.734775 0.871786 0.501759
O O2 0.724035 0.923627 0.419425
O O3 0.723883 0.798604 0.426597
O O4 0.000000 0.861366 0.446952
O O5 0.723942 0.551965 0.075338
O O6 0.722800 0.676942 0.085772
O O7 0.000000 0.618570 0.055409
O O8 0.500000 0.488713 0.410919
O O9 0.275022 0.490595 0.344839
O O10 0.500000 0.810788 0.306006
O O11 0.750000 0.784505 0.250000
O O12 0.779461 0.764399 0.342750
O O13 0.777190 0.879460 0.305266
O O14 0.500000 0.271408 0.615859
O O15 0.250000 0.474623 0.250000
O O16 0.000000 0.449233 0.305688
#
# Coordination Sequence:
#
# PCOD9477468 Si02
#       6
#    16  16  16  16  16  16
#     4  10  19  32  53  78 102 135 179 218 251 298
#     4   9  19  34  52  74 105 142 175 209 254 308
#     4  10  19  33  53  77 105 138 175 213 254 301
#     4   9  18  31  50  74  98 126 163 207 252 300
#     4  10  19  34  53  75 104 136 170 212 261 307
#     4  10  19  33  53  78 104 131 170 213 258 306
#
# _framework density 20.376968999999999
#
# number of rings (size 3 to 8) (size 9 to 14) (size 15 to 20)
#    0.000    2.333    1.667    1.500    0.000    3.333 
#    0.000    2.500    0.000    4.000    0.000    0.000 
#    0.000    0.000    0.000    0.000    0.000    0.000 
#
# Total GULP energy -267972.092620 kJ/mol
# GULP energy per Si atom -5582.751930 kJ/mol
# Density = 2.033059 g / cm^3
# Si number density = 20.376969 Si / 1000 Ang^3
#
#
#
# Elastic Constant Matrix: (Units=GPa)
#
#
# Indices 1 2 3 4 5 6 
#
# 1 33.3225 -5.2446 -14.9742 0.0000 0.0000 0.0000
# 2 -5.2446 57.7765 2.1835 0.0000 0.0000 0.0000
# 3 -14.9742 2.1835 89.4940 0.0000 0.0000 0.0000
# 4 0.0000 0.0000 0.0000 -234.3591 0.0000 0.0000
# 5 0.0000 0.0000 0.0000 0.0000 14.4658 0.0000
# 6 0.0000 0.0000 0.0000 0.0000 0.0000 10.4155
#
#
#
# Elastic Compliance Matrix: (Units=1/GPa)
#
#
# Indices 1 2 3 4 5 6 
#
# 1 0.032890 0.002780 0.005435 0.000000 0.000000 0.000000
# 2 0.002780 0.017559 0.000037 0.000000 0.000000 0.000000
# 3 0.005435 0.000037 0.012082 0.000000 0.000000 0.000000
# 4 0.000000 0.000000 0.000000 -0.004267 0.000000 0.000000
# 5 0.000000 0.000000 0.000000 0.000000 0.069128 0.000000
# 6 0.000000 0.000000 0.000000 0.000000 0.000000 0.096011
#
#
# Mechanical properties :
#
#
# Convention : Reuss Voigt Hill
#
# Bulk Modulus (GPa) = 12.65252 16.05805 14.35528
# Shear Modulus (GPa) = 21.43674 -28.65367 -3.60846
#
# Velocity S-wave (km/s) = 3.24699 -3.75397 -1.33218
# Velocity P-wave (km/s) = 4.50332 3.30033 2.16654
#
# Compressibility (1/GPa) = 0.07903567
#
# Stress axis : x y z
#
# Youngs Moduli (GPa) = 30.40457 56.95071 82.76446
#
# Poissons Ratio (x) = -0.15833 -0.44985
# Poissons Ratio (y) = -0.08453 -0.00304
# Poissons Ratio (z) = -0.16526 -0.00209
#
# Static dielectric constant tensor:
#      x y z
#    x 1.758880 0.000000 0.000000 
#    y 0.000000 1.703710 0.000000 
#    z 0.000000 0.000000 1.717590 
# 
# From -- ./inp_files/43067.got.cif
#   From: 2010.05.17/outbox.cif.g08.bks.cpg/sg64_22_cif.got.tgz:43067.got - 2010.06.03 16:29:19.
