data_PCOD9477862
_publ_section_title
;
Structure prediction by ZEFSAII (Michael W. Deem and Ramdas Pophale) SiO2 
 PCOD9477862
Probable space group: C M C A
;
_chemical_formula_sum "Si O2"
_cell_formula_units_Z 104
_cell_length_a 22.926148
_cell_length_b 26.938588
_cell_length_c 8.092243
_cell_angle_alpha 90.000000
_cell_angle_beta 90.000000
_cell_angle_gamma 90.000000
_cell_volume 4997.753541
_symmetry_space_group_name_H-M "C M C A"
_symmetry_group_IT_number 64
_symmetry_cell_setting 'orthorhombic'
loop_
_space_group_symop_operation_xyz
x,y,z
-x,1/2-y,1/2+z
x,-y,-z
-x,1/2+y,1/2-z
-x,-y,-z
x,1/2+y,1/2-z
-x,y,z
x,1/2-y,1/2+z
1/2+x,1/2+y,z
1/2-x,-y,1/2+z
1/2+x,1/2-y,-z
1/2-x,y,1/2-z
1/2-x,1/2-y,-z
1/2+x,y,1/2-z
1/2-x,1/2+y,z
1/2+x,-y,1/2+z
loop_
_atom_site_type_symbol
_atom_site_label
_atom_site_fract_x
_atom_site_fract_y
_atom_site_fract_z
Si Si1 0.500000 0.441631 0.030248
Si Si2 0.929201 0.307000 0.706235
Si Si3 0.818162 0.116531 0.715850
Si Si4 0.396824 0.802721 0.323279
Si Si5 0.376246 0.595312 0.361074
Si Si6 0.500000 0.869484 0.188177
Si Si7 0.371239 0.940858 0.526460
Si Si8 0.500000 0.445162 0.571492
O O1 0.500000 0.422221 0.215926
O O2 0.500000 0.500000 0.000000
O O3 0.560873 0.422998 0.960148
O O4 0.905298 0.309369 0.518935
O O5 0.910740 0.253676 0.778364
O O6 0.899359 0.350009 0.813137
O O7 0.000000 0.310779 0.702378
O O8 0.750000 0.111019 0.750000
O O9 0.837718 0.173356 0.753371
O O10 0.841619 0.099024 0.535143
O O11 0.848344 0.084422 0.860675
O O12 0.445162 0.837184 0.235750
O O13 0.341805 0.575892 0.197869
O O14 0.432226 0.558314 0.368072
O O15 0.500000 0.889831 0.007167
O O16 0.369920 0.000000 0.500000
O O17 0.500000 0.500000 0.500000
#
# Coordination Sequence:
#
# PCOD9477862 Si02
#       8
#     8  16  16  16  16   8  16   8
#     4  10  19  34  66 100 143 173 206 275 359 421
#     4  12  23  41  72 115 147 181 217 283 376 446
#     4  12  28  51  70  97 140 193 250 298 334 401
#     4  12  24  42  70 106 143 181 235 289 353 428
#     4  12  25  44  74 104 150 183 230 290 359 423
#     4  12  20  39  64  97 145 184 216 286 352 409
#     4  11  25  45  71 107 142 184 233 289 358 423
#     4  12  27  37  67 114 147 185 229 278 362 441
#
# _framework density 20.809349999999998
#
# number of rings (size 3 to 8) (size 9 to 14) (size 15 to 20)
#    0.000    0.308    6.923    1.385    6.462    0.615 
#    2.769    3.077    0.000    0.000    0.000    0.000 
#    0.000    0.000    0.000    0.000    0.000    0.000 
#
# Total GULP energy -290078.500744 kJ/mol
# GULP energy per Si atom -5578.432707 kJ/mol
# Density = 2.076199 g / cm^3
# Si number density = 20.809350 Si / 1000 Ang^3
#
#
#
# Elastic Constant Matrix: (Units=GPa)
#
#
# Indices 1 2 3 4 5 6 
#
# 1 97.0639 17.3541 58.7499 0.0000 0.0000 0.0000
# 2 17.3541 121.6780 49.6061 0.0000 0.0000 0.0000
# 3 58.7499 49.6061 170.5884 0.0000 0.0000 0.0000
# 4 0.0000 0.0000 0.0000 35.8608 0.0000 0.0000
# 5 0.0000 0.0000 0.0000 0.0000 -1.1349 0.0000
# 6 0.0000 0.0000 0.0000 0.0000 0.0000 32.8893
#
#
#
# Elastic Compliance Matrix: (Units=1/GPa)
#
#
# Indices 1 2 3 4 5 6 
#
# 1 0.013016 -0.000033 -0.004473 0.000000 0.000000 0.000000
# 2 -0.000033 0.009324 -0.002700 0.000000 0.000000 0.000000
# 3 -0.004473 -0.002700 0.008188 0.000000 0.000000 0.000000
# 4 0.000000 0.000000 0.000000 0.027886 0.000000 0.000000
# 5 0.000000 0.000000 0.000000 0.000000 -0.881157 0.000000
# 6 0.000000 0.000000 0.000000 0.000000 0.000000 0.030405
#
#
# Mechanical properties :
#
#
# Convention : Reuss Voigt Hill
#
# Bulk Modulus (GPa) = 62.05155 71.19449 66.62302
# Shear Modulus (GPa) = -6.47203 31.09771 12.31284
#
# Velocity S-wave (km/s) = -1.76548 3.86995 2.43512
# Velocity P-wave (km/s) = 5.07227 7.36585 6.32391
#
# Compressibility (1/GPa) = 0.01611563
#
# Stress axis : x y z
#
# Youngs Moduli (GPa) = 76.83003 107.25189 122.13424
#
# Poissons Ratio (x) = 0.00351 0.54631
# Poissons Ratio (y) = 0.00252 0.32977
# Poissons Ratio (z) = 0.34366 0.28958
#
# Static dielectric constant tensor:
#      x y z
#    x 1.833380 0.000000 0.000000 
#    y 0.000000 1.763820 0.000000 
#    z 0.000000 0.000000 1.775630 
# 
# From -- ./inp_files/9714.got.cif
#   From: 2010.05.17/outbox.cif.g08.bks.cpg/sg64_5_cif.got.tgz:9714.got - 2010.06.03 16:29:19.
