data_PCOD9477112
_publ_section_title
;
Structure prediction by ZEFSAII (Michael W. Deem and Ramdas Pophale) SiO2 
 PCOD9477112
Probable space group: C M C A
;
_chemical_formula_sum "Si O2"
_cell_formula_units_Z 96
_cell_length_a 23.809840
_cell_length_b 21.071466
_cell_length_c 7.507823
_cell_angle_alpha 90.000000
_cell_angle_beta 90.000000
_cell_angle_gamma 90.000000
_cell_volume 3766.736619
_symmetry_space_group_name_H-M "C M C A"
_symmetry_group_IT_number 64
_symmetry_cell_setting 'orthorhombic'
loop_
_space_group_symop_operation_xyz
x,y,z
-x,1/2-y,1/2+z
x,-y,-z
-x,1/2+y,1/2-z
-x,-y,-z
x,1/2+y,1/2-z
-x,y,z
x,1/2-y,1/2+z
1/2+x,1/2+y,z
1/2-x,-y,1/2+z
1/2+x,1/2-y,-z
1/2-x,y,1/2-z
1/2-x,1/2-y,-z
1/2+x,y,1/2-z
1/2-x,1/2+y,z
1/2+x,-y,1/2+z
loop_
_atom_site_type_symbol
_atom_site_label
_atom_site_fract_x
_atom_site_fract_y
_atom_site_fract_z
Si Si1 0.938411 0.589757 0.140936
Si Si2 0.253572 0.847317 0.545500
Si Si3 0.880695 0.665980 0.599394
Si Si4 0.418290 0.548299 0.769763
Si Si5 0.300914 0.463070 0.336719
Si Si6 0.135659 0.302225 0.987038
O O1 0.934049 0.526396 0.265019
O O2 0.000000 0.618011 0.170876
O O3 0.936048 0.568357 0.930985
O O4 0.889543 0.643169 0.144027
O O5 0.250000 0.865163 0.750000
O O6 0.318483 0.841488 0.488947
O O7 0.227172 0.901595 0.420935
O O8 0.203215 0.794460 0.537087
O O9 0.926774 0.608478 0.596723
O O10 0.896968 0.736291 0.534492
O O11 0.871491 0.675201 0.811151
O O12 0.351036 0.546649 0.795037
O O13 0.327656 0.500000 0.500000
O O14 0.250000 0.499973 0.250000
#
# Coordination Sequence:
#
# PCOD9477112 Si02
#       6
#    16  16  16  16  16  16
#     4  10  20  38  66  95 120 163 221 284 331 378
#     4  12  22  37  58  93 130 176 212 251 317 391
#     4  11  22  38  62  90 129 176 198 265 318 393
#     4  10  18  36  63  87 126 155 216 261 316 374
#     4  12  20  35  56  90 135 171 209 254 307 380
#     4  11  22  40  61  92 132 164 223 262 322 397
#
# _framework density 25.486253999999999
#
# number of rings (size 3 to 8) (size 9 to 14) (size 15 to 20)
#    0.000    1.000    6.667    3.500    0.000    0.000 
#    0.000    4.167    0.000    0.000    0.000   10.500 
#    0.000    0.000    0.000    0.000    0.000    0.000 
#
# Total GULP energy -267466.719838 kJ/mol
# GULP energy per Si atom -5572.223330 kJ/mol
# Density = 2.542825 g / cm^3
# Si number density = 25.486254 Si / 1000 Ang^3
#
#
#
# Elastic Constant Matrix: (Units=GPa)
#
#
# Indices 1 2 3 4 5 6 
#
# 1 114.3385 31.0024 20.7270 0.0000 0.0000 0.0000
# 2 31.0024 139.6506 51.2465 0.0000 0.0000 0.0000
# 3 20.7270 51.2465 69.4156 0.0000 0.0000 0.0000
# 4 0.0000 0.0000 0.0000 35.4910 0.0000 0.0000
# 5 0.0000 0.0000 0.0000 0.0000 9.3909 0.0000
# 6 0.0000 0.0000 0.0000 0.0000 0.0000 7.1077
#
#
#
# Elastic Compliance Matrix: (Units=1/GPa)
#
#
# Indices 1 2 3 4 5 6 
#
# 1 0.009458 -0.001458 -0.001747 0.000000 0.000000 0.000000
# 2 -0.001458 0.010046 -0.006981 0.000000 0.000000 0.000000
# 3 -0.001747 -0.006981 0.020082 0.000000 0.000000 0.000000
# 4 0.000000 0.000000 0.000000 0.028176 0.000000 0.000000
# 5 0.000000 0.000000 0.000000 0.000000 0.106486 0.000000
# 6 0.000000 0.000000 0.000000 0.000000 0.000000 0.140693
#
#
# Mechanical properties :
#
#
# Convention : Reuss Voigt Hill
#
# Bulk Modulus (GPa) = 52.05106 58.81740 55.43423
# Shear Modulus (GPa) = 14.63184 25.09315 19.86250
#
# Velocity S-wave (km/s) = 2.39865 3.14120 2.79470
# Velocity P-wave (km/s) = 5.30461 6.02365 5.67553
#
# Compressibility (1/GPa) = 0.01921191
#
# Stress axis : x y z
#
# Youngs Moduli (GPa) = 105.72850 99.53817 49.79640
#
# Poissons Ratio (x) = 0.14517 0.08701
# Poissons Ratio (y) = 0.15420 0.34765
# Poissons Ratio (z) = 0.18475 0.69491
#
# Static dielectric constant tensor:
#      x y z
#    x 2.032270 0.000000 0.000000 
#    y 0.000000 2.216340 0.000000 
#    z 0.000000 0.000000 2.011600 
# 
# From -- ./inp_files/9496.got.cif
#   From: 2010.05.17/outbox.cif.g08.bks.cpg/sg64_5_cif.got.tgz:9496.got - 2010.06.03 16:29:19.
