data_PCOD9477107
_publ_section_title
;
Structure prediction by ZEFSAII (Michael W. Deem and Ramdas Pophale) SiO2 
 PCOD9477107
Probable space group: C M C A
;
_chemical_formula_sum "Si O2"
_cell_formula_units_Z 80
_cell_length_a 14.663713
_cell_length_b 20.836906
_cell_length_c 12.678873
_cell_angle_alpha 90.000000
_cell_angle_beta 90.000000
_cell_angle_gamma 90.000000
_cell_volume 3873.984120
_symmetry_space_group_name_H-M "C M C A"
_symmetry_group_IT_number 64
_symmetry_cell_setting 'orthorhombic'
loop_
_space_group_symop_operation_xyz
x,y,z
-x,1/2-y,1/2+z
x,-y,-z
-x,1/2+y,1/2-z
-x,-y,-z
x,1/2+y,1/2-z
-x,y,z
x,1/2-y,1/2+z
1/2+x,1/2+y,z
1/2-x,-y,1/2+z
1/2+x,1/2-y,-z
1/2-x,y,1/2-z
1/2-x,1/2-y,-z
1/2+x,y,1/2-z
1/2-x,1/2+y,z
1/2+x,-y,1/2+z
loop_
_atom_site_type_symbol
_atom_site_label
_atom_site_fract_x
_atom_site_fract_y
_atom_site_fract_z
Si Si1 0.705522 0.404846 0.532984
Si Si2 0.101952 0.709323 0.934008
Si Si3 0.359650 0.367978 0.230510
Si Si4 0.104393 0.856969 0.982405
Si Si5 0.833083 0.009055 0.672758
O O1 0.670074 0.334698 0.501438
O O2 0.812584 0.400094 0.560898
O O3 0.697594 0.447816 0.427563
O O4 0.643894 0.441082 0.619835
O O5 0.105011 0.683713 0.814081
O O6 0.000000 0.697754 0.975424
O O7 0.119158 0.784663 0.941300
O O8 0.250000 0.367365 0.250000
O O9 0.383175 0.355343 0.109659
O O10 0.393241 0.439419 0.263908
O O11 0.000000 0.876691 0.958267
O O12 0.750000 0.994944 0.750000
#
# Coordination Sequence:
#
# PCOD9477107 Si02
#       5
#    16  16  16  16  16
#     4  10  19  35  59  80 112 144 187 230 283 323
#     4  10  21  36  55  83 114 144 185 233 276 333
#     4  10  18  36  61  77 107 148 187 223 281 332
#     4  11  21  36  58  84 114 150 189 226 276 339
#     4   9  17  35  59  78 106 145 185 232 273 333
#
# _framework density 20.650576999999998
#
# number of rings (size 3 to 8) (size 9 to 14) (size 15 to 20)
#    0.000    2.000    6.000    1.200    0.000    0.000 
#    3.600   11.000    0.000    0.000    0.000    0.000 
#    0.000    0.000    0.000    0.000    0.000    0.000 
#
# Total GULP energy -222759.104426 kJ/mol
# GULP energy per Si atom -5568.977611 kJ/mol
# Density = 2.060358 g / cm^3
# Si number density = 20.650577 Si / 1000 Ang^3
#
#
#
# Elastic Constant Matrix: (Units=GPa)
#
#
# Indices 1 2 3 4 5 6 
#
# 1 76.2495 2.5971 -17.3745 0.0000 0.0000 0.0000
# 2 2.5971 48.7293 24.9809 0.0000 0.0000 0.0000
# 3 -17.3745 24.9809 56.3610 0.0000 0.0000 0.0000
# 4 0.0000 0.0000 0.0000 11.2817 0.0000 0.0000
# 5 0.0000 0.0000 0.0000 0.0000 4.3035 0.0000
# 6 0.0000 0.0000 0.0000 0.0000 0.0000 -59.4497
#
#
#
# Elastic Compliance Matrix: (Units=1/GPa)
#
#
# Indices 1 2 3 4 5 6 
#
# 1 0.014689 -0.004017 0.006309 0.000000 0.000000 0.000000
# 2 -0.004017 0.027654 -0.013495 0.000000 0.000000 0.000000
# 3 0.006309 -0.013495 0.025669 0.000000 0.000000 0.000000
# 4 0.000000 0.000000 0.000000 0.088639 0.000000 0.000000
# 5 0.000000 0.000000 0.000000 0.000000 0.232367 0.000000
# 6 0.000000 0.000000 0.000000 0.000000 0.000000 -0.016821
#
#
# Mechanical properties :
#
#
# Convention : Reuss Voigt Hill
#
# Bulk Modulus (GPa) = 21.92746 22.41631 22.17188
# Shear Modulus (GPa) = 12.20087 2.63618 7.41853
#
# Velocity S-wave (km/s) = 2.43333 1.13108 1.89742
# Velocity P-wave (km/s) = 4.30536 3.54745 3.94465
#
# Compressibility (1/GPa) = 0.04560492
#
# Stress axis : x y z
#
# Youngs Moduli (GPa) = 68.07719 36.16110 38.95725
#
# Poissons Ratio (x) = 0.14526 -0.24577
# Poissons Ratio (y) = 0.27347 0.52575
# Poissons Ratio (z) = -0.42948 0.48801
#
# Static dielectric constant tensor:
#      x y z
#    x 1.857610 0.000000 0.000000 
#    y 0.000000 1.788650 0.000000 
#    z 0.000000 0.000000 1.732820 
# 
# From -- ./inp_files/23652.got.cif
#   From: 2010.05.17/outbox.cif.g08.bks.cpg/sg64_12_cif.got.tgz:23652.got - 2010.06.03 16:29:19.
