data_PCOD9477645
_publ_section_title
;
Structure prediction by ZEFSAII (Michael W. Deem and Ramdas Pophale) SiO2 
 PCOD9477645
Probable space group: C M C A
;
_chemical_formula_sum "Si O2"
_cell_formula_units_Z 80
_cell_length_a 14.339155
_cell_length_b 24.430210
_cell_length_c 11.763857
_cell_angle_alpha 90.000000
_cell_angle_beta 90.000000
_cell_angle_gamma 90.000000
_cell_volume 4120.979898
_symmetry_space_group_name_H-M "C M C A"
_symmetry_group_IT_number 64
_symmetry_cell_setting 'orthorhombic'
loop_
_space_group_symop_operation_xyz
x,y,z
-x,1/2-y,1/2+z
x,-y,-z
-x,1/2+y,1/2-z
-x,-y,-z
x,1/2+y,1/2-z
-x,y,z
x,1/2-y,1/2+z
1/2+x,1/2+y,z
1/2-x,-y,1/2+z
1/2+x,1/2-y,-z
1/2-x,y,1/2-z
1/2-x,1/2-y,-z
1/2+x,y,1/2-z
1/2-x,1/2+y,z
1/2+x,-y,1/2+z
loop_
_atom_site_type_symbol
_atom_site_label
_atom_site_fract_x
_atom_site_fract_y
_atom_site_fract_z
Si Si1 0.276737 0.309324 0.377231
Si Si2 0.602190 0.488943 0.669056
Si Si3 0.829515 0.904150 0.843356
Si Si4 0.108390 0.293253 0.552217
Si Si5 0.183468 0.422897 0.028260
O O1 0.250000 0.323985 0.250000
O O2 0.180310 0.299029 0.446316
O O3 0.344057 0.256831 0.380141
O O4 0.327905 0.360518 0.435976
O O5 0.500000 0.513962 0.671552
O O6 0.619512 0.454277 0.782059
O O7 0.610960 0.445519 0.565221
O O8 0.674776 0.536088 0.634255
O O9 0.750000 0.888553 0.750000
O O10 0.884798 0.849645 0.876118
O O11 0.779910 0.924793 0.958333
O O12 0.000000 0.283178 0.523183
#
# Coordination Sequence:
#
# PCOD9477645 Si02
#       5
#    16  16  16  16  16
#     4  10  22  39  58  82 115 151 186 230 283 337
#     4  10  19  33  56  84 111 143 190 235 274 329
#     4   9  18  34  55  80 112 150 185 224 279 332
#     4  10  21  38  59  84 113 146 189 234 278 334
#     4   9  19  33  52  79 111 145 182 225 276 327
#
# _framework density 19.412859000000001
#
# number of rings (size 3 to 8) (size 9 to 14) (size 15 to 20)
#    0.000    2.400    0.000    2.400    0.000    8.000 
#    0.000    0.000    0.000    0.000    0.000   57.400 
#    0.000    0.000    0.000    0.000    0.000    0.000 
#
# Total GULP energy -222865.836309 kJ/mol
# GULP energy per Si atom -5571.645908 kJ/mol
# Density = 1.936867 g / cm^3
# Si number density = 19.412859 Si / 1000 Ang^3
#
#
#
# Elastic Constant Matrix: (Units=GPa)
#
#
# Indices 1 2 3 4 5 6 
#
# 1 91.7572 44.8950 14.1359 0.0000 0.0000 0.0000
# 2 44.8950 100.3185 30.6952 0.0000 0.0000 0.0000
# 3 14.1359 30.6952 54.2009 0.0000 0.0000 0.0000
# 4 0.0000 0.0000 0.0000 26.5648 0.0000 0.0000
# 5 0.0000 0.0000 0.0000 0.0000 3.6733 0.0000
# 6 0.0000 0.0000 0.0000 0.0000 0.0000 3.7143
#
#
#
# Elastic Compliance Matrix: (Units=1/GPa)
#
#
# Indices 1 2 3 4 5 6 
#
# 1 0.013954 -0.006207 -0.000124 0.000000 0.000000 0.000000
# 2 -0.006207 0.014818 -0.006773 0.000000 0.000000 0.000000
# 3 -0.000124 -0.006773 0.022318 0.000000 0.000000 0.000000
# 4 0.000000 0.000000 0.000000 0.037644 0.000000 0.000000
# 5 0.000000 0.000000 0.000000 0.000000 0.272238 0.000000
# 6 0.000000 0.000000 0.000000 0.000000 0.000000 0.269229
#
#
# Mechanical properties :
#
#
# Convention : Reuss Voigt Hill
#
# Bulk Modulus (GPa) = 40.18948 47.30321 43.74635
# Shear Modulus (GPa) = 7.52214 17.22716 12.37465
#
# Velocity S-wave (km/s) = 1.97059 2.98217 2.52751
# Velocity P-wave (km/s) = 5.09167 6.02309 5.57686
#
# Compressibility (1/GPa) = 0.02488213
#
# Stress axis : x y z
#
# Youngs Moduli (GPa) = 71.66204 67.48340 44.80663
#
# Poissons Ratio (x) = 0.41886 0.00557
# Poissons Ratio (y) = 0.44480 0.30349
# Poissons Ratio (z) = 0.00891 0.45708
#
# Static dielectric constant tensor:
#      x y z
#    x 1.673940 0.000000 0.000000 
#    y 0.000000 1.685330 0.000000 
#    z 0.000000 0.000000 1.692080 
# 
# From -- ./inp_files/14478.got.cif
#   From: 2010.05.17/outbox.cif.g08.bks.cpg/sg64_8_cif.got.tgz:14478.got - 2010.06.03 16:29:19.
