data_PCOD9477622
_publ_section_title
;
Structure prediction by ZEFSAII (Michael W. Deem and Ramdas Pophale) SiO2 
 PCOD9477622
Probable space group: C M C A
;
_chemical_formula_sum "Si O2"
_cell_formula_units_Z 112
_cell_length_a 16.406518
_cell_length_b 19.811298
_cell_length_c 16.366916
_cell_angle_alpha 90.000000
_cell_angle_beta 90.000000
_cell_angle_gamma 90.000000
_cell_volume 5319.811004
_symmetry_space_group_name_H-M "C M C A"
_symmetry_group_IT_number 64
_symmetry_cell_setting 'orthorhombic'
loop_
_space_group_symop_operation_xyz
x,y,z
-x,1/2-y,1/2+z
x,-y,-z
-x,1/2+y,1/2-z
-x,-y,-z
x,1/2+y,1/2-z
-x,y,z
x,1/2-y,1/2+z
1/2+x,1/2+y,z
1/2-x,-y,1/2+z
1/2+x,1/2-y,-z
1/2-x,y,1/2-z
1/2-x,1/2-y,-z
1/2+x,y,1/2-z
1/2-x,1/2+y,z
1/2+x,-y,1/2+z
loop_
_atom_site_type_symbol
_atom_site_label
_atom_site_fract_x
_atom_site_fract_y
_atom_site_fract_z
Si Si1 0.309403 0.707938 0.058572
Si Si2 0.842278 0.073241 0.281562
Si Si3 0.592728 0.927375 0.958764
Si Si4 0.902965 0.336852 0.110228
Si Si5 0.152427 0.071626 0.762728
Si Si6 0.315704 0.287234 0.688335
Si Si7 0.597408 0.165594 0.594230
O O1 0.364337 0.762954 0.105771
O O2 0.246477 0.677643 0.123460
O O3 0.250000 0.750000 0.000000
O O4 0.363364 0.664408 0.996339
O O5 0.750000 0.072100 0.250000
O O6 0.855955 0.063377 0.377688
O O7 0.866708 0.152159 0.270190
O O8 0.880386 0.005377 0.243080
O O9 0.500000 0.906233 0.935827
O O10 0.623874 0.875762 0.027437
O O11 0.587887 0.000000 0.000000
O O12 0.880581 0.381258 0.189151
O O13 0.000000 0.331737 0.107348
O O14 0.250000 0.070477 0.750000
O O15 0.128464 0.105260 0.848293
O O16 0.250000 0.254060 0.750000
O O17 0.369983 0.233053 0.641193
O O18 0.500000 0.167032 0.589853
#
# Coordination Sequence:
#
# PCOD9477622 Si02
#       7
#    16  16  16  16  16  16  16
#     4  10  20  35  57  85 119 159 193 243 302 367
#     4  10  22  38  57  87 118 155 202 247 305 369
#     4  10  19  33  55  84 120 152 187 250 314 356
#     4  11  21  35  58  91 121 154 204 257 307 362
#     4  11  22  37  57  86 120 158 203 252 308 358
#     4  10  21  40  62  85 119 160 210 258 310 363
#     4  11  22  37  58  89 125 164 202 246 304 371
#
# _framework density 21.053380000000001
#
# number of rings (size 3 to 8) (size 9 to 14) (size 15 to 20)
#    0.000    1.571    1.429    5.571    0.000    2.286 
#    0.000    0.714    0.000    1.714    0.000    9.000 
#    0.000    0.000    0.000    0.000    0.000    0.000 
#
# Total GULP energy -312325.223937 kJ/mol
# GULP energy per Si atom -5577.236142 kJ/mol
# Density = 2.100546 g / cm^3
# Si number density = 21.053380 Si / 1000 Ang^3
#
#
#
# Elastic Constant Matrix: (Units=GPa)
#
#
# Indices 1 2 3 4 5 6 
#
# 1 71.7292 7.3629 25.8340 0.0000 0.0000 0.0000
# 2 7.3629 103.7805 16.3446 0.0000 0.0000 0.0000
# 3 25.8340 16.3446 73.8618 0.0000 0.0000 0.0000
# 4 0.0000 0.0000 0.0000 23.0107 0.0000 0.0000
# 5 0.0000 0.0000 0.0000 0.0000 16.2178 0.0000
# 6 0.0000 0.0000 0.0000 0.0000 0.0000 10.6477
#
#
#
# Elastic Compliance Matrix: (Units=1/GPa)
#
#
# Indices 1 2 3 4 5 6 
#
# 1 0.015958 -0.000262 -0.005523 0.000000 0.000000 0.000000
# 2 -0.000262 0.009988 -0.002118 0.000000 0.000000 0.000000
# 3 -0.005523 -0.002118 0.015939 0.000000 0.000000 0.000000
# 4 0.000000 0.000000 0.000000 0.043458 0.000000 0.000000
# 5 0.000000 0.000000 0.000000 0.000000 0.061660 0.000000
# 6 0.000000 0.000000 0.000000 0.000000 0.000000 0.093917
#
#
# Mechanical properties :
#
#
# Convention : Reuss Voigt Hill
#
# Bulk Modulus (GPa) = 38.34817 38.71716 38.53267
# Shear Modulus (GPa) = 18.83803 23.29725 21.06764
#
# Velocity S-wave (km/s) = 2.99452 3.33014 3.16678
# Velocity P-wave (km/s) = 5.49641 5.76336 5.63147
#
# Compressibility (1/GPa) = 0.02607687
#
# Stress axis : x y z
#
# Youngs Moduli (GPa) = 62.66645 100.12044 62.73751
#
# Poissons Ratio (x) = 0.02626 0.34652
# Poissons Ratio (y) = 0.01643 0.13291
# Poissons Ratio (z) = 0.34612 0.21210
#
# Static dielectric constant tensor:
#      x y z
#    x 1.758790 0.000000 0.000000 
#    y 0.000000 1.809760 0.000000 
#    z 0.000000 0.000000 1.807430 
# 
# From -- ./inp_files/33619.got.cif
#   From: 2010.05.17/outbox.cif.g08.bks.cpg/sg64_17_cif.got.tgz:33619.got - 2010.06.03 16:29:19.
