data_PCOD9477706
_publ_section_title
;
Structure prediction by ZEFSAII (Michael W. Deem and Ramdas Pophale) SiO2 
 PCOD9477706
Probable space group: C M C A
;
_chemical_formula_sum "Si O2"
_cell_formula_units_Z 48
_cell_length_a 26.527717
_cell_length_b 17.029585
_cell_length_c 5.079764
_cell_angle_alpha 90.000000
_cell_angle_beta 90.000000
_cell_angle_gamma 90.000000
_cell_volume 2294.813924
_symmetry_space_group_name_H-M "C M C A"
_symmetry_group_IT_number 64
_symmetry_cell_setting 'orthorhombic'
loop_
_space_group_symop_operation_xyz
x,y,z
-x,1/2-y,1/2+z
x,-y,-z
-x,1/2+y,1/2-z
-x,-y,-z
x,1/2+y,1/2-z
-x,y,z
x,1/2-y,1/2+z
1/2+x,1/2+y,z
1/2-x,-y,1/2+z
1/2+x,1/2-y,-z
1/2-x,y,1/2-z
1/2-x,1/2-y,-z
1/2+x,y,1/2-z
1/2-x,1/2+y,z
1/2+x,-y,1/2+z
loop_
_atom_site_type_symbol
_atom_site_label
_atom_site_fract_x
_atom_site_fract_y
_atom_site_fract_z
Si Si1 0.140663 0.693577 0.689401
Si Si2 0.557137 0.413755 0.419812
Si Si3 0.000000 0.804913 0.762849
Si Si4 0.750000 0.192984 0.750000
O O1 0.137691 0.738239 0.412116
O O2 0.096221 0.632624 0.742657
O O3 0.195498 0.652521 0.730838
O O4 0.574448 0.500000 0.500000
O O5 0.500000 0.422573 0.303450
O O6 0.546544 0.359899 0.677624
O O7 0.000000 0.734955 0.544784
O O8 0.750000 0.250000 0.500000
#
# Coordination Sequence:
#
# PCOD9477706 Si02
#       4
#    16  16   8   8
#     4  10  19  34  57  80 105 141 184 228 270 326
#     4   9  20  36  52  80 115 146 179 224 278 326
#     4  10  19  34  53  74 100 138 184 218 257 316
#     4   8  16  30  52  80 102 128 174 226 268 304
#
# _framework density 20.916727000000002
#
# number of rings (size 3 to 8) (size 9 to 14) (size 15 to 20)
#    1.000    1.667    0.000    2.000    0.000    0.000 
#    0.000    8.333    0.000   12.000    0.000    0.000 
#    0.000    0.000    0.000    0.000    0.000    0.000 
#
# Total GULP energy -133853.382584 kJ/mol
# GULP energy per Si atom -5577.224274 kJ/mol
# Density = 2.086912 g / cm^3
# Si number density = 20.916727 Si / 1000 Ang^3
#
#
#
# Elastic Constant Matrix: (Units=GPa)
#
#
# Indices 1 2 3 4 5 6 
#
# 1 134.1444 17.8980 2.9016 0.0000 0.0000 0.0000
# 2 17.8980 83.1042 5.8810 0.0000 0.0000 0.0000
# 3 2.9016 5.8810 88.1642 0.0000 0.0000 0.0000
# 4 0.0000 0.0000 0.0000 5.7277 0.0000 0.0000
# 5 0.0000 0.0000 0.0000 0.0000 17.8209 0.0000
# 6 0.0000 0.0000 0.0000 0.0000 0.0000 9.1765
#
#
#
# Elastic Compliance Matrix: (Units=1/GPa)
#
#
# Indices 1 2 3 4 5 6 
#
# 1 0.007677 -0.001643 -0.000143 0.000000 0.000000 0.000000
# 2 -0.001643 0.012442 -0.000776 0.000000 0.000000 0.000000
# 3 -0.000143 -0.000776 0.011399 0.000000 0.000000 0.000000
# 4 0.000000 0.000000 0.000000 0.174589 0.000000 0.000000
# 5 0.000000 0.000000 0.000000 0.000000 0.056114 0.000000
# 6 0.000000 0.000000 0.000000 0.000000 0.000000 0.108974
#
#
# Mechanical properties :
#
#
# Convention : Reuss Voigt Hill
#
# Bulk Modulus (GPa) = 37.88810 39.86377 38.87594
# Shear Modulus (GPa) = 12.98307 25.12719 19.05513
#
# Velocity S-wave (km/s) = 2.49409 3.46973 3.02155
# Velocity P-wave (km/s) = 5.14268 5.92889 5.54972
#
# Compressibility (1/GPa) = 0.02639351
#
# Stress axis : x y z
#
# Youngs Moduli (GPa) = 130.25933 80.37358 87.72753
#
# Poissons Ratio (x) = 0.13207 0.01255
# Poissons Ratio (y) = 0.21405 0.06806
# Poissons Ratio (z) = 0.01863 0.06236
#
# Static dielectric constant tensor:
#      x y z
#    x 1.885720 0.000000 0.000000 
#    y 0.000000 1.709480 0.000000 
#    z 0.000000 0.000000 1.777070 
# 
# From -- ./inp_files/2596.got.cif
#   From: 2010.05.17/outbox.cif.g08.bks.cpg/sg64_2_cif.got.tgz:2596.got - 2010.06.03 16:29:19.
