data_PCOD9477819
_publ_section_title
;
Structure prediction by ZEFSAII (Michael W. Deem and Ramdas Pophale) SiO2 
 PCOD9477819
Probable space group: C M C A
;
_chemical_formula_sum "Si O2"
_cell_formula_units_Z 112
_cell_length_a 15.101638
_cell_length_b 18.504735
_cell_length_c 15.961629
_cell_angle_alpha 90.000000
_cell_angle_beta 90.000000
_cell_angle_gamma 90.000000
_cell_volume 4460.506103
_symmetry_space_group_name_H-M "C M C A"
_symmetry_group_IT_number 64
_symmetry_cell_setting 'orthorhombic'
loop_
_space_group_symop_operation_xyz
x,y,z
-x,1/2-y,1/2+z
x,-y,-z
-x,1/2+y,1/2-z
-x,-y,-z
x,1/2+y,1/2-z
-x,y,z
x,1/2-y,1/2+z
1/2+x,1/2+y,z
1/2-x,-y,1/2+z
1/2+x,1/2-y,-z
1/2-x,y,1/2-z
1/2-x,1/2-y,-z
1/2+x,y,1/2-z
1/2-x,1/2+y,z
1/2+x,-y,1/2+z
loop_
_atom_site_type_symbol
_atom_site_label
_atom_site_fract_x
_atom_site_fract_y
_atom_site_fract_z
Si Si1 0.769579 0.080179 0.163119
Si Si2 0.101684 0.221980 0.429450
Si Si3 0.851626 0.703361 0.735356
Si Si4 0.898439 0.448834 0.345330
Si Si5 0.104499 0.656901 0.905056
Si Si6 0.600841 0.998149 0.899538
Si Si7 0.600903 0.122471 0.480667
O O1 0.750000 0.119872 0.250000
O O2 0.828832 0.118452 0.093308
O O3 0.828354 0.008277 0.184180
O O4 0.673909 0.058241 0.128009
O O5 0.137567 0.236793 0.336818
O O6 0.145384 0.175771 0.504638
O O7 0.101010 0.300030 0.474573
O O8 0.000000 0.197647 0.417288
O O9 0.750000 0.688620 0.750000
O O10 0.893144 0.629244 0.699106
O O11 0.886913 0.713964 0.829803
O O12 0.879813 0.433150 0.443610
O O13 0.000000 0.473600 0.336007
O O14 0.134495 0.578209 0.874607
O O15 0.000000 0.648559 0.920020
O O16 0.500000 0.985945 0.868556
O O17 0.596645 0.000000 0.000000
O O18 0.500000 0.109481 0.451136
#
# Coordination Sequence:
#
# PCOD9477819 Si02
#       7
#    16  16  16  16  16  16  16
#     4  12  23  34  54  84 119 156 194 242 305 368
#     4   9  20  40  64  89 117 154 204 256 304 358
#     4  11  21  34  56  89 123 155 196 246 301 366
#     4  10  19  34  59  86 112 147 199 259 307 355
#     4  10  20  38  64  87 114 157 201 247 303 357
#     4  10  22  40  60  84 117 158 203 247 296 361
#     4   9  19  37  60  85 114 150 195 250 307 360
#
# _framework density 25.109258000000001
#
# number of rings (size 3 to 8) (size 9 to 14) (size 15 to 20)
#    0.000    1.857    0.000    6.000    0.000    5.143 
#    0.000    2.143    0.000    5.143    0.000    0.000 
#    0.000    1.143    0.000    0.000    0.000    0.000 
#
# Total GULP energy -313346.149198 kJ/mol
# GULP energy per Si atom -5595.466950 kJ/mol
# Density = 2.505211 g / cm^3
# Si number density = 25.109258 Si / 1000 Ang^3
#
#
#
# Elastic Constant Matrix: (Units=GPa)
#
#
# Indices 1 2 3 4 5 6 
#
# 1 106.7704 18.7181 54.9673 0.0000 0.0000 0.0000
# 2 18.7181 53.8423 42.5320 0.0000 0.0000 0.0000
# 3 54.9673 42.5320 188.2789 0.0000 0.0000 0.0000
# 4 0.0000 0.0000 0.0000 33.0994 0.0000 0.0000
# 5 0.0000 0.0000 0.0000 0.0000 17.9594 0.0000
# 6 0.0000 0.0000 0.0000 0.0000 0.0000 20.0485
#
#
#
# Elastic Compliance Matrix: (Units=1/GPa)
#
#
# Indices 1 2 3 4 5 6 
#
# 1 0.011133 -0.001586 -0.002892 0.000000 0.000000 0.000000
# 2 -0.001586 0.022833 -0.004695 0.000000 0.000000 0.000000
# 3 -0.002892 -0.004695 0.007216 0.000000 0.000000 0.000000
# 4 0.000000 0.000000 0.000000 0.030212 0.000000 0.000000
# 5 0.000000 0.000000 0.000000 0.000000 0.055681 0.000000
# 6 0.000000 0.000000 0.000000 0.000000 0.000000 0.049879
#
#
# Mechanical properties :
#
#
# Convention : Reuss Voigt Hill
#
# Bulk Modulus (GPa) = 43.78999 64.59183 54.19091
# Shear Modulus (GPa) = 24.64132 29.73308 27.18720
#
# Velocity S-wave (km/s) = 3.13607 3.44488 3.29410
# Velocity P-wave (km/s) = 5.53090 6.45004 6.00808
#
# Compressibility (1/GPa) = 0.02283627
#
# Stress axis : x y z
#
# Youngs Moduli (GPa) = 89.82529 43.79677 138.57852
#
# Poissons Ratio (x) = 0.06945 0.40076
# Poissons Ratio (y) = 0.14245 0.65061
# Poissons Ratio (z) = 0.25977 0.20562
#
# Static dielectric constant tensor:
#      x y z
#    x 1.993020 0.000000 0.000000 
#    y 0.000000 2.066710 0.000000 
#    z 0.000000 0.000000 2.040750 
# 
# From -- ./inp_files/24194.got.cif
#   From: 2010.05.17/outbox.cif.g08.bks.cpg/sg64_13_cif.got.tgz:24194.got - 2010.06.03 16:29:19.
