data_PCOD9477169
_publ_section_title
;
Structure prediction by ZEFSAII (Michael W. Deem and Ramdas Pophale) SiO2 
 PCOD9477169
Probable space group: C M C A
;
_chemical_formula_sum "Si O2"
_cell_formula_units_Z 104
_cell_length_a 19.412275
_cell_length_b 14.518362
_cell_length_c 15.505182
_cell_angle_alpha 90.000000
_cell_angle_beta 90.000000
_cell_angle_gamma 90.000000
_cell_volume 4369.894219
_symmetry_space_group_name_H-M "C M C A"
_symmetry_group_IT_number 64
_symmetry_cell_setting 'orthorhombic'
loop_
_space_group_symop_operation_xyz
x,y,z
-x,1/2-y,1/2+z
x,-y,-z
-x,1/2+y,1/2-z
-x,-y,-z
x,1/2+y,1/2-z
-x,y,z
x,1/2-y,1/2+z
1/2+x,1/2+y,z
1/2-x,-y,1/2+z
1/2+x,1/2-y,-z
1/2-x,y,1/2-z
1/2-x,1/2-y,-z
1/2+x,y,1/2-z
1/2-x,1/2+y,z
1/2+x,-y,1/2+z
loop_
_atom_site_type_symbol
_atom_site_label
_atom_site_fract_x
_atom_site_fract_y
_atom_site_fract_z
Si Si1 0.206204 0.909912 0.879357
Si Si2 0.854530 0.826486 0.045529
Si Si3 0.634976 0.730249 0.222101
Si Si4 0.500000 0.816817 0.373932
Si Si5 0.818242 0.587430 0.703233
Si Si6 0.000000 0.378251 0.976560
Si Si7 0.360118 0.127854 0.094370
Si Si8 0.000000 0.713731 0.835759
O O1 0.168128 0.886732 0.966915
O O2 0.199075 0.817856 0.822724
O O3 0.287775 0.925969 0.896703
O O4 0.160595 0.988379 0.832594
O O5 0.801054 0.850778 0.120632
O O6 0.850826 0.716961 0.031624
O O7 0.928075 0.855077 0.088303
O O8 0.643073 0.839832 0.236846
O O9 0.624637 0.676714 0.312716
O O10 0.568243 0.723954 0.161489
O O11 0.500000 0.716675 0.420190
O O12 0.500000 0.817559 0.268319
O O13 0.750000 0.559478 0.750000
O O14 0.000000 0.352810 0.079377
O O15 0.928524 0.421990 0.941225
#
# Coordination Sequence:
#
# PCOD9477169 Si02
#       8
#    16  16  16   8  16   8  16   8
#     4  12  24  39  65 105 135 182 235 282 349 423
#     4  10  21  40  64  95 138 174 225 287 346 411
#     4  11  21  40  66  94 136 185 231 285 341 404
#     4  10  18  42  61  96 138 178 230 283 340 423
#     4  11  23  40  62  93 136 179 224 287 350 405
#     4  10  20  34  64 101 133 178 227 282 332 430
#     4  10  19  38  60  94 139 174 226 283 337 407
#     4  12  20  38  68  94 133 190 237 273 350 413
#
# _framework density 23.799202999999999
#
# number of rings (size 3 to 8) (size 9 to 14) (size 15 to 20)
#    0.000    1.231    4.615    6.000    0.000    1.231 
#    0.000    3.846    0.000    1.846    0.000    7.538 
#    0.000    0.000    0.000    0.000    0.000    0.000 
#
# Total GULP energy -289683.442981 kJ/mol
# GULP energy per Si atom -5570.835442 kJ/mol
# Density = 2.374504 g / cm^3
# Si number density = 23.799203 Si / 1000 Ang^3
#
#
#
# Elastic Constant Matrix: (Units=GPa)
#
#
# Indices 1 2 3 4 5 6 
#
# 1 98.1811 32.1449 49.9240 0.0000 0.0000 0.0000
# 2 32.1449 69.4177 1.7525 0.0000 0.0000 0.0000
# 3 49.9240 1.7525 89.6369 0.0000 0.0000 0.0000
# 4 0.0000 0.0000 0.0000 20.8412 0.0000 0.0000
# 5 0.0000 0.0000 0.0000 0.0000 35.8852 0.0000
# 6 0.0000 0.0000 0.0000 0.0000 0.0000 -0.7380
#
#
#
# Elastic Compliance Matrix: (Units=1/GPa)
#
#
# Indices 1 2 3 4 5 6 
#
# 1 0.017739 -0.007969 -0.009724 0.000000 0.000000 0.000000
# 2 -0.007969 0.017992 0.004086 0.000000 0.000000 0.000000
# 3 -0.009724 0.004086 0.016492 0.000000 0.000000 0.000000
# 4 0.000000 0.000000 0.000000 0.047982 0.000000 0.000000
# 5 0.000000 0.000000 0.000000 0.000000 0.027867 0.000000
# 6 0.000000 0.000000 0.000000 0.000000 0.000000 -1.355001
#
#
# Mechanical properties :
#
#
# Convention : Reuss Voigt Hill
#
# Bulk Modulus (GPa) = 39.98265 47.20873 43.59569
# Shear Modulus (GPa) = -4.19681 22.75864 9.28091
#
# Velocity S-wave (km/s) = -1.32938 3.09573 1.97690
# Velocity P-wave (km/s) = 3.80528 5.71466 4.85477
#
# Compressibility (1/GPa) = 0.02501085
#
# Stress axis : x y z
#
# Youngs Moduli (GPa) = 56.37370 55.57891 60.63528
#
# Poissons Ratio (x) = 0.44289 0.58961
# Poissons Ratio (y) = 0.44923 -0.24778
# Poissons Ratio (z) = 0.54817 -0.22712
#
# Static dielectric constant tensor:
#      x y z
#    x 2.012310 0.000000 0.000000 
#    y 0.000000 1.973260 0.000000 
#    z 0.000000 0.000000 1.997100 
# 
# From -- ./inp_files/26579.got.cif
#   From: 2010.05.17/outbox.cif.g08.bks.cpg/sg64_14_cif.got.tgz:26579.got - 2010.06.03 16:29:19.
