data_PCOD9477579
_publ_section_title
;
Structure prediction by ZEFSAII (Michael W. Deem and Ramdas Pophale) SiO2 
 PCOD9477579
Probable space group: C M C A
;
_chemical_formula_sum "Si O2"
_cell_formula_units_Z 88
_cell_length_a 24.514188
_cell_length_b 5.077301
_cell_length_c 33.081642
_cell_angle_alpha 90.000000
_cell_angle_beta 90.000000
_cell_angle_gamma 90.000000
_cell_volume 4117.536717
_symmetry_space_group_name_H-M "C M C A"
_symmetry_group_IT_number 64
_symmetry_cell_setting 'orthorhombic'
loop_
_space_group_symop_operation_xyz
x,y,z
-x,1/2-y,1/2+z
x,-y,-z
-x,1/2+y,1/2-z
-x,-y,-z
x,1/2+y,1/2-z
-x,y,z
x,1/2-y,1/2+z
1/2+x,1/2+y,z
1/2-x,-y,1/2+z
1/2+x,1/2-y,-z
1/2-x,y,1/2-z
1/2-x,1/2-y,-z
1/2+x,y,1/2-z
1/2-x,1/2+y,z
1/2+x,-y,1/2+z
loop_
_atom_site_type_symbol
_atom_site_label
_atom_site_fract_x
_atom_site_fract_y
_atom_site_fract_z
Si Si1 0.102223 0.059059 0.042436
Si Si2 0.676278 0.058886 0.043853
Si Si3 0.399236 0.628272 0.662165
Si Si4 0.500000 0.871990 0.222849
Si Si5 0.439275 0.871989 0.375365
Si Si6 0.783718 0.463413 0.864281
O O1 0.125950 0.352042 0.043640
O O2 0.153757 0.856468 0.044117
O O3 0.065651 0.980509 0.079797
O O4 0.074457 0.000000 0.000000
O O5 0.704700 0.012789 0.087104
O O6 0.704367 0.000000 0.000000
O O7 0.443841 0.588585 0.697475
O O8 0.422974 0.431079 0.627796
O O9 0.336550 0.539637 0.662210
O O10 0.401145 0.934278 0.650264
O O11 0.500000 0.581366 0.241155
O O12 0.500000 0.907288 0.359414
O O13 0.764084 0.169972 0.855862
#
# Coordination Sequence:
#
# PCOD9477579 Si02
#       6
#    16  16  16   8  16  16
#     4  10  19  33  53  81 123 174 224 277 328 376
#     4  10  20  36  55  81 123 174 236 292 324 355
#     4  12  24  44  67 102 135 165 213 267 320 399
#     4  12  26  48  78 110 133 160 199 258 340 406
#     4  12  20  36  63  92 126 175 217 270 331 381
#     4  12  24  39  64  94 132 182 229 267 324 383
#
# _framework density 21.372001999999998
#
# number of rings (size 3 to 8) (size 9 to 14) (size 15 to 20)
#    0.000    0.727    5.455    3.273    0.000    1.091 
#    0.000    0.000    0.000    8.727    0.000    0.000 
#    0.000    0.000    0.000    0.000    0.000    0.000 
#
# Total GULP energy -245672.825180 kJ/mol
# GULP energy per Si atom -5583.473300 kJ/mol
# Density = 2.132336 g / cm^3
# Si number density = 21.372002 Si / 1000 Ang^3
#
#
#
# Elastic Constant Matrix: (Units=GPa)
#
#
# Indices 1 2 3 4 5 6 
#
# 1 80.3016 -0.7608 24.3841 0.0000 0.0000 0.0000
# 2 -0.7608 64.9452 -0.5392 0.0000 0.0000 0.0000
# 3 24.3841 -0.5392 64.0910 0.0000 0.0000 0.0000
# 4 0.0000 0.0000 0.0000 25.9757 0.0000 0.0000
# 5 0.0000 0.0000 0.0000 0.0000 23.6086 0.0000
# 6 0.0000 0.0000 0.0000 0.0000 0.0000 21.3880
#
#
#
# Elastic Compliance Matrix: (Units=1/GPa)
#
#
# Indices 1 2 3 4 5 6 
#
# 1 0.014081 0.000120 -0.005356 0.000000 0.000000 0.000000
# 2 0.000120 0.015400 0.000084 0.000000 0.000000 0.000000
# 3 -0.005356 0.000084 0.017641 0.000000 0.000000 0.000000
# 4 0.000000 0.000000 0.000000 0.038498 0.000000 0.000000
# 5 0.000000 0.000000 0.000000 0.000000 0.042357 0.000000
# 6 0.000000 0.000000 0.000000 0.000000 0.000000 0.046755
#
#
# Mechanical properties :
#
#
# Convention : Reuss Voigt Hill
#
# Bulk Modulus (GPa) = 27.16076 28.38955 27.77516
# Shear Modulus (GPa) = 25.34107 26.61138 25.97623
#
# Velocity S-wave (km/s) = 3.44715 3.53250 3.49009
# Velocity P-wave (km/s) = 5.34603 5.47270 5.40973
#
# Compressibility (1/GPa) = 0.03681782
#
# Stress axis : x y z
#
# Youngs Moduli (GPa) = 71.01966 64.93628 56.68512
#
# Poissons Ratio (x) = -0.00782 0.30361
# Poissons Ratio (y) = -0.00856 -0.00475
# Poissons Ratio (z) = 0.38039 -0.00544
#
# Static dielectric constant tensor:
#      x y z
#    x 1.775700 0.000000 0.000000 
#    y 0.000000 1.739880 0.000000 
#    z 0.000000 0.000000 1.806700 
# 
# From -- ./inp_files/53893.got.cif
#   From: 2010.05.17/outbox.cif.g08.bks.cpg/sg64_27_cif.got.tgz:53893.got - 2010.06.03 16:29:19.
