data_PCOD9477065
_publ_section_title
;
Structure prediction by ZEFSAII (Michael W. Deem and Ramdas Pophale) SiO2 
 PCOD9477065
Probable space group: C M C A
;
_chemical_formula_sum "Si O2"
_cell_formula_units_Z 104
_cell_length_a 24.125029
_cell_length_b 17.014073
_cell_length_c 14.216150
_cell_angle_alpha 90.000000
_cell_angle_beta 90.000000
_cell_angle_gamma 90.000000
_cell_volume 5835.232074
_symmetry_space_group_name_H-M "C M C A"
_symmetry_group_IT_number 64
_symmetry_cell_setting 'orthorhombic'
loop_
_space_group_symop_operation_xyz
x,y,z
-x,1/2-y,1/2+z
x,-y,-z
-x,1/2+y,1/2-z
-x,-y,-z
x,1/2+y,1/2-z
-x,y,z
x,1/2-y,1/2+z
1/2+x,1/2+y,z
1/2-x,-y,1/2+z
1/2+x,1/2-y,-z
1/2-x,y,1/2-z
1/2-x,1/2-y,-z
1/2+x,y,1/2-z
1/2-x,1/2+y,z
1/2+x,-y,1/2+z
loop_
_atom_site_type_symbol
_atom_site_label
_atom_site_fract_x
_atom_site_fract_y
_atom_site_fract_z
Si Si1 0.655915 0.703286 0.023854
Si Si2 0.636030 0.559686 0.778186
Si Si3 0.210406 0.000000 0.500000
Si Si4 0.656584 0.868947 0.086912
Si Si5 0.063992 0.916304 0.051080
Si Si6 0.225276 0.809703 0.155676
Si Si7 0.713577 0.576704 0.157983
O O1 0.632507 0.783401 0.067918
O O2 0.692739 0.651577 0.096984
O O3 0.606602 0.646493 0.991508
O O4 0.693198 0.728301 0.932744
O O5 0.628745 0.580694 0.669370
O O6 0.582070 0.572669 0.840934
O O7 0.682206 0.623771 0.810490
O O8 0.662221 0.475478 0.803695
O O9 0.168389 0.073384 0.501715
O O10 0.250956 0.020766 0.412791
O O11 0.720138 0.849577 0.114832
O O12 0.000000 0.893738 0.040951
O O13 0.072600 0.000000 0.000000
O O14 0.250000 0.768745 0.250000
O O15 0.750000 0.594575 0.250000
#
# Coordination Sequence:
#
# PCOD9477065 Si02
#       7
#    16  16   8  16  16  16  16
#     4  11  22  35  54  88 120 151 196 248 293 340
#     4  10  18  35  53  78 113 152 191 232 285 343
#     4  12  20  34  52  74 116 166 198 216 276 342
#     4  11  21  34  50  79 119 160 190 226 276 356
#     4  10  20  38  66  87 105 139 194 257 309 346
#     4   9  17  30  50  76 114 154 186 226 276 344
#     4  12  20  33  52  81 120 162 193 234 277 350
#
# _framework density 17.822769999999998
#
# number of rings (size 3 to 8) (size 9 to 14) (size 15 to 20)
#    0.000    1.385    6.154    1.846    0.000    1.846 
#    2.769    0.769    0.000    0.000    0.000    1.077 
#    0.000    0.000    0.000    0.000    0.000    0.000 
#
# Total GULP energy -289596.526121 kJ/mol
# GULP energy per Si atom -5569.163964 kJ/mol
# Density = 1.778220 g / cm^3
# Si number density = 17.822770 Si / 1000 Ang^3
#
#
#
# Elastic Constant Matrix: (Units=GPa)
#
#
# Indices 1 2 3 4 5 6 
#
# 1 69.4220 24.1083 34.9230 0.0000 0.0000 0.0000
# 2 24.1083 93.0465 38.5754 0.0000 0.0000 0.0000
# 3 34.9230 38.5754 91.4101 0.0000 0.0000 0.0000
# 4 0.0000 0.0000 0.0000 20.8986 0.0000 0.0000
# 5 0.0000 0.0000 0.0000 0.0000 16.0820 0.0000
# 6 0.0000 0.0000 0.0000 0.0000 0.0000 9.3655
#
#
#
# Elastic Compliance Matrix: (Units=1/GPa)
#
#
# Indices 1 2 3 4 5 6 
#
# 1 0.018203 -0.002222 -0.006017 0.000000 0.000000 0.000000
# 2 -0.002222 0.013298 -0.004763 0.000000 0.000000 0.000000
# 3 -0.006017 -0.004763 0.015248 0.000000 0.000000 0.000000
# 4 0.000000 0.000000 0.000000 0.047850 0.000000 0.000000
# 5 0.000000 0.000000 0.000000 0.000000 0.062181 0.000000
# 6 0.000000 0.000000 0.000000 0.000000 0.000000 0.106775
#
#
# Mechanical properties :
#
#
# Convention : Reuss Voigt Hill
#
# Bulk Modulus (GPa) = 48.20205 49.89911 49.05058
# Shear Modulus (GPa) = 16.86492 19.68735 18.27613
#
# Velocity S-wave (km/s) = 3.07947 3.32718 3.20572
# Velocity P-wave (km/s) = 6.30461 6.54358 6.42520
#
# Compressibility (1/GPa) = 0.02074600
#
# Stress axis : x y z
#
# Youngs Moduli (GPa) = 54.93592 75.20178 65.58116
#
# Poissons Ratio (x) = 0.16710 0.39459
# Poissons Ratio (y) = 0.12207 0.31234
# Poissons Ratio (z) = 0.33054 0.35817
#
# Static dielectric constant tensor:
#      x y z
#    x 1.569710 0.000000 0.000000 
#    y 0.000000 1.658280 0.000000 
#    z 0.000000 0.000000 1.704060 
# 
# From -- ./inp_files/27555.got.cif
#   From: 2010.05.17/outbox.cif.g08.bks.cpg/sg64_14_cif.got.tgz:27555.got - 2010.06.03 16:29:19.
