data_PCOD9477363
_publ_section_title
;
Structure prediction by ZEFSAII (Michael W. Deem and Ramdas Pophale) SiO2 
 PCOD9477363
Probable space group: C M C A
;
_chemical_formula_sum "Si O2"
_cell_formula_units_Z 72
_cell_length_a 19.724130
_cell_length_b 7.417755
_cell_length_c 22.114422
_cell_angle_alpha 90.000000
_cell_angle_beta 90.000000
_cell_angle_gamma 90.000000
_cell_volume 3235.533748
_symmetry_space_group_name_H-M "C M C A"
_symmetry_group_IT_number 64
_symmetry_cell_setting 'orthorhombic'
loop_
_space_group_symop_operation_xyz
x,y,z
-x,1/2-y,1/2+z
x,-y,-z
-x,1/2+y,1/2-z
-x,-y,-z
x,1/2+y,1/2-z
-x,y,z
x,1/2-y,1/2+z
1/2+x,1/2+y,z
1/2-x,-y,1/2+z
1/2+x,1/2-y,-z
1/2-x,y,1/2-z
1/2-x,1/2-y,-z
1/2+x,y,1/2-z
1/2-x,1/2+y,z
1/2+x,-y,1/2+z
loop_
_atom_site_type_symbol
_atom_site_label
_atom_site_fract_x
_atom_site_fract_y
_atom_site_fract_z
Si Si1 0.078183 0.086045 0.815303
Si Si2 0.314695 0.659920 0.572153
Si Si3 0.924415 0.394107 0.898818
Si Si4 0.379423 0.316492 0.310107
Si Si5 0.692578 0.500000 0.000000
O O1 0.092993 0.194218 0.876678
O O2 0.126554 0.150146 0.760831
O O3 0.000000 0.132954 0.799433
O O4 0.084493 0.873220 0.820935
O O5 0.366307 0.493161 0.564228
O O6 0.315031 0.689529 0.644761
O O7 0.341360 0.838360 0.537663
O O8 0.242580 0.601991 0.546921
O O9 0.922275 0.517265 0.837693
O O10 0.000000 0.398866 0.924770
#
# Coordination Sequence:
#
# PCOD9477363 Si02
#       5
#    16  16  16  16   8
#     4  11  18  29  57  87 132 161 170 208 274 369
#     4   9  22  36  66  80 105 148 197 254 275 346
#     4   9  19  34  54  91 122 145 176 223 287 345
#     4  10  19  31  52  91 116 152 185 216 274 339
#     4  10  20  46  60  76 100 152 214 242 302 310
#
# _framework density 22.252896
#
# number of rings (size 3 to 8) (size 9 to 14) (size 15 to 20)
#    1.333    0.889    2.222    2.000    0.000    3.556 
#    0.000    1.111    0.000   16.000    0.000    0.000 
#    0.000    0.000    0.000    0.000    0.000    0.000 
#
# Total GULP energy -200605.488154 kJ/mol
# GULP energy per Si atom -5572.374671 kJ/mol
# Density = 2.220225 g / cm^3
# Si number density = 22.252896 Si / 1000 Ang^3
#
#
#
# Elastic Constant Matrix: (Units=GPa)
#
#
# Indices 1 2 3 4 5 6 
#
# 1 30.2151 -0.9826 19.3676 0.0000 0.0000 0.0000
# 2 -0.9826 101.9883 -7.6626 0.0000 0.0000 0.0000
# 3 19.3676 -7.6626 64.7704 0.0000 0.0000 0.0000
# 4 0.0000 0.0000 0.0000 39.2110 0.0000 0.0000
# 5 0.0000 0.0000 0.0000 0.0000 27.6699 0.0000
# 6 0.0000 0.0000 0.0000 0.0000 0.0000 20.6617
#
#
#
# Elastic Compliance Matrix: (Units=1/GPa)
#
#
# Indices 1 2 3 4 5 6 
#
# 1 0.040972 -0.000530 -0.012314 0.000000 0.000000 0.000000
# 2 -0.000530 0.009900 0.001330 0.000000 0.000000 0.000000
# 3 -0.012314 0.001330 0.019279 0.000000 0.000000 0.000000
# 4 0.000000 0.000000 0.000000 0.025503 0.000000 0.000000
# 5 0.000000 0.000000 0.000000 0.000000 0.036140 0.000000
# 6 0.000000 0.000000 0.000000 0.000000 0.000000 0.048399
#
#
# Mechanical properties :
#
#
# Convention : Reuss Voigt Hill
#
# Bulk Modulus (GPa) = 21.22202 24.26876 22.74539
# Shear Modulus (GPa) = 22.83840 29.92527 26.38184
#
# Velocity S-wave (km/s) = 3.20709 3.67110 3.44691
# Velocity P-wave (km/s) = 4.82403 5.37577 5.10736
#
# Compressibility (1/GPa) = 0.04712087
#
# Stress axis : x y z
#
# Youngs Moduli (GPa) = 24.40686 101.01168 51.87085
#
# Poissons Ratio (x) = 0.05358 0.63875
# Poissons Ratio (y) = 0.01295 -0.06898
# Poissons Ratio (z) = 0.30055 -0.13433
#
# Static dielectric constant tensor:
#      x y z
#    x 1.801600 0.000000 0.000000 
#    y 0.000000 1.815290 0.000000 
#    z 0.000000 0.000000 1.883260 
# 
# From -- ./inp_files/46121.got.cif
#   From: 2010.05.17/outbox.cif.g08.bks.cpg/sg64_24_cif.got.tgz:46121.got - 2010.06.03 16:29:19.
