data_PCOD9477621
_publ_section_title
;
Structure prediction by ZEFSAII (Michael W. Deem and Ramdas Pophale) SiO2 
 PCOD9477621
Probable space group: C M C A
;
_chemical_formula_sum "Si O2"
_cell_formula_units_Z 80
_cell_length_a 7.785286
_cell_length_b 25.929790
_cell_length_c 23.073434
_cell_angle_alpha 90.000000
_cell_angle_beta 90.000000
_cell_angle_gamma 90.000000
_cell_volume 4657.853297
_symmetry_space_group_name_H-M "C M C A"
_symmetry_group_IT_number 64
_symmetry_cell_setting 'orthorhombic'
loop_
_space_group_symop_operation_xyz
x,y,z
-x,1/2-y,1/2+z
x,-y,-z
-x,1/2+y,1/2-z
-x,-y,-z
x,1/2+y,1/2-z
-x,y,z
x,1/2-y,1/2+z
1/2+x,1/2+y,z
1/2-x,-y,1/2+z
1/2+x,1/2-y,-z
1/2-x,y,1/2-z
1/2-x,1/2-y,-z
1/2+x,y,1/2-z
1/2-x,1/2+y,z
1/2+x,-y,1/2+z
loop_
_atom_site_type_symbol
_atom_site_label
_atom_site_fract_x
_atom_site_fract_y
_atom_site_fract_z
Si Si1 0.500000 0.983395 0.901079
Si Si2 0.796649 0.259301 0.584615
Si Si3 0.196362 0.449398 0.681997
Si Si4 0.797533 0.334453 0.815937
Si Si5 0.197075 0.163848 0.980290
Si Si6 0.000000 0.917076 0.482667
O O1 0.666412 0.976434 0.859967
O O2 0.500000 0.037001 0.935936
O O3 0.500000 0.940547 0.952279
O O4 0.753832 0.287052 0.644137
O O5 0.747764 0.300939 0.535226
O O6 0.707846 0.204957 0.572099
O O7 0.000000 0.250788 0.579165
O O8 0.250000 0.454340 0.750000
O O9 0.206268 0.388170 0.667953
O O10 0.000000 0.467028 0.674751
O O11 0.750000 0.323216 0.750000
O O12 0.000000 0.344340 0.820747
O O13 0.331481 0.118062 0.974542
O O14 0.000000 0.146893 0.988350
#
# Coordination Sequence:
#
# PCOD9477621 Si02
#       6
#     8  16  16  16  16   8
#     4  11  24  40  60  89 114 159 190 239 304 341
#     4  10  19  33  55  84 113 151 191 225 279 340
#     4  11  20  37  61  89 118 148 193 243 295 352
#     4  11  20  31  50  83 120 148 180 229 289 345
#     4  10  21  36  57  83 112 152 195 232 273 336
#     4  11  24  40  58  83 126 154 192 240 292 344
#
# _framework density 17.175294999999998
#
# number of rings (size 3 to 8) (size 9 to 14) (size 15 to 20)
#    0.000    1.400    3.000    4.800    2.800    3.200 
#    0.000    2.000    0.000    1.200    0.000    0.000 
#    0.000    0.000    0.000    0.000    0.000    0.000 
#
# Total GULP energy -223363.166238 kJ/mol
# GULP energy per Si atom -5584.079156 kJ/mol
# Density = 1.713620 g / cm^3
# Si number density = 17.175295 Si / 1000 Ang^3
#
#
#
# Elastic Constant Matrix: (Units=GPa)
#
#
# Indices 1 2 3 4 5 6 
#
# 1 131.4552 55.1969 40.1085 0.0000 0.0000 0.0000
# 2 55.1969 90.9594 45.8792 0.0000 0.0000 0.0000
# 3 40.1085 45.8792 73.2345 0.0000 0.0000 0.0000
# 4 0.0000 0.0000 0.0000 26.5366 0.0000 0.0000
# 5 0.0000 0.0000 0.0000 0.0000 23.7549 0.0000
# 6 0.0000 0.0000 0.0000 0.0000 0.0000 17.5304
#
#
#
# Elastic Compliance Matrix: (Units=1/GPa)
#
#
# Indices 1 2 3 4 5 6 
#
# 1 0.010531 -0.005090 -0.002579 0.000000 0.000000 0.000000
# 2 -0.005090 0.018533 -0.008823 0.000000 0.000000 0.000000
# 3 -0.002579 -0.008823 0.020594 0.000000 0.000000 0.000000
# 4 0.000000 0.000000 0.000000 0.037684 0.000000 0.000000
# 5 0.000000 0.000000 0.000000 0.000000 0.042097 0.000000
# 6 0.000000 0.000000 0.000000 0.000000 0.000000 0.057044
#
#
# Mechanical properties :
#
#
# Convention : Reuss Voigt Hill
#
# Bulk Modulus (GPa) = 59.96896 64.22423 62.09660
# Shear Modulus (GPa) = 22.21991 23.86202 23.04097
#
# Velocity S-wave (km/s) = 3.60072 3.73141 3.66665
# Velocity P-wave (km/s) = 7.23039 7.48592 7.35927
#
# Compressibility (1/GPa) = 0.01667529
#
# Stress axis : x y z
#
# Youngs Moduli (GPa) = 94.95581 53.95898 48.55712
#
# Poissons Ratio (x) = 0.27464 0.12523
# Poissons Ratio (y) = 0.48331 0.42840
# Poissons Ratio (z) = 0.24490 0.47606
#
# Static dielectric constant tensor:
#      x y z
#    x 1.612200 0.000000 0.000000 
#    y 0.000000 1.559210 0.000000 
#    z 0.000000 0.000000 1.585040 
# 
# From -- ./inp_files/42775.got.cif
#   From: 2010.05.17/outbox.cif.g08.bks.cpg/sg64_22_cif.got.tgz:42775.got - 2010.06.03 16:29:19.
