data_PCOD9477145
_publ_section_title
;
Structure prediction by ZEFSAII (Michael W. Deem and Ramdas Pophale) SiO2 
 PCOD9477145
Probable space group: C M C A
;
_chemical_formula_sum "Si O2"
_cell_formula_units_Z 88
_cell_length_a 24.692259
_cell_length_b 29.330176
_cell_length_c 5.111589
_cell_angle_alpha 90.000000
_cell_angle_beta 90.000000
_cell_angle_gamma 90.000000
_cell_volume 3701.957424
_symmetry_space_group_name_H-M "C M C A"
_symmetry_group_IT_number 64
_symmetry_cell_setting 'orthorhombic'
loop_
_space_group_symop_operation_xyz
x,y,z
-x,1/2-y,1/2+z
x,-y,-z
-x,1/2+y,1/2-z
-x,-y,-z
x,1/2+y,1/2-z
-x,y,z
x,1/2-y,1/2+z
1/2+x,1/2+y,z
1/2-x,-y,1/2+z
1/2+x,1/2-y,-z
1/2-x,y,1/2-z
1/2-x,1/2-y,-z
1/2+x,y,1/2-z
1/2-x,1/2+y,z
1/2+x,-y,1/2+z
loop_
_atom_site_type_symbol
_atom_site_label
_atom_site_fract_x
_atom_site_fract_y
_atom_site_fract_z
Si Si1 0.197376 0.914122 0.865928
Si Si2 0.940770 0.894396 0.377522
Si Si3 0.750000 0.340331 0.250000
Si Si4 0.438445 0.781371 0.644311
Si Si5 0.351019 0.334148 0.543501
Si Si6 0.084762 0.048940 0.107286
O O1 0.250000 0.938549 0.750000
O O2 0.172814 0.882040 0.642812
O O3 0.216568 0.875571 0.069022
O O4 0.149217 0.946611 0.946754
O O5 0.899485 0.852416 0.364569
O O6 0.940642 0.915317 0.091121
O O7 0.000000 0.877487 0.445746
O O8 0.927097 0.933824 0.596548
O O9 0.702560 0.312927 0.406521
O O10 0.500000 0.801406 0.665023
O O11 0.435332 0.758867 0.360447
O O12 0.384848 0.810079 0.724732
O O13 0.066599 0.000000 0.000000
#
# Coordination Sequence:
#
# PCOD9477145 Si02
#       6
#    16  16   8  16  16  16
#     4   9  20  38  59  87 116 160 204 254 298 355
#     4  11  23  39  62  88 118 162 208 250 300 365
#     4  10  18  38  64  84 118 156 204 252 300 342
#     4  10  23  41  63  93 127 159 193 243 301 353
#     4  10  21  38  64  88 120 157 206 248 295 360
#     4  11  23  40  57  88 125 158 202 255 311 362
#
# _framework density 23.77121
#
# number of rings (size 3 to 8) (size 9 to 14) (size 15 to 20)
#    0.000    1.818    1.818    1.636    2.545    2.182 
#    1.636    4.545    0.000    0.000    0.000    0.000 
#    0.000    0.000    0.000    0.000    0.000    0.000 
#
# Total GULP energy -245267.453025 kJ/mol
# GULP energy per Si atom -5574.260296 kJ/mol
# Density = 2.371711 g / cm^3
# Si number density = 23.771210 Si / 1000 Ang^3
#
#
#
# Elastic Constant Matrix: (Units=GPa)
#
#
# Indices 1 2 3 4 5 6 
#
# 1 170.3308 16.2304 13.1042 0.0000 0.0000 0.0000
# 2 16.2304 26.2895 9.1999 0.0000 0.0000 0.0000
# 3 13.1042 9.1999 56.2804 0.0000 0.0000 0.0000
# 4 0.0000 0.0000 0.0000 25.4911 0.0000 0.0000
# 5 0.0000 0.0000 0.0000 0.0000 117.1189 0.0000
# 6 0.0000 0.0000 0.0000 0.0000 0.0000 526.1408
#
#
#
# Elastic Compliance Matrix: (Units=1/GPa)
#
#
# Indices 1 2 3 4 5 6 
#
# 1 0.006279 -0.003569 -0.000879 0.000000 0.000000 0.000000
# 2 -0.003569 0.042375 -0.006096 0.000000 0.000000 0.000000
# 3 -0.000879 -0.006096 0.018969 0.000000 0.000000 0.000000
# 4 0.000000 0.000000 0.000000 0.039229 0.000000 0.000000
# 5 0.000000 0.000000 0.000000 0.000000 0.008538 0.000000
# 6 0.000000 0.000000 0.000000 0.000000 0.000000 0.001901
#
#
# Mechanical properties :
#
#
# Convention : Reuss Voigt Hill
#
# Bulk Modulus (GPa) = 21.48873 36.66329 29.07601
# Shear Modulus (GPa) = 32.49096 148.04123 90.26610
#
# Velocity S-wave (km/s) = 3.70106 7.90017 6.16890
# Velocity P-wave (km/s) = 5.22717 9.93347 7.93716
#
# Compressibility (1/GPa) = 0.04653603
#
# Stress axis : x y z
#
# Youngs Moduli (GPa) = 159.27172 23.59908 52.71703
#
# Poissons Ratio (x) = 0.08422 0.04631
# Poissons Ratio (y) = 0.56841 0.32135
# Poissons Ratio (z) = 0.13992 0.14386
#
# Static dielectric constant tensor:
#      x y z
#    x 2.079840 0.000000 0.000000 
#    y 0.000000 1.880300 0.000000 
#    z 0.000000 0.000000 2.110950 
# 
# From -- ./inp_files/2439.got.cif
#   From: 2010.05.17/outbox.cif.g08.bks.cpg/sg64_2_cif.got.tgz:2439.got - 2010.06.03 16:29:19.
