data_PCOD9477543
_publ_section_title
;
Structure prediction by ZEFSAII (Michael W. Deem and Ramdas Pophale) SiO2 
 PCOD9477543
Probable space group: C M C A
;
_chemical_formula_sum "Si O2"
_cell_formula_units_Z 56
_cell_length_a 17.730926
_cell_length_b 14.059095
_cell_length_c 8.575300
_cell_angle_alpha 90.000000
_cell_angle_beta 90.000000
_cell_angle_gamma 90.000000
_cell_volume 2137.657413
_symmetry_space_group_name_H-M "C M C A"
_symmetry_group_IT_number 64
_symmetry_cell_setting 'orthorhombic'
loop_
_space_group_symop_operation_xyz
x,y,z
-x,1/2-y,1/2+z
x,-y,-z
-x,1/2+y,1/2-z
-x,-y,-z
x,1/2+y,1/2-z
-x,y,z
x,1/2-y,1/2+z
1/2+x,1/2+y,z
1/2-x,-y,1/2+z
1/2+x,1/2-y,-z
1/2-x,y,1/2-z
1/2-x,1/2-y,-z
1/2+x,y,1/2-z
1/2-x,1/2+y,z
1/2+x,-y,1/2+z
loop_
_atom_site_type_symbol
_atom_site_label
_atom_site_fract_x
_atom_site_fract_y
_atom_site_fract_z
Si Si1 0.361588 0.852220 0.001931
Si Si2 0.367151 0.001179 0.249671
Si Si3 0.500000 0.756002 0.351931
Si Si4 0.000000 0.389112 0.588798
Si Si5 0.750000 0.142514 0.750000
O O1 0.422326 0.784760 0.924318
O O2 0.298845 0.806900 0.116987
O O3 0.401064 0.926484 0.122149
O O4 0.329958 0.917954 0.862200
O O5 0.427316 0.055090 0.352427
O O6 0.307908 0.931350 0.332524
O O7 0.500000 0.864279 0.407263
O O8 0.500000 0.712012 0.180610
#
# Coordination Sequence:
#
# PCOD9477543 Si02
#       5
#    16  16   8   8   8
#     4   8  15  29  51  73  91 123 165 204 241 284
#     4   8  15  29  51  73  91 123 165 204 241 284
#     4  10  19  33  51  73 101 130 164 198 242 292
#     4  10  19  33  51  73 101 130 164 198 242 292
#     4   8  14  26  48  74  90 110 158 206 242 274
#
# _framework density 26.196901
#
# number of rings (size 3 to 8) (size 9 to 14) (size 15 to 20)
#    1.714    1.714    0.000    0.857    0.000    3.429 
#    0.000    7.143    0.000    8.571    0.000    0.000 
#    0.000    0.000    0.000    0.000    0.000    0.000 
#
# Total GULP energy -156086.267920 kJ/mol
# GULP energy per Si atom -5574.509569 kJ/mol
# Density = 2.613728 g / cm^3
# Si number density = 26.196901 Si / 1000 Ang^3
#
#
#
# Elastic Constant Matrix: (Units=GPa)
#
#
# Indices 1 2 3 4 5 6 
#
# 1 69.7207 -2.1466 32.2899 0.0000 0.0000 0.0000
# 2 -2.1466 47.0309 27.4928 0.0000 0.0000 0.0000
# 3 32.2899 27.4928 98.9797 0.0000 0.0000 0.0000
# 4 0.0000 0.0000 0.0000 48.0849 0.0000 0.0000
# 5 0.0000 0.0000 0.0000 0.0000 -14.6781 0.0000
# 6 0.0000 0.0000 0.0000 0.0000 0.0000 -22.3699
#
#
#
# Elastic Compliance Matrix: (Units=1/GPa)
#
#
# Indices 1 2 3 4 5 6 
#
# 1 0.017841 0.005034 -0.007219 0.000000 0.000000 0.000000
# 2 0.005034 0.026805 -0.009088 0.000000 0.000000 0.000000
# 3 -0.007219 -0.009088 0.014982 0.000000 0.000000 0.000000
# 4 0.000000 0.000000 0.000000 0.020797 0.000000 0.000000
# 5 0.000000 0.000000 0.000000 0.000000 -0.068129 0.000000
# 6 0.000000 0.000000 0.000000 0.000000 0.000000 -0.044703
#
#
# Mechanical properties :
#
#
# Convention : Reuss Voigt Hill
#
# Bulk Modulus (GPa) = 26.96599 36.77818 31.87208
# Shear Modulus (GPa) = 2001.53712 12.74705 1007.14209
#
# Velocity S-wave (km/s) = 27.67119 2.20826 19.62869
# Velocity P-wave (km/s) = 32.11296 4.53558 22.93266
#
# Compressibility (1/GPa) = 0.03708375
#
# Stress axis : x y z
#
# Youngs Moduli (GPa) = 56.05048 37.30697 66.74616
#
# Poissons Ratio (x) = -0.18780 0.48181
# Poissons Ratio (y) = -0.28216 0.60656
# Poissons Ratio (z) = 0.40460 0.33903
#
# Static dielectric constant tensor:
#      x y z
#    x 2.056560 0.000000 0.000000 
#    y 0.000000 2.083600 0.000000 
#    z 0.000000 0.000000 2.050240 
# 
# From -- ./inp_files/13984.got.cif
#   From: 2010.05.17/outbox.cif.g08.bks.cpg/sg64_7_cif.got.tgz:13984.got - 2010.06.03 16:29:19.
