data_PCOD9477355
_publ_section_title
;
Structure prediction by ZEFSAII (Michael W. Deem and Ramdas Pophale) SiO2 
 PCOD9477355
Probable space group: C M C A
;
_chemical_formula_sum "Si O2"
_cell_formula_units_Z 96
_cell_length_a 8.585653
_cell_length_b 30.702475
_cell_length_c 21.217782
_cell_angle_alpha 90.000000
_cell_angle_beta 90.000000
_cell_angle_gamma 90.000000
_cell_volume 5593.024237
_symmetry_space_group_name_H-M "C M C A"
_symmetry_group_IT_number 64
_symmetry_cell_setting 'orthorhombic'
loop_
_space_group_symop_operation_xyz
x,y,z
-x,1/2-y,1/2+z
x,-y,-z
-x,1/2+y,1/2-z
-x,-y,-z
x,1/2+y,1/2-z
-x,y,z
x,1/2-y,1/2+z
1/2+x,1/2+y,z
1/2-x,-y,1/2+z
1/2+x,1/2-y,-z
1/2-x,y,1/2-z
1/2-x,1/2-y,-z
1/2+x,y,1/2-z
1/2-x,1/2+y,z
1/2+x,-y,1/2+z
loop_
_atom_site_type_symbol
_atom_site_label
_atom_site_fract_x
_atom_site_fract_y
_atom_site_fract_z
Si Si1 0.687654 0.555714 0.683934
Si Si2 0.811427 0.752325 0.314852
Si Si3 0.817229 0.847646 0.342136
Si Si4 0.181644 0.368537 0.012052
Si Si5 0.186377 0.038317 0.952419
Si Si6 0.813586 0.215152 0.050608
O O1 0.500000 0.555955 0.684208
O O2 0.750000 0.537029 0.750000
O O3 0.748544 0.606053 0.679986
O O4 0.742637 0.534740 0.618030
O O5 0.750000 0.732566 0.250000
O O6 0.749561 0.802218 0.318911
O O7 0.763437 0.728623 0.379060
O O8 0.000000 0.753369 0.314027
O O9 0.809126 0.848157 0.417731
O O10 0.000000 0.848047 0.324596
O O11 0.257601 0.333167 0.966685
O O12 0.000000 0.374525 0.997000
O O13 0.261683 0.415431 0.018286
O O14 0.000000 0.037504 0.946530
O O15 0.235260 0.000000 0.000000
O O16 0.000000 0.217095 0.047849
O O17 0.750000 0.250000 0.000000
#
# Coordination Sequence:
#
# PCOD9477355 Si02
#       6
#    16  16  16  16  16  16
#     4  10  19  31  51  77 110 145 178 217 265 325
#     4  10  20  33  47  69 103 140 180 221 263 310
#     4   8  15  29  46  70 103 136 169 209 254 308
#     4  10  19  34  55  79 107 137 177 223 267 320
#     4  10  21  37  57  82 111 141 178 223 274 329
#     4  11  21  34  53  76 106 142 182 224 265 315
#
# _framework density 17.164238000000001
#
# number of rings (size 3 to 8) (size 9 to 14) (size 15 to 20)
#    0.000    2.167    1.667    3.500    0.000    2.667 
#    0.000    0.833    0.000    1.000    0.000    4.667 
#    0.000    0.000    0.000    0.000    0.000    0.000 
#
# Total GULP energy -267634.121292 kJ/mol
# GULP energy per Si atom -5575.710860 kJ/mol
# Density = 1.712517 g / cm^3
# Si number density = 17.164238 Si / 1000 Ang^3
#
#
#
# Elastic Constant Matrix: (Units=GPa)
#
#
# Indices 1 2 3 4 5 6 
#
# 1 45.8297 25.9767 43.0675 0.0000 0.0000 0.0000
# 2 25.9767 78.0392 66.0532 0.0000 0.0000 0.0000
# 3 43.0675 66.0532 150.0509 0.0000 0.0000 0.0000
# 4 0.0000 0.0000 0.0000 16.8627 0.0000 0.0000
# 5 0.0000 0.0000 0.0000 0.0000 27.4813 0.0000
# 6 0.0000 0.0000 0.0000 0.0000 0.0000 20.2447
#
#
#
# Elastic Compliance Matrix: (Units=1/GPa)
#
#
# Indices 1 2 3 4 5 6 
#
# 1 0.030805 -0.004415 -0.006898 0.000000 0.000000 0.000000
# 2 -0.004415 0.021057 -0.008002 0.000000 0.000000 0.000000
# 3 -0.006898 -0.008002 0.012167 0.000000 0.000000 0.000000
# 4 0.000000 0.000000 0.000000 0.059302 0.000000 0.000000
# 5 0.000000 0.000000 0.000000 0.000000 0.036388 0.000000
# 6 0.000000 0.000000 0.000000 0.000000 0.000000 0.049396
#
#
# Mechanical properties :
#
#
# Convention : Reuss Voigt Hill
#
# Bulk Modulus (GPa) = 39.37370 60.45719 49.91544
# Shear Modulus (GPa) = 19.51516 22.17259 20.84388
#
# Velocity S-wave (km/s) = 3.37555 3.59805 3.48857
# Velocity P-wave (km/s) = 6.17913 7.24986 6.73580
#
# Compressibility (1/GPa) = 0.02539766
#
# Stress axis : x y z
#
# Youngs Moduli (GPa) = 32.46256 47.49054 82.19125
#
# Poissons Ratio (x) = 0.20969 0.56694
# Poissons Ratio (y) = 0.14334 0.65769
# Poissons Ratio (z) = 0.22392 0.38002
#
# Static dielectric constant tensor:
#      x y z
#    x 1.587900 0.000000 0.000000 
#    y 0.000000 1.580250 0.000000 
#    z 0.000000 0.000000 1.600050 
# 
# From -- ./inp_files/37117.got.cif
#   From: 2010.05.17/outbox.cif.g08.bks.cpg/sg64_19_cif.got.tgz:37117.got - 2010.06.03 16:29:19.
