data_PCOD9477240
_publ_section_title
;
Structure prediction by ZEFSAII (Michael W. Deem and Ramdas Pophale) SiO2 
 PCOD9477240
Probable space group: C M C A
;
_chemical_formula_sum "Si O2"
_cell_formula_units_Z 80
_cell_length_a 9.035815
_cell_length_b 19.524761
_cell_length_c 26.778684
_cell_angle_alpha 90.000000
_cell_angle_beta 90.000000
_cell_angle_gamma 90.000000
_cell_volume 4724.352425
_symmetry_space_group_name_H-M "C M C A"
_symmetry_group_IT_number 64
_symmetry_cell_setting 'orthorhombic'
loop_
_space_group_symop_operation_xyz
x,y,z
-x,1/2-y,1/2+z
x,-y,-z
-x,1/2+y,1/2-z
-x,-y,-z
x,1/2+y,1/2-z
-x,y,z
x,1/2-y,1/2+z
1/2+x,1/2+y,z
1/2-x,-y,1/2+z
1/2+x,1/2-y,-z
1/2-x,y,1/2-z
1/2-x,1/2-y,-z
1/2+x,y,1/2-z
1/2-x,1/2+y,z
1/2+x,-y,1/2+z
loop_
_atom_site_type_symbol
_atom_site_label
_atom_site_fract_x
_atom_site_fract_y
_atom_site_fract_z
Si Si1 0.170374 0.416830 0.995923
Si Si2 0.677924 0.167478 0.302124
Si Si3 0.820736 0.077069 0.605782
Si Si4 0.322082 0.173248 0.802117
Si Si5 0.822897 0.072326 0.105209
O O1 0.267077 0.398890 0.948007
O O2 0.000000 0.396187 0.987666
O O3 0.172428 0.500000 0.000000
O O4 0.220486 0.393688 0.050961
O O5 0.500000 0.164302 0.297475
O O6 0.750000 0.144919 0.250000
O O7 0.719128 0.247140 0.310367
O O8 0.721537 0.120936 0.348928
O O9 0.778801 0.126484 0.651108
O O10 0.000000 0.069371 0.605066
O O11 0.748519 0.002605 0.611831
O O12 0.500000 0.170008 0.797542
O O13 0.250000 0.150658 0.750000
O O14 0.000000 0.066433 0.104392
#
# Coordination Sequence:
#
# PCOD9477240 Si02
#       5
#    16  16  16  16  16
#     4   8  15  29  47  67  92 124 157 184 222 276
#     4   9  19  34  50  68  92 124 157 189 230 276
#     4   9  18  32  50  70  93 123 156 190 228 273
#     4   9  18  34  52  68  91 123 157 192 230 273
#     4  10  19  30  47  72  98 121 150 192 234 270
#
# _framework density 16.933537000000001
#
# number of rings (size 3 to 8) (size 9 to 14) (size 15 to 20)
#    0.000    3.000    0.000    1.800    0.000    6.800 
#    0.000    5.000    0.000    0.000    0.000    0.000 
#    0.000    0.000    0.000    0.000    0.000    0.000 
#
# Total GULP energy -222837.803540 kJ/mol
# GULP energy per Si atom -5570.945089 kJ/mol
# Density = 1.689500 g / cm^3
# Si number density = 16.933537 Si / 1000 Ang^3
#
#
#
# Elastic Constant Matrix: (Units=GPa)
#
#
# Indices 1 2 3 4 5 6 
#
# 1 23.6143 25.9611 52.2773 0.0000 0.0000 0.0000
# 2 25.9611 50.9759 80.6258 0.0000 0.0000 0.0000
# 3 52.2773 80.6258 207.9247 0.0000 0.0000 0.0000
# 4 0.0000 0.0000 0.0000 -17.2496 0.0000 0.0000
# 5 0.0000 0.0000 0.0000 0.0000 33.2837 0.0000
# 6 0.0000 0.0000 0.0000 0.0000 0.0000 14.8973
#
#
#
# Elastic Compliance Matrix: (Units=1/GPa)
#
#
# Indices 1 2 3 4 5 6 
#
# 1 0.113273 -0.032696 -0.015801 0.000000 0.000000 0.000000
# 2 -0.032696 0.060168 -0.015110 0.000000 0.000000 0.000000
# 3 -0.015801 -0.015110 0.014642 0.000000 0.000000 0.000000
# 4 0.000000 0.000000 0.000000 -0.057972 0.000000 0.000000
# 5 0.000000 0.000000 0.000000 0.000000 0.030045 0.000000
# 6 0.000000 0.000000 0.000000 0.000000 0.000000 0.067126
#
#
# Mechanical properties :
#
#
# Convention : Reuss Voigt Hill
#
# Bulk Modulus (GPa) = 16.42916 66.69372 41.56144
# Shear Modulus (GPa) = 13.34094 14.42966 13.88530
#
# Velocity S-wave (km/s) = 2.80990 2.92230 2.86665
# Velocity P-wave (km/s) = 4.50006 7.13145 5.96272
#
# Compressibility (1/GPa) = 0.06086739
#
# Stress axis : x y z
#
# Youngs Moduli (GPa) = 8.82819 16.62017 68.29879
#
# Poissons Ratio (x) = 0.54341 1.07921
# Poissons Ratio (y) = 0.28865 1.03202
# Poissons Ratio (z) = 0.13950 0.25114
#
# Static dielectric constant tensor:
#      x y z
#    x 1.568480 0.000000 0.000000 
#    y 0.000000 1.554090 0.000000 
#    z 0.000000 0.000000 1.586120 
# 
# From -- ./inp_files/47800.got.cif
#   From: 2010.05.17/outbox.cif.g08.bks.cpg/sg64_24_cif.got.tgz:47800.got - 2010.06.03 16:29:19.
