data_PCOD9477317
_publ_section_title
;
Structure prediction by ZEFSAII (Michael W. Deem and Ramdas Pophale) SiO2 
 PCOD9477317
Probable space group: C M C A
;
_chemical_formula_sum "Si O2"
_cell_formula_units_Z 112
_cell_length_a 7.533666
_cell_length_b 23.296879
_cell_length_c 29.020443
_cell_angle_alpha 90.000000
_cell_angle_beta 90.000000
_cell_angle_gamma 90.000000
_cell_volume 5093.404221
_symmetry_space_group_name_H-M "C M C A"
_symmetry_group_IT_number 64
_symmetry_cell_setting 'orthorhombic'
loop_
_space_group_symop_operation_xyz
x,y,z
-x,1/2-y,1/2+z
x,-y,-z
-x,1/2+y,1/2-z
-x,-y,-z
x,1/2+y,1/2-z
-x,y,z
x,1/2-y,1/2+z
1/2+x,1/2+y,z
1/2-x,-y,1/2+z
1/2+x,1/2-y,-z
1/2-x,y,1/2-z
1/2-x,1/2-y,-z
1/2+x,y,1/2-z
1/2-x,1/2+y,z
1/2+x,-y,1/2+z
loop_
_atom_site_type_symbol
_atom_site_label
_atom_site_fract_x
_atom_site_fract_y
_atom_site_fract_z
Si Si1 0.218111 0.133097 0.110711
Si Si2 0.210442 0.669821 0.832881
Si Si3 0.212107 0.686203 0.483311
Si Si4 0.212928 0.205438 0.196962
Si Si5 0.284920 0.884311 0.430114
Si Si6 0.703053 0.994510 0.604273
Si Si7 0.288657 0.047289 0.801134
O O1 0.274387 0.172998 0.068162
O O2 0.277377 0.159606 0.159257
O O3 0.000000 0.131094 0.112103
O O4 0.281684 0.068650 0.100218
O O5 0.282608 0.730752 0.815970
O O6 0.236950 0.656468 0.886975
O O7 0.279514 0.612872 0.807137
O O8 0.000000 0.671390 0.824268
O O9 0.250000 0.750000 0.500000
O O10 0.279278 0.642174 0.522097
O O11 0.000000 0.679189 0.482136
O O12 0.250000 0.191705 0.250000
O O13 0.000000 0.207486 0.191870
O O14 0.500000 0.886729 0.430552
O O15 0.218251 0.948819 0.419829
O O16 0.500000 0.990389 0.587493
O O17 0.704929 0.010164 0.658373
O O18 0.500000 0.047176 0.808879
O O19 0.250000 0.026607 0.750000
#
# Coordination Sequence:
#
# PCOD9477317 Si02
#       7
#    16  16  16  16  16  16  16
#     4   9  19  35  54  74 101 135 170 206 250 302
#     4   9  18  32  51  74 103 135 166 202 252 306
#     4  10  20  35  55  80 106 134 167 205 250 303
#     4  10  20  34  51  72  97 131 170 208 251 299
#     4   9  18  31  52  80 105 130 166 208 249 293
#     4   9  18  34  52  72 100 134 170 211 253 298
#     4  10  19  31  49  74 101 133 171 212 256 303
#
# _framework density 21.989222999999999
#
# number of rings (size 3 to 8) (size 9 to 14) (size 15 to 20)
#    0.000    2.571    0.000    1.714    0.000    4.000 
#    0.000    6.429    0.000    0.000    0.000    5.000 
#    0.000    0.000    0.000    0.000    0.000    0.000 
#
# Total GULP energy -312669.272835 kJ/mol
# GULP energy per Si atom -5583.379872 kJ/mol
# Density = 2.193917 g / cm^3
# Si number density = 21.989223 Si / 1000 Ang^3
#
#
#
# Elastic Constant Matrix: (Units=GPa)
#
#
# Indices 1 2 3 4 5 6 
#
# 1 51.4084 -2.9252 -11.2858 0.0000 0.0000 0.0000
# 2 -2.9252 134.2309 77.4346 0.0000 0.0000 0.0000
# 3 -11.2858 77.4346 141.4639 0.0000 0.0000 0.0000
# 4 0.0000 0.0000 0.0000 4.4630 0.0000 0.0000
# 5 0.0000 0.0000 0.0000 0.0000 15.8884 0.0000
# 6 0.0000 0.0000 0.0000 0.0000 0.0000 -3.2046
#
#
#
# Elastic Compliance Matrix: (Units=1/GPa)
#
#
# Indices 1 2 3 4 5 6 
#
# 1 0.019844 -0.000703 0.001968 0.000000 0.000000 0.000000
# 2 -0.000703 0.010913 -0.006030 0.000000 0.000000 0.000000
# 3 0.001968 -0.006030 0.010526 0.000000 0.000000 0.000000
# 4 0.000000 0.000000 0.000000 0.224064 0.000000 0.000000
# 5 0.000000 0.000000 0.000000 0.000000 0.062939 0.000000
# 6 0.000000 0.000000 0.000000 0.000000 0.000000 -0.312047
#
#
# Mechanical properties :
#
#
# Convention : Reuss Voigt Hill
#
# Bulk Modulus (GPa) = 31.49177 50.39450 40.94314
# Shear Modulus (GPa) = 137.54191 21.02132 79.28162
#
# Velocity S-wave (km/s) = 7.91742 3.09525 6.01108
# Velocity P-wave (km/s) = 9.89612 5.97843 8.17542
#
# Compressibility (1/GPa) = 0.03175433
#
# Stress axis : x y z
#
# Youngs Moduli (GPa) = 50.39289 91.63533 94.99946
#
# Poissons Ratio (x) = 0.06439 -0.18694
# Poissons Ratio (y) = 0.03541 0.57280
# Poissons Ratio (z) = -0.09916 0.55252
#
# Static dielectric constant tensor:
#      x y z
#    x 1.822270 0.000000 0.000000 
#    y 0.000000 1.803120 0.000000 
#    z 0.000000 0.000000 1.775740 
# 
# From -- ./inp_files/44407.got.cif
#   From: 2010.05.17/outbox.cif.g08.bks.cpg/sg64_23_cif.got.tgz:44407.got - 2010.06.03 16:29:19.
