data_PCOD9477274
_publ_section_title
;
Structure prediction by ZEFSAII (Michael W. Deem and Ramdas Pophale) SiO2 
 PCOD9477274
Probable space group: C M C A
;
_chemical_formula_sum "Si O2"
_cell_formula_units_Z 96
_cell_length_a 9.361279
_cell_length_b 14.040087
_cell_length_c 31.843385
_cell_angle_alpha 90.000000
_cell_angle_beta 90.000000
_cell_angle_gamma 90.000000
_cell_volume 4185.277085
_symmetry_space_group_name_H-M "C M C A"
_symmetry_group_IT_number 64
_symmetry_cell_setting 'orthorhombic'
loop_
_space_group_symop_operation_xyz
x,y,z
-x,1/2-y,1/2+z
x,-y,-z
-x,1/2+y,1/2-z
-x,-y,-z
x,1/2+y,1/2-z
-x,y,z
x,1/2-y,1/2+z
1/2+x,1/2+y,z
1/2-x,-y,1/2+z
1/2+x,1/2-y,-z
1/2-x,y,1/2-z
1/2-x,1/2-y,-z
1/2+x,y,1/2-z
1/2-x,1/2+y,z
1/2+x,-y,1/2+z
loop_
_atom_site_type_symbol
_atom_site_label
_atom_site_fract_x
_atom_site_fract_y
_atom_site_fract_z
Si Si1 0.338327 0.257281 0.956959
Si Si2 0.663462 0.747369 0.875201
Si Si3 0.160876 0.016690 0.046862
Si Si4 0.336621 0.244452 0.791696
Si Si5 0.838349 0.479747 0.873151
Si Si6 0.338049 0.976499 0.708950
O O1 0.500000 0.217562 0.960150
O O2 0.246819 0.220651 0.917619
O O3 0.353252 0.369924 0.948817
O O4 0.250000 0.250000 0.000000
O O5 0.500000 0.712741 0.874569
O O6 0.751675 0.719063 0.833919
O O7 0.656625 0.863623 0.874316
O O8 0.263302 0.987086 0.084256
O O9 0.000000 0.974740 0.049255
O O10 0.217925 0.000000 0.000000
O O11 0.500000 0.209597 0.791569
O O12 0.250000 0.217107 0.750000
O O13 0.343396 0.360539 0.791224
O O14 0.743736 0.504965 0.833070
O O15 0.000000 0.514555 0.869427
O O16 0.500000 0.011929 0.709953
O O17 0.250000 0.003937 0.750000
#
# Coordination Sequence:
#
# PCOD9477274 Si02
#       6
#    16  16  16  16  16  16
#     4  10  19  31  47  66  89 117 149 185 224 266
#     4   9  16  26  39  56  80 110 143 178 217 261
#     4   9  18  32  48  65  87 117 151 185 222 264
#     4   9  15  22  33  51  76 107 141 175 213 258
#     4   9  16  25  38  57  81 109 141 177 218 262
#     4   9  15  22  33  50  75 107 141 175 212 257
#
# _framework density 22.937548
#
# number of rings (size 3 to 8) (size 9 to 14) (size 15 to 20)
#    0.000    2.833    0.000    2.500    0.000    9.000 
#    0.000    0.000    0.000    0.000    0.000    0.000 
#    0.000    1.333    0.000   10.667    0.000   18.000 
#
# Total GULP energy -268446.835585 kJ/mol
# GULP energy per Si atom -5592.642408 kJ/mol
# Density = 2.288534 g / cm^3
# Si number density = 22.937548 Si / 1000 Ang^3
#
#
#
# Elastic Constant Matrix: (Units=GPa)
#
#
# Indices 1 2 3 4 5 6 
#
# 1 268.3460 8.4978 180.1912 0.0000 0.0000 0.0000
# 2 8.4978 75.2556 -3.0781 0.0000 0.0000 0.0000
# 3 180.1912 -3.0781 268.0622 0.0000 0.0000 0.0000
# 4 0.0000 0.0000 0.0000 7.8856 0.0000 0.0000
# 5 0.0000 0.0000 0.0000 0.0000 34.1501 0.0000
# 6 0.0000 0.0000 0.0000 0.0000 0.0000 0.8818
#
#
#
# Elastic Compliance Matrix: (Units=1/GPa)
#
#
# Indices 1 2 3 4 5 6 
#
# 1 0.006862 -0.000964 -0.004623 0.000000 0.000000 0.000000
# 2 -0.000964 0.013430 0.000802 0.000000 0.000000 0.000000
# 3 -0.004623 0.000802 0.006848 0.000000 0.000000 0.000000
# 4 0.000000 0.000000 0.000000 0.126813 0.000000 0.000000
# 5 0.000000 0.000000 0.000000 0.000000 0.029282 0.000000
# 6 0.000000 0.000000 0.000000 0.000000 0.000000 1.134048
#
#
# Mechanical properties :
#
#
# Convention : Reuss Voigt Hill
#
# Bulk Modulus (GPa) = 56.92013 109.20950 83.06482
# Shear Modulus (GPa) = 3.75176 36.98704 20.36940
#
# Velocity S-wave (km/s) = 1.28031 4.01996 2.98323
# Velocity P-wave (km/s) = 5.20142 8.32237 6.93962
#
# Compressibility (1/GPa) = 0.01756848
#
# Stress axis : x y z
#
# Youngs Moduli (GPa) = 145.73713 74.46182 146.03682
#
# Poissons Ratio (x) = 0.07178 0.67520
# Poissons Ratio (y) = 0.14048 -0.11714
# Poissons Ratio (z) = 0.67381 -0.05973
#
# Static dielectric constant tensor:
#      x y z
#    x 1.807320 0.000000 0.000000 
#    y 0.000000 1.987040 0.000000 
#    z 0.000000 0.000000 1.784960 
# 
# From -- ./inp_files/48338.got.cif
#   From: 2010.05.17/outbox.cif.g08.bks.cpg/sg64_25_cif.got.tgz:48338.got - 2010.06.03 16:29:19.
