data_PCOD9477375
_publ_section_title
;
Structure prediction by ZEFSAII (Michael W. Deem and Ramdas Pophale) SiO2 
 PCOD9477375
Probable space group: C M C A
;
_chemical_formula_sum "Si O2"
_cell_formula_units_Z 80
_cell_length_a 11.084688
_cell_length_b 20.852915
_cell_length_c 19.682006
_cell_angle_alpha 90.000000
_cell_angle_beta 90.000000
_cell_angle_gamma 90.000000
_cell_volume 4549.457438
_symmetry_space_group_name_H-M "C M C A"
_symmetry_group_IT_number 64
_symmetry_cell_setting 'orthorhombic'
loop_
_space_group_symop_operation_xyz
x,y,z
-x,1/2-y,1/2+z
x,-y,-z
-x,1/2+y,1/2-z
-x,-y,-z
x,1/2+y,1/2-z
-x,y,z
x,1/2-y,1/2+z
1/2+x,1/2+y,z
1/2-x,-y,1/2+z
1/2+x,1/2-y,-z
1/2-x,y,1/2-z
1/2-x,1/2-y,-z
1/2+x,y,1/2-z
1/2-x,1/2+y,z
1/2+x,-y,1/2+z
loop_
_atom_site_type_symbol
_atom_site_label
_atom_site_fract_x
_atom_site_fract_y
_atom_site_fract_z
Si Si1 0.500000 0.936493 0.593805
Si Si2 0.206984 0.132557 0.176593
Si Si3 0.137638 0.279704 0.199809
Si Si4 0.500000 0.587040 0.934350
Si Si5 0.137518 0.820263 0.559608
Si Si6 0.720783 0.174451 0.575558
O O1 0.385041 0.912024 0.636143
O O2 0.500000 0.907760 0.517138
O O3 0.500000 0.012787 0.585027
O O4 0.250000 0.108908 0.250000
O O5 0.146325 0.202924 0.186985
O O6 0.320850 0.145718 0.128278
O O7 0.250000 0.294086 0.250000
O O8 0.173571 0.315925 0.130502
O O9 0.000000 0.294325 0.222069
O O10 0.380803 0.622769 0.907614
O O11 0.222204 0.840418 0.497500
O O12 0.157234 0.744079 0.569927
O O13 0.000000 0.833163 0.543256
#
# Coordination Sequence:
#
# PCOD9477375 Si02
#       6
#     8  16  16   8  16  16
#     4  11  22  40  59  80 116 152 205 242 286 345
#     4  10  21  34  57  85 117 147 193 243 292 347
#     4  10  21  34  57  89 122 155 188 245 306 355
#     4  11  22  38  61  82 112 161 199 244 284 358
#     4  10  19  31  54  86 117 146 178 241 302 352
#     4  10  20  33  54  84 120 147 194 233 293 359
#
# _framework density 17.584513999999999
#
# number of rings (size 3 to 8) (size 9 to 14) (size 15 to 20)
#    0.000    1.800    4.000    0.600    2.800    2.400 
#    0.000    1.000    0.000    3.600    0.000    0.000 
#    0.000    0.000    0.000    0.000    0.000    0.000 
#
# Total GULP energy -223138.763801 kJ/mol
# GULP energy per Si atom -5578.469095 kJ/mol
# Density = 1.754449 g / cm^3
# Si number density = 17.584514 Si / 1000 Ang^3
#
#
#
# Elastic Constant Matrix: (Units=GPa)
#
#
# Indices 1 2 3 4 5 6 
#
# 1 117.4770 31.9158 26.3625 0.0000 0.0000 0.0000
# 2 31.9158 34.4413 22.1454 0.0000 0.0000 0.0000
# 3 26.3625 22.1454 89.4323 0.0000 0.0000 0.0000
# 4 0.0000 0.0000 0.0000 16.2550 0.0000 0.0000
# 5 0.0000 0.0000 0.0000 0.0000 24.0040 0.0000
# 6 0.0000 0.0000 0.0000 0.0000 0.0000 12.8229
#
#
#
# Elastic Compliance Matrix: (Units=1/GPa)
#
#
# Indices 1 2 3 4 5 6 
#
# 1 0.011435 -0.010026 -0.000888 0.000000 0.000000 0.000000
# 2 -0.010026 0.043323 -0.007772 0.000000 0.000000 0.000000
# 3 -0.000888 -0.007772 0.013368 0.000000 0.000000 0.000000
# 4 0.000000 0.000000 0.000000 0.061519 0.000000 0.000000
# 5 0.000000 0.000000 0.000000 0.000000 0.041660 0.000000
# 6 0.000000 0.000000 0.000000 0.000000 0.000000 0.077985
#
#
# Mechanical properties :
#
#
# Convention : Reuss Voigt Hill
#
# Bulk Modulus (GPa) = 32.51636 44.68865 38.60250
# Shear Modulus (GPa) = 16.83984 21.34484 19.09234
#
# Velocity S-wave (km/s) = 3.09795 3.48780 3.29864
# Velocity P-wave (km/s) = 5.59714 6.45666 6.04221
#
# Compressibility (1/GPa) = 0.03075375
#
# Stress axis : x y z
#
# Youngs Moduli (GPa) = 87.44780 23.08241 74.80488
#
# Poissons Ratio (x) = 0.23142 0.06645
# Poissons Ratio (y) = 0.87672 0.58141
# Poissons Ratio (z) = 0.07768 0.17941
#
# Static dielectric constant tensor:
#      x y z
#    x 1.592050 0.000000 0.000000 
#    y 0.000000 1.560700 0.000000 
#    z 0.000000 0.000000 1.627050 
# 
# From -- ./inp_files/30847.got.cif
#   From: 2010.05.17/outbox.cif.g08.bks.cpg/sg64_16_cif.got.tgz:30847.got - 2010.06.03 16:29:19.
