data_PCOD9477797
_publ_section_title
;
Structure prediction by ZEFSAII (Michael W. Deem and Ramdas Pophale) SiO2 
 PCOD9477797
Probable space group: C M C A
;
_chemical_formula_sum "Si O2"
_cell_formula_units_Z 88
_cell_length_a 19.802631
_cell_length_b 14.507094
_cell_length_c 13.455102
_cell_angle_alpha 90.000000
_cell_angle_beta 90.000000
_cell_angle_gamma 90.000000
_cell_volume 3865.363261
_symmetry_space_group_name_H-M "C M C A"
_symmetry_group_IT_number 64
_symmetry_cell_setting 'orthorhombic'
loop_
_space_group_symop_operation_xyz
x,y,z
-x,1/2-y,1/2+z
x,-y,-z
-x,1/2+y,1/2-z
-x,-y,-z
x,1/2+y,1/2-z
-x,y,z
x,1/2-y,1/2+z
1/2+x,1/2+y,z
1/2-x,-y,1/2+z
1/2+x,1/2-y,-z
1/2-x,y,1/2-z
1/2-x,1/2-y,-z
1/2+x,y,1/2-z
1/2-x,1/2+y,z
1/2+x,-y,1/2+z
loop_
_atom_site_type_symbol
_atom_site_label
_atom_site_fract_x
_atom_site_fract_y
_atom_site_fract_z
Si Si1 0.865568 0.073305 0.307529
Si Si2 0.080770 0.227585 0.977243
Si Si3 0.922800 0.600172 0.906772
Si Si4 0.079359 0.552605 0.397192
Si Si5 0.114858 0.229959 0.766535
Si Si6 0.750000 0.685096 0.250000
O O1 0.873990 0.030620 0.196600
O O2 0.911603 0.165896 0.292015
O O3 0.791248 0.116678 0.322555
O O4 0.886031 0.994954 0.383418
O O5 0.104329 0.329021 0.010500
O O6 0.089063 0.158782 0.069674
O O7 0.000000 0.228550 0.957519
O O8 0.117296 0.191646 0.878690
O O9 0.922858 0.662005 0.806128
O O10 0.000000 0.580304 0.931542
O O11 0.092690 0.500000 0.500000
O O12 0.000000 0.536136 0.371773
O O13 0.188524 0.249386 0.719153
#
# Coordination Sequence:
#
# PCOD9477797 Si02
#       6
#    16  16  16  16  16   8
#     4  10  21  40  58  82 120 161 199 242 296 352
#     4  10  20  34  57  91 122 152 197 249 307 366
#     4  11  22  36  62  94 120 155 197 249 315 359
#     4  10  19  34  57  87 121 154 199 251 299 360
#     4  10  21  41  60  82 123 159 199 247 295 351
#     4   8  22  42  58  78 116 164 204 238 282 350
#
# _framework density 22.766293000000001
#
# number of rings (size 3 to 8) (size 9 to 14) (size 15 to 20)
#    1.091    0.909    1.818    2.182    0.000    5.091 
#    0.000    7.273    0.000    0.000    0.000    0.000 
#    0.000    0.000    0.000    0.000    0.000    0.000 
#
# Total GULP energy -245106.916645 kJ/mol
# GULP energy per Si atom -5570.611742 kJ/mol
# Density = 2.271448 g / cm^3
# Si number density = 22.766293 Si / 1000 Ang^3
#
#
#
# Elastic Constant Matrix: (Units=GPa)
#
#
# Indices 1 2 3 4 5 6 
#
# 1 73.7926 12.6530 11.7894 0.0000 0.0000 0.0000
# 2 12.6530 102.1210 12.8665 0.0000 0.0000 0.0000
# 3 11.7894 12.8665 99.6507 0.0000 0.0000 0.0000
# 4 0.0000 0.0000 0.0000 50.0548 0.0000 0.0000
# 5 0.0000 0.0000 0.0000 0.0000 8.5311 0.0000
# 6 0.0000 0.0000 0.0000 0.0000 0.0000 27.8995
#
#
#
# Elastic Compliance Matrix: (Units=1/GPa)
#
#
# Indices 1 2 3 4 5 6 
#
# 1 0.014052 -0.001557 -0.001461 0.000000 0.000000 0.000000
# 2 -0.001557 0.010127 -0.001123 0.000000 0.000000 0.000000
# 3 -0.001461 -0.001123 0.010353 0.000000 0.000000 0.000000
# 4 0.000000 0.000000 0.000000 0.019978 0.000000 0.000000
# 5 0.000000 0.000000 0.000000 0.000000 0.117219 0.000000
# 6 0.000000 0.000000 0.000000 0.000000 0.000000 0.035843
#
#
# Mechanical properties :
#
#
# Convention : Reuss Voigt Hill
#
# Bulk Modulus (GPa) = 38.09767 38.90910 38.50339
# Shear Modulus (GPa) = 22.26137 33.18076 27.72107
#
# Velocity S-wave (km/s) = 3.13041 3.82180 3.49325
# Velocity P-wave (km/s) = 5.46228 6.05001 5.76364
#
# Compressibility (1/GPa) = 0.02624832
#
# Stress axis : x y z
#
# Youngs Moduli (GPa) = 71.16452 98.74838 96.59049
#
# Poissons Ratio (x) = 0.15374 0.14116
# Poissons Ratio (y) = 0.11080 0.10850
# Poissons Ratio (z) = 0.10400 0.11093
#
# Static dielectric constant tensor:
#      x y z
#    x 1.800150 0.000000 0.000000 
#    y 0.000000 1.971990 0.000000 
#    z 0.000000 0.000000 1.909100 
# 
# From -- ./inp_files/27294.got.cif
#   From: 2010.05.17/outbox.cif.g08.bks.cpg/sg64_14_cif.got.tgz:27294.got - 2010.06.03 16:29:19.
