data_PCOD9477010
_publ_section_title
;
Structure prediction by ZEFSAII (Michael W. Deem and Ramdas Pophale) SiO2 
 PCOD9477010
Probable space group: C M C A
;
_chemical_formula_sum "Si O2"
_cell_formula_units_Z 88
_cell_length_a 21.451576
_cell_length_b 17.995885
_cell_length_c 13.458596
_cell_angle_alpha 90.000000
_cell_angle_beta 90.000000
_cell_angle_gamma 90.000000
_cell_volume 5195.557675
_symmetry_space_group_name_H-M "C M C A"
_symmetry_group_IT_number 64
_symmetry_cell_setting 'orthorhombic'
loop_
_space_group_symop_operation_xyz
x,y,z
-x,1/2-y,1/2+z
x,-y,-z
-x,1/2+y,1/2-z
-x,-y,-z
x,1/2+y,1/2-z
-x,y,z
x,1/2-y,1/2+z
1/2+x,1/2+y,z
1/2-x,-y,1/2+z
1/2+x,1/2-y,-z
1/2-x,y,1/2-z
1/2-x,1/2-y,-z
1/2+x,y,1/2-z
1/2-x,1/2+y,z
1/2+x,-y,1/2+z
loop_
_atom_site_type_symbol
_atom_site_label
_atom_site_fract_x
_atom_site_fract_y
_atom_site_fract_z
Si Si1 0.871497 0.627862 0.854937
Si Si2 0.074292 0.166249 0.436180
Si Si3 0.425674 0.029734 0.209927
Si Si4 0.853772 0.475119 0.387893
Si Si5 0.927301 0.826357 0.158563
Si Si6 0.250000 0.917212 0.250000
O O1 0.895649 0.542807 0.842221
O O2 0.911328 0.675053 0.775585
O O3 0.800734 0.628482 0.814091
O O4 0.885078 0.652938 0.965833
O O5 0.087432 0.102913 0.354209
O O6 0.085679 0.247622 0.391574
O O7 0.000000 0.160224 0.460971
O O8 0.500000 0.019742 0.215000
O O9 0.396784 0.028805 0.320348
O O10 0.846032 0.500000 0.500000
O O11 0.886732 0.605808 0.616102
O O12 0.789509 0.465677 0.327813
O O13 0.000000 0.843793 0.145462
#
# Coordination Sequence:
#
# PCOD9477010 Si02
#       6
#    16  16  16  16  16   8
#     4  10  18  34  53  70 100 138 170 210 255 294
#     4  10  19  31  53  81 105 132 165 207 259 305
#     4   9  18  31  50  79 104 127 168 209 247 307
#     4  10  20  35  54  74 100 136 170 207 254 299
#     4   9  19  33  49  76 108 132 161 203 255 314
#     4   8  20  36  52  72  96 132 180 220 246 288
#
# _framework density 16.937546999999999
#
# number of rings (size 3 to 8) (size 9 to 14) (size 15 to 20)
#    0.000    2.909    0.000    3.818    0.000    7.273 
#    0.000    7.273    0.000   18.545    0.000    0.000 
#    0.000    0.000    0.000    0.000    0.000    0.000 
#
# Total GULP energy -245195.398536 kJ/mol
# GULP energy per Si atom -5572.622694 kJ/mol
# Density = 1.689900 g / cm^3
# Si number density = 16.937547 Si / 1000 Ang^3
#
#
#
# Elastic Constant Matrix: (Units=GPa)
#
#
# Indices 1 2 3 4 5 6 
#
# 1 92.6102 49.0430 62.6440 0.0000 0.0000 0.0000
# 2 49.0430 68.2024 73.5971 0.0000 0.0000 0.0000
# 3 62.6440 73.5971 148.4746 0.0000 0.0000 0.0000
# 4 0.0000 0.0000 0.0000 17.6258 0.0000 0.0000
# 5 0.0000 0.0000 0.0000 0.0000 24.5328 0.0000
# 6 0.0000 0.0000 0.0000 0.0000 0.0000 0.9348
#
#
#
# Elastic Compliance Matrix: (Units=1/GPa)
#
#
# Indices 1 2 3 4 5 6 
#
# 1 0.017865 -0.010132 -0.002515 0.000000 0.000000 0.000000
# 2 -0.010132 0.037271 -0.014200 0.000000 0.000000 0.000000
# 3 -0.002515 -0.014200 0.014835 0.000000 0.000000 0.000000
# 4 0.000000 0.000000 0.000000 0.056735 0.000000 0.000000
# 5 0.000000 0.000000 0.000000 0.000000 0.040762 0.000000
# 6 0.000000 0.000000 0.000000 0.000000 0.000000 1.069724
#
#
# Mechanical properties :
#
#
# Convention : Reuss Voigt Hill
#
# Bulk Modulus (GPa) = 61.43770 75.53947 68.48859
# Shear Modulus (GPa) = 3.85710 16.88555 10.37132
#
# Velocity S-wave (km/s) = 1.51069 3.16085 2.47721
# Velocity P-wave (km/s) = 6.27652 7.61688 6.97896
#
# Compressibility (1/GPa) = 0.01627665
#
# Stress axis : x y z
#
# Youngs Moduli (GPa) = 55.97568 26.83025 67.40796
#
# Poissons Ratio (x) = 0.27185 0.16953
# Poissons Ratio (y) = 0.56716 0.95719
# Poissons Ratio (z) = 0.14078 0.38099
#
# Static dielectric constant tensor:
#      x y z
#    x 1.586580 0.000000 0.000000 
#    y 0.000000 1.553910 0.000000 
#    z 0.000000 0.000000 1.571080 
# 
# From -- ./inp_files/17128.got.cif
#   From: 2010.05.17/outbox.cif.g08.bks.cpg/sg64_9_cif.got.tgz:17128.got - 2010.06.03 16:29:19.
