data_PCOD9477079
_publ_section_title
;
Structure prediction by ZEFSAII (Michael W. Deem and Ramdas Pophale) SiO2 
 PCOD9477079
Probable space group: C M C A
;
_chemical_formula_sum "Si O2"
_cell_formula_units_Z 96
_cell_length_a 19.191616
_cell_length_b 19.763422
_cell_length_c 11.817618
_cell_angle_alpha 90.000000
_cell_angle_beta 90.000000
_cell_angle_gamma 90.000000
_cell_volume 4482.328036
_symmetry_space_group_name_H-M "C M C A"
_symmetry_group_IT_number 64
_symmetry_cell_setting 'orthorhombic'
loop_
_space_group_symop_operation_xyz
x,y,z
-x,1/2-y,1/2+z
x,-y,-z
-x,1/2+y,1/2-z
-x,-y,-z
x,1/2+y,1/2-z
-x,y,z
x,1/2-y,1/2+z
1/2+x,1/2+y,z
1/2-x,-y,1/2+z
1/2+x,1/2-y,-z
1/2-x,y,1/2-z
1/2-x,1/2-y,-z
1/2+x,y,1/2-z
1/2-x,1/2+y,z
1/2+x,-y,1/2+z
loop_
_atom_site_type_symbol
_atom_site_label
_atom_site_fract_x
_atom_site_fract_y
_atom_site_fract_z
Si Si1 0.324644 0.404802 0.797989
Si Si2 0.832569 0.247210 0.256488
Si Si3 0.830772 0.275678 0.000595
Si Si4 0.417955 0.463342 0.233127
Si Si5 0.830658 0.426071 0.059924
Si Si6 0.321657 0.423934 0.048957
O O1 0.250000 0.429662 0.750000
O O2 0.338901 0.333550 0.742964
O O3 0.380775 0.463145 0.776357
O O4 0.320918 0.385410 0.930951
O O5 0.750000 0.265574 0.250000
O O6 0.859652 0.266964 0.130277
O O7 0.858706 0.262336 0.385826
O O8 0.837441 0.357582 0.987940
O O9 0.750000 0.250000 0.000000
O O10 0.500000 0.469410 0.227121
O O11 0.390330 0.430292 0.347560
O O12 0.385832 0.418789 0.132034
O O13 0.752503 0.417713 0.109930
O O14 0.831225 0.500000 0.000000
O O15 0.324380 0.500000 0.000000
#
# Coordination Sequence:
#
# PCOD9477079 Si02
#       6
#    16  16  16  16  16  16
#     4  10  18  35  59  82 115 156 200 254 312 369
#     4   9  18  32  53  83 117 151 194 248 305 362
#     4  10  20  33  56  89 125 158 198 252 310 373
#     4  11  23  35  52  84 123 162 204 251 310 380
#     4  11  21  37  60  89 123 158 202 262 323 372
#     4   9  18  31  53  79 112 155 198 248 304 363
#
# _framework density 21.417442000000001
#
# number of rings (size 3 to 8) (size 9 to 14) (size 15 to 20)
#    0.000    2.000    0.000    7.500    0.000    8.667 
#    0.000    0.000    0.000    1.000    0.000    3.500 
#    0.000    0.000    0.000    0.000    0.000    0.000 
#
# Total GULP energy -267207.299547 kJ/mol
# GULP energy per Si atom -5566.818741 kJ/mol
# Density = 2.136869 g / cm^3
# Si number density = 21.417442 Si / 1000 Ang^3
#
#
#
# Elastic Constant Matrix: (Units=GPa)
#
#
# Indices 1 2 3 4 5 6 
#
# 1 115.3688 23.6841 47.5582 0.0000 0.0000 0.0000
# 2 23.6841 94.1680 33.5316 0.0000 0.0000 0.0000
# 3 47.5582 33.5316 178.5759 0.0000 0.0000 0.0000
# 4 0.0000 0.0000 0.0000 33.0478 0.0000 0.0000
# 5 0.0000 0.0000 0.0000 0.0000 93.8892 0.0000
# 6 0.0000 0.0000 0.0000 0.0000 0.0000 0.1050
#
#
#
# Elastic Compliance Matrix: (Units=1/GPa)
#
#
# Indices 1 2 3 4 5 6 
#
# 1 0.009977 -0.001675 -0.002343 0.000000 0.000000 0.000000
# 2 -0.001675 0.011662 -0.001744 0.000000 0.000000 0.000000
# 3 -0.002343 -0.001744 0.006551 0.000000 0.000000 0.000000
# 4 0.000000 0.000000 0.000000 0.030259 0.000000 0.000000
# 5 0.000000 0.000000 0.000000 0.000000 0.010651 0.000000
# 6 0.000000 0.000000 0.000000 0.000000 0.000000 9.527490
#
#
# Mechanical properties :
#
#
# Convention : Reuss Voigt Hill
#
# Bulk Modulus (GPa) = 59.99795 66.40674 63.20235
# Shear Modulus (GPa) = 0.52009 44.29764 22.40886
#
# Velocity S-wave (km/s) = 0.49332 4.55279 3.23815
# Velocity P-wave (km/s) = 5.32906 7.66227 6.59959
#
# Compressibility (1/GPa) = 0.01666724
#
# Stress axis : x y z
#
# Youngs Moduli (GPa) = 100.22588 85.75218 152.64519
#
# Poissons Ratio (x) = 0.14366 0.35759
# Poissons Ratio (y) = 0.16790 0.26615
# Poissons Ratio (z) = 0.23479 0.14951
#
# Static dielectric constant tensor:
#      x y z
#    x 1.693970 0.000000 0.000000 
#    y 0.000000 1.795370 0.000000 
#    z 0.000000 0.000000 1.953980 
# 
# From -- ./inp_files/16178.got.cif
#   From: 2010.05.17/outbox.cif.g08.bks.cpg/sg64_9_cif.got.tgz:16178.got - 2010.06.03 16:29:19.
