data_PCOD9477530
_publ_section_title
;
Structure prediction by ZEFSAII (Michael W. Deem and Ramdas Pophale) SiO2 
 PCOD9477530
Probable space group: C M C A
;
_chemical_formula_sum "Si O2"
_cell_formula_units_Z 116
_cell_length_a 26.452157
_cell_length_b 27.133099
_cell_length_c 9.673175
_cell_angle_alpha 90.000000
_cell_angle_beta 90.000000
_cell_angle_gamma 90.000000
_cell_volume 6942.718168
_symmetry_space_group_name_H-M "C M C A"
_symmetry_group_IT_number 64
_symmetry_cell_setting 'orthorhombic'
loop_
_space_group_symop_operation_xyz
x,y,z
-x,1/2-y,1/2+z
x,-y,-z
-x,1/2+y,1/2-z
-x,-y,-z
x,1/2+y,1/2-z
-x,y,z
x,1/2-y,1/2+z
1/2+x,1/2+y,z
1/2-x,-y,1/2+z
1/2+x,1/2-y,-z
1/2-x,y,1/2-z
1/2-x,1/2-y,-z
1/2+x,y,1/2-z
1/2-x,1/2+y,z
1/2+x,-y,1/2+z
loop_
_atom_site_type_symbol
_atom_site_label
_atom_site_fract_x
_atom_site_fract_y
_atom_site_fract_z
Si Si1 0.441695 0.288095 0.710053
Si Si2 0.441380 0.964173 0.626042
Si Si3 0.057076 0.646680 0.485729
Si Si4 0.866488 0.344743 0.983507
Si Si5 0.602619 0.045131 0.076799
Si Si6 0.785996 0.732484 0.122382
Si Si7 0.373876 0.806868 0.289418
Si Si8 0.500000 0.500000 0.500000
O O1 0.500000 0.281005 0.676327
O O2 0.437311 0.319334 0.850708
O O3 0.414046 0.317224 0.587349
O O4 0.414229 0.236664 0.734738
O O5 0.500000 0.976077 0.669514
O O6 0.440413 0.909156 0.567124
O O7 0.407035 0.966648 0.761701
O O8 0.428047 0.000000 0.500000
O O9 0.100751 0.659414 0.593539
O O10 0.000000 0.654643 0.542879
O O11 0.871964 0.402163 0.946215
O O12 0.819025 0.314916 0.920508
O O13 0.865501 0.335785 0.147470
O O14 0.630477 0.000000 0.000000
O O15 0.545755 0.041937 0.011993
O O16 0.750000 0.720763 0.250000
O O17 0.824119 0.777243 0.161244
O O18 0.750000 0.750000 0.000000
#
# Coordination Sequence:
#
# PCOD9477530 Si02
#       8
#    16  16  16  16  16  16  16   4
#     4  10  20  34  51  74 119 163 195 232 282 346
#     4  10  19  33  50  74 110 157 204 242 274 321
#     4  10  21  34  51  77 118 159 197 235 284 348
#     4  11  23  36  60  86 115 156 194 248 296 356
#     4  10  20  36  56  83 116 155 201 237 285 343
#     4  11  23  43  65  88 115 148 196 252 312 367
#     4  11  23  36  53  88 116 148 197 241 295 360
#     4   8  20  32  58  80 124 164 198 236 280 344
#
# _framework density 16.708152999999999
#
# number of rings (size 3 to 8) (size 9 to 14) (size 15 to 20)
#    0.414    1.241    3.448    2.069    4.828    2.207 
#    2.483    0.000    0.000    0.000    3.586    0.000 
#    0.000    0.000    0.000    0.000    0.000    0.000 
#
# Total GULP energy -322948.633602 kJ/mol
# GULP energy per Si atom -5568.079890 kJ/mol
# Density = 1.667012 g / cm^3
# Si number density = 16.708153 Si / 1000 Ang^3
#
#
#
# Elastic Constant Matrix: (Units=GPa)
#
#
# Indices 1 2 3 4 5 6 
#
# 1 91.7181 29.2907 55.8251 0.0000 0.0000 0.0000
# 2 29.2907 90.0134 58.7966 0.0000 0.0000 0.0000
# 3 55.8251 58.7966 105.8701 0.0000 0.0000 0.0000
# 4 0.0000 0.0000 0.0000 20.1336 0.0000 0.0000
# 5 0.0000 0.0000 0.0000 0.0000 27.4239 0.0000
# 6 0.0000 0.0000 0.0000 0.0000 0.0000 20.1000
#
#
#
# Elastic Compliance Matrix: (Units=1/GPa)
#
#
# Indices 1 2 3 4 5 6 
#
# 1 0.016069 0.000480 -0.008740 0.000000 0.000000 0.000000
# 2 0.000480 0.017448 -0.009943 0.000000 0.000000 0.000000
# 3 -0.008740 -0.009943 0.019576 0.000000 0.000000 0.000000
# 4 0.000000 0.000000 0.000000 0.049668 0.000000 0.000000
# 5 0.000000 0.000000 0.000000 0.000000 0.036464 0.000000
# 6 0.000000 0.000000 0.000000 0.000000 0.000000 0.049751
#
#
# Mechanical properties :
#
#
# Convention : Reuss Voigt Hill
#
# Bulk Modulus (GPa) = 59.92562 63.93627 61.93095
# Shear Modulus (GPa) = 21.65009 23.11080 22.38045
#
# Velocity S-wave (km/s) = 3.60360 3.72318 3.66388
# Velocity P-wave (km/s) = 7.29784 7.53872 7.41926
#
# Compressibility (1/GPa) = 0.01668735
#
# Stress axis : x y z
#
# Youngs Moduli (GPa) = 62.23056 57.31268 51.08283
#
# Poissons Ratio (x) = -0.02750 0.44645
# Poissons Ratio (y) = -0.02986 0.50792
# Poissons Ratio (z) = 0.54388 0.56987
#
# Static dielectric constant tensor:
#      x y z
#    x 1.549370 0.000000 0.000000 
#    y 0.000000 1.522950 0.000000 
#    z 0.000000 0.000000 1.591720 
# 
# From -- ./inp_files/10750.got.cif
#   From: 2010.05.17/outbox.cif.g08.bks.cpg/sg64_6_cif.got.tgz:10750.got - 2010.06.03 16:29:19.
