data_PCOD9477383
_publ_section_title
;
Structure prediction by ZEFSAII (Michael W. Deem and Ramdas Pophale) SiO2 
 PCOD9477383
Probable space group: C M C A
;
_chemical_formula_sum "Si O2"
_cell_formula_units_Z 80
_cell_length_a 32.180657
_cell_length_b 27.326026
_cell_length_c 5.097197
_cell_angle_alpha 90.000000
_cell_angle_beta 90.000000
_cell_angle_gamma 90.000000
_cell_volume 4482.319424
_symmetry_space_group_name_H-M "C M C A"
_symmetry_group_IT_number 64
_symmetry_cell_setting 'orthorhombic'
loop_
_space_group_symop_operation_xyz
x,y,z
-x,1/2-y,1/2+z
x,-y,-z
-x,1/2+y,1/2-z
-x,-y,-z
x,1/2+y,1/2-z
-x,y,z
x,1/2-y,1/2+z
1/2+x,1/2+y,z
1/2-x,-y,1/2+z
1/2+x,1/2-y,-z
1/2-x,y,1/2-z
1/2-x,1/2-y,-z
1/2+x,y,1/2-z
1/2-x,1/2+y,z
1/2+x,-y,1/2+z
loop_
_atom_site_type_symbol
_atom_site_label
_atom_site_fract_x
_atom_site_fract_y
_atom_site_fract_z
Si Si1 0.750000 0.965526 0.750000
Si Si2 0.583851 0.881086 0.587305
Si Si3 0.452051 0.928737 0.110776
Si Si4 0.451978 0.717091 0.259029
Si Si5 0.609589 0.000000 0.000000
Si Si6 0.160590 0.445417 0.632923
O O1 0.790748 0.935618 0.836176
O O2 0.760969 0.000000 0.500000
O O3 0.557904 0.886847 0.320354
O O4 0.579692 0.826093 0.690349
O O5 0.629903 0.903199 0.531843
O O6 0.562171 0.912876 0.819506
O O7 0.500000 0.941354 0.113467
O O8 0.422931 0.974261 0.195260
O O9 0.500000 0.698480 0.236393
O O10 0.447157 0.739850 0.546168
O O11 0.640200 0.957342 0.912994
O O12 0.157522 0.500000 0.500000
#
# Coordination Sequence:
#
# PCOD9477383 Si02
#       6
#     8  16  16  16   8  16
#     4  10  20  32  56  74 102 136 172 206 254 302
#     4  11  22  34  54  74 103 135 174 218 257 302
#     4  11  21  32  47  69 102 140 177 205 245 294
#     4  10  20  35  53  73  97 129 173 219 260 298
#     4  10  19  32  44  70 102 144 168 210 237 290
#     4  10  19  35  50  77 106 136 168 210 254 305
#
# _framework density 17.847902999999999
#
# number of rings (size 3 to 8) (size 9 to 14) (size 15 to 20)
#    0.000    1.600    3.000    3.300    0.000    1.600 
#    0.000    3.000    0.000    0.000    0.000    1.400 
#    0.000    0.000    0.000    0.000    0.000    0.000 
#
# Total GULP energy -222783.700214 kJ/mol
# GULP energy per Si atom -5569.592505 kJ/mol
# Density = 1.780728 g / cm^3
# Si number density = 17.847903 Si / 1000 Ang^3
#
#
#
# Elastic Constant Matrix: (Units=GPa)
#
#
# Indices 1 2 3 4 5 6 
#
# 1 141.5320 26.7515 1.3428 0.0000 0.0000 0.0000
# 2 26.7515 50.1598 -11.3694 0.0000 0.0000 0.0000
# 3 1.3428 -11.3694 52.6832 0.0000 0.0000 0.0000
# 4 0.0000 0.0000 0.0000 19.1843 0.0000 0.0000
# 5 0.0000 0.0000 0.0000 0.0000 16.8556 0.0000
# 6 0.0000 0.0000 0.0000 0.0000 0.0000 17.7671
#
#
#
# Elastic Compliance Matrix: (Units=1/GPa)
#
#
# Indices 1 2 3 4 5 6 
#
# 1 0.007926 -0.004493 -0.001172 0.000000 0.000000 0.000000
# 2 -0.004493 0.023508 0.005188 0.000000 0.000000 0.000000
# 3 -0.001172 0.005188 0.020131 0.000000 0.000000 0.000000
# 4 0.000000 0.000000 0.000000 0.052126 0.000000 0.000000
# 5 0.000000 0.000000 0.000000 0.000000 0.059328 0.000000
# 6 0.000000 0.000000 0.000000 0.000000 0.000000 0.056284
#
#
# Mechanical properties :
#
#
# Convention : Reuss Voigt Hill
#
# Bulk Modulus (GPa) = 19.75814 30.86941 25.31378
# Shear Modulus (GPa) = 21.08584 25.93805 23.51195
#
# Velocity S-wave (km/s) = 3.44091 3.81633 3.63347
# Velocity P-wave (km/s) = 5.18467 6.06239 5.64062
#
# Compressibility (1/GPa) = 0.05061204
#
# Stress axis : x y z
#
# Youngs Moduli (GPa) = 126.16990 42.53835 49.67512
#
# Poissons Ratio (x) = 0.19111 0.05820
# Poissons Ratio (y) = 0.56683 -0.25770
# Poissons Ratio (z) = 0.14781 -0.22068
#
# Static dielectric constant tensor:
#      x y z
#    x 1.614510 0.000000 0.000000 
#    y 0.000000 1.668090 0.000000 
#    z 0.000000 0.000000 1.720070 
# 
# From -- ./inp_files/3278.got.cif
#   From: 2010.05.17/outbox.cif.g08.bks.cpg/sg64_2_cif.got.tgz:3278.got - 2010.06.03 16:29:19.
