data_PCOD9477612
_publ_section_title
;
Structure prediction by ZEFSAII (Michael W. Deem and Ramdas Pophale) SiO2 
 PCOD9477612
Probable space group: C M C A
;
_chemical_formula_sum "Si O2"
_cell_formula_units_Z 96
_cell_length_a 22.117490
_cell_length_b 15.853915
_cell_length_c 12.834597
_cell_angle_alpha 90.000000
_cell_angle_beta 90.000000
_cell_angle_gamma 90.000000
_cell_volume 4500.436120
_symmetry_space_group_name_H-M "C M C A"
_symmetry_group_IT_number 64
_symmetry_cell_setting 'orthorhombic'
loop_
_space_group_symop_operation_xyz
x,y,z
-x,1/2-y,1/2+z
x,-y,-z
-x,1/2+y,1/2-z
-x,-y,-z
x,1/2+y,1/2-z
-x,y,z
x,1/2-y,1/2+z
1/2+x,1/2+y,z
1/2-x,-y,1/2+z
1/2+x,1/2-y,-z
1/2-x,y,1/2-z
1/2-x,1/2-y,-z
1/2+x,y,1/2-z
1/2-x,1/2+y,z
1/2+x,-y,1/2+z
loop_
_atom_site_type_symbol
_atom_site_label
_atom_site_fract_x
_atom_site_fract_y
_atom_site_fract_z
Si Si1 0.250161 0.902637 0.042675
Si Si2 0.119183 0.929790 0.083325
Si Si3 0.430663 0.113989 0.922489
Si Si4 0.835793 0.514713 0.805438
Si Si5 0.657167 0.162558 0.106262
Si Si6 0.432709 0.215304 0.708026
O O1 0.179425 0.882773 0.042164
O O2 0.285708 0.919170 0.151556
O O3 0.286341 0.835547 0.973267
O O4 0.254674 0.000000 0.000000
O O5 0.071452 0.862954 0.126639
O O6 0.145745 0.973472 0.186961
O O7 0.099135 0.000000 0.000000
O O8 0.500000 0.094760 0.942042
O O9 0.427762 0.179697 0.825544
O O10 0.393375 0.035167 0.878267
O O11 0.397547 0.145892 0.025037
O O12 0.822663 0.417551 0.824938
O O13 0.626830 0.230678 0.181647
O O14 0.500000 0.254948 0.697684
#
# Coordination Sequence:
#
# PCOD9477612 Si02
#       6
#    16  16  16  16  16  16
#     4   8  16  32  55  80 103 133 176 225 271 324
#     4  10  20  35  55  76 106 147 185 223 277 339
#     4   9  18  33  51  73 103 139 180 225 271 322
#     4   9  18  32  53  79 103 133 176 227 277 330
#     4  10  19  33  55  80 107 139 180 228 285 337
#     4  10  22  36  50  76 112 145 182 231 280 326
#
# _framework density 21.331267
#
# number of rings (size 3 to 8) (size 9 to 14) (size 15 to 20)
#    0.000    2.667    0.000    2.500    0.000    4.333 
#    0.000    0.000    0.000   18.000    0.000    0.000 
#    0.000    0.000    0.000    0.000    0.000    0.000 
#
# Total GULP energy -267312.149081 kJ/mol
# GULP energy per Si atom -5569.003106 kJ/mol
# Density = 2.128272 g / cm^3
# Si number density = 21.331267 Si / 1000 Ang^3
#
#
#
# Elastic Constant Matrix: (Units=GPa)
#
#
# Indices 1 2 3 4 5 6 
#
# 1 73.4505 0.1524 -11.7876 0.0000 0.0000 0.0000
# 2 0.1524 34.8992 -4.8046 0.0000 0.0000 0.0000
# 3 -11.7876 -4.8046 40.1344 0.0000 0.0000 0.0000
# 4 0.0000 0.0000 0.0000 17.9000 0.0000 0.0000
# 5 0.0000 0.0000 0.0000 0.0000 22.3302 0.0000
# 6 0.0000 0.0000 0.0000 0.0000 0.0000 11.1643
#
#
#
# Elastic Compliance Matrix: (Units=1/GPa)
#
#
# Indices 1 2 3 4 5 6 
#
# 1 0.014298 0.000524 0.004262 0.000000 0.000000 0.000000
# 2 0.000524 0.029153 0.003644 0.000000 0.000000 0.000000
# 3 0.004262 0.003644 0.026604 0.000000 0.000000 0.000000
# 4 0.000000 0.000000 0.000000 0.055866 0.000000 0.000000
# 5 0.000000 0.000000 0.000000 0.000000 0.044782 0.000000
# 6 0.000000 0.000000 0.000000 0.000000 0.000000 0.089571
#
#
# Mechanical properties :
#
#
# Convention : Reuss Voigt Hill
#
# Bulk Modulus (GPa) = 11.50538 12.84494 12.17516
# Shear Modulus (GPa) = 18.35633 21.27385 19.81509
#
# Velocity S-wave (km/s) = 2.93667 3.16144 3.05113
# Velocity P-wave (km/s) = 4.11146 4.40012 4.25824
#
# Compressibility (1/GPa) = 0.08691585
#
# Stress axis : x y z
#
# Youngs Moduli (GPa) = 69.94227 34.30139 37.58793
#
# Poissons Ratio (x) = -0.01798 -0.16020
# Poissons Ratio (y) = -0.03667 -0.13697
# Poissons Ratio (z) = -0.29809 -0.12500
#
# Static dielectric constant tensor:
#      x y z
#    x 1.807520 0.000000 0.000000 
#    y 0.000000 1.808830 0.000000 
#    z 0.000000 0.000000 1.797800 
# 
# From -- ./inp_files/18346.got.cif
#   From: 2010.05.17/outbox.cif.g08.bks.cpg/sg64_10_cif.got.tgz:18346.got - 2010.06.03 16:29:19.
