data_PCOD9477171
_publ_section_title
;
Structure prediction by ZEFSAII (Michael W. Deem and Ramdas Pophale) SiO2 
 PCOD9477171
Probable space group: C M C A
;
_chemical_formula_sum "Si O2"
_cell_formula_units_Z 68
_cell_length_a 18.187718
_cell_length_b 9.100429
_cell_length_c 14.292066
_cell_angle_alpha 90.000000
_cell_angle_beta 90.000000
_cell_angle_gamma 90.000000
_cell_volume 2365.566115
_symmetry_space_group_name_H-M "C M C A"
_symmetry_group_IT_number 64
_symmetry_cell_setting 'orthorhombic'
loop_
_space_group_symop_operation_xyz
x,y,z
-x,1/2-y,1/2+z
x,-y,-z
-x,1/2+y,1/2-z
-x,-y,-z
x,1/2+y,1/2-z
-x,y,z
x,1/2-y,1/2+z
1/2+x,1/2+y,z
1/2-x,-y,1/2+z
1/2+x,1/2-y,-z
1/2-x,y,1/2-z
1/2-x,1/2-y,-z
1/2+x,y,1/2-z
1/2-x,1/2+y,z
1/2+x,-y,1/2+z
loop_
_atom_site_type_symbol
_atom_site_label
_atom_site_fract_x
_atom_site_fract_y
_atom_site_fract_z
Si Si1 0.000000 0.664610 0.374495
Si Si2 0.837785 0.177556 0.056566
Si Si3 0.500000 0.000000 0.000000
Si Si4 0.280102 0.966004 0.154318
Si Si5 0.887432 0.297352 0.876588
Si Si6 0.500000 0.891796 0.260753
O O1 0.923084 0.633290 0.424130
O O2 0.000000 0.563266 0.281715
O O3 0.000000 0.838075 0.346853
O O4 0.779768 0.062908 0.098096
O O5 0.820634 0.335753 0.100933
O O6 0.835093 0.206186 0.945862
O O7 0.437097 0.895129 0.946482
O O8 0.250000 0.901430 0.250000
O O9 0.341097 0.087633 0.182809
O O10 0.931419 0.184123 0.812360
#
# Coordination Sequence:
#
# PCOD9477171 Si02
#       6
#     8  16   4  16  16   8
#     4  12  30  51  81 118 158 210 273 337 410 483
#     4  12  28  49  81 114 160 212 273 336 401 488
#     4  10  18  42  76 116 144 208 270 332 392 468
#     4  12  27  48  76 116 163 211 264 333 409 481
#     4  11  24  47  81 114 159 212 273 332 407 476
#     4  11  29  49  82 116 159 205 267 339 404 487
#
# _framework density 28.745760000000001
#
# number of rings (size 3 to 8) (size 9 to 14) (size 15 to 20)
#    0.000    0.471    2.353    4.235    9.882    1.882 
#    0.000    0.000    0.000    0.000    0.000    0.000 
#    0.000    0.000    0.000    0.000    0.000    0.000 
#
# Total GULP energy -190770.368575 kJ/mol
# GULP energy per Si atom -5610.893193 kJ/mol
# Density = 2.868033 g / cm^3
# Si number density = 28.745760 Si / 1000 Ang^3
#
#
#
# Elastic Constant Matrix: (Units=GPa)
#
#
# Indices 1 2 3 4 5 6 
#
# 1 161.9335 51.4459 20.3251 0.0000 0.0000 0.0000
# 2 51.4459 168.4320 7.6187 0.0000 0.0000 0.0000
# 3 20.3251 7.6187 72.2032 0.0000 0.0000 0.0000
# 4 0.0000 0.0000 0.0000 42.5149 0.0000 0.0000
# 5 0.0000 0.0000 0.0000 0.0000 55.5904 0.0000
# 6 0.0000 0.0000 0.0000 0.0000 0.0000 44.4624
#
#
#
# Elastic Compliance Matrix: (Units=1/GPa)
#
#
# Indices 1 2 3 4 5 6 
#
# 1 0.007057 -0.002075 -0.001767 0.000000 0.000000 0.000000
# 2 -0.002075 0.006576 -0.000110 0.000000 0.000000 0.000000
# 3 -0.001767 -0.000110 0.014359 0.000000 0.000000 0.000000
# 4 0.000000 0.000000 0.000000 0.023521 0.000000 0.000000
# 5 0.000000 0.000000 0.000000 0.000000 0.017989 0.000000
# 6 0.000000 0.000000 0.000000 0.000000 0.000000 0.022491
#
#
# Mechanical properties :
#
#
# Convention : Reuss Voigt Hill
#
# Bulk Modulus (GPa) = 49.78474 62.37201 56.07837
# Shear Modulus (GPa) = 46.90753 50.05882 48.48318
#
# Velocity S-wave (km/s) = 4.04395 4.17758 4.11130
# Velocity P-wave (km/s) = 6.25789 6.70928 6.48751
#
# Compressibility (1/GPa) = 0.02008648
#
# Stress axis : x y z
#
# Youngs Moduli (GPa) = 141.71203 152.06844 69.64321
#
# Poissons Ratio (x) = 0.31560 0.12309
# Poissons Ratio (y) = 0.29411 0.00764
# Poissons Ratio (z) = 0.25046 0.01668
#
# Static dielectric constant tensor:
#      x y z
#    x 2.249610 0.000000 0.000000 
#    y 0.000000 2.152940 0.000000 
#    z 0.000000 0.000000 2.338980 
# 
# From -- ./inp_files/33964.got.cif
#   From: 2010.05.17/outbox.cif.g08.bks.cpg/sg64_17_cif.got.tgz:33964.got - 2010.06.03 16:29:19.
