data_PCOD9477481
_publ_section_title
;
Structure prediction by ZEFSAII (Michael W. Deem and Ramdas Pophale) SiO2 
 PCOD9477481
Probable space group: C M C A
;
_chemical_formula_sum "Si O2"
_cell_formula_units_Z 96
_cell_length_a 22.766103
_cell_length_b 8.552749
_cell_length_c 26.521846
_cell_angle_alpha 90.000000
_cell_angle_beta 90.000000
_cell_angle_gamma 90.000000
_cell_volume 5164.141959
_symmetry_space_group_name_H-M "C M C A"
_symmetry_group_IT_number 64
_symmetry_cell_setting 'orthorhombic'
loop_
_space_group_symop_operation_xyz
x,y,z
-x,1/2-y,1/2+z
x,-y,-z
-x,1/2+y,1/2-z
-x,-y,-z
x,1/2+y,1/2-z
-x,y,z
x,1/2-y,1/2+z
1/2+x,1/2+y,z
1/2-x,-y,1/2+z
1/2+x,1/2-y,-z
1/2-x,y,1/2-z
1/2-x,1/2-y,-z
1/2+x,y,1/2-z
1/2-x,1/2+y,z
1/2+x,-y,1/2+z
loop_
_atom_site_type_symbol
_atom_site_label
_atom_site_fract_x
_atom_site_fract_y
_atom_site_fract_z
Si Si1 0.661965 0.290989 0.413918
Si Si2 0.385379 0.078731 0.235661
Si Si3 0.699121 0.669270 0.786471
Si Si4 0.066983 0.198346 0.675245
Si Si5 0.186028 0.817508 0.013779
Si Si6 0.275467 0.458249 0.106626
O O1 0.610897 0.302937 0.372569
O O2 0.644435 0.267326 0.472961
O O3 0.708534 0.433422 0.411807
O O4 0.698509 0.132078 0.399400
O O5 0.335824 0.963675 0.256908
O O6 0.427883 0.968411 0.203769
O O7 0.349819 0.201605 0.201895
O O8 0.413414 0.172575 0.282798
O O9 0.750000 0.732605 0.750000
O O10 0.725155 0.594511 0.836089
O O11 0.000000 0.228339 0.660105
O O12 0.250000 0.750000 0.000000
O O13 0.184591 0.835412 0.074078
O O14 0.184890 0.000000 0.000000
#
# Coordination Sequence:
#
# PCOD9477481 Si02
#       6
#    16  16  16  16  16  16
#     4  10  20  33  54  82 106 142 179 223 273 323
#     4  10  22  36  50  77 104 143 186 214 263 327
#     4  11  21  31  51  80 116 140 167 216 280 333
#     4  11  22  39  56  75 106 146 192 225 259 316
#     4   8  16  31  49  74 107 135 175 210 263 329
#     4  10  19  32  53  80 114 140 168 222 279 335
#
# _framework density 18.589728999999998
#
# number of rings (size 3 to 8) (size 9 to 14) (size 15 to 20)
#    0.000    2.000    1.667    3.000    4.667    0.000 
#    0.000    0.000    0.000    4.500    0.000    1.167 
#    0.000    0.000    0.000    0.000    0.000    0.000 
#
# Total GULP energy -267353.058205 kJ/mol
# GULP energy per Si atom -5569.855379 kJ/mol
# Density = 1.854742 g / cm^3
# Si number density = 18.589729 Si / 1000 Ang^3
#
#
#
# Elastic Constant Matrix: (Units=GPa)
#
#
# Indices 1 2 3 4 5 6 
#
# 1 76.8943 14.1050 16.8673 0.0000 0.0000 0.0000
# 2 14.1050 48.4535 -9.3969 0.0000 0.0000 0.0000
# 3 16.8673 -9.3969 67.9503 0.0000 0.0000 0.0000
# 4 0.0000 0.0000 0.0000 5.8748 0.0000 0.0000
# 5 0.0000 0.0000 0.0000 0.0000 13.5800 0.0000
# 6 0.0000 0.0000 0.0000 0.0000 0.0000 13.4760
#
#
#
# Elastic Compliance Matrix: (Units=1/GPa)
#
#
# Indices 1 2 3 4 5 6 
#
# 1 0.014930 -0.005205 -0.004426 0.000000 0.000000 0.000000
# 2 -0.005205 0.023021 0.004476 0.000000 0.000000 0.000000
# 3 -0.004426 0.004476 0.016434 0.000000 0.000000 0.000000
# 4 0.000000 0.000000 0.000000 0.170218 0.000000 0.000000
# 5 0.000000 0.000000 0.000000 0.000000 0.073638 0.000000
# 6 0.000000 0.000000 0.000000 0.000000 0.000000 0.074206
#
#
# Mechanical properties :
#
#
# Convention : Reuss Voigt Hill
#
# Bulk Modulus (GPa) = 22.68806 26.27212 24.48009
# Shear Modulus (GPa) = 12.58021 18.03434 15.30728
#
# Velocity S-wave (km/s) = 2.60422 3.11806 2.87265
# Velocity P-wave (km/s) = 4.61235 5.20830 4.91936
#
# Compressibility (1/GPa) = 0.04407605
#
# Stress axis : x y z
#
# Youngs Moduli (GPa) = 66.97730 43.43786 60.84864
#
# Poissons Ratio (x) = 0.22608 0.26931
# Poissons Ratio (y) = 0.34859 -0.27233
# Poissons Ratio (z) = 0.29644 -0.19441
#
# Static dielectric constant tensor:
#      x y z
#    x 1.624820 0.000000 0.000000 
#    y 0.000000 1.693160 0.000000 
#    z 0.000000 0.000000 1.769760 
# 
# From -- ./inp_files/46598.got.cif
#   From: 2010.05.17/outbox.cif.g08.bks.cpg/sg64_24_cif.got.tgz:46598.got - 2010.06.03 16:29:19.
