data_PCOD9477154
_publ_section_title
;
Structure prediction by ZEFSAII (Michael W. Deem and Ramdas Pophale) SiO2 
 PCOD9477154
Probable space group: C M C A
;
_chemical_formula_sum "Si O2"
_cell_formula_units_Z 64
_cell_length_a 18.256144
_cell_length_b 13.059628
_cell_length_c 13.390750
_cell_angle_alpha 90.000000
_cell_angle_beta 90.000000
_cell_angle_gamma 90.000000
_cell_volume 3192.601851
_symmetry_space_group_name_H-M "C M C A"
_symmetry_group_IT_number 64
_symmetry_cell_setting 'orthorhombic'
loop_
_space_group_symop_operation_xyz
x,y,z
-x,1/2-y,1/2+z
x,-y,-z
-x,1/2+y,1/2-z
-x,-y,-z
x,1/2+y,1/2-z
-x,y,z
x,1/2-y,1/2+z
1/2+x,1/2+y,z
1/2-x,-y,1/2+z
1/2+x,1/2-y,-z
1/2-x,y,1/2-z
1/2-x,1/2-y,-z
1/2+x,y,1/2-z
1/2-x,1/2+y,z
1/2+x,-y,1/2+z
loop_
_atom_site_type_symbol
_atom_site_label
_atom_site_fract_x
_atom_site_fract_y
_atom_site_fract_z
Si Si1 0.500000 0.378417 0.988973
Si Si2 0.500000 0.248995 0.688892
Si Si3 0.750000 0.422236 0.750000
Si Si4 0.500000 0.979810 0.881889
Si Si5 0.625080 0.781110 0.650855
Si Si6 0.847161 0.945221 0.392803
O O1 0.428648 0.338338 0.927586
O O2 0.500000 0.500000 0.000000
O O3 0.500000 0.331211 0.099621
O O4 0.500000 0.360422 0.637628
O O5 0.428459 0.247230 0.758692
O O6 0.688835 0.352027 0.804015
O O7 0.786630 0.497587 0.829486
O O8 0.574146 0.029195 0.842617
O O9 0.500000 0.000000 0.000000
O O10 0.657869 0.677252 0.602918
O O11 0.846969 0.000000 0.500000
#
# Coordination Sequence:
#
# PCOD9477154 Si02
#       6
#     8   8   8   8  16  16
#     4  11  26  45  73 104 138 174 233 305 346 386
#     4  11  22  45  72  98 137 176 231 304 330 406
#     4  12  26  44  68 104 148 182 220 282 348 424
#     4  10  18  38  73  94 117 172 235 271 328 396
#     4  11  26  44  69 107 133 183 238 276 351 414
#     4  11  24  45  72  96 135 186 230 282 338 420
#
# _framework density 20.046346
#
# number of rings (size 3 to 8) (size 9 to 14) (size 15 to 20)
#    0.000    1.000    2.500    5.250    3.500    2.000 
#    0.000    0.000    0.000    0.000    0.000    0.000 
#    0.000    0.000    0.000    0.000    0.000    0.000 
#
# Total GULP energy -178859.644932 kJ/mol
# GULP energy per Si atom -5589.363904 kJ/mol
# Density = 2.000072 g / cm^3
# Si number density = 20.046346 Si / 1000 Ang^3
#
#
#
# Elastic Constant Matrix: (Units=GPa)
#
#
# Indices 1 2 3 4 5 6 
#
# 1 136.4710 60.5140 61.4394 0.0000 0.0000 0.0000
# 2 60.5140 201.7702 75.8692 0.0000 0.0000 0.0000
# 3 61.4394 75.8692 121.9715 0.0000 0.0000 0.0000
# 4 0.0000 0.0000 0.0000 38.7500 0.0000 0.0000
# 5 0.0000 0.0000 0.0000 0.000018394.2255 0.0000
# 6 0.0000 0.0000 0.0000 0.0000 0.0000 -67.8771
#
#
#
# Elastic Compliance Matrix: (Units=1/GPa)
#
#
# Indices 1 2 3 4 5 6 
#
# 1 0.009775 -0.001410 -0.004047 0.000000 0.000000 0.000000
# 2 -0.001410 0.006673 -0.003440 0.000000 0.000000 0.000000
# 3 -0.004047 -0.003440 0.012377 0.000000 0.000000 0.000000
# 4 0.000000 0.000000 0.000000 0.025806 0.000000 0.000000
# 5 0.000000 0.000000 0.000000 0.000000 0.000054 0.000000
# 6 0.000000 0.000000 0.000000 0.000000 0.000000 -0.014733
#
#
# Mechanical properties :
#
#
# Convention : Reuss Voigt Hill
#
# Bulk Modulus (GPa) = 90.65868 95.09532 92.87700
# Shear Modulus (GPa) = 81.40281 3690.51236 1885.95758
#
# Velocity S-wave (km/s) = 6.37930 42.95331 30.70572
# Velocity P-wave (km/s) = 9.97914 50.07517 36.10475
#
# Compressibility (1/GPa) = 0.01103038
#
# Stress axis : x y z
#
# Youngs Moduli (GPa) = 102.30648 149.86624 80.79532
#
# Poissons Ratio (x) = 0.21130 0.32695
# Poissons Ratio (y) = 0.14425 0.27796
# Poissons Ratio (z) = 0.41400 0.51559
#
# Static dielectric constant tensor:
#      x y z
#    x 1.774620 0.000000 0.000000 
#    y 0.000000 1.704060 0.000000 
#    z 0.000000 0.000000 1.614770 
# 
# From -- ./inp_files/24949.got.cif
#   From: 2010.05.17/outbox.cif.g08.bks.cpg/sg64_13_cif.got.tgz:24949.got - 2010.06.03 16:29:19.
