data_PCOD9477997
_publ_section_title
;
Structure prediction by ZEFSAII (Michael W. Deem and Ramdas Pophale) SiO2 
 PCOD9477997
Probable space group: C M C A
;
_chemical_formula_sum "Si O2"
_cell_formula_units_Z 80
_cell_length_a 16.437194
_cell_length_b 8.787382
_cell_length_c 25.129264
_cell_angle_alpha 90.000000
_cell_angle_beta 90.000000
_cell_angle_gamma 90.000000
_cell_volume 3629.668447
_symmetry_space_group_name_H-M "C M C A"
_symmetry_group_IT_number 64
_symmetry_cell_setting 'orthorhombic'
loop_
_space_group_symop_operation_xyz
x,y,z
-x,1/2-y,1/2+z
x,-y,-z
-x,1/2+y,1/2-z
-x,-y,-z
x,1/2+y,1/2-z
-x,y,z
x,1/2-y,1/2+z
1/2+x,1/2+y,z
1/2-x,-y,1/2+z
1/2+x,1/2-y,-z
1/2-x,y,1/2-z
1/2-x,1/2-y,-z
1/2+x,y,1/2-z
1/2-x,1/2+y,z
1/2+x,-y,1/2+z
loop_
_atom_site_type_symbol
_atom_site_label
_atom_site_fract_x
_atom_site_fract_y
_atom_site_fract_z
Si Si1 0.250000 0.282529 0.750000
Si Si2 0.000000 0.101480 0.388238
Si Si3 0.500000 0.914028 0.640309
Si Si4 0.732328 0.500000 0.000000
Si Si5 0.861039 0.271686 0.954794
Si Si6 0.139118 0.044580 0.795101
Si Si7 0.000000 0.894926 0.289512
Si Si8 0.000000 0.293062 0.042227
O O1 0.185303 0.391362 0.721700
O O2 0.206876 0.175949 0.794171
O O3 0.918759 0.191489 0.404936
O O4 0.000000 0.947934 0.424076
O O5 0.000000 0.040050 0.328700
O O6 0.419651 0.007813 0.655819
O O7 0.500000 0.762565 0.677896
O O8 0.500000 0.851230 0.580991
O O9 0.789310 0.606702 0.036483
O O10 0.678613 0.393113 0.038036
O O11 0.921577 0.290608 0.004965
O O12 0.078156 0.092457 0.747786
#
# Coordination Sequence:
#
# PCOD9477997 Si02
#       8
#     8   8   8   8  16  16   8   8
#     4  10  20  36  58  78 112 142 180 218 290 320
#     4  10  19  36  58  81 109 149 186 221 272 327
#     4  10  20  36  59  83 107 145 190 226 268 333
#     4  10  20  34  58  82 114 144 184 222 286 310
#     4  10  19  38  57  81 111 151 177 232 267 330
#     4  10  20  38  56  80 108 146 176 232 270 330
#     4  10  20  36  59  83 107 145 190 226 268 333
#     4  10  19  36  58  81 109 149 186 221 272 327
#
# _framework density 22.040582000000001
#
# number of rings (size 3 to 8) (size 9 to 14) (size 15 to 20)
#    0.000    2.000    4.000    0.600    0.000    1.600 
#    0.000   16.000    0.000    0.000    0.000    0.000 
#    0.000    0.000    0.000    0.000    0.000    0.000 
#
# Total GULP energy -223773.957084 kJ/mol
# GULP energy per Si atom -5594.348927 kJ/mol
# Density = 2.199042 g / cm^3
# Si number density = 22.040582 Si / 1000 Ang^3
#
#
#
# Elastic Constant Matrix: (Units=GPa)
#
#
# Indices 1 2 3 4 5 6 
#
# 1 103.3100 50.2723 -0.4409 0.0000 0.0000 0.0000
# 2 50.2723 119.3995 9.9935 0.0000 0.0000 0.0000
# 3 -0.4409 9.9935 33.8271 0.0000 0.0000 0.0000
# 4 0.0000 0.0000 0.0000 24.4014 0.0000 0.0000
# 5 0.0000 0.0000 0.0000 0.0000 -3.0106 0.0000
# 6 0.0000 0.0000 0.0000 0.0000 0.0000 -320.2851
#
#
#
# Elastic Compliance Matrix: (Units=1/GPa)
#
#
# Indices 1 2 3 4 5 6 
#
# 1 0.012272 -0.005312 0.001729 0.000000 0.000000 0.000000
# 2 -0.005312 0.010887 -0.003285 0.000000 0.000000 0.000000
# 3 0.001729 -0.003285 0.030555 0.000000 0.000000 0.000000
# 4 0.000000 0.000000 0.000000 0.040981 0.000000 0.000000
# 5 0.000000 0.000000 0.000000 0.000000 -0.332164 0.000000
# 6 0.000000 0.000000 0.000000 0.000000 0.000000 -0.003122
#
#
# Mechanical properties :
#
#
# Convention : Reuss Voigt Hill
#
# Bulk Modulus (GPa) = 25.01394 41.79850 33.40622
# Shear Modulus (GPa) = -23.41597 -46.66472 -35.04034
#
# Velocity S-wave (km/s) = -3.26299 -4.60632 -3.99157
# Velocity P-wave (km/s) = 1.68001 3.04719 2.46047
#
# Compressibility (1/GPa) = 0.03997771
#
# Stress axis : x y z
#
# Youngs Moduli (GPa) = 81.48819 91.85554 32.72762
#
# Poissons Ratio (x) = 0.48790 -0.05659
# Poissons Ratio (y) = 0.43284 0.10753
# Poissons Ratio (z) = -0.14091 0.30179
#
# Static dielectric constant tensor:
#      x y z
#    x 1.810370 0.000000 0.000000 
#    y 0.000000 1.824750 0.000000 
#    z 0.000000 0.000000 1.802220 
# 
# From -- ./inp_files/50357.got.cif
#   From: 2010.05.17/outbox.cif.g08.bks.cpg/sg64_26_cif.got.tgz:50357.got - 2010.06.03 16:29:19.
