data_PCOD9477180
_publ_section_title
;
Structure prediction by ZEFSAII (Michael W. Deem and Ramdas Pophale) SiO2 
 PCOD9477180
Probable space group: C M C A
;
_chemical_formula_sum "Si O2"
_cell_formula_units_Z 128
_cell_length_a 27.423783
_cell_length_b 11.497775
_cell_length_c 23.473714
_cell_angle_alpha 90.000000
_cell_angle_beta 90.000000
_cell_angle_gamma 90.000000
_cell_volume 7401.555131
_symmetry_space_group_name_H-M "C M C A"
_symmetry_group_IT_number 64
_symmetry_cell_setting 'orthorhombic'
loop_
_space_group_symop_operation_xyz
x,y,z
-x,1/2-y,1/2+z
x,-y,-z
-x,1/2+y,1/2-z
-x,-y,-z
x,1/2+y,1/2-z
-x,y,z
x,1/2-y,1/2+z
1/2+x,1/2+y,z
1/2-x,-y,1/2+z
1/2+x,1/2-y,-z
1/2-x,y,1/2-z
1/2-x,1/2-y,-z
1/2+x,y,1/2-z
1/2-x,1/2+y,z
1/2+x,-y,1/2+z
loop_
_atom_site_type_symbol
_atom_site_label
_atom_site_fract_x
_atom_site_fract_y
_atom_site_fract_z
Si Si1 0.556396 0.518595 0.785118
Si Si2 0.795510 0.981284 0.286081
Si Si3 0.442784 0.969388 0.845391
Si Si4 0.795607 0.829564 0.619763
Si Si5 0.192978 0.719166 0.880332
Si Si6 0.138689 0.138282 0.209110
Si Si7 0.616123 0.734378 0.819400
Si Si8 0.861258 0.472588 0.063404
O O1 0.500000 0.517939 0.799476
O O2 0.560359 0.531986 0.716250
O O3 0.583269 0.399206 0.800756
O O4 0.585033 0.619228 0.817187
O O5 0.750000 0.940140 0.250000
O O6 0.782623 0.095769 0.323384
O O7 0.835914 0.029098 0.241944
O O8 0.806429 0.881958 0.331765
O O9 0.500000 0.965321 0.861425
O O10 0.419865 0.841637 0.834142
O O11 0.406025 0.022530 0.891816
O O12 0.746570 0.763566 0.602172
O O13 0.838345 0.740667 0.637895
O O14 0.821585 0.926505 0.579943
O O15 0.165286 0.823418 0.848057
O O16 0.164386 0.653093 0.930351
O O17 0.137685 0.239000 0.256632
O O18 0.878298 0.500000 0.000000
#
# Coordination Sequence:
#
# PCOD9477180 Si02
#       8
#    16  16  16  16  16  16  16  16
#     4  10  19  30  48  74 107 141 162 187 239 307
#     4  10  19  28  45  73 105 131 162 195 229 292
#     4   9  18  34  51  72  98 126 167 208 248 300
#     4   9  20  33  48  76  98 133 169 201 243 300
#     4  11  21  32  50  72 104 138 165 200 251 292
#     4  10  19  30  43  71 105 136 168 198 229 291
#     4   9  17  29  47  72 106 135 161 191 235 291
#     4  10  22  39  53  71  95 123 174 227 257 288
#
# _framework density 17.293662999999999
#
# number of rings (size 3 to 8) (size 9 to 14) (size 15 to 20)
#    0.000    2.250    1.250    4.125    5.250    1.250 
#    0.000    0.625    0.000    0.000    0.000    0.000 
#    0.000    5.000    0.000    0.000    0.000    0.000 
#
# Total GULP energy -356584.732448 kJ/mol
# GULP energy per Si atom -5571.636445 kJ/mol
# Density = 1.725430 g / cm^3
# Si number density = 17.293663 Si / 1000 Ang^3
#
#
#
# Elastic Constant Matrix: (Units=GPa)
#
#
# Indices 1 2 3 4 5 6 
#
# 1 96.4285 12.6021 13.3839 0.0000 0.0000 0.0000
# 2 12.6021 27.6283 1.2296 0.0000 0.0000 0.0000
# 3 13.3839 1.2296 19.8775 0.0000 0.0000 0.0000
# 4 0.0000 0.0000 0.0000 11.0798 0.0000 0.0000
# 5 0.0000 0.0000 0.0000 0.0000 13.7038 0.0000
# 6 0.0000 0.0000 0.0000 0.0000 0.0000 23.8450
#
#
#
# Elastic Compliance Matrix: (Units=1/GPa)
#
#
# Indices 1 2 3 4 5 6 
#
# 1 0.012138 -0.005187 -0.007852 0.000000 0.000000 0.000000
# 2 -0.005187 0.038511 0.001110 0.000000 0.000000 0.000000
# 3 -0.007852 0.001110 0.055526 0.000000 0.000000 0.000000
# 4 0.000000 0.000000 0.000000 0.090255 0.000000 0.000000
# 5 0.000000 0.000000 0.000000 0.000000 0.072973 0.000000
# 6 0.000000 0.000000 0.000000 0.000000 0.000000 0.041937
#
#
# Mechanical properties :
#
#
# Convention : Reuss Voigt Hill
#
# Bulk Modulus (GPa) = 12.14797 22.04061 17.09429
# Shear Modulus (GPa) = 13.78786 17.50694 15.64740
#
# Velocity S-wave (km/s) = 2.82667 3.18517 3.01126
# Velocity P-wave (km/s) = 4.20633 5.12832 4.69004
#
# Compressibility (1/GPa) = 0.08231826
#
# Stress axis : x y z
#
# Youngs Moduli (GPa) = 82.38525 25.96634 18.00943
#
# Poissons Ratio (x) = 0.13469 0.14141
# Poissons Ratio (y) = 0.42734 -0.01999
# Poissons Ratio (z) = 0.64689 -0.02883
#
# Static dielectric constant tensor:
#      x y z
#    x 1.614060 0.000000 0.000000 
#    y 0.000000 1.618980 0.000000 
#    z 0.000000 0.000000 1.586120 
# 
# From -- ./inp_files/46977.got.cif
#   From: 2010.05.17/outbox.cif.g08.bks.cpg/sg64_24_cif.got.tgz:46977.got - 2010.06.03 16:29:19.
