data_PCOD9477517
_publ_section_title
;
Structure prediction by ZEFSAII (Michael W. Deem and Ramdas Pophale) SiO2 
 PCOD9477517
Probable space group: C M C A
;
_chemical_formula_sum "Si O2"
_cell_formula_units_Z 116
_cell_length_a 16.292888
_cell_length_b 15.531812
_cell_length_c 22.786879
_cell_angle_alpha 90.000000
_cell_angle_beta 90.000000
_cell_angle_gamma 90.000000
_cell_volume 5766.403697
_symmetry_space_group_name_H-M "C M C A"
_symmetry_group_IT_number 64
_symmetry_cell_setting 'orthorhombic'
loop_
_space_group_symop_operation_xyz
x,y,z
-x,1/2-y,1/2+z
x,-y,-z
-x,1/2+y,1/2-z
-x,-y,-z
x,1/2+y,1/2-z
-x,y,z
x,1/2-y,1/2+z
1/2+x,1/2+y,z
1/2-x,-y,1/2+z
1/2+x,1/2-y,-z
1/2-x,y,1/2-z
1/2-x,1/2-y,-z
1/2+x,y,1/2-z
1/2-x,1/2+y,z
1/2+x,-y,1/2+z
loop_
_atom_site_type_symbol
_atom_site_label
_atom_site_fract_x
_atom_site_fract_y
_atom_site_fract_z
Si Si1 0.688027 0.735314 0.393533
Si Si2 0.904721 0.170525 0.993411
Si Si3 0.000000 0.500000 0.000000
Si Si4 0.401792 0.381114 0.694532
Si Si5 0.368814 0.016567 0.903994
Si Si6 0.285385 0.930234 0.566876
Si Si7 0.369057 0.787990 0.106174
Si Si8 0.906333 0.119272 0.169759
O O1 0.625686 0.788483 0.433149
O O2 0.645743 0.698251 0.335453
O O3 0.722722 0.651540 0.428623
O O4 0.771240 0.787985 0.383628
O O5 0.846261 0.092773 0.013987
O O6 0.891183 0.242988 0.044115
O O7 0.000000 0.146682 0.992337
O O8 0.071212 0.524310 0.048225
O O9 0.500000 0.369221 0.689685
O O10 0.376019 0.463663 0.656098
O O11 0.382053 0.392189 0.762877
O O12 0.397417 0.114419 0.895064
O O13 0.276149 0.009793 0.928680
O O14 0.343197 0.924356 0.624624
O O15 0.404020 0.720948 0.153480
O O16 0.000000 0.088889 0.160708
#
# Coordination Sequence:
#
# PCOD9477517 Si02
#       8
#    16  16   4  16  16  16  16  16
#     4   9  19  32  51  78 114 152 191 235 288 340
#     4  10  19  32  57  82 113 152 201 239 280 346
#     4  12  28  36  56  92 134 164 172 254 322 372
#     4  10  20  37  57  86 116 155 198 245 301 361
#     4  11  25  36  58  89 124 154 194 239 313 366
#     4   9  19  36  53  83 111 155 194 241 294 359
#     4  10  21  35  56  85 111 147 189 245 290 346
#     4   9  19  38  64  82 110 153 203 254 290 346
#
# _framework density 20.116526
#
# number of rings (size 3 to 8) (size 9 to 14) (size 15 to 20)
#    0.000    2.483    0.690    3.724    7.724    4.966 
#    0.000    2.759    0.000    5.793    0.000    0.000 
#    0.000    0.000    0.000    0.000    0.000    0.000 
#
# Total GULP energy -323234.591474 kJ/mol
# GULP energy per Si atom -5573.010198 kJ/mol
# Density = 2.007074 g / cm^3
# Si number density = 20.116526 Si / 1000 Ang^3
#
#
#
# Elastic Constant Matrix: (Units=GPa)
#
#
# Indices 1 2 3 4 5 6 
#
# 1 125.5095 18.9380 32.3181 0.0000 0.0000 0.0000
# 2 18.9380 33.6927 15.1237 0.0000 0.0000 0.0000
# 3 32.3181 15.1237 81.4751 0.0000 0.0000 0.0000
# 4 0.0000 0.0000 0.0000 16.3969 0.0000 0.0000
# 5 0.0000 0.0000 0.0000 0.0000 29.2307 0.0000
# 6 0.0000 0.0000 0.0000 0.0000 0.0000 8.5972
#
#
#
# Elastic Compliance Matrix: (Units=1/GPa)
#
#
# Indices 1 2 3 4 5 6 
#
# 1 0.009322 -0.003905 -0.002973 0.000000 0.000000 0.000000
# 2 -0.003905 0.034014 -0.004765 0.000000 0.000000 0.000000
# 3 -0.002973 -0.004765 0.014337 0.000000 0.000000 0.000000
# 4 0.000000 0.000000 0.000000 0.060987 0.000000 0.000000
# 5 0.000000 0.000000 0.000000 0.000000 0.034211 0.000000
# 6 0.000000 0.000000 0.000000 0.000000 0.000000 0.116316
#
#
# Mechanical properties :
#
#
# Convention : Reuss Voigt Hill
#
# Bulk Modulus (GPa) = 29.08022 41.49301 35.28661
# Shear Modulus (GPa) = 16.45083 22.46481 19.45782
#
# Velocity S-wave (km/s) = 2.86278 3.34538 3.11345
# Velocity P-wave (km/s) = 5.04129 5.96601 5.52304
#
# Compressibility (1/GPa) = 0.03438764
#
# Stress axis : x y z
#
# Youngs Moduli (GPa) = 107.26948 29.39973 69.74793
#
# Poissons Ratio (x) = 0.11482 0.20735
# Poissons Ratio (y) = 0.41894 0.33232
# Poissons Ratio (z) = 0.31890 0.14008
#
# Static dielectric constant tensor:
#      x y z
#    x 1.698180 0.000000 0.000000 
#    y 0.000000 1.736880 0.000000 
#    z 0.000000 0.000000 1.715760 
# 
# From -- ./inp_files/45460.got.cif
#   From: 2010.05.17/outbox.cif.g08.bks.cpg/sg64_23_cif.got.tgz:45460.got - 2010.06.03 16:29:19.
