data_PCOD9477415
_publ_section_title
;
Structure prediction by ZEFSAII (Michael W. Deem and Ramdas Pophale) SiO2 
 PCOD9477415
Probable space group: C M C A
;
_chemical_formula_sum "Si O2"
_cell_formula_units_Z 80
_cell_length_a 7.778863
_cell_length_b 27.305705
_cell_length_c 19.427831
_cell_angle_alpha 90.000000
_cell_angle_beta 90.000000
_cell_angle_gamma 90.000000
_cell_volume 4126.613872
_symmetry_space_group_name_H-M "C M C A"
_symmetry_group_IT_number 64
_symmetry_cell_setting 'orthorhombic'
loop_
_space_group_symop_operation_xyz
x,y,z
-x,1/2-y,1/2+z
x,-y,-z
-x,1/2+y,1/2-z
-x,-y,-z
x,1/2+y,1/2-z
-x,y,z
x,1/2-y,1/2+z
1/2+x,1/2+y,z
1/2-x,-y,1/2+z
1/2+x,1/2-y,-z
1/2-x,y,1/2-z
1/2-x,1/2-y,-z
1/2+x,y,1/2-z
1/2-x,1/2+y,z
1/2+x,-y,1/2+z
loop_
_atom_site_type_symbol
_atom_site_label
_atom_site_fract_x
_atom_site_fract_y
_atom_site_fract_z
Si Si1 0.792183 0.103013 0.669247
Si Si2 0.293377 0.003412 0.168857
Si Si3 0.797577 0.302717 0.569599
Si Si4 0.299716 0.194680 0.915208
Si Si5 0.205683 0.889811 0.669304
O O1 0.750000 0.107502 0.750000
O O2 0.723584 0.149690 0.627671
O O3 0.000000 0.102104 0.662840
O O4 0.729531 0.049486 0.643145
O O5 0.500000 0.003738 0.161067
O O6 0.250000 0.003209 0.250000
O O7 0.230145 0.056518 0.143872
O O8 0.713222 0.315539 0.496605
O O9 0.728250 0.249676 0.594320
O O10 0.774577 0.345063 0.624951
O O11 0.000000 0.296353 0.555321
O O12 0.500000 0.197254 0.895020
O O13 0.250000 0.884843 0.750000
O O14 0.000000 0.889345 0.663294
#
# Coordination Sequence:
#
# PCOD9477415 Si02
#       5
#    16  16  16  16  16
#     4   9  17  31  51  74  98 123 156 197 239 284
#     4   8  15  28  47  70  95 124 155 190 235 283
#     4  10  20  34  51  71  96 128 164 200 241 287
#     4   9  19  35  52  70  95 128 163 199 241 288
#     4  10  19  32  51  74  99 127 160 197 237 282
#
# _framework density 19.386355999999999
#
# number of rings (size 3 to 8) (size 9 to 14) (size 15 to 20)
#    0.000    2.800    0.000    1.200    0.000    3.200 
#    0.000    3.000    0.000    6.000    0.000    0.000 
#    0.000    0.000    0.000    0.000    0.000    0.000 
#
# Total GULP energy -222775.971112 kJ/mol
# GULP energy per Si atom -5569.399278 kJ/mol
# Density = 1.934223 g / cm^3
# Si number density = 19.386356 Si / 1000 Ang^3
#
#
#
# Elastic Constant Matrix: (Units=GPa)
#
#
# Indices 1 2 3 4 5 6 
#
# 1 28.2543 -2.3056 -10.4553 0.0000 0.0000 0.0000
# 2 -2.3056 207.2974 83.8735 0.0000 0.0000 0.0000
# 3 -10.4553 83.8735 49.3356 0.0000 0.0000 0.0000
# 4 0.0000 0.0000 0.0000 -67.5492 0.0000 0.0000
# 5 0.0000 0.0000 0.0000 0.0000 21.1339 0.0000
# 6 0.0000 0.0000 0.0000 0.0000 0.0000 5.6499
#
#
#
# Elastic Compliance Matrix: (Units=1/GPa)
#
#
# Indices 1 2 3 4 5 6 
#
# 1 0.044762 -0.010701 0.027678 0.000000 0.000000 0.000000
# 2 -0.010701 0.018012 -0.032890 0.000000 0.000000 0.000000
# 3 0.027678 -0.032890 0.082050 0.000000 0.000000 0.000000
# 4 0.000000 0.000000 0.000000 -0.014804 0.000000 0.000000
# 5 0.000000 0.000000 0.000000 0.000000 0.047317 0.000000
# 6 0.000000 0.000000 0.000000 0.000000 0.000000 0.176995
#
#
# Mechanical properties :
#
#
# Convention : Reuss Voigt Hill
#
# Bulk Modulus (GPa) = 8.84967 47.45695 28.15331
# Shear Modulus (GPa) = 11.79738 6.09857 8.94797
#
# Velocity S-wave (km/s) = 2.46954 1.77557 2.15073
# Velocity P-wave (km/s) = 3.56459 5.36062 4.55206
#
# Compressibility (1/GPa) = 0.11299851
#
# Stress axis : x y z
#
# Youngs Moduli (GPa) = 22.34051 55.51748 12.18775
#
# Poissons Ratio (x) = 0.59408 -0.33733
# Poissons Ratio (y) = 0.23906 0.40085
# Poissons Ratio (z) = -0.61834 1.82596
#
# Static dielectric constant tensor:
#      x y z
#    x 1.132010 0.000000 0.000000 
#    y 0.000000 1.756740 0.000000 
#    z 0.000000 0.000000 1.612970 
# 
# From -- ./inp_files/29703.got.cif
#   From: 2010.05.17/outbox.cif.g08.bks.cpg/sg64_15_cif.got.tgz:29703.got - 2010.06.03 16:29:19.
