data_PCOD9477600
_publ_section_title
;
Structure prediction by ZEFSAII (Michael W. Deem and Ramdas Pophale) SiO2 
 PCOD9477600
Probable space group: C M C A
;
_chemical_formula_sum "Si O2"
_cell_formula_units_Z 80
_cell_length_a 8.564426
_cell_length_b 28.037153
_cell_length_c 18.699523
_cell_angle_alpha 90.000000
_cell_angle_beta 90.000000
_cell_angle_gamma 90.000000
_cell_volume 4490.169145
_symmetry_space_group_name_H-M "C M C A"
_symmetry_group_IT_number 64
_symmetry_cell_setting 'orthorhombic'
loop_
_space_group_symop_operation_xyz
x,y,z
-x,1/2-y,1/2+z
x,-y,-z
-x,1/2+y,1/2-z
-x,-y,-z
x,1/2+y,1/2-z
-x,y,z
x,1/2-y,1/2+z
1/2+x,1/2+y,z
1/2-x,-y,1/2+z
1/2+x,1/2-y,-z
1/2-x,y,1/2-z
1/2-x,1/2-y,-z
1/2+x,y,1/2-z
1/2-x,1/2+y,z
1/2+x,-y,1/2+z
loop_
_atom_site_type_symbol
_atom_site_label
_atom_site_fract_x
_atom_site_fract_y
_atom_site_fract_z
Si Si1 0.687256 0.448060 0.471518
Si Si2 0.187310 0.147236 0.041598
Si Si3 0.687308 0.406586 0.172252
Si Si4 0.687230 0.705943 0.329753
Si Si5 0.310581 0.193693 0.605053
O O1 0.733450 0.500000 0.500000
O O2 0.500000 0.444429 0.473313
O O3 0.758047 0.405330 0.518816
O O4 0.746115 0.439098 0.391043
O O5 0.256798 0.165605 0.115473
O O6 0.000000 0.148235 0.044565
O O7 0.239164 0.182139 0.976195
O O8 0.500000 0.408553 0.170908
O O9 0.750000 0.419249 0.250000
O O10 0.735665 0.352192 0.152173
O O11 0.500000 0.706835 0.327874
O O12 0.750000 0.699521 0.250000
O O13 0.744943 0.756720 0.362039
O O14 0.500000 0.194984 0.604585
#
# Coordination Sequence:
#
# PCOD9477600 Si02
#       5
#    16  16  16  16  16
#     4  10  21  38  59  81 105 136 176 220 268 321
#     4  10  20  36  56  79 106 137 176 219 265 316
#     4  10  19  33  54  82 113 141 174 217 266 315
#     4  11  21  34  51  75 109 146 182 217 257 305
#     4   8  17  32  52  78 107 140 176 214 257 310
#
# _framework density 17.816700000000001
#
# number of rings (size 3 to 8) (size 9 to 14) (size 15 to 20)
#    0.000    2.200    0.000    4.800    0.000    1.600 
#    0.000   11.000    0.000    4.800    0.000    0.000 
#    0.000    0.000    0.000    0.000    0.000    0.000 
#
# Total GULP energy -223320.470367 kJ/mol
# GULP energy per Si atom -5583.011759 kJ/mol
# Density = 1.777615 g / cm^3
# Si number density = 17.816700 Si / 1000 Ang^3
#
#
#
# Elastic Constant Matrix: (Units=GPa)
#
#
# Indices 1 2 3 4 5 6 
#
# 1 56.4227 34.0119 46.8290 0.0000 0.0000 0.0000
# 2 34.0119 104.6778 100.3162 0.0000 0.0000 0.0000
# 3 46.8290 100.3162 178.3414 0.0000 0.0000 0.0000
# 4 0.0000 0.0000 0.0000 16.1406 0.0000 0.0000
# 5 0.0000 0.0000 0.0000 0.0000 25.4137 0.0000
# 6 0.0000 0.0000 0.0000 0.0000 0.0000 23.6323
#
#
#
# Elastic Compliance Matrix: (Units=1/GPa)
#
#
# Indices 1 2 3 4 5 6 
#
# 1 0.023306 -0.003705 -0.004036 0.000000 0.000000 0.000000
# 2 -0.003705 0.021314 -0.011016 0.000000 0.000000 0.000000
# 3 -0.004036 -0.011016 0.012863 0.000000 0.000000 0.000000
# 4 0.000000 0.000000 0.000000 0.061955 0.000000 0.000000
# 5 0.000000 0.000000 0.000000 0.000000 0.039349 0.000000
# 6 0.000000 0.000000 0.000000 0.000000 0.000000 0.042315
#
#
# Mechanical properties :
#
#
# Convention : Reuss Voigt Hill
#
# Bulk Modulus (GPa) = 50.07539 77.97289 64.02414
# Shear Modulus (GPa) = 20.38536 23.58965 21.98750
#
# Velocity S-wave (km/s) = 3.38623 3.64265 3.51678
# Velocity P-wave (km/s) = 6.59209 7.84544 7.24591
#
# Compressibility (1/GPa) = 0.01996989
#
# Stress axis : x y z
#
# Youngs Moduli (GPa) = 42.90680 46.91695 77.73946
#
# Poissons Ratio (x) = 0.17384 0.31373
# Poissons Ratio (y) = 0.15898 0.85640
# Poissons Ratio (z) = 0.17316 0.51685
#
# Static dielectric constant tensor:
#      x y z
#    x 1.595680 0.000000 0.000000 
#    y 0.000000 1.596300 0.000000 
#    z 0.000000 0.000000 1.588500 
# 
# From -- ./inp_files/29800.got.cif
#   From: 2010.05.17/outbox.cif.g08.bks.cpg/sg64_15_cif.got.tgz:29800.got - 2010.06.03 16:29:19.
