data_PCOD9477976
_publ_section_title
;
Structure prediction by ZEFSAII (Michael W. Deem and Ramdas Pophale) SiO2 
 PCOD9477976
Probable space group: C M C A
;
_chemical_formula_sum "Si O2"
_cell_formula_units_Z 96
_cell_length_a 11.558217
_cell_length_b 20.104595
_cell_length_c 20.376128
_cell_angle_alpha 90.000000
_cell_angle_beta 90.000000
_cell_angle_gamma 90.000000
_cell_volume 4734.867528
_symmetry_space_group_name_H-M "C M C A"
_symmetry_group_IT_number 64
_symmetry_cell_setting 'orthorhombic'
loop_
_space_group_symop_operation_xyz
x,y,z
-x,1/2-y,1/2+z
x,-y,-z
-x,1/2+y,1/2-z
-x,-y,-z
x,1/2+y,1/2-z
-x,y,z
x,1/2-y,1/2+z
1/2+x,1/2+y,z
1/2-x,-y,1/2+z
1/2+x,1/2-y,-z
1/2-x,y,1/2-z
1/2-x,1/2-y,-z
1/2+x,y,1/2-z
1/2-x,1/2+y,z
1/2+x,-y,1/2+z
loop_
_atom_site_type_symbol
_atom_site_label
_atom_site_fract_x
_atom_site_fract_y
_atom_site_fract_z
Si Si1 0.633126 0.421016 0.568820
Si Si2 0.803681 0.429507 0.080573
Si Si3 0.368925 0.178416 0.557201
Si Si4 0.376790 0.275351 0.772209
Si Si5 0.126810 0.384046 0.221240
Si Si6 0.207212 0.700756 0.409487
O O1 0.500000 0.423385 0.589601
O O2 0.693366 0.491050 0.585186
O O3 0.636989 0.413113 0.489362
O O4 0.703806 0.360010 0.597600
O O5 0.679100 0.394235 0.075187
O O6 0.865591 0.398779 0.143635
O O7 0.500000 0.188295 0.578117
O O8 0.283056 0.232033 0.588779
O O9 0.355575 0.190609 0.479158
O O10 0.500000 0.298287 0.742096
O O11 0.250000 0.300033 0.750000
O O12 0.374273 0.195148 0.765836
O O13 0.376580 0.293542 0.848704
O O14 0.250000 0.409909 0.250000
O O15 0.000000 0.409590 0.244944
#
# Coordination Sequence:
#
# PCOD9477976 Si02
#       6
#    16  16  16  16  16  16
#     4  10  20  34  58  85 113 149 187 232 287 347
#     4  10  19  36  55  83 113 147 189 234 284 338
#     4  10  20  33  55  83 113 148 185 233 285 340
#     4  10  21  37  57  83 113 152 193 237 290 339
#     4  10  20  35  56  81 110 145 189 237 280 330
#     4  10  20  36  53  84 113 145 185 233 284 344
#
# _framework density 20.275117999999999
#
# number of rings (size 3 to 8) (size 9 to 14) (size 15 to 20)
#    0.000    2.000    1.667    3.000    0.000    2.000 
#    0.000    8.333    0.000    2.000    0.000    0.000 
#    0.000    0.000    0.000    0.000    0.000    0.000 
#
# Total GULP energy -267706.635956 kJ/mol
# GULP energy per Si atom -5577.221582 kJ/mol
# Density = 2.022897 g / cm^3
# Si number density = 20.275118 Si / 1000 Ang^3
#
#
#
# Elastic Constant Matrix: (Units=GPa)
#
#
# Indices 1 2 3 4 5 6 
#
# 1 159.5648 36.8851 41.3346 0.0000 0.0000 0.0000
# 2 36.8851 46.8813 -1.2445 0.0000 0.0000 0.0000
# 3 41.3346 -1.2445 28.1680 0.0000 0.0000 0.0000
# 4 0.0000 0.0000 0.0000 15.0510 0.0000 0.0000
# 5 0.0000 0.0000 0.0000 0.0000 39.2438 0.0000
# 6 0.0000 0.0000 0.0000 0.0000 0.0000 5.7554
#
#
#
# Elastic Compliance Matrix: (Units=1/GPa)
#
#
# Indices 1 2 3 4 5 6 
#
# 1 0.014946 -0.012356 -0.022478 0.000000 0.000000 0.000000
# 2 -0.012356 0.031570 0.019527 0.000000 0.000000 0.000000
# 3 -0.022478 0.019527 0.069349 0.000000 0.000000 0.000000
# 4 0.000000 0.000000 0.000000 0.066441 0.000000 0.000000
# 5 0.000000 0.000000 0.000000 0.000000 0.025482 0.000000
# 6 0.000000 0.000000 0.000000 0.000000 0.000000 0.173751
#
#
# Mechanical properties :
#
#
# Convention : Reuss Voigt Hill
#
# Bulk Modulus (GPa) = 11.73021 43.17383 27.45202
# Shear Modulus (GPa) = 11.34889 22.51930 16.93410
#
# Velocity S-wave (km/s) = 2.36846 3.33631 2.89315
# Velocity P-wave (km/s) = 3.64384 6.01511 4.97288
#
# Compressibility (1/GPa) = 0.08524998
#
# Stress axis : x y z
#
# Youngs Moduli (GPa) = 66.90649 31.67532 14.41973
#
# Poissons Ratio (x) = 0.39138 0.32413
# Poissons Ratio (y) = 0.82670 -0.28157
# Poissons Ratio (z) = 1.50395 -0.61851
#
# Static dielectric constant tensor:
#      x y z
#    x 1.757750 0.000000 0.000000 
#    y 0.000000 1.678250 0.000000 
#    z 0.000000 0.000000 1.742550 
# 
# From -- ./inp_files/44337.got.cif
#   From: 2010.05.17/outbox.cif.g08.bks.cpg/sg64_23_cif.got.tgz:44337.got - 2010.06.03 16:29:19.
