data_PCOD9477538
_publ_section_title
;
Structure prediction by ZEFSAII (Michael W. Deem and Ramdas Pophale) SiO2 
 PCOD9477538
Probable space group: C M C A
;
_chemical_formula_sum "Si O2"
_cell_formula_units_Z 96
_cell_length_a 7.439958
_cell_length_b 20.749781
_cell_length_c 29.096609
_cell_angle_alpha 90.000000
_cell_angle_beta 90.000000
_cell_angle_gamma 90.000000
_cell_volume 4491.861731
_symmetry_space_group_name_H-M "C M C A"
_symmetry_group_IT_number 64
_symmetry_cell_setting 'orthorhombic'
loop_
_space_group_symop_operation_xyz
x,y,z
-x,1/2-y,1/2+z
x,-y,-z
-x,1/2+y,1/2-z
-x,-y,-z
x,1/2+y,1/2-z
-x,y,z
x,1/2-y,1/2+z
1/2+x,1/2+y,z
1/2-x,-y,1/2+z
1/2+x,1/2-y,-z
1/2-x,y,1/2-z
1/2-x,1/2-y,-z
1/2+x,y,1/2-z
1/2-x,1/2+y,z
1/2+x,-y,1/2+z
loop_
_atom_site_type_symbol
_atom_site_label
_atom_site_fract_x
_atom_site_fract_y
_atom_site_fract_z
Si Si1 0.285290 0.441040 0.800947
Si Si2 0.717914 0.228297 0.894247
Si Si3 0.718833 0.349822 0.952823
Si Si4 0.785353 0.293402 0.698826
Si Si5 0.719489 0.021579 0.398564
Si Si6 0.291261 0.104088 0.551044
O O1 0.500000 0.437084 0.805278
O O2 0.250000 0.467138 0.750000
O O3 0.215425 0.367144 0.803067
O O4 0.220708 0.479549 0.845510
O O5 0.500000 0.227030 0.894452
O O6 0.778449 0.282524 0.930916
O O7 0.779468 0.251261 0.843906
O O8 0.780931 0.158705 0.910284
O O9 0.500000 0.346631 0.953376
O O10 0.768047 0.409637 0.920235
O O11 0.784481 0.366228 0.003962
O O12 0.750000 0.267933 0.750000
O O13 0.000000 0.297628 0.693456
O O14 0.500000 0.018447 0.398902
O O15 0.785663 0.962435 0.429471
O O16 0.500000 0.090295 0.540359
#
# Coordination Sequence:
#
# PCOD9477538 Si02
#       6
#    16  16  16  16  16  16
#     4   9  16  29  50  73  95 120 157 202 244 285
#     4  10  19  33  51  71 100 134 161 193 246 299
#     4   9  16  30  52  74  95 127 170 205 235 280
#     4   9  17  30  50  73  94 122 160 201 242 285
#     4   9  16  30  51  74  98 126 162 203 243 284
#     4  10  20  31  49  76 102 128 163 205 240 279
#
# _framework density 21.371984999999999
#
# number of rings (size 3 to 8) (size 9 to 14) (size 15 to 20)
#    0.000    2.667    1.667    1.000    0.000    2.667 
#    0.000    1.667    0.000    8.000    0.000    0.000 
#    0.000    0.000    0.000    0.000    0.000    0.000 
#
# Total GULP energy -267936.779520 kJ/mol
# GULP energy per Si atom -5582.016240 kJ/mol
# Density = 2.132334 g / cm^3
# Si number density = 21.371985 Si / 1000 Ang^3
#
#
#
# Elastic Constant Matrix: (Units=GPa)
#
#
# Indices 1 2 3 4 5 6 
#
# 1 63.2713 -11.0936 -8.4803 0.0000 0.0000 0.0000
# 2 -11.0936 33.2607 -28.1748 0.0000 0.0000 0.0000
# 3 -8.4803 -28.1748 80.4927 0.0000 0.0000 0.0000
# 4 0.0000 0.0000 0.0000 5.2306 0.0000 0.0000
# 5 0.0000 0.0000 0.0000 0.0000 12.8777 0.0000
# 6 0.0000 0.0000 0.0000 0.0000 0.0000 35.8300
#
#
#
# Elastic Compliance Matrix: (Units=1/GPa)
#
#
# Indices 1 2 3 4 5 6 
#
# 1 0.018544 0.011144 0.005854 0.000000 0.000000 0.000000
# 2 0.011144 0.049435 0.018478 0.000000 0.000000 0.000000
# 3 0.005854 0.018478 0.019508 0.000000 0.000000 0.000000
# 4 0.000000 0.000000 0.000000 0.191183 0.000000 0.000000
# 5 0.000000 0.000000 0.000000 0.000000 0.077654 0.000000
# 6 0.000000 0.000000 0.000000 0.000000 0.000000 0.027910
#
#
# Mechanical properties :
#
#
# Convention : Reuss Voigt Hill
#
# Bulk Modulus (GPa) = 6.31159 9.05860 7.68510
# Shear Modulus (GPa) = 13.65773 25.77254 19.71513
#
# Velocity S-wave (km/s) = 2.53068 3.47638 3.04052
# Velocity P-wave (km/s) = 3.39098 4.51236 3.99125
#
# Compressibility (1/GPa) = 0.15843865
#
# Stress axis : x y z
#
# Youngs Moduli (GPa) = 53.92711 20.22871 51.26099
#
# Poissons Ratio (x) = -0.22543 -0.30010
# Poissons Ratio (y) = -0.60097 -0.94718
# Poissons Ratio (z) = -0.31571 -0.37378
#
# Static dielectric constant tensor:
#      x y z
#    x 1.842740 0.000000 0.000000 
#    y 0.000000 1.718910 0.000000 
#    z 0.000000 0.000000 1.789140 
# 
# From -- ./inp_files/38275.got.cif
#   From: 2010.05.17/outbox.cif.g08.bks.cpg/sg64_20_cif.got.tgz:38275.got - 2010.06.03 16:29:19.
