data_PCOD9477301
_publ_section_title
;
Structure prediction by ZEFSAII (Michael W. Deem and Ramdas Pophale) SiO2 
 PCOD9477301
Probable space group: C M C A
;
_chemical_formula_sum "Si O2"
_cell_formula_units_Z 96
_cell_length_a 9.359108
_cell_length_b 28.297968
_cell_length_c 21.786704
_cell_angle_alpha 90.000000
_cell_angle_beta 90.000000
_cell_angle_gamma 90.000000
_cell_volume 5770.072141
_symmetry_space_group_name_H-M "C M C A"
_symmetry_group_IT_number 64
_symmetry_cell_setting 'orthorhombic'
loop_
_space_group_symop_operation_xyz
x,y,z
-x,1/2-y,1/2+z
x,-y,-z
-x,1/2+y,1/2-z
-x,-y,-z
x,1/2+y,1/2-z
-x,y,z
x,1/2-y,1/2+z
1/2+x,1/2+y,z
1/2-x,-y,1/2+z
1/2+x,1/2-y,-z
1/2-x,y,1/2-z
1/2-x,1/2-y,-z
1/2+x,y,1/2-z
1/2-x,1/2+y,z
1/2+x,-y,1/2+z
loop_
_atom_site_type_symbol
_atom_site_label
_atom_site_fract_x
_atom_site_fract_y
_atom_site_fract_z
Si Si1 0.832278 0.389147 0.309928
Si Si2 0.827964 0.039675 0.052045
Si Si3 0.335556 0.638378 0.459977
Si Si4 0.158249 0.328638 0.101611
Si Si5 0.670628 0.499969 0.187674
Si Si6 0.331278 0.728478 0.059056
O O1 0.750000 0.372363 0.250000
O O2 0.779769 0.357764 0.365612
O O3 0.795497 0.444255 0.319644
O O4 0.000000 0.386011 0.301144
O O5 0.743985 0.088300 0.041295
O O6 0.794451 0.023155 0.121862
O O7 0.000000 0.046983 0.048026
O O8 0.792524 0.000000 0.000000
O O9 0.500000 0.634934 0.438441
O O10 0.340805 0.656203 0.530428
O O11 0.246135 0.679393 0.425356
O O12 0.177805 0.272177 0.106182
O O13 0.000000 0.340855 0.126185
O O14 0.500000 0.504769 0.196921
O O15 0.750000 0.516584 0.250000
O O16 0.500000 0.720889 0.045921
O O17 0.250000 0.750000 0.000000
#
# Coordination Sequence:
#
# PCOD9477301 Si02
#       6
#    16  16  16  16  16  16
#     4  10  19  31  49  71  96 127 162 200 243 293
#     4  10  20  34  52  75 103 133 169 213 258 302
#     4  10  20  32  48  73 102 131 164 203 248 295
#     4   9  18  31  47  70  99 127 158 197 241 291
#     4   9  19  34  51  72  98 132 170 205 246 299
#     4   9  17  30  48  70  97 128 160 196 239 291
#
# _framework density 16.637574000000001
#
# number of rings (size 3 to 8) (size 9 to 14) (size 15 to 20)
#    0.000    2.500    0.000    3.500    0.000    7.000 
#    0.000    0.000    0.000    1.000    0.000    4.667 
#    0.000    0.000    0.000    0.000    0.000    0.000 
#
# Total GULP energy -267282.245433 kJ/mol
# GULP energy per Si atom -5568.380113 kJ/mol
# Density = 1.659971 g / cm^3
# Si number density = 16.637574 Si / 1000 Ang^3
#
#
#
# Elastic Constant Matrix: (Units=GPa)
#
#
# Indices 1 2 3 4 5 6 
#
# 1 74.6407 59.4785 29.2315 0.0000 0.0000 0.0000
# 2 59.4785 109.2613 36.4284 0.0000 0.0000 0.0000
# 3 29.2315 36.4284 61.0511 0.0000 0.0000 0.0000
# 4 0.0000 0.0000 0.0000 10.7577 0.0000 0.0000
# 5 0.0000 0.0000 0.0000 0.0000 27.6878 0.0000
# 6 0.0000 0.0000 0.0000 0.0000 0.0000 26.8495
#
#
#
# Elastic Compliance Matrix: (Units=1/GPa)
#
#
# Indices 1 2 3 4 5 6 
#
# 1 0.024719 -0.011872 -0.004752 0.000000 0.000000 0.000000
# 2 -0.011872 0.017127 -0.004535 0.000000 0.000000 0.000000
# 3 -0.004752 -0.004535 0.021361 0.000000 0.000000 0.000000
# 4 0.000000 0.000000 0.000000 0.092957 0.000000 0.000000
# 5 0.000000 0.000000 0.000000 0.000000 0.036117 0.000000
# 6 0.000000 0.000000 0.000000 0.000000 0.000000 0.037245
#
#
# Mechanical properties :
#
#
# Convention : Reuss Voigt Hill
#
# Bulk Modulus (GPa) = 47.87140 55.02554 51.44847
# Shear Modulus (GPa) = 17.93362 21.04663 19.49012
#
# Velocity S-wave (km/s) = 3.28670 3.56055 3.42636
# Velocity P-wave (km/s) = 6.57561 7.07448 6.82960
#
# Compressibility (1/GPa) = 0.02088930
#
# Stress axis : x y z
#
# Youngs Moduli (GPa) = 40.45526 58.38682 46.81450
#
# Poissons Ratio (x) = 0.69316 0.22244
# Poissons Ratio (y) = 0.48028 0.21232
# Poissons Ratio (z) = 0.19223 0.26480
#
# Static dielectric constant tensor:
#      x y z
#    x 1.575500 0.000000 0.000000 
#    y 0.000000 1.565720 0.000000 
#    z 0.000000 0.000000 1.585790 
# 
# From -- ./inp_files/37046.got.cif
#   From: 2010.05.17/outbox.cif.g08.bks.cpg/sg64_19_cif.got.tgz:37046.got - 2010.06.03 16:29:19.
