data_PCOD9477475
_publ_section_title
;
Structure prediction by ZEFSAII (Michael W. Deem and Ramdas Pophale) SiO2 
 PCOD9477475
Probable space group: C M C A
;
_chemical_formula_sum "Si O2"
_cell_formula_units_Z 112
_cell_length_a 13.671478
_cell_length_b 14.741746
_cell_length_c 27.630793
_cell_angle_alpha 90.000000
_cell_angle_beta 90.000000
_cell_angle_gamma 90.000000
_cell_volume 5568.750255
_symmetry_space_group_name_H-M "C M C A"
_symmetry_group_IT_number 64
_symmetry_cell_setting 'orthorhombic'
loop_
_space_group_symop_operation_xyz
x,y,z
-x,1/2-y,1/2+z
x,-y,-z
-x,1/2+y,1/2-z
-x,-y,-z
x,1/2+y,1/2-z
-x,y,z
x,1/2-y,1/2+z
1/2+x,1/2+y,z
1/2-x,-y,1/2+z
1/2+x,1/2-y,-z
1/2-x,y,1/2-z
1/2-x,1/2-y,-z
1/2+x,y,1/2-z
1/2-x,1/2+y,z
1/2+x,-y,1/2+z
loop_
_atom_site_type_symbol
_atom_site_label
_atom_site_fract_x
_atom_site_fract_y
_atom_site_fract_z
Si Si1 0.382530 0.811939 0.674185
Si Si2 0.882912 0.624907 0.777363
Si Si3 0.304914 0.231970 0.921913
Si Si4 0.301567 0.451922 0.373772
Si Si5 0.891415 0.235369 0.976387
Si Si6 0.389004 0.052570 0.045277
Si Si7 0.615781 0.978214 0.319794
O O1 0.500000 0.803112 0.664169
O O2 0.354898 0.729074 0.710141
O O3 0.322245 0.793684 0.625034
O O4 0.367093 0.914897 0.691794
O O5 0.847067 0.560332 0.820729
O O6 0.854667 0.585593 0.725271
O O7 0.000000 0.622661 0.777963
O O8 0.341991 0.133556 0.904471
O O9 0.195601 0.209618 0.940354
O O10 0.358868 0.276090 0.967883
O O11 0.333098 0.537599 0.404947
O O12 0.185852 0.452660 0.364147
O O13 0.894601 0.343573 0.969119
O O14 0.000000 0.198030 0.967383
O O15 0.500000 0.017717 0.051663
O O16 0.342247 0.000000 0.000000
O O17 0.500000 0.966929 0.329281
#
# Coordination Sequence:
#
# PCOD9477475 Si02
#       7
#    16  16  16  16  16  16  16
#     4   9  18  35  59  81 106 143 185 225 273 330
#     4   9  19  36  58  83 107 139 185 232 276 328
#     4  10  20  33  53  78 105 144 185 225 271 331
#     4  11  20  34  55  79 110 144 181 225 279 334
#     4  10  20  34  51  75 109 142 182 230 276 320
#     4  10  19  32  53  80 106 137 177 230 281 319
#     4  10  21  37  56  81 114 147 184 229 277 333
#
# _framework density 20.112231999999999
#
# number of rings (size 3 to 8) (size 9 to 14) (size 15 to 20)
#    0.000    2.143    1.429    2.143    0.000    1.714 
#    0.000    7.143    0.000    3.857    0.000    0.000 
#    0.000    0.000    0.000    0.000    0.000    0.000 
#
# Total GULP energy -312205.511935 kJ/mol
# GULP energy per Si atom -5575.098427 kJ/mol
# Density = 2.006646 g / cm^3
# Si number density = 20.112232 Si / 1000 Ang^3
#
#
#
# Elastic Constant Matrix: (Units=GPa)
#
#
# Indices 1 2 3 4 5 6 
#
# 1 56.0132 -1.5322 38.4942 0.0000 0.0000 0.0000
# 2 -1.5322 54.6286 27.7696 0.0000 0.0000 0.0000
# 3 38.4942 27.7696 83.0658 0.0000 0.0000 0.0000
# 4 0.0000 0.0000 0.0000 19.8983 0.0000 0.0000
# 5 0.0000 0.0000 0.0000 0.0000 25.5875 0.0000
# 6 0.0000 0.0000 0.0000 0.0000 0.0000 18.8411
#
#
#
# Elastic Compliance Matrix: (Units=1/GPa)
#
#
# Indices 1 2 3 4 5 6 
#
# 1 0.029761 0.009452 -0.016952 0.000000 0.000000 0.000000
# 2 0.009452 0.025055 -0.012756 0.000000 0.000000 0.000000
# 3 -0.016952 -0.012756 0.024159 0.000000 0.000000 0.000000
# 4 0.000000 0.000000 0.000000 0.050256 0.000000 0.000000
# 5 0.000000 0.000000 0.000000 0.000000 0.039082 0.000000
# 6 0.000000 0.000000 0.000000 0.000000 0.000000 0.053076
#
#
# Mechanical properties :
#
#
# Convention : Reuss Voigt Hill
#
# Bulk Modulus (GPa) = 25.99906 35.90788 30.95347
# Shear Modulus (GPa) = 18.20026 21.46377 19.83201
#
# Velocity S-wave (km/s) = 3.01148 3.27035 3.14358
# Velocity P-wave (km/s) = 5.00470 5.67034 5.34789
#
# Compressibility (1/GPa) = 0.03846293
#
# Stress axis : x y z
#
# Youngs Moduli (GPa) = 33.60058 39.91225 41.39245
#
# Poissons Ratio (x) = -0.37725 0.70168
# Poissons Ratio (y) = -0.31759 0.52801
# Poissons Ratio (z) = 0.56959 0.50913
#
# Static dielectric constant tensor:
#      x y z
#    x 1.771180 0.000000 0.000000 
#    y 0.000000 1.729520 0.000000 
#    z 0.000000 0.000000 1.713140 
# 
# From -- ./inp_files/45240.got.cif
#   From: 2010.05.17/outbox.cif.g08.bks.cpg/sg64_23_cif.got.tgz:45240.got - 2010.06.03 16:29:19.
