data_PCOD9477268
_publ_section_title
;
Structure prediction by ZEFSAII (Michael W. Deem and Ramdas Pophale) SiO2 
 PCOD9477268
Probable space group: C M C A
;
_chemical_formula_sum "Si O2"
_cell_formula_units_Z 128
_cell_length_a 16.780523
_cell_length_b 16.887664
_cell_length_c 22.018528
_cell_angle_alpha 90.000000
_cell_angle_beta 90.000000
_cell_angle_gamma 90.000000
_cell_volume 6239.694887
_symmetry_space_group_name_H-M "C M C A"
_symmetry_group_IT_number 64
_symmetry_cell_setting 'orthorhombic'
loop_
_space_group_symop_operation_xyz
x,y,z
-x,1/2-y,1/2+z
x,-y,-z
-x,1/2+y,1/2-z
-x,-y,-z
x,1/2+y,1/2-z
-x,y,z
x,1/2-y,1/2+z
1/2+x,1/2+y,z
1/2-x,-y,1/2+z
1/2+x,1/2-y,-z
1/2-x,y,1/2-z
1/2-x,1/2-y,-z
1/2+x,y,1/2-z
1/2-x,1/2+y,z
1/2+x,-y,1/2+z
loop_
_atom_site_type_symbol
_atom_site_label
_atom_site_fract_x
_atom_site_fract_y
_atom_site_fract_z
Si Si1 0.669173 0.182719 0.610756
Si Si2 0.659460 0.999962 0.818888
Si Si3 0.658328 0.635930 0.604297
Si Si4 0.319107 0.819405 0.801318
Si Si5 0.590651 0.887736 0.606473
Si Si6 0.157298 0.269647 0.514097
Si Si7 0.411829 0.256646 0.299532
Si Si8 0.650577 0.535011 0.816501
O O1 0.747906 0.134455 0.589371
O O2 0.701734 0.261410 0.643855
O O3 0.621316 0.210794 0.551826
O O4 0.630031 0.121376 0.657434
O O5 0.656602 0.905548 0.823834
O O6 0.627972 0.049175 0.876990
O O7 0.622900 0.022091 0.752997
O O8 0.753479 0.022915 0.814970
O O9 0.623182 0.694781 0.552849
O O10 0.646743 0.681542 0.668699
O O11 0.250000 0.828136 0.750000
O O12 0.388145 0.772907 0.766240
O O13 0.500000 0.895261 0.583530
O O14 0.645464 0.847670 0.555257
O O15 0.590605 0.822499 0.659858
O O16 0.618392 0.968617 0.637456
O O17 0.250000 0.250000 0.500000
O O18 0.500000 0.290798 0.302283
#
# Coordination Sequence:
#
# PCOD9477268 Si02
#       8
#    16  16  16  16  16  16  16  16
#     4  10  21  33  56  81 110 150 199 246 284 352
#     4  10  19  30  54  83 110 144 188 247 299 358
#     4   9  18  35  53  76 111 148 192 243 291 348
#     4  12  19  33  57  80 112 150 186 235 304 360
#     4  10  20  37  60  84 120 160 192 241 309 369
#     4   9  20  36  56  80 112 155 207 247 290 351
#     4  10  19  33  54  82 109 142 185 230 292 360
#     4  10  19  33  51  86 113 141 195 242 298 362
#
# _framework density 20.513824
#
# number of rings (size 3 to 8) (size 9 to 14) (size 15 to 20)
#    0.000    2.000    3.750    0.750    5.250    0.500 
#    0.000    5.625    0.000    0.000    0.000    0.000 
#    0.000    5.000    0.000    0.000    0.000    0.000 
#
# Total GULP energy -356468.059332 kJ/mol
# GULP energy per Si atom -5569.813427 kJ/mol
# Density = 2.046713 g / cm^3
# Si number density = 20.513824 Si / 1000 Ang^3
#
#
#
# Elastic Constant Matrix: (Units=GPa)
#
#
# Indices 1 2 3 4 5 6 
#
# 1 27.5529 16.5877 21.3996 0.0000 0.0000 0.0000
# 2 16.5877 129.3095 58.1458 0.0000 0.0000 0.0000
# 3 21.3996 58.1458 88.4810 0.0000 0.0000 0.0000
# 4 0.0000 0.0000 0.0000 29.0527 0.0000 0.0000
# 5 0.0000 0.0000 0.0000 0.0000 5.9844 0.0000
# 6 0.0000 0.0000 0.0000 0.0000 0.0000 6.6186
#
#
#
# Elastic Compliance Matrix: (Units=1/GPa)
#
#
# Indices 1 2 3 4 5 6 
#
# 1 0.044828 -0.001242 -0.010025 0.000000 0.000000 0.000000
# 2 -0.001242 0.011012 -0.006936 0.000000 0.000000 0.000000
# 3 -0.010025 -0.006936 0.018284 0.000000 0.000000 0.000000
# 4 0.000000 0.000000 0.000000 0.034420 0.000000 0.000000
# 5 0.000000 0.000000 0.000000 0.000000 0.167101 0.000000
# 6 0.000000 0.000000 0.000000 0.000000 0.000000 0.151089
#
#
# Mechanical properties :
#
#
# Convention : Reuss Voigt Hill
#
# Bulk Modulus (GPa) = 26.51332 48.62329 37.56831
# Shear Modulus (GPa) = 10.51052 18.27849 14.39451
#
# Velocity S-wave (km/s) = 2.26600 2.98826 2.65183
# Velocity P-wave (km/s) = 4.44961 5.97163 5.26590
#
# Compressibility (1/GPa) = 0.03771689
#
# Stress axis : x y z
#
# Youngs Moduli (GPa) = 22.30731 90.81384 54.69120
#
# Poissons Ratio (x) = 0.11283 0.54831
# Poissons Ratio (y) = 0.02772 0.37933
# Poissons Ratio (z) = 0.22364 0.62987
#
# Static dielectric constant tensor:
#      x y z
#    x 1.768790 0.000000 0.000000 
#    y 0.000000 1.753130 0.000000 
#    z 0.000000 0.000000 1.796590 
# 
# From -- ./inp_files/41169.got.cif
#   From: 2010.05.17/outbox.cif.g08.bks.cpg/sg64_21_cif.got.tgz:41169.got - 2010.06.03 16:29:19.
