data_PCOD9477578
_publ_section_title
;
Structure prediction by ZEFSAII (Michael W. Deem and Ramdas Pophale) SiO2 
 PCOD9477578
Probable space group: C M C A
;
_chemical_formula_sum "Si O2"
_cell_formula_units_Z 96
_cell_length_a 22.524310
_cell_length_b 21.821814
_cell_length_c 11.113099
_cell_angle_alpha 90.000000
_cell_angle_beta 90.000000
_cell_angle_gamma 90.000000
_cell_volume 5462.324904
_symmetry_space_group_name_H-M "C M C A"
_symmetry_group_IT_number 64
_symmetry_cell_setting 'orthorhombic'
loop_
_space_group_symop_operation_xyz
x,y,z
-x,1/2-y,1/2+z
x,-y,-z
-x,1/2+y,1/2-z
-x,-y,-z
x,1/2+y,1/2-z
-x,y,z
x,1/2-y,1/2+z
1/2+x,1/2+y,z
1/2-x,-y,1/2+z
1/2+x,1/2-y,-z
1/2-x,y,1/2-z
1/2-x,1/2-y,-z
1/2+x,y,1/2-z
1/2-x,1/2+y,z
1/2+x,-y,1/2+z
loop_
_atom_site_type_symbol
_atom_site_label
_atom_site_fract_x
_atom_site_fract_y
_atom_site_fract_z
Si Si1 0.841383 0.399761 0.217840
Si Si2 0.070657 0.070587 0.524330
Si Si3 0.241275 0.333374 0.621845
Si Si4 0.638303 0.739603 0.684993
Si Si5 0.377165 0.806428 0.926823
Si Si6 0.773872 0.935309 0.063153
O O1 0.903136 0.415451 0.155769
O O2 0.840774 0.326592 0.232880
O O3 0.825869 0.434155 0.339328
O O4 0.788204 0.418588 0.127937
O O5 0.098700 0.123888 0.439882
O O6 0.000000 0.075540 0.518069
O O7 0.087787 0.000000 0.500000
O O8 0.250000 0.366510 0.750000
O O9 0.195911 0.279281 0.650620
O O10 0.305207 0.310355 0.576586
O O11 0.214698 0.380767 0.529077
O O12 0.606670 0.726757 0.554676
O O13 0.607079 0.773641 0.799394
O O14 0.768359 0.000000 0.000000
#
# Coordination Sequence:
#
# PCOD9477578 Si02
#       6
#    16  16  16  16  16  16
#     4  10  22  34  57  79 118 151 194 234 286 361
#     4  10  21  40  62  79 104 150 205 252 287 335
#     4  10  20  29  52  78 117 154 188 222 276 353
#     4  10  19  33  53  81 116 154 181 227 280 348
#     4  10  20  32  54  83 113 144 193 238 273 344
#     4  11  22  32  49  83 121 154 179 234 291 346
#
# _framework density 17.574933999999999
#
# number of rings (size 3 to 8) (size 9 to 14) (size 15 to 20)
#    0.000    1.833    3.333    2.000    9.333    1.333 
#    0.000    3.333    0.000    0.500    0.000    7.000 
#    0.000    0.000    0.000    0.000    0.000    0.000 
#
# Total GULP energy -267397.063274 kJ/mol
# GULP energy per Si atom -5570.772152 kJ/mol
# Density = 1.753493 g / cm^3
# Si number density = 17.574934 Si / 1000 Ang^3
#
#
#
# Elastic Constant Matrix: (Units=GPa)
#
#
# Indices 1 2 3 4 5 6 
#
# 1 21.8173 23.9613 11.6854 0.0000 0.0000 0.0000
# 2 23.9613 119.2459 50.6301 0.0000 0.0000 0.0000
# 3 11.6854 50.6301 118.2984 0.0000 0.0000 0.0000
# 4 0.0000 0.0000 0.0000 23.3165 0.0000 0.0000
# 5 0.0000 0.0000 0.0000 0.0000 12.9409 0.0000
# 6 0.0000 0.0000 0.0000 0.0000 0.0000 15.6348
#
#
#
# Elastic Compliance Matrix: (Units=1/GPa)
#
#
# Indices 1 2 3 4 5 6 
#
# 1 0.058897 -0.011444 -0.000920 0.000000 0.000000 0.000000
# 2 -0.011444 0.012472 -0.004207 0.000000 0.000000 0.000000
# 3 -0.000920 -0.004207 0.010345 0.000000 0.000000 0.000000
# 4 0.000000 0.000000 0.000000 0.042888 0.000000 0.000000
# 5 0.000000 0.000000 0.000000 0.000000 0.077274 0.000000
# 6 0.000000 0.000000 0.000000 0.000000 0.000000 0.063960
#
#
# Mechanical properties :
#
#
# Convention : Reuss Voigt Hill
#
# Bulk Modulus (GPa) = 20.58857 47.99056 34.28956
# Shear Modulus (GPa) = 15.86453 21.91744 18.89099
#
# Velocity S-wave (km/s) = 3.00772 3.53524 3.28210
# Velocity P-wave (km/s) = 4.87873 6.63547 5.82372
#
# Compressibility (1/GPa) = 0.04857065
#
# Stress axis : x y z
#
# Youngs Moduli (GPa) = 16.97892 80.17934 96.66712
#
# Poissons Ratio (x) = 0.91758 0.08891
# Poissons Ratio (y) = 0.19431 0.40672
# Poissons Ratio (z) = 0.01562 0.33735
#
# Static dielectric constant tensor:
#      x y z
#    x 1.581200 0.000000 0.000000 
#    y 0.000000 1.607050 0.000000 
#    z 0.000000 0.000000 1.669140 
# 
# From -- ./inp_files/18489.got.cif
#   From: 2010.05.17/outbox.cif.g08.bks.cpg/sg64_10_cif.got.tgz:18489.got - 2010.06.03 16:29:19.
