data_PCOD9477153
_publ_section_title
;
Structure prediction by ZEFSAII (Michael W. Deem and Ramdas Pophale) SiO2 
 PCOD9477153
Probable space group: C M C A
;
_chemical_formula_sum "Si O2"
_cell_formula_units_Z 88
_cell_length_a 29.583903
_cell_length_b 30.696104
_cell_length_c 5.012643
_cell_angle_alpha 90.000000
_cell_angle_beta 90.000000
_cell_angle_gamma 90.000000
_cell_volume 4552.034058
_symmetry_space_group_name_H-M "C M C A"
_symmetry_group_IT_number 64
_symmetry_cell_setting 'orthorhombic'
loop_
_space_group_symop_operation_xyz
x,y,z
-x,1/2-y,1/2+z
x,-y,-z
-x,1/2+y,1/2-z
-x,-y,-z
x,1/2+y,1/2-z
-x,y,z
x,1/2-y,1/2+z
1/2+x,1/2+y,z
1/2-x,-y,1/2+z
1/2+x,1/2-y,-z
1/2-x,y,1/2-z
1/2-x,1/2-y,-z
1/2+x,y,1/2-z
1/2-x,1/2+y,z
1/2+x,-y,1/2+z
loop_
_atom_site_type_symbol
_atom_site_label
_atom_site_fract_x
_atom_site_fract_y
_atom_site_fract_z
Si Si1 0.629313 0.971338 0.764558
Si Si2 0.000000 0.276475 0.061459
Si Si3 0.250000 0.218256 0.750000
Si Si4 0.651866 0.282791 0.214644
Si Si5 0.448039 0.401543 0.722291
Si Si6 0.217437 0.500000 0.000000
Si Si7 0.430134 0.344526 0.218783
O O1 0.593830 0.933147 0.706753
O O2 0.680348 0.035582 0.113144
O O3 0.635593 0.000000 0.500000
O O4 0.606983 0.000000 0.000000
O O5 0.041825 0.304835 0.156798
O O6 0.000000 0.234072 0.250313
O O7 0.250000 0.250000 0.500000
O O8 0.298199 0.196110 0.736244
O O9 0.646104 0.249827 0.463977
O O10 0.618739 0.323345 0.198842
O O11 0.500000 0.418930 0.729280
O O12 0.437298 0.383392 0.428246
O O13 0.446020 0.361961 0.933639
O O14 0.250000 0.512002 0.750000
#
# Coordination Sequence:
#
# PCOD9477153 Si02
#       7
#    16   8   8  16  16   8  16
#     4  10  22  39  66  97 119 157 208 241 292 362
#     4  12  22  36  56  82 114 156 216 258 294 362
#     4   8  16  30  54  78 100 136 184 240 302 344
#     4  10  19  35  57  81 107 147 197 251 295 359
#     4  12  24  42  60  84 127 165 196 249 311 359
#     4  10  18  38  69  98 125 152 194 252 298 350
#     4  12  23  38  57  84 119 163 199 248 315 353
#
# _framework density 19.332018999999999
#
# number of rings (size 3 to 8) (size 9 to 14) (size 15 to 20)
#    0.545    0.727    2.727    4.364    0.000    0.727 
#    0.000    0.000    6.000    0.000    0.000    0.000 
#    0.000    0.000    0.000    0.000    0.000    0.000 
#
# Total GULP energy -244940.611533 kJ/mol
# GULP energy per Si atom -5566.832080 kJ/mol
# Density = 1.928802 g / cm^3
# Si number density = 19.332019 Si / 1000 Ang^3
#
#
#
# Elastic Constant Matrix: (Units=GPa)
#
#
# Indices 1 2 3 4 5 6 
#
# 1 168.0626 35.4243 10.5081 0.0000 0.0000 0.0000
# 2 35.4243 34.2068 6.4723 0.0000 0.0000 0.0000
# 3 10.5081 6.4723 113.9564 0.0000 0.0000 0.0000
# 4 0.0000 0.0000 0.0000 26.8942 0.0000 0.0000
# 5 0.0000 0.0000 0.0000 0.0000 17.1857 0.0000
# 6 0.0000 0.0000 0.0000 0.0000 0.0000 46.5839
#
#
#
# Elastic Compliance Matrix: (Units=1/GPa)
#
#
# Indices 1 2 3 4 5 6 
#
# 1 0.007619 -0.007842 -0.000257 0.000000 0.000000 0.000000
# 2 -0.007842 0.037622 -0.001414 0.000000 0.000000 0.000000
# 3 -0.000257 -0.001414 0.008879 0.000000 0.000000 0.000000
# 4 0.000000 0.000000 0.000000 0.037183 0.000000 0.000000
# 5 0.000000 0.000000 0.000000 0.000000 0.058188 0.000000
# 6 0.000000 0.000000 0.000000 0.000000 0.000000 0.021467
#
#
# Mechanical properties :
#
#
# Convention : Reuss Voigt Hill
#
# Bulk Modulus (GPa) = 28.49366 46.78167 37.63766
# Shear Modulus (GPa) = 24.79158 35.72085 30.25622
#
# Velocity S-wave (km/s) = 3.58496 4.30322 3.96040
# Velocity P-wave (km/s) = 5.64863 6.99584 6.35802
#
# Compressibility (1/GPa) = 0.03509553
#
# Stress axis : x y z
#
# Youngs Moduli (GPa) = 131.24898 26.58005 112.62157
#
# Poissons Ratio (x) = 0.20843 0.02897
# Poissons Ratio (y) = 1.02921 0.15921
# Poissons Ratio (z) = 0.03376 0.03758
#
# Static dielectric constant tensor:
#      x y z
#    x 1.705070 0.000000 0.000000 
#    y 0.000000 1.682520 0.000000 
#    z 0.000000 0.000000 1.684700 
# 
# From -- ./inp_files/3337.got.cif
#   From: 2010.05.17/outbox.cif.g08.bks.cpg/sg64_2_cif.got.tgz:3337.got - 2010.06.03 16:29:19.
