data_PCOD9477109
_publ_section_title
;
Structure prediction by ZEFSAII (Michael W. Deem and Ramdas Pophale) SiO2 
 PCOD9477109
Probable space group: C M C A
;
_chemical_formula_sum "Si O2"
_cell_formula_units_Z 72
_cell_length_a 11.049818
_cell_length_b 9.028084
_cell_length_c 26.664287
_cell_angle_alpha 90.000000
_cell_angle_beta 90.000000
_cell_angle_gamma 90.000000
_cell_volume 2659.994210
_symmetry_space_group_name_H-M "C M C A"
_symmetry_group_IT_number 64
_symmetry_cell_setting 'orthorhombic'
loop_
_space_group_symop_operation_xyz
x,y,z
-x,1/2-y,1/2+z
x,-y,-z
-x,1/2+y,1/2-z
-x,-y,-z
x,1/2+y,1/2-z
-x,y,z
x,1/2-y,1/2+z
1/2+x,1/2+y,z
1/2-x,-y,1/2+z
1/2+x,1/2-y,-z
1/2-x,y,1/2-z
1/2-x,1/2-y,-z
1/2+x,y,1/2-z
1/2-x,1/2+y,z
1/2+x,-y,1/2+z
loop_
_atom_site_type_symbol
_atom_site_label
_atom_site_fract_x
_atom_site_fract_y
_atom_site_fract_z
Si Si1 0.751178 0.323060 0.596594
Si Si2 0.500000 0.566167 0.294785
Si Si3 0.233431 0.352291 0.196324
Si Si4 0.000000 0.698931 0.612450
Si Si5 0.135172 0.922482 0.446653
Si Si6 0.000000 0.494448 0.686867
O O1 0.786288 0.264719 0.651564
O O2 0.619465 0.252119 0.585136
O O3 0.838826 0.250521 0.556176
O O4 0.727214 0.495080 0.590543
O O5 0.380740 0.464121 0.302951
O O6 0.500000 0.698379 0.335577
O O7 0.500000 0.613948 0.235566
O O8 0.250000 0.773129 0.250000
O O9 0.364115 0.433699 0.193024
O O10 0.000000 0.523620 0.626234
O O11 0.000000 0.946166 0.427811
O O12 0.147655 0.000000 0.500000
#
# Coordination Sequence:
#
# PCOD9477109 Si02
#       6
#    16   8  16   8  16   8
#     4  11  22  43  71 101 142 182 229 287 356 412
#     4  10  18  36  62  86 135 190 234 289 339 408
#     4   9  19  35  62  99 138 182 235 279 341 418
#     4  10  20  38  62  90 130 181 219 289 350 402
#     4  11  25  47  74 104 138 182 234 295 363 427
#     4   8  18  36  52  86 128 175 228 282 334 396
#
# _framework density 27.067729
#
# number of rings (size 3 to 8) (size 9 to 14) (size 15 to 20)
#    0.000    2.000    1.111    2.000    1.556    0.000 
#    2.000   48.333    2.444    0.000    0.000    0.000 
#    0.000    0.000    0.000    0.000    0.000    0.000 
#
# Total GULP energy -201077.897775 kJ/mol
# GULP energy per Si atom -5585.497160 kJ/mol
# Density = 2.700612 g / cm^3
# Si number density = 27.067729 Si / 1000 Ang^3
#
#
#
# Elastic Constant Matrix: (Units=GPa)
#
#
# Indices 1 2 3 4 5 6 
#
# 1 142.9508 48.2467 18.7208 0.0000 0.0000 0.0000
# 2 48.2467 101.7126 18.6828 0.0000 0.0000 0.0000
# 3 18.7208 18.6828 60.2979 0.0000 0.0000 0.0000
# 4 0.0000 0.0000 0.0000 29.1110 0.0000 0.0000
# 5 0.0000 0.0000 0.0000 0.0000 32.9976 0.0000
# 6 0.0000 0.0000 0.0000 0.0000 0.0000 44.0626
#
#
#
# Elastic Compliance Matrix: (Units=1/GPa)
#
#
# Indices 1 2 3 4 5 6 
#
# 1 0.008449 -0.003739 -0.001465 0.000000 0.000000 0.000000
# 2 -0.003739 0.012079 -0.002582 0.000000 0.000000 0.000000
# 3 -0.001465 -0.002582 0.017839 0.000000 0.000000 0.000000
# 4 0.000000 0.000000 0.000000 0.034351 0.000000 0.000000
# 5 0.000000 0.000000 0.000000 0.000000 0.030305 0.000000
# 6 0.000000 0.000000 0.000000 0.000000 0.000000 0.022695
#
#
# Mechanical properties :
#
#
# Convention : Reuss Voigt Hill
#
# Bulk Modulus (GPa) = 43.86609 52.91801 48.39205
# Shear Modulus (GPa) = 33.58215 35.85499 34.71857
#
# Velocity S-wave (km/s) = 3.52614 3.64351 3.58530
# Velocity P-wave (km/s) = 5.72882 6.10679 5.92082
#
# Compressibility (1/GPa) = 0.02279665
#
# Stress axis : x y z
#
# Youngs Moduli (GPa) = 118.35613 82.78619 56.05663
#
# Poissons Ratio (x) = 0.30951 0.08211
# Poissons Ratio (y) = 0.44250 0.14473
# Poissons Ratio (z) = 0.17337 0.21375
#
# Static dielectric constant tensor:
#      x y z
#    x 2.071330 0.000000 0.000000 
#    y 0.000000 2.152910 0.000000 
#    z 0.000000 0.000000 2.158990 
# 
# From -- ./inp_files/52535.got.cif
#   From: 2010.05.17/outbox.cif.g08.bks.cpg/sg64_27_cif.got.tgz:52535.got - 2010.06.03 16:29:19.
