data_PCOD9477793
_publ_section_title
;
Structure prediction by ZEFSAII (Michael W. Deem and Ramdas Pophale) SiO2 
 PCOD9477793
Probable space group: C M C A
;
_chemical_formula_sum "Si O2"
_cell_formula_units_Z 112
_cell_length_a 15.671519
_cell_length_b 22.289037
_cell_length_c 16.347090
_cell_angle_alpha 90.000000
_cell_angle_beta 90.000000
_cell_angle_gamma 90.000000
_cell_volume 5710.088671
_symmetry_space_group_name_H-M "C M C A"
_symmetry_group_IT_number 64
_symmetry_cell_setting 'orthorhombic'
loop_
_space_group_symop_operation_xyz
x,y,z
-x,1/2-y,1/2+z
x,-y,-z
-x,1/2+y,1/2-z
-x,-y,-z
x,1/2+y,1/2-z
-x,y,z
x,1/2-y,1/2+z
1/2+x,1/2+y,z
1/2-x,-y,1/2+z
1/2+x,1/2-y,-z
1/2-x,y,1/2-z
1/2-x,1/2-y,-z
1/2+x,y,1/2-z
1/2-x,1/2+y,z
1/2+x,-y,1/2+z
loop_
_atom_site_type_symbol
_atom_site_label
_atom_site_fract_x
_atom_site_fract_y
_atom_site_fract_z
Si Si1 0.778423 0.225164 0.162168
Si Si2 0.900815 0.884948 0.857424
Si Si3 0.648528 0.861935 0.916732
Si Si4 0.402122 0.537697 0.293676
Si Si5 0.697166 0.570739 0.997410
Si Si6 0.204837 0.578249 0.834158
Si Si7 0.904461 0.678861 0.909580
O O1 0.750000 0.250225 0.250000
O O2 0.841320 0.168474 0.174169
O O3 0.696120 0.196322 0.118960
O O4 0.832075 0.271502 0.107950
O O5 0.881953 0.942346 0.799513
O O6 0.878801 0.898029 0.952242
O O7 0.000000 0.870738 0.847433
O O8 0.603104 0.901624 0.847876
O O9 0.721068 0.906722 0.951497
O O10 0.596666 0.841214 0.995826
O O11 0.500000 0.515520 0.297295
O O12 0.336164 0.488079 0.325781
O O13 0.684803 0.500000 0.000000
O O14 0.723908 0.585309 0.904941
O O15 0.250000 0.593738 0.750000
O O16 0.127259 0.622010 0.857446
O O17 0.000000 0.698707 0.887130
#
# Coordination Sequence:
#
# PCOD9477793 Si02
#       7
#    16  16  16  16  16  16  16
#     4  11  21  39  66  87 118 160 212 251 299 362
#     4  10  22  37  59  92 123 158 204 259 311 353
#     4  10  21  37  62  91 118 157 201 253 305 367
#     4  11  21  36  62  95 123 154 202 261 312 357
#     4  10  19  34  57  85 118 156 195 241 301 363
#     4  11  23  39  62  87 123 166 209 244 302 376
#     4  11  24  41  58  86 127 163 200 254 308 362
#
# _framework density 19.614407
#
# number of rings (size 3 to 8) (size 9 to 14) (size 15 to 20)
#    0.000    1.429    2.857    3.000    2.000    0.286 
#    0.000    3.571    0.000    0.000    0.000    0.000 
#    0.000    0.000    0.000    0.000    0.000    0.000 
#
# Total GULP energy -312464.920283 kJ/mol
# GULP energy per Si atom -5579.730719 kJ/mol
# Density = 1.956976 g / cm^3
# Si number density = 19.614407 Si / 1000 Ang^3
#
#
#
# Elastic Constant Matrix: (Units=GPa)
#
#
# Indices 1 2 3 4 5 6 
#
# 1 68.8491 17.8929 33.9083 0.0000 0.0000 0.0000
# 2 17.8929 55.8501 10.1863 0.0000 0.0000 0.0000
# 3 33.9083 10.1863 100.8848 0.0000 0.0000 0.0000
# 4 0.0000 0.0000 0.0000 15.5901 0.0000 0.0000
# 5 0.0000 0.0000 0.0000 0.0000 13.1169 0.0000
# 6 0.0000 0.0000 0.0000 0.0000 0.0000 115.5680
#
#
#
# Elastic Compliance Matrix: (Units=1/GPa)
#
#
# Indices 1 2 3 4 5 6 
#
# 1 0.018645 -0.004921 -0.005770 0.000000 0.000000 0.000000
# 2 -0.004921 0.019540 -0.000319 0.000000 0.000000 0.000000
# 3 -0.005770 -0.000319 0.011884 0.000000 0.000000 0.000000
# 4 0.000000 0.000000 0.000000 0.064143 0.000000 0.000000
# 5 0.000000 0.000000 0.000000 0.000000 0.076238 0.000000
# 6 0.000000 0.000000 0.000000 0.000000 0.000000 0.008653
#
#
# Mechanical properties :
#
#
# Convention : Reuss Voigt Hill
#
# Bulk Modulus (GPa) = 35.65191 38.83988 37.24589
# Shear Modulus (GPa) = 21.69461 39.76145 30.72803
#
# Velocity S-wave (km/s) = 3.32935 4.50728 3.96233
# Velocity P-wave (km/s) = 5.74415 6.85070 6.32168
#
# Compressibility (1/GPa) = 0.02804899
#
# Stress axis : x y z
#
# Youngs Moduli (GPa) = 53.63339 51.17757 84.14810
#
# Poissons Ratio (x) = 0.25185 0.48553
# Poissons Ratio (y) = 0.26393 0.02684
# Poissons Ratio (z) = 0.30946 0.01632
#
# Static dielectric constant tensor:
#      x y z
#    x 1.681700 0.000000 0.000000 
#    y 0.000000 1.690650 0.000000 
#    z 0.000000 0.000000 1.699400 
# 
# From -- ./inp_files/24290.got.cif
#   From: 2010.05.17/outbox.cif.g08.bks.cpg/sg64_13_cif.got.tgz:24290.got - 2010.06.03 16:29:19.
