data_PCOD9477830
_publ_section_title
;
Structure prediction by ZEFSAII (Michael W. Deem and Ramdas Pophale) SiO2 
 PCOD9477830
Probable space group: C M C A
;
_chemical_formula_sum "Si O2"
_cell_formula_units_Z 88
_cell_length_a 14.291673
_cell_length_b 15.002378
_cell_length_c 19.921505
_cell_angle_alpha 90.000000
_cell_angle_beta 90.000000
_cell_angle_gamma 90.000000
_cell_volume 4271.351571
_symmetry_space_group_name_H-M "C M C A"
_symmetry_group_IT_number 64
_symmetry_cell_setting 'orthorhombic'
loop_
_space_group_symop_operation_xyz
x,y,z
-x,1/2-y,1/2+z
x,-y,-z
-x,1/2+y,1/2-z
-x,-y,-z
x,1/2+y,1/2-z
-x,y,z
x,1/2-y,1/2+z
1/2+x,1/2+y,z
1/2-x,-y,1/2+z
1/2+x,1/2-y,-z
1/2-x,y,1/2-z
1/2-x,1/2-y,-z
1/2+x,y,1/2-z
1/2-x,1/2+y,z
1/2+x,-y,1/2+z
loop_
_atom_site_type_symbol
_atom_site_label
_atom_site_fract_x
_atom_site_fract_y
_atom_site_fract_z
Si Si1 0.500000 0.000577 0.845077
Si Si2 0.396014 0.470360 0.921921
Si Si3 0.000000 0.288164 0.819801
Si Si4 0.136136 0.742521 0.427628
Si Si5 0.000000 0.187034 0.682685
Si Si6 0.691762 0.982724 0.920673
Si Si7 0.344665 0.225603 0.076877
O O1 0.500000 0.897216 0.821571
O O2 0.595556 0.015214 0.887393
O O3 0.500000 0.083957 0.794553
O O4 0.500000 0.493418 0.894032
O O5 0.384087 0.363008 0.919305
O O6 0.296342 0.508437 0.894712
O O7 0.397753 0.500000 0.000000
O O8 0.911752 0.252348 0.862072
O O9 0.000000 0.252263 0.745317
O O10 0.085289 0.790734 0.367069
O O11 0.244572 0.772717 0.425321
O O12 0.107632 0.764355 0.504201
O O13 0.682887 0.876787 0.913082
O O14 0.689132 0.000000 0.000000
#
# Coordination Sequence:
#
# PCOD9477830 Si02
#       7
#     8  16   8  16   8  16  16
#     4  10  21  38  58  83 114 156 213 249 298 368
#     4   9  17  30  49  81 123 157 190 244 307 362
#     4  10  23  41  58  85 125 162 195 249 310 363
#     4  10  19  34  59  91 117 152 207 247 299 361
#     4  12  23  37  63  88 118 162 204 254 295 371
#     4   9  16  29  54  86 118 150 192 248 305 356
#     4   9  19  35  58  86 122 154 188 251 304 354
#
# _framework density 20.602377000000001
#
# number of rings (size 3 to 8) (size 9 to 14) (size 15 to 20)
#    0.000    2.364    0.909    1.909    0.000    3.636 
#    0.000    1.818    0.000    6.545    0.000    0.000 
#    0.000    0.000    0.000    0.000    0.000    0.000 
#
# Total GULP energy -245030.944788 kJ/mol
# GULP energy per Si atom -5568.885109 kJ/mol
# Density = 2.055549 g / cm^3
# Si number density = 20.602377 Si / 1000 Ang^3
#
#
#
# Elastic Constant Matrix: (Units=GPa)
#
#
# Indices 1 2 3 4 5 6 
#
# 1 185.8087 26.6235 55.2462 0.0000 0.0000 0.0000
# 2 26.6235 56.2660 27.1627 0.0000 0.0000 0.0000
# 3 55.2462 27.1627 101.9146 0.0000 0.0000 0.0000
# 4 0.0000 0.0000 0.0000 22.7880 0.0000 0.0000
# 5 0.0000 0.0000 0.0000 0.0000 28.5740 0.0000
# 6 0.0000 0.0000 0.0000 0.0000 0.0000 15.1063
#
#
#
# Elastic Compliance Matrix: (Units=1/GPa)
#
#
# Indices 1 2 3 4 5 6 
#
# 1 0.006537 -0.001587 -0.003121 0.000000 0.000000 0.000000
# 2 -0.001587 0.020782 -0.004679 0.000000 0.000000 0.000000
# 3 -0.003121 -0.004679 0.012751 0.000000 0.000000 0.000000
# 4 0.000000 0.000000 0.000000 0.043883 0.000000 0.000000
# 5 0.000000 0.000000 0.000000 0.000000 0.034997 0.000000
# 6 0.000000 0.000000 0.000000 0.000000 0.000000 0.066197
#
#
# Mechanical properties :
#
#
# Convention : Reuss Voigt Hill
#
# Bulk Modulus (GPa) = 46.95351 62.45047 54.70199
# Shear Modulus (GPa) = 23.69454 28.95745 26.32600
#
# Velocity S-wave (km/s) = 3.39497 3.75312 3.57853
# Velocity P-wave (km/s) = 6.18123 7.01137 6.60935
#
# Compressibility (1/GPa) = 0.02129766
#
# Stress axis : x y z
#
# Youngs Moduli (GPa) = 152.97267 48.11801 78.42572
#
# Poissons Ratio (x) = 0.07634 0.24475
# Poissons Ratio (y) = 0.24271 0.36695
# Poissons Ratio (z) = 0.47740 0.22514
#
# Static dielectric constant tensor:
#      x y z
#    x 1.853310 0.000000 0.000000 
#    y 0.000000 1.777480 0.000000 
#    z 0.000000 0.000000 1.642570 
# 
# From -- ./inp_files/32206.got.cif
#   From: 2010.05.17/outbox.cif.g08.bks.cpg/sg64_17_cif.got.tgz:32206.got - 2010.06.03 16:29:19.
