data_PCOD9477789
_publ_section_title
;
Structure prediction by ZEFSAII (Michael W. Deem and Ramdas Pophale) SiO2 
 PCOD9477789
Probable space group: C M C A
;
_chemical_formula_sum "Si O2"
_cell_formula_units_Z 96
_cell_length_a 8.582221
_cell_length_b 21.189048
_cell_length_c 29.118494
_cell_angle_alpha 90.000000
_cell_angle_beta 90.000000
_cell_angle_gamma 90.000000
_cell_volume 5295.171715
_symmetry_space_group_name_H-M "C M C A"
_symmetry_group_IT_number 64
_symmetry_cell_setting 'orthorhombic'
loop_
_space_group_symop_operation_xyz
x,y,z
-x,1/2-y,1/2+z
x,-y,-z
-x,1/2+y,1/2-z
-x,-y,-z
x,1/2+y,1/2-z
-x,y,z
x,1/2-y,1/2+z
1/2+x,1/2+y,z
1/2-x,-y,1/2+z
1/2+x,1/2-y,-z
1/2-x,y,1/2-z
1/2-x,1/2-y,-z
1/2+x,y,1/2-z
1/2-x,1/2+y,z
1/2+x,-y,1/2+z
loop_
_atom_site_type_symbol
_atom_site_label
_atom_site_fract_x
_atom_site_fract_y
_atom_site_fract_z
Si Si1 0.810068 0.250598 0.103980
Si Si2 0.186764 0.993969 0.105963
Si Si3 0.687086 0.124516 0.951411
Si Si4 0.311233 0.377829 0.945251
Si Si5 0.813406 0.449154 0.200489
Si Si6 0.687587 0.698433 0.700740
O O1 0.762143 0.310490 0.073215
O O2 0.759324 0.185007 0.081633
O O3 0.758854 0.262652 0.156344
O O4 0.000000 0.250268 0.104467
O O5 0.250550 0.934846 0.077152
O O6 0.247251 0.987629 0.157787
O O7 0.000000 0.991590 0.105987
O O8 0.235965 0.059005 0.081700
O O9 0.500000 0.122765 0.950696
O O10 0.746604 0.122052 0.003332
O O11 0.500000 0.377127 0.947642
O O12 0.750000 0.469766 0.250000
O O13 0.766534 0.375240 0.194439
O O14 0.000000 0.451760 0.200232
O O15 0.500000 0.700047 0.702029
O O16 0.750000 0.720015 0.750000
#
# Coordination Sequence:
#
# PCOD9477789 Si02
#       6
#    16  16  16  16  16  16
#     4   9  18  36  57  78 108 143 179 222 274 323
#     4  11  22  36  55  81 112 147 184 221 270 325
#     4  11  21  36  58  81 106 142 186 232 275 319
#     4  10  22  38  55  77 110 148 182 223 273 328
#     4  10  19  34  57  84 111 140 180 226 272 319
#     4   9  17  32  54  80 106 134 172 218 266 314
#
# _framework density 18.129724
#
# number of rings (size 3 to 8) (size 9 to 14) (size 15 to 20)
#    0.000    2.000    1.667    2.500    0.000    4.000 
#    0.000    2.500    0.000    2.000    0.000    0.000 
#    0.000    0.000    0.000    0.000    0.000    0.000 
#
# Total GULP energy -268026.049535 kJ/mol
# GULP energy per Si atom -5583.876032 kJ/mol
# Density = 1.808846 g / cm^3
# Si number density = 18.129724 Si / 1000 Ang^3
#
#
#
# Elastic Constant Matrix: (Units=GPa)
#
#
# Indices 1 2 3 4 5 6 
#
# 1 19.6112 25.1497 28.4269 0.0000 0.0000 0.0000
# 2 25.1497 136.5136 89.2224 0.0000 0.0000 0.0000
# 3 28.4269 89.2224 194.8949 0.0000 0.0000 0.0000
# 4 0.0000 0.0000 0.0000 -6.5849 0.0000 0.0000
# 5 0.0000 0.0000 0.0000 0.0000 34.8230 0.0000
# 6 0.0000 0.0000 0.0000 0.0000 0.0000 16.9294
#
#
#
# Elastic Compliance Matrix: (Units=1/GPa)
#
#
# Indices 1 2 3 4 5 6 
#
# 1 0.071811 -0.009110 -0.006304 0.000000 0.000000 0.000000
# 2 -0.009110 0.011608 -0.003986 0.000000 0.000000 0.000000
# 3 -0.006304 -0.003986 0.007875 0.000000 0.000000 0.000000
# 4 0.000000 0.000000 0.000000 -0.151861 0.000000 0.000000
# 5 0.000000 0.000000 0.000000 0.000000 0.028717 0.000000
# 6 0.000000 0.000000 0.000000 0.000000 0.000000 0.059069
#
#
# Mechanical properties :
#
#
# Convention : Reuss Voigt Hill
#
# Bulk Modulus (GPa) = 19.04888 70.73530 44.89209
# Shear Modulus (GPa) = 59.86896 22.91486 41.39191
#
# Velocity S-wave (km/s) = 5.75276 3.55905 4.78336
# Velocity P-wave (km/s) = 7.39293 7.48265 7.43792
#
# Compressibility (1/GPa) = 0.05249651
#
# Stress axis : x y z
#
# Youngs Moduli (GPa) = 13.92541 86.14414 126.98355
#
# Poissons Ratio (x) = 0.78474 0.80048
# Poissons Ratio (y) = 0.12686 0.50611
# Poissons Ratio (z) = 0.08778 0.34334
#
# Static dielectric constant tensor:
#      x y z
#    x 1.618900 0.000000 0.000000 
#    y 0.000000 1.607230 0.000000 
#    z 0.000000 0.000000 1.602000 
# 
# From -- ./inp_files/48050.got.cif
#   From: 2010.05.17/outbox.cif.g08.bks.cpg/sg64_25_cif.got.tgz:48050.got - 2010.06.03 16:29:19.
