data_PCOD9477854
_publ_section_title
;
Structure prediction by ZEFSAII (Michael W. Deem and Ramdas Pophale) SiO2 
 PCOD9477854
Probable space group: C M C A
;
_chemical_formula_sum "Si O2"
_cell_formula_units_Z 80
_cell_length_a 25.096217
_cell_length_b 13.409745
_cell_length_c 11.144564
_cell_angle_alpha 90.000000
_cell_angle_beta 90.000000
_cell_angle_gamma 90.000000
_cell_volume 3750.523257
_symmetry_space_group_name_H-M "C M C A"
_symmetry_group_IT_number 64
_symmetry_cell_setting 'orthorhombic'
loop_
_space_group_symop_operation_xyz
x,y,z
-x,1/2-y,1/2+z
x,-y,-z
-x,1/2+y,1/2-z
-x,-y,-z
x,1/2+y,1/2-z
-x,y,z
x,1/2-y,1/2+z
1/2+x,1/2+y,z
1/2-x,-y,1/2+z
1/2+x,1/2-y,-z
1/2-x,y,1/2-z
1/2-x,1/2-y,-z
1/2+x,y,1/2-z
1/2-x,1/2+y,z
1/2+x,-y,1/2+z
loop_
_atom_site_type_symbol
_atom_site_label
_atom_site_fract_x
_atom_site_fract_y
_atom_site_fract_z
Si Si1 0.558303 0.801421 0.056636
Si Si2 0.139598 0.804711 0.644325
Si Si3 0.614832 0.095877 0.734363
Si Si4 0.289776 0.481170 0.639715
Si Si5 0.561347 0.905486 0.662566
O O1 0.500000 0.832139 0.010505
O O2 0.568695 0.853550 0.184450
O O3 0.558671 0.680711 0.062669
O O4 0.608559 0.827929 0.977238
O O5 0.143298 0.687181 0.667136
O O6 0.194117 0.864746 0.647818
O O7 0.099491 0.851198 0.741946
O O8 0.656949 0.042178 0.822998
O O9 0.588813 0.012727 0.648281
O O10 0.273805 0.500000 0.500000
O O11 0.250000 0.503506 0.750000
O O12 0.500000 0.920046 0.701884
#
# Coordination Sequence:
#
# PCOD9477854 Si02
#       5
#    16  16  16  16  16
#     4  10  19  34  61  94 131 176 217 262 320 389
#     4  10  21  39  62  90 133 167 217 269 324 393
#     4  10  21  40  61  90 132 175 215 270 326 389
#     4  11  24  48  71  98 127 167 223 281 339 398
#     4   9  19  33  55  91 132 172 217 258 311 382
#
# _framework density 21.330356999999999
#
# number of rings (size 3 to 8) (size 9 to 14) (size 15 to 20)
#    0.000    2.000    2.000    1.200    0.000    4.000 
#   10.800    7.000    0.000    0.000    0.000    0.000 
#    0.000    0.000    0.000    0.000    0.000    0.000 
#
# Total GULP energy -222822.839315 kJ/mol
# GULP energy per Si atom -5570.570983 kJ/mol
# Density = 2.128181 g / cm^3
# Si number density = 21.330357 Si / 1000 Ang^3
#
#
#
# Elastic Constant Matrix: (Units=GPa)
#
#
# Indices 1 2 3 4 5 6 
#
# 1 43.3490 35.1029 32.1145 0.0000 0.0000 0.0000
# 2 35.1029 74.8161 -20.0296 0.0000 0.0000 0.0000
# 3 32.1145 -20.0296 35.6066 0.0000 0.0000 0.0000
# 4 0.0000 0.0000 0.0000 19.6088 0.0000 0.0000
# 5 0.0000 0.0000 0.0000 0.0000 28.5549 0.0000
# 6 0.0000 0.0000 0.0000 0.0000 0.0000 11.8078
#
#
#
# Elastic Compliance Matrix: (Units=1/GPa)
#
#
# Indices 1 2 3 4 5 6 
#
# 1 -0.033224 0.027797 0.045602 0.000000 0.000000 0.000000
# 2 0.027797 -0.007520 -0.029301 0.000000 0.000000 0.000000
# 3 0.045602 -0.029301 -0.029527 0.000000 0.000000 0.000000
# 4 0.000000 0.000000 0.000000 0.050997 0.000000 0.000000
# 5 0.000000 0.000000 0.000000 0.000000 0.035020 0.000000
# 6 0.000000 0.000000 0.000000 0.000000 0.000000 0.084690
#
#
# Mechanical properties :
#
#
# Convention : Reuss Voigt Hill
#
# Bulk Modulus (GPa) = 55.79041 27.57193 41.68117
# Shear Modulus (GPa) = 274.48363 19.09989 146.79176
#
# Velocity S-wave (km/s) = 11.35612 2.99562 8.30468
# Velocity P-wave (km/s) = 14.07696 4.99192 10.56125
#
# Compressibility (1/GPa) = 0.01792423
#
# Stress axis : x y z
#
# Youngs Moduli (GPa) = -30.09886 -132.97662 -33.86725
#
# Poissons Ratio (x) = 3.69631 1.54441
# Poissons Ratio (y) = 0.83665 -0.99234
# Poissons Ratio (z) = 1.37256 -3.89632
#
# Static dielectric constant tensor:
#      x y z
#    x 1.738500 0.000000 0.000000 
#    y 0.000000 1.813530 0.000000 
#    z 0.000000 0.000000 1.828240 
# 
# From -- ./inp_files/18099.got.cif
#   From: 2010.05.17/outbox.cif.g08.bks.cpg/sg64_10_cif.got.tgz:18099.got - 2010.06.03 16:29:19.
