data_PCOD9477508
_publ_section_title
;
Structure prediction by ZEFSAII (Michael W. Deem and Ramdas Pophale) SiO2 
 PCOD9477508
Probable space group: C M C A
;
_chemical_formula_sum "Si O2"
_cell_formula_units_Z 104
_cell_length_a 19.901686
_cell_length_b 9.952120
_cell_length_c 27.800766
_cell_angle_alpha 90.000000
_cell_angle_beta 90.000000
_cell_angle_gamma 90.000000
_cell_volume 5506.330007
_symmetry_space_group_name_H-M "C M C A"
_symmetry_group_IT_number 64
_symmetry_cell_setting 'orthorhombic'
loop_
_space_group_symop_operation_xyz
x,y,z
-x,1/2-y,1/2+z
x,-y,-z
-x,1/2+y,1/2-z
-x,-y,-z
x,1/2+y,1/2-z
-x,y,z
x,1/2-y,1/2+z
1/2+x,1/2+y,z
1/2-x,-y,1/2+z
1/2+x,1/2-y,-z
1/2-x,y,1/2-z
1/2-x,1/2-y,-z
1/2+x,y,1/2-z
1/2-x,1/2+y,z
1/2+x,-y,1/2+z
loop_
_atom_site_type_symbol
_atom_site_label
_atom_site_fract_x
_atom_site_fract_y
_atom_site_fract_z
Si Si1 0.918620 0.932488 0.214959
Si Si2 0.581775 0.351375 0.859949
Si Si3 0.830674 0.749255 0.538909
Si Si4 0.580652 0.780617 0.867410
Si Si5 0.422956 0.131001 0.466352
Si Si6 0.918483 0.067679 0.675298
Si Si7 0.745219 0.000000 0.000000
O O1 0.904810 0.807453 0.180090
O O2 0.893815 0.928177 0.269534
O O3 0.000000 0.940436 0.218410
O O4 0.894347 0.060399 0.184681
O O5 0.500000 0.357880 0.858248
O O6 0.601157 0.401620 0.912684
O O7 0.603980 0.199288 0.852841
O O8 0.875788 0.740193 0.586587
O O9 0.878681 0.742016 0.492131
O O10 0.786005 0.613155 0.531358
O O11 0.793855 0.893901 0.534610
O O12 0.500000 0.766315 0.877560
O O13 0.597029 0.932365 0.852621
O O14 0.500000 0.176309 0.463036
O O15 0.421393 0.000000 0.500000
O O16 0.000000 0.073397 0.677608
#
# Coordination Sequence:
#
# PCOD9477508 Si02
#       7
#    16  16  16  16  16  16   8
#     4   9  16  28  47  75 115 154 180 207 258 338
#     4   9  17  27  43  71 105 144 179 203 259 330
#     4  11  22  42  58  81 108 143 195 239 277 347
#     4  10  20  33  56  88 119 148 179 225 285 338
#     4  10  19  32  55  84 115 143 172 226 288 344
#     4   9  17  29  45  75 118 151 177 212 264 335
#     4  10  26  42  60  74 106 150 198 238 290 320
#
# _framework density 18.887353000000001
#
# number of rings (size 3 to 8) (size 9 to 14) (size 15 to 20)
#    0.000    2.308    0.769    2.308    2.154    6.154 
#    0.000    0.769    0.000    0.000    0.000    3.231 
#    0.000    0.000    0.000    0.000    0.000    0.000 
#
# Total GULP energy -289665.544092 kJ/mol
# GULP energy per Si atom -5570.491233 kJ/mol
# Density = 1.884436 g / cm^3
# Si number density = 18.887353 Si / 1000 Ang^3
#
#
#
# Elastic Constant Matrix: (Units=GPa)
#
#
# Indices 1 2 3 4 5 6 
#
# 1 32.8452 25.5382 24.3373 0.0000 0.0000 0.0000
# 2 25.5382 127.2185 36.4150 0.0000 0.0000 0.0000
# 3 24.3373 36.4150 119.3833 0.0000 0.0000 0.0000
# 4 0.0000 0.0000 0.0000 20.8814 0.0000 0.0000
# 5 0.0000 0.0000 0.0000 0.0000 6.0644 0.0000
# 6 0.0000 0.0000 0.0000 0.0000 0.0000 2.8381
#
#
#
# Elastic Compliance Matrix: (Units=1/GPa)
#
#
# Indices 1 2 3 4 5 6 
#
# 1 0.039908 -0.006226 -0.006236 0.000000 0.000000 0.000000
# 2 -0.006226 0.009584 -0.001654 0.000000 0.000000 0.000000
# 3 -0.006236 -0.001654 0.010152 0.000000 0.000000 0.000000
# 4 0.000000 0.000000 0.000000 0.047890 0.000000 0.000000
# 5 0.000000 0.000000 0.000000 0.000000 0.164897 0.000000
# 6 0.000000 0.000000 0.000000 0.000000 0.000000 0.352350
#
#
# Mechanical properties :
#
#
# Convention : Reuss Voigt Hill
#
# Bulk Modulus (GPa) = 31.83622 50.22531 41.03076
# Shear Modulus (GPa) = 7.53598 18.83387 13.18493
#
# Velocity S-wave (km/s) = 1.99966 3.16122 2.64499
# Velocity P-wave (km/s) = 4.71423 6.32252 5.57665
#
# Compressibility (1/GPa) = 0.03141076
#
# Stress axis : x y z
#
# Youngs Moduli (GPa) = 25.05770 104.34280 98.50023
#
# Poissons Ratio (x) = 0.64965 0.61429
# Poissons Ratio (y) = 0.15601 0.16293
# Poissons Ratio (z) = 0.15627 0.17259
#
# Static dielectric constant tensor:
#      x y z
#    x 1.684300 0.000000 0.000000 
#    y 0.000000 1.691930 0.000000 
#    z 0.000000 0.000000 1.644280 
# 
# From -- ./inp_files/50758.got.cif
#   From: 2010.05.17/outbox.cif.g08.bks.cpg/sg64_26_cif.got.tgz:50758.got - 2010.06.03 16:29:19.
