data_PCOD9477977
_publ_section_title
;
Structure prediction by ZEFSAII (Michael W. Deem and Ramdas Pophale) SiO2 
 PCOD9477977
Probable space group: C M C A
;
_chemical_formula_sum "Si O2"
_cell_formula_units_Z 96
_cell_length_a 7.811282
_cell_length_b 26.281293
_cell_length_c 24.172124
_cell_angle_alpha 90.000000
_cell_angle_beta 90.000000
_cell_angle_gamma 90.000000
_cell_volume 4962.309620
_symmetry_space_group_name_H-M "C M C A"
_symmetry_group_IT_number 64
_symmetry_cell_setting 'orthorhombic'
loop_
_space_group_symop_operation_xyz
x,y,z
-x,1/2-y,1/2+z
x,-y,-z
-x,1/2+y,1/2-z
-x,-y,-z
x,1/2+y,1/2-z
-x,y,z
x,1/2-y,1/2+z
1/2+x,1/2+y,z
1/2-x,-y,1/2+z
1/2+x,1/2-y,-z
1/2-x,y,1/2-z
1/2-x,1/2-y,-z
1/2+x,y,1/2-z
1/2-x,1/2+y,z
1/2+x,-y,1/2+z
loop_
_atom_site_type_symbol
_atom_site_label
_atom_site_fract_x
_atom_site_fract_y
_atom_site_fract_z
Si Si1 0.709700 0.899870 0.877526
Si Si2 0.204395 0.998634 0.314138
Si Si3 0.798449 0.943177 0.507115
Si Si4 0.793871 0.801722 0.686622
Si Si5 0.793477 0.186756 0.813342
Si Si6 0.299203 0.903730 0.389810
O O1 0.500000 0.897967 0.877044
O O2 0.760996 0.946739 0.837995
O O3 0.769385 0.913571 0.939353
O O4 0.770085 0.846040 0.853569
O O5 0.250000 0.992937 0.250000
O O6 0.000000 0.996168 0.320020
O O7 0.277436 0.953308 0.351381
O O8 0.780636 0.914176 0.449450
O O9 0.000000 0.950126 0.518869
O O10 0.723427 0.000000 0.500000
O O11 0.750000 0.814631 0.750000
O O12 0.730211 0.744264 0.675896
O O13 0.000000 0.800051 0.682269
O O14 0.750000 0.173240 0.750000
O O15 0.728594 0.144575 0.856031
O O16 0.000000 0.187165 0.816993
O O17 0.500000 0.895470 0.399209
#
# Coordination Sequence:
#
# PCOD9477977 Si02
#       6
#    16  16  16  16  16  16
#     4   9  18  33  54  76 101 134 172 210 258 309
#     4  11  21  34  51  77 107 135 168 212 260 313
#     4  10  19  36  56  74 100 139 179 213 253 309
#     4   9  17  33  55  77 102 134 169 209 257 308
#     4   9  19  34  53  76 104 135 170 210 255 306
#     4  11  22  35  51  76 105 137 174 214 259 304
#
# _framework density 19.345828999999998
#
# number of rings (size 3 to 8) (size 9 to 14) (size 15 to 20)
#    0.000    2.167    1.667    2.000    0.000    3.000 
#    0.000    2.500    0.000    0.000    0.000    0.000 
#    0.000    0.000    0.000    0.000    0.000    0.000 
#
# Total GULP energy -267948.039088 kJ/mol
# GULP energy per Si atom -5582.250814 kJ/mol
# Density = 1.930180 g / cm^3
# Si number density = 19.345829 Si / 1000 Ang^3
#
#
#
# Elastic Constant Matrix: (Units=GPa)
#
#
# Indices 1 2 3 4 5 6 
#
# 1 19.8895 -4.6502 -14.7889 0.0000 0.0000 0.0000
# 2 -4.6502 122.4171 65.2151 0.0000 0.0000 0.0000
# 3 -14.7889 65.2151 108.8481 0.0000 0.0000 0.0000
# 4 0.0000 0.0000 0.0000 24.7477 0.0000 0.0000
# 5 0.0000 0.0000 0.0000 0.0000 24.3608 0.0000
# 6 0.0000 0.0000 0.0000 0.0000 0.0000 23.2309
#
#
#
# Elastic Compliance Matrix: (Units=1/GPa)
#
#
# Indices 1 2 3 4 5 6 
#
# 1 0.056601 -0.002859 0.009403 0.000000 0.000000 0.000000
# 2 -0.002859 0.012143 -0.007664 0.000000 0.000000 0.000000
# 3 0.009403 -0.007664 0.015056 0.000000 0.000000 0.000000
# 4 0.000000 0.000000 0.000000 0.040408 0.000000 0.000000
# 5 0.000000 0.000000 0.000000 0.000000 0.041050 0.000000
# 6 0.000000 0.000000 0.000000 0.000000 0.000000 0.043046
#
#
# Mechanical properties :
#
#
# Convention : Reuss Voigt Hill
#
# Bulk Modulus (GPa) = 12.26074 38.07851 25.16963
# Shear Modulus (GPa) = 21.03221 28.15979 24.59600
#
# Velocity S-wave (km/s) = 3.30080 3.81937 3.56952
# Velocity P-wave (km/s) = 4.56930 6.25907 5.47971
#
# Compressibility (1/GPa) = 0.08156115
#
# Stress axis : x y z
#
# Youngs Moduli (GPa) = 17.66743 82.35277 66.41701
#
# Poissons Ratio (x) = 0.23548 -0.62455
# Poissons Ratio (y) = 0.05052 0.50900
# Poissons Ratio (z) = -0.16613 0.63113
#
# Static dielectric constant tensor:
#      x y z
#    x 1.719540 0.000000 0.000000 
#    y 0.000000 1.685750 0.000000 
#    z 0.000000 0.000000 1.631890 
# 
# From -- ./inp_files/42987.got.cif
#   From: 2010.05.17/outbox.cif.g08.bks.cpg/sg64_22_cif.got.tgz:42987.got - 2010.06.03 16:29:19.
