data_PCOD9477435
_publ_section_title
;
Structure prediction by ZEFSAII (Michael W. Deem and Ramdas Pophale) SiO2 
 PCOD9477435
Probable space group: C M C A
;
_chemical_formula_sum "Si O2"
_cell_formula_units_Z 64
_cell_length_a 5.371380
_cell_length_b 34.689550
_cell_length_c 20.329468
_cell_angle_alpha 90.000000
_cell_angle_beta 90.000000
_cell_angle_gamma 90.000000
_cell_volume 3788.005123
_symmetry_space_group_name_H-M "C M C A"
_symmetry_group_IT_number 64
_symmetry_cell_setting 'orthorhombic'
loop_
_space_group_symop_operation_xyz
x,y,z
-x,1/2-y,1/2+z
x,-y,-z
-x,1/2+y,1/2-z
-x,-y,-z
x,1/2+y,1/2-z
-x,y,z
x,1/2-y,1/2+z
1/2+x,1/2+y,z
1/2-x,-y,1/2+z
1/2+x,1/2-y,-z
1/2-x,y,1/2-z
1/2-x,1/2-y,-z
1/2+x,y,1/2-z
1/2-x,1/2+y,z
1/2+x,-y,1/2+z
loop_
_atom_site_type_symbol
_atom_site_label
_atom_site_fract_x
_atom_site_fract_y
_atom_site_fract_z
Si Si1 0.500000 0.199149 0.019095
Si Si2 0.500000 0.036530 0.290218
Si Si3 0.000000 0.111249 0.444953
Si Si4 0.000000 0.197361 0.208374
Si Si5 0.500000 0.736126 0.080174
Si Si6 0.500000 0.885802 0.641132
Si Si7 0.500000 0.039651 0.957025
Si Si8 0.500000 0.013152 0.578102
O O1 0.500000 0.153119 0.020611
O O2 0.750525 0.214551 0.054671
O O3 0.500000 0.221053 0.949397
O O4 0.250000 0.025812 0.250000
O O5 0.500000 0.082595 0.301385
O O6 0.500000 0.019005 0.364676
O O7 0.750642 0.108455 0.401216
O O8 0.000000 0.075931 0.495263
O O9 0.750000 0.198004 0.250000
O O10 0.000000 0.232540 0.157799
O O11 0.000000 0.157420 0.168091
O O12 0.749840 0.037545 0.915121
O O13 0.500000 0.000000 0.000000
O O14 0.500000 0.000000 0.500000
#
# Coordination Sequence:
#
# PCOD9477435 Si02
#       8
#     8   8   8   8   8   8   8   8
#     4  10  19  35  56  80 105 139 179 235 284 324
#     4  12  24  39  56  81 115 157 193 229 282 348
#     4  12  20  34  58  83 112 148 188 231 291 331
#     4  12  22  34  50  74 109 152 189 215 258 332
#     4  10  20  36  53  76 109 139 185 231 275 318
#     4  12  22  35  50  79 117 153 187 221 258 342
#     4  10  19  32  51  80 107 141 180 235 283 325
#     4  10  20  37  55  77 105 145 189 237 279 320
#
# _framework density 16.895437999999999
#
# number of rings (size 3 to 8) (size 9 to 14) (size 15 to 20)
#    0.000    1.000    2.500    7.500    0.000    0.000 
#    0.000    0.000    0.000    0.000    0.000    5.250 
#    0.000    0.000    0.000    0.000    0.000    0.000 
#
# Total GULP energy -178560.545192 kJ/mol
# GULP energy per Si atom -5580.017037 kJ/mol
# Density = 1.685698 g / cm^3
# Si number density = 16.895438 Si / 1000 Ang^3
#
#
#
# Elastic Constant Matrix: (Units=GPa)
#
#
# Indices 1 2 3 4 5 6 
#
# 1 175.2142 31.5029 38.6901 0.0000 0.0000 0.0000
# 2 31.5029 69.2559 30.8681 0.0000 0.0000 0.0000
# 3 38.6901 30.8681 67.5467 0.0000 0.0000 0.0000
# 4 0.0000 0.0000 0.0000 33.9994 0.0000 0.0000
# 5 0.0000 0.0000 0.0000 0.0000 6.2840 0.0000
# 6 0.0000 0.0000 0.0000 0.0000 0.0000 18.5729
#
#
#
# Elastic Compliance Matrix: (Units=1/GPa)
#
#
# Indices 1 2 3 4 5 6 
#
# 1 0.006685 -0.001675 -0.003063 0.000000 0.000000 0.000000
# 2 -0.001675 0.018552 -0.007519 0.000000 0.000000 0.000000
# 3 -0.003063 -0.007519 0.019995 0.000000 0.000000 0.000000
# 4 0.000000 0.000000 0.000000 0.029412 0.000000 0.000000
# 5 0.000000 0.000000 0.000000 0.000000 0.159133 0.000000
# 6 0.000000 0.000000 0.000000 0.000000 0.000000 0.053842
#
#
# Mechanical properties :
#
#
# Convention : Reuss Voigt Hill
#
# Bulk Modulus (GPa) = 48.26792 57.12654 52.69723
# Shear Modulus (GPa) = 15.67197 25.83497 20.75347
#
# Velocity S-wave (km/s) = 3.04893 3.91463 3.50858
# Velocity P-wave (km/s) = 6.40510 7.37005 6.90445
#
# Compressibility (1/GPa) = 0.02071769
#
# Stress axis : x y z
#
# Youngs Moduli (GPa) = 149.58876 53.90127 50.01205
#
# Poissons Ratio (x) = 0.09031 0.15321
# Poissons Ratio (y) = 0.25063 0.37602
# Poissons Ratio (z) = 0.45826 0.40526
#
# Static dielectric constant tensor:
#      x y z
#    x 1.569470 0.000000 0.000000 
#    y 0.000000 1.563360 0.000000 
#    z 0.000000 0.000000 1.574150 
# 
# From -- ./inp_files/28732.got.cif
#   From: 2010.05.17/outbox.cif.g08.bks.cpg/sg64_15_cif.got.tgz:28732.got - 2010.06.03 16:29:19.
