data_PCOD9477952
_publ_section_title
;
Structure prediction by ZEFSAII (Michael W. Deem and Ramdas Pophale) SiO2 
 PCOD9477952
Probable space group: C M C A
;
_chemical_formula_sum "Si O2"
_cell_formula_units_Z 64
_cell_length_a 5.567082
_cell_length_b 28.891792
_cell_length_c 16.633365
_cell_angle_alpha 90.000000
_cell_angle_beta 90.000000
_cell_angle_gamma 90.000000
_cell_volume 2675.359914
_symmetry_space_group_name_H-M "C M C A"
_symmetry_group_IT_number 64
_symmetry_cell_setting 'orthorhombic'
loop_
_space_group_symop_operation_xyz
x,y,z
-x,1/2-y,1/2+z
x,-y,-z
-x,1/2+y,1/2-z
-x,-y,-z
x,1/2+y,1/2-z
-x,y,z
x,1/2-y,1/2+z
1/2+x,1/2+y,z
1/2-x,-y,1/2+z
1/2+x,1/2-y,-z
1/2-x,y,1/2-z
1/2-x,1/2-y,-z
1/2+x,y,1/2-z
1/2-x,1/2+y,z
1/2+x,-y,1/2+z
loop_
_atom_site_type_symbol
_atom_site_label
_atom_site_fract_x
_atom_site_fract_y
_atom_site_fract_z
Si Si1 0.500000 0.879868 0.456743
Si Si2 0.000000 0.739091 0.601938
Si Si3 0.000000 0.145181 0.796407
Si Si4 0.000000 0.461091 0.197953
Si Si5 0.500000 0.397242 0.877201
Si Si6 0.500000 0.287349 0.912389
Si Si7 0.000000 0.392697 0.045211
Si Si8 0.000000 0.436872 0.871999
O O1 0.500000 0.806979 0.345035
O O2 0.500000 0.916140 0.529592
O O3 0.231991 0.860178 0.462267
O O4 0.248338 0.766305 0.619149
O O5 0.000000 0.724902 0.507627
O O6 0.250000 0.143404 0.750000
O O7 0.000000 0.078095 0.627330
O O8 0.000000 0.105294 0.864279
O O9 0.250000 0.459568 0.250000
O O10 0.000000 0.510085 0.152081
O O11 0.500000 0.342066 0.892360
O O12 0.751295 0.413804 0.841620
O O13 0.000000 0.426010 0.967840
#
# Coordination Sequence:
#
# PCOD9477952 Si02
#       8
#     8   8   8   8   8   8   8   8
#     4  10  21  37  56  89 116 148 196 233 285 347
#     4  10  21  35  55  87 112 149 194 234 290 330
#     4  12  24  37  55  79 125 166 187 224 281 365
#     4  12  25  41  62  87 121 157 199 245 296 361
#     4  10  19  37  63  89 115 142 192 254 297 335
#     4  10  19  35  62  84 113 138 192 262 280 324
#     4  10  22  39  63  86 120 154 197 248 288 353
#     4  10  22  39  63  89 118 155 195 249 299 351
#
# _framework density 23.922017
#
# number of rings (size 3 to 8) (size 9 to 14) (size 15 to 20)
#    0.000    1.500    1.250    4.125    0.000    3.000 
#    0.000    5.000    0.000   15.000    0.000    0.000 
#    0.000    0.000    0.000    0.000    0.000    0.000 
#
# Total GULP energy -178386.038746 kJ/mol
# GULP energy per Si atom -5574.563711 kJ/mol
# Density = 2.386757 g / cm^3
# Si number density = 23.922017 Si / 1000 Ang^3
#
#
#
# Elastic Constant Matrix: (Units=GPa)
#
#
# Indices 1 2 3 4 5 6 
#
# 1 307.9054 67.1913 47.3675 0.0000 0.0000 0.0000
# 2 67.1913 134.3999 22.3370 0.0000 0.0000 0.0000
# 3 47.3675 22.3370 115.1141 0.0000 0.0000 0.0000
# 4 0.0000 0.0000 0.0000 36.1465 0.0000 0.0000
# 5 0.0000 0.0000 0.0000 0.0000 -21.2451 0.0000
# 6 0.0000 0.0000 0.0000 0.0000 0.0000 36.6049
#
#
#
# Elastic Compliance Matrix: (Units=1/GPa)
#
#
# Indices 1 2 3 4 5 6 
#
# 1 0.003809 -0.001698 -0.001238 0.000000 0.000000 0.000000
# 2 -0.001698 0.008446 -0.000940 0.000000 0.000000 0.000000
# 3 -0.001238 -0.000940 0.009379 0.000000 0.000000 0.000000
# 4 0.000000 0.000000 0.000000 0.027665 0.000000 0.000000
# 5 0.000000 0.000000 0.000000 0.000000 -0.047070 0.000000
# 6 0.000000 0.000000 0.000000 0.000000 0.000000 0.027319
#
#
# Mechanical properties :
#
#
# Convention : Reuss Voigt Hill
#
# Bulk Modulus (GPa) = 72.04021 92.35677 82.19849
# Shear Modulus (GPa) = 119.25538 38.33617 78.79578
#
# Velocity S-wave (km/s) = 7.06824 4.00753 5.74544
# Velocity P-wave (km/s) = 9.83836 7.75274 8.85715
#
# Compressibility (1/GPa) = 0.01388114
#
# Stress axis : x y z
#
# Youngs Moduli (GPa) = 262.55057 118.40177 106.62443
#
# Poissons Ratio (x) = 0.20110 0.13197
# Poissons Ratio (y) = 0.44593 0.10022
# Poissons Ratio (z) = 0.32495 0.11129
#
# Static dielectric constant tensor:
#      x y z
#    x 1.986620 0.000000 0.000000 
#    y 0.000000 1.886560 0.000000 
#    z 0.000000 0.000000 2.001380 
# 
# From -- ./inp_files/28728.got.cif
#   From: 2010.05.17/outbox.cif.g08.bks.cpg/sg64_15_cif.got.tgz:28728.got - 2010.06.03 16:29:19.
