data_PCOD9477184
_publ_section_title
;
Structure prediction by ZEFSAII (Michael W. Deem and Ramdas Pophale) SiO2 
 PCOD9477184
Probable space group: C M C A
;
_chemical_formula_sum "Si O2"
_cell_formula_units_Z 96
_cell_length_a 7.740846
_cell_length_b 24.501074
_cell_length_c 27.336713
_cell_angle_alpha 90.000000
_cell_angle_beta 90.000000
_cell_angle_gamma 90.000000
_cell_volume 5184.654763
_symmetry_space_group_name_H-M "C M C A"
_symmetry_group_IT_number 64
_symmetry_cell_setting 'orthorhombic'
loop_
_space_group_symop_operation_xyz
x,y,z
-x,1/2-y,1/2+z
x,-y,-z
-x,1/2+y,1/2-z
-x,-y,-z
x,1/2+y,1/2-z
-x,y,z
x,1/2-y,1/2+z
1/2+x,1/2+y,z
1/2-x,-y,1/2+z
1/2+x,1/2-y,-z
1/2-x,y,1/2-z
1/2-x,1/2-y,-z
1/2+x,y,1/2-z
1/2-x,1/2+y,z
1/2+x,-y,1/2+z
loop_
_atom_site_type_symbol
_atom_site_label
_atom_site_fract_x
_atom_site_fract_y
_atom_site_fract_z
Si Si1 0.200414 0.158467 0.806345
Si Si2 0.292856 0.820532 0.459218
Si Si3 0.711573 0.522579 0.053450
Si Si4 0.791356 0.420464 0.388795
Si Si5 0.212163 0.852547 0.934144
Si Si6 0.302945 0.742975 0.126766
O O1 0.250000 0.159408 0.750000
O O2 0.280570 0.111227 0.841201
O O3 0.223914 0.216679 0.833195
O O4 0.000000 0.146677 0.807036
O O5 0.500000 0.810668 0.457617
O O6 0.262830 0.879176 0.433970
O O7 0.234007 0.824273 0.514869
O O8 0.204940 0.776983 0.423981
O O9 0.500000 0.522953 0.052971
O O10 0.771056 0.479716 0.094703
O O11 0.766319 0.584508 0.063834
O O12 0.763939 0.500000 0.000000
O O13 0.000000 0.425100 0.383918
O O14 0.271888 0.815743 0.888533
O O15 0.000000 0.851685 0.933920
O O16 0.500000 0.734976 0.141973
#
# Coordination Sequence:
#
# PCOD9477184 Si02
#       6
#    16  16  16  16  16  16
#     4  10  20  35  54  73  90 113 150 197 246 290
#     4   9  15  26  42  64  94 128 163 196 224 261
#     4   9  13  21  40  66  97 130 160 189 220 263
#     4   8  14  24  42  69  95 118 151 193 232 268
#     4   9  16  24  39  65  98 131 163 192 222 266
#     4  10  19  29  42  67  98 126 156 192 234 279
#
# _framework density 18.516179000000001
#
# number of rings (size 3 to 8) (size 9 to 14) (size 15 to 20)
#    0.000    2.833    1.667    2.500    0.000    0.000 
#    0.000    0.833    0.000    1.000    0.000   24.500 
#    0.000    0.000    0.000    0.000    0.000    0.000 
#
# Total GULP energy -267420.652584 kJ/mol
# GULP energy per Si atom -5571.263596 kJ/mol
# Density = 1.847404 g / cm^3
# Si number density = 18.516179 Si / 1000 Ang^3
#
#
#
# Elastic Constant Matrix: (Units=GPa)
#
#
# Indices 1 2 3 4 5 6 
#
# 1 19.3998 -2.8600 4.8901 0.0000 0.0000 0.0000
# 2 -2.8600 100.4656 53.5604 0.0000 0.0000 0.0000
# 3 4.8901 53.5604 121.7463 0.0000 0.0000 0.0000
# 4 0.0000 0.0000 0.0000 2.9024 0.0000 0.0000
# 5 0.0000 0.0000 0.0000 0.0000 5.3359 0.0000
# 6 0.0000 0.0000 0.0000 0.0000 0.0000 -0.5041
#
#
#
# Elastic Compliance Matrix: (Units=1/GPa)
#
#
# Indices 1 2 3 4 5 6 
#
# 1 0.052975 0.003452 -0.003646 0.000000 0.000000 0.000000
# 2 0.003452 0.013228 -0.005958 0.000000 0.000000 0.000000
# 3 -0.003646 -0.005958 0.010982 0.000000 0.000000 0.000000
# 4 0.000000 0.000000 0.000000 0.344546 0.000000 0.000000
# 5 0.000000 0.000000 0.000000 0.000000 0.187411 0.000000
# 6 0.000000 0.000000 0.000000 0.000000 0.000000 -1.983589
#
#
# Mechanical properties :
#
#
# Convention : Reuss Voigt Hill
#
# Bulk Modulus (GPa) = 15.41321 39.19921 27.30621
# Shear Modulus (GPa) = -3.72991 13.94824 5.10916
#
# Velocity S-wave (km/s) = -1.42084 2.74761 1.66292
# Velocity P-wave (km/s) = 2.37709 5.59303 4.29724
#
# Compressibility (1/GPa) = 0.06487941
#
# Stress axis : x y z
#
# Youngs Moduli (GPa) = 18.87687 75.59481 91.06200
#
# Poissons Ratio (x) = -0.26096 0.33205
# Poissons Ratio (y) = -0.06516 0.54257
# Poissons Ratio (z) = 0.06883 0.45042
#
# Static dielectric constant tensor:
#      x y z
#    x 1.678500 0.000000 0.000000 
#    y 0.000000 1.673160 0.000000 
#    z 0.000000 0.000000 1.802660 
# 
# From -- ./inp_files/48332.got.cif
#   From: 2010.05.17/outbox.cif.g08.bks.cpg/sg64_25_cif.got.tgz:48332.got - 2010.06.03 16:29:19.
