data_PCOD9477563
_publ_section_title
;
Structure prediction by ZEFSAII (Michael W. Deem and Ramdas Pophale) SiO2 
 PCOD9477563
Probable space group: C M C A
;
_chemical_formula_sum "Si O2"
_cell_formula_units_Z 96
_cell_length_a 15.834978
_cell_length_b 14.738625
_cell_length_c 22.574328
_cell_angle_alpha 90.000000
_cell_angle_beta 90.000000
_cell_angle_gamma 90.000000
_cell_volume 5268.527659
_symmetry_space_group_name_H-M "C M C A"
_symmetry_group_IT_number 64
_symmetry_cell_setting 'orthorhombic'
loop_
_space_group_symop_operation_xyz
x,y,z
-x,1/2-y,1/2+z
x,-y,-z
-x,1/2+y,1/2-z
-x,-y,-z
x,1/2+y,1/2-z
-x,y,z
x,1/2-y,1/2+z
1/2+x,1/2+y,z
1/2-x,-y,1/2+z
1/2+x,1/2-y,-z
1/2-x,y,1/2-z
1/2-x,1/2-y,-z
1/2+x,y,1/2-z
1/2-x,1/2+y,z
1/2+x,-y,1/2+z
loop_
_atom_site_type_symbol
_atom_site_label
_atom_site_fract_x
_atom_site_fract_y
_atom_site_fract_z
Si Si1 0.814733 0.800708 0.457805
Si Si2 0.402979 0.521706 0.168394
Si Si3 0.270590 0.485089 0.392070
Si Si4 0.403907 0.271925 0.844033
Si Si5 0.409008 0.912412 0.957415
Si Si6 0.840881 0.603278 0.774487
O O1 0.750000 0.750000 0.500000
O O2 0.778272 0.896860 0.434090
O O3 0.842998 0.745477 0.399927
O O4 0.893084 0.828015 0.499617
O O5 0.500000 0.508758 0.147703
O O6 0.327262 0.503053 0.122115
O O7 0.392580 0.628391 0.183403
O O8 0.386220 0.456340 0.224401
O O9 0.325809 0.567304 0.418740
O O10 0.318085 0.457981 0.331306
O O11 0.500000 0.266025 0.865975
O O12 0.389625 0.191215 0.797468
O O13 0.500000 0.905562 0.925841
O O14 0.414203 0.000000 0.000000
O O15 0.750000 0.634173 0.750000
#
# Coordination Sequence:
#
# PCOD9477563 Si02
#       6
#    16  16  16  16  16  16
#     4  10  19  33  53  75 105 139 175 218 264 315
#     4  10  20  35  54  77 107 143 180 216 261 323
#     4   9  19  34  52  76 105 138 173 217 269 312
#     4  10  20  34  54  78 105 139 177 218 266 320
#     4   9  17  30  51  76 100 130 172 220 264 305
#     4   9  19  34  54  78 104 137 176 221 271 321
#
# _framework density 18.221409999999999
#
# number of rings (size 3 to 8) (size 9 to 14) (size 15 to 20)
#    0.000    2.500    0.000    2.000    0.000    6.667 
#    0.000    3.333    0.000    6.500    0.000    0.000 
#    0.000    0.000    0.000    0.000    0.000    0.000 
#
# Total GULP energy -267336.152308 kJ/mol
# GULP energy per Si atom -5569.503173 kJ/mol
# Density = 1.817994 g / cm^3
# Si number density = 18.221410 Si / 1000 Ang^3
#
#
#
# Elastic Constant Matrix: (Units=GPa)
#
#
# Indices 1 2 3 4 5 6 
#
# 1 127.3672 52.2951 43.1935 0.0000 0.0000 0.0000
# 2 52.2951 71.9358 30.9356 0.0000 0.0000 0.0000
# 3 43.1935 30.9356 66.8735 0.0000 0.0000 0.0000
# 4 0.0000 0.0000 0.0000 21.7944 0.0000 0.0000
# 5 0.0000 0.0000 0.0000 0.0000 20.5013 0.0000
# 6 0.0000 0.0000 0.0000 0.0000 0.0000 13.5005
#
#
#
# Elastic Compliance Matrix: (Units=1/GPa)
#
#
# Indices 1 2 3 4 5 6 
#
# 1 0.012293 -0.006893 -0.004751 0.000000 0.000000 0.000000
# 2 -0.006893 0.021219 -0.005364 0.000000 0.000000 0.000000
# 3 -0.004751 -0.005364 0.020503 0.000000 0.000000 0.000000
# 4 0.000000 0.000000 0.000000 0.045883 0.000000 0.000000
# 5 0.000000 0.000000 0.000000 0.000000 0.048777 0.000000
# 6 0.000000 0.000000 0.000000 0.000000 0.000000 0.074071
#
#
# Mechanical properties :
#
#
# Convention : Reuss Voigt Hill
#
# Bulk Modulus (GPa) = 50.00120 57.66944 53.83532
# Shear Modulus (GPa) = 18.98039 20.47606 19.72823
#
# Velocity S-wave (km/s) = 3.23097 3.35585 3.29400
# Velocity P-wave (km/s) = 6.43579 6.83620 6.63901
#
# Compressibility (1/GPa) = 0.01999952
#
# Stress axis : x y z
#
# Youngs Moduli (GPa) = 81.34830 47.12739 48.77218
#
# Poissons Ratio (x) = 0.32486 0.23172
# Poissons Ratio (y) = 0.56076 0.26159
# Poissons Ratio (z) = 0.38649 0.25277
#
# Static dielectric constant tensor:
#      x y z
#    x 1.666330 0.000000 0.000000 
#    y 0.000000 1.621240 0.000000 
#    z 0.000000 0.000000 1.630760 
# 
# From -- ./inp_files/39240.got.cif
#   From: 2010.05.17/outbox.cif.g08.bks.cpg/sg64_20_cif.got.tgz:39240.got - 2010.06.03 16:29:19.
