data_PCOD9477393
_publ_section_title
;
Structure prediction by ZEFSAII (Michael W. Deem and Ramdas Pophale) SiO2 
 PCOD9477393
Probable space group: C M C A
;
_chemical_formula_sum "Si O2"
_cell_formula_units_Z 112
_cell_length_a 14.176480
_cell_length_b 14.668796
_cell_length_c 27.525977
_cell_angle_alpha 90.000000
_cell_angle_beta 90.000000
_cell_angle_gamma 90.000000
_cell_volume 5724.079027
_symmetry_space_group_name_H-M "C M C A"
_symmetry_group_IT_number 64
_symmetry_cell_setting 'orthorhombic'
loop_
_space_group_symop_operation_xyz
x,y,z
-x,1/2-y,1/2+z
x,-y,-z
-x,1/2+y,1/2-z
-x,-y,-z
x,1/2+y,1/2-z
-x,y,z
x,1/2-y,1/2+z
1/2+x,1/2+y,z
1/2-x,-y,1/2+z
1/2+x,1/2-y,-z
1/2-x,y,1/2-z
1/2-x,1/2-y,-z
1/2+x,y,1/2-z
1/2-x,1/2+y,z
1/2+x,-y,1/2+z
loop_
_atom_site_type_symbol
_atom_site_label
_atom_site_fract_x
_atom_site_fract_y
_atom_site_fract_z
Si Si1 0.750485 0.071621 0.635934
Si Si2 0.393742 0.801207 0.754287
Si Si3 0.888829 0.232440 0.467695
Si Si4 0.893155 0.547236 0.311265
Si Si5 0.111990 0.744033 0.643609
Si Si6 0.644988 0.097053 0.770498
Si Si7 0.750925 0.401691 0.023945
O O1 0.679765 0.989493 0.649060
O O2 0.682652 0.158931 0.645841
O O3 0.838283 0.071136 0.673392
O O4 0.777203 0.078453 0.579923
O O5 0.500000 0.837349 0.755365
O O6 0.361842 0.804225 0.809808
O O7 0.395840 0.697079 0.737039
O O8 0.348479 0.863273 0.713455
O O9 0.879487 0.213935 0.409766
O O10 0.833894 0.154350 0.497074
O O11 0.837252 0.330243 0.476598
O O12 0.000000 0.236833 0.479271
O O13 0.750000 0.395041 0.250000
O O14 0.898498 0.476119 0.266058
O O15 0.000000 0.717460 0.649692
O O16 0.500000 0.940896 0.669145
O O17 0.731387 0.500000 0.000000
#
# Coordination Sequence:
#
# PCOD9477393 Si02
#       7
#    16  16  16  16  16  16  16
#     4  10  20  36  54  79 112 153 188 234 296 346
#     4  10  19  32  52  79 110 147 186 227 275 337
#     4   9  20  40  64  91 122 158 203 256 310 364
#     4  10  20  34  52  78 111 147 190 234 278 345
#     4   9  16  32  59  81 107 152 195 231 283 351
#     4  10  19  32  49  76 108 143 179 223 273 333
#     4  10  22  41  63  90 121 157 205 259 307 364
#
# _framework density 19.566465999999998
#
# number of rings (size 3 to 8) (size 9 to 14) (size 15 to 20)
#    0.000    2.286    2.857    0.857    0.000    4.000 
#    7.714    1.429    0.000    0.000    0.000    0.000 
#    0.000    0.000    0.000    0.000    0.000    0.000 
#
# Total GULP energy -312048.479739 kJ/mol
# GULP energy per Si atom -5572.294281 kJ/mol
# Density = 1.952193 g / cm^3
# Si number density = 19.566466 Si / 1000 Ang^3
#
#
#
# Elastic Constant Matrix: (Units=GPa)
#
#
# Indices 1 2 3 4 5 6 
#
# 1 81.9392 10.2679 23.4297 0.0000 0.0000 0.0000
# 2 10.2679 67.9601 8.7091 0.0000 0.0000 0.0000
# 3 23.4297 8.7091 78.6547 0.0000 0.0000 0.0000
# 4 0.0000 0.0000 0.0000 34.0574 0.0000 0.0000
# 5 0.0000 0.0000 0.0000 0.0000 26.8645 0.0000
# 6 0.0000 0.0000 0.0000 0.0000 0.0000 16.2862
#
#
#
# Elastic Compliance Matrix: (Units=1/GPa)
#
#
# Indices 1 2 3 4 5 6 
#
# 1 0.013499 -0.001546 -0.003850 0.000000 0.000000 0.000000
# 2 -0.001546 0.015103 -0.001212 0.000000 0.000000 0.000000
# 3 -0.003850 -0.001212 0.013995 0.000000 0.000000 0.000000
# 4 0.000000 0.000000 0.000000 0.029362 0.000000 0.000000
# 5 0.000000 0.000000 0.000000 0.000000 0.037224 0.000000
# 6 0.000000 0.000000 0.000000 0.000000 0.000000 0.061402
#
#
# Mechanical properties :
#
#
# Convention : Reuss Voigt Hill
#
# Bulk Modulus (GPa) = 34.03508 34.81861 34.42684
# Shear Modulus (GPa) = 25.82726 27.85143 26.83935
#
# Velocity S-wave (km/s) = 3.63709 3.77693 3.70767
# Velocity P-wave (km/s) = 5.92201 6.07074 5.99684
#
# Compressibility (1/GPa) = 0.02938145
#
# Stress axis : x y z
#
# Youngs Moduli (GPa) = 74.08102 66.21020 71.45537
#
# Poissons Ratio (x) = 0.10237 0.27509
# Poissons Ratio (y) = 0.11454 0.08659
# Poissons Ratio (z) = 0.28520 0.08023
#
# Static dielectric constant tensor:
#      x y z
#    x 1.696450 0.000000 0.000000 
#    y 0.000000 1.713950 0.000000 
#    z 0.000000 0.000000 1.709370 
# 
# From -- ./inp_files/50062.got.cif
#   From: 2010.05.17/outbox.cif.g08.bks.cpg/sg64_26_cif.got.tgz:50062.got - 2010.06.03 16:29:19.
