data_PCOD9477655
_publ_section_title
;
Structure prediction by ZEFSAII (Michael W. Deem and Ramdas Pophale) SiO2 
 PCOD9477655
Probable space group: C M C A
;
_chemical_formula_sum "Si O2"
_cell_formula_units_Z 96
_cell_length_a 14.911421
_cell_length_b 14.522160
_cell_length_c 22.139840
_cell_angle_alpha 90.000000
_cell_angle_beta 90.000000
_cell_angle_gamma 90.000000
_cell_volume 4794.294713
_symmetry_space_group_name_H-M "C M C A"
_symmetry_group_IT_number 64
_symmetry_cell_setting 'orthorhombic'
loop_
_space_group_symop_operation_xyz
x,y,z
-x,1/2-y,1/2+z
x,-y,-z
-x,1/2+y,1/2-z
-x,-y,-z
x,1/2+y,1/2-z
-x,y,z
x,1/2-y,1/2+z
1/2+x,1/2+y,z
1/2-x,-y,1/2+z
1/2+x,1/2-y,-z
1/2-x,y,1/2-z
1/2-x,1/2-y,-z
1/2+x,y,1/2-z
1/2-x,1/2+y,z
1/2+x,-y,1/2+z
loop_
_atom_site_type_symbol
_atom_site_label
_atom_site_fract_x
_atom_site_fract_y
_atom_site_fract_z
Si Si1 0.500000 0.417998 0.084258
Si Si2 0.500000 0.869913 0.556274
Si Si3 0.177823 0.678634 0.636078
Si Si4 0.322613 0.193221 0.389704
Si Si5 0.242266 0.016717 0.156950
Si Si6 0.396022 0.279675 0.264749
Si Si7 0.602276 0.498656 0.734365
O O1 0.500000 0.530024 0.091714
O O2 0.413798 0.367908 0.113047
O O3 0.500000 0.397162 0.013442
O O4 0.413315 0.809161 0.572515
O O5 0.235198 0.746987 0.594861
O O6 0.241957 0.590195 0.642260
O O7 0.155482 0.726878 0.700586
O O8 0.351126 0.228007 0.321687
O O9 0.290172 0.087870 0.391933
O O10 0.340623 0.043691 0.180047
O O11 0.165767 0.022237 0.208852
O O12 0.500000 0.250080 0.259261
O O13 0.397817 0.390614 0.273922
O O14 0.500000 0.468672 0.741063
#
# Coordination Sequence:
#
# PCOD9477655 Si02
#       7
#     8   8  16  16  16  16  16
#     4  11  24  49  68  87 121 166 224 265 315 368
#     4  11  26  43  72  93 111 168 228 267 307 366
#     4  11  22  40  63  90 129 166 199 263 320 370
#     4  12  23  37  61  97 126 159 212 257 313 379
#     4  10  21  35  52  85 126 169 206 250 305 373
#     4  10  19  33  56  87 124 161 194 235 313 386
#     4   9  19  33  50  75 125 174 197 237 305 370
#
# _framework density 20.023800000000001
#
# number of rings (size 3 to 8) (size 9 to 14) (size 15 to 20)
#    0.000    1.500    5.000    0.500    7.000    0.667 
#    1.500    0.000    0.000    0.000    0.000    1.167 
#    0.000    0.000    0.000    0.000    0.000    0.000 
#
# Total GULP energy -267646.917883 kJ/mol
# GULP energy per Si atom -5575.977456 kJ/mol
# Density = 1.997823 g / cm^3
# Si number density = 20.023800 Si / 1000 Ang^3
#
#
#
# Elastic Constant Matrix: (Units=GPa)
#
#
# Indices 1 2 3 4 5 6 
#
# 1 127.8973 14.5785 5.4028 0.0000 0.0000 0.0000
# 2 14.5785 50.5469 -3.5845 0.0000 0.0000 0.0000
# 3 5.4028 -3.5845 30.4996 0.0000 0.0000 0.0000
# 4 0.0000 0.0000 0.0000 19.2977 0.0000 0.0000
# 5 0.0000 0.0000 0.0000 0.0000 -2.0047 0.0000
# 6 0.0000 0.0000 0.0000 0.0000 0.0000 21.9784
#
#
#
# Elastic Compliance Matrix: (Units=1/GPa)
#
#
# Indices 1 2 3 4 5 6 
#
# 1 0.008175 -0.002481 -0.001740 0.000000 0.000000 0.000000
# 2 -0.002481 0.020703 0.002873 0.000000 0.000000 0.000000
# 3 -0.001740 0.002873 0.033433 0.000000 0.000000 0.000000
# 4 0.000000 0.000000 0.000000 0.051820 0.000000 0.000000
# 5 0.000000 0.000000 0.000000 0.000000 -0.498833 0.000000
# 6 0.000000 0.000000 0.000000 0.000000 0.000000 0.045499
#
#
# Mechanical properties :
#
#
# Convention : Reuss Voigt Hill
#
# Bulk Modulus (GPa) = 16.77441 26.85970 21.81706
# Shear Modulus (GPa) = -15.79104 20.69075 2.44985
#
# Velocity S-wave (km/s) = -2.81127 3.21800 1.10731
# Velocity P-wave (km/s) = 1.46364 5.22019 3.54317
#
# Compressibility (1/GPa) = 0.05961461
#
# Stress axis : x y z
#
# Youngs Moduli (GPa) = 122.32284 48.30227 29.91047
#
# Poissons Ratio (x) = 0.11985 0.05204
# Poissons Ratio (y) = 0.30351 -0.08592
# Poissons Ratio (z) = 0.21281 -0.13876
#
# Static dielectric constant tensor:
#      x y z
#    x 1.737370 0.000000 0.000000 
#    y 0.000000 1.740850 0.000000 
#    z 0.000000 0.000000 1.712000 
# 
# From -- ./inp_files/45190.got.cif
#   From: 2010.05.17/outbox.cif.g08.bks.cpg/sg64_23_cif.got.tgz:45190.got - 2010.06.03 16:29:19.
