data_PCOD9477094
_publ_section_title
;
Structure prediction by ZEFSAII (Michael W. Deem and Ramdas Pophale) SiO2 
 PCOD9477094
Probable space group: C M C A
;
_chemical_formula_sum "Si O2"
_cell_formula_units_Z 64
_cell_length_a 14.087993
_cell_length_b 18.703102
_cell_length_c 11.432590
_cell_angle_alpha 90.000000
_cell_angle_beta 90.000000
_cell_angle_gamma 90.000000
_cell_volume 3012.363651
_symmetry_space_group_name_H-M "C M C A"
_symmetry_group_IT_number 64
_symmetry_cell_setting 'orthorhombic'
loop_
_space_group_symop_operation_xyz
x,y,z
-x,1/2-y,1/2+z
x,-y,-z
-x,1/2+y,1/2-z
-x,-y,-z
x,1/2+y,1/2-z
-x,y,z
x,1/2-y,1/2+z
1/2+x,1/2+y,z
1/2-x,-y,1/2+z
1/2+x,1/2-y,-z
1/2-x,y,1/2-z
1/2-x,1/2-y,-z
1/2+x,y,1/2-z
1/2-x,1/2+y,z
1/2+x,-y,1/2+z
loop_
_atom_site_type_symbol
_atom_site_label
_atom_site_fract_x
_atom_site_fract_y
_atom_site_fract_z
Si Si1 0.147288 0.015726 0.872080
Si Si2 0.862600 0.962017 0.622542
Si Si3 0.708550 0.821016 0.371286
Si Si4 0.105929 0.311849 0.970144
O O1 0.166531 0.100062 0.861839
O O2 0.104205 0.993427 0.746966
O O3 0.248777 0.974380 0.877454
O O4 0.103387 0.000000 0.000000
O O5 0.889792 0.879033 0.617303
O O6 0.894378 0.000000 0.500000
O O7 0.750000 0.793540 0.250000
O O8 0.803495 0.826747 0.448608
O O9 0.631424 0.765004 0.416699
O O10 0.000000 0.310964 0.023197
#
# Coordination Sequence:
#
# PCOD9477094 Si02
#       4
#    16  16  16  16
#     4  10  18  35  63  95 116 166 216 259 314 385
#     4  10  18  36  61  92 121 161 208 263 313 378
#     4  11  22  41  65  87 126 177 210 259 330 390
#     4  11  25  40  61  97 129 165 217 270 318 383
#
# _framework density 21.245774999999998
#
# number of rings (size 3 to 8) (size 9 to 14) (size 15 to 20)
#    0.000    1.500    7.500    0.000    3.500    1.500 
#    0.000    1.250    0.000    1.500    0.000    0.000 
#    0.000    0.000    0.000    0.000    0.000    0.000 
#
# Total GULP energy -178390.128056 kJ/mol
# GULP energy per Si atom -5574.691502 kJ/mol
# Density = 2.119742 g / cm^3
# Si number density = 21.245775 Si / 1000 Ang^3
#
#
#
# Elastic Constant Matrix: (Units=GPa)
#
#
# Indices 1 2 3 4 5 6 
#
# 1 108.0693 52.4272 24.4276 0.0000 0.0000 0.0000
# 2 52.4272 109.9646 23.3650 0.0000 0.0000 0.0000
# 3 24.4276 23.3650 155.6686 0.0000 0.0000 0.0000
# 4 0.0000 0.0000 0.0000 14.7159 0.0000 0.0000
# 5 0.0000 0.0000 0.0000 0.0000 -17.5982 0.0000
# 6 0.0000 0.0000 0.0000 0.0000 0.0000 -10.2723
#
#
#
# Elastic Compliance Matrix: (Units=1/GPa)
#
#
# Indices 1 2 3 4 5 6 
#
# 1 0.012210 -0.005592 -0.001077 0.000000 0.000000 0.000000
# 2 -0.005592 0.011955 -0.000917 0.000000 0.000000 0.000000
# 3 -0.001077 -0.000917 0.006730 0.000000 0.000000 0.000000
# 4 0.000000 0.000000 0.000000 0.067954 0.000000 0.000000
# 5 0.000000 0.000000 0.000000 0.000000 -0.056824 0.000000
# 6 0.000000 0.000000 0.000000 0.000000 0.000000 -0.097349
#
#
# Mechanical properties :
#
#
# Convention : Reuss Voigt Hill
#
# Bulk Modulus (GPa) = 63.59909 63.79357 63.69633
# Shear Modulus (GPa) = -143.21880 15.60126 -63.80877
#
# Velocity S-wave (km/s) = -8.21930 2.71278 -5.48624
# Velocity P-wave (km/s) = 7.75086 6.31695 3.17584
#
# Compressibility (1/GPa) = 0.01572350
#
# Stress axis : x y z
#
# Youngs Moduli (GPa) = 81.90227 83.64782 148.57855
#
# Poissons Ratio (x) = 0.46779 0.15995
# Poissons Ratio (y) = 0.45803 0.13622
# Poissons Ratio (z) = 0.08817 0.07669
#
# Static dielectric constant tensor:
#      x y z
#    x 1.573090 0.000000 0.000000 
#    y 0.000000 1.722560 0.000000 
#    z 0.000000 0.000000 1.877710 
# 
# From -- ./inp_files/14009.got.cif
#   From: 2010.05.17/outbox.cif.g08.bks.cpg/sg64_8_cif.got.tgz:14009.got - 2010.06.03 16:29:19.
