data_PCOD9477087
_publ_section_title
;
Structure prediction by ZEFSAII (Michael W. Deem and Ramdas Pophale) SiO2 
 PCOD9477087
Probable space group: C M C A
;
_chemical_formula_sum "Si O2"
_cell_formula_units_Z 116
_cell_length_a 15.476254
_cell_length_b 23.815928
_cell_length_c 15.356326
_cell_angle_alpha 90.000000
_cell_angle_beta 90.000000
_cell_angle_gamma 90.000000
_cell_volume 5660.055383
_symmetry_space_group_name_H-M "C M C A"
_symmetry_group_IT_number 64
_symmetry_cell_setting 'orthorhombic'
loop_
_space_group_symop_operation_xyz
x,y,z
-x,1/2-y,1/2+z
x,-y,-z
-x,1/2+y,1/2-z
-x,-y,-z
x,1/2+y,1/2-z
-x,y,z
x,1/2-y,1/2+z
1/2+x,1/2+y,z
1/2-x,-y,1/2+z
1/2+x,1/2-y,-z
1/2-x,y,1/2-z
1/2-x,1/2-y,-z
1/2+x,y,1/2-z
1/2-x,1/2+y,z
1/2+x,-y,1/2+z
loop_
_atom_site_type_symbol
_atom_site_label
_atom_site_fract_x
_atom_site_fract_y
_atom_site_fract_z
Si Si1 0.397008 0.394175 0.603194
Si Si2 0.161923 0.936513 0.420934
Si Si3 0.500000 0.500000 0.000000
Si Si4 0.395271 0.315081 0.360660
Si Si5 0.648577 0.483984 0.731197
Si Si6 0.894707 0.228758 0.459776
Si Si7 0.139851 0.551618 0.607326
Si Si8 0.395584 0.175630 0.666943
O O1 0.500000 0.392763 0.606946
O O2 0.371663 0.432276 0.519505
O O3 0.364765 0.422291 0.692372
O O4 0.366740 0.330685 0.582778
O O5 0.148773 0.873871 0.384414
O O6 0.118256 0.975859 0.347892
O O7 0.261631 0.954484 0.421774
O O8 0.424472 0.545413 0.972219
O O9 0.500000 0.323325 0.364663
O O10 0.372192 0.272715 0.438168
O O11 0.371945 0.301050 0.262103
O O12 0.750000 0.493299 0.750000
O O13 0.608923 0.504537 0.822291
O O14 0.862737 0.282495 0.407354
O O15 0.000000 0.229189 0.454806
O O16 0.134476 0.612048 0.653635
O O17 0.500000 0.174087 0.663046
#
# Coordination Sequence:
#
# PCOD9477087 Si02
#       8
#    16  16   4  16  16  16  16  16
#     4  10  21  37  60  90 122 155 194 253 310 364
#     4  10  20  36  60  89 119 150 193 253 318 354
#     4  12  28  44  56  84 120 160 208 236 298 366
#     4   9  17  32  59  90 118 150 203 259 300 370
#     4  10  22  36  58  84 118 157 196 240 305 365
#     4   8  17  34  56  85 120 153 197 254 306 361
#     4  11  24  40  60  84 119 162 204 252 293 367
#     4  10  18  35  61  84 115 163 210 250 307 362
#
# _framework density 20.494499999999999
#
# number of rings (size 3 to 8) (size 9 to 14) (size 15 to 20)
#    0.000    2.207    2.069    1.655    4.828    1.655 
#    0.000    4.138    6.069    0.000    0.000    0.000 
#    0.000    0.000    0.000    0.000    0.000    0.000 
#
# Total GULP energy -322982.273028 kJ/mol
# GULP energy per Si atom -5568.659880 kJ/mol
# Density = 2.044785 g / cm^3
# Si number density = 20.494500 Si / 1000 Ang^3
#
#
#
# Elastic Constant Matrix: (Units=GPa)
#
#
# Indices 1 2 3 4 5 6 
#
# 1 21.0365 -12.9138 -1.3992 0.0000 0.0000 0.0000
# 2 -12.9138 37.3713 39.7140 0.0000 0.0000 0.0000
# 3 -1.3992 39.7140 85.2041 0.0000 0.0000 0.0000
# 4 0.0000 0.0000 0.0000 38.6872 0.0000 0.0000
# 5 0.0000 0.0000 0.0000 0.0000 16.2848 0.0000
# 6 0.0000 0.0000 0.0000 0.0000 0.0000 -12.0996
#
#
#
# Elastic Compliance Matrix: (Units=1/GPa)
#
#
# Indices 1 2 3 4 5 6 
#
# 1 0.076676 0.049849 -0.021976 0.000000 0.000000 0.000000
# 2 0.049849 0.085429 -0.039000 0.000000 0.000000 0.000000
# 3 -0.021976 -0.039000 0.029554 0.000000 0.000000 0.000000
# 4 0.000000 0.000000 0.000000 0.025848 0.000000 0.000000
# 5 0.000000 0.000000 0.000000 0.000000 0.061407 0.000000
# 6 0.000000 0.000000 0.000000 0.000000 0.000000 -0.082647
#
#
# Mechanical properties :
#
#
# Convention : Reuss Voigt Hill
#
# Bulk Modulus (GPa) = 5.90302 21.60155 13.75228
# Shear Modulus (GPa) = 18.18251 16.45519 17.31885
#
# Velocity S-wave (km/s) = 2.98180 2.83664 2.91013
# Velocity P-wave (km/s) = 3.83946 4.61430 4.24459
#
# Compressibility (1/GPa) = 0.16940486
#
# Stress axis : x y z
#
# Youngs Moduli (GPa) = 13.04192 11.70559 33.83652
#
# Poissons Ratio (x) = -0.58351 0.74358
# Poissons Ratio (y) = -0.65013 1.31964
# Poissons Ratio (z) = 0.28660 0.45652
#
# Static dielectric constant tensor:
#      x y z
#    x 1.513670 0.000000 0.000000 
#    y 0.000000 1.737040 0.000000 
#    z 0.000000 0.000000 1.792760 
# 
# From -- ./inp_files/16544.got.cif
#   From: 2010.05.17/outbox.cif.g08.bks.cpg/sg64_9_cif.got.tgz:16544.got - 2010.06.03 16:29:19.
