data_PCOD9477737
_publ_section_title
;
Structure prediction by ZEFSAII (Michael W. Deem and Ramdas Pophale) SiO2 
 PCOD9477737
Probable space group: C M C A
;
_chemical_formula_sum "Si O2"
_cell_formula_units_Z 96
_cell_length_a 16.467741
_cell_length_b 31.641271
_cell_length_c 9.160040
_cell_angle_alpha 90.000000
_cell_angle_beta 90.000000
_cell_angle_gamma 90.000000
_cell_volume 4772.932785
_symmetry_space_group_name_H-M "C M C A"
_symmetry_group_IT_number 64
_symmetry_cell_setting 'orthorhombic'
loop_
_space_group_symop_operation_xyz
x,y,z
-x,1/2-y,1/2+z
x,-y,-z
-x,1/2+y,1/2-z
-x,-y,-z
x,1/2+y,1/2-z
-x,y,z
x,1/2-y,1/2+z
1/2+x,1/2+y,z
1/2-x,-y,1/2+z
1/2+x,1/2-y,-z
1/2-x,y,1/2-z
1/2-x,1/2-y,-z
1/2+x,y,1/2-z
1/2-x,1/2+y,z
1/2+x,-y,1/2+z
loop_
_atom_site_type_symbol
_atom_site_label
_atom_site_fract_x
_atom_site_fract_y
_atom_site_fract_z
Si Si1 0.905827 0.868997 0.937323
Si Si2 0.401581 0.288592 0.111158
Si Si3 0.177444 0.466622 0.868562
Si Si4 0.905674 0.961209 0.913816
Si Si5 0.327934 0.131208 0.144549
Si Si6 0.098899 0.797984 0.452008
O O1 0.868889 0.915828 0.957941
O O2 0.899670 0.863262 0.763722
O O3 0.000000 0.870956 0.980267
O O4 0.869448 0.829569 0.023919
O O5 0.500000 0.288974 0.097832
O O6 0.377213 0.244499 0.038709
O O7 0.382898 0.291554 0.281500
O O8 0.250000 0.473091 0.750000
O O9 0.101473 0.469619 0.758060
O O10 0.178470 0.417026 0.911680
O O11 0.176611 0.500000 0.000000
O O12 0.000000 0.958812 0.953268
O O13 0.867618 0.000000 0.000000
O O14 0.250000 0.139479 0.250000
O O15 0.349666 0.163602 0.018131
O O16 0.000000 0.804491 0.466234
#
# Coordination Sequence:
#
# PCOD9477737 Si02
#       6
#    16  16  16  16  16  16
#     4   9  17  33  54  74 102 139 175 212 258 311
#     4   9  18  32  55  82 103 136 183 221 255 309
#     4  10  21  37  56  76 102 140 181 218 261 317
#     4   9  18  32  52  79 109 138 169 214 271 321
#     4  10  21  36  52  76 106 136 173 218 265 314
#     4  10  19  34  55  78 105 137 177 220 263 311
#
# _framework density 20.113420000000001
#
# number of rings (size 3 to 8) (size 9 to 14) (size 15 to 20)
#    0.000    2.500    0.000    2.000    0.000    5.000 
#    0.000    5.833    0.000    0.000    0.000    0.000 
#    0.000    0.000    0.000    0.000    0.000    0.000 
#
# Total GULP energy -267382.103869 kJ/mol
# GULP energy per Si atom -5570.460497 kJ/mol
# Density = 2.006764 g / cm^3
# Si number density = 20.113420 Si / 1000 Ang^3
#
#
#
# Elastic Constant Matrix: (Units=GPa)
#
#
# Indices 1 2 3 4 5 6 
#
# 1 30.2461 26.9203 10.6290 0.0000 0.0000 0.0000
# 2 26.9203 193.8740 119.8505 0.0000 0.0000 0.0000
# 3 10.6290 119.8505 116.3288 0.0000 0.0000 0.0000
# 4 0.0000 0.0000 0.0000 49.8492 0.0000 0.0000
# 5 0.0000 0.0000 0.0000 0.0000 22.2920 0.0000
# 6 0.0000 0.0000 0.0000 0.0000 0.0000 14.4480
#
#
#
# Elastic Compliance Matrix: (Units=1/GPa)
#
#
# Indices 1 2 3 4 5 6 
#
# 1 0.038983 -0.008844 0.005549 0.000000 0.000000 0.000000
# 2 -0.008844 0.016212 -0.015894 0.000000 0.000000 0.000000
# 3 0.005549 -0.015894 0.024465 0.000000 0.000000 0.000000
# 4 0.000000 0.000000 0.000000 0.020061 0.000000 0.000000
# 5 0.000000 0.000000 0.000000 0.000000 0.044859 0.000000
# 6 0.000000 0.000000 0.000000 0.000000 0.000000 0.069213
#
#
# Mechanical properties :
#
#
# Convention : Reuss Voigt Hill
#
# Bulk Modulus (GPa) = 24.22332 72.80538 48.51435
# Shear Modulus (GPa) = 18.80186 29.52112 24.16149
#
# Velocity S-wave (km/s) = 3.06075 3.83526 3.46968
# Velocity P-wave (km/s) = 4.95585 7.47584 6.34227
#
# Compressibility (1/GPa) = 0.04128254
#
# Stress axis : x y z
#
# Youngs Moduli (GPa) = 25.65210 61.68378 40.87486
#
# Poissons Ratio (x) = 0.54550 -0.22683
# Poissons Ratio (y) = 0.22686 0.64968
# Poissons Ratio (z) = -0.14235 0.98043
#
# Static dielectric constant tensor:
#      x y z
#    x 1.815150 0.000000 0.000000 
#    y 0.000000 1.753410 0.000000 
#    z 0.000000 0.000000 1.673440 
# 
# From -- ./inp_files/8373.got.cif
#   From: 2010.05.17/outbox.cif.g08.bks.cpg/sg64_5_cif.got.tgz:8373.got - 2010.06.03 16:29:19.
