data_PCOD9477252
_publ_section_title
;
Structure prediction by ZEFSAII (Michael W. Deem and Ramdas Pophale) SiO2 
 PCOD9477252
Probable space group: C M C A
;
_chemical_formula_sum "Si O2"
_cell_formula_units_Z 80
_cell_length_a 26.294519
_cell_length_b 33.327047
_cell_length_c 4.982613
_cell_angle_alpha 90.000000
_cell_angle_beta 90.000000
_cell_angle_gamma 90.000000
_cell_volume 4366.356800
_symmetry_space_group_name_H-M "C M C A"
_symmetry_group_IT_number 64
_symmetry_cell_setting 'orthorhombic'
loop_
_space_group_symop_operation_xyz
x,y,z
-x,1/2-y,1/2+z
x,-y,-z
-x,1/2+y,1/2-z
-x,-y,-z
x,1/2+y,1/2-z
-x,y,z
x,1/2-y,1/2+z
1/2+x,1/2+y,z
1/2-x,-y,1/2+z
1/2+x,1/2-y,-z
1/2-x,y,1/2-z
1/2-x,1/2-y,-z
1/2+x,y,1/2-z
1/2-x,1/2+y,z
1/2+x,-y,1/2+z
loop_
_atom_site_type_symbol
_atom_site_label
_atom_site_fract_x
_atom_site_fract_y
_atom_site_fract_z
Si Si1 0.057706 0.586283 0.138288
Si Si2 0.803927 0.904869 0.129676
Si Si3 0.809590 0.223296 0.211161
Si Si4 0.656528 0.138765 0.116634
Si Si5 0.096715 0.457060 0.357218
O O1 0.099963 0.620608 0.101255
O O2 0.065233 0.571182 0.440790
O O3 0.000000 0.598605 0.088799
O O4 0.072762 0.550066 0.935238
O O5 0.750000 0.918320 0.250000
O O6 0.819595 0.868137 0.324757
O O7 0.846000 0.939695 0.159274
O O8 0.810815 0.888205 0.828361
O O9 0.818641 0.260005 0.415232
O O10 0.750000 0.212235 0.250000
O O11 0.841079 0.184213 0.288042
O O12 0.096390 0.500000 0.500000
#
# Coordination Sequence:
#
# PCOD9477252 Si02
#       5
#    16  16  16  16  16
#     4  10  21  36  55  75  97 133 174 214 259 299
#     4  10  19  33  52  73 100 138 172 201 247 303
#     4  10  19  30  48  75 103 131 161 198 249 300
#     4  10  20  34  52  74 103 133 170 211 245 300
#     4  10  21  35  51  77 105 129 168 215 258 305
#
# _framework density 18.321912000000001
#
# number of rings (size 3 to 8) (size 9 to 14) (size 15 to 20)
#    0.000    2.000    0.000    4.200    0.000    4.000 
#    0.000    6.000    0.000    1.200    0.000    0.000 
#    0.000    0.000    0.000    0.000    0.000    0.000 
#
# Total GULP energy -223166.176906 kJ/mol
# GULP energy per Si atom -5579.154423 kJ/mol
# Density = 1.828021 g / cm^3
# Si number density = 18.321912 Si / 1000 Ang^3
#
#
#
# Elastic Constant Matrix: (Units=GPa)
#
#
# Indices 1 2 3 4 5 6 
#
# 1 115.1992 34.9499 18.3295 0.0000 0.0000 0.0000
# 2 34.9499 57.9621 -4.2947 0.0000 0.0000 0.0000
# 3 18.3295 -4.2947 68.4742 0.0000 0.0000 0.0000
# 4 0.0000 0.0000 0.0000 24.4348 0.0000 0.0000
# 5 0.0000 0.0000 0.0000 0.0000 15.2413 0.0000
# 6 0.0000 0.0000 0.0000 0.0000 0.0000 5.1928
#
#
#
# Elastic Compliance Matrix: (Units=1/GPa)
#
#
# Indices 1 2 3 4 5 6 
#
# 1 0.011402 -0.007134 -0.003500 0.000000 0.000000 0.000000
# 2 -0.007134 0.021797 0.003277 0.000000 0.000000 0.000000
# 3 -0.003500 0.003277 0.015746 0.000000 0.000000 0.000000
# 4 0.000000 0.000000 0.000000 0.040925 0.000000 0.000000
# 5 0.000000 0.000000 0.000000 0.000000 0.065611 0.000000
# 6 0.000000 0.000000 0.000000 0.000000 0.000000 0.192575
#
#
# Mechanical properties :
#
#
# Convention : Reuss Voigt Hill
#
# Bulk Modulus (GPa) = 29.21290 37.73385 33.47338
# Shear Modulus (GPa) = 13.36250 21.81717 17.58983
#
# Velocity S-wave (km/s) = 2.70352 3.45450 3.10182
# Velocity P-wave (km/s) = 5.07190 6.04574 5.58011
#
# Compressibility (1/GPa) = 0.03423145
#
# Stress axis : x y z
#
# Youngs Moduli (GPa) = 87.70442 45.87712 63.50671
#
# Poissons Ratio (x) = 0.32731 0.22225
# Poissons Ratio (y) = 0.62572 -0.20811
# Poissons Ratio (z) = 0.30693 -0.15034
#
# Static dielectric constant tensor:
#      x y z
#    x 1.636960 0.000000 0.000000 
#    y 0.000000 1.608700 0.000000 
#    z 0.000000 0.000000 1.634900 
# 
# From -- ./inp_files/2348.got.cif
#   From: 2010.05.17/outbox.cif.g08.bks.cpg/sg64_2_cif.got.tgz:2348.got - 2010.06.03 16:29:19.
