data_PCOD9477071
_publ_section_title
;
Structure prediction by ZEFSAII (Michael W. Deem and Ramdas Pophale) SiO2 
 PCOD9477071
Probable space group: C M C A
;
_chemical_formula_sum "Si O2"
_cell_formula_units_Z 96
_cell_length_a 16.811064
_cell_length_b 17.271398
_cell_length_c 18.429033
_cell_angle_alpha 90.000000
_cell_angle_beta 90.000000
_cell_angle_gamma 90.000000
_cell_volume 5350.880368
_symmetry_space_group_name_H-M "C M C A"
_symmetry_group_IT_number 64
_symmetry_cell_setting 'orthorhombic'
loop_
_space_group_symop_operation_xyz
x,y,z
-x,1/2-y,1/2+z
x,-y,-z
-x,1/2+y,1/2-z
-x,-y,-z
x,1/2+y,1/2-z
-x,y,z
x,1/2-y,1/2+z
1/2+x,1/2+y,z
1/2-x,-y,1/2+z
1/2+x,1/2-y,-z
1/2-x,y,1/2-z
1/2-x,1/2-y,-z
1/2+x,y,1/2-z
1/2-x,1/2+y,z
1/2+x,-y,1/2+z
loop_
_atom_site_type_symbol
_atom_site_label
_atom_site_fract_x
_atom_site_fract_y
_atom_site_fract_z
Si Si1 0.908519 0.758792 0.533153
Si Si2 0.308491 0.785510 0.112010
Si Si3 0.906317 0.314487 0.702613
Si Si4 0.824144 0.894185 0.068711
Si Si5 0.321182 0.064315 0.398421
Si Si6 0.178276 0.847245 0.646500
O O1 0.850354 0.768344 0.464661
O O2 0.885820 0.677260 0.571585
O O3 0.889381 0.829441 0.587443
O O4 0.000000 0.757816 0.510650
O O5 0.374008 0.768287 0.173236
O O6 0.258612 0.863659 0.102841
O O7 0.241931 0.721063 0.130278
O O8 0.882050 0.378248 0.641970
O O9 0.858707 0.337920 0.774643
O O10 0.000000 0.313017 0.714448
O O11 0.847484 0.975269 0.104523
O O12 0.814150 0.911554 0.982875
O O13 0.233231 0.077749 0.364650
#
# Coordination Sequence:
#
# PCOD9477071 Si02
#       6
#    16  16  16  16  16  16
#     4  11  19  32  56  85 113 139 175 233 282 314
#     4  10  18  35  56  81 106 140 186 226 265 318
#     4  11  22  35  55  83 111 143 181 225 276 326
#     4  10  19  33  56  82 108 136 181 226 272 319
#     4  10  19  34  55  79 108 144 179 219 265 330
#     4  10  19  37  54  75 109 151 187 212 260 332
#
# _framework density 17.940971999999999
#
# number of rings (size 3 to 8) (size 9 to 14) (size 15 to 20)
#    0.000    1.667    5.000    4.000    0.000    0.667 
#    0.000    8.333    0.000    9.000    0.000    0.000 
#    0.000    0.000    0.000    0.000    0.000    0.000 
#
# Total GULP energy -267428.957937 kJ/mol
# GULP energy per Si atom -5571.436624 kJ/mol
# Density = 1.790014 g / cm^3
# Si number density = 17.940972 Si / 1000 Ang^3
#
#
#
# Elastic Constant Matrix: (Units=GPa)
#
#
# Indices 1 2 3 4 5 6 
#
# 1 78.0670 -1.2316 9.8540 0.0000 0.0000 0.0000
# 2 -1.2316 12.2318 -13.3185 0.0000 0.0000 0.0000
# 3 9.8540 -13.3185 63.2947 0.0000 0.0000 0.0000
# 4 0.0000 0.0000 0.0000 13.3051 0.0000 0.0000
# 5 0.0000 0.0000 0.0000 0.0000 19.3409 0.0000
# 6 0.0000 0.0000 0.0000 0.0000 0.0000 13.9077
#
#
#
# Elastic Compliance Matrix: (Units=1/GPa)
#
#
# Indices 1 2 3 4 5 6 
#
# 1 0.013079 -0.001168 -0.002282 0.000000 0.000000 0.000000
# 2 -0.001168 0.106157 0.022519 0.000000 0.000000 0.000000
# 3 -0.002282 0.022519 0.020893 0.000000 0.000000 0.000000
# 4 0.000000 0.000000 0.000000 0.075159 0.000000 0.000000
# 5 0.000000 0.000000 0.000000 0.000000 0.051704 0.000000
# 6 0.000000 0.000000 0.000000 0.000000 0.000000 0.071903
#
#
# Mechanical properties :
#
#
# Convention : Reuss Voigt Hill
#
# Bulk Modulus (GPa) = 5.60953 16.02238 10.81595
# Shear Modulus (GPa) = 13.88203 19.86338 16.87271
#
# Velocity S-wave (km/s) = 2.78467 3.33100 3.07001
# Velocity P-wave (km/s) = 3.67051 4.87279 4.31374
#
# Compressibility (1/GPa) = 0.17826803
#
# Stress axis : x y z
#
# Youngs Moduli (GPa) = 76.45769 9.42003 47.86310
#
# Poissons Ratio (x) = 0.01100 0.10922
# Poissons Ratio (y) = 0.08929 -1.07785
# Poissons Ratio (z) = 0.17447 -0.21213
#
# Static dielectric constant tensor:
#      x y z
#    x 1.642060 0.000000 0.000000 
#    y 0.000000 1.632150 0.000000 
#    z 0.000000 0.000000 1.637110 
# 
# From -- ./inp_files/33316.got.cif
#   From: 2010.05.17/outbox.cif.g08.bks.cpg/sg64_17_cif.got.tgz:33316.got - 2010.06.03 16:29:19.
