data_PCOD9477469
_publ_section_title
;
Structure prediction by ZEFSAII (Michael W. Deem and Ramdas Pophale) SiO2 
 PCOD9477469
Probable space group: C M C A
;
_chemical_formula_sum "Si O2"
_cell_formula_units_Z 96
_cell_length_a 8.336573
_cell_length_b 24.347400
_cell_length_c 26.228216
_cell_angle_alpha 90.000000
_cell_angle_beta 90.000000
_cell_angle_gamma 90.000000
_cell_volume 5323.642700
_symmetry_space_group_name_H-M "C M C A"
_symmetry_group_IT_number 64
_symmetry_cell_setting 'orthorhombic'
loop_
_space_group_symop_operation_xyz
x,y,z
-x,1/2-y,1/2+z
x,-y,-z
-x,1/2+y,1/2-z
-x,-y,-z
x,1/2+y,1/2-z
-x,y,z
x,1/2-y,1/2+z
1/2+x,1/2+y,z
1/2-x,-y,1/2+z
1/2+x,1/2-y,-z
1/2-x,y,1/2-z
1/2-x,1/2-y,-z
1/2+x,y,1/2-z
1/2-x,1/2+y,z
1/2+x,-y,1/2+z
loop_
_atom_site_type_symbol
_atom_site_label
_atom_site_fract_x
_atom_site_fract_y
_atom_site_fract_z
Si Si1 0.808434 0.367990 0.401831
Si Si2 0.193843 0.562094 0.193162
Si Si3 0.194081 0.936983 0.498519
Si Si4 0.808359 0.436334 0.193304
Si Si5 0.694243 0.250508 0.058661
Si Si6 0.304131 0.367414 0.597314
O O1 0.752991 0.406188 0.448389
O O2 0.749767 0.394446 0.349397
O O3 0.749980 0.306217 0.413848
O O4 0.000000 0.366544 0.400947
O O5 0.250000 0.576432 0.250000
O O6 0.247122 0.499188 0.182204
O O7 0.249987 0.603824 0.149481
O O8 0.000000 0.562084 0.192650
O O9 0.245478 0.904185 0.548943
O O10 0.000000 0.936876 0.497650
O O11 0.248150 0.000000 0.500000
O O12 0.750000 0.422205 0.250000
O O13 0.000000 0.436996 0.192930
O O14 0.500000 0.250404 0.058304
O O15 0.748075 0.194940 0.086949
O O16 0.750000 0.250000 0.000000
O O17 0.500000 0.367388 0.598115
#
# Coordination Sequence:
#
# PCOD9477469 Si02
#       6
#    16  16  16  16  16  16
#     4  11  22  34  51  79 111 142 178 221 270 322
#     4   9  18  34  56  80 104 134 173 215 265 318
#     4  10  19  32  53  78 103 137 179 220 269 328
#     4  10  20  36  58  81 107 140 178 220 267 323
#     4  10  20  35  54  75 104 144 184 221 263 315
#     4   9  17  32  53  75 103 138 175 216 261 313
#
# _framework density 18.032765999999999
#
# number of rings (size 3 to 8) (size 9 to 14) (size 15 to 20)
#    0.000    2.167    1.667    2.000    0.000    4.333 
#    0.000    2.500    0.000    2.000    0.000    0.000 
#    0.000    0.000    0.000    0.000    0.000    0.000 
#
# Total GULP energy -267918.049889 kJ/mol
# GULP energy per Si atom -5581.626039 kJ/mol
# Density = 1.799172 g / cm^3
# Si number density = 18.032766 Si / 1000 Ang^3
#
#
#
# Elastic Constant Matrix: (Units=GPa)
#
#
# Indices 1 2 3 4 5 6 
#
# 1 9.0196 25.4356 17.5863 0.0000 0.0000 0.0000
# 2 25.4356 195.5834 129.8022 0.0000 0.0000 0.0000
# 3 17.5863 129.8022 172.3432 0.0000 0.0000 0.0000
# 4 0.0000 0.0000 0.0000 20.3428 0.0000 0.0000
# 5 0.0000 0.0000 0.0000 0.0000 31.8879 0.0000
# 6 0.0000 0.0000 0.0000 0.0000 0.0000 2.7692
#
#
#
# Elastic Compliance Matrix: (Units=1/GPa)
#
#
# Indices 1 2 3 4 5 6 
#
# 1 0.175257 -0.021840 -0.001435 0.000000 0.000000 0.000000
# 2 -0.021840 0.012944 -0.007521 0.000000 0.000000 0.000000
# 3 -0.001435 -0.007521 0.011613 0.000000 0.000000 0.000000
# 4 0.000000 0.000000 0.000000 0.049158 0.000000 0.000000
# 5 0.000000 0.000000 0.000000 0.000000 0.031360 0.000000
# 6 0.000000 0.000000 0.000000 0.000000 0.000000 0.361110
#
#
# Mechanical properties :
#
#
# Convention : Reuss Voigt Hill
#
# Bulk Modulus (GPa) = 7.23462 80.28828 43.76145
# Shear Modulus (GPa) = 6.67461 24.60812 15.64137
#
# Velocity S-wave (km/s) = 1.92598 3.69810 2.94834
# Velocity P-wave (km/s) = 2.99442 7.92810 5.99255
#
# Compressibility (1/GPa) = 0.13822423
#
# Stress axis : x y z
#
# Youngs Moduli (GPa) = 5.70589 77.25359 86.11068
#
# Poissons Ratio (x) = 1.68723 0.12353
# Poissons Ratio (y) = 0.12462 0.64760
# Poissons Ratio (z) = 0.00819 0.58099
#
# Static dielectric constant tensor:
#      x y z
#    x 1.615320 0.000000 0.000000 
#    y 0.000000 1.626070 0.000000 
#    z 0.000000 0.000000 1.569460 
# 
# From -- ./inp_files/42982.got.cif
#   From: 2010.05.17/outbox.cif.g08.bks.cpg/sg64_22_cif.got.tgz:42982.got - 2010.06.03 16:29:19.
