data_PCOD9477366
_publ_section_title
;
Structure prediction by ZEFSAII (Michael W. Deem and Ramdas Pophale) SiO2 
 PCOD9477366
Probable space group: C M C A
;
_chemical_formula_sum "Si O2"
_cell_formula_units_Z 64
_cell_length_a 15.167771
_cell_length_b 42.214361
_cell_length_c 5.119874
_cell_angle_alpha 90.000000
_cell_angle_beta 90.000000
_cell_angle_gamma 90.000000
_cell_volume 3278.243857
_symmetry_space_group_name_H-M "C M C A"
_symmetry_group_IT_number 64
_symmetry_cell_setting 'orthorhombic'
loop_
_space_group_symop_operation_xyz
x,y,z
-x,1/2-y,1/2+z
x,-y,-z
-x,1/2+y,1/2-z
-x,-y,-z
x,1/2+y,1/2-z
-x,y,z
x,1/2-y,1/2+z
1/2+x,1/2+y,z
1/2-x,-y,1/2+z
1/2+x,1/2-y,-z
1/2-x,y,1/2-z
1/2-x,1/2-y,-z
1/2+x,y,1/2-z
1/2-x,1/2+y,z
1/2+x,-y,1/2+z
loop_
_atom_site_type_symbol
_atom_site_label
_atom_site_fract_x
_atom_site_fract_y
_atom_site_fract_z
Si Si1 0.185535 0.500000 0.000000
Si Si2 0.399609 0.132945 0.822848
Si Si3 0.811993 0.067880 0.502939
Si Si4 0.897145 0.825071 0.841754
Si Si5 0.250000 0.272588 0.750000
O O1 0.250000 0.501198 0.250000
O O2 0.136949 0.534073 0.015653
O O3 0.500000 0.126680 0.740589
O O4 0.360601 0.152058 0.574414
O O5 0.362482 0.099718 0.923333
O O6 0.397485 0.155639 0.072508
O O7 0.750000 0.072557 0.250000
O O8 0.750000 0.063072 0.750000
O O9 0.834521 0.795280 0.792165
O O10 0.000000 0.816561 0.903546
O O11 0.250000 0.250000 0.500000
#
# Coordination Sequence:
#
# PCOD9477366 Si02
#       5
#     8  16  16  16   8
#     4   8  16  30  45  72 113 144 188 238 286 342
#     4  10  21  37  56  84 115 149 191 237 288 340
#     4  10  19  31  53  81 108 151 194 240 289 337
#     4  10  23  41  61  86 121 152 186 240 288 336
#     4  12  26  42  64  92 116 150 194 230 276 354
#
# _framework density 19.522648
#
# number of rings (size 3 to 8) (size 9 to 14) (size 15 to 20)
#    0.000    2.000    0.000    3.000    5.250    1.000 
#    0.000    0.625    0.000    0.000    0.000   15.750 
#    0.000    0.000    0.000    0.000    0.000    0.000 
#
# Total GULP energy -178234.304126 kJ/mol
# GULP energy per Si atom -5569.822004 kJ/mol
# Density = 1.947821 g / cm^3
# Si number density = 19.522648 Si / 1000 Ang^3
#
#
#
# Elastic Constant Matrix: (Units=GPa)
#
#
# Indices 1 2 3 4 5 6 
#
# 1 54.0088 68.5586 12.6866 0.0000 0.0000 0.0000
# 2 68.5586 182.6645 32.3667 0.0000 0.0000 0.0000
# 3 12.6866 32.3667 129.7599 0.0000 0.0000 0.0000
# 4 0.0000 0.0000 0.0000 37.2053 0.0000 0.0000
# 5 0.0000 0.0000 0.0000 0.0000 12.1568 0.0000
# 6 0.0000 0.0000 0.0000 0.0000 0.0000 -51.4974
#
#
#
# Elastic Compliance Matrix: (Units=1/GPa)
#
#
# Indices 1 2 3 4 5 6 
#
# 1 0.035367 -0.013247 -0.000154 0.000000 0.000000 0.000000
# 2 -0.013247 0.010689 -0.001371 0.000000 0.000000 0.000000
# 3 -0.000154 -0.001371 0.008064 0.000000 0.000000 0.000000
# 4 0.000000 0.000000 0.000000 0.026878 0.000000 0.000000
# 5 0.000000 0.000000 0.000000 0.000000 0.082259 0.000000
# 6 0.000000 0.000000 0.000000 0.000000 0.000000 -0.019418
#
#
# Mechanical properties :
#
#
# Convention : Reuss Voigt Hill
#
# Bulk Modulus (GPa) = 40.68882 65.96188 53.32535
# Shear Modulus (GPa) = 27.53696 16.42770 21.98233
#
# Velocity S-wave (km/s) = 3.75975 2.90396 3.35922
# Velocity P-wave (km/s) = 6.30355 6.71600 6.51304
#
# Compressibility (1/GPa) = 0.02457678
#
# Stress axis : x y z
#
# Youngs Moduli (GPa) = 28.27467 93.55045 124.01450
#
# Poissons Ratio (x) = 1.23927 0.01905
# Poissons Ratio (y) = 0.37456 0.17004
# Poissons Ratio (z) = 0.00434 0.12827
#
# Static dielectric constant tensor:
#      x y z
#    x 1.717460 0.000000 0.000000 
#    y 0.000000 1.788730 0.000000 
#    z 0.000000 0.000000 1.662590 
# 
# From -- ./inp_files/1372.got.cif
#   From: 2010.05.17/outbox.cif.g08.bks.cpg/sg64_1_cif.got.tgz:1372.got - 2010.06.03 16:29:19.
