data_PCOD9477742
_publ_section_title
;
Structure prediction by ZEFSAII (Michael W. Deem and Ramdas Pophale) SiO2 
 PCOD9477742
Probable space group: C M C A
;
_chemical_formula_sum "Si O2"
_cell_formula_units_Z 96
_cell_length_a 10.262143
_cell_length_b 20.476104
_cell_length_c 24.273809
_cell_angle_alpha 90.000000
_cell_angle_beta 90.000000
_cell_angle_gamma 90.000000
_cell_volume 5100.624107
_symmetry_space_group_name_H-M "C M C A"
_symmetry_group_IT_number 64
_symmetry_cell_setting 'orthorhombic'
loop_
_space_group_symop_operation_xyz
x,y,z
-x,1/2-y,1/2+z
x,-y,-z
-x,1/2+y,1/2-z
-x,-y,-z
x,1/2+y,1/2-z
-x,y,z
x,1/2-y,1/2+z
1/2+x,1/2+y,z
1/2-x,-y,1/2+z
1/2+x,1/2-y,-z
1/2-x,y,1/2-z
1/2-x,1/2-y,-z
1/2+x,y,1/2-z
1/2-x,1/2+y,z
1/2+x,-y,1/2+z
loop_
_atom_site_type_symbol
_atom_site_label
_atom_site_fract_x
_atom_site_fract_y
_atom_site_fract_z
Si Si1 0.147619 0.665696 0.879579
Si Si2 0.147643 0.848000 0.511951
Si Si3 0.650358 0.016276 0.864325
Si Si4 0.647658 0.110972 0.203192
Si Si5 0.147660 0.273519 0.881315
Si Si6 0.147418 0.453103 0.552062
O O1 0.170725 0.593297 0.855364
O O2 0.250601 0.719789 0.862263
O O3 0.000000 0.685301 0.865781
O O4 0.155584 0.661152 0.946492
O O5 0.156184 0.786152 0.552882
O O6 0.265964 0.892824 0.531562
O O7 0.000000 0.875424 0.522689
O O8 0.500000 0.010605 0.886433
O O9 0.657079 0.964893 0.814431
O O10 0.762759 0.991231 0.904659
O O11 0.500000 0.123014 0.222126
O O12 0.750000 0.126827 0.250000
O O13 0.668765 0.157429 0.149925
O O14 0.000000 0.252686 0.869187
O O15 0.134536 0.500000 0.500000
O O16 0.000000 0.436469 0.571347
#
# Coordination Sequence:
#
# PCOD9477742 Si02
#       6
#    16  16  16  16  16  16
#     4  10  21  34  56  86 116 155 190 223 272 334
#     4  10  19  34  55  79 113 160 196 222 269 334
#     4  10  20  38  60  80 110 149 191 231 279 342
#     4  10  22  41  64  86 106 140 188 239 291 339
#     4  10  21  37  57  82 116 153 188 231 279 331
#     4  11  21  30  48  83 119 150 187 233 276 318
#
# _framework density 18.821227
#
# number of rings (size 3 to 8) (size 9 to 14) (size 15 to 20)
#    0.000    1.833    3.333    1.000    0.000    4.000 
#    0.000    0.833    0.000    4.000    0.000    0.000 
#    0.000    0.000    0.000    0.000    0.000    0.000 
#
# Total GULP energy -267524.429897 kJ/mol
# GULP energy per Si atom -5573.425623 kJ/mol
# Density = 1.877839 g / cm^3
# Si number density = 18.821227 Si / 1000 Ang^3
#
#
#
# Elastic Constant Matrix: (Units=GPa)
#
#
# Indices 1 2 3 4 5 6 
#
# 1 126.1675 57.6148 17.9816 0.0000 0.0000 0.0000
# 2 57.6148 86.7220 2.3118 0.0000 0.0000 0.0000
# 3 17.9816 2.3118 28.9840 0.0000 0.0000 0.0000
# 4 0.0000 0.0000 0.0000 8.4850 0.0000 0.0000
# 5 0.0000 0.0000 0.0000 0.0000 31.4011 0.0000
# 6 0.0000 0.0000 0.0000 0.0000 0.0000 33.0885
#
#
#
# Elastic Compliance Matrix: (Units=1/GPa)
#
#
# Indices 1 2 3 4 5 6 
#
# 1 0.012733 -0.008266 -0.007240 0.000000 0.000000 0.000000
# 2 -0.008266 0.016922 0.003779 0.000000 0.000000 0.000000
# 3 -0.007240 0.003779 0.038692 0.000000 0.000000 0.000000
# 4 0.000000 0.000000 0.000000 0.117855 0.000000 0.000000
# 5 0.000000 0.000000 0.000000 0.000000 0.031846 0.000000
# 6 0.000000 0.000000 0.000000 0.000000 0.000000 0.030222
#
#
# Mechanical properties :
#
#
# Convention : Reuss Voigt Hill
#
# Bulk Modulus (GPa) = 22.27585 44.18777 33.23181
# Shear Modulus (GPa) = 17.44053 25.52594 21.48323
#
# Velocity S-wave (km/s) = 3.04738 3.68670 3.38218
# Velocity P-wave (km/s) = 4.92374 6.45375 5.73995
#
# Compressibility (1/GPa) = 0.04489167
#
# Stress axis : x y z
#
# Youngs Moduli (GPa) = 78.53912 59.09478 25.84513
#
# Poissons Ratio (x) = 0.48848 0.18712
# Poissons Ratio (y) = 0.64920 -0.09766
# Poissons Ratio (z) = 0.56862 -0.22329
#
# Static dielectric constant tensor:
#      x y z
#    x 1.666610 0.000000 0.000000 
#    y 0.000000 1.664200 0.000000 
#    z 0.000000 0.000000 1.662400 
# 
# From -- ./inp_files/48153.got.cif
#   From: 2010.05.17/outbox.cif.g08.bks.cpg/sg64_25_cif.got.tgz:48153.got - 2010.06.03 16:29:19.
