data_PCOD9477730
_publ_section_title
;
Structure prediction by ZEFSAII (Michael W. Deem and Ramdas Pophale) SiO2 
 PCOD9477730
Probable space group: C M C A
;
_chemical_formula_sum "Si O2"
_cell_formula_units_Z 80
_cell_length_a 8.494088
_cell_length_b 16.230883
_cell_length_c 29.398545
_cell_angle_alpha 90.000000
_cell_angle_beta 90.000000
_cell_angle_gamma 90.000000
_cell_volume 4053.075931
_symmetry_space_group_name_H-M "C M C A"
_symmetry_group_IT_number 64
_symmetry_cell_setting 'orthorhombic'
loop_
_space_group_symop_operation_xyz
x,y,z
-x,1/2-y,1/2+z
x,-y,-z
-x,1/2+y,1/2-z
-x,-y,-z
x,1/2+y,1/2-z
-x,y,z
x,1/2-y,1/2+z
1/2+x,1/2+y,z
1/2-x,-y,1/2+z
1/2+x,1/2-y,-z
1/2-x,y,1/2-z
1/2-x,1/2-y,-z
1/2+x,y,1/2-z
1/2-x,1/2+y,z
1/2+x,-y,1/2+z
loop_
_atom_site_type_symbol
_atom_site_label
_atom_site_fract_x
_atom_site_fract_y
_atom_site_fract_z
Si Si1 0.312907 0.969383 0.855765
Si Si2 0.189095 0.719627 0.548318
Si Si3 0.810327 0.471764 0.449269
Si Si4 0.192439 0.212458 0.355998
Si Si5 0.311852 0.626275 0.801087
O O1 0.500000 0.974026 0.849725
O O2 0.257711 0.878455 0.840436
O O3 0.271527 0.978715 0.909005
O O4 0.237794 0.045727 0.829295
O O5 0.250000 0.750000 0.500000
O O6 0.231590 0.624248 0.555834
O O7 0.244136 0.771093 0.592007
O O8 0.000000 0.723759 0.547166
O O9 0.767330 0.500000 0.500000
O O10 0.000000 0.480062 0.444517
O O11 0.244986 0.289671 0.325619
O O12 0.000000 0.212968 0.356043
O O13 0.500000 0.629314 0.800595
O O14 0.250000 0.621470 0.750000
#
# Coordination Sequence:
#
# PCOD9477730 Si02
#       5
#    16  16  16  16  16
#     4  11  22  38  62  92 122 157 203 251 302 359
#     4  10  19  34  54  81 118 160 199 243 296 350
#     4  10  20  35  56  84 122 165 205 248 302 359
#     4   9  20  39  61  84 121 161 196 245 302 355
#     4  11  23  44  67  89 121 159 200 250 307 363
#
# _framework density 19.738095999999999
#
# number of rings (size 3 to 8) (size 9 to 14) (size 15 to 20)
#    0.000    1.800    2.000    2.400    0.000    2.000 
#    0.000    7.000    0.000    0.000    0.000    0.000 
#    0.000    0.000    0.000    0.000    0.000    0.000 
#
# Total GULP energy -223445.552955 kJ/mol
# GULP energy per Si atom -5586.138824 kJ/mol
# Density = 1.969317 g / cm^3
# Si number density = 19.738096 Si / 1000 Ang^3
#
#
#
# Elastic Constant Matrix: (Units=GPa)
#
#
# Indices 1 2 3 4 5 6 
#
# 1 20.7308 29.3440 16.4434 0.0000 0.0000 0.0000
# 2 29.3440 165.7500 62.8053 0.0000 0.0000 0.0000
# 3 16.4434 62.8053 117.5767 0.0000 0.0000 0.0000
# 4 0.0000 0.0000 0.0000 23.4486 0.0000 0.0000
# 5 0.0000 0.0000 0.0000 0.0000 33.0090 0.0000
# 6 0.0000 0.0000 0.0000 0.0000 0.0000 17.8892
#
#
#
# Elastic Compliance Matrix: (Units=1/GPa)
#
#
# Indices 1 2 3 4 5 6 
#
# 1 0.065645 -0.010209 -0.003727 0.000000 0.000000 0.000000
# 2 -0.010209 0.009152 -0.003461 0.000000 0.000000 0.000000
# 3 -0.003727 -0.003461 0.010875 0.000000 0.000000 0.000000
# 4 0.000000 0.000000 0.000000 0.042646 0.000000 0.000000
# 5 0.000000 0.000000 0.000000 0.000000 0.030295 0.000000
# 6 0.000000 0.000000 0.000000 0.000000 0.000000 0.055900
#
#
# Mechanical properties :
#
#
# Convention : Reuss Voigt Hill
#
# Bulk Modulus (GPa) = 19.65519 57.91588 38.78554
# Shear Modulus (GPa) = 18.77820 27.90036 23.33928
#
# Velocity S-wave (km/s) = 3.08777 3.76377 3.44241
# Velocity P-wave (km/s) = 4.76362 6.94938 5.95760
#
# Compressibility (1/GPa) = 0.05087714
#
# Stress axis : x y z
#
# Youngs Moduli (GPa) = 15.23350 109.26577 91.95393
#
# Poissons Ratio (x) = 1.11553 0.34272
# Poissons Ratio (y) = 0.15552 0.31824
# Poissons Ratio (z) = 0.05678 0.37815
#
# Static dielectric constant tensor:
#      x y z
#    x 1.684900 0.000000 0.000000 
#    y 0.000000 1.715190 0.000000 
#    z 0.000000 0.000000 1.672200 
# 
# From -- ./inp_files/47805.got.cif
#   From: 2010.05.17/outbox.cif.g08.bks.cpg/sg64_24_cif.got.tgz:47805.got - 2010.06.03 16:29:19.
