data_PCOD9477815
_publ_section_title
;
Structure prediction by ZEFSAII (Michael W. Deem and Ramdas Pophale) SiO2 
 PCOD9477815
Probable space group: C M C A
;
_chemical_formula_sum "Si O2"
_cell_formula_units_Z 120
_cell_length_a 17.346608
_cell_length_b 20.355701
_cell_length_c 18.776835
_cell_angle_alpha 90.000000
_cell_angle_beta 90.000000
_cell_angle_gamma 90.000000
_cell_volume 6630.144861
_symmetry_space_group_name_H-M "C M C A"
_symmetry_group_IT_number 64
_symmetry_cell_setting 'orthorhombic'
loop_
_space_group_symop_operation_xyz
x,y,z
-x,1/2-y,1/2+z
x,-y,-z
-x,1/2+y,1/2-z
-x,-y,-z
x,1/2+y,1/2-z
-x,y,z
x,1/2-y,1/2+z
1/2+x,1/2+y,z
1/2-x,-y,1/2+z
1/2+x,1/2-y,-z
1/2-x,y,1/2-z
1/2-x,1/2-y,-z
1/2+x,y,1/2-z
1/2-x,1/2+y,z
1/2+x,-y,1/2+z
loop_
_atom_site_type_symbol
_atom_site_label
_atom_site_fract_x
_atom_site_fract_y
_atom_site_fract_z
Si Si1 0.283763 0.796009 0.561268
Si Si2 0.091162 0.964348 0.632906
Si Si3 0.823186 0.726130 0.791911
Si Si4 0.179024 0.500000 0.500000
Si Si5 0.590679 0.614837 0.630794
Si Si6 0.842694 0.131603 0.247793
Si Si7 0.092212 0.894959 0.909237
Si Si8 0.314012 0.592151 0.493181
O O1 0.250000 0.750000 0.500000
O O2 0.291162 0.757466 0.634671
O O3 0.366192 0.832808 0.551660
O O4 0.223050 0.855379 0.560939
O O5 0.120048 0.912280 0.690908
O O6 0.133924 0.952200 0.558181
O O7 0.000000 0.956797 0.622536
O O8 0.106063 0.039874 0.655281
O O9 0.750000 0.698673 0.750000
O O10 0.881616 0.669394 0.813647
O O11 0.856269 0.789386 0.749422
O O12 0.126117 0.461273 0.555723
O O13 0.240337 0.554568 0.527192
O O14 0.500000 0.621312 0.617672
O O15 0.636512 0.622966 0.556504
O O16 0.750000 0.123041 0.250000
O O17 0.877871 0.109507 0.171937
O O18 0.000000 0.892049 0.912893
#
# Coordination Sequence:
#
# PCOD9477815 Si02
#       8
#    16  16  16   8  16  16  16  16
#     4  10  20  37  59  85 116 153 204 242 286 361
#     4  11  22  37  57  88 122 152 195 251 309 363
#     4  10  21  40  59  85 115 157 202 245 295 357
#     4  10  19  34  59  80 118 152 198 236 291 354
#     4  11  23  36  56  88 121 153 197 250 307 363
#     4  10  21  39  63  84 115 156 207 245 295 371
#     4  10  21  36  58  89 119 153 196 249 299 347
#     4  11  19  36  60  86 113 159 196 244 300 359
#
# _framework density 18.099152
#
# number of rings (size 3 to 8) (size 9 to 14) (size 15 to 20)
#    0.000    1.600    2.667    4.200    0.000    4.267 
#    0.000    0.000    0.000    0.800    0.000    0.000 
#    0.000    0.000    0.000    0.000    0.000    0.000 
#
# Total GULP energy -334483.914625 kJ/mol
# GULP energy per Si atom -5574.731910 kJ/mol
# Density = 1.805796 g / cm^3
# Si number density = 18.099152 Si / 1000 Ang^3
#
#
#
# Elastic Constant Matrix: (Units=GPa)
#
#
# Indices 1 2 3 4 5 6 
#
# 1 136.8628 66.2587 47.5352 0.0000 0.0000 0.0000
# 2 66.2587 86.7213 36.9093 0.0000 0.0000 0.0000
# 3 47.5352 36.9093 54.1020 0.0000 0.0000 0.0000
# 4 0.0000 0.0000 0.0000 34.0777 0.0000 0.0000
# 5 0.0000 0.0000 0.0000 0.0000 25.8344 0.0000
# 6 0.0000 0.0000 0.0000 0.0000 0.0000 24.6005
#
#
#
# Elastic Compliance Matrix: (Units=1/GPa)
#
#
# Indices 1 2 3 4 5 6 
#
# 1 0.013072 -0.007186 -0.006583 0.000000 0.000000 0.000000
# 2 -0.007186 0.020199 -0.007467 0.000000 0.000000 0.000000
# 3 -0.006583 -0.007467 0.029362 0.000000 0.000000 0.000000
# 4 0.000000 0.000000 0.000000 0.029345 0.000000 0.000000
# 5 0.000000 0.000000 0.000000 0.000000 0.038708 0.000000
# 6 0.000000 0.000000 0.000000 0.000000 0.000000 0.040650
#
#
# Mechanical properties :
#
#
# Convention : Reuss Voigt Hill
#
# Bulk Modulus (GPa) = 49.59896 64.34363 56.97129
# Shear Modulus (GPa) = 22.67305 25.36806 24.02056
#
# Velocity S-wave (km/s) = 3.54321 3.74788 3.64698
# Velocity P-wave (km/s) = 6.64851 7.37269 7.01994
#
# Compressibility (1/GPa) = 0.02016171
#
# Stress axis : x y z
#
# Youngs Moduli (GPa) = 76.50117 49.50688 34.05811
#
# Poissons Ratio (x) = 0.35573 0.22420
# Poissons Ratio (y) = 0.54970 0.25431
# Poissons Ratio (z) = 0.50361 0.36966
#
# Static dielectric constant tensor:
#      x y z
#    x 1.605920 0.000000 0.000000 
#    y 0.000000 1.675820 0.000000 
#    z 0.000000 0.000000 1.606130 
# 
# From -- ./inp_files/33670.got.cif
#   From: 2010.05.17/outbox.cif.g08.bks.cpg/sg64_17_cif.got.tgz:33670.got - 2010.06.03 16:29:19.
