data_PCOD9477111
_publ_section_title
;
Structure prediction by ZEFSAII (Michael W. Deem and Ramdas Pophale) SiO2 
 PCOD9477111
Probable space group: C M C A
;
_chemical_formula_sum "Si O2"
_cell_formula_units_Z 56
_cell_length_a 9.924527
_cell_length_b 14.198112
_cell_length_c 19.309606
_cell_angle_alpha 90.000000
_cell_angle_beta 90.000000
_cell_angle_gamma 90.000000
_cell_volume 2720.907813
_symmetry_space_group_name_H-M "C M C A"
_symmetry_group_IT_number 64
_symmetry_cell_setting 'orthorhombic'
loop_
_space_group_symop_operation_xyz
x,y,z
-x,1/2-y,1/2+z
x,-y,-z
-x,1/2+y,1/2-z
-x,-y,-z
x,1/2+y,1/2-z
-x,y,z
x,1/2-y,1/2+z
1/2+x,1/2+y,z
1/2-x,-y,1/2+z
1/2+x,1/2-y,-z
1/2-x,y,1/2-z
1/2-x,1/2-y,-z
1/2+x,y,1/2-z
1/2-x,1/2+y,z
1/2+x,-y,1/2+z
loop_
_atom_site_type_symbol
_atom_site_label
_atom_site_fract_x
_atom_site_fract_y
_atom_site_fract_z
Si Si1 0.255971 0.592261 0.032813
Si Si2 0.000000 0.558050 0.364692
Si Si3 0.500000 0.270674 0.349357
Si Si4 0.500000 0.140593 0.701485
Si Si5 0.704206 0.280631 0.093781
O O1 0.369412 0.556154 0.085865
O O2 0.172338 0.673269 0.071970
O O3 0.187732 0.500000 0.000000
O O4 0.325847 0.650569 0.970270
O O5 0.000000 0.660156 0.328660
O O6 0.000000 0.470373 0.313614
O O7 0.500000 0.334087 0.281466
O O8 0.635533 0.286201 0.392877
O O9 0.373009 0.185942 0.661574
#
# Coordination Sequence:
#
# PCOD9477111 Si02
#       5
#    16   8   8   8  16
#     4  10  18  36  62  92 118 150 199 252 298 354
#     4  10  20  38  67  84 117 167 210 227 302 383
#     4  10  24  43  55  89 127 159 199 252 291 356
#     4  12  21  42  65  84 119 172 208 232 292 374
#     4  10  22  37  63  92 120 155 199 256 300 346
#
# _framework density 20.581368000000001
#
# number of rings (size 3 to 8) (size 9 to 14) (size 15 to 20)
#    0.000    1.714    2.857    2.143    0.000    3.429 
#    5.143    4.286    0.000    0.000    0.000    0.000 
#    0.000    0.000    0.000    0.000    0.000    0.000 
#
# Total GULP energy -156366.990800 kJ/mol
# GULP energy per Si atom -5584.535386 kJ/mol
# Density = 2.053452 g / cm^3
# Si number density = 20.581368 Si / 1000 Ang^3
#
#
#
# Elastic Constant Matrix: (Units=GPa)
#
#
# Indices 1 2 3 4 5 6 
#
# 1 72.8463 11.1164 6.3016 0.0000 0.0000 0.0000
# 2 11.1164 154.5683 43.2493 0.0000 0.0000 0.0000
# 3 6.3016 43.2493 87.5446 0.0000 0.0000 0.0000
# 4 0.0000 0.0000 0.0000 46.2034 0.0000 0.0000
# 5 0.0000 0.0000 0.0000 0.0000 -211.7689 0.0000
# 6 0.0000 0.0000 0.0000 0.0000 0.0000 17.5874
#
#
#
# Elastic Compliance Matrix: (Units=1/GPa)
#
#
# Indices 1 2 3 4 5 6 
#
# 1 0.013906 -0.000836 -0.000588 0.000000 0.000000 0.000000
# 2 -0.000836 0.007558 -0.003673 0.000000 0.000000 0.000000
# 3 -0.000588 -0.003673 0.013280 0.000000 0.000000 0.000000
# 4 0.000000 0.000000 0.000000 0.021643 0.000000 0.000000
# 5 0.000000 0.000000 0.000000 0.000000 -0.004722 0.000000
# 6 0.000000 0.000000 0.000000 0.000000 0.000000 0.056859
#
#
# Mechanical properties :
#
#
# Convention : Reuss Voigt Hill
#
# Bulk Modulus (GPa) = 40.73495 48.47710 44.60603
# Shear Modulus (GPa) = 39.40084 -12.64280 13.37902
#
# Velocity S-wave (km/s) = 4.38013 -2.48116 2.55238
# Velocity P-wave (km/s) = 6.73912 3.92387 5.51419
#
# Compressibility (1/GPa) = 0.02454894
#
# Stress axis : x y z
#
# Youngs Moduli (GPa) = 71.91184 132.31729 75.30186
#
# Poissons Ratio (x) = 0.11055 0.04429
# Poissons Ratio (y) = 0.06008 0.27662
# Poissons Ratio (z) = 0.04230 0.48607
#
# Static dielectric constant tensor:
#      x y z
#    x 1.736400 0.000000 0.000000 
#    y 0.000000 1.757570 0.000000 
#    z 0.000000 0.000000 1.693910 
# 
# From -- ./inp_files/21763.got.cif
#   From: 2010.05.17/outbox.cif.g08.bks.cpg/sg64_11_cif.got.tgz:21763.got - 2010.06.03 16:29:19.
