data_PCOD9477943
_publ_section_title
;
Structure prediction by ZEFSAII (Michael W. Deem and Ramdas Pophale) SiO2 
 PCOD9477943
Probable space group: C M C A
;
_chemical_formula_sum "Si O2"
_cell_formula_units_Z 96
_cell_length_a 14.918654
_cell_length_b 24.522116
_cell_length_c 10.895288
_cell_angle_alpha 90.000000
_cell_angle_beta 90.000000
_cell_angle_gamma 90.000000
_cell_volume 3985.899083
_symmetry_space_group_name_H-M "C M C A"
_symmetry_group_IT_number 64
_symmetry_cell_setting 'orthorhombic'
loop_
_space_group_symop_operation_xyz
x,y,z
-x,1/2-y,1/2+z
x,-y,-z
-x,1/2+y,1/2-z
-x,-y,-z
x,1/2+y,1/2-z
-x,y,z
x,1/2-y,1/2+z
1/2+x,1/2+y,z
1/2-x,-y,1/2+z
1/2+x,1/2-y,-z
1/2-x,y,1/2-z
1/2-x,1/2-y,-z
1/2+x,y,1/2-z
1/2-x,1/2+y,z
1/2+x,-y,1/2+z
loop_
_atom_site_type_symbol
_atom_site_label
_atom_site_fract_x
_atom_site_fract_y
_atom_site_fract_z
Si Si1 0.109296 0.410589 0.250242
Si Si2 0.899539 0.765581 0.876459
Si Si3 0.397325 0.478552 0.863586
Si Si4 0.392188 0.563238 0.488190
Si Si5 0.846633 0.626961 0.260809
Si Si6 0.889503 0.299926 0.359672
O O1 0.138735 0.471166 0.285873
O O2 0.137709 0.362841 0.341294
O O3 0.000000 0.411865 0.257667
O O4 0.135837 0.403253 0.109104
O O5 0.906228 0.825943 0.817521
O O6 0.860505 0.729599 0.766046
O O7 0.000000 0.742882 0.896872
O O8 0.858592 0.773090 0.012354
O O9 0.500000 0.465530 0.822794
O O10 0.342023 0.423905 0.853116
O O11 0.401840 0.500000 0.000000
O O12 0.358808 0.500000 0.500000
O O13 0.500000 0.558943 0.492559
O O14 0.371372 0.597406 0.366288
O O15 0.750000 0.653388 0.250000
O O16 0.000000 0.298208 0.363934
#
# Coordination Sequence:
#
# PCOD9477943 Si02
#       6
#    16  16  16  16  16  16
#     4   9  17  31  57  90 116 140 183 245 300 347
#     4  10  21  39  63  89 116 151 200 252 303 353
#     4  10  19  35  61  87 114 152 194 242 298 352
#     4  10  19  35  61  88 114 150 198 247 296 347
#     4  12  25  38  55  83 124 164 198 240 293 360
#     4   9  19  35  61  94 118 144 193 255 306 353
#
# _framework density 24.084904999999999
#
# number of rings (size 3 to 8) (size 9 to 14) (size 15 to 20)
#    0.000    2.000    1.667    2.500    2.333    3.333 
#    0.000    0.833    0.000    0.000    0.000    0.000 
#    0.000    0.000    0.000    0.000    0.000    0.000 
#
# Total GULP energy -268058.063967 kJ/mol
# GULP energy per Si atom -5584.542999 kJ/mol
# Density = 2.403009 g / cm^3
# Si number density = 24.084905 Si / 1000 Ang^3
#
#
#
# Elastic Constant Matrix: (Units=GPa)
#
#
# Indices 1 2 3 4 5 6 
#
# 1 46.6107 -4.3504 1.9274 0.0000 0.0000 0.0000
# 2 -4.3504 56.0668 -1.6603 0.0000 0.0000 0.0000
# 3 1.9274 -1.6603 104.6266 0.0000 0.0000 0.0000
# 4 0.0000 0.0000 0.0000 41.1953 0.0000 0.0000
# 5 0.0000 0.0000 0.0000 0.0000 -22.2694 0.0000
# 6 0.0000 0.0000 0.0000 0.0000 0.0000 -16.4673
#
#
#
# Elastic Compliance Matrix: (Units=1/GPa)
#
#
# Indices 1 2 3 4 5 6 
#
# 1 0.021625 0.001667 -0.000372 0.000000 0.000000 0.000000
# 2 0.001667 0.017973 0.000254 0.000000 0.000000 0.000000
# 3 -0.000372 0.000254 0.009569 0.000000 0.000000 0.000000
# 4 0.000000 0.000000 0.000000 0.024275 0.000000 0.000000
# 5 0.000000 0.000000 0.000000 0.000000 -0.044905 0.000000
# 6 0.000000 0.000000 0.000000 0.000000 0.000000 -0.060726
#
#
# Mechanical properties :
#
#
# Convention : Reuss Voigt Hill
#
# Bulk Modulus (GPa) = 19.13297 22.12638 20.62968
# Shear Modulus (GPa) = -279.85055 14.58420 -132.63318
#
# Velocity S-wave (km/s) = -10.79100 2.46343 -7.42890
# Velocity P-wave (km/s) = 12.13670 4.15909 8.06230
#
# Compressibility (1/GPa) = 0.05226580
#
# Stress axis : x y z
#
# Youngs Moduli (GPa) = 46.24221 55.63978 104.50752
#
# Poissons Ratio (x) = -0.09275 0.03887
# Poissons Ratio (y) = -0.07708 -0.02660
# Poissons Ratio (z) = 0.01720 -0.01416
#
# Static dielectric constant tensor:
#      x y z
#    x 2.294390 0.000000 0.000000 
#    y 0.000000 1.888580 0.000000 
#    z 0.000000 0.000000 1.963100 
# 
# From -- ./inp_files/17483.got.cif
#   From: 2010.05.17/outbox.cif.g08.bks.cpg/sg64_9_cif.got.tgz:17483.got - 2010.06.03 16:29:19.
