data_PCOD9477572
_publ_section_title
;
Structure prediction by ZEFSAII (Michael W. Deem and Ramdas Pophale) SiO2 
 PCOD9477572
Probable space group: C M C A
;
_chemical_formula_sum "Si O2"
_cell_formula_units_Z 80
_cell_length_a 17.892602
_cell_length_b 17.811437
_cell_length_c 15.769543
_cell_angle_alpha 90.000000
_cell_angle_beta 90.000000
_cell_angle_gamma 90.000000
_cell_volume 5025.642231
_symmetry_space_group_name_H-M "C M C A"
_symmetry_group_IT_number 64
_symmetry_cell_setting 'orthorhombic'
loop_
_space_group_symop_operation_xyz
x,y,z
-x,1/2-y,1/2+z
x,-y,-z
-x,1/2+y,1/2-z
-x,-y,-z
x,1/2+y,1/2-z
-x,y,z
x,1/2-y,1/2+z
1/2+x,1/2+y,z
1/2-x,-y,1/2+z
1/2+x,1/2-y,-z
1/2-x,y,1/2-z
1/2-x,1/2-y,-z
1/2+x,y,1/2-z
1/2-x,1/2+y,z
1/2+x,-y,1/2+z
loop_
_atom_site_type_symbol
_atom_site_label
_atom_site_fract_x
_atom_site_fract_y
_atom_site_fract_z
Si Si1 0.087265 0.040876 0.408909
Si Si2 0.322600 0.578574 0.698482
Si Si3 0.185258 0.232008 0.610132
Si Si4 0.848303 0.707427 0.078567
Si Si5 0.912999 0.210327 0.763926
O O1 0.132859 0.987777 0.345472
O O2 0.125907 0.878356 0.583906
O O3 0.000000 0.049004 0.384147
O O4 0.088710 0.000000 0.500000
O O5 0.250000 0.553995 0.750000
O O6 0.297891 0.643727 0.630977
O O7 0.378191 0.626946 0.757986
O O8 0.145949 0.234461 0.518861
O O9 0.261956 0.277948 0.604991
O O10 0.132925 0.253582 0.689494
O O11 0.896822 0.753917 0.145487
O O12 0.000000 0.209472 0.744012
#
# Coordination Sequence:
#
# PCOD9477572 Si02
#       5
#    16  16  16  16  16
#     4  11  22  35  55  85 113 140 182 239 292 326
#     4  10  19  37  53  76 113 147 181 224 280 336
#     4   9  20  35  56  76 113 146 185 228 272 330
#     4  11  19  35  58  80 108 147 191 228 273 341
#     4  10  19  33  53  78 111 144 182 228 277 334
#
# _framework density 15.918362999999999
#
# number of rings (size 3 to 8) (size 9 to 14) (size 15 to 20)
#    1.200    0.600    4.000    1.800    0.000    3.200 
#    0.000    0.000    0.000    0.000    0.000    0.000 
#    0.000   10.800    0.000    0.000    0.000    0.000 
#
# Total GULP energy -222669.433834 kJ/mol
# GULP energy per Si atom -5566.735846 kJ/mol
# Density = 1.588213 g / cm^3
# Si number density = 15.918363 Si / 1000 Ang^3
#
#
#
# Elastic Constant Matrix: (Units=GPa)
#
#
# Indices 1 2 3 4 5 6 
#
# 1 106.2502 40.9109 39.6380 0.0000 0.0000 0.0000
# 2 40.9109 73.1459 17.9499 0.0000 0.0000 0.0000
# 3 39.6380 17.9499 66.7203 0.0000 0.0000 0.0000
# 4 0.0000 0.0000 0.0000 22.2291 0.0000 0.0000
# 5 0.0000 0.0000 0.0000 0.0000 14.6996 0.0000
# 6 0.0000 0.0000 0.0000 0.0000 0.0000 5.6468
#
#
#
# Elastic Compliance Matrix: (Units=1/GPa)
#
#
# Indices 1 2 3 4 5 6 
#
# 1 0.014428 -0.006388 -0.006853 0.000000 0.000000 0.000000
# 2 -0.006388 0.017466 -0.000904 0.000000 0.000000 0.000000
# 3 -0.006853 -0.000904 0.019302 0.000000 0.000000 0.000000
# 4 0.000000 0.000000 0.000000 0.044986 0.000000 0.000000
# 5 0.000000 0.000000 0.000000 0.000000 0.068029 0.000000
# 6 0.000000 0.000000 0.000000 0.000000 0.000000 0.177090
#
#
# Mechanical properties :
#
#
# Convention : Reuss Voigt Hill
#
# Bulk Modulus (GPa) = 43.65530 49.23489 46.44509
# Shear Modulus (GPa) = 13.25463 18.35629 15.80546
#
# Velocity S-wave (km/s) = 2.88872 3.39949 3.15446
# Velocity P-wave (km/s) = 6.21372 6.81216 6.51981
#
# Compressibility (1/GPa) = 0.02290673
#
# Stress axis : x y z
#
# Youngs Moduli (GPa) = 69.30990 57.25436 51.80702
#
# Poissons Ratio (x) = 0.36574 0.35503
# Poissons Ratio (y) = 0.44275 0.04683
# Poissons Ratio (z) = 0.47498 0.05175
#
# Static dielectric constant tensor:
#      x y z
#    x 1.523470 0.000000 0.000000 
#    y 0.000000 1.510140 0.000000 
#    z 0.000000 0.000000 1.539500 
# 
# From -- ./inp_files/32256.got.cif
#   From: 2010.05.17/outbox.cif.g08.bks.cpg/sg64_17_cif.got.tgz:32256.got - 2010.06.03 16:29:19.
