data_PCOD9477714
_publ_section_title
;
Structure prediction by ZEFSAII (Michael W. Deem and Ramdas Pophale) SiO2 
 PCOD9477714
Probable space group: C M C A
;
_chemical_formula_sum "Si O2"
_cell_formula_units_Z 96
_cell_length_a 25.635923
_cell_length_b 10.060275
_cell_length_c 23.177157
_cell_angle_alpha 90.000000
_cell_angle_beta 90.000000
_cell_angle_gamma 90.000000
_cell_volume 5977.491587
_symmetry_space_group_name_H-M "C M C A"
_symmetry_group_IT_number 64
_symmetry_cell_setting 'orthorhombic'
loop_
_space_group_symop_operation_xyz
x,y,z
-x,1/2-y,1/2+z
x,-y,-z
-x,1/2+y,1/2-z
-x,-y,-z
x,1/2+y,1/2-z
-x,y,z
x,1/2-y,1/2+z
1/2+x,1/2+y,z
1/2-x,-y,1/2+z
1/2+x,1/2-y,-z
1/2-x,y,1/2-z
1/2-x,1/2-y,-z
1/2+x,y,1/2-z
1/2-x,1/2+y,z
1/2+x,-y,1/2+z
loop_
_atom_site_type_symbol
_atom_site_label
_atom_site_fract_x
_atom_site_fract_y
_atom_site_fract_z
Si Si1 0.701420 0.161515 0.565368
Si Si2 0.295370 0.144319 0.429463
Si Si3 0.060928 0.851968 0.493168
Si Si4 0.000000 0.352521 0.696893
Si Si5 0.085984 0.342390 0.402380
Si Si6 0.591828 0.150218 0.394909
Si Si7 0.500000 0.160441 0.694660
O O1 0.688879 0.176598 0.496522
O O2 0.746698 0.261847 0.582872
O O3 0.648133 0.179034 0.600826
O O4 0.720175 0.010068 0.571703
O O5 0.345553 0.156378 0.387958
O O6 0.067121 0.760410 0.549418
O O7 0.081593 0.765272 0.440637
O O8 0.000000 0.869967 0.481432
O O9 0.084544 0.000000 0.500000
O O10 0.948056 0.331208 0.657889
O O11 0.000000 0.258281 0.751774
O O12 0.000000 0.507221 0.714317
O O13 0.080060 0.499822 0.418343
O O14 0.050906 0.321229 0.345939
#
# Coordination Sequence:
#
# PCOD9477714 Si02
#       7
#    16  16  16   8  16  16   8
#     4   9  17  29  47  73 104 135 167 201 239 295
#     4   9  17  29  47  73 104 135 167 201 239 295
#     4  11  21  29  44  77 110 133 160 206 257 300
#     4  10  22  37  56  75  97 130 172 218 259 302
#     4  10  19  34  54  73  99 140 175 200 245 313
#     4  10  19  34  54  73  99 140 175 200 245 313
#     4  10  22  37  56  75  97 130 172 218 259 302
#
# _framework density 16.060248000000001
#
# number of rings (size 3 to 8) (size 9 to 14) (size 15 to 20)
#    0.000    2.167    3.333    0.500    0.000    3.333 
#    0.000    0.000    0.000    1.000    0.000    7.000 
#    0.000    0.000    0.000    0.000    0.000    0.000 
#
# Total GULP energy -267273.214155 kJ/mol
# GULP energy per Si atom -5568.191962 kJ/mol
# Density = 1.602369 g / cm^3
# Si number density = 16.060248 Si / 1000 Ang^3
#
#
#
# Elastic Constant Matrix: (Units=GPa)
#
#
# Indices 1 2 3 4 5 6 
#
# 1 106.5220 47.4427 31.3443 0.0000 0.0000 0.0000
# 2 47.4427 84.3623 51.6171 0.0000 0.0000 0.0000
# 3 31.3443 51.6171 59.8195 0.0000 0.0000 0.0000
# 4 0.0000 0.0000 0.0000 27.6145 0.0000 0.0000
# 5 0.0000 0.0000 0.0000 0.0000 5.9915 0.0000
# 6 0.0000 0.0000 0.0000 0.0000 0.0000 29.0289
#
#
#
# Elastic Compliance Matrix: (Units=1/GPa)
#
#
# Indices 1 2 3 4 5 6 
#
# 1 0.012555 -0.006430 -0.001030 0.000000 0.000000 0.000000
# 2 -0.006430 0.028404 -0.021140 0.000000 0.000000 0.000000
# 3 -0.001030 -0.021140 0.035498 0.000000 0.000000 0.000000
# 4 0.000000 0.000000 0.000000 0.036213 0.000000 0.000000
# 5 0.000000 0.000000 0.000000 0.000000 0.166904 0.000000
# 6 0.000000 0.000000 0.000000 0.000000 0.000000 0.034448
#
#
# Mechanical properties :
#
#
# Convention : Reuss Voigt Hill
#
# Bulk Modulus (GPa) = 51.93079 56.83466 54.38273
# Shear Modulus (GPa) = 13.24003 20.54697 16.89350
#
# Velocity S-wave (km/s) = 2.87435 3.58071 3.24679
# Velocity P-wave (km/s) = 6.58946 7.24986 6.92754
#
# Compressibility (1/GPa) = 0.01925640
#
# Stress axis : x y z
#
# Youngs Moduli (GPa) = 79.65177 35.20571 28.17041
#
# Poissons Ratio (x) = 0.22638 0.02901
# Poissons Ratio (y) = 0.51217 0.59553
# Poissons Ratio (z) = 0.08204 0.74426
#
# Static dielectric constant tensor:
#      x y z
#    x 1.562850 0.000000 0.000000 
#    y 0.000000 1.559990 0.000000 
#    z 0.000000 0.000000 1.515240 
# 
# From -- ./inp_files/46868.got.cif
#   From: 2010.05.17/outbox.cif.g08.bks.cpg/sg64_24_cif.got.tgz:46868.got - 2010.06.03 16:29:19.
