data_PCOD9477723
_publ_section_title
;
Structure prediction by ZEFSAII (Michael W. Deem and Ramdas Pophale) SiO2 
 PCOD9477723
Probable space group: C M C A
;
_chemical_formula_sum "Si O2"
_cell_formula_units_Z 96
_cell_length_a 15.134768
_cell_length_b 18.272711
_cell_length_c 15.608932
_cell_angle_alpha 90.000000
_cell_angle_beta 90.000000
_cell_angle_gamma 90.000000
_cell_volume 4316.700744
_symmetry_space_group_name_H-M "C M C A"
_symmetry_group_IT_number 64
_symmetry_cell_setting 'orthorhombic'
loop_
_space_group_symop_operation_xyz
x,y,z
-x,1/2-y,1/2+z
x,-y,-z
-x,1/2+y,1/2-z
-x,-y,-z
x,1/2+y,1/2-z
-x,y,z
x,1/2-y,1/2+z
1/2+x,1/2+y,z
1/2-x,-y,1/2+z
1/2+x,1/2-y,-z
1/2-x,y,1/2-z
1/2-x,1/2-y,-z
1/2+x,y,1/2-z
1/2-x,1/2+y,z
1/2+x,-y,1/2+z
loop_
_atom_site_type_symbol
_atom_site_label
_atom_site_fract_x
_atom_site_fract_y
_atom_site_fract_z
Si Si1 0.646366 0.190832 0.965666
Si Si2 0.722098 0.822632 0.608283
Si Si3 0.653019 0.386755 0.210612
Si Si4 0.904953 0.230699 0.352155
Si Si5 0.095063 0.040640 0.616793
Si Si6 0.726489 0.523067 0.149203
O O1 0.662509 0.250084 0.890846
O O2 0.605693 0.114980 0.936778
O O3 0.741071 0.174148 0.010262
O O4 0.594594 0.226649 0.044392
O O5 0.812183 0.811810 0.664562
O O6 0.681541 0.900840 0.627080
O O7 0.750000 0.367871 0.250000
O O8 0.608388 0.313396 0.178696
O O9 0.601852 0.428332 0.286299
O O10 0.672067 0.448372 0.138795
O O11 0.000000 0.702103 0.179708
O O12 0.178581 0.987763 0.603470
O O13 0.000000 0.005439 0.601883
O O14 0.750000 0.525949 0.250000
#
# Coordination Sequence:
#
# PCOD9477723 Si02
#       6
#    16  16  16  16  16  16
#     4   9  20  35  52  81 104 139 176 216 260 315
#     4   9  19  34  53  78 104 135 175 216 262 308
#     4   9  19  34  54  75 102 142 185 209 252 320
#     4  10  19  34  54  79 108 136 172 219 265 312
#     4  10  19  34  54  78 108 138 174 219 268 313
#     4   9  20  35  53  77 104 138 176 216 259 311
#
# _framework density 22.239207
#
# number of rings (size 3 to 8) (size 9 to 14) (size 15 to 20)
#    1.000    2.000    0.000    3.000    0.000    3.333 
#    0.000    0.833    0.000   11.000    0.000    0.000 
#    0.000    0.000    0.000    0.000    0.000    0.000 
#
# Total GULP energy -267424.233792 kJ/mol
# GULP energy per Si atom -5571.338204 kJ/mol
# Density = 2.218859 g / cm^3
# Si number density = 22.239207 Si / 1000 Ang^3
#
#
#
# Elastic Constant Matrix: (Units=GPa)
#
#
# Indices 1 2 3 4 5 6 
#
# 1 54.4896 -7.5768 6.8451 0.0000 0.0000 0.0000
# 2 -7.5768 79.7942 22.1515 0.0000 0.0000 0.0000
# 3 6.8451 22.1515 30.4949 0.0000 0.0000 0.0000
# 4 0.0000 0.0000 0.0000 38.2983 0.0000 0.0000
# 5 0.0000 0.0000 0.0000 0.0000 5.3223 0.0000
# 6 0.0000 0.0000 0.0000 0.0000 0.0000 -9.2017
#
#
#
# Elastic Compliance Matrix: (Units=1/GPa)
#
#
# Indices 1 2 3 4 5 6 
#
# 1 0.019809 0.003902 -0.007281 0.000000 0.000000 0.000000
# 2 0.003902 0.016466 -0.012837 0.000000 0.000000 0.000000
# 3 -0.007281 -0.012837 0.043752 0.000000 0.000000 0.000000
# 4 0.000000 0.000000 0.000000 0.026111 0.000000 0.000000
# 5 0.000000 0.000000 0.000000 0.000000 0.187890 0.000000
# 6 0.000000 0.000000 0.000000 0.000000 0.000000 -0.108676
#
#
# Mechanical properties :
#
#
# Convention : Reuss Voigt Hill
#
# Bulk Modulus (GPa) = 21.01043 23.06871 22.03957
# Shear Modulus (GPa) = 21.39956 16.44105 18.92031
#
# Velocity S-wave (km/s) = 3.10537 2.72192 2.91995
# Velocity P-wave (km/s) = 4.72501 4.50267 4.61518
#
# Compressibility (1/GPa) = 0.04759540
#
# Stress axis : x y z
#
# Youngs Moduli (GPa) = 50.48101 60.72953 22.85631
#
# Poissons Ratio (x) = -0.23698 0.16642
# Poissons Ratio (y) = -0.19699 0.29341
# Poissons Ratio (z) = 0.36756 0.77959
#
# Static dielectric constant tensor:
#      x y z
#    x 1.882490 0.000000 0.000000 
#    y 0.000000 1.809800 0.000000 
#    z 0.000000 0.000000 1.882020 
# 
# From -- ./inp_files/34414.got.cif
#   From: 2010.05.17/outbox.cif.g08.bks.cpg/sg64_18_cif.got.tgz:34414.got - 2010.06.03 16:29:19.
