data_PCOD9477077
_publ_section_title
;
Structure prediction by ZEFSAII (Michael W. Deem and Ramdas Pophale) SiO2 
 PCOD9477077
Probable space group: C M C A
;
_chemical_formula_sum "Si O2"
_cell_formula_units_Z 104
_cell_length_a 16.366735
_cell_length_b 29.433792
_cell_length_c 9.258276
_cell_angle_alpha 90.000000
_cell_angle_beta 90.000000
_cell_angle_gamma 90.000000
_cell_volume 4460.036271
_symmetry_space_group_name_H-M "C M C A"
_symmetry_group_IT_number 64
_symmetry_cell_setting 'orthorhombic'
loop_
_space_group_symop_operation_xyz
x,y,z
-x,1/2-y,1/2+z
x,-y,-z
-x,1/2+y,1/2-z
-x,-y,-z
x,1/2+y,1/2-z
-x,y,z
x,1/2-y,1/2+z
1/2+x,1/2+y,z
1/2-x,-y,1/2+z
1/2+x,1/2-y,-z
1/2-x,y,1/2-z
1/2-x,1/2-y,-z
1/2+x,y,1/2-z
1/2-x,1/2+y,z
1/2+x,-y,1/2+z
loop_
_atom_site_type_symbol
_atom_site_label
_atom_site_fract_x
_atom_site_fract_y
_atom_site_fract_z
Si Si1 0.593330 0.639454 0.489612
Si Si2 0.197862 0.548776 0.537329
Si Si3 0.875172 0.448817 0.170515
Si Si4 0.400001 0.782967 0.213388
Si Si5 0.639174 0.106910 0.300003
Si Si6 0.000000 0.467755 0.784609
Si Si7 0.097745 0.196982 0.035232
O O1 0.500000 0.651105 0.441568
O O2 0.589303 0.591674 0.574407
O O3 0.622581 0.677607 0.600305
O O4 0.650164 0.633093 0.351035
O O5 0.160234 0.500000 0.500000
O O6 0.141319 0.568221 0.665517
O O7 0.286816 0.541038 0.603345
O O8 0.203075 0.578001 0.393323
O O9 0.929714 0.493553 0.175521
O O10 0.500000 0.783437 0.218232
O O11 0.369888 0.793158 0.374463
O O12 0.372815 0.734820 0.149048
O O13 0.570455 0.069656 0.261149
O O14 0.613438 0.146604 0.409530
O O15 0.000000 0.202822 0.027895
#
# Coordination Sequence:
#
# PCOD9477077 Si02
#       7
#    16  16  16  16  16   8  16
#     4  11  22  38  61  97 130 175 233 292 350 412
#     4  11  26  44  62  93 131 183 222 288 359 435
#     4  11  26  44  67  89 135 178 235 287 355 415
#     4   9  19  33  59  90 136 181 225 285 357 418
#     4  12  24  38  63  98 135 175 234 295 356 421
#     4  12  24  44  68 100 130 180 240 304 342 412
#     4  10  18  35  58  93 136 181 229 290 354 421
#
# _framework density 23.318196
#
# number of rings (size 3 to 8) (size 9 to 14) (size 15 to 20)
#    0.000    1.231    3.846    1.846    2.154    4.923 
#    0.000    0.000    0.000    0.923    0.000    0.000 
#    0.000    0.000    0.000    0.000    0.000    0.154 
#
# Total GULP energy -289725.333395 kJ/mol
# GULP energy per Si atom -5571.641027 kJ/mol
# Density = 2.326512 g / cm^3
# Si number density = 23.318196 Si / 1000 Ang^3
#
#
#
# Elastic Constant Matrix: (Units=GPa)
#
#
# Indices 1 2 3 4 5 6 
#
# 1 39.9093 8.3590 32.3335 0.0000 0.0000 0.0000
# 2 8.3590 147.2920 63.2095 0.0000 0.0000 0.0000
# 3 32.3335 63.2095 140.9041 0.0000 0.0000 0.0000
# 4 0.0000 0.0000 0.0000 44.4504 0.0000 0.0000
# 5 0.0000 0.0000 0.0000 0.0000 14.4095 0.0000
# 6 0.0000 0.0000 0.0000 0.0000 0.0000 -37.3461
#
#
#
# Elastic Compliance Matrix: (Units=1/GPa)
#
#
# Indices 1 2 3 4 5 6 
#
# 1 0.031083 0.001606 -0.007853 0.000000 0.000000 0.000000
# 2 0.001606 0.008491 -0.004178 0.000000 0.000000 0.000000
# 3 -0.007853 -0.004178 0.010773 0.000000 0.000000 0.000000
# 4 0.000000 0.000000 0.000000 0.022497 0.000000 0.000000
# 5 0.000000 0.000000 0.000000 0.000000 0.069399 0.000000
# 6 0.000000 0.000000 0.000000 0.000000 0.000000 -0.026777
#
#
# Mechanical properties :
#
#
# Convention : Reuss Voigt Hill
#
# Bulk Modulus (GPa) = 33.90092 59.54547 46.72319
# Shear Modulus (GPa) = 34.21199 19.24966 26.73083
#
# Velocity S-wave (km/s) = 3.83453 2.87631 3.38945
# Velocity P-wave (km/s) = 5.84592 6.05164 5.94967
#
# Compressibility (1/GPa) = 0.02949772
#
# Stress axis : x y z
#
# Youngs Moduli (GPa) = 32.17212 117.77372 92.82341
#
# Poissons Ratio (x) = -0.18916 0.72895
# Poissons Ratio (y) = -0.05167 0.38777
# Poissons Ratio (z) = 0.25265 0.49201
#
# Static dielectric constant tensor:
#      x y z
#    x 1.936980 0.000000 0.000000 
#    y 0.000000 1.835870 0.000000 
#    z 0.000000 0.000000 1.933480 
# 
# From -- ./inp_files/8686.got.cif
#   From: 2010.05.17/outbox.cif.g08.bks.cpg/sg64_5_cif.got.tgz:8686.got - 2010.06.03 16:29:19.
