data_PCOD9477144
_publ_section_title
;
Structure prediction by ZEFSAII (Michael W. Deem and Ramdas Pophale) SiO2 
 PCOD9477144
Probable space group: C M C A
;
_chemical_formula_sum "Si O2"
_cell_formula_units_Z 116
_cell_length_a 17.259605
_cell_length_b 22.599700
_cell_length_c 15.572232
_cell_angle_alpha 90.000000
_cell_angle_beta 90.000000
_cell_angle_gamma 90.000000
_cell_volume 6074.134325
_symmetry_space_group_name_H-M "C M C A"
_symmetry_group_IT_number 64
_symmetry_cell_setting 'orthorhombic'
loop_
_space_group_symop_operation_xyz
x,y,z
-x,1/2-y,1/2+z
x,-y,-z
-x,1/2+y,1/2-z
-x,-y,-z
x,1/2+y,1/2-z
-x,y,z
x,1/2-y,1/2+z
1/2+x,1/2+y,z
1/2-x,-y,1/2+z
1/2+x,1/2-y,-z
1/2-x,y,1/2-z
1/2-x,1/2-y,-z
1/2+x,y,1/2-z
1/2-x,1/2+y,z
1/2+x,-y,1/2+z
loop_
_atom_site_type_symbol
_atom_site_label
_atom_site_fract_x
_atom_site_fract_y
_atom_site_fract_z
Si Si1 0.131273 0.582332 0.557592
Si Si2 0.696017 0.731738 0.108440
Si Si3 0.000000 0.500000 0.500000
Si Si4 0.747041 0.597068 0.418968
Si Si5 0.642165 0.717918 0.925059
Si Si6 0.174114 0.998274 0.793467
Si Si7 0.410951 0.419560 0.661216
Si Si8 0.086734 0.710673 0.234762
O O1 0.213655 0.580356 0.508882
O O2 0.114329 0.650612 0.575627
O O3 0.133634 0.543778 0.643248
O O4 0.067634 0.551538 0.498234
O O5 0.733087 0.665752 0.099203
O O6 0.767253 0.776963 0.102620
O O7 0.648793 0.732808 0.196215
O O8 0.642850 0.739674 0.023861
O O9 0.789805 0.556596 0.347744
O O10 0.655655 0.585895 0.410740
O O11 0.597514 0.757321 0.856532
O O12 0.250000 0.026584 0.750000
O O13 0.115208 0.972504 0.723644
O O14 0.500000 0.424942 0.632736
O O15 0.404023 0.359079 0.716505
O O16 0.000000 0.721039 0.267521
#
# Coordination Sequence:
#
# PCOD9477144 Si02
#       8
#    16  16   4  16  16  16  16  16
#     4  11  24  40  62  92 124 165 206 267 328 384
#     4  10  20  39  62  91 121 173 216 262 320 396
#     4  12  24  40  64  92 118 164 206 264 330 366
#     4  10  18  38  61  87 123 161 212 261 318 382
#     4  10  23  38  63  90 127 166 214 259 320 393
#     4  10  20  35  59  88 119 157 205 256 306 382
#     4  10  21  34  61  94 122 162 215 270 318 380
#     4  11  22  37  60  92 130 168 209 271 329 379
#
# _framework density 19.097370999999999
#
# number of rings (size 3 to 8) (size 9 to 14) (size 15 to 20)
#    0.000    1.655    4.138    0.414    1.931    1.655 
#    6.207    0.000    0.000    6.621    0.000    0.000 
#    0.000    0.000    0.000    0.000    0.000    0.000 
#
# Total GULP energy -323204.832499 kJ/mol
# GULP energy per Si atom -5572.497112 kJ/mol
# Density = 1.905390 g / cm^3
# Si number density = 19.097371 Si / 1000 Ang^3
#
#
#
# Elastic Constant Matrix: (Units=GPa)
#
#
# Indices 1 2 3 4 5 6 
#
# 1 87.3410 16.9591 22.1373 0.0000 0.0000 0.0000
# 2 16.9591 57.2272 2.3417 0.0000 0.0000 0.0000
# 3 22.1373 2.3417 49.1070 0.0000 0.0000 0.0000
# 4 0.0000 0.0000 0.0000 25.1501 0.0000 0.0000
# 5 0.0000 0.0000 0.0000 0.0000 4.4775 0.0000
# 6 0.0000 0.0000 0.0000 0.0000 0.0000 23.5523
#
#
#
# Elastic Compliance Matrix: (Units=1/GPa)
#
#
# Indices 1 2 3 4 5 6 
#
# 1 0.013711 -0.003818 -0.005999 0.000000 0.000000 0.000000
# 2 -0.003818 0.018571 0.000835 0.000000 0.000000 0.000000
# 3 -0.005999 0.000835 0.023028 0.000000 0.000000 0.000000
# 4 0.000000 0.000000 0.000000 0.039761 0.000000 0.000000
# 5 0.000000 0.000000 0.000000 0.000000 0.223337 0.000000
# 6 0.000000 0.000000 0.000000 0.000000 0.000000 0.042459
#
#
# Mechanical properties :
#
#
# Convention : Reuss Voigt Hill
#
# Bulk Modulus (GPa) = 26.77502 30.72793 28.75147
# Shear Modulus (GPa) = 12.77858 20.78512 16.78185
#
# Velocity S-wave (km/s) = 2.58956 3.30263 2.96759
# Velocity P-wave (km/s) = 4.79497 5.53789 5.17977
#
# Compressibility (1/GPa) = 0.03734825
#
# Stress axis : x y z
#
# Youngs Moduli (GPa) = 72.93343 53.84620 43.42519
#
# Poissons Ratio (x) = 0.20557 0.26050
# Poissons Ratio (y) = 0.27844 -0.03628
# Poissons Ratio (z) = 0.43752 -0.04499
#
# Static dielectric constant tensor:
#      x y z
#    x 1.674570 0.000000 0.000000 
#    y 0.000000 1.654770 0.000000 
#    z 0.000000 0.000000 1.674580 
# 
# From -- ./inp_files/25757.got.cif
#   From: 2010.05.17/outbox.cif.g08.bks.cpg/sg64_13_cif.got.tgz:25757.got - 2010.06.03 16:29:19.
