data_PCOD9477486
_publ_section_title
;
Structure prediction by ZEFSAII (Michael W. Deem and Ramdas Pophale) SiO2 
 PCOD9477486
Probable space group: C M C A
;
_chemical_formula_sum "Si O2"
_cell_formula_units_Z 96
_cell_length_a 20.905521
_cell_length_b 27.886919
_cell_length_c 8.959053
_cell_angle_alpha 90.000000
_cell_angle_beta 90.000000
_cell_angle_gamma 90.000000
_cell_volume 5223.043422
_symmetry_space_group_name_H-M "C M C A"
_symmetry_group_IT_number 64
_symmetry_cell_setting 'orthorhombic'
loop_
_space_group_symop_operation_xyz
x,y,z
-x,1/2-y,1/2+z
x,-y,-z
-x,1/2+y,1/2-z
-x,-y,-z
x,1/2+y,1/2-z
-x,y,z
x,1/2-y,1/2+z
1/2+x,1/2+y,z
1/2-x,-y,1/2+z
1/2+x,1/2-y,-z
1/2-x,y,1/2-z
1/2-x,1/2-y,-z
1/2+x,y,1/2-z
1/2-x,1/2+y,z
1/2+x,-y,1/2+z
loop_
_atom_site_type_symbol
_atom_site_label
_atom_site_fract_x
_atom_site_fract_y
_atom_site_fract_z
Si Si1 0.922488 0.409854 0.327960
Si Si2 0.577696 0.993728 0.829802
Si Si3 0.575145 0.810945 0.198970
Si Si4 0.359238 0.755647 0.453425
Si Si5 0.183677 0.182472 0.215573
Si Si6 0.423370 0.392933 0.823602
O O1 0.899838 0.461278 0.269095
O O2 0.900982 0.365221 0.226044
O O3 0.908245 0.400540 0.501215
O O4 0.000000 0.410049 0.319146
O O5 0.500000 0.995738 0.830049
O O6 0.592960 0.942069 0.761679
O O7 0.599252 0.000000 0.000000
O O8 0.500000 0.812147 0.166927
O O9 0.609934 0.781591 0.069610
O O10 0.588068 0.783373 0.354760
O O11 0.321093 0.794303 0.551453
O O12 0.318812 0.725743 0.334406
O O13 0.250000 0.155924 0.250000
O O14 0.120681 0.150071 0.234150
O O15 0.500000 0.383560 0.808360
#
# Coordination Sequence:
#
# PCOD9477486 Si02
#       6
#    16  16  16  16  16  16
#     4   9  17  31  51  79 115 149 179 220 275 334
#     4   9  18  31  52  82 114 145 181 226 278 334
#     4  10  19  32  53  85 120 145 179 233 289 331
#     4  10  22  36  54  79 109 154 194 228 275 340
#     4  11  23  40  59  81 112 153 192 234 278 337
#     4  10  20  35  57  84 111 145 186 232 282 334
#
# _framework density 18.380089000000002
#
# number of rings (size 3 to 8) (size 9 to 14) (size 15 to 20)
#    0.000    2.167    1.667    1.500    2.333    5.333 
#    0.000    0.000    0.000    2.000    0.000    0.000 
#    0.000    0.000    0.000    0.000    0.000    0.000 
#
# Total GULP energy -267656.595053 kJ/mol
# GULP energy per Si atom -5576.179064 kJ/mol
# Density = 1.833826 g / cm^3
# Si number density = 18.380089 Si / 1000 Ang^3
#
#
#
# Elastic Constant Matrix: (Units=GPa)
#
#
# Indices 1 2 3 4 5 6 
#
# 1 42.7665 15.2636 7.3946 0.0000 0.0000 0.0000
# 2 15.2636 82.5040 15.9875 0.0000 0.0000 0.0000
# 3 7.3946 15.9875 62.8603 0.0000 0.0000 0.0000
# 4 0.0000 0.0000 0.0000 30.1820 0.0000 0.0000
# 5 0.0000 0.0000 0.0000 0.0000 6.4813 0.0000
# 6 0.0000 0.0000 0.0000 0.0000 0.0000 3.6400
#
#
#
# Elastic Compliance Matrix: (Units=1/GPa)
#
#
# Indices 1 2 3 4 5 6 
#
# 1 0.025244 -0.004307 -0.001874 0.000000 0.000000 0.000000
# 2 -0.004307 0.013484 -0.002923 0.000000 0.000000 0.000000
# 3 -0.001874 -0.002923 0.016872 0.000000 0.000000 0.000000
# 4 0.000000 0.000000 0.000000 0.033132 0.000000 0.000000
# 5 0.000000 0.000000 0.000000 0.000000 0.154291 0.000000
# 6 0.000000 0.000000 0.000000 0.000000 0.000000 0.274725
#
#
# Mechanical properties :
#
#
# Convention : Reuss Voigt Hill
#
# Bulk Modulus (GPa) = 26.74365 29.49136 28.11751
# Shear Modulus (GPa) = 9.11710 18.02633 13.57172
#
# Velocity S-wave (km/s) = 2.22959 3.13510 2.72029
# Velocity P-wave (km/s) = 4.60544 5.40233 5.01972
#
# Compressibility (1/GPa) = 0.03739205
#
# Stress axis : x y z
#
# Youngs Moduli (GPa) = 39.61325 74.16296 59.26945
#
# Poissons Ratio (x) = 0.31943 0.11108
# Poissons Ratio (y) = 0.17062 0.17323
# Poissons Ratio (z) = 0.07424 0.21676
#
# Static dielectric constant tensor:
#      x y z
#    x 1.630290 0.000000 0.000000 
#    y 0.000000 1.644670 0.000000 
#    z 0.000000 0.000000 1.634730 
# 
# From -- ./inp_files/8387.got.cif
#   From: 2010.05.17/outbox.cif.g08.bks.cpg/sg64_5_cif.got.tgz:8387.got - 2010.06.03 16:29:19.
