data_PCOD9477396
_publ_section_title
;
Structure prediction by ZEFSAII (Michael W. Deem and Ramdas Pophale) SiO2 
 PCOD9477396
Probable space group: C M C A
;
_chemical_formula_sum "Si O2"
_cell_formula_units_Z 112
_cell_length_a 16.270673
_cell_length_b 14.173234
_cell_length_c 24.322703
_cell_angle_alpha 90.000000
_cell_angle_beta 90.000000
_cell_angle_gamma 90.000000
_cell_volume 5609.011250
_symmetry_space_group_name_H-M "C M C A"
_symmetry_group_IT_number 64
_symmetry_cell_setting 'orthorhombic'
loop_
_space_group_symop_operation_xyz
x,y,z
-x,1/2-y,1/2+z
x,-y,-z
-x,1/2+y,1/2-z
-x,-y,-z
x,1/2+y,1/2-z
-x,y,z
x,1/2-y,1/2+z
1/2+x,1/2+y,z
1/2-x,-y,1/2+z
1/2+x,1/2-y,-z
1/2-x,y,1/2-z
1/2-x,1/2-y,-z
1/2+x,y,1/2-z
1/2-x,1/2+y,z
1/2+x,-y,1/2+z
loop_
_atom_site_type_symbol
_atom_site_label
_atom_site_fract_x
_atom_site_fract_y
_atom_site_fract_z
Si Si1 0.588853 0.728293 0.576325
Si Si2 0.124485 0.366323 0.181665
Si Si3 0.092076 0.400337 0.969382
Si Si4 0.813650 0.337600 0.338539
Si Si5 0.764703 0.280791 0.937090
Si Si6 0.906058 0.302418 0.759187
Si Si7 0.094109 0.498183 0.720510
O O1 0.500000 0.775149 0.584811
O O2 0.596829 0.641058 0.619034
O O3 0.588952 0.680479 0.516493
O O4 0.670650 0.791157 0.584748
O O5 0.222553 0.358446 0.183127
O O6 0.090373 0.273184 0.210586
O O7 0.096526 0.450668 0.220077
O O8 0.171584 0.368084 0.934299
O O9 0.000000 0.402639 0.943344
O O10 0.104964 0.500000 0.000000
O O11 0.804053 0.304150 0.401331
O O12 0.853981 0.249583 0.306129
O O13 0.864462 0.430612 0.322489
O O14 0.750000 0.250000 0.000000
O O15 0.868224 0.396429 0.733050
O O16 0.000000 0.321071 0.778413
O O17 0.000000 0.484413 0.703319
#
# Coordination Sequence:
#
# PCOD9477396 Si02
#       7
#    16  16  16  16  16  16  16
#     4   9  17  32  53  72  96 135 176 215 268 331
#     4  10  19  32  50  71 100 136 175 216 260 319
#     4   9  18  32  52  78 104 130 167 222 282 332
#     4  10  20  33  53  77 102 141 182 219 271 328
#     4   9  19  35  52  75 105 138 181 230 277 327
#     4  10  20  33  50  75 107 139 174 218 268 326
#     4  10  20  33  50  75 108 140 172 217 269 326
#
# _framework density 19.967867999999999
#
# number of rings (size 3 to 8) (size 9 to 14) (size 15 to 20)
#    0.000    2.429    0.000    4.286    0.000    4.571 
#    0.000   10.000    0.000    0.429    0.000    0.000 
#    0.000    0.000    0.000    0.000    0.000    0.000 
#
# Total GULP energy -311892.644038 kJ/mol
# GULP energy per Si atom -5569.511501 kJ/mol
# Density = 1.992242 g / cm^3
# Si number density = 19.967868 Si / 1000 Ang^3
#
#
#
# Elastic Constant Matrix: (Units=GPa)
#
#
# Indices 1 2 3 4 5 6 
#
# 1 119.6593 16.5343 -6.7108 0.0000 0.0000 0.0000
# 2 16.5343 73.9005 -12.3333 0.0000 0.0000 0.0000
# 3 -6.7108 -12.3333 44.5524 0.0000 0.0000 0.0000
# 4 0.0000 0.0000 0.0000 5.6032 0.0000 0.0000
# 5 0.0000 0.0000 0.0000 0.0000 2.6358 0.0000
# 6 0.0000 0.0000 0.0000 0.0000 0.0000 2.2042
#
#
#
# Elastic Compliance Matrix: (Units=1/GPa)
#
#
# Indices 1 2 3 4 5 6 
#
# 1 0.008651 -0.001801 0.000804 0.000000 0.000000 0.000000
# 2 -0.001801 0.014562 0.003760 0.000000 0.000000 0.000000
# 3 0.000804 0.003760 0.023608 0.000000 0.000000 0.000000
# 4 0.000000 0.000000 0.000000 0.178469 0.000000 0.000000
# 5 0.000000 0.000000 0.000000 0.000000 0.379386 0.000000
# 6 0.000000 0.000000 0.000000 0.000000 0.000000 0.453680
#
#
# Mechanical properties :
#
#
# Convention : Reuss Voigt Hill
#
# Bulk Modulus (GPa) = 19.10336 25.89919 22.50127
# Shear Modulus (GPa) = 4.67168 18.13011 11.40090
#
# Velocity S-wave (km/s) = 1.53123 3.01651 2.39207
# Velocity P-wave (km/s) = 3.56568 5.01309 4.35001
#
# Compressibility (1/GPa) = 0.05234681
#
# Stress axis : x y z
#
# Youngs Moduli (GPa) = 115.59258 68.67083 42.35940
#
# Poissons Ratio (x) = 0.12370 -0.03407
# Poissons Ratio (y) = 0.20822 -0.15927
# Poissons Ratio (z) = -0.09299 -0.25819
#
# Static dielectric constant tensor:
#      x y z
#    x 1.786560 0.000000 0.000000 
#    y 0.000000 1.700000 0.000000 
#    z 0.000000 0.000000 1.753530 
# 
# From -- ./inp_files/50093.got.cif
#   From: 2010.05.17/outbox.cif.g08.bks.cpg/sg64_26_cif.got.tgz:50093.got - 2010.06.03 16:29:19.
