data_PCOD9477016
_publ_section_title
;
Structure prediction by ZEFSAII (Michael W. Deem and Ramdas Pophale) SiO2 
 PCOD9477016
Probable space group: C M C A
;
_chemical_formula_sum "Si O2"
_cell_formula_units_Z 112
_cell_length_a 14.750840
_cell_length_b 17.256125
_cell_length_c 21.207811
_cell_angle_alpha 90.000000
_cell_angle_beta 90.000000
_cell_angle_gamma 90.000000
_cell_volume 5398.285815
_symmetry_space_group_name_H-M "C M C A"
_symmetry_group_IT_number 64
_symmetry_cell_setting 'orthorhombic'
loop_
_space_group_symop_operation_xyz
x,y,z
-x,1/2-y,1/2+z
x,-y,-z
-x,1/2+y,1/2-z
-x,-y,-z
x,1/2+y,1/2-z
-x,y,z
x,1/2-y,1/2+z
1/2+x,1/2+y,z
1/2-x,-y,1/2+z
1/2+x,1/2-y,-z
1/2-x,y,1/2-z
1/2-x,1/2-y,-z
1/2+x,y,1/2-z
1/2-x,1/2+y,z
1/2+x,-y,1/2+z
loop_
_atom_site_type_symbol
_atom_site_label
_atom_site_fract_x
_atom_site_fract_y
_atom_site_fract_z
Si Si1 0.389897 0.725353 0.852453
Si Si2 0.859935 0.928471 0.753940
Si Si3 0.110379 0.652769 0.040951
Si Si4 0.355680 0.510484 0.377474
Si Si5 0.192117 0.570313 0.686399
Si Si6 0.395370 0.736050 0.212602
Si Si7 0.102998 0.164728 0.598397
O O1 0.500000 0.723321 0.854031
O O2 0.361052 0.783272 0.907729
O O3 0.349419 0.639606 0.852895
O O4 0.358285 0.753990 0.783210
O O5 0.750000 0.920758 0.750000
O O6 0.892175 0.938445 0.681756
O O7 0.893300 0.856299 0.794187
O O8 0.880854 0.010809 0.785586
O O9 0.139819 0.567591 0.063803
O O10 0.000000 0.650953 0.039387
O O11 0.144980 0.671663 0.970872
O O12 0.256186 0.481969 0.357363
O O13 0.401377 0.426801 0.386179
O O14 0.250000 0.593703 0.750000
O O15 0.500000 0.762801 0.216911
O O16 0.353979 0.786447 0.155922
O O17 0.000000 0.194659 0.592496
#
# Coordination Sequence:
#
# PCOD9477016 Si02
#       7
#    16  16  16  16  16  16  16
#     4  10  20  36  59  84 111 146 194 233 272 337
#     4   9  19  33  53  77 110 145 182 225 276 330
#     4  10  20  36  58  83 114 151 185 230 285 338
#     4  10  18  34  54  80 111 145 186 222 275 342
#     4   9  20  36  53  83 113 149 188 231 288 327
#     4  10  19  32  53  83 108 138 186 235 276 327
#     4  10  21  34  54  83 116 148 181 231 291 335
#
# _framework density 20.747326000000001
#
# number of rings (size 3 to 8) (size 9 to 14) (size 15 to 20)
#    0.000    2.571    1.429    2.571    0.000    4.000 
#    0.000    2.857    6.286    0.000    0.000    4.000 
#    0.000    0.000    0.000    0.000    0.000    0.000 
#
# Total GULP energy -312117.523550 kJ/mol
# GULP energy per Si atom -5573.527206 kJ/mol
# Density = 2.070010 g / cm^3
# Si number density = 20.747326 Si / 1000 Ang^3
#
#
#
# Elastic Constant Matrix: (Units=GPa)
#
#
# Indices 1 2 3 4 5 6 
#
# 1 25.2131 3.5358 16.6410 0.0000 0.0000 0.0000
# 2 3.5358 131.6514 80.0714 0.0000 0.0000 0.0000
# 3 16.6410 80.0714 158.1332 0.0000 0.0000 0.0000
# 4 0.0000 0.0000 0.0000 32.7816 0.0000 0.0000
# 5 0.0000 0.0000 0.0000 0.0000 14.5079 0.0000
# 6 0.0000 0.0000 0.0000 0.0000 0.0000 68.8934
#
#
#
# Elastic Compliance Matrix: (Units=1/GPa)
#
#
# Indices 1 2 3 4 5 6 
#
# 1 0.043105 0.002314 -0.005708 0.000000 0.000000 0.000000
# 2 0.002314 0.011100 -0.005864 0.000000 0.000000 0.000000
# 3 -0.005708 -0.005864 0.009894 0.000000 0.000000 0.000000
# 4 0.000000 0.000000 0.000000 0.030505 0.000000 0.000000
# 5 0.000000 0.000000 0.000000 0.000000 0.068928 0.000000
# 6 0.000000 0.000000 0.000000 0.000000 0.000000 0.014515
#
#
# Mechanical properties :
#
#
# Convention : Reuss Voigt Hill
#
# Bulk Modulus (GPa) = 21.93823 57.27714 39.60768
# Shear Modulus (GPa) = 23.61196 37.55321 30.58259
#
# Velocity S-wave (km/s) = 3.37719 4.25906 3.84350
# Velocity P-wave (km/s) = 5.07978 7.20090 6.23126
#
# Compressibility (1/GPa) = 0.04558254
#
# Stress axis : x y z
#
# Youngs Moduli (GPa) = 23.19938 90.08753 101.07366
#
# Poissons Ratio (x) = -0.20844 0.57690
# Poissons Ratio (y) = -0.05368 0.59271
# Poissons Ratio (z) = 0.13241 0.52829
#
# Static dielectric constant tensor:
#      x y z
#    x 1.818910 0.000000 0.000000 
#    y 0.000000 1.803800 0.000000 
#    z 0.000000 0.000000 1.788440 
# 
# From -- ./inp_files/34488.got.cif
#   From: 2010.05.17/outbox.cif.g08.bks.cpg/sg64_18_cif.got.tgz:34488.got - 2010.06.03 16:29:19.
