data_PCOD9477441
_publ_section_title
;
Structure prediction by ZEFSAII (Michael W. Deem and Ramdas Pophale) SiO2 
 PCOD9477441
Probable space group: C M C A
;
_chemical_formula_sum "Si O2"
_cell_formula_units_Z 96
_cell_length_a 11.706097
_cell_length_b 22.128851
_cell_length_c 19.255648
_cell_angle_alpha 90.000000
_cell_angle_beta 90.000000
_cell_angle_gamma 90.000000
_cell_volume 4988.030741
_symmetry_space_group_name_H-M "C M C A"
_symmetry_group_IT_number 64
_symmetry_cell_setting 'orthorhombic'
loop_
_space_group_symop_operation_xyz
x,y,z
-x,1/2-y,1/2+z
x,-y,-z
-x,1/2+y,1/2-z
-x,-y,-z
x,1/2+y,1/2-z
-x,y,z
x,1/2-y,1/2+z
1/2+x,1/2+y,z
1/2-x,-y,1/2+z
1/2+x,1/2-y,-z
1/2-x,y,1/2-z
1/2-x,1/2-y,-z
1/2+x,y,1/2-z
1/2-x,1/2+y,z
1/2+x,-y,1/2+z
loop_
_atom_site_type_symbol
_atom_site_label
_atom_site_fract_x
_atom_site_fract_y
_atom_site_fract_z
Si Si1 0.378164 0.191024 0.557853
Si Si2 0.232991 0.025849 0.170296
Si Si3 0.625515 0.643300 0.211363
Si Si4 0.690342 0.055576 0.543255
Si Si5 0.794138 0.281292 0.590686
Si Si6 0.366758 0.396881 0.567253
O O1 0.500000 0.208469 0.588387
O O2 0.371979 0.119302 0.548099
O O3 0.272257 0.218623 0.599685
O O4 0.364217 0.218998 0.480742
O O5 0.250000 0.008111 0.250000
O O6 0.136524 0.078408 0.172567
O O7 0.339057 0.060882 0.133924
O O8 0.207906 0.970772 0.119719
O O9 0.500000 0.645947 0.247054
O O10 0.750000 0.647077 0.250000
O O11 0.632379 0.696180 0.154805
O O12 0.804268 0.071746 0.498517
O O13 0.636178 0.000000 0.500000
O O14 0.697397 0.333410 0.579916
O O15 0.500000 0.389439 0.556495
#
# Coordination Sequence:
#
# PCOD9477441 Si02
#       6
#    16  16  16  16  16  16
#     4  10  19  32  52  75 101 137 178 220 270 326
#     4   9  19  32  49  76 108 140 179 223 274 329
#     4  10  21  37  58  83 111 144 183 226 274 326
#     4   9  19  33  49  76 107 142 186 227 272 326
#     4   9  19  33  51  78 106 132 172 226 278 328
#     4   9  17  32  54  76 102 140 186 237 286 331
#
# _framework density 19.246072999999999
#
# number of rings (size 3 to 8) (size 9 to 14) (size 15 to 20)
#    0.000    2.667    0.000    2.000    0.000   10.667 
#    0.000    1.667    0.000    0.000    0.000    0.000 
#    0.000    0.000    0.000    0.000    0.000    0.000 
#
# Total GULP energy -267283.976198 kJ/mol
# GULP energy per Si atom -5568.416171 kJ/mol
# Density = 1.920227 g / cm^3
# Si number density = 19.246073 Si / 1000 Ang^3
#
#
#
# Elastic Constant Matrix: (Units=GPa)
#
#
# Indices 1 2 3 4 5 6 
#
# 1 123.0499 20.9869 21.8344 0.0000 0.0000 0.0000
# 2 20.9869 82.6076 14.4024 0.0000 0.0000 0.0000
# 3 21.8344 14.4024 90.1050 0.0000 0.0000 0.0000
# 4 0.0000 0.0000 0.0000 26.5107 0.0000 0.0000
# 5 0.0000 0.0000 0.0000 0.0000 15.8518 0.0000
# 6 0.0000 0.0000 0.0000 0.0000 0.0000 -0.8777
#
#
#
# Elastic Compliance Matrix: (Units=1/GPa)
#
#
# Indices 1 2 3 4 5 6 
#
# 1 0.008776 -0.001912 -0.001821 0.000000 0.000000 0.000000
# 2 -0.001912 0.012869 -0.001594 0.000000 0.000000 0.000000
# 3 -0.001821 -0.001594 0.011794 0.000000 0.000000 0.000000
# 4 0.000000 0.000000 0.000000 0.037721 0.000000 0.000000
# 5 0.000000 0.000000 0.000000 0.000000 0.063084 0.000000
# 6 0.000000 0.000000 0.000000 0.000000 0.000000 -1.139397
#
#
# Mechanical properties :
#
#
# Convention : Reuss Voigt Hill
#
# Bulk Modulus (GPa) = 43.88710 45.57888 44.73299
# Shear Modulus (GPa) = -5.06635 24.19955 9.56660
#
# Velocity S-wave (km/s) = -1.62423 3.54980 2.23192
# Velocity P-wave (km/s) = 4.39718 6.36671 5.47130
#
# Compressibility (1/GPa) = 0.02278574
#
# Stress axis : x y z
#
# Youngs Moduli (GPa) = 113.94678 77.70580 84.78771
#
# Poissons Ratio (x) = 0.14858 0.15440
# Poissons Ratio (y) = 0.21788 0.13512
# Poissons Ratio (z) = 0.20750 0.12384
#
# Static dielectric constant tensor:
#      x y z
#    x 1.704210 0.000000 0.000000 
#    y 0.000000 1.687660 0.000000 
#    z 0.000000 0.000000 1.701080 
# 
# From -- ./inp_files/31082.got.cif
#   From: 2010.05.17/outbox.cif.g08.bks.cpg/sg64_16_cif.got.tgz:31082.got - 2010.06.03 16:29:19.
