data_PCOD9477686
_publ_section_title
;
Structure prediction by ZEFSAII (Michael W. Deem and Ramdas Pophale) SiO2 
 PCOD9477686
Probable space group: C M C A
;
_chemical_formula_sum "Si O2"
_cell_formula_units_Z 112
_cell_length_a 15.235060
_cell_length_b 14.490159
_cell_length_c 24.317488
_cell_angle_alpha 90.000000
_cell_angle_beta 90.000000
_cell_angle_gamma 90.000000
_cell_volume 5368.290759
_symmetry_space_group_name_H-M "C M C A"
_symmetry_group_IT_number 64
_symmetry_cell_setting 'orthorhombic'
loop_
_space_group_symop_operation_xyz
x,y,z
-x,1/2-y,1/2+z
x,-y,-z
-x,1/2+y,1/2-z
-x,-y,-z
x,1/2+y,1/2-z
-x,y,z
x,1/2-y,1/2+z
1/2+x,1/2+y,z
1/2-x,-y,1/2+z
1/2+x,1/2-y,-z
1/2-x,y,1/2-z
1/2-x,1/2-y,-z
1/2+x,y,1/2-z
1/2-x,1/2+y,z
1/2+x,-y,1/2+z
loop_
_atom_site_type_symbol
_atom_site_label
_atom_site_fract_x
_atom_site_fract_y
_atom_site_fract_z
Si Si1 0.093602 0.427479 0.372822
Si Si2 0.097182 0.729036 0.098948
Si Si3 0.239907 0.519153 0.813972
Si Si4 0.742281 0.300618 0.816302
Si Si5 0.346308 0.220399 0.981305
Si Si6 0.893068 0.651812 0.865829
Si Si7 0.098029 0.575435 0.462706
O O1 0.096293 0.339429 0.412805
O O2 0.181401 0.422359 0.339319
O O3 0.094680 0.523002 0.405156
O O4 0.000000 0.420564 0.342232
O O5 0.172178 0.717614 0.144798
O O6 0.000000 0.703390 0.119734
O O7 0.111978 0.686277 0.038725
O O8 0.250000 0.534540 0.750000
O O9 0.262427 0.411655 0.823338
O O10 0.149225 0.559914 0.838000
O O11 0.750000 0.283432 0.750000
O O12 0.660701 0.238144 0.838034
O O13 0.363530 0.153490 0.930117
O O14 0.376815 0.319597 0.958523
O O15 0.250000 0.250000 0.000000
O O16 0.000000 0.658014 0.861403
O O17 0.149461 0.500000 0.500000
O O18 0.000000 0.582148 0.485875
#
# Coordination Sequence:
#
# PCOD9477686 Si02
#       7
#    16  16  16  16  16  16  16
#     4  10  20  36  64  97 125 162 217 276 334 395
#     4  11  22  40  66  98 133 172 223 275 340 408
#     4  11  25  46  68  95 135 177 229 283 347 417
#     4  11  25  47  71  98 132 180 235 288 343 414
#     4  12  22  39  62  95 139 185 222 274 339 416
#     4  12  26  45  69 103 142 179 225 287 353 412
#     4  10  19  33  58  94 126 156 210 274 326 384
#
# _framework density 20.863251999999999
#
# number of rings (size 3 to 8) (size 9 to 14) (size 15 to 20)
#    0.000    1.000    4.286    2.571    0.000    3.429 
#    0.000    3.571    0.000    1.714    0.000    0.000 
#    0.000    0.000    0.000    0.000    0.000    0.000 
#
# Total GULP energy -311767.320787 kJ/mol
# GULP energy per Si atom -5567.273585 kJ/mol
# Density = 2.081577 g / cm^3
# Si number density = 20.863252 Si / 1000 Ang^3
#
#
#
# Elastic Constant Matrix: (Units=GPa)
#
#
# Indices 1 2 3 4 5 6 
#
# 1 135.6504 -0.2514 50.6274 0.0000 0.0000 0.0000
# 2 -0.2514 39.6868 20.6766 0.0000 0.0000 0.0000
# 3 50.6274 20.6766 116.2394 0.0000 0.0000 0.0000
# 4 0.0000 0.0000 0.0000 3.2198 0.0000 0.0000
# 5 0.0000 0.0000 0.0000 0.0000 11.3172 0.0000
# 6 0.0000 0.0000 0.0000 0.0000 0.0000 18.7482
#
#
#
# Elastic Compliance Matrix: (Units=1/GPa)
#
#
# Indices 1 2 3 4 5 6 
#
# 1 0.008991 0.002311 -0.004327 0.000000 0.000000 0.000000
# 2 0.002311 0.028365 -0.006052 0.000000 0.000000 0.000000
# 3 -0.004327 -0.006052 0.011564 0.000000 0.000000 0.000000
# 4 0.000000 0.000000 0.000000 0.310583 0.000000 0.000000
# 5 0.000000 0.000000 0.000000 0.000000 0.088361 0.000000
# 6 0.000000 0.000000 0.000000 0.000000 0.000000 0.053338
#
#
# Mechanical properties :
#
#
# Convention : Reuss Voigt Hill
#
# Bulk Modulus (GPa) = 30.50240 48.18687 39.34463
# Shear Modulus (GPa) = 9.46491 21.35864 15.41178
#
# Velocity S-wave (km/s) = 2.13225 3.20307 2.72086
# Velocity P-wave (km/s) = 4.55125 6.06846 5.36377
#
# Compressibility (1/GPa) = 0.03278431
#
# Stress axis : x y z
#
# Youngs Moduli (GPa) = 111.22015 35.25458 86.47378
#
# Poissons Ratio (x) = -0.08149 0.37419
# Poissons Ratio (y) = -0.25707 0.52336
# Poissons Ratio (z) = 0.48127 0.21337
#
# Static dielectric constant tensor:
#      x y z
#    x 1.784720 0.000000 0.000000 
#    y 0.000000 1.697380 0.000000 
#    z 0.000000 0.000000 1.838510 
# 
# From -- ./inp_files/45253.got.cif
#   From: 2010.05.17/outbox.cif.g08.bks.cpg/sg64_23_cif.got.tgz:45253.got - 2010.06.03 16:29:19.
