data_PCOD9477395
_publ_section_title
;
Structure prediction by ZEFSAII (Michael W. Deem and Ramdas Pophale) SiO2 
 PCOD9477395
Probable space group: C M C A
;
_chemical_formula_sum "Si O2"
_cell_formula_units_Z 128
_cell_length_a 14.959402
_cell_length_b 17.934032
_cell_length_c 21.801126
_cell_angle_alpha 90.000000
_cell_angle_beta 90.000000
_cell_angle_gamma 90.000000
_cell_volume 5848.858279
_symmetry_space_group_name_H-M "C M C A"
_symmetry_group_IT_number 64
_symmetry_cell_setting 'orthorhombic'
loop_
_space_group_symop_operation_xyz
x,y,z
-x,1/2-y,1/2+z
x,-y,-z
-x,1/2+y,1/2-z
-x,-y,-z
x,1/2+y,1/2-z
-x,y,z
x,1/2-y,1/2+z
1/2+x,1/2+y,z
1/2-x,-y,1/2+z
1/2+x,1/2-y,-z
1/2-x,y,1/2-z
1/2-x,1/2-y,-z
1/2+x,y,1/2-z
1/2-x,1/2+y,z
1/2+x,-y,1/2+z
loop_
_atom_site_type_symbol
_atom_site_label
_atom_site_fract_x
_atom_site_fract_y
_atom_site_fract_z
Si Si1 0.351902 0.824806 0.750605
Si Si2 0.390677 0.391618 0.121110
Si Si3 0.398405 0.664892 0.753014
Si Si4 0.110363 0.570708 0.859309
Si Si5 0.604659 0.089892 0.488895
Si Si6 0.891936 0.936841 0.857050
Si Si7 0.395786 0.590542 0.508079
Si Si8 0.892788 0.098942 0.376603
O O1 0.250000 0.802242 0.750000
O O2 0.402332 0.750046 0.732178
O O3 0.364786 0.892296 0.703227
O O4 0.375886 0.848993 0.819206
O O5 0.500000 0.388743 0.115716
O O6 0.361256 0.340907 0.177975
O O7 0.357507 0.376146 0.051861
O O8 0.366182 0.476264 0.140403
O O9 0.500000 0.636013 0.759031
O O10 0.356636 0.614104 0.700263
O O11 0.138513 0.484369 0.859358
O O12 0.000000 0.572096 0.860020
O O13 0.141287 0.605253 0.924241
O O14 0.500000 0.111251 0.485463
O O15 0.641910 0.100762 0.420501
O O16 0.607457 0.000000 0.500000
O O17 0.000000 0.936227 0.858675
O O18 0.393394 0.500000 0.500000
O O19 0.500000 0.612990 0.510831
O O20 0.357478 0.620936 0.444120
O O21 0.000000 0.093471 0.383727
#
# Coordination Sequence:
#
# PCOD9477395 Si02
#       8
#    16  16  16  16  16  16  16  16
#     4  12  25  36  44  62  98 136 169 204 238 276
#     4   8  14  27  52  83 103 117 149 198 243 284
#     4  10  19  32  50  70  96 130 165 198 234 280
#     4   8  14  27  52  83 103 117 149 198 243 284
#     4   7  11  22  46  80 106 117 138 188 245 289
#     4   9  16  31  56  79  97 121 155 195 242 293
#     4   7  11  22  46  80 106 117 138 188 245 289
#     4   9  16  31  56  79  97 121 155 195 242 293
#
# _framework density 21.884613999999999
#
# number of rings (size 3 to 8) (size 9 to 14) (size 15 to 20)
#    0.000    3.250    0.000    4.875    0.000    2.000 
#    0.000    3.750    0.000   15.750    0.000    0.000 
#    0.000    0.000    0.000    0.000    0.000    0.000 
#
# Total GULP energy -356570.976030 kJ/mol
# GULP energy per Si atom -5571.421500 kJ/mol
# Density = 2.183480 g / cm^3
# Si number density = 21.884614 Si / 1000 Ang^3
#
#
#
# Elastic Constant Matrix: (Units=GPa)
#
#
# Indices 1 2 3 4 5 6 
#
# 1 40.4877 -11.8057 -16.7816 0.0000 0.0000 0.0000
# 2 -11.8057 26.8833 17.6249 0.0000 0.0000 0.0000
# 3 -16.7816 17.6249 111.3587 0.0000 0.0000 0.0000
# 4 0.0000 0.0000 0.0000 0.7977 0.0000 0.0000
# 5 0.0000 0.0000 0.0000 0.0000 -28.9926 0.0000
# 6 0.0000 0.0000 0.0000 0.0000 0.0000 -8.7736
#
#
#
# Elastic Compliance Matrix: (Units=1/GPa)
#
#
# Indices 1 2 3 4 5 6 
#
# 1 0.028999 0.011012 0.002627 0.000000 0.000000 0.000000
# 2 0.011012 0.045686 -0.005571 0.000000 0.000000 0.000000
# 3 0.002627 -0.005571 0.010258 0.000000 0.000000 0.000000
# 4 0.000000 0.000000 0.000000 1.253641 0.000000 0.000000
# 5 0.000000 0.000000 0.000000 0.000000 -0.034492 0.000000
# 6 0.000000 0.000000 0.000000 0.000000 0.000000 -0.113979
#
#
# Mechanical properties :
#
#
# Convention : Reuss Voigt Hill
#
# Bulk Modulus (GPa) = 9.89321 17.42275 13.65798
# Shear Modulus (GPa) = 4.14020 5.25246 4.69633
#
# Velocity S-wave (km/s) = 1.37693 1.55090 1.46650
# Velocity P-wave (km/s) = 2.65676 3.34447 3.02025
#
# Compressibility (1/GPa) = 0.10107939
#
# Stress axis : x y z
#
# Youngs Moduli (GPa) = 34.48414 21.88835 97.48799
#
# Poissons Ratio (x) = -0.24104 -0.25612
# Poissons Ratio (y) = -0.37975 0.54313
# Poissons Ratio (z) = -0.09060 0.12195
#
# Static dielectric constant tensor:
#      x y z
#    x 1.849300 0.000000 0.000000 
#    y 0.000000 2.387310 0.000000 
#    z 0.000000 0.000000 1.877910 
# 
# From -- ./inp_files/40571.got.cif
#   From: 2010.05.17/outbox.cif.g08.bks.cpg/sg64_21_cif.got.tgz:40571.got - 2010.06.03 16:29:19.
