data_PCOD9477930
_publ_section_title
;
Structure prediction by ZEFSAII (Michael W. Deem and Ramdas Pophale) SiO2 
 PCOD9477930
Probable space group: C M C A
;
_chemical_formula_sum "Si O2"
_cell_formula_units_Z 120
_cell_length_a 7.440914
_cell_length_b 24.988493
_cell_length_c 30.440556
_cell_angle_alpha 90.000000
_cell_angle_beta 90.000000
_cell_angle_gamma 90.000000
_cell_volume 5660.032583
_symmetry_space_group_name_H-M "C M C A"
_symmetry_group_IT_number 64
_symmetry_cell_setting 'orthorhombic'
loop_
_space_group_symop_operation_xyz
x,y,z
-x,1/2-y,1/2+z
x,-y,-z
-x,1/2+y,1/2-z
-x,-y,-z
x,1/2+y,1/2-z
-x,y,z
x,1/2-y,1/2+z
1/2+x,1/2+y,z
1/2-x,-y,1/2+z
1/2+x,1/2-y,-z
1/2-x,y,1/2-z
1/2-x,1/2-y,-z
1/2+x,y,1/2-z
1/2-x,1/2+y,z
1/2+x,-y,1/2+z
loop_
_atom_site_type_symbol
_atom_site_label
_atom_site_fract_x
_atom_site_fract_y
_atom_site_fract_z
Si Si1 0.794258 0.741704 0.383685
Si Si2 0.000000 0.405247 0.398040
Si Si3 0.284426 0.681801 0.199074
Si Si4 0.796611 0.029007 0.630607
Si Si5 0.786477 0.939350 0.801082
Si Si6 0.719148 0.032100 0.043074
Si Si7 0.215763 0.155564 0.455448
Si Si8 0.282197 0.662921 0.554227
O O1 0.713266 0.722774 0.337482
O O2 0.791475 0.691087 0.416379
O O3 0.720342 0.791315 0.411524
O O4 0.000000 0.757125 0.374976
O O5 0.158026 0.423661 0.362917
O O6 0.160688 0.387069 0.432726
O O7 0.500000 0.679939 0.193797
O O8 0.250000 0.694971 0.250000
O O9 0.218570 0.621177 0.190173
O O10 0.000000 0.047231 0.623239
O O11 0.795023 0.984536 0.668343
O O12 0.724269 0.998569 0.586956
O O13 0.750000 0.949951 0.750000
O O14 0.000000 0.939704 0.808675
O O15 0.500000 0.032328 0.042656
O O16 0.775770 0.093805 0.044801
O O17 0.778451 0.000000 0.000000
O O18 0.256159 0.178412 0.503828
O O19 0.000000 0.155983 0.450128
O O20 0.500000 0.654019 0.556594
#
# Coordination Sequence:
#
# PCOD9477930 Si02
#       8
#    16   8  16  16  16  16  16  16
#     4  10  21  37  58  86 119 158 197 256 316 363
#     4  12  24  40  63  86 116 162 211 254 301 360
#     4   9  19  35  58  91 126 156 195 240 304 378
#     4  11  22  38  60  89 122 160 201 251 300 364
#     4  10  19  35  59  92 128 160 194 242 305 374
#     4   9  18  34  54  80 121 160 199 239 290 352
#     4  10  20  35  58  86 119 162 205 251 300 365
#     4  10  23  41  60  85 119 161 212 262 307 356
#
# _framework density 21.201291000000001
#
# number of rings (size 3 to 8) (size 9 to 14) (size 15 to 20)
#    0.000    2.000    0.667    2.800    1.867    3.200 
#    1.200    1.000    0.000    0.800    3.467    0.000 
#    0.000    0.000    0.000    0.000    0.000    0.000 
#
# Total GULP energy -334114.271688 kJ/mol
# GULP energy per Si atom -5568.571195 kJ/mol
# Density = 2.115304 g / cm^3
# Si number density = 21.201291 Si / 1000 Ang^3
#
#
#
# Elastic Constant Matrix: (Units=GPa)
#
#
# Indices 1 2 3 4 5 6 
#
# 1 101.6402 1.2650 3.2970 0.0000 0.0000 0.0000
# 2 1.2650 30.7835 20.7728 0.0000 0.0000 0.0000
# 3 3.2970 20.7728 82.9398 0.0000 0.0000 0.0000
# 4 0.0000 0.0000 0.0000 39.1261 0.0000 0.0000
# 5 0.0000 0.0000 0.0000 0.0000 21.2648 0.0000
# 6 0.0000 0.0000 0.0000 0.0000 0.0000 -12.2370
#
#
#
# Elastic Compliance Matrix: (Units=1/GPa)
#
#
# Indices 1 2 3 4 5 6 
#
# 1 0.009852 -0.000169 -0.000349 0.000000 0.000000 0.000000
# 2 -0.000169 0.039095 -0.009785 0.000000 0.000000 0.000000
# 3 -0.000349 -0.009785 0.014521 0.000000 0.000000 0.000000
# 4 0.000000 0.000000 0.000000 0.025558 0.000000 0.000000
# 5 0.000000 0.000000 0.000000 0.000000 0.047026 0.000000
# 6 0.000000 0.000000 0.000000 0.000000 0.000000 -0.081719
#
#
# Mechanical properties :
#
#
# Convention : Reuss Voigt Hill
#
# Bulk Modulus (GPa) = 23.33079 29.55923 26.44501
# Shear Modulus (GPa) = 56.03661 22.29934 39.16798
#
# Velocity S-wave (km/s) = 5.14666 3.24665 4.30284
# Velocity P-wave (km/s) = 6.80778 5.29403 6.09806
#
# Compressibility (1/GPa) = 0.04286181
#
# Stress axis : x y z
#
# Youngs Moduli (GPa) = 101.50165 25.57892 68.86352
#
# Poissons Ratio (x) = 0.00433 0.02405
# Poissons Ratio (y) = 0.01717 0.67381
# Poissons Ratio (z) = 0.03545 0.25028
#
# Static dielectric constant tensor:
#      x y z
#    x 1.776940 0.000000 0.000000 
#    y 0.000000 1.833190 0.000000 
#    z 0.000000 0.000000 1.754510 
# 
# From -- ./inp_files/48736.got.cif
#   From: 2010.05.17/outbox.cif.g08.bks.cpg/sg64_25_cif.got.tgz:48736.got - 2010.06.03 16:29:19.
