data_PCOD9477327
_publ_section_title
;
Structure prediction by ZEFSAII (Michael W. Deem and Ramdas Pophale) SiO2 
 PCOD9477327
Probable space group: C M C A
;
_chemical_formula_sum "Si O2"
_cell_formula_units_Z 96
_cell_length_a 8.605527
_cell_length_b 23.777051
_cell_length_c 26.475246
_cell_angle_alpha 90.000000
_cell_angle_beta 90.000000
_cell_angle_gamma 90.000000
_cell_volume 5417.207424
_symmetry_space_group_name_H-M "C M C A"
_symmetry_group_IT_number 64
_symmetry_cell_setting 'orthorhombic'
loop_
_space_group_symop_operation_xyz
x,y,z
-x,1/2-y,1/2+z
x,-y,-z
-x,1/2+y,1/2-z
-x,-y,-z
x,1/2+y,1/2-z
-x,y,z
x,1/2-y,1/2+z
1/2+x,1/2+y,z
1/2-x,-y,1/2+z
1/2+x,1/2-y,-z
1/2-x,y,1/2-z
1/2-x,1/2-y,-z
1/2+x,y,1/2-z
1/2-x,1/2+y,z
1/2+x,-y,1/2+z
loop_
_atom_site_type_symbol
_atom_site_label
_atom_site_fract_x
_atom_site_fract_y
_atom_site_fract_z
Si Si1 0.314877 0.684170 0.694403
Si Si2 0.319149 0.242825 0.945051
Si Si3 0.187032 0.564612 0.997126
Si Si4 0.681083 0.132601 0.598767
Si Si5 0.816073 0.690054 0.195567
Si Si6 0.685451 0.644289 0.408517
O O1 0.500000 0.686137 0.694519
O O2 0.250000 0.671341 0.750000
O O3 0.260314 0.637560 0.653761
O O4 0.256369 0.748279 0.682741
O O5 0.500000 0.225646 0.944360
O O6 0.213557 0.195684 0.920209
O O7 0.293501 0.303185 0.921238
O O8 0.250000 0.250000 0.000000
O O9 0.251942 0.594253 0.946567
O O10 0.000000 0.565758 0.992827
O O11 0.238964 0.500000 0.000000
O O12 0.224339 0.596632 0.050033
O O13 0.500000 0.120868 0.604478
O O14 0.750000 0.673401 0.250000
O O15 0.793342 0.642701 0.152177
O O16 0.000000 0.699768 0.199938
O O17 0.500000 0.656935 0.416198
#
# Coordination Sequence:
#
# PCOD9477327 Si02
#       6
#    16  16  16  16  16  16
#     4  11  21  34  53  80 115 151 186 222 271 331
#     4  12  22  32  50  79 112 146 180 220 276 337
#     4  10  22  40  60  81 106 143 191 240 289 338
#     4  12  23  36  55  81 114 149 186 230 278 334
#     4  10  19  31  49  76 112 148 181 218 266 327
#     4  10  20  34  54  78 110 145 181 225 277 334
#
# _framework density 17.721308000000001
#
# number of rings (size 3 to 8) (size 9 to 14) (size 15 to 20)
#    0.000    1.167    3.333    6.000    0.000    1.000 
#    0.000    0.000    0.000    1.000    0.000    2.333 
#    0.000    0.000    0.000    0.000    0.000    0.000 
#
# Total GULP energy -267478.455209 kJ/mol
# GULP energy per Si atom -5572.467817 kJ/mol
# Density = 1.768097 g / cm^3
# Si number density = 17.721308 Si / 1000 Ang^3
#
#
#
# Elastic Constant Matrix: (Units=GPa)
#
#
# Indices 1 2 3 4 5 6 
#
# 1 77.2477 27.0868 49.3100 0.0000 0.0000 0.0000
# 2 27.0868 81.8382 60.3351 0.0000 0.0000 0.0000
# 3 49.3100 60.3351 169.7119 0.0000 0.0000 0.0000
# 4 0.0000 0.0000 0.0000 3.6464 0.0000 0.0000
# 5 0.0000 0.0000 0.0000 0.0000 -4.0725 0.0000
# 6 0.0000 0.0000 0.0000 0.0000 0.0000 14.3586
#
#
#
# Elastic Compliance Matrix: (Units=1/GPa)
#
#
# Indices 1 2 3 4 5 6 
#
# 1 0.016284 -0.002577 -0.003815 0.000000 0.000000 0.000000
# 2 -0.002577 0.016967 -0.005283 0.000000 0.000000 0.000000
# 3 -0.003815 -0.005283 0.008879 0.000000 0.000000 0.000000
# 4 0.000000 0.000000 0.000000 0.274245 0.000000 0.000000
# 5 0.000000 0.000000 0.000000 0.000000 -0.245552 0.000000
# 6 0.000000 0.000000 0.000000 0.000000 0.000000 0.069645
#
#
# Mechanical properties :
#
#
# Convention : Reuss Voigt Hill
#
# Bulk Modulus (GPa) = 53.24927 66.91796 60.08362
# Shear Modulus (GPa) = 29.39785 15.59088 22.49437
#
# Velocity S-wave (km/s) = 4.07738 2.96933 3.56664
# Velocity P-wave (km/s) = 7.23049 7.04267 7.13720
#
# Compressibility (1/GPa) = 0.01877960
#
# Stress axis : x y z
#
# Youngs Moduli (GPa) = 61.40831 58.93671 112.62267
#
# Poissons Ratio (x) = 0.15188 0.42969
# Poissons Ratio (y) = 0.15825 0.59503
# Poissons Ratio (z) = 0.23429 0.31139
#
# Static dielectric constant tensor:
#      x y z
#    x -0.981060 0.000000 0.000000 
#    y 0.000000 1.598060 0.000000 
#    z 0.000000 0.000000 1.654820 
# 
# From -- ./inp_files/48106.got.cif
#   From: 2010.05.17/outbox.cif.g08.bks.cpg/sg64_25_cif.got.tgz:48106.got - 2010.06.03 16:29:19.
