data_PCOD9477827
_publ_section_title
;
Structure prediction by ZEFSAII (Michael W. Deem and Ramdas Pophale) SiO2 
 PCOD9477827
Probable space group: C M C A
;
_chemical_formula_sum "Si O2"
_cell_formula_units_Z 112
_cell_length_a 25.442908
_cell_length_b 15.559455
_cell_length_c 14.135860
_cell_angle_alpha 90.000000
_cell_angle_beta 90.000000
_cell_angle_gamma 90.000000
_cell_volume 5596.072905
_symmetry_space_group_name_H-M "C M C A"
_symmetry_group_IT_number 64
_symmetry_cell_setting 'orthorhombic'
loop_
_space_group_symop_operation_xyz
x,y,z
-x,1/2-y,1/2+z
x,-y,-z
-x,1/2+y,1/2-z
-x,-y,-z
x,1/2+y,1/2-z
-x,y,z
x,1/2-y,1/2+z
1/2+x,1/2+y,z
1/2-x,-y,1/2+z
1/2+x,1/2-y,-z
1/2-x,y,1/2-z
1/2-x,1/2-y,-z
1/2+x,y,1/2-z
1/2-x,1/2+y,z
1/2+x,-y,1/2+z
loop_
_atom_site_type_symbol
_atom_site_label
_atom_site_fract_x
_atom_site_fract_y
_atom_site_fract_z
Si Si1 0.869205 0.964958 0.100601
Si Si2 0.862882 0.187915 0.354464
Si Si3 0.833650 0.304714 0.509116
Si Si4 0.441547 0.735848 0.582625
Si Si5 0.700340 0.118026 0.312478
Si Si6 0.943018 0.081349 0.432959
Si Si7 0.561206 0.337765 0.208659
O O1 0.911895 0.924498 0.171190
O O2 0.834472 0.037620 0.151316
O O3 0.834332 0.884249 0.063930
O O4 0.891399 0.000000 0.000000
O O5 0.830411 0.218898 0.446009
O O6 0.829662 0.179680 0.260606
O O7 0.893129 0.098078 0.368185
O O8 0.907641 0.259818 0.340096
O O9 0.891682 0.296098 0.559834
O O10 0.792780 0.325898 0.591910
O O11 0.500000 0.777687 0.586643
O O12 0.443402 0.663928 0.501480
O O13 0.434138 0.683522 0.680218
O O14 0.750000 0.088792 0.250000
O O15 0.000000 0.075903 0.383587
O O16 0.937604 0.000000 0.500000
O O17 0.500000 0.336316 0.183358
#
# Coordination Sequence:
#
# PCOD9477827 Si02
#       7
#    16  16  16  16  16  16  16
#     4   9  21  39  60  84 123 156 197 250 297 353
#     4  10  20  36  61  86 115 158 195 243 292 356
#     4   9  19  40  62  85 119 154 197 248 294 357
#     4   9  17  31  56  87 120 158 193 233 287 354
#     4  11  23  41  62  85 116 153 201 258 308 347
#     4   9  18  31  49  79 120 156 186 229 284 349
#     4  10  19  34  59  89 120 156 195 233 288 361
#
# _framework density 20.014035
#
# number of rings (size 3 to 8) (size 9 to 14) (size 15 to 20)
#    0.000    2.429    1.429    0.429    2.000    4.286 
#    0.000    7.857    0.000    0.000    0.000    0.000 
#    0.000    0.000    0.000    0.000    0.000    0.000 
#
# Total GULP energy -311933.515344 kJ/mol
# GULP energy per Si atom -5570.241345 kJ/mol
# Density = 1.996848 g / cm^3
# Si number density = 20.014035 Si / 1000 Ang^3
#
#
#
# Elastic Constant Matrix: (Units=GPa)
#
#
# Indices 1 2 3 4 5 6 
#
# 1 76.5997 32.8447 39.1226 0.0000 0.0000 0.0000
# 2 32.8447 51.6557 17.5357 0.0000 0.0000 0.0000
# 3 39.1226 17.5357 103.0289 0.0000 0.0000 0.0000
# 4 0.0000 0.0000 0.0000 29.3091 0.0000 0.0000
# 5 0.0000 0.0000 0.0000 0.0000 10.4846 0.0000
# 6 0.0000 0.0000 0.0000 0.0000 0.0000 15.1325
#
#
#
# Elastic Compliance Matrix: (Units=1/GPa)
#
#
# Indices 1 2 3 4 5 6 
#
# 1 0.020984 -0.011290 -0.006047 0.000000 0.000000 0.000000
# 2 -0.011290 0.026620 -0.000244 0.000000 0.000000 0.000000
# 3 -0.006047 -0.000244 0.012044 0.000000 0.000000 0.000000
# 4 0.000000 0.000000 0.000000 0.034119 0.000000 0.000000
# 5 0.000000 0.000000 0.000000 0.000000 0.095378 0.000000
# 6 0.000000 0.000000 0.000000 0.000000 0.000000 0.066083
#
#
# Mechanical properties :
#
#
# Convention : Reuss Voigt Hill
#
# Bulk Modulus (GPa) = 40.83735 45.58780 43.21257
# Shear Modulus (GPa) = 16.74761 20.43735 18.59248
#
# Velocity S-wave (km/s) = 2.89588 3.19901 3.05121
# Velocity P-wave (km/s) = 5.62407 6.03923 5.83534
#
# Compressibility (1/GPa) = 0.02448739
#
# Stress axis : x y z
#
# Youngs Moduli (GPa) = 47.65538 37.56554 83.03204
#
# Poissons Ratio (x) = 0.42411 0.50206
# Poissons Ratio (y) = 0.53802 0.02024
# Poissons Ratio (z) = 0.28815 0.00916
#
# Static dielectric constant tensor:
#      x y z
#    x 1.768080 0.000000 0.000000 
#    y 0.000000 1.711520 0.000000 
#    z 0.000000 0.000000 1.764600 
# 
# From -- ./inp_files/28102.got.cif
#   From: 2010.05.17/outbox.cif.g08.bks.cpg/sg64_15_cif.got.tgz:28102.got - 2010.06.03 16:29:19.
