data_PCOD9477021
_publ_section_title
;
Structure prediction by ZEFSAII (Michael W. Deem and Ramdas Pophale) SiO2 
 PCOD9477021
Probable space group: C M C A
;
_chemical_formula_sum "Si O2"
_cell_formula_units_Z 96
_cell_length_a 22.202730
_cell_length_b 14.354551
_cell_length_c 14.147366
_cell_angle_alpha 90.000000
_cell_angle_beta 90.000000
_cell_angle_gamma 90.000000
_cell_volume 4508.910132
_symmetry_space_group_name_H-M "C M C A"
_symmetry_group_IT_number 64
_symmetry_cell_setting 'orthorhombic'
loop_
_space_group_symop_operation_xyz
x,y,z
-x,1/2-y,1/2+z
x,-y,-z
-x,1/2+y,1/2-z
-x,-y,-z
x,1/2+y,1/2-z
-x,y,z
x,1/2-y,1/2+z
1/2+x,1/2+y,z
1/2-x,-y,1/2+z
1/2+x,1/2-y,-z
1/2-x,y,1/2-z
1/2-x,1/2-y,-z
1/2+x,y,1/2-z
1/2-x,1/2+y,z
1/2+x,-y,1/2+z
loop_
_atom_site_type_symbol
_atom_site_label
_atom_site_fract_x
_atom_site_fract_y
_atom_site_fract_z
Si Si1 0.565691 0.665186 0.653937
Si Si2 0.904569 0.396011 0.954572
Si Si3 0.306568 0.366827 0.807374
Si Si4 0.564218 0.874112 0.739692
Si Si5 0.196889 0.345966 0.189806
Si Si6 0.268029 0.609114 0.483142
O O1 0.500000 0.620817 0.673336
O O2 0.573201 0.669833 0.539943
O O3 0.564185 0.767232 0.701196
O O4 0.628421 0.615580 0.685359
O O5 0.934335 0.380926 0.853545
O O6 0.833671 0.379231 0.936394
O O7 0.912464 0.500000 0.000000
O O8 0.250000 0.407671 0.750000
O O9 0.371530 0.413193 0.795326
O O10 0.311508 0.259501 0.773633
O O11 0.285641 0.361754 0.915678
O O12 0.500000 0.915210 0.706961
O O13 0.250000 0.391167 0.250000
O O14 0.224059 0.344462 0.084583
O O15 0.260476 0.500000 0.500000
#
# Coordination Sequence:
#
# PCOD9477021 Si02
#       6
#    16  16  16  16  16  16
#     4   9  19  35  54  82 113 143 183 230 283 337
#     4  10  20  36  60  88 113 143 188 240 289 331
#     4  10  18  34  56  78 104 142 183 220 273 329
#     4  10  20  35  56  83 115 148 183 231 281 334
#     4   9  19  34  54  79 104 139 183 227 269 326
#     4  10  20  34  54  81 108 141 178 230 281 327
#
# _framework density 21.291177000000001
#
# number of rings (size 3 to 8) (size 9 to 14) (size 15 to 20)
#    0.000    2.333    1.667    1.000    0.000    2.000 
#    3.000    0.000    0.000    0.500    0.000    0.000 
#    0.000    0.000    0.000    0.000    0.000    0.000 
#
# Total GULP energy -267369.228152 kJ/mol
# GULP energy per Si atom -5570.192253 kJ/mol
# Density = 2.124272 g / cm^3
# Si number density = 21.291177 Si / 1000 Ang^3
#
#
#
# Elastic Constant Matrix: (Units=GPa)
#
#
# Indices 1 2 3 4 5 6 
#
# 1 232.6332 6.1848 65.9140 0.0000 0.0000 0.0000
# 2 6.1848 51.9195 18.4216 0.0000 0.0000 0.0000
# 3 65.9140 18.4216 86.0424 0.0000 0.0000 0.0000
# 4 0.0000 0.0000 0.0000 109.7454 0.0000 0.0000
# 5 0.0000 0.0000 0.0000 0.0000 -12.3720 0.0000
# 6 0.0000 0.0000 0.0000 0.0000 0.0000 -21.8940
#
#
#
# Elastic Compliance Matrix: (Units=1/GPa)
#
#
# Indices 1 2 3 4 5 6 
#
# 1 0.005530 0.000914 -0.004432 0.000000 0.000000 0.000000
# 2 0.000914 0.020995 -0.005195 0.000000 0.000000 0.000000
# 3 -0.004432 -0.005195 0.016130 0.000000 0.000000 0.000000
# 4 0.000000 0.000000 0.000000 0.009112 0.000000 0.000000
# 5 0.000000 0.000000 0.000000 0.000000 -0.080828 0.000000
# 6 0.000000 0.000000 0.000000 0.000000 0.000000 -0.045675
#
#
# Mechanical properties :
#
#
# Convention : Reuss Voigt Hill
#
# Bulk Modulus (GPa) = 39.63822 61.29287 50.46554
# Shear Modulus (GPa) = -102.24992 33.76755 -34.24119
#
# Velocity S-wave (km/s) = -6.93749 3.98677 -4.01463
# Velocity P-wave (km/s) = 6.74642 7.07410 1.50478
#
# Compressibility (1/GPa) = 0.02522818
#
# Stress axis : x y z
#
# Youngs Moduli (GPa) = 180.82890 47.63041 61.99760
#
# Poissons Ratio (x) = -0.04352 0.27478
# Poissons Ratio (y) = -0.16524 0.32208
# Poissons Ratio (z) = 0.80144 0.24744
#
# Static dielectric constant tensor:
#      x y z
#    x 1.867050 0.000000 0.000000 
#    y 0.000000 1.787170 0.000000 
#    z 0.000000 0.000000 1.771700 
# 
# From -- ./inp_files/18356.got.cif
#   From: 2010.05.17/outbox.cif.g08.bks.cpg/sg64_10_cif.got.tgz:18356.got - 2010.06.03 16:29:19.
