data_PCOD9477766
_publ_section_title
;
Structure prediction by ZEFSAII (Michael W. Deem and Ramdas Pophale) SiO2 
 PCOD9477766
Probable space group: C M C A
;
_chemical_formula_sum "Si O2"
_cell_formula_units_Z 96
_cell_length_a 24.598284
_cell_length_b 7.946792
_cell_length_c 23.398005
_cell_angle_alpha 90.000000
_cell_angle_beta 90.000000
_cell_angle_gamma 90.000000
_cell_volume 4573.782271
_symmetry_space_group_name_H-M "C M C A"
_symmetry_group_IT_number 64
_symmetry_cell_setting 'orthorhombic'
loop_
_space_group_symop_operation_xyz
x,y,z
-x,1/2-y,1/2+z
x,-y,-z
-x,1/2+y,1/2-z
-x,-y,-z
x,1/2+y,1/2-z
-x,y,z
x,1/2-y,1/2+z
1/2+x,1/2+y,z
1/2-x,-y,1/2+z
1/2+x,1/2-y,-z
1/2-x,y,1/2-z
1/2-x,1/2-y,-z
1/2+x,y,1/2-z
1/2-x,1/2+y,z
1/2+x,-y,1/2+z
loop_
_atom_site_type_symbol
_atom_site_label
_atom_site_fract_x
_atom_site_fract_y
_atom_site_fract_z
Si Si1 0.437698 0.349042 0.675360
Si Si2 0.820145 0.931194 0.435640
Si Si3 0.376166 0.151081 0.769035
Si Si4 0.940102 0.458334 0.066909
Si Si5 0.690221 0.055561 0.306439
Si Si6 0.273648 0.254777 0.627532
O O1 0.500000 0.317924 0.691011
O O2 0.401521 0.215509 0.709338
O O3 0.417360 0.528895 0.699392
O O4 0.435049 0.375853 0.607215
O O5 0.881831 0.867100 0.426595
O O6 0.774134 0.798692 0.416741
O O7 0.813804 0.000000 0.500000
O O8 0.810200 0.095727 0.396394
O O9 0.359158 0.311665 0.805913
O O10 0.322251 0.047202 0.751390
O O11 0.000000 0.383491 0.082314
O O12 0.942309 0.500000 0.000000
O O13 0.742784 0.170037 0.317330
O O14 0.695182 0.914286 0.355341
#
# Coordination Sequence:
#
# PCOD9477766 Si02
#       6
#    16  16  16  16  16  16
#     4  10  19  34  56  81 109 142 186 232 280 338
#     4  10  19  34  56  81 109 142 186 232 280 338
#     4  10  21  35  52  78 110 146 183 229 284 334
#     4   9  18  32  52  77 104 138 180 225 268 318
#     4  10  22  35  50  72 106 143 182 222 272 335
#     4  10  21  35  52  78 110 146 183 229 284 334
#
# _framework density 20.989191999999999
#
# number of rings (size 3 to 8) (size 9 to 14) (size 15 to 20)
#    0.000    2.167    0.000    3.000    0.000    6.000 
#    0.000    0.000    0.000    4.000    0.000    7.000 
#    0.000   58.667    0.000    0.000    0.000    0.000 
#
# Total GULP energy -267530.251151 kJ/mol
# GULP energy per Si atom -5573.546899 kJ/mol
# Density = 2.094142 g / cm^3
# Si number density = 20.989192 Si / 1000 Ang^3
#
#
#
# Elastic Constant Matrix: (Units=GPa)
#
#
# Indices 1 2 3 4 5 6 
#
# 1 133.4555 24.7818 37.4793 0.0000 0.0000 0.0000
# 2 24.7818 69.5083 20.0554 0.0000 0.0000 0.0000
# 3 37.4793 20.0554 104.0970 0.0000 0.0000 0.0000
# 4 0.0000 0.0000 0.0000 25.8123 0.0000 0.0000
# 5 0.0000 0.0000 0.0000 0.0000 30.4760 0.0000
# 6 0.0000 0.0000 0.0000 0.0000 0.0000 23.8238
#
#
#
# Elastic Compliance Matrix: (Units=1/GPa)
#
#
# Indices 1 2 3 4 5 6 
#
# 1 0.008676 -0.002321 -0.002676 0.000000 0.000000 0.000000
# 2 -0.002321 0.015854 -0.002219 0.000000 0.000000 0.000000
# 3 -0.002676 -0.002219 0.010998 0.000000 0.000000 0.000000
# 4 0.000000 0.000000 0.000000 0.038741 0.000000 0.000000
# 5 0.000000 0.000000 0.000000 0.000000 0.032813 0.000000
# 6 0.000000 0.000000 0.000000 0.000000 0.000000 0.041975
#
#
# Mechanical properties :
#
#
# Convention : Reuss Voigt Hill
#
# Bulk Modulus (GPa) = 47.40418 52.41041 49.90729
# Shear Modulus (GPa) = 29.32193 31.00539 30.16366
#
# Velocity S-wave (km/s) = 3.74170 3.84762 3.79503
# Velocity P-wave (km/s) = 6.42660 6.69053 6.55989
#
# Compressibility (1/GPa) = 0.02109519
#
# Stress axis : x y z
#
# Youngs Moduli (GPa) = 115.26347 63.07364 90.92920
#
# Poissons Ratio (x) = 0.14639 0.24337
# Poissons Ratio (y) = 0.26752 0.20176
# Poissons Ratio (z) = 0.30850 0.13995
#
# Static dielectric constant tensor:
#      x y z
#    x 1.809280 0.000000 0.000000 
#    y 0.000000 1.725540 0.000000 
#    z 0.000000 0.000000 1.800800 
# 
# From -- ./inp_files/46576.got.cif
#   From: 2010.05.17/outbox.cif.g08.bks.cpg/sg64_24_cif.got.tgz:46576.got - 2010.06.03 16:29:19.
