data_PCOD9477131
_publ_section_title
;
Structure prediction by ZEFSAII (Michael W. Deem and Ramdas Pophale) SiO2 
 PCOD9477131
Probable space group: C M C A
;
_chemical_formula_sum "Si O2"
_cell_formula_units_Z 96
_cell_length_a 18.032161
_cell_length_b 23.534794
_cell_length_c 12.087053
_cell_angle_alpha 90.000000
_cell_angle_beta 90.000000
_cell_angle_gamma 90.000000
_cell_volume 5129.542164
_symmetry_space_group_name_H-M "C M C A"
_symmetry_group_IT_number 64
_symmetry_cell_setting 'orthorhombic'
loop_
_space_group_symop_operation_xyz
x,y,z
-x,1/2-y,1/2+z
x,-y,-z
-x,1/2+y,1/2-z
-x,-y,-z
x,1/2+y,1/2-z
-x,y,z
x,1/2-y,1/2+z
1/2+x,1/2+y,z
1/2-x,-y,1/2+z
1/2+x,1/2-y,-z
1/2-x,y,1/2-z
1/2-x,1/2-y,-z
1/2+x,y,1/2-z
1/2-x,1/2+y,z
1/2+x,-y,1/2+z
loop_
_atom_site_type_symbol
_atom_site_label
_atom_site_fract_x
_atom_site_fract_y
_atom_site_fract_z
Si Si1 0.839650 0.574675 0.238908
Si Si2 0.330618 0.555455 0.691727
Si Si3 0.160727 0.346634 0.563908
Si Si4 0.912936 0.649201 0.673084
Si Si5 0.167600 0.366519 0.981126
Si Si6 0.410953 0.228741 0.871245
O O1 0.750000 0.577475 0.250000
O O2 0.855261 0.509417 0.208940
O O3 0.864101 0.602055 0.354924
O O4 0.865285 0.612338 0.135054
O O5 0.250000 0.561882 0.750000
O O6 0.387689 0.595650 0.755140
O O7 0.325929 0.580274 0.567076
O O8 0.128293 0.352346 0.442100
O O9 0.249446 0.345908 0.548392
O O10 0.129695 0.288180 0.612954
O O11 0.894908 0.703483 0.749530
O O12 0.000000 0.648966 0.653750
O O13 0.121591 0.317157 0.041620
O O14 0.500000 0.233731 0.884753
#
# Coordination Sequence:
#
# PCOD9477131 Si02
#       6
#    16  16  16  16  16  16
#     4   9  21  35  58  90 119 150 196 251 297 353
#     4  10  18  37  62  86 118 156 198 244 300 353
#     4  11  21  38  58  89 120 157 203 247 299 360
#     4  10  22  39  59  86 120 160 203 245 304 361
#     4  10  20  38  61  89 114 156 205 246 296 361
#     4  10  23  39  58  82 119 159 198 251 305 357
#
# _framework density 18.715119999999999
#
# number of rings (size 3 to 8) (size 9 to 14) (size 15 to 20)
#    0.000    2.000    1.667    1.500    2.333    0.667 
#    3.000    4.167    0.000    4.000    0.000    0.000 
#    0.000    0.000    0.000    0.000    0.000    0.000 
#
# Total GULP energy -267815.431458 kJ/mol
# GULP energy per Si atom -5579.488155 kJ/mol
# Density = 1.867252 g / cm^3
# Si number density = 18.715120 Si / 1000 Ang^3
#
#
#
# Elastic Constant Matrix: (Units=GPa)
#
#
# Indices 1 2 3 4 5 6 
#
# 1 32.4894 28.5599 33.2681 0.0000 0.0000 0.0000
# 2 28.5599 109.5067 40.9026 0.0000 0.0000 0.0000
# 3 33.2681 40.9026 106.4346 0.0000 0.0000 0.0000
# 4 0.0000 0.0000 0.0000 20.8160 0.0000 0.0000
# 5 0.0000 0.0000 0.0000 0.0000 -47.9053 0.0000
# 6 0.0000 0.0000 0.0000 0.0000 0.0000 1560.9065
#
#
#
# Elastic Compliance Matrix: (Units=1/GPa)
#
#
# Indices 1 2 3 4 5 6 
#
# 1 0.051447 -0.008653 -0.012755 0.000000 0.000000 0.000000
# 2 -0.008653 0.012118 -0.001952 0.000000 0.000000 0.000000
# 3 -0.012755 -0.001952 0.014133 0.000000 0.000000 0.000000
# 4 0.000000 0.000000 0.000000 0.048040 0.000000 0.000000
# 5 0.000000 0.000000 0.000000 0.000000 -0.020875 0.000000
# 6 0.000000 0.000000 0.000000 0.000000 0.000000 0.000641
#
#
# Mechanical properties :
#
#
# Convention : Reuss Voigt Hill
#
# Bulk Modulus (GPa) = 32.28306 50.43242 41.35774
# Shear Modulus (GPa) = 30.75974 316.47678 173.61826
#
# Velocity S-wave (km/s) = 4.05850 13.01804 9.64211
# Velocity P-wave (km/s) = 6.26491 15.90487 12.08747
#
# Compressibility (1/GPa) = 0.03097599
#
# Stress axis : x y z
#
# Youngs Moduli (GPa) = 19.43748 82.52291 70.75883
#
# Poissons Ratio (x) = 0.71410 0.90255
# Poissons Ratio (y) = 0.16820 0.13813
# Poissons Ratio (z) = 0.24793 0.16109
#
# Static dielectric constant tensor:
#      x y z
#    x 1.627360 0.000000 0.000000 
#    y 0.000000 1.664990 0.000000 
#    z 0.000000 0.000000 1.656850 
# 
# From -- ./inp_files/16173.got.cif
#   From: 2010.05.17/outbox.cif.g08.bks.cpg/sg64_9_cif.got.tgz:16173.got - 2010.06.03 16:29:19.
