data_PCOD9477049
_publ_section_title
;
Structure prediction by ZEFSAII (Michael W. Deem and Ramdas Pophale) SiO2 
 PCOD9477049
Probable space group: C M C A
;
_chemical_formula_sum "Si O2"
_cell_formula_units_Z 48
_cell_length_a 9.128954
_cell_length_b 18.035304
_cell_length_c 14.978096
_cell_angle_alpha 90.000000
_cell_angle_beta 90.000000
_cell_angle_gamma 90.000000
_cell_volume 2466.045559
_symmetry_space_group_name_H-M "C M C A"
_symmetry_group_IT_number 64
_symmetry_cell_setting 'orthorhombic'
loop_
_space_group_symop_operation_xyz
x,y,z
-x,1/2-y,1/2+z
x,-y,-z
-x,1/2+y,1/2-z
-x,-y,-z
x,1/2+y,1/2-z
-x,y,z
x,1/2-y,1/2+z
1/2+x,1/2+y,z
1/2-x,-y,1/2+z
1/2+x,1/2-y,-z
1/2-x,y,1/2-z
1/2-x,1/2-y,-z
1/2+x,y,1/2-z
1/2-x,1/2+y,z
1/2+x,-y,1/2+z
loop_
_atom_site_type_symbol
_atom_site_label
_atom_site_fract_x
_atom_site_fract_y
_atom_site_fract_z
Si Si1 0.000000 0.740889 0.121867
Si Si2 0.500000 0.599317 0.484928
Si Si3 0.250000 0.269772 0.250000
Si Si4 0.757117 0.500000 0.500000
Si Si5 0.000000 0.081509 0.884306
Si Si6 0.000000 0.124203 0.687052
O O1 0.856633 0.727080 0.182931
O O2 0.000000 0.829005 0.100150
O O3 0.000000 0.685167 0.040062
O O4 0.648102 0.559111 0.453714
O O5 0.500000 0.587692 0.591525
O O6 0.358113 0.323210 0.305182
O O7 0.860281 0.456654 0.430368
O O8 0.000000 0.074846 0.776711
#
# Coordination Sequence:
#
# PCOD9477049 Si02
#       6
#     8   8   8   8   8   8
#     4  10  20  38  62  84 111 152 194 234 278 336
#     4  11  22  36  58  89 119 145 184 239 291 338
#     4   8  18  34  56  86 112 144 194 236 274 328
#     4  10  22  38  54  84 120 146 190 240 284 334
#     4   9  20  40  62  81 110 156 199 232 275 337
#     4  10  18  34  60  84 110 151 193 226 278 350
#
# _framework density 19.464361
#
# number of rings (size 3 to 8) (size 9 to 14) (size 15 to 20)
#    0.000    2.667    0.000    4.000    0.000    5.333 
#    0.000   11.667    0.000    0.000    0.000    0.000 
#    0.000    0.000    0.000    0.000    0.000    0.000 
#
# Total GULP energy -133793.538232 kJ/mol
# GULP energy per Si atom -5574.730760 kJ/mol
# Density = 1.942006 g / cm^3
# Si number density = 19.464361 Si / 1000 Ang^3
#
#
#
# Elastic Constant Matrix: (Units=GPa)
#
#
# Indices 1 2 3 4 5 6 
#
# 1 145.6460 35.0989 40.5651 0.0000 0.0000 0.0000
# 2 35.0989 89.4360 59.3802 0.0000 0.0000 0.0000
# 3 40.5651 59.3802 97.3951 0.0000 0.0000 0.0000
# 4 0.0000 0.0000 0.0000 15.7186 0.0000 0.0000
# 5 0.0000 0.0000 0.0000 0.0000 8.5728 0.0000
# 6 0.0000 0.0000 0.0000 0.0000 0.0000 2.9366
#
#
#
# Elastic Compliance Matrix: (Units=1/GPa)
#
#
# Indices 1 2 3 4 5 6 
#
# 1 0.007891 -0.001537 -0.002350 0.000000 0.000000 0.000000
# 2 -0.001537 0.019085 -0.010996 0.000000 0.000000 0.000000
# 3 -0.002350 -0.010996 0.017950 0.000000 0.000000 0.000000
# 4 0.000000 0.000000 0.000000 0.063619 0.000000 0.000000
# 5 0.000000 0.000000 0.000000 0.000000 0.116648 0.000000
# 6 0.000000 0.000000 0.000000 0.000000 0.000000 0.340528
#
#
# Mechanical properties :
#
#
# Convention : Reuss Voigt Hill
#
# Bulk Modulus (GPa) = 65.95638 66.95173 66.45405
# Shear Modulus (GPa) = 8.32587 18.60780 13.46684
#
# Velocity S-wave (km/s) = 2.07045 3.09527 2.63320
# Velocity P-wave (km/s) = 6.29881 6.87357 6.59246
#
# Compressibility (1/GPa) = 0.01516154
#
# Stress axis : x y z
#
# Youngs Moduli (GPa) = 126.73169 52.39815 55.71074
#
# Poissons Ratio (x) = 0.08052 0.13090
# Poissons Ratio (y) = 0.19475 0.61257
# Poissons Ratio (z) = 0.29777 0.57615
#
# Static dielectric constant tensor:
#      x y z
#    x 1.761250 0.000000 0.000000 
#    y 0.000000 1.666540 0.000000 
#    z 0.000000 0.000000 1.682820 
# 
# From -- ./inp_files/20550.got.cif
#   From: 2010.05.17/outbox.cif.g08.bks.cpg/sg64_11_cif.got.tgz:20550.got - 2010.06.03 16:29:19.
