data_PCOD9477735
_publ_section_title
;
Structure prediction by ZEFSAII (Michael W. Deem and Ramdas Pophale) SiO2 
 PCOD9477735
Probable space group: C M C A
;
_chemical_formula_sum "Si O2"
_cell_formula_units_Z 112
_cell_length_a 13.752109
_cell_length_b 31.337420
_cell_length_c 13.498726
_cell_angle_alpha 90.000000
_cell_angle_beta 90.000000
_cell_angle_gamma 90.000000
_cell_volume 5817.351773
_symmetry_space_group_name_H-M "C M C A"
_symmetry_group_IT_number 64
_symmetry_cell_setting 'orthorhombic'
loop_
_space_group_symop_operation_xyz
x,y,z
-x,1/2-y,1/2+z
x,-y,-z
-x,1/2+y,1/2-z
-x,-y,-z
x,1/2+y,1/2-z
-x,y,z
x,1/2-y,1/2+z
1/2+x,1/2+y,z
1/2-x,-y,1/2+z
1/2+x,1/2-y,-z
1/2-x,y,1/2-z
1/2-x,1/2-y,-z
1/2+x,y,1/2-z
1/2-x,1/2+y,z
1/2+x,-y,1/2+z
loop_
_atom_site_type_symbol
_atom_site_label
_atom_site_fract_x
_atom_site_fract_y
_atom_site_fract_z
Si Si1 0.258289 0.610710 0.420559
Si Si2 0.384604 0.188523 0.408047
Si Si3 0.114669 0.671032 0.184262
Si Si4 0.116512 0.221878 0.511631
Si Si5 0.890520 0.949190 0.994723
Si Si6 0.680262 0.640247 0.620724
Si Si7 0.109467 0.616906 0.672158
O O1 0.174461 0.646534 0.434840
O O2 0.324746 0.627527 0.331315
O O3 0.195578 0.568060 0.424737
O O4 0.325224 0.613962 0.518362
O O5 0.500000 0.182574 0.424868
O O6 0.369501 0.192712 0.289871
O O7 0.349508 0.230486 0.464997
O O8 0.000000 0.662123 0.175354
O O9 0.144850 0.701860 0.094120
O O10 0.142141 0.187341 0.595861
O O11 0.000000 0.224842 0.509890
O O12 0.880804 0.925385 0.102560
O O13 0.000000 0.937804 0.959173
O O14 0.885113 0.000000 0.000000
O O15 0.795143 0.643983 0.644849
O O16 0.625245 0.615621 0.708988
O O17 0.000000 0.633657 0.653586
#
# Coordination Sequence:
#
# PCOD9477735 Si02
#       7
#    16  16  16  16  16  16  16
#     4  10  19  34  55  77 105 144 184 227 283 333
#     4  10  20  35  54  78 113 149 192 239 282 333
#     4   9  19  35  53  75 108 152 197 234 275 332
#     4   9  18  34  52  76 110 152 193 235 279 320
#     4   9  18  34  59  88 114 140 174 224 285 344
#     4   9  18  31  50  76 107 143 185 224 272 328
#     4   9  17  32  51  78 113 143 177 222 277 334
#
# _framework density 19.252746999999999
#
# number of rings (size 3 to 8) (size 9 to 14) (size 15 to 20)
#    0.000    2.714    0.000    1.286    0.000    3.429 
#   12.857    0.000   12.571    0.429    0.000    0.000 
#    0.000    0.000    0.000    0.000    0.000    0.000 
#
# Total GULP energy -311930.154105 kJ/mol
# GULP energy per Si atom -5570.181323 kJ/mol
# Density = 1.920893 g / cm^3
# Si number density = 19.252747 Si / 1000 Ang^3
#
#
#
# Elastic Constant Matrix: (Units=GPa)
#
#
# Indices 1 2 3 4 5 6 
#
# 1 64.4960 14.8788 14.3961 0.0000 0.0000 0.0000
# 2 14.8788 63.5616 13.2707 0.0000 0.0000 0.0000
# 3 14.3961 13.2707 78.6811 0.0000 0.0000 0.0000
# 4 0.0000 0.0000 0.0000 17.0944 0.0000 0.0000
# 5 0.0000 0.0000 0.0000 0.0000 27.4344 0.0000
# 6 0.0000 0.0000 0.0000 0.0000 0.0000 29.0506
#
#
#
# Elastic Compliance Matrix: (Units=1/GPa)
#
#
# Indices 1 2 3 4 5 6 
#
# 1 0.016854 -0.003422 -0.002507 0.000000 0.000000 0.000000
# 2 -0.003422 0.017002 -0.002241 0.000000 0.000000 0.000000
# 3 -0.002507 -0.002241 0.013546 0.000000 0.000000 0.000000
# 4 0.000000 0.000000 0.000000 0.058499 0.000000 0.000000
# 5 0.000000 0.000000 0.000000 0.000000 0.036451 0.000000
# 6 0.000000 0.000000 0.000000 0.000000 0.000000 0.034423
#
#
# Mechanical properties :
#
#
# Convention : Reuss Voigt Hill
#
# Bulk Modulus (GPa) = 32.19377 32.42551 32.30964
# Shear Modulus (GPa) = 24.57395 25.66208 25.11802
#
# Velocity S-wave (km/s) = 3.57653 3.65486 3.61591
# Velocity P-wave (km/s) = 5.81493 5.88976 5.85246
#
# Compressibility (1/GPa) = 0.03106191
#
# Stress axis : x y z
#
# Youngs Moduli (GPa) = 59.33405 58.81740 73.82140
#
# Poissons Ratio (x) = 0.20127 0.18504
# Poissons Ratio (y) = 0.20303 0.16547
# Poissons Ratio (z) = 0.14872 0.13184
#
# Static dielectric constant tensor:
#      x y z
#    x 1.728690 0.000000 0.000000 
#    y 0.000000 1.648700 0.000000 
#    z 0.000000 0.000000 1.751250 
# 
# From -- ./inp_files/24488.got.cif
#   From: 2010.05.17/outbox.cif.g08.bks.cpg/sg64_13_cif.got.tgz:24488.got - 2010.06.03 16:29:19.
