data_PCOD9477653
_publ_section_title
;
Structure prediction by ZEFSAII (Michael W. Deem and Ramdas Pophale) SiO2 
 PCOD9477653
Probable space group: C M C A
;
_chemical_formula_sum "Si O2"
_cell_formula_units_Z 128
_cell_length_a 19.105337
_cell_length_b 16.829301
_cell_length_c 17.207047
_cell_angle_alpha 90.000000
_cell_angle_beta 90.000000
_cell_angle_gamma 90.000000
_cell_volume 5532.572652
_symmetry_space_group_name_H-M "C M C A"
_symmetry_group_IT_number 64
_symmetry_cell_setting 'orthorhombic'
loop_
_space_group_symop_operation_xyz
x,y,z
-x,1/2-y,1/2+z
x,-y,-z
-x,1/2+y,1/2-z
-x,-y,-z
x,1/2+y,1/2-z
-x,y,z
x,1/2-y,1/2+z
1/2+x,1/2+y,z
1/2-x,-y,1/2+z
1/2+x,1/2-y,-z
1/2-x,y,1/2-z
1/2-x,1/2-y,-z
1/2+x,y,1/2-z
1/2-x,1/2+y,z
1/2+x,-y,1/2+z
loop_
_atom_site_type_symbol
_atom_site_label
_atom_site_fract_x
_atom_site_fract_y
_atom_site_fract_z
Si Si1 0.732578 0.485544 0.156669
Si Si2 0.581787 0.078589 0.672200
Si Si3 0.081787 0.684626 0.417167
Si Si4 0.424906 0.088383 0.269465
Si Si5 0.639738 0.574293 0.554032
Si Si6 0.080974 0.328017 0.184941
Si Si7 0.205932 0.156991 0.319342
Si Si8 0.672880 0.262941 0.530971
O O1 0.750000 0.470641 0.250000
O O2 0.655436 0.451451 0.134173
O O3 0.788046 0.445165 0.099031
O O4 0.747773 0.581492 0.148514
O O5 0.500000 0.088601 0.639180
O O6 0.572311 0.005605 0.732174
O O7 0.602572 0.151525 0.728027
O O8 0.084502 0.609106 0.361134
O O9 0.113119 0.752468 0.359404
O O10 0.123957 0.693825 0.496653
O O11 0.000000 0.699368 0.434670
O O12 0.500000 0.123232 0.246423
O O13 0.363022 0.118128 0.216986
O O14 0.620066 0.500000 0.500000
O O15 0.589622 0.600312 0.624064
O O16 0.645573 0.652093 0.500377
O O17 0.000000 0.308295 0.192272
O O18 0.250000 0.193475 0.250000
O O19 0.182442 0.223045 0.378931
O O20 0.750000 0.250000 0.500000
#
# Coordination Sequence:
#
# PCOD9477653 Si02
#       8
#    16  16  16  16  16  16  16  16
#     4  11  19  35  58  84 117 146 189 240 291 337
#     4  10  19  33  59  86 111 145 191 239 279 334
#     4   9  20  38  58  80 119 160 188 232 291 345
#     4  10  19  33  56  86 112 149 193 228 280 344
#     4  11  21  35  56  82 111 154 187 229 296 343
#     4   9  18  34  53  83 117 145 183 232 285 342
#     4  11  20  35  57  83 114 147 183 241 285 334
#     4  11  24  39  56  83 117 149 194 238 286 343
#
# _framework density 23.135711000000001
#
# number of rings (size 3 to 8) (size 9 to 14) (size 15 to 20)
#    0.000    1.750    5.000    0.750    0.000    0.750 
#    2.250    0.625    0.000    1.125    0.000    0.000 
#    0.000    0.000    0.000    0.000    0.000    0.000 
#
# Total GULP energy -356702.314312 kJ/mol
# GULP energy per Si atom -5573.473661 kJ/mol
# Density = 2.308305 g / cm^3
# Si number density = 23.135711 Si / 1000 Ang^3
#
#
#
# Elastic Constant Matrix: (Units=GPa)
#
#
# Indices 1 2 3 4 5 6 
#
# 1 89.2381 1.6317 15.9187 0.0000 0.0000 0.0000
# 2 1.6317 38.2419 21.8905 0.0000 0.0000 0.0000
# 3 15.9187 21.8905 54.6303 0.0000 0.0000 0.0000
# 4 0.0000 0.0000 0.0000 7.1976 0.0000 0.0000
# 5 0.0000 0.0000 0.0000 0.0000 31.9265 0.0000
# 6 0.0000 0.0000 0.0000 0.0000 0.0000 16.4644
#
#
#
# Elastic Compliance Matrix: (Units=1/GPa)
#
#
# Indices 1 2 3 4 5 6 
#
# 1 0.011928 0.001921 -0.004246 0.000000 0.000000 0.000000
# 2 0.001921 0.034242 -0.014281 0.000000 0.000000 0.000000
# 3 -0.004246 -0.014281 0.025264 0.000000 0.000000 0.000000
# 4 0.000000 0.000000 0.000000 0.138935 0.000000 0.000000
# 5 0.000000 0.000000 0.000000 0.000000 0.031322 0.000000
# 6 0.000000 0.000000 0.000000 0.000000 0.000000 0.060737
#
#
# Mechanical properties :
#
#
# Convention : Reuss Voigt Hill
#
# Bulk Modulus (GPa) = 26.16127 28.99914 27.58020
# Shear Modulus (GPa) = 14.35214 20.62900 17.49057
#
# Velocity S-wave (km/s) = 2.49338 2.98929 2.75253
# Velocity P-wave (km/s) = 4.42962 4.94733 4.69561
#
# Compressibility (1/GPa) = 0.03822444
#
# Stress axis : x y z
#
# Youngs Moduli (GPa) = 83.83498 29.20400 39.58157
#
# Poissons Ratio (x) = -0.05611 0.16805
# Poissons Ratio (y) = -0.16107 0.56525
# Poissons Ratio (z) = 0.35593 0.41705
#
# Static dielectric constant tensor:
#      x y z
#    x 1.915990 0.000000 0.000000 
#    y 0.000000 1.918360 0.000000 
#    z 0.000000 0.000000 1.908350 
# 
# From -- ./inp_files/34655.got.cif
#   From: 2010.05.17/outbox.cif.g08.bks.cpg/sg64_18_cif.got.tgz:34655.got - 2010.06.03 16:29:19.
