data_PCOD9477610
_publ_section_title
;
Structure prediction by ZEFSAII (Michael W. Deem and Ramdas Pophale) SiO2 
 PCOD9477610
Probable space group: C M C A
;
_chemical_formula_sum "Si O2"
_cell_formula_units_Z 96
_cell_length_a 8.933091
_cell_length_b 19.735977
_cell_length_c 31.301187
_cell_angle_alpha 90.000000
_cell_angle_beta 90.000000
_cell_angle_gamma 90.000000
_cell_volume 5518.501890
_symmetry_space_group_name_H-M "C M C A"
_symmetry_group_IT_number 64
_symmetry_cell_setting 'orthorhombic'
loop_
_space_group_symop_operation_xyz
x,y,z
-x,1/2-y,1/2+z
x,-y,-z
-x,1/2+y,1/2-z
-x,-y,-z
x,1/2+y,1/2-z
-x,y,z
x,1/2-y,1/2+z
1/2+x,1/2+y,z
1/2-x,-y,1/2+z
1/2+x,1/2-y,-z
1/2-x,y,1/2-z
1/2-x,1/2-y,-z
1/2+x,y,1/2-z
1/2-x,1/2+y,z
1/2+x,-y,1/2+z
loop_
_atom_site_type_symbol
_atom_site_label
_atom_site_fract_x
_atom_site_fract_y
_atom_site_fract_z
Si Si1 0.178929 0.575488 0.982241
Si Si2 0.679289 0.256913 0.372626
Si Si3 0.320948 0.647592 0.431400
Si Si4 0.320885 0.843467 0.703810
Si Si5 0.679885 0.453290 0.863425
Si Si6 0.178380 0.101434 0.890641
O O1 0.267306 0.589957 0.939147
O O2 0.000000 0.578842 0.973805
O O3 0.210685 0.500000 0.000000
O O4 0.215582 0.628398 0.019910
O O5 0.500000 0.256639 0.375735
O O6 0.746163 0.214953 0.412528
O O7 0.722512 0.215094 0.329996
O O8 0.741743 0.332330 0.372605
O O9 0.500000 0.652085 0.427588
O O10 0.261406 0.586444 0.401632
O O11 0.500000 0.841390 0.708033
O O12 0.250000 0.836318 0.750000
O O13 0.280721 0.913895 0.680029
O O14 0.500000 0.445691 0.869665
O O15 0.716092 0.532346 0.865398
O O16 0.000000 0.110661 0.889613
#
# Coordination Sequence:
#
# PCOD9477610 Si02
#       6
#    16  16  16  16  16  16
#     4  10  20  34  52  78 111 146 186 232 274 316
#     4  10  22  39  56  77 112 147 179 224 277 324
#     4  10  19  33  55  79 105 143 189 226 263 317
#     4   9  19  37  60  83 105 135 173 216 268 326
#     4   9  19  35  54  79 111 140 172 219 269 315
#     4  11  22  35  55  81 110 146 187 227 269 321
#
# _framework density 17.396025999999999
#
# number of rings (size 3 to 8) (size 9 to 14) (size 15 to 20)
#    0.000    2.167    1.667    2.500    0.000    6.333 
#    0.000    0.833    0.000    4.000    0.000    0.000 
#    0.000    0.000    0.000    0.000    0.000    0.000 
#
# Total GULP energy -267897.862342 kJ/mol
# GULP energy per Si atom -5581.205465 kJ/mol
# Density = 1.735643 g / cm^3
# Si number density = 17.396026 Si / 1000 Ang^3
#
#
#
# Elastic Constant Matrix: (Units=GPa)
#
#
# Indices 1 2 3 4 5 6 
#
# 1 36.1968 44.9732 31.9804 0.0000 0.0000 0.0000
# 2 44.9732 138.0668 51.9816 0.0000 0.0000 0.0000
# 3 31.9804 51.9816 93.6337 0.0000 0.0000 0.0000
# 4 0.0000 0.0000 0.0000 12.5449 0.0000 0.0000
# 5 0.0000 0.0000 0.0000 0.0000 30.4724 0.0000
# 6 0.0000 0.0000 0.0000 0.0000 0.0000 29.6347
#
#
#
# Elastic Compliance Matrix: (Units=1/GPa)
#
#
# Indices 1 2 3 4 5 6 
#
# 1 0.054083 -0.013480 -0.010989 0.000000 0.000000 0.000000
# 2 -0.013480 0.012516 -0.002345 0.000000 0.000000 0.000000
# 3 -0.010989 -0.002345 0.015735 0.000000 0.000000 0.000000
# 4 0.000000 0.000000 0.000000 0.079714 0.000000 0.000000
# 5 0.000000 0.000000 0.000000 0.000000 0.032817 0.000000
# 6 0.000000 0.000000 0.000000 0.000000 0.000000 0.033744
#
#
# Mechanical properties :
#
#
# Convention : Reuss Voigt Hill
#
# Bulk Modulus (GPa) = 34.83289 58.41861 46.62575
# Shear Modulus (GPa) = 17.13476 23.79455 20.46465
#
# Velocity S-wave (km/s) = 3.14185 3.70241 3.43359
# Velocity P-wave (km/s) = 5.76442 7.20636 6.52534
#
# Compressibility (1/GPa) = 0.02870850
#
# Stress axis : x y z
#
# Youngs Moduli (GPa) = 18.48998 79.89508 63.55365
#
# Poissons Ratio (x) = 1.07696 0.69837
# Poissons Ratio (y) = 0.24924 0.14901
# Poissons Ratio (z) = 0.20318 0.18733
#
# Static dielectric constant tensor:
#      x y z
#    x 1.581790 0.000000 0.000000 
#    y 0.000000 1.598370 0.000000 
#    z 0.000000 0.000000 1.564250 
# 
# From -- ./inp_files/48101.got.cif
#   From: 2010.05.17/outbox.cif.g08.bks.cpg/sg64_25_cif.got.tgz:48101.got - 2010.06.03 16:29:19.
