data_PCOD9477254
_publ_section_title
;
Structure prediction by ZEFSAII (Michael W. Deem and Ramdas Pophale) SiO2 
 PCOD9477254
Probable space group: C M C A
;
_chemical_formula_sum "Si O2"
_cell_formula_units_Z 96
_cell_length_a 8.768581
_cell_length_b 24.508773
_cell_length_c 26.677270
_cell_angle_alpha 90.000000
_cell_angle_beta 90.000000
_cell_angle_gamma 90.000000
_cell_volume 5733.136366
_symmetry_space_group_name_H-M "C M C A"
_symmetry_group_IT_number 64
_symmetry_cell_setting 'orthorhombic'
loop_
_space_group_symop_operation_xyz
x,y,z
-x,1/2-y,1/2+z
x,-y,-z
-x,1/2+y,1/2-z
-x,-y,-z
x,1/2+y,1/2-z
-x,y,z
x,1/2-y,1/2+z
1/2+x,1/2+y,z
1/2-x,-y,1/2+z
1/2+x,1/2-y,-z
1/2-x,y,1/2-z
1/2-x,1/2-y,-z
1/2+x,y,1/2-z
1/2-x,1/2+y,z
1/2+x,-y,1/2+z
loop_
_atom_site_type_symbol
_atom_site_label
_atom_site_fract_x
_atom_site_fract_y
_atom_site_fract_z
Si Si1 0.683195 0.830828 0.960677
Si Si2 0.684598 0.981615 0.056750
Si Si3 0.683712 0.839107 0.805483
Si Si4 0.182573 0.643539 0.927340
Si Si5 0.818922 0.081490 0.112537
Si Si6 0.318145 0.257645 0.121553
O O1 0.500000 0.840811 0.956423
O O2 0.770282 0.879758 0.933647
O O3 0.718492 0.777218 0.928606
O O4 0.723513 0.830407 0.018729
O O5 0.500000 0.984465 0.058182
O O6 0.731444 0.919560 0.069137
O O7 0.752853 0.022931 0.097329
O O8 0.729460 0.000000 0.000000
O O9 0.500000 0.840915 0.805070
O O10 0.750000 0.841361 0.750000
O O11 0.744748 0.888996 0.839367
O O12 0.730767 0.782540 0.833394
O O13 0.247867 0.682719 0.884543
O O14 0.000000 0.643736 0.923295
O O15 0.000000 0.079696 0.118170
O O16 0.500000 0.262970 0.124451
#
# Coordination Sequence:
#
# PCOD9477254 Si02
#       6
#    16  16  16  16  16  16
#     4   9  17  32  48  68 102 144 179 211 256 308
#     4  10  19  34  52  70 104 150 186 219 262 312
#     4  10  21  39  61  82 104 133 169 215 272 322
#     4  10  19  30  49  72 101 144 184 213 253 308
#     4  11  21  32  51  80 108 137 177 224 265 308
#     4   9  19  32  49  74 106 135 165 213 266 312
#
# _framework density 16.744762000000001
#
# number of rings (size 3 to 8) (size 9 to 14) (size 15 to 20)
#    0.000    2.167    1.667    3.500    0.000    5.000 
#    0.000    0.000    0.000    1.000    0.000    2.333 
#    0.000    0.000    0.000    0.000    0.000    0.000 
#
# Total GULP energy -267660.645077 kJ/mol
# GULP energy per Si atom -5576.263439 kJ/mol
# Density = 1.670665 g / cm^3
# Si number density = 16.744762 Si / 1000 Ang^3
#
#
#
# Elastic Constant Matrix: (Units=GPa)
#
#
# Indices 1 2 3 4 5 6 
#
# 1 24.2986 38.0005 32.5017 0.0000 0.0000 0.0000
# 2 38.0005 117.5090 63.7630 0.0000 0.0000 0.0000
# 3 32.5017 63.7630 106.2211 0.0000 0.0000 0.0000
# 4 0.0000 0.0000 0.0000 11.3584 0.0000 0.0000
# 5 0.0000 0.0000 0.0000 0.0000 24.2010 0.0000
# 6 0.0000 0.0000 0.0000 0.0000 0.0000 24.1051
#
#
#
# Elastic Compliance Matrix: (Units=1/GPa)
#
#
# Indices 1 2 3 4 5 6 
#
# 1 0.099614 -0.023246 -0.016526 0.000000 0.000000 0.000000
# 2 -0.023246 0.018046 -0.003720 0.000000 0.000000 0.000000
# 3 -0.016526 -0.003720 0.016704 0.000000 0.000000 0.000000
# 4 0.000000 0.000000 0.000000 0.088041 0.000000 0.000000
# 5 0.000000 0.000000 0.000000 0.000000 0.041321 0.000000
# 6 0.000000 0.000000 0.000000 0.000000 0.000000 0.041485
#
#
# Mechanical properties :
#
#
# Convention : Reuss Voigt Hill
#
# Bulk Modulus (GPa) = 21.10583 57.39544 39.25063
# Shear Modulus (GPa) = 12.25530 19.51713 15.88621
#
# Velocity S-wave (km/s) = 2.70828 3.41774 3.08348
# Velocity P-wave (km/s) = 4.73408 7.06581 6.01403
#
# Compressibility (1/GPa) = 0.04738028
#
# Stress axis : x y z
#
# Youngs Moduli (GPa) = 10.03874 55.41429 59.86677
#
# Poissons Ratio (x) = 1.28818 0.98934
# Poissons Ratio (y) = 0.23336 0.22269
# Poissons Ratio (z) = 0.16590 0.20613
#
# Static dielectric constant tensor:
#      x y z
#    x 1.563880 0.000000 0.000000 
#    y 0.000000 1.585350 0.000000 
#    z 0.000000 0.000000 1.547540 
# 
# From -- ./inp_files/43058.got.cif
#   From: 2010.05.17/outbox.cif.g08.bks.cpg/sg64_22_cif.got.tgz:43058.got - 2010.06.03 16:29:19.
