data_PCOD9477302
_publ_section_title
;
Structure prediction by ZEFSAII (Michael W. Deem and Ramdas Pophale) SiO2 
 PCOD9477302
Probable space group: C M C A
;
_chemical_formula_sum "Si O2"
_cell_formula_units_Z 116
_cell_length_a 7.973905
_cell_length_b 31.075700
_cell_length_c 29.182501
_cell_angle_alpha 90.000000
_cell_angle_beta 90.000000
_cell_angle_gamma 90.000000
_cell_volume 7231.268485
_symmetry_space_group_name_H-M "C M C A"
_symmetry_group_IT_number 64
_symmetry_cell_setting 'orthorhombic'
loop_
_space_group_symop_operation_xyz
x,y,z
-x,1/2-y,1/2+z
x,-y,-z
-x,1/2+y,1/2-z
-x,-y,-z
x,1/2+y,1/2-z
-x,y,z
x,1/2-y,1/2+z
1/2+x,1/2+y,z
1/2-x,-y,1/2+z
1/2+x,1/2-y,-z
1/2-x,y,1/2-z
1/2-x,1/2-y,-z
1/2+x,y,1/2-z
1/2-x,1/2+y,z
1/2+x,-y,1/2+z
loop_
_atom_site_type_symbol
_atom_site_label
_atom_site_fract_x
_atom_site_fract_y
_atom_site_fract_z
Si Si1 0.701369 0.210225 0.607540
Si Si2 0.500000 0.500000 0.500000
Si Si3 0.304148 0.567745 0.021657
Si Si4 0.701137 0.847994 0.030519
Si Si5 0.190394 0.630303 0.396662
Si Si6 0.696763 0.251340 0.800292
Si Si7 0.693157 0.650859 0.301677
Si Si8 0.191964 0.790529 0.550596
O O1 0.500000 0.211898 0.608172
O O2 0.758595 0.167353 0.581607
O O3 0.761820 0.218876 0.658914
O O4 0.769779 0.250210 0.576803
O O5 0.347979 0.464602 0.511818
O O6 0.500000 0.552443 0.019049
O O7 0.278570 0.588621 0.072314
O O8 0.283329 0.607949 0.986543
O O9 0.500000 0.851751 0.024551
O O10 0.765737 0.810213 0.996036
O O11 0.211669 0.626755 0.342438
O O12 0.304454 0.669083 0.414820
O O13 0.000000 0.644081 0.406687
O O14 0.500000 0.260442 0.799723
O O15 0.750000 0.235688 0.750000
O O16 0.783762 0.297612 0.808325
O O17 0.500000 0.640042 0.306265
O O18 0.750000 0.641424 0.250000
O O19 0.000000 0.778831 0.540175
#
# Coordination Sequence:
#
# PCOD9477302 Si02
#       8
#    16   4  16  16  16  16  16  16
#     4  11  20  30  45  68  97 139 179 221 260 300
#     4  12  22  40  64  82 108 136 174 204 264 338
#     4  10  22  38  58  83 109 141 169 216 264 324
#     4  10  19  33  49  72 103 137 174 216 259 303
#     4  10  19  31  49  72 103 137 178 216 260 307
#     4  11  21  33  46  64  92 133 184 229 268 306
#     4  11  20  30  46  66  97 138 182 223 260 303
#     4   9  18  29  44  64  96 138 181 214 250 295
#
# _framework density 16.041446000000001
#
# number of rings (size 3 to 8) (size 9 to 14) (size 15 to 20)
#    0.000    1.655    2.069    5.172    1.931    1.103 
#    0.000    0.000    0.000    0.000    0.000    0.000 
#    0.000    1.103    5.241    0.414    0.000    0.000 
#
# Total GULP energy -322917.516405 kJ/mol
# GULP energy per Si atom -5567.543386 kJ/mol
# Density = 1.600494 g / cm^3
# Si number density = 16.041446 Si / 1000 Ang^3
#
#
#
# Elastic Constant Matrix: (Units=GPa)
#
#
# Indices 1 2 3 4 5 6 
#
# 1 75.0302 19.2277 24.2223 0.0000 0.0000 0.0000
# 2 19.2277 43.7551 52.0999 0.0000 0.0000 0.0000
# 3 24.2223 52.0999 105.0617 0.0000 0.0000 0.0000
# 4 0.0000 0.0000 0.0000 2.8040 0.0000 0.0000
# 5 0.0000 0.0000 0.0000 0.0000 11.8061 0.0000
# 6 0.0000 0.0000 0.0000 0.0000 0.0000 16.6426
#
#
#
# Elastic Compliance Matrix: (Units=1/GPa)
#
#
# Indices 1 2 3 4 5 6 
#
# 1 0.015029 -0.006052 -0.000464 0.000000 0.000000 0.000000
# 2 -0.006052 0.058245 -0.027488 0.000000 0.000000 0.000000
# 3 -0.000464 -0.027488 0.023256 0.000000 0.000000 0.000000
# 4 0.000000 0.000000 0.000000 0.356637 0.000000 0.000000
# 5 0.000000 0.000000 0.000000 0.000000 0.084702 0.000000
# 6 0.000000 0.000000 0.000000 0.000000 0.000000 0.060087
#
#
# Mechanical properties :
#
#
# Convention : Reuss Voigt Hill
#
# Bulk Modulus (GPa) = 35.06074 46.10522 40.58298
# Shear Modulus (GPa) = 7.40225 14.80368 11.10297
#
# Velocity S-wave (km/s) = 2.15046 3.04112 2.63371
# Velocity P-wave (km/s) = 5.29809 6.41365 5.88238
#
# Compressibility (1/GPa) = 0.02852193
#
# Stress axis : x y z
#
# Youngs Moduli (GPa) = 66.53982 17.16900 42.99888
#
# Poissons Ratio (x) = 0.10391 0.01994
# Poissons Ratio (y) = 0.40270 1.18196
# Poissons Ratio (z) = 0.03085 0.47194
#
# Static dielectric constant tensor:
#      x y z
#    x 1.569550 0.000000 0.000000 
#    y 0.000000 1.514790 0.000000 
#    z 0.000000 0.000000 1.581050 
# 
# From -- ./inp_files/48865.got.cif
#   From: 2010.05.17/outbox.cif.g08.bks.cpg/sg64_25_cif.got.tgz:48865.got - 2010.06.03 16:29:19.
