data_PCOD9477671
_publ_section_title
;
Structure prediction by ZEFSAII (Michael W. Deem and Ramdas Pophale) SiO2 
 PCOD9477671
Probable space group: C M C A
;
_chemical_formula_sum "Si O2"
_cell_formula_units_Z 96
_cell_length_a 24.167382
_cell_length_b 18.897237
_cell_length_c 8.392756
_cell_angle_alpha 90.000000
_cell_angle_beta 90.000000
_cell_angle_gamma 90.000000
_cell_volume 3832.944349
_symmetry_space_group_name_H-M "C M C A"
_symmetry_group_IT_number 64
_symmetry_cell_setting 'orthorhombic'
loop_
_space_group_symop_operation_xyz
x,y,z
-x,1/2-y,1/2+z
x,-y,-z
-x,1/2+y,1/2-z
-x,-y,-z
x,1/2+y,1/2-z
-x,y,z
x,1/2-y,1/2+z
1/2+x,1/2+y,z
1/2-x,-y,1/2+z
1/2+x,1/2-y,-z
1/2-x,y,1/2-z
1/2-x,1/2-y,-z
1/2+x,y,1/2-z
1/2-x,1/2+y,z
1/2+x,-y,1/2+z
loop_
_atom_site_type_symbol
_atom_site_label
_atom_site_fract_x
_atom_site_fract_y
_atom_site_fract_z
Si Si1 0.290620 0.185214 0.126496
Si Si2 0.151472 0.344717 0.179625
Si Si3 0.438652 0.277639 0.087692
Si Si4 0.439775 0.391747 0.524860
Si Si5 0.294603 0.922235 0.464025
Si Si6 0.890995 0.878977 0.831206
O O1 0.250000 0.227196 0.250000
O O2 0.341259 0.155710 0.228579
O O3 0.321263 0.204503 0.959544
O O4 0.247797 0.127897 0.057782
O O5 0.111012 0.299909 0.294562
O O6 0.193372 0.388447 0.290892
O O7 0.111651 0.401242 0.091670
O O8 0.500000 0.296368 0.151825
O O9 0.440207 0.194199 0.050965
O O10 0.427413 0.322135 0.926943
O O11 0.500000 0.413669 0.467220
O O12 0.426879 0.420200 0.701205
O O13 0.355827 0.921882 0.541588
O O14 0.272219 0.000000 0.500000
#
# Coordination Sequence:
#
# PCOD9477671 Si02
#       6
#    16  16  16  16  16  16
#     4   9  19  35  54  78 111 144 183 234 285 333
#     4  10  20  33  56  86 116 143 185 243 289 331
#     4  10  19  33  57  86 114 150 192 229 274 337
#     4  10  19  34  58  84 111 149 192 230 275 339
#     4  10  21  38  60  82 105 143 194 241 287 341
#     4   9  19  33  53  82 116 140 178 238 286 326
#
# _framework density 25.046019000000001
#
# number of rings (size 3 to 8) (size 9 to 14) (size 15 to 20)
#    0.000    2.333    0.000    2.500    0.000    6.667 
#    0.000    4.167    0.000  161.000    0.000    0.000 
#    0.000    0.000    0.000    0.000    0.000    0.000 
#
# Total GULP energy -267934.433779 kJ/mol
# GULP energy per Si atom -5581.967370 kJ/mol
# Density = 2.498901 g / cm^3
# Si number density = 25.046019 Si / 1000 Ang^3
#
#
#
# Elastic Constant Matrix: (Units=GPa)
#
#
# Indices 1 2 3 4 5 6 
#
# 1 151.4960 22.8276 50.8387 0.0000 0.0000 0.0000
# 2 22.8276 40.7517 26.1448 0.0000 0.0000 0.0000
# 3 50.8387 26.1448 143.3130 0.0000 0.0000 0.0000
# 4 0.0000 0.0000 0.0000 -3.4732 0.0000 0.0000
# 5 0.0000 0.0000 0.0000 0.0000 49.0267 0.0000
# 6 0.0000 0.0000 0.0000 0.0000 0.0000 17.4975
#
#
#
# Elastic Compliance Matrix: (Units=1/GPa)
#
#
# Indices 1 2 3 4 5 6 
#
# 1 0.007791 -0.002934 -0.002228 0.000000 0.000000 0.000000
# 2 -0.002934 0.028897 -0.004231 0.000000 0.000000 0.000000
# 3 -0.002228 -0.004231 0.008540 0.000000 0.000000 0.000000
# 4 0.000000 0.000000 0.000000 -0.287922 0.000000 0.000000
# 5 0.000000 0.000000 0.000000 0.000000 0.020397 0.000000
# 6 0.000000 0.000000 0.000000 0.000000 0.000000 0.057151
#
#
# Mechanical properties :
#
#
# Convention : Reuss Voigt Hill
#
# Bulk Modulus (GPa) = 37.82062 59.46477 48.64269
# Shear Modulus (GPa) = -36.35159 28.32686 -4.01237
#
# Velocity S-wave (km/s) = -3.81385 3.36667 -1.26707
# Velocity P-wave (km/s) = 2.06414 6.23750 4.16207
#
# Compressibility (1/GPa) = 0.02644061
#
# Stress axis : x y z
#
# Youngs Moduli (GPa) = 128.35670 34.60578 117.09558
#
# Poissons Ratio (x) = 0.10155 0.26093
# Poissons Ratio (y) = 0.37666 0.49540
# Poissons Ratio (z) = 0.28602 0.14641
#
# Static dielectric constant tensor:
#      x y z
#    x 2.029430 0.000000 0.000000 
#    y 0.000000 1.974330 0.000000 
#    z 0.000000 0.000000 2.088200 
# 
# From -- ./inp_files/9483.got.cif
#   From: 2010.05.17/outbox.cif.g08.bks.cpg/sg64_5_cif.got.tgz:9483.got - 2010.06.03 16:29:19.
