data_PCOD9477834
_publ_section_title
;
Structure prediction by ZEFSAII (Michael W. Deem and Ramdas Pophale) SiO2 
 PCOD9477834
Probable space group: C M C A
;
_chemical_formula_sum "Si O2"
_cell_formula_units_Z 120
_cell_length_a 16.791375
_cell_length_b 19.574588
_cell_length_c 18.641507
_cell_angle_alpha 90.000000
_cell_angle_beta 90.000000
_cell_angle_gamma 90.000000
_cell_volume 6127.169702
_symmetry_space_group_name_H-M "C M C A"
_symmetry_group_IT_number 64
_symmetry_cell_setting 'orthorhombic'
loop_
_space_group_symop_operation_xyz
x,y,z
-x,1/2-y,1/2+z
x,-y,-z
-x,1/2+y,1/2-z
-x,-y,-z
x,1/2+y,1/2-z
-x,y,z
x,1/2-y,1/2+z
1/2+x,1/2+y,z
1/2-x,-y,1/2+z
1/2+x,1/2-y,-z
1/2-x,y,1/2-z
1/2-x,1/2-y,-z
1/2+x,y,1/2-z
1/2-x,1/2+y,z
1/2+x,-y,1/2+z
loop_
_atom_site_type_symbol
_atom_site_label
_atom_site_fract_x
_atom_site_fract_y
_atom_site_fract_z
Si Si1 0.500000 0.129362 0.966751
Si Si2 0.344819 0.772280 0.761903
Si Si3 0.595452 0.577390 0.294620
Si Si4 0.861033 0.162140 0.647960
Si Si5 0.094143 0.061713 0.767352
Si Si6 0.151727 0.569086 0.047322
Si Si7 0.593412 0.671293 0.884914
Si Si8 0.735472 0.326687 0.025241
O O1 0.569213 0.147662 0.907517
O O2 0.570575 0.106169 0.022882
O O3 0.250000 0.771672 0.750000
O O4 0.376139 0.848704 0.769544
O O5 0.377296 0.730412 0.693594
O O6 0.371996 0.730585 0.832865
O O7 0.500000 0.578413 0.306981
O O8 0.612221 0.517924 0.237060
O O9 0.640032 0.556810 0.368323
O O10 0.857693 0.102399 0.706828
O O11 0.781215 0.164879 0.601135
O O12 0.104838 0.100639 0.841745
O O13 0.000000 0.070386 0.748641
O O14 0.157912 0.500000 0.000000
O O15 0.225135 0.618895 0.028359
O O16 0.500000 0.684117 0.895743
O O17 0.642539 0.666979 0.957840
O O18 0.750000 0.250000 0.000000
#
# Coordination Sequence:
#
# PCOD9477834 Si02
#       8
#     8  16  16  16  16  16  16  16
#     4  10  19  34  60  88 118 162 194 248 305 382
#     4  11  22  38  56  87 125 161 199 268 314 366
#     4  11  22  37  60  93 128 160 201 259 322 372
#     4  10  20  36  59  82 119 162 206 247 311 368
#     4   9  19  36  62  90 118 156 207 255 304 373
#     4  11  23  38  62  93 129 165 204 259 327 380
#     4  10  21  42  66  88 117 168 221 257 309 381
#     4  11  23  40  59  88 127 163 209 260 304 376
#
# _framework density 19.584897999999999
#
# number of rings (size 3 to 8) (size 9 to 14) (size 15 to 20)
#    0.000    1.600    2.667    3.000    3.733    0.000 
#    9.600    0.000    0.000    0.400    0.000    0.000 
#    0.000    0.000    0.000    0.000    0.000    0.000 
#
# Total GULP energy -334072.925128 kJ/mol
# GULP energy per Si atom -5567.882085 kJ/mol
# Density = 1.954032 g / cm^3
# Si number density = 19.584898 Si / 1000 Ang^3
#
#
#
# Elastic Constant Matrix: (Units=GPa)
#
#
# Indices 1 2 3 4 5 6 
#
# 1 101.9552 28.5621 22.6131 0.0000 0.0000 0.0000
# 2 28.5621 92.3229 18.0393 0.0000 0.0000 0.0000
# 3 22.6131 18.0393 22.1679 0.0000 0.0000 0.0000
# 4 0.0000 0.0000 0.0000 17.8835 0.0000 0.0000
# 5 0.0000 0.0000 0.0000 0.0000 32.1209 0.0000
# 6 0.0000 0.0000 0.0000 0.0000 0.0000 10.6489
#
#
#
# Elastic Compliance Matrix: (Units=1/GPa)
#
#
# Indices 1 2 3 4 5 6 
#
# 1 0.012894 -0.001687 -0.011779 0.000000 0.000000 0.000000
# 2 -0.001687 0.013100 -0.008939 0.000000 0.000000 0.000000
# 3 -0.011779 -0.008939 0.064401 0.000000 0.000000 0.000000
# 4 0.000000 0.000000 0.000000 0.055918 0.000000 0.000000
# 5 0.000000 0.000000 0.000000 0.000000 0.031132 0.000000
# 6 0.000000 0.000000 0.000000 0.000000 0.000000 0.093906
#
#
# Mechanical properties :
#
#
# Convention : Reuss Voigt Hill
#
# Bulk Modulus (GPa) = 21.93828 39.43058 30.68443
# Shear Modulus (GPa) = 15.08949 21.94609 18.51779
#
# Velocity S-wave (km/s) = 2.77874 3.35111 3.07826
# Velocity P-wave (km/s) = 4.63909 5.92875 5.32312
#
# Compressibility (1/GPa) = 0.04558242
#
# Stress axis : x y z
#
# Youngs Moduli (GPa) = 77.55834 76.33455 15.52781
#
# Poissons Ratio (x) = 0.12880 0.18291
# Poissons Ratio (y) = 0.13086 0.13881
# Poissons Ratio (z) = 0.91359 0.68238
#
# Static dielectric constant tensor:
#      x y z
#    x 1.717650 0.000000 0.000000 
#    y 0.000000 1.711490 0.000000 
#    z 0.000000 0.000000 1.655600 
# 
# From -- ./inp_files/33692.got.cif
#   From: 2010.05.17/outbox.cif.g08.bks.cpg/sg64_17_cif.got.tgz:33692.got - 2010.06.03 16:29:19.
