data_PCOD9477093
_publ_section_title
;
Structure prediction by ZEFSAII (Michael W. Deem and Ramdas Pophale) SiO2 
 PCOD9477093
Probable space group: C M C A
;
_chemical_formula_sum "Si O2"
_cell_formula_units_Z 96
_cell_length_a 19.438300
_cell_length_b 27.318121
_cell_length_c 7.674996
_cell_angle_alpha 90.000000
_cell_angle_beta 90.000000
_cell_angle_gamma 90.000000
_cell_volume 4075.559732
_symmetry_space_group_name_H-M "C M C A"
_symmetry_group_IT_number 64
_symmetry_cell_setting 'orthorhombic'
loop_
_space_group_symop_operation_xyz
x,y,z
-x,1/2-y,1/2+z
x,-y,-z
-x,1/2+y,1/2-z
-x,-y,-z
x,1/2+y,1/2-z
-x,y,z
x,1/2-y,1/2+z
1/2+x,1/2+y,z
1/2-x,-y,1/2+z
1/2+x,1/2-y,-z
1/2-x,y,1/2-z
1/2-x,1/2-y,-z
1/2+x,y,1/2-z
1/2-x,1/2+y,z
1/2+x,-y,1/2+z
loop_
_atom_site_type_symbol
_atom_site_label
_atom_site_fract_x
_atom_site_fract_y
_atom_site_fract_z
Si Si1 0.500000 0.722236 0.314191
Si Si2 0.136975 0.882776 0.337307
Si Si3 0.500000 0.672902 0.703960
Si Si4 0.264335 0.308208 0.506440
Si Si5 0.919832 0.425776 0.792939
Si Si6 0.868674 0.828297 0.830375
Si Si7 0.173326 0.989252 0.294490
O O1 0.500000 0.693353 0.500412
O O2 0.500000 0.780358 0.328471
O O3 0.430906 0.708695 0.207538
O O4 0.191709 0.839376 0.368193
O O5 0.113794 0.905057 0.527622
O O6 0.163870 0.932349 0.247379
O O7 0.067571 0.858903 0.267165
O O8 0.250000 0.250000 0.500000
O O9 0.186272 0.327577 0.515439
O O10 0.314426 0.317640 0.672794
O O11 0.905364 0.380380 0.668538
O O12 0.883224 0.473971 0.720191
O O13 0.000000 0.434254 0.823654
O O14 0.250000 0.005383 0.250000
O O15 0.165987 0.000000 0.500000
#
# Coordination Sequence:
#
# PCOD9477093 Si02
#       7
#     8  16   8  16  16  16  16
#     4  12  22  40  61  88 123 165 204 255 297 361
#     4  10  20  39  59  90 125 157 203 260 300 365
#     4  12  22  40  64  87 129 159 209 246 307 359
#     4  10  20  35  55  83 118 165 201 243 300 360
#     4  10  18  35  63  88 115 153 210 250 301 363
#     4  10  20  34  57  84 119 154 207 249 294 356
#     4  10  24  39  65  93 121 158 201 255 317 363
#
# _framework density 23.555045
#
# number of rings (size 3 to 8) (size 9 to 14) (size 15 to 20)
#    0.000    1.667    5.000    1.000    8.167    1.000 
#    6.000    0.000    0.000    0.500    2.167    0.000 
#    0.000    0.000    0.000    0.000    0.000    0.000 
#
# Total GULP energy -267961.316176 kJ/mol
# GULP energy per Si atom -5582.527420 kJ/mol
# Density = 2.350143 g / cm^3
# Si number density = 23.555045 Si / 1000 Ang^3
#
#
#
# Elastic Constant Matrix: (Units=GPa)
#
#
# Indices 1 2 3 4 5 6 
#
# 1 158.7246 43.0421 13.8392 0.0000 0.0000 0.0000
# 2 43.0421 143.9640 4.7560 0.0000 0.0000 0.0000
# 3 13.8392 4.7560 51.0052 0.0000 0.0000 0.0000
# 4 0.0000 0.0000 0.0000 11.6802 0.0000 0.0000
# 5 0.0000 0.0000 0.0000 0.0000 19.2657 0.0000
# 6 0.0000 0.0000 0.0000 0.0000 0.0000 26.6834
#
#
#
# Elastic Compliance Matrix: (Units=1/GPa)
#
#
# Indices 1 2 3 4 5 6 
#
# 1 0.007002 -0.002037 -0.001710 0.000000 0.000000 0.000000
# 2 -0.002037 0.007560 -0.000152 0.000000 0.000000 0.000000
# 3 -0.001710 -0.000152 0.020084 0.000000 0.000000 0.000000
# 4 0.000000 0.000000 0.000000 0.085615 0.000000 0.000000
# 5 0.000000 0.000000 0.000000 0.000000 0.051906 0.000000
# 6 0.000000 0.000000 0.000000 0.000000 0.000000 0.037476
#
#
# Mechanical properties :
#
#
# Convention : Reuss Voigt Hill
#
# Bulk Modulus (GPa) = 37.24691 52.99649 45.12170
# Shear Modulus (GPa) = 22.08574 30.99630 26.54102
#
# Velocity S-wave (km/s) = 3.06538 3.63148 3.36038
# Velocity P-wave (km/s) = 5.32690 6.33493 5.85266
#
# Compressibility (1/GPa) = 0.02684786
#
# Stress axis : x y z
#
# Youngs Moduli (GPa) = 142.82366 132.27190 49.79094
#
# Poissons Ratio (x) = 0.26942 0.08513
# Poissons Ratio (y) = 0.29091 0.00758
# Poissons Ratio (z) = 0.24420 0.02014
#
# Static dielectric constant tensor:
#      x y z
#    x 1.824140 0.000000 0.000000 
#    y 0.000000 1.915830 0.000000 
#    z 0.000000 0.000000 2.082560 
# 
# From -- ./inp_files/16376.got.cif
#   From: 2010.05.17/outbox.cif.g08.bks.cpg/sg64_9_cif.got.tgz:16376.got - 2010.06.03 16:29:19.
