data_PCOD9477813
_publ_section_title
;
Structure prediction by ZEFSAII (Michael W. Deem and Ramdas Pophale) SiO2 
 PCOD9477813
Probable space group: C M C A
;
_chemical_formula_sum "Si O2"
_cell_formula_units_Z 112
_cell_length_a 13.848255
_cell_length_b 21.630401
_cell_length_c 17.508206
_cell_angle_alpha 90.000000
_cell_angle_beta 90.000000
_cell_angle_gamma 90.000000
_cell_volume 5244.465956
_symmetry_space_group_name_H-M "C M C A"
_symmetry_group_IT_number 64
_symmetry_cell_setting 'orthorhombic'
loop_
_space_group_symop_operation_xyz
x,y,z
-x,1/2-y,1/2+z
x,-y,-z
-x,1/2+y,1/2-z
-x,-y,-z
x,1/2+y,1/2-z
-x,y,z
x,1/2-y,1/2+z
1/2+x,1/2+y,z
1/2-x,-y,1/2+z
1/2+x,1/2-y,-z
1/2-x,y,1/2-z
1/2-x,1/2-y,-z
1/2+x,y,1/2-z
1/2-x,1/2+y,z
1/2+x,-y,1/2+z
loop_
_atom_site_type_symbol
_atom_site_label
_atom_site_fract_x
_atom_site_fract_y
_atom_site_fract_z
Si Si1 0.845012 0.492958 0.295300
Si Si2 0.882680 0.188863 0.142276
Si Si3 0.609766 0.117424 0.210893
Si Si4 0.785418 0.297096 0.065512
Si Si5 0.816170 0.928438 0.949627
Si Si6 0.387185 0.107624 0.036248
Si Si7 0.605617 0.613323 0.900724
O O1 0.750000 0.473696 0.250000
O O2 0.887020 0.545604 0.238109
O O3 0.829464 0.531418 0.373655
O O4 0.892695 0.430338 0.325882
O O5 0.848106 0.158135 0.221391
O O6 0.834831 0.254924 0.129349
O O7 0.845355 0.140779 0.078272
O O8 0.000000 0.191172 0.137873
O O9 0.500000 0.137122 0.210134
O O10 0.638846 0.126437 0.123731
O O11 0.695927 0.339337 0.094615
O O12 0.750000 0.250000 0.000000
O O13 0.867152 0.338952 0.024801
O O14 0.705520 0.935734 0.977435
O O15 0.880290 0.932204 0.025867
O O16 0.500000 0.087288 0.034354
O O17 0.500000 0.643738 0.906534
#
# Coordination Sequence:
#
# PCOD9477813 Si02
#       7
#    16  16  16  16  16  16  16
#     4  11  21  37  62  90 130 168 198 260 320 383
#     4  10  19  35  61  92 124 162 208 263 321 375
#     4   9  19  35  61  94 122 156 207 261 317 374
#     4  11  22  39  59  86 123 169 207 261 317 375
#     4  10  20  36  61  94 125 163 210 259 321 376
#     4  10  19  34  58  91 122 157 210 258 307 374
#     4  11  24  40  63  96 126 163 215 265 321 382
#
# _framework density 21.355844000000001
#
# number of rings (size 3 to 8) (size 9 to 14) (size 15 to 20)
#    0.000    1.714    4.286    1.714    0.000    2.857 
#    0.000    1.429    0.000   18.000    0.000    1.000 
#    0.000    0.000    0.000    0.000    0.000    0.000 
#
# Total GULP energy -311751.840699 kJ/mol
# GULP energy per Si atom -5566.997155 kJ/mol
# Density = 2.130724 g / cm^3
# Si number density = 21.355844 Si / 1000 Ang^3
#
#
#
# Elastic Constant Matrix: (Units=GPa)
#
#
# Indices 1 2 3 4 5 6 
#
# 1 134.8699 38.5002 29.1714 0.0000 0.0000 0.0000
# 2 38.5002 89.0441 40.9229 0.0000 0.0000 0.0000
# 3 29.1714 40.9229 74.4573 0.0000 0.0000 0.0000
# 4 0.0000 0.0000 0.0000 -3.9156 0.0000 0.0000
# 5 0.0000 0.0000 0.0000 0.0000 23.9740 0.0000
# 6 0.0000 0.0000 0.0000 0.0000 0.0000 -13.5899
#
#
#
# Elastic Compliance Matrix: (Units=1/GPa)
#
#
# Indices 1 2 3 4 5 6 
#
# 1 0.008631 -0.002914 -0.001780 0.000000 0.000000 0.000000
# 2 -0.002914 0.016009 -0.007657 0.000000 0.000000 0.000000
# 3 -0.001780 -0.007657 0.018337 0.000000 0.000000 0.000000
# 4 0.000000 0.000000 0.000000 -0.255390 0.000000 0.000000
# 5 0.000000 0.000000 0.000000 0.000000 0.041712 0.000000
# 6 0.000000 0.000000 0.000000 0.000000 0.000000 -0.073584
#
#
# Mechanical properties :
#
#
# Convention : Reuss Voigt Hill
#
# Bulk Modulus (GPa) = 54.72093 57.28448 56.00271
# Shear Modulus (GPa) = -23.42028 13.94548 -4.73740
#
# Velocity S-wave (km/s) = -3.31519 2.55817 -1.49102
# Velocity P-wave (km/s) = 3.32040 5.96722 4.82870
#
# Compressibility (1/GPa) = 0.01827454
#
# Stress axis : x y z
#
# Youngs Moduli (GPa) = 115.85629 62.46302 54.53568
#
# Poissons Ratio (x) = 0.18201 0.09708
# Poissons Ratio (y) = 0.33759 0.41760
# Poissons Ratio (z) = 0.20624 0.47831
#
# Static dielectric constant tensor:
#      x y z
#    x 1.852800 0.000000 0.000000 
#    y 0.000000 1.887480 0.000000 
#    z 0.000000 0.000000 1.836530 
# 
# From -- ./inp_files/24238.got.cif
#   From: 2010.05.17/outbox.cif.g08.bks.cpg/sg64_13_cif.got.tgz:24238.got - 2010.06.03 16:29:19.
