data_PCOD9477708
_publ_section_title
;
Structure prediction by ZEFSAII (Michael W. Deem and Ramdas Pophale) SiO2 
 PCOD9477708
Probable space group: C M C A
;
_chemical_formula_sum "Si O2"
_cell_formula_units_Z 64
_cell_length_a 18.691493
_cell_length_b 9.479677
_cell_length_c 14.508215
_cell_angle_alpha 90.000000
_cell_angle_beta 90.000000
_cell_angle_gamma 90.000000
_cell_volume 2570.700696
_symmetry_space_group_name_H-M "C M C A"
_symmetry_group_IT_number 64
_symmetry_cell_setting 'orthorhombic'
loop_
_space_group_symop_operation_xyz
x,y,z
-x,1/2-y,1/2+z
x,-y,-z
-x,1/2+y,1/2-z
-x,-y,-z
x,1/2+y,1/2-z
-x,y,z
x,1/2-y,1/2+z
1/2+x,1/2+y,z
1/2-x,-y,1/2+z
1/2+x,1/2-y,-z
1/2-x,y,1/2-z
1/2-x,1/2-y,-z
1/2+x,y,1/2-z
1/2-x,1/2+y,z
1/2+x,-y,1/2+z
loop_
_atom_site_type_symbol
_atom_site_label
_atom_site_fract_x
_atom_site_fract_y
_atom_site_fract_z
Si Si1 0.419662 0.630071 0.573414
Si Si2 0.789324 0.053697 0.153716
Si Si3 0.083594 0.099946 0.278233
Si Si4 0.169089 0.760344 0.076085
O O1 0.422366 0.500000 0.500000
O O2 0.500000 0.690050 0.578131
O O3 0.403060 0.550040 0.668926
O O4 0.362758 0.729917 0.524206
O O5 0.750000 0.011423 0.250000
O O6 0.864448 0.113665 0.191652
O O7 0.733528 0.155725 0.103205
O O8 0.805288 0.916979 0.094032
O O9 0.106607 0.219625 0.351264
O O10 0.000000 0.107647 0.257690
#
# Coordination Sequence:
#
# PCOD9477708 Si02
#       4
#    16  16  16  16
#     4   8  15  31  54  79 105 138 184 231 273 324
#     4  10  20  34  51  77 112 144 179 223 274 330
#     4   9  18  33  54  81 109 139 182 233 280 326
#     4  10  19  34  53  78 112 145 181 224 273 330
#
# _framework density 24.895935999999999
#
# number of rings (size 3 to 8) (size 9 to 14) (size 15 to 20)
#    0.000    2.750    0.000    4.500    0.000    2.000 
#    0.000   22.500    0.000    1.500    0.000    0.000 
#    0.000  141.000    0.000    0.000    0.000    0.000 
#
# Total GULP energy -179310.670257 kJ/mol
# GULP energy per Si atom -5603.458446 kJ/mol
# Density = 2.483927 g / cm^3
# Si number density = 24.895936 Si / 1000 Ang^3
#
#
#
# Elastic Constant Matrix: (Units=GPa)
#
#
# Indices 1 2 3 4 5 6 
#
# 1 184.8275 25.5893 81.2488 0.0000 0.0000 0.0000
# 2 25.5893 60.3508 55.6380 0.0000 0.0000 0.0000
# 3 81.2488 55.6380 158.5413 0.0000 0.0000 0.0000
# 4 0.0000 0.0000 0.0000 42.7745 0.0000 0.0000
# 5 0.0000 0.0000 0.0000 0.0000 39.6979 0.0000
# 6 0.0000 0.0000 0.0000 0.0000 0.0000 22.3785
#
#
#
# Elastic Compliance Matrix: (Units=1/GPa)
#
#
# Indices 1 2 3 4 5 6 
#
# 1 0.006994 0.000501 -0.003760 0.000000 0.000000 0.000000
# 2 0.000501 0.024530 -0.008865 0.000000 0.000000 0.000000
# 3 -0.003760 -0.008865 0.011346 0.000000 0.000000 0.000000
# 4 0.000000 0.000000 0.000000 0.023378 0.000000 0.000000
# 5 0.000000 0.000000 0.000000 0.000000 0.025190 0.000000
# 6 0.000000 0.000000 0.000000 0.000000 0.000000 0.044686
#
#
# Mechanical properties :
#
#
# Convention : Reuss Voigt Hill
#
# Bulk Modulus (GPa) = 53.70253 80.96352 67.33303
# Shear Modulus (GPa) = 30.01551 37.05308 33.53429
#
# Velocity S-wave (km/s) = 3.47600 3.86206 3.67410
# Velocity P-wave (km/s) = 6.14229 7.24422 6.71589
#
# Compressibility (1/GPa) = 0.01862110
#
# Stress axis : x y z
#
# Youngs Moduli (GPa) = 142.97996 40.76564 88.13972
#
# Poissons Ratio (x) = -0.02042 0.33141
# Poissons Ratio (y) = -0.07162 0.78139
# Poissons Ratio (z) = 0.53761 0.36140
#
# Static dielectric constant tensor:
#      x y z
#    x 1.961730 0.000000 0.000000 
#    y 0.000000 1.973520 0.000000 
#    z 0.000000 0.000000 1.973690 
# 
# From -- ./inp_files/32771.got.cif
#   From: 2010.05.17/outbox.cif.g08.bks.cpg/sg64_17_cif.got.tgz:32771.got - 2010.06.03 16:29:19.
