data_PCOD9477088
_publ_section_title
;
Structure prediction by ZEFSAII (Michael W. Deem and Ramdas Pophale) SiO2 
 PCOD9477088
Probable space group: C M C A
;
_chemical_formula_sum "Si O2"
_cell_formula_units_Z 72
_cell_length_a 23.951150
_cell_length_b 30.253870
_cell_length_c 4.973576
_cell_angle_alpha 90.000000
_cell_angle_beta 90.000000
_cell_angle_gamma 90.000000
_cell_volume 3603.927666
_symmetry_space_group_name_H-M "C M C A"
_symmetry_group_IT_number 64
_symmetry_cell_setting 'orthorhombic'
loop_
_space_group_symop_operation_xyz
x,y,z
-x,1/2-y,1/2+z
x,-y,-z
-x,1/2+y,1/2-z
-x,-y,-z
x,1/2+y,1/2-z
-x,y,z
x,1/2-y,1/2+z
1/2+x,1/2+y,z
1/2-x,-y,1/2+z
1/2+x,1/2-y,-z
1/2-x,y,1/2-z
1/2-x,1/2-y,-z
1/2+x,y,1/2-z
1/2-x,1/2+y,z
1/2+x,-y,1/2+z
loop_
_atom_site_type_symbol
_atom_site_label
_atom_site_fract_x
_atom_site_fract_y
_atom_site_fract_z
Si Si1 0.786578 0.317560 0.513297
Si Si2 0.627831 0.122018 0.224795
Si Si3 0.435832 0.967688 0.748069
Si Si4 0.603477 0.175258 0.697047
Si Si5 0.500000 0.224724 0.948409
O O1 0.750000 0.295723 0.750000
O O2 0.812957 0.362285 0.647515
O O3 0.844196 0.295384 0.408520
O O4 0.750000 0.325105 0.250000
O O5 0.608346 0.071811 0.232197
O O6 0.586674 0.148021 0.431461
O O7 0.625168 0.141325 0.925098
O O8 0.500000 0.950055 0.730621
O O9 0.425825 0.000000 0.500000
O O10 0.432983 0.000000 0.000000
O O11 0.554767 0.200920 0.840243
O O12 0.500000 0.269165 0.766727
#
# Coordination Sequence:
#
# PCOD9477088 Si02
#       5
#    16  16  16  16   8
#     4  10  18  35  61  90 111 145 203 258 283 325
#     4  10  20  34  59  87 112 149 204 246 278 353
#     4  10  21  34  51  81 121 159 191 242 300 341
#     4  10  22  36  61  91 110 159 193 234 288 348
#     4  12  26  42  62  90 132 154 180 232 296 366
#
# _framework density 19.978203000000001
#
# number of rings (size 3 to 8) (size 9 to 14) (size 15 to 20)
#    1.333    0.444    2.222    2.667    3.111    0.000 
#    0.000    0.000    0.000    6.667    0.000    0.000 
#    0.000    0.000    0.000    0.000    0.000    0.000 
#
# Total GULP energy -200439.249260 kJ/mol
# GULP energy per Si atom -5567.756924 kJ/mol
# Density = 1.993273 g / cm^3
# Si number density = 19.978203 Si / 1000 Ang^3
#
#
#
# Elastic Constant Matrix: (Units=GPa)
#
#
# Indices 1 2 3 4 5 6 
#
# 1 74.4779 9.7604 2.6205 0.0000 0.0000 0.0000
# 2 9.7604 14.7734 4.7829 0.0000 0.0000 0.0000
# 3 2.6205 4.7829 118.3577 0.0000 0.0000 0.0000
# 4 0.0000 0.0000 0.0000 9.0005 0.0000 0.0000
# 5 0.0000 0.0000 0.0000 0.0000 33.8652 0.0000
# 6 0.0000 0.0000 0.0000 0.0000 0.0000 -65.9178
#
#
#
# Elastic Compliance Matrix: (Units=1/GPa)
#
#
# Indices 1 2 3 4 5 6 
#
# 1 0.014700 -0.009734 0.000068 0.000000 0.000000 0.000000
# 2 -0.009734 0.075032 -0.002817 0.000000 0.000000 0.000000
# 3 0.000068 -0.002817 0.008561 0.000000 0.000000 0.000000
# 4 0.000000 0.000000 0.000000 0.111105 0.000000 0.000000
# 5 0.000000 0.000000 0.000000 0.000000 0.029529 0.000000
# 6 0.000000 0.000000 0.000000 0.000000 0.000000 -0.015170
#
#
# Mechanical properties :
#
#
# Convention : Reuss Voigt Hill
#
# Bulk Modulus (GPa) = 13.63730 26.88185 20.25958
# Shear Modulus (GPa) = 18.30396 8.08593 13.19495
#
# Velocity S-wave (km/s) = 3.03016 2.01399 2.57274
# Velocity P-wave (km/s) = 4.36845 4.34661 4.35755
#
# Compressibility (1/GPa) = 0.07332830
#
# Stress axis : x y z
#
# Youngs Moduli (GPa) = 68.02693 13.32759 116.80499
#
# Poissons Ratio (x) = 0.12973 -0.00793
# Poissons Ratio (y) = 0.66217 0.32899
# Poissons Ratio (z) = -0.00462 0.03754
#
# Static dielectric constant tensor:
#      x y z
#    x 1.792240 0.000000 0.000000 
#    y 0.000000 1.702230 0.000000 
#    z 0.000000 0.000000 1.700040 
# 
# From -- ./inp_files/2320.got.cif
#   From: 2010.05.17/outbox.cif.g08.bks.cpg/sg64_2_cif.got.tgz:2320.got - 2010.06.03 16:29:19.
