data_PCOD9477453
_publ_section_title
;
Structure prediction by ZEFSAII (Michael W. Deem and Ramdas Pophale) SiO2 
 PCOD9477453
Probable space group: C M C A
;
_chemical_formula_sum "Si O2"
_cell_formula_units_Z 80
_cell_length_a 11.704016
_cell_length_b 13.357256
_cell_length_c 25.549970
_cell_angle_alpha 90.000000
_cell_angle_beta 90.000000
_cell_angle_gamma 90.000000
_cell_volume 3994.317204
_symmetry_space_group_name_H-M "C M C A"
_symmetry_group_IT_number 64
_symmetry_cell_setting 'orthorhombic'
loop_
_space_group_symop_operation_xyz
x,y,z
-x,1/2-y,1/2+z
x,-y,-z
-x,1/2+y,1/2-z
-x,-y,-z
x,1/2+y,1/2-z
-x,y,z
x,1/2-y,1/2+z
1/2+x,1/2+y,z
1/2-x,-y,1/2+z
1/2+x,1/2-y,-z
1/2-x,y,1/2-z
1/2-x,1/2-y,-z
1/2+x,y,1/2-z
1/2-x,1/2+y,z
1/2+x,-y,1/2+z
loop_
_atom_site_type_symbol
_atom_site_label
_atom_site_fract_x
_atom_site_fract_y
_atom_site_fract_z
Si Si1 0.624760 0.362077 0.467587
Si Si2 0.271524 0.332950 0.932629
Si Si3 0.369590 0.203227 0.648035
Si Si4 0.128673 0.609075 0.220548
Si Si5 0.781144 0.516499 0.871114
O O1 0.500000 0.381222 0.489748
O O2 0.632845 0.248299 0.445958
O O3 0.718430 0.370184 0.512915
O O4 0.651210 0.434889 0.419500
O O5 0.177659 0.266844 0.901232
O O6 0.295882 0.427244 0.895681
O O7 0.500000 0.174830 0.638789
O O8 0.364650 0.278661 0.696981
O O9 0.292961 0.105162 0.653630
O O10 0.250000 0.592425 0.250000
O O11 0.137197 0.533884 0.171349
O O12 0.000000 0.597579 0.244889
#
# Coordination Sequence:
#
# PCOD9477453 Si02
#       5
#    16  16  16  16  16
#     4  10  19  32  52  78 110 148 185 220 261 317
#     4   9  19  33  50  78 113 146 182 221 266 320
#     4   9  19  36  56  79 110 145 181 226 279 333
#     4  10  22  41  61  82 110 144 183 231 288 344
#     4  10  20  35  56  83 110 140 182 229 274 325
#
# _framework density 20.028455000000001
#
# number of rings (size 3 to 8) (size 9 to 14) (size 15 to 20)
#    0.000    2.400    0.000    1.800    0.000    5.600 
#    0.000   11.000    0.000    7.200    0.000    0.000 
#    0.000    0.000    0.000    0.000    0.000    0.000 
#
# Total GULP energy -222961.768207 kJ/mol
# GULP energy per Si atom -5574.044205 kJ/mol
# Density = 1.998287 g / cm^3
# Si number density = 20.028455 Si / 1000 Ang^3
#
#
#
# Elastic Constant Matrix: (Units=GPa)
#
#
# Indices 1 2 3 4 5 6 
#
# 1 92.5929 30.1637 26.3951 0.0000 0.0000 0.0000
# 2 30.1637 110.7055 12.7322 0.0000 0.0000 0.0000
# 3 26.3951 12.7322 39.4984 0.0000 0.0000 0.0000
# 4 0.0000 0.0000 0.0000 16.0960 0.0000 0.0000
# 5 0.0000 0.0000 0.0000 0.0000 13.4892 0.0000
# 6 0.0000 0.0000 0.0000 0.0000 0.0000 2.4770
#
#
#
# Elastic Compliance Matrix: (Units=1/GPa)
#
#
# Indices 1 2 3 4 5 6 
#
# 1 0.014173 -0.002879 -0.008543 0.000000 0.000000 0.000000
# 2 -0.002879 0.009966 -0.001288 0.000000 0.000000 0.000000
# 3 -0.008543 -0.001288 0.031442 0.000000 0.000000 0.000000
# 4 0.000000 0.000000 0.000000 0.062127 0.000000 0.000000
# 5 0.000000 0.000000 0.000000 0.000000 0.074133 0.000000
# 6 0.000000 0.000000 0.000000 0.000000 0.000000 0.403718
#
#
# Mechanical properties :
#
#
# Convention : Reuss Voigt Hill
#
# Bulk Modulus (GPa) = 33.15746 42.37542 37.76644
# Shear Modulus (GPa) = 7.92350 17.97948 12.95149
#
# Velocity S-wave (km/s) = 1.99116 2.99941 2.54570
# Velocity P-wave (km/s) = 4.67733 5.76184 5.24768
#
# Compressibility (1/GPa) = 0.03015912
#
# Stress axis : x y z
#
# Youngs Moduli (GPa) = 70.55504 100.34479 31.80465
#
# Poissons Ratio (x) = 0.28891 0.27172
# Poissons Ratio (y) = 0.20314 0.04098
# Poissons Ratio (z) = 0.60278 0.12928
#
# Static dielectric constant tensor:
#      x y z
#    x 1.705500 0.000000 0.000000 
#    y 0.000000 1.725720 0.000000 
#    z 0.000000 0.000000 1.713990 
# 
# From -- ./inp_files/49161.got.cif
#   From: 2010.05.17/outbox.cif.g08.bks.cpg/sg64_25_cif.got.tgz:49161.got - 2010.06.03 16:29:19.
