data_PCOD9477129
_publ_section_title
;
Structure prediction by ZEFSAII (Michael W. Deem and Ramdas Pophale) SiO2 
 PCOD9477129
Probable space group: C M C A
;
_chemical_formula_sum "Si O2"
_cell_formula_units_Z 96
_cell_length_a 10.866838
_cell_length_b 19.636078
_cell_length_c 25.629932
_cell_angle_alpha 90.000000
_cell_angle_beta 90.000000
_cell_angle_gamma 90.000000
_cell_volume 5468.968164
_symmetry_space_group_name_H-M "C M C A"
_symmetry_group_IT_number 64
_symmetry_cell_setting 'orthorhombic'
loop_
_space_group_symop_operation_xyz
x,y,z
-x,1/2-y,1/2+z
x,-y,-z
-x,1/2+y,1/2-z
-x,-y,-z
x,1/2+y,1/2-z
-x,y,z
x,1/2-y,1/2+z
1/2+x,1/2+y,z
1/2-x,-y,1/2+z
1/2+x,1/2-y,-z
1/2-x,y,1/2-z
1/2-x,1/2-y,-z
1/2+x,y,1/2-z
1/2-x,1/2+y,z
1/2+x,-y,1/2+z
loop_
_atom_site_type_symbol
_atom_site_label
_atom_site_fract_x
_atom_site_fract_y
_atom_site_fract_z
Si Si1 0.642837 0.153381 0.976782
Si Si2 0.500000 0.044261 0.299435
Si Si3 0.264760 0.407767 0.864271
Si Si4 0.750156 0.276407 0.921581
Si Si5 0.201881 0.526690 0.555437
Si Si6 0.000000 0.241844 0.861758
Si Si7 0.000000 0.914962 0.134484
Si Si8 0.500000 0.383516 0.687522
O O1 0.500000 0.150626 0.990747
O O2 0.667685 0.210917 0.933040
O O3 0.691791 0.080013 0.959401
O O4 0.720805 0.182300 0.025364
O O5 0.626951 0.068722 0.326151
O O6 0.500000 0.076617 0.242138
O O7 0.500000 0.964167 0.315041
O O8 0.303369 0.332877 0.883351
O O9 0.258731 0.460279 0.912359
O O10 0.127810 0.403908 0.840580
O O11 0.879922 0.253571 0.897295
O O12 0.148255 0.500000 0.500000
O O13 0.112531 0.566700 0.595369
O O14 0.000000 0.162722 0.847076
O O15 0.000000 0.300265 0.816883
#
# Coordination Sequence:
#
# PCOD9477129 Si02
#       8
#    16   8  16  16  16   8   8   8
#     4  11  22  32  52  78 121 161 190 226 274 324
#     4  10  22  41  64  85 109 142 194 255 296 347
#     4  10  22  37  62  86 110 153 191 239 293 345
#     4  10  20  36  51  82 114 151 191 228 273 339
#     4  11  21  35  54  84 122 155 193 227 274 342
#     4  10  18  37  61  79 110 145 189 229 290 348
#     4  10  21  38  58  85 116 150 190 234 292 343
#     4  10  22  40  66  84 108 144 195 245 307 347
#
# _framework density 17.553585000000002
#
# number of rings (size 3 to 8) (size 9 to 14) (size 15 to 20)
#    0.000    1.667    4.167    0.750    2.333    0.333 
#    0.000    0.000    3.667    4.000    0.000    0.000 
#    0.000    0.000    0.000    0.000    0.000    0.000 
#
# Total GULP energy -267398.045035 kJ/mol
# GULP energy per Si atom -5570.792605 kJ/mol
# Density = 1.751363 g / cm^3
# Si number density = 17.553585 Si / 1000 Ang^3
#
#
#
# Elastic Constant Matrix: (Units=GPa)
#
#
# Indices 1 2 3 4 5 6 
#
# 1 53.0418 20.3625 11.2267 0.0000 0.0000 0.0000
# 2 20.3625 121.8234 46.2911 0.0000 0.0000 0.0000
# 3 11.2267 46.2911 85.7459 0.0000 0.0000 0.0000
# 4 0.0000 0.0000 0.0000 22.6505 0.0000 0.0000
# 5 0.0000 0.0000 0.0000 0.0000 12.8951 0.0000
# 6 0.0000 0.0000 0.0000 0.0000 0.0000 25.1848
#
#
#
# Elastic Compliance Matrix: (Units=1/GPa)
#
#
# Indices 1 2 3 4 5 6 
#
# 1 0.020219 -0.002986 -0.001035 0.000000 0.000000 0.000000
# 2 -0.002986 0.010768 -0.005422 0.000000 0.000000 0.000000
# 3 -0.001035 -0.005422 0.014725 0.000000 0.000000 0.000000
# 4 0.000000 0.000000 0.000000 0.044149 0.000000 0.000000
# 5 0.000000 0.000000 0.000000 0.000000 0.077549 0.000000
# 6 0.000000 0.000000 0.000000 0.000000 0.000000 0.039707
#
#
# Mechanical properties :
#
#
# Convention : Reuss Voigt Hill
#
# Bulk Modulus (GPa) = 37.27910 46.26352 41.77131
# Shear Modulus (GPa) = 21.28157 24.32812 22.80484
#
# Velocity S-wave (km/s) = 3.48570 3.72685 3.60829
# Velocity P-wave (km/s) = 6.12238 6.70314 6.41933
#
# Compressibility (1/GPa) = 0.02682468
#
# Stress axis : x y z
#
# Youngs Moduli (GPa) = 49.45959 92.86645 67.91067
#
# Poissons Ratio (x) = 0.27731 0.07029
# Poissons Ratio (y) = 0.14769 0.36824
# Poissons Ratio (z) = 0.05120 0.50356
#
# Static dielectric constant tensor:
#      x y z
#    x 1.585160 0.000000 0.000000 
#    y 0.000000 1.603100 0.000000 
#    z 0.000000 0.000000 1.601480 
# 
# From -- ./inp_files/44268.got.cif
#   From: 2010.05.17/outbox.cif.g08.bks.cpg/sg64_23_cif.got.tgz:44268.got - 2010.06.03 16:29:19.
