data_PCOD9477426
_publ_section_title
;
Structure prediction by ZEFSAII (Michael W. Deem and Ramdas Pophale) SiO2 
 PCOD9477426
Probable space group: C M C A
;
_chemical_formula_sum "Si O2"
_cell_formula_units_Z 128
_cell_length_a 7.413239
_cell_length_b 25.931515
_cell_length_c 29.629998
_cell_angle_alpha 90.000000
_cell_angle_beta 90.000000
_cell_angle_gamma 90.000000
_cell_volume 5695.967654
_symmetry_space_group_name_H-M "C M C A"
_symmetry_group_IT_number 64
_symmetry_cell_setting 'orthorhombic'
loop_
_space_group_symop_operation_xyz
x,y,z
-x,1/2-y,1/2+z
x,-y,-z
-x,1/2+y,1/2-z
-x,-y,-z
x,1/2+y,1/2-z
-x,y,z
x,1/2-y,1/2+z
1/2+x,1/2+y,z
1/2-x,-y,1/2+z
1/2+x,1/2-y,-z
1/2-x,y,1/2-z
1/2-x,1/2-y,-z
1/2+x,y,1/2-z
1/2-x,1/2+y,z
1/2+x,-y,1/2+z
loop_
_atom_site_type_symbol
_atom_site_label
_atom_site_fract_x
_atom_site_fract_y
_atom_site_fract_z
Si Si1 0.290079 0.929678 0.620297
Si Si2 0.284185 0.997460 0.300488
Si Si3 0.285364 0.757834 0.447710
Si Si4 0.715110 0.721316 0.802830
Si Si5 0.719909 0.109567 0.663557
Si Si6 0.220036 0.943605 0.981643
Si Si7 0.218521 0.812243 0.631703
Si Si8 0.780084 0.126673 0.936087
O O1 0.500000 0.944390 0.615606
O O2 0.214946 0.934458 0.569444
O O3 0.280926 0.870588 0.636119
O O4 0.213346 0.966539 0.659193
O O5 0.500000 0.995814 0.305164
O O6 0.250000 0.016613 0.250000
O O7 0.217745 0.938817 0.307056
O O8 0.500000 0.759327 0.440750
O O9 0.250000 0.750000 0.500000
O O10 0.219340 0.711896 0.416051
O O11 0.217532 0.814236 0.434163
O O12 0.500000 0.720097 0.810276
O O13 0.750000 0.726844 0.750000
O O14 0.783549 0.665675 0.819936
O O15 0.780133 0.770736 0.831021
O O16 0.500000 0.110946 0.665362
O O17 0.770008 0.100687 0.611239
O O18 0.000000 0.941014 0.981149
O O19 0.281057 0.901867 0.018682
O O20 0.269010 0.000000 0.000000
O O21 0.000000 0.814346 0.632681
O O22 0.000000 0.126945 0.937474
#
# Coordination Sequence:
#
# PCOD9477426 Si02
#       8
#    16  16  16  16  16  16  16  16
#     4  10  21  36  54  80 110 139 178 227 269 312
#     4  10  21  36  56  80 106 136 175 224 277 328
#     4  10  19  32  51  76 105 140 178 215 260 314
#     4  10  20  35  55  79 106 139 181 225 271 323
#     4   9  16  31  54  79 107 137 172 220 272 323
#     4   9  16  27  47  78 109 135 170 216 265 311
#     4  10  21  37  54  75 107 146 183 217 264 326
#     4   9  15  26  48  74 102 136 170 208 258 313
#
# _framework density 22.472037
#
# number of rings (size 3 to 8) (size 9 to 14) (size 15 to 20)
#    0.000    2.375    1.250    1.875    0.000    6.000 
#    0.000    2.500    0.000    1.125    0.000    0.000 
#    0.000    0.000    0.000    0.000    0.000    0.000 
#
# Total GULP energy -357577.908883 kJ/mol
# GULP energy per Si atom -5587.154826 kJ/mol
# Density = 2.242089 g / cm^3
# Si number density = 22.472037 Si / 1000 Ang^3
#
#
#
# Elastic Constant Matrix: (Units=GPa)
#
#
# Indices 1 2 3 4 5 6 
#
# 1 71.3051 -6.9352 -7.1708 0.0000 0.0000 0.0000
# 2 -6.9352 112.4733 54.6444 0.0000 0.0000 0.0000
# 3 -7.1708 54.6444 158.9558 0.0000 0.0000 0.0000
# 4 0.0000 0.0000 0.0000 37.8910 0.0000 0.0000
# 5 0.0000 0.0000 0.0000 0.0000 13.3423 0.0000
# 6 0.0000 0.0000 0.0000 0.0000 0.0000 6.7273
#
#
#
# Elastic Compliance Matrix: (Units=1/GPa)
#
#
# Indices 1 2 3 4 5 6 
#
# 1 0.014131 0.000674 0.000406 0.000000 0.000000 0.000000
# 2 0.000674 0.010706 -0.003650 0.000000 0.000000 0.000000
# 3 0.000406 -0.003650 0.007564 0.000000 0.000000 0.000000
# 4 0.000000 0.000000 0.000000 0.026391 0.000000 0.000000
# 5 0.000000 0.000000 0.000000 0.000000 0.074950 0.000000
# 6 0.000000 0.000000 0.000000 0.000000 0.000000 0.148647
#
#
# Mechanical properties :
#
#
# Convention : Reuss Voigt Hill
#
# Bulk Modulus (GPa) = 36.68315 47.09012 41.88663
# Shear Modulus (GPa) = 16.85681 31.73852 24.29766
#
# Velocity S-wave (km/s) = 2.74181 3.76221 3.29179
# Velocity P-wave (km/s) = 5.13641 6.31449 5.75567
#
# Compressibility (1/GPa) = 0.02726047
#
# Stress axis : x y z
#
# Youngs Moduli (GPa) = 70.76833 93.40668 132.20336
#
# Poissons Ratio (x) = -0.06298 -0.05363
# Poissons Ratio (y) = -0.04771 0.48254
# Poissons Ratio (z) = -0.02871 0.34093
#
# Static dielectric constant tensor:
#      x y z
#    x 1.907540 0.000000 0.000000 
#    y 0.000000 1.802340 0.000000 
#    z 0.000000 0.000000 1.806060 
# 
# From -- ./inp_files/44591.got.cif
#   From: 2010.05.17/outbox.cif.g08.bks.cpg/sg64_23_cif.got.tgz:44591.got - 2010.06.03 16:29:19.
