data_PCOD9477266
_publ_section_title
;
Structure prediction by ZEFSAII (Michael W. Deem and Ramdas Pophale) SiO2 
 PCOD9477266
Probable space group: C M C A
;
_chemical_formula_sum "Si O2"
_cell_formula_units_Z 128
_cell_length_a 18.986769
_cell_length_b 15.676976
_cell_length_c 22.900585
_cell_angle_alpha 90.000000
_cell_angle_beta 90.000000
_cell_angle_gamma 90.000000
_cell_volume 6816.476420
_symmetry_space_group_name_H-M "C M C A"
_symmetry_group_IT_number 64
_symmetry_cell_setting 'orthorhombic'
loop_
_space_group_symop_operation_xyz
x,y,z
-x,1/2-y,1/2+z
x,-y,-z
-x,1/2+y,1/2-z
-x,-y,-z
x,1/2+y,1/2-z
-x,y,z
x,1/2-y,1/2+z
1/2+x,1/2+y,z
1/2-x,-y,1/2+z
1/2+x,1/2-y,-z
1/2-x,y,1/2-z
1/2-x,1/2-y,-z
1/2+x,y,1/2-z
1/2-x,1/2+y,z
1/2+x,-y,1/2+z
loop_
_atom_site_type_symbol
_atom_site_label
_atom_site_fract_x
_atom_site_fract_y
_atom_site_fract_z
Si Si1 0.811979 0.357221 0.205310
Si Si2 0.580102 0.724706 0.050300
Si Si3 0.772203 0.064832 0.904076
Si Si4 0.289788 0.616921 0.375302
Si Si5 0.197981 0.669268 0.998293
Si Si6 0.647746 0.818591 0.667983
Si Si7 0.665284 0.043078 0.237778
Si Si8 0.419296 0.078280 0.545307
O O1 0.750000 0.333403 0.250000
O O2 0.770418 0.385030 0.146269
O O3 0.861169 0.275442 0.195370
O O4 0.850496 0.442794 0.229910
O O5 0.500000 0.751196 0.056694
O O6 0.631292 0.803661 0.039551
O O7 0.604760 0.675663 0.108251
O O8 0.586644 0.662614 0.994633
O O9 0.856076 0.078354 0.908131
O O10 0.755094 0.966937 0.891913
O O11 0.740037 0.095013 0.965641
O O12 0.322004 0.649245 0.435343
O O13 0.230761 0.679719 0.349619
O O14 0.342785 0.590076 0.324366
O O15 0.250000 0.750000 0.000000
O O16 0.633971 0.897395 0.711580
O O17 0.750000 0.043272 0.250000
O O18 0.500000 0.072252 0.567663
O O19 0.408605 0.000000 0.500000
#
# Coordination Sequence:
#
# PCOD9477266 Si02
#       8
#    16  16  16  16  16  16  16  16
#     4  10  19  31  52  84 112 140 182 238 287 326
#     4  11  23  36  54  80 112 151 191 233 287 350
#     4  11  19  32  53  82 112 146 193 238 280 345
#     4  10  19  30  52  84 113 140 180 237 285 327
#     4  12  19  32  53  82 110 141 190 230 286 337
#     4  11  18  35  55  76 115 147 182 233 287 340
#     4   8  18  31  49  81 113 139 175 230 284 334
#     4  10  20  33  49  76 115 152 181 223 284 342
#
# _framework density 18.778030000000001
#
# number of rings (size 3 to 8) (size 9 to 14) (size 15 to 20)
#    0.000    1.625    3.750    3.750    0.000    0.000 
#    0.000    0.000    0.000    3.750    0.000    0.000 
#    0.000    1.000    0.000    0.000    0.000    0.000 
#
# Total GULP energy -357040.686801 kJ/mol
# GULP energy per Si atom -5578.760731 kJ/mol
# Density = 1.873529 g / cm^3
# Si number density = 18.778030 Si / 1000 Ang^3
#
#
#
# Elastic Constant Matrix: (Units=GPa)
#
#
# Indices 1 2 3 4 5 6 
#
# 1 60.1360 19.7117 7.6450 0.0000 0.0000 0.0000
# 2 19.7117 82.3240 23.0297 0.0000 0.0000 0.0000
# 3 7.6450 23.0297 83.9062 0.0000 0.0000 0.0000
# 4 0.0000 0.0000 0.0000 27.7022 0.0000 0.0000
# 5 0.0000 0.0000 0.0000 0.0000 6.8540 0.0000
# 6 0.0000 0.0000 0.0000 0.0000 0.0000 10.4638
#
#
#
# Elastic Compliance Matrix: (Units=1/GPa)
#
#
# Indices 1 2 3 4 5 6 
#
# 1 0.018064 -0.004186 -0.000497 0.000000 0.000000 0.000000
# 2 -0.004186 0.014128 -0.003496 0.000000 0.000000 0.000000
# 3 -0.000497 -0.003496 0.012923 0.000000 0.000000 0.000000
# 4 0.000000 0.000000 0.000000 0.036098 0.000000 0.000000
# 5 0.000000 0.000000 0.000000 0.000000 0.145900 0.000000
# 6 0.000000 0.000000 0.000000 0.000000 0.000000 0.095567
#
#
# Mechanical properties :
#
#
# Convention : Reuss Voigt Hill
#
# Bulk Modulus (GPa) = 34.77526 36.34879 35.56203
# Shear Modulus (GPa) = 14.34206 20.73599 17.53903
#
# Velocity S-wave (km/s) = 2.76663 3.32666 3.05949
# Velocity P-wave (km/s) = 5.36330 5.84420 5.60891
#
# Compressibility (1/GPa) = 0.02875608
#
# Stress axis : x y z
#
# Youngs Moduli (GPa) = 55.35756 70.78378 77.38187
#
# Poissons Ratio (x) = 0.29633 0.03845
# Poissons Ratio (y) = 0.23175 0.27054
# Poissons Ratio (z) = 0.02751 0.24747
#
# Static dielectric constant tensor:
#      x y z
#    x 1.617570 0.000000 0.000000 
#    y 0.000000 1.693540 0.000000 
#    z 0.000000 0.000000 1.704710 
# 
# From -- ./inp_files/41143.got.cif
#   From: 2010.05.17/outbox.cif.g08.bks.cpg/sg64_21_cif.got.tgz:41143.got - 2010.06.03 16:29:19.
