data_PCOD9477447
_publ_section_title
;
Structure prediction by ZEFSAII (Michael W. Deem and Ramdas Pophale) SiO2 
 PCOD9477447
Probable space group: C M C A
;
_chemical_formula_sum "Si O2"
_cell_formula_units_Z 96
_cell_length_a 7.652618
_cell_length_b 31.019256
_cell_length_c 19.964420
_cell_angle_alpha 90.000000
_cell_angle_beta 90.000000
_cell_angle_gamma 90.000000
_cell_volume 4739.124409
_symmetry_space_group_name_H-M "C M C A"
_symmetry_group_IT_number 64
_symmetry_cell_setting 'orthorhombic'
loop_
_space_group_symop_operation_xyz
x,y,z
-x,1/2-y,1/2+z
x,-y,-z
-x,1/2+y,1/2-z
-x,-y,-z
x,1/2+y,1/2-z
-x,y,z
x,1/2-y,1/2+z
1/2+x,1/2+y,z
1/2-x,-y,1/2+z
1/2+x,1/2-y,-z
1/2-x,y,1/2-z
1/2-x,1/2-y,-z
1/2+x,y,1/2-z
1/2-x,1/2+y,z
1/2+x,-y,1/2+z
loop_
_atom_site_type_symbol
_atom_site_label
_atom_site_fract_x
_atom_site_fract_y
_atom_site_fract_z
Si Si1 0.286716 0.480094 0.428399
Si Si2 0.206645 0.134306 0.413558
Si Si3 0.709983 0.813228 0.173536
Si Si4 0.789910 0.946543 0.671761
Si Si5 0.207731 0.715716 0.326505
Si Si6 0.714439 0.618515 0.563836
O O1 0.233548 0.500000 0.500000
O O2 0.500000 0.479945 0.428429
O O3 0.227704 0.511495 0.368926
O O4 0.231134 0.430605 0.422105
O O5 0.277654 0.096336 0.365854
O O6 0.228842 0.180175 0.378360
O O7 0.274301 0.131462 0.489262
O O8 0.000000 0.126189 0.419377
O O9 0.500000 0.811442 0.167302
O O10 0.750000 0.825633 0.250000
O O11 0.777320 0.764322 0.162910
O O12 0.774724 0.847586 0.119586
O O13 0.750000 0.946870 0.750000
O O14 0.000000 0.946294 0.666340
O O15 0.250000 0.702940 0.250000
O O16 0.000000 0.717336 0.332508
O O17 0.500000 0.619095 0.564772
#
# Coordination Sequence:
#
# PCOD9477447 Si02
#       6
#    16  16  16  16  16  16
#     4   9  15  29  52  75  98 129 170 207 240 290
#     4  10  19  32  52  77 103 133 169 208 252 302
#     4   9  19  35  53  74 101 133 170 213 255 299
#     4  10  20  32  50  77 104 131 166 208 250 295
#     4  10  20  34  51  72 101 136 171 208 254 302
#     4   9  17  31  53  77 101 132 170 210 252 301
#
# _framework density 20.256906000000001
#
# number of rings (size 3 to 8) (size 9 to 14) (size 15 to 20)
#    0.000    2.500    1.667    1.000    0.000    4.000 
#    0.000    0.833    0.000    1.500    0.000    0.000 
#    0.000    0.000    0.000    0.000    0.000    0.000 
#
# Total GULP energy -267949.937447 kJ/mol
# GULP energy per Si atom -5582.290363 kJ/mol
# Density = 2.021080 g / cm^3
# Si number density = 20.256906 Si / 1000 Ang^3
#
#
#
# Elastic Constant Matrix: (Units=GPa)
#
#
# Indices 1 2 3 4 5 6 
#
# 1 34.1448 1.5922 2.1827 0.0000 0.0000 0.0000
# 2 1.5922 170.9066 142.9739 0.0000 0.0000 0.0000
# 3 2.1827 142.9739 208.9483 0.0000 0.0000 0.0000
# 4 0.0000 0.0000 0.0000 41.5394 0.0000 0.0000
# 5 0.0000 0.0000 0.0000 0.0000 11.7728 0.0000
# 6 0.0000 0.0000 0.0000 0.0000 0.0000 5.6861
#
#
#
# Elastic Compliance Matrix: (Units=1/GPa)
#
#
# Indices 1 2 3 4 5 6 
#
# 1 0.029307 -0.000040 -0.000279 0.000000 0.000000 0.000000
# 2 -0.000040 0.013684 -0.009363 0.000000 0.000000 0.000000
# 3 -0.000279 -0.009363 0.011196 0.000000 0.000000 0.000000
# 4 0.000000 0.000000 0.000000 0.024074 0.000000 0.000000
# 5 0.000000 0.000000 0.000000 0.000000 0.084942 0.000000
# 6 0.000000 0.000000 0.000000 0.000000 0.000000 0.175866
#
#
# Mechanical properties :
#
#
# Convention : Reuss Voigt Hill
#
# Bulk Modulus (GPa) = 28.71660 78.61083 53.66371
# Shear Modulus (GPa) = 13.51207 29.61639 21.56423
#
# Velocity S-wave (km/s) = 2.58550 3.82781 3.26626
# Velocity P-wave (km/s) = 4.80834 7.64378 6.38543
#
# Compressibility (1/GPa) = 0.03482307
#
# Stress axis : x y z
#
# Youngs Moduli (GPa) = 34.12183 73.07570 89.32060
#
# Poissons Ratio (x) = 0.00289 0.02492
# Poissons Ratio (y) = 0.00135 0.83633
# Poissons Ratio (z) = 0.00952 0.68422
#
# Static dielectric constant tensor:
#      x y z
#    x 1.773540 0.000000 0.000000 
#    y 0.000000 1.711310 0.000000 
#    z 0.000000 0.000000 1.674930 
# 
# From -- ./inp_files/37018.got.cif
#   From: 2010.05.17/outbox.cif.g08.bks.cpg/sg64_19_cif.got.tgz:37018.got - 2010.06.03 16:29:19.
