data_PCOD9477259
_publ_section_title
;
Structure prediction by ZEFSAII (Michael W. Deem and Ramdas Pophale) SiO2 
 PCOD9477259
Probable space group: C M C A
;
_chemical_formula_sum "Si O2"
_cell_formula_units_Z 80
_cell_length_a 8.993788
_cell_length_b 26.068678
_cell_length_c 20.263812
_cell_angle_alpha 90.000000
_cell_angle_beta 90.000000
_cell_angle_gamma 90.000000
_cell_volume 4750.975617
_symmetry_space_group_name_H-M "C M C A"
_symmetry_group_IT_number 64
_symmetry_cell_setting 'orthorhombic'
loop_
_space_group_symop_operation_xyz
x,y,z
-x,1/2-y,1/2+z
x,-y,-z
-x,1/2+y,1/2-z
-x,-y,-z
x,1/2+y,1/2-z
-x,y,z
x,1/2-y,1/2+z
1/2+x,1/2+y,z
1/2-x,-y,1/2+z
1/2+x,1/2-y,-z
1/2-x,y,1/2-z
1/2-x,1/2-y,-z
1/2+x,y,1/2-z
1/2-x,1/2+y,z
1/2+x,-y,1/2+z
loop_
_atom_site_type_symbol
_atom_site_label
_atom_site_fract_x
_atom_site_fract_y
_atom_site_fract_z
Si Si1 0.676958 0.151470 0.602349
Si Si2 0.678640 0.474496 0.570336
Si Si3 0.178143 0.762796 0.570913
Si Si4 0.822487 0.059530 0.679181
Si Si5 0.177216 0.366072 0.553667
O O1 0.500000 0.144179 0.611483
O O2 0.710922 0.211762 0.613278
O O3 0.765021 0.112689 0.648146
O O4 0.710105 0.138882 0.525210
O O5 0.718819 0.500000 0.500000
O O6 0.500000 0.466813 0.570331
O O7 0.717520 0.514248 0.628038
O O8 0.758773 0.420145 0.577012
O O9 0.250000 0.750000 0.500000
O O10 0.246846 0.817491 0.589380
O O11 0.000000 0.766591 0.564490
O O12 0.750000 0.051040 0.750000
O O13 0.000000 0.060897 0.684874
O O14 0.000000 0.363321 0.561159
#
# Coordination Sequence:
#
# PCOD9477259 Si02
#       5
#    16  16  16  16  16
#     4   9  18  32  50  75 106 138 174 215 264 314
#     4  10  20  35  54  78 106 140 182 225 273 321
#     4   9  17  29  47  74 107 139 170 211 259 312
#     4  11  23  37  55  77 106 143 179 222 271 325
#     4  10  19  30  50  80 109 140 174 219 269 314
#
# _framework density 16.838646000000001
#
# number of rings (size 3 to 8) (size 9 to 14) (size 15 to 20)
#    0.000    2.200    2.000    3.000    0.000    6.000 
#    0.000    0.000    0.000    1.200    0.000    5.600 
#    0.000    0.000    0.000    0.000    0.000    0.000 
#
# Total GULP energy -223068.495569 kJ/mol
# GULP energy per Si atom -5576.712389 kJ/mol
# Density = 1.680032 g / cm^3
# Si number density = 16.838646 Si / 1000 Ang^3
#
#
#
# Elastic Constant Matrix: (Units=GPa)
#
#
# Indices 1 2 3 4 5 6 
#
# 1 55.0223 73.9225 47.3937 0.0000 0.0000 0.0000
# 2 73.9225 185.9119 67.7598 0.0000 0.0000 0.0000
# 3 47.3937 67.7598 85.5630 0.0000 0.0000 0.0000
# 4 0.0000 0.0000 0.0000 13.5879 0.0000 0.0000
# 5 0.0000 0.0000 0.0000 0.0000 21.8099 0.0000
# 6 0.0000 0.0000 0.0000 0.0000 0.0000 33.2294
#
#
#
# Elastic Compliance Matrix: (Units=1/GPa)
#
#
# Indices 1 2 3 4 5 6 
#
# 1 0.053311 -0.014669 -0.017913 0.000000 0.000000 0.000000
# 2 -0.014669 0.011598 -0.001059 0.000000 0.000000 0.000000
# 3 -0.017913 -0.001059 0.022448 0.000000 0.000000 0.000000
# 4 0.000000 0.000000 0.000000 0.073595 0.000000 0.000000
# 5 0.000000 0.000000 0.000000 0.000000 0.045851 0.000000
# 6 0.000000 0.000000 0.000000 0.000000 0.000000 0.030094
#
#
# Mechanical properties :
#
#
# Convention : Reuss Voigt Hill
#
# Bulk Modulus (GPa) = 49.81250 78.29435 64.05343
# Shear Modulus (GPa) = 16.08386 22.88684 19.48535
#
# Velocity S-wave (km/s) = 3.09394 3.69071 3.40543
# Velocity P-wave (km/s) = 6.51228 8.04733 7.32016
#
# Compressibility (1/GPa) = 0.02007528
#
# Stress axis : x y z
#
# Youngs Moduli (GPa) = 18.75769 86.22384 44.54736
#
# Poissons Ratio (x) = 1.26483 0.79796
# Poissons Ratio (y) = 0.27516 0.04719
# Poissons Ratio (z) = 0.33600 0.09133
#
# Static dielectric constant tensor:
#      x y z
#    x 1.554170 0.000000 0.000000 
#    y 0.000000 1.588620 0.000000 
#    z 0.000000 0.000000 1.545460 
# 
# From -- ./inp_files/29738.got.cif
#   From: 2010.05.17/outbox.cif.g08.bks.cpg/sg64_15_cif.got.tgz:29738.got - 2010.06.03 16:29:19.
