data_PCOD9477591
_publ_section_title
;
Structure prediction by ZEFSAII (Michael W. Deem and Ramdas Pophale) SiO2 
 PCOD9477591
Probable space group: C M C A
;
_chemical_formula_sum "Si O2"
_cell_formula_units_Z 80
_cell_length_a 8.709549
_cell_length_b 27.428997
_cell_length_c 17.989533
_cell_angle_alpha 90.000000
_cell_angle_beta 90.000000
_cell_angle_gamma 90.000000
_cell_volume 4297.594976
_symmetry_space_group_name_H-M "C M C A"
_symmetry_group_IT_number 64
_symmetry_cell_setting 'orthorhombic'
loop_
_space_group_symop_operation_xyz
x,y,z
-x,1/2-y,1/2+z
x,-y,-z
-x,1/2+y,1/2-z
-x,-y,-z
x,1/2+y,1/2-z
-x,y,z
x,1/2-y,1/2+z
1/2+x,1/2+y,z
1/2-x,-y,1/2+z
1/2+x,1/2-y,-z
1/2-x,y,1/2-z
1/2-x,1/2-y,-z
1/2+x,y,1/2-z
1/2-x,1/2+y,z
1/2+x,-y,1/2+z
loop_
_atom_site_type_symbol
_atom_site_label
_atom_site_fract_x
_atom_site_fract_y
_atom_site_fract_z
Si Si1 0.815237 0.798451 0.833719
Si Si2 0.678838 0.499490 0.588648
Si Si3 0.684770 0.405041 0.833837
Si Si4 0.184607 0.806917 0.334390
Si Si5 0.182331 0.593151 0.666732
O O1 0.750000 0.798514 0.750000
O O2 0.770929 0.851306 0.865572
O O3 0.770825 0.745982 0.868050
O O4 0.000000 0.798071 0.829309
O O5 0.689444 0.500000 0.500000
O O6 0.500000 0.502739 0.610596
O O7 0.748393 0.449617 0.620083
O O8 0.766174 0.545893 0.621816
O O9 0.500000 0.408205 0.831338
O O10 0.750000 0.408147 0.750000
O O11 0.250000 0.806005 0.250000
O O12 0.252741 0.856426 0.367637
O O13 0.000000 0.810658 0.332179
O O14 0.250000 0.588651 0.750000
O O15 0.000000 0.596364 0.671433
#
# Coordination Sequence:
#
# PCOD9477591 Si02
#       5
#    16  16  16  16  16
#     4   8  15  26  44  72 104 135 163 199 245 293
#     4  11  24  40  55  72  98 133 172 215 263 309
#     4  10  19  33  54  80 108 136 170 209 251 300
#     4   9  15  26  45  72 105 135 165 201 245 293
#     4  11  21  34  54  79 106 135 170 210 252 299
#
# _framework density 18.615062999999999
#
# number of rings (size 3 to 8) (size 9 to 14) (size 15 to 20)
#    0.000    2.200    0.000    5.400    0.000    3.200 
#    0.000    0.000    0.000    1.200    0.000    0.000 
#    0.000    0.000    0.000    0.000    0.000    0.000 
#
# Total GULP energy -222955.444304 kJ/mol
# GULP energy per Si atom -5573.886108 kJ/mol
# Density = 1.857269 g / cm^3
# Si number density = 18.615063 Si / 1000 Ang^3
#
#
#
# Elastic Constant Matrix: (Units=GPa)
#
#
# Indices 1 2 3 4 5 6 
#
# 1 103.9003 67.3249 20.5136 0.0000 0.0000 0.0000
# 2 67.3249 222.0108 32.2422 0.0000 0.0000 0.0000
# 3 20.5136 32.2422 15.4079 0.0000 0.0000 0.0000
# 4 0.0000 0.0000 0.0000 -9.7218 0.0000 0.0000
# 5 0.0000 0.0000 0.0000 0.0000 15.5641 0.0000
# 6 0.0000 0.0000 0.0000 0.0000 0.0000 66.0661
#
#
#
# Elastic Compliance Matrix: (Units=1/GPa)
#
#
# Indices 1 2 3 4 5 6 
#
# 1 0.013748 -0.002171 -0.013762 0.000000 0.000000 0.000000
# 2 -0.002171 0.006813 -0.011368 0.000000 0.000000 0.000000
# 3 -0.013762 -0.011368 0.107012 0.000000 0.000000 0.000000
# 4 0.000000 0.000000 0.000000 -0.102861 0.000000 0.000000
# 5 0.000000 0.000000 0.000000 0.000000 0.064251 0.000000
# 6 0.000000 0.000000 0.000000 0.000000 0.000000 0.015136
#
#
# Mechanical properties :
#
#
# Convention : Reuss Voigt Hill
#
# Bulk Modulus (GPa) = 13.70365 64.60895 39.15630
# Shear Modulus (GPa) = 27.31872 29.13088 28.22480
#
# Velocity S-wave (km/s) = 3.83503 3.96019 3.89811
# Velocity P-wave (km/s) = 5.19495 7.46284 6.42968
#
# Compressibility (1/GPa) = 0.07297326
#
# Stress axis : x y z
#
# Youngs Moduli (GPa) = 72.73709 146.76894 9.34472
#
# Poissons Ratio (x) = 0.31856 0.12860
# Poissons Ratio (y) = 0.15788 0.10623
# Poissons Ratio (z) = 1.00100 1.66845
#
# Static dielectric constant tensor:
#      x y z
#    x 1.632180 0.000000 0.000000 
#    y 0.000000 1.716010 0.000000 
#    z 0.000000 0.000000 1.598530 
# 
# From -- ./inp_files/29811.got.cif
#   From: 2010.05.17/outbox.cif.g08.bks.cpg/sg64_15_cif.got.tgz:29811.got - 2010.06.03 16:29:19.
