data_PCOD9477073
_publ_section_title
;
Structure prediction by ZEFSAII (Michael W. Deem and Ramdas Pophale) SiO2 
 PCOD9477073
Probable space group: C M C A
;
_chemical_formula_sum "Si O2"
_cell_formula_units_Z 104
_cell_length_a 21.641135
_cell_length_b 18.050596
_cell_length_c 14.674417
_cell_angle_alpha 90.000000
_cell_angle_beta 90.000000
_cell_angle_gamma 90.000000
_cell_volume 5732.346532
_symmetry_space_group_name_H-M "C M C A"
_symmetry_group_IT_number 64
_symmetry_cell_setting 'orthorhombic'
loop_
_space_group_symop_operation_xyz
x,y,z
-x,1/2-y,1/2+z
x,-y,-z
-x,1/2+y,1/2-z
-x,-y,-z
x,1/2+y,1/2-z
-x,y,z
x,1/2-y,1/2+z
1/2+x,1/2+y,z
1/2-x,-y,1/2+z
1/2+x,1/2-y,-z
1/2-x,y,1/2-z
1/2-x,1/2-y,-z
1/2+x,y,1/2-z
1/2-x,1/2+y,z
1/2+x,-y,1/2+z
loop_
_atom_site_type_symbol
_atom_site_label
_atom_site_fract_x
_atom_site_fract_y
_atom_site_fract_z
Si Si1 0.328056 0.751874 0.897008
Si Si2 0.927892 0.945273 0.384404
Si Si3 0.861819 0.168127 0.725853
Si Si4 0.186337 0.206090 0.106635
Si Si5 0.361570 0.913183 0.924096
Si Si6 0.282304 0.041509 0.409503
Si Si7 0.750000 0.566731 0.750000
O O1 0.356246 0.690593 0.830883
O O2 0.256855 0.769273 0.870338
O O3 0.363906 0.829525 0.889397
O O4 0.325842 0.726668 0.001570
O O5 0.916497 0.884400 0.306982
O O6 0.892644 0.917767 0.475976
O O7 0.000000 0.954839 0.402530
O O8 0.896123 0.024567 0.364871
O O9 0.857164 0.244258 0.669650
O O10 0.801061 0.118798 0.703978
O O11 0.183348 0.117636 0.115448
O O12 0.289125 0.934458 0.929356
O O13 0.305439 0.000000 0.500000
O O14 0.280759 0.985088 0.325751
#
# Coordination Sequence:
#
# PCOD9477073 Si02
#       7
#    16  16  16  16  16  16   8
#     4  10  20  32  56  81 112 149 185 225 288 356
#     4  11  22  38  59  83 113 150 198 250 292 333
#     4  12  21  37  55  82 118 152 187 238 295 346
#     4  10  21  33  51  81 117 151 178 225 289 352
#     4  10  18  35  57  82 110 146 189 240 293 341
#     4  11  21  33  52  83 116 150 187 225 284 367
#     4  12  22  32  54  84 120 152 182 236 290 354
#
# _framework density 18.142658000000001
#
# number of rings (size 3 to 8) (size 9 to 14) (size 15 to 20)
#    0.000    1.231    6.154    1.846    6.462    0.000 
#    0.000    1.538    0.000    0.000    0.000    0.000 
#    0.000    3.692    0.000    0.000    0.000    0.000 
#
# Total GULP energy -290328.868771 kJ/mol
# GULP energy per Si atom -5583.247476 kJ/mol
# Density = 1.810136 g / cm^3
# Si number density = 18.142658 Si / 1000 Ang^3
#
#
#
# Elastic Constant Matrix: (Units=GPa)
#
#
# Indices 1 2 3 4 5 6 
#
# 1 39.5261 23.4820 1.2405 0.0000 0.0000 0.0000
# 2 23.4820 135.5156 36.9189 0.0000 0.0000 0.0000
# 3 1.2405 36.9189 70.6746 0.0000 0.0000 0.0000
# 4 0.0000 0.0000 0.0000 32.3962 0.0000 0.0000
# 5 0.0000 0.0000 0.0000 0.0000 7.3110 0.0000
# 6 0.0000 0.0000 0.0000 0.0000 0.0000 10.3997
#
#
#
# Elastic Compliance Matrix: (Units=1/GPa)
#
#
# Indices 1 2 3 4 5 6 
#
# 1 0.028556 -0.005610 0.002429 0.000000 0.000000 0.000000
# 2 -0.005610 0.009706 -0.004972 0.000000 0.000000 0.000000
# 3 0.002429 -0.004972 0.016704 0.000000 0.000000 0.000000
# 4 0.000000 0.000000 0.000000 0.030868 0.000000 0.000000
# 5 0.000000 0.000000 0.000000 0.000000 0.136780 0.000000
# 6 0.000000 0.000000 0.000000 0.000000 0.000000 0.096157
#
#
# Mechanical properties :
#
#
# Convention : Reuss Voigt Hill
#
# Bulk Modulus (GPa) = 25.86570 40.99989 33.43279
# Shear Modulus (GPa) = 14.36937 22.29304 18.33120
#
# Velocity S-wave (km/s) = 2.81734 3.50918 3.18212
# Velocity P-wave (km/s) = 4.98708 6.25034 5.65410
#
# Compressibility (1/GPa) = 0.03866124
#
# Stress axis : x y z
#
# Youngs Moduli (GPa) = 35.01848 103.03169 59.86672
#
# Poissons Ratio (x) = 0.57801 -0.14544
# Poissons Ratio (y) = 0.19645 0.29763
# Poissons Ratio (z) = -0.08507 0.51223
#
# Static dielectric constant tensor:
#      x y z
#    x 1.599660 0.000000 0.000000 
#    y 0.000000 1.655510 0.000000 
#    z 0.000000 0.000000 1.640660 
# 
# From -- ./inp_files/26548.got.cif
#   From: 2010.05.17/outbox.cif.g08.bks.cpg/sg64_14_cif.got.tgz:26548.got - 2010.06.03 16:29:19.
