data_PCOD9477969
_publ_section_title
;
Structure prediction by ZEFSAII (Michael W. Deem and Ramdas Pophale) SiO2 
 PCOD9477969
Probable space group: C M C A
;
_chemical_formula_sum "Si O2"
_cell_formula_units_Z 120
_cell_length_a 15.058966
_cell_length_b 14.044896
_cell_length_c 26.275843
_cell_angle_alpha 90.000000
_cell_angle_beta 90.000000
_cell_angle_gamma 90.000000
_cell_volume 5557.383134
_symmetry_space_group_name_H-M "C M C A"
_symmetry_group_IT_number 64
_symmetry_cell_setting 'orthorhombic'
loop_
_space_group_symop_operation_xyz
x,y,z
-x,1/2-y,1/2+z
x,-y,-z
-x,1/2+y,1/2-z
-x,-y,-z
x,1/2+y,1/2-z
-x,y,z
x,1/2-y,1/2+z
1/2+x,1/2+y,z
1/2-x,-y,1/2+z
1/2+x,1/2-y,-z
1/2-x,y,1/2-z
1/2-x,1/2-y,-z
1/2+x,y,1/2-z
1/2-x,1/2+y,z
1/2+x,-y,1/2+z
loop_
_atom_site_type_symbol
_atom_site_label
_atom_site_fract_x
_atom_site_fract_y
_atom_site_fract_z
Si Si1 0.672651 0.173149 0.174144
Si Si2 0.337344 0.546500 0.663037
Si Si3 0.098498 0.713940 0.577181
Si Si4 0.898681 0.670246 0.747141
Si Si5 0.129621 0.046482 0.851392
Si Si6 0.137056 0.339217 0.631166
Si Si7 0.500000 0.662977 0.631329
Si Si8 0.391038 0.107901 0.481137
O O1 0.639379 0.220180 0.121017
O O2 0.635108 0.232669 0.221763
O O3 0.778003 0.179301 0.166524
O O4 0.647120 0.062947 0.178895
O O5 0.340078 0.618241 0.711017
O O6 0.236973 0.549285 0.642376
O O7 0.419687 0.582002 0.629785
O O8 0.093280 0.609410 0.602915
O O9 0.138179 0.687174 0.522554
O O10 0.000000 0.751725 0.567841
O O11 0.898609 0.599446 0.699566
O O12 0.000000 0.678225 0.769469
O O13 0.098534 0.938782 0.849215
O O14 0.076160 0.247968 0.631164
O O15 0.155011 0.366812 0.572178
O O16 0.500000 0.114075 0.475058
O O17 0.371896 0.000000 0.500000
#
# Coordination Sequence:
#
# PCOD9477969 Si02
#       8
#    16  16  16  16  16  16   8  16
#     4  10  24  44  67  91 134 178 219 272 339 406
#     4  11  25  44  62  90 131 174 214 277 329 396
#     4  10  20  36  68  95 126 172 218 268 328 398
#     4  11  23  41  68  93 118 169 228 272 319 404
#     4  10  21  39  63  95 130 165 210 276 340 388
#     4  11  23  39  64 100 133 175 215 274 344 396
#     4  12  24  38  65  93 134 176 217 273 334 401
#     4  10  19  35  65 101 134 162 218 284 330 385
#
# _framework density 21.592897000000001
#
# number of rings (size 3 to 8) (size 9 to 14) (size 15 to 20)
#    0.000    1.467    2.667    3.600    3.733    1.600 
#    0.000    5.333    0.000    0.800    0.000    0.000 
#    0.000    0.000    0.000    0.000    0.000    0.000 
#
# Total GULP energy -334050.980425 kJ/mol
# GULP energy per Si atom -5567.516340 kJ/mol
# Density = 2.154375 g / cm^3
# Si number density = 21.592897 Si / 1000 Ang^3
#
#
#
# Elastic Constant Matrix: (Units=GPa)
#
#
# Indices 1 2 3 4 5 6 
#
# 1 99.7207 35.3517 8.8215 0.0000 0.0000 0.0000
# 2 35.3517 149.2177 42.2677 0.0000 0.0000 0.0000
# 3 8.8215 42.2677 36.0205 0.0000 0.0000 0.0000
# 4 0.0000 0.0000 0.0000 26.2389 0.0000 0.0000
# 5 0.0000 0.0000 0.0000 0.0000 21.8907 0.0000
# 6 0.0000 0.0000 0.0000 0.0000 0.0000 44.1289
#
#
#
# Elastic Compliance Matrix: (Units=1/GPa)
#
#
# Indices 1 2 3 4 5 6 
#
# 1 0.010955 -0.002749 0.000543 0.000000 0.000000 0.000000
# 2 -0.002749 0.010728 -0.011915 0.000000 0.000000 0.000000
# 3 0.000543 -0.011915 0.041611 0.000000 0.000000 0.000000
# 4 0.000000 0.000000 0.000000 0.038111 0.000000 0.000000
# 5 0.000000 0.000000 0.000000 0.000000 0.045681 0.000000
# 6 0.000000 0.000000 0.000000 0.000000 0.000000 0.022661
#
#
# Mechanical properties :
#
#
# Convention : Reuss Voigt Hill
#
# Bulk Modulus (GPa) = 28.53012 50.87119 39.70065
# Shear Modulus (GPa) = 23.84656 31.68623 27.76639
#
# Velocity S-wave (km/s) = 3.32681 3.83487 3.58984
# Velocity P-wave (km/s) = 5.29134 6.57409 5.96729
#
# Compressibility (1/GPa) = 0.03505068
#
# Stress axis : x y z
#
# Youngs Moduli (GPa) = 91.28632 93.21294 24.03213
#
# Poissons Ratio (x) = 0.25625 -0.01305
# Poissons Ratio (y) = 0.25096 0.28635
# Poissons Ratio (z) = -0.04958 1.11068
#
# Static dielectric constant tensor:
#      x y z
#    x 1.802480 0.000000 0.000000 
#    y 0.000000 1.778750 0.000000 
#    z 0.000000 0.000000 1.874930 
# 
# From -- ./inp_files/53446.got.cif
#   From: 2010.05.17/outbox.cif.g08.bks.cpg/sg64_27_cif.got.tgz:53446.got - 2010.06.03 16:29:19.
