data_PCOD9477630
_publ_section_title
;
Structure prediction by ZEFSAII (Michael W. Deem and Ramdas Pophale) SiO2 
 PCOD9477630
Probable space group: C M C A
;
_chemical_formula_sum "Si O2"
_cell_formula_units_Z 96
_cell_length_a 7.559652
_cell_length_b 20.547793
_cell_length_c 29.793185
_cell_angle_alpha 90.000000
_cell_angle_beta 90.000000
_cell_angle_gamma 90.000000
_cell_volume 4627.899498
_symmetry_space_group_name_H-M "C M C A"
_symmetry_group_IT_number 64
_symmetry_cell_setting 'orthorhombic'
loop_
_space_group_symop_operation_xyz
x,y,z
-x,1/2-y,1/2+z
x,-y,-z
-x,1/2+y,1/2-z
-x,-y,-z
x,1/2+y,1/2-z
-x,y,z
x,1/2-y,1/2+z
1/2+x,1/2+y,z
1/2-x,-y,1/2+z
1/2+x,1/2-y,-z
1/2-x,y,1/2-z
1/2-x,1/2-y,-z
1/2+x,y,1/2-z
1/2-x,1/2+y,z
1/2+x,-y,1/2+z
loop_
_atom_site_type_symbol
_atom_site_label
_atom_site_fract_x
_atom_site_fract_y
_atom_site_fract_z
Si Si1 0.789818 0.100898 0.302028
Si Si2 0.282992 0.149963 0.623341
Si Si3 0.206494 0.997942 0.124061
Si Si4 0.212320 0.747449 0.197711
Si Si5 0.786568 0.059467 0.033588
Si Si6 0.211950 0.681200 0.522347
O O1 0.750000 0.088724 0.250000
O O2 0.721287 0.174022 0.312347
O O3 0.000000 0.101576 0.308381
O O4 0.718029 0.043744 0.332924
O O5 0.500000 0.151093 0.624653
O O6 0.223117 0.075202 0.629993
O O7 0.222454 0.198741 0.662583
O O8 0.226164 0.173186 0.573707
O O9 0.000000 0.987739 0.112948
O O10 0.283620 0.037871 0.081983
O O11 0.250000 0.762238 0.250000
O O12 0.000000 0.745132 0.193589
O O13 0.000000 0.067985 0.037696
O O14 0.717523 0.124470 0.010151
O O15 0.755709 0.000000 0.000000
O O16 0.250000 0.750000 0.500000
O O17 0.000000 0.673258 0.524854
#
# Coordination Sequence:
#
# PCOD9477630 Si02
#       6
#    16  16  16  16  16  16
#     4  10  21  37  56  78 106 137 173 215 263 319
#     4   9  18  34  55  77 104 140 178 214 259 312
#     4  10  19  33  56  81 106 138 178 221 262 309
#     4   9  19  36  55  75 100 134 172 211 260 312
#     4   9  16  31  54  78 104 141 184 216 250 307
#     4  10  20  34  53  78 108 141 178 219 260 309
#
# _framework density 20.743751
#
# number of rings (size 3 to 8) (size 9 to 14) (size 15 to 20)
#    0.000    2.500    1.667    0.500    2.333    1.333 
#    0.000    4.167    0.000    1.000    0.000    0.000 
#    0.000    0.000    0.000    0.000    0.000    0.000 
#
# Total GULP energy -267890.875052 kJ/mol
# GULP energy per Si atom -5581.059897 kJ/mol
# Density = 2.069654 g / cm^3
# Si number density = 20.743751 Si / 1000 Ang^3
#
#
#
# Elastic Constant Matrix: (Units=GPa)
#
#
# Indices 1 2 3 4 5 6 
#
# 1 45.5652 -7.5651 -9.4836 0.0000 0.0000 0.0000
# 2 -7.5651 173.9961 112.1947 0.0000 0.0000 0.0000
# 3 -9.4836 112.1947 139.8192 0.0000 0.0000 0.0000
# 4 0.0000 0.0000 0.0000 35.3889 0.0000 0.0000
# 5 0.0000 0.0000 0.0000 0.0000 7.5387 0.0000
# 6 0.0000 0.0000 0.0000 0.0000 0.0000 -20.1794
#
#
#
# Elastic Compliance Matrix: (Units=1/GPa)
#
#
# Indices 1 2 3 4 5 6 
#
# 1 0.022261 -0.000012 0.001519 0.000000 0.000000 0.000000
# 2 -0.000012 0.011909 -0.009557 0.000000 0.000000 0.000000
# 3 0.001519 -0.009557 0.014924 0.000000 0.000000 0.000000
# 4 0.000000 0.000000 0.000000 0.028257 0.000000 0.000000
# 5 0.000000 0.000000 0.000000 0.000000 0.132648 0.000000
# 6 0.000000 0.000000 0.000000 0.000000 0.000000 -0.049556
#
#
# Mechanical properties :
#
#
# Convention : Reuss Voigt Hill
#
# Bulk Modulus (GPa) = 30.30762 61.07471 45.69116
# Shear Modulus (GPa) = 26.66069 22.16528 24.41299
#
# Velocity S-wave (km/s) = 3.58891 3.27238 3.43430
# Velocity P-wave (km/s) = 5.64056 6.61697 6.14818
#
# Compressibility (1/GPa) = 0.03299501
#
# Stress axis : x y z
#
# Youngs Moduli (GPa) = 44.92196 83.96804 67.00591
#
# Poissons Ratio (x) = 0.00100 -0.10181
# Poissons Ratio (y) = 0.00053 0.64038
# Poissons Ratio (z) = -0.06826 0.80249
#
# Static dielectric constant tensor:
#      x y z
#    x 1.798140 0.000000 0.000000 
#    y 0.000000 1.732710 0.000000 
#    z 0.000000 0.000000 1.706460 
# 
# From -- ./inp_files/48095.got.cif
#   From: 2010.05.17/outbox.cif.g08.bks.cpg/sg64_25_cif.got.tgz:48095.got - 2010.06.03 16:29:19.
