data_PCOD9477616
_publ_section_title
;
Structure prediction by ZEFSAII (Michael W. Deem and Ramdas Pophale) SiO2 
 PCOD9477616
Probable space group: C M C A
;
_chemical_formula_sum "Si O2"
_cell_formula_units_Z 96
_cell_length_a 7.823281
_cell_length_b 21.234469
_cell_length_c 29.014664
_cell_angle_alpha 90.000000
_cell_angle_beta 90.000000
_cell_angle_gamma 90.000000
_cell_volume 4820.009349
_symmetry_space_group_name_H-M "C M C A"
_symmetry_group_IT_number 64
_symmetry_cell_setting 'orthorhombic'
loop_
_space_group_symop_operation_xyz
x,y,z
-x,1/2-y,1/2+z
x,-y,-z
-x,1/2+y,1/2-z
-x,-y,-z
x,1/2+y,1/2-z
-x,y,z
x,1/2-y,1/2+z
1/2+x,1/2+y,z
1/2-x,-y,1/2+z
1/2+x,1/2-y,-z
1/2-x,y,1/2-z
1/2-x,1/2-y,-z
1/2+x,y,1/2-z
1/2-x,1/2+y,z
1/2+x,-y,1/2+z
loop_
_atom_site_type_symbol
_atom_site_label
_atom_site_fract_x
_atom_site_fract_y
_atom_site_fract_z
Si Si1 0.706823 0.744093 0.446302
Si Si2 0.792880 0.991093 0.446831
Si Si3 0.297247 0.382474 0.601935
Si Si4 0.794093 0.569367 0.698493
Si Si5 0.296509 0.075150 0.301422
Si Si6 0.797640 0.866308 0.107226
O O1 0.500000 0.744018 0.443199
O O2 0.750000 0.750000 0.500000
O O3 0.771204 0.678891 0.424072
O O4 0.772652 0.804096 0.417373
O O5 0.729311 0.051583 0.418213
O O6 0.000000 0.988482 0.444326
O O7 0.745093 0.000000 0.500000
O O8 0.726001 0.926537 0.425585
O O9 0.500000 0.383518 0.593128
O O10 0.269906 0.383168 0.656629
O O11 0.750000 0.590691 0.750000
O O12 0.730006 0.497083 0.693245
O O13 0.727726 0.612906 0.657177
O O14 0.000000 0.566760 0.694968
O O15 0.500000 0.073113 0.304972
O O16 0.250000 0.096457 0.250000
O O17 0.000000 0.855610 0.113383
#
# Coordination Sequence:
#
# PCOD9477616 Si02
#       6
#    16  16  16  16  16  16
#     4  10  22  39  58  78 109 149 186 226 272 325
#     4  10  20  33  52  78 107 138 178 227 271 317
#     4  10  20  35  54  79 110 145 183 223 272 324
#     4   9  18  32  52  79 108 136 173 217 267 319
#     4  10  19  33  55  82 111 142 179 223 272 326
#     4  10  20  36  55  79 108 141 179 222 270 319
#
# _framework density 19.916972999999999
#
# number of rings (size 3 to 8) (size 9 to 14) (size 15 to 20)
#    0.000    2.167    1.667    1.500    0.000    4.333 
#    0.000    0.833    0.000    2.000    0.000    0.000 
#    0.000    0.000    0.000    0.000    0.000    0.000 
#
# Total GULP energy -267975.265027 kJ/mol
# GULP energy per Si atom -5582.818021 kJ/mol
# Density = 1.987164 g / cm^3
# Si number density = 19.916973 Si / 1000 Ang^3
#
#
#
# Elastic Constant Matrix: (Units=GPa)
#
#
# Indices 1 2 3 4 5 6 
#
# 1 19.3474 -1.1688 -14.1549 0.0000 0.0000 0.0000
# 2 -1.1688 87.2901 28.8417 0.0000 0.0000 0.0000
# 3 -14.1549 28.8417 112.0864 0.0000 0.0000 0.0000
# 4 0.0000 0.0000 0.0000 35.0393 0.0000 0.0000
# 5 0.0000 0.0000 0.0000 0.0000 24.4388 0.0000
# 6 0.0000 0.0000 0.0000 0.0000 0.0000 8.0516
#
#
#
# Elastic Compliance Matrix: (Units=1/GPa)
#
#
# Indices 1 2 3 4 5 6 
#
# 1 0.057198 -0.001771 0.007679 0.000000 0.000000 0.000000
# 2 -0.001771 0.012575 -0.003460 0.000000 0.000000 0.000000
# 3 0.007679 -0.003460 0.010782 0.000000 0.000000 0.000000
# 4 0.000000 0.000000 0.000000 0.028539 0.000000 0.000000
# 5 0.000000 0.000000 0.000000 0.000000 0.040919 0.000000
# 6 0.000000 0.000000 0.000000 0.000000 0.000000 0.124199
#
#
# Mechanical properties :
#
#
# Convention : Reuss Voigt Hill
#
# Bulk Modulus (GPa) = 11.70259 27.30664 19.50462
# Shear Modulus (GPa) = 16.78985 27.18633 21.98809
#
# Velocity S-wave (km/s) = 2.90658 3.69858 3.32624
# Velocity P-wave (km/s) = 4.14159 5.65502 4.95641
#
# Compressibility (1/GPa) = 0.08545114
#
# Stress axis : x y z
#
# Youngs Moduli (GPa) = 17.48319 79.52025 92.75014
#
# Poissons Ratio (x) = 0.14086 -0.71224
# Poissons Ratio (y) = 0.03097 0.32088
# Poissons Ratio (z) = -0.13426 0.27511
#
# Static dielectric constant tensor:
#      x y z
#    x 1.730190 0.000000 0.000000 
#    y 0.000000 1.696920 0.000000 
#    z 0.000000 0.000000 1.688950 
# 
# From -- ./inp_files/48018.got.cif
#   From: 2010.05.17/outbox.cif.g08.bks.cpg/sg64_25_cif.got.tgz:48018.got - 2010.06.03 16:29:19.
