data_PCOD9477664
_publ_section_title
;
Structure prediction by ZEFSAII (Michael W. Deem and Ramdas Pophale) SiO2 
 PCOD9477664
Probable space group: C M C A
;
_chemical_formula_sum "Si O2"
_cell_formula_units_Z 80
_cell_length_a 16.057104
_cell_length_b 18.485340
_cell_length_c 13.667438
_cell_angle_alpha 90.000000
_cell_angle_beta 90.000000
_cell_angle_gamma 90.000000
_cell_volume 4056.782982
_symmetry_space_group_name_H-M "C M C A"
_symmetry_group_IT_number 64
_symmetry_cell_setting 'orthorhombic'
loop_
_space_group_symop_operation_xyz
x,y,z
-x,1/2-y,1/2+z
x,-y,-z
-x,1/2+y,1/2-z
-x,-y,-z
x,1/2+y,1/2-z
-x,y,z
x,1/2-y,1/2+z
1/2+x,1/2+y,z
1/2-x,-y,1/2+z
1/2+x,1/2-y,-z
1/2-x,y,1/2-z
1/2-x,1/2-y,-z
1/2+x,y,1/2-z
1/2-x,1/2+y,z
1/2+x,-y,1/2+z
loop_
_atom_site_type_symbol
_atom_site_label
_atom_site_fract_x
_atom_site_fract_y
_atom_site_fract_z
Si Si1 0.398424 0.677973 0.172021
Si Si2 0.828126 0.032684 0.107596
Si Si3 0.600842 0.836887 0.096922
Si Si4 0.093301 0.635866 0.115217
Si Si5 0.143072 0.490220 0.180557
O O1 0.500000 0.668193 0.166785
O O2 0.353751 0.616823 0.107510
O O3 0.378670 0.759488 0.142106
O O4 0.368955 0.662801 0.283168
O O5 0.875053 0.000605 0.203692
O O6 0.733994 0.016284 0.142687
O O7 0.842725 0.000000 0.000000
O O8 0.500000 0.842784 0.094696
O O9 0.632267 0.907210 0.153441
O O10 0.634136 0.841968 0.986005
O O11 0.088496 0.549077 0.123218
O O12 0.000000 0.666815 0.113816
#
# Coordination Sequence:
#
# PCOD9477664 Si02
#       5
#    16  16  16  16  16
#     4   9  20  36  52  77 109 139 175 215 259 312
#     4  10  21  37  54  75 106 144 177 209 258 314
#     4  10  19  33  57  83 105 133 173 223 268 303
#     4   9  17  32  54  77 105 140 174 214 262 309
#     4  10  20  35  54  79 106 135 178 218 254 311
#
# _framework density 19.72006
#
# number of rings (size 3 to 8) (size 9 to 14) (size 15 to 20)
#    0.000    2.400    0.000    2.400    0.000    4.400 
#    0.000   14.000    0.000    0.000    0.000    0.000 
#    0.000    0.000    0.000    0.000    0.000    0.000 
#
# Total GULP energy -222813.841062 kJ/mol
# GULP energy per Si atom -5570.346027 kJ/mol
# Density = 1.967518 g / cm^3
# Si number density = 19.720060 Si / 1000 Ang^3
#
#
#
# Elastic Constant Matrix: (Units=GPa)
#
#
# Indices 1 2 3 4 5 6 
#
# 1 25.1704 36.0200 3.5152 0.0000 0.0000 0.0000
# 2 36.0200 191.3591 84.2053 0.0000 0.0000 0.0000
# 3 3.5152 84.2053 121.7323 0.0000 0.0000 0.0000
# 4 0.0000 0.0000 0.0000 26.2483 0.0000 0.0000
# 5 0.0000 0.0000 0.0000 0.0000 11.5642 0.0000
# 6 0.0000 0.0000 0.0000 0.0000 0.0000 9.1532
#
#
#
# Elastic Compliance Matrix: (Units=1/GPa)
#
#
# Indices 1 2 3 4 5 6 
#
# 1 0.060265 -0.015207 0.008779 0.000000 0.000000 0.000000
# 2 -0.015207 0.011350 -0.007412 0.000000 0.000000 0.000000
# 3 0.008779 -0.007412 0.013088 0.000000 0.000000 0.000000
# 4 0.000000 0.000000 0.000000 0.038098 0.000000 0.000000
# 5 0.000000 0.000000 0.000000 0.000000 0.086474 0.000000
# 6 0.000000 0.000000 0.000000 0.000000 0.000000 0.109251
#
#
# Mechanical properties :
#
#
# Convention : Reuss Voigt Hill
#
# Bulk Modulus (GPa) = 17.53685 65.08255 41.30970
# Shear Modulus (GPa) = 13.69067 23.69457 18.69262
#
# Velocity S-wave (km/s) = 2.63772 3.47009 3.08214
# Velocity P-wave (km/s) = 4.26485 7.00930 5.80169
#
# Compressibility (1/GPa) = 0.05702278
#
# Stress axis : x y z
#
# Youngs Moduli (GPa) = 16.59348 88.10886 76.40534
#
# Poissons Ratio (x) = 1.33984 -0.67073
# Poissons Ratio (y) = 0.25233 0.56629
# Poissons Ratio (z) = -0.14567 0.65303
#
# Static dielectric constant tensor:
#      x y z
#    x 1.810200 0.000000 0.000000 
#    y 0.000000 1.660940 0.000000 
#    z 0.000000 0.000000 1.721880 
# 
# From -- ./inp_files/25274.got.cif
#   From: 2010.05.17/outbox.cif.g08.bks.cpg/sg64_13_cif.got.tgz:25274.got - 2010.06.03 16:29:19.
