data_PCOD9477191
_publ_section_title
;
Structure prediction by ZEFSAII (Michael W. Deem and Ramdas Pophale) SiO2 
 PCOD9477191
Probable space group: C M C A
;
_chemical_formula_sum "Si O2"
_cell_formula_units_Z 96
_cell_length_a 7.609293
_cell_length_b 20.084276
_cell_length_c 31.821273
_cell_angle_alpha 90.000000
_cell_angle_beta 90.000000
_cell_angle_gamma 90.000000
_cell_volume 4863.154168
_symmetry_space_group_name_H-M "C M C A"
_symmetry_group_IT_number 64
_symmetry_cell_setting 'orthorhombic'
loop_
_space_group_symop_operation_xyz
x,y,z
-x,1/2-y,1/2+z
x,-y,-z
-x,1/2+y,1/2-z
-x,-y,-z
x,1/2+y,1/2-z
-x,y,z
x,1/2-y,1/2+z
1/2+x,1/2+y,z
1/2-x,-y,1/2+z
1/2+x,1/2-y,-z
1/2-x,y,1/2-z
1/2-x,1/2-y,-z
1/2+x,y,1/2-z
1/2-x,1/2+y,z
1/2+x,-y,1/2+z
loop_
_atom_site_type_symbol
_atom_site_label
_atom_site_fract_x
_atom_site_fract_y
_atom_site_fract_z
Si Si1 0.791736 0.612247 0.607976
Si Si2 0.788075 0.029204 0.361902
Si Si3 0.714887 0.243542 0.131978
Si Si4 0.711847 0.631654 0.433014
Si Si5 0.710546 0.640765 0.298933
Si Si6 0.706637 0.930662 0.482342
O O1 0.768626 0.546868 0.636211
O O2 0.721739 0.681171 0.626744
O O3 0.717689 0.594115 0.561826
O O4 0.000000 0.623274 0.602705
O O5 0.730154 0.069177 0.403906
O O6 0.726705 0.073718 0.322575
O O7 0.000000 0.029692 0.362157
O O8 0.500000 0.243777 0.133240
O O9 0.765172 0.197976 0.091964
O O10 0.774190 0.203560 0.173441
O O11 0.500000 0.630758 0.434049
O O12 0.776522 0.622114 0.480115
O O13 0.500000 0.640288 0.302994
O O14 0.750000 0.643766 0.250000
O O15 0.500000 0.943093 0.474698
O O16 0.783958 0.000000 0.500000
#
# Coordination Sequence:
#
# PCOD9477191 Si02
#       6
#    16  16  16  16  16  16
#     4  10  19  32  50  70  99 136 166 198 245 292
#     4   9  18  32  50  72  98 124 157 201 240 281
#     4   8  17  34  52  71  97 130 164 198 243 294
#     4   9  17  31  50  68  91 130 172 203 235 282
#     4   9  18  35  57  77  96 121 157 199 241 293
#     4  10  19  29  43  70 103 131 166 210 246 279
#
# _framework density 19.740275
#
# number of rings (size 3 to 8) (size 9 to 14) (size 15 to 20)
#    0.000    2.833    1.667    2.000    0.000    2.333 
#    0.000    5.000    0.000    4.000    0.000    0.000 
#    0.000    0.000    0.000    0.000    0.000    0.000 
#
# Total GULP energy -267692.190664 kJ/mol
# GULP energy per Si atom -5576.920639 kJ/mol
# Density = 1.969535 g / cm^3
# Si number density = 19.740275 Si / 1000 Ang^3
#
#
#
# Elastic Constant Matrix: (Units=GPa)
#
#
# Indices 1 2 3 4 5 6 
#
# 1 32.7339 -1.5001 -0.5852 0.0000 0.0000 0.0000
# 2 -1.5001 186.1073 90.3629 0.0000 0.0000 0.0000
# 3 -0.5852 90.3629 149.3690 0.0000 0.0000 0.0000
# 4 0.0000 0.0000 0.0000 16.4627 0.0000 0.0000
# 5 0.0000 0.0000 0.0000 0.0000 20.4942 0.0000
# 6 0.0000 0.0000 0.0000 0.0000 0.0000 14.8583
#
#
#
# Elastic Compliance Matrix: (Units=1/GPa)
#
#
# Indices 1 2 3 4 5 6 
#
# 1 0.030561 0.000266 -0.000041 0.000000 0.000000 0.000000
# 2 0.000266 0.007610 -0.004603 0.000000 0.000000 0.000000
# 3 -0.000041 -0.004603 0.009479 0.000000 0.000000 0.000000
# 4 0.000000 0.000000 0.000000 0.060743 0.000000 0.000000
# 5 0.000000 0.000000 0.000000 0.000000 0.048794 0.000000
# 6 0.000000 0.000000 0.000000 0.000000 0.000000 0.067302
#
#
# Mechanical properties :
#
#
# Convention : Reuss Voigt Hill
#
# Bulk Modulus (GPa) = 25.71053 60.52948 43.12000
# Shear Modulus (GPa) = 20.30777 29.02523 24.66650
#
# Velocity S-wave (km/s) = 3.21089 3.83868 3.53874
# Velocity P-wave (km/s) = 5.17678 7.09766 6.21192
#
# Compressibility (1/GPa) = 0.03889458
#
# Stress axis : x y z
#
# Youngs Moduli (GPa) = 32.72162 131.40094 105.49349
#
# Poissons Ratio (x) = -0.03501 0.00437
# Poissons Ratio (y) = -0.00872 0.48558
# Poissons Ratio (z) = 0.00136 0.60483
#
# Static dielectric constant tensor:
#      x y z
#    x 1.769710 0.000000 0.000000 
#    y 0.000000 1.705520 0.000000 
#    z 0.000000 0.000000 1.680420 
# 
# From -- ./inp_files/48103.got.cif
#   From: 2010.05.17/outbox.cif.g08.bks.cpg/sg64_25_cif.got.tgz:48103.got - 2010.06.03 16:29:19.
