data_PCOD9477975
_publ_section_title
;
Structure prediction by ZEFSAII (Michael W. Deem and Ramdas Pophale) SiO2 
 PCOD9477975
Probable space group: C M C A
;
_chemical_formula_sum "Si O2"
_cell_formula_units_Z 72
_cell_length_a 18.131579
_cell_length_b 15.898034
_cell_length_c 14.827361
_cell_angle_alpha 90.000000
_cell_angle_beta 90.000000
_cell_angle_gamma 90.000000
_cell_volume 4274.082584
_symmetry_space_group_name_H-M "C M C A"
_symmetry_group_IT_number 64
_symmetry_cell_setting 'orthorhombic'
loop_
_space_group_symop_operation_xyz
x,y,z
-x,1/2-y,1/2+z
x,-y,-z
-x,1/2+y,1/2-z
-x,-y,-z
x,1/2+y,1/2-z
-x,y,z
x,1/2-y,1/2+z
1/2+x,1/2+y,z
1/2-x,-y,1/2+z
1/2+x,1/2-y,-z
1/2-x,y,1/2-z
1/2-x,1/2-y,-z
1/2+x,y,1/2-z
1/2-x,1/2+y,z
1/2+x,-y,1/2+z
loop_
_atom_site_type_symbol
_atom_site_label
_atom_site_fract_x
_atom_site_fract_y
_atom_site_fract_z
Si Si1 0.164020 0.840352 0.775264
Si Si2 0.587429 0.008715 0.690135
Si Si3 0.834482 0.500000 0.500000
Si Si4 0.185989 0.817209 0.983809
Si Si5 0.911973 0.304010 0.340292
O O1 0.250000 0.840346 0.750000
O O2 0.130741 0.933729 0.760978
O O3 0.158003 0.814670 0.880848
O O4 0.121598 0.772658 0.715287
O O5 0.500000 0.996898 0.700194
O O6 0.612728 0.998835 0.586466
O O7 0.605873 0.106532 0.708663
O O8 0.788340 0.585885 0.498277
O O9 0.250000 0.750000 0.000000
O O10 0.123801 0.804441 0.060022
O O11 0.000000 0.298641 0.346826
#
# Coordination Sequence:
#
# PCOD9477975 Si02
#       5
#    16  16   8  16  16
#     4  11  21  34  55  82 110 143 179 223 273 326
#     4   9  18  33  53  77 105 136 178 223 266 312
#     4   8  17  30  54  78  99 132 178 224 263 302
#     4  10  19  36  54  79 109 141 182 219 272 318
#     4  10  21  37  57  82 110 142 183 228 270 321
#
# _framework density 16.84572
#
# number of rings (size 3 to 8) (size 9 to 14) (size 15 to 20)
#    0.000    2.222    2.222    1.000    0.000    7.111 
#    4.000    0.000    0.000    0.000    0.000    5.444 
#    0.000    0.000    0.000    0.000    0.000    0.000 
#
# Total GULP energy -200537.465892 kJ/mol
# GULP energy per Si atom -5570.485164 kJ/mol
# Density = 1.680738 g / cm^3
# Si number density = 16.845720 Si / 1000 Ang^3
#
#
#
# Elastic Constant Matrix: (Units=GPa)
#
#
# Indices 1 2 3 4 5 6 
#
# 1 90.2766 78.8485 27.1806 0.0000 0.0000 0.0000
# 2 78.8485 136.9577 58.0221 0.0000 0.0000 0.0000
# 3 27.1806 58.0221 73.5977 0.0000 0.0000 0.0000
# 4 0.0000 0.0000 0.0000 25.8882 0.0000 0.0000
# 5 0.0000 0.0000 0.0000 0.0000 4.7520 0.0000
# 6 0.0000 0.0000 0.0000 0.0000 0.0000 31.0937
#
#
#
# Elastic Compliance Matrix: (Units=1/GPa)
#
#
# Indices 1 2 3 4 5 6 
#
# 1 0.022680 -0.014277 0.002880 0.000000 0.000000 0.000000
# 2 -0.014277 0.019951 -0.010456 0.000000 0.000000 0.000000
# 3 0.002880 -0.010456 0.020767 0.000000 0.000000 0.000000
# 4 0.000000 0.000000 0.000000 0.038628 0.000000 0.000000
# 5 0.000000 0.000000 0.000000 0.000000 0.210438 0.000000
# 6 0.000000 0.000000 0.000000 0.000000 0.000000 0.032161
#
#
# Mechanical properties :
#
#
# Convention : Reuss Voigt Hill
#
# Bulk Modulus (GPa) = 50.78475 69.88158 60.33316
# Shear Modulus (GPa) = 12.66166 21.46550 17.06358
#
# Velocity S-wave (km/s) = 2.74455 3.57352 3.18611
# Velocity P-wave (km/s) = 6.34475 7.65507 7.03050
#
# Compressibility (1/GPa) = 0.01969095
#
# Stress axis : x y z
#
# Youngs Moduli (GPa) = 44.09229 50.12402 48.15371
#
# Poissons Ratio (x) = 0.71562 -0.13866
# Poissons Ratio (y) = 0.62950 0.50348
# Poissons Ratio (z) = -0.12697 0.52408
#
# Static dielectric constant tensor:
#      x y z
#    x 1.529750 0.000000 0.000000 
#    y 0.000000 1.608080 0.000000 
#    z 0.000000 0.000000 1.561560 
# 
# From -- ./inp_files/15769.got.cif
#   From: 2010.05.17/outbox.cif.g08.bks.cpg/sg64_8_cif.got.tgz:15769.got - 2010.06.03 16:29:19.
