data_PCOD9477676
_publ_section_title
;
Structure prediction by ZEFSAII (Michael W. Deem and Ramdas Pophale) SiO2 
 PCOD9477676
Probable space group: C M C A
;
_chemical_formula_sum "Si O2"
_cell_formula_units_Z 112
_cell_length_a 13.819162
_cell_length_b 22.879272
_cell_length_c 15.551645
_cell_angle_alpha 90.000000
_cell_angle_beta 90.000000
_cell_angle_gamma 90.000000
_cell_volume 4917.000398
_symmetry_space_group_name_H-M "C M C A"
_symmetry_group_IT_number 64
_symmetry_cell_setting 'orthorhombic'
loop_
_space_group_symop_operation_xyz
x,y,z
-x,1/2-y,1/2+z
x,-y,-z
-x,1/2+y,1/2-z
-x,-y,-z
x,1/2+y,1/2-z
-x,y,z
x,1/2-y,1/2+z
1/2+x,1/2+y,z
1/2-x,-y,1/2+z
1/2+x,1/2-y,-z
1/2-x,y,1/2-z
1/2-x,1/2-y,-z
1/2+x,y,1/2-z
1/2-x,1/2+y,z
1/2+x,-y,1/2+z
loop_
_atom_site_type_symbol
_atom_site_label
_atom_site_fract_x
_atom_site_fract_y
_atom_site_fract_z
Si Si1 0.609794 0.144538 0.200429
Si Si2 0.315234 0.062842 0.540752
Si Si3 0.106640 0.888971 0.409900
Si Si4 0.612401 0.247092 0.949900
Si Si5 0.652345 0.396527 0.216998
Si Si6 0.307193 0.640074 0.118128
Si Si7 0.888329 0.224065 0.849720
O O1 0.500000 0.130721 0.174434
O O2 0.634228 0.123355 0.296230
O O3 0.695237 0.124464 0.137124
O O4 0.619784 0.215178 0.200581
O O5 0.201145 0.075111 0.561353
O O6 0.374955 0.071467 0.628947
O O7 0.343547 0.109532 0.467916
O O8 0.327449 0.000000 0.500000
O O9 0.127192 0.821294 0.433935
O O10 0.097584 0.892490 0.306437
O O11 0.000000 0.904682 0.446304
O O12 0.500000 0.259826 0.927609
O O13 0.679137 0.290702 0.896492
O O14 0.626359 0.261254 0.050319
O O15 0.750000 0.426532 0.250000
O O16 0.672252 0.330322 0.183958
O O17 0.000000 0.203882 0.839860
#
# Coordination Sequence:
#
# PCOD9477676 Si02
#       7
#    16  16  16  16  16  16  16
#     4  10  23  38  57  95 132 164 211 259 317 399
#     4  11  25  44  65  89 122 168 227 273 312 382
#     4  10  22  41  66  98 130 164 211 272 333 393
#     4  10  20  35  64 102 136 166 209 262 321 398
#     4  10  21  37  60  90 121 163 210 260 309 380
#     4  11  22  39  66  89 128 178 207 259 334 377
#     4  10  19  33  57  91 134 167 195 250 314 381
#
# _framework density 22.778116000000001
#
# number of rings (size 3 to 8) (size 9 to 14) (size 15 to 20)
#    0.000    1.714    1.429    2.571    6.000    5.429 
#    7.714    0.000    0.000    6.000    0.000    0.000 
#    0.000    0.000    0.000    0.000    0.000    0.000 
#
# Total GULP energy -312853.799451 kJ/mol
# GULP energy per Si atom -5586.674990 kJ/mol
# Density = 2.272627 g / cm^3
# Si number density = 22.778116 Si / 1000 Ang^3
#
#
#
# Elastic Constant Matrix: (Units=GPa)
#
#
# Indices 1 2 3 4 5 6 
#
# 1 67.9431 -4.4613 9.5839 0.0000 0.0000 0.0000
# 2 -4.4613 43.2175 22.7177 0.0000 0.0000 0.0000
# 3 9.5839 22.7177 128.8024 0.0000 0.0000 0.0000
# 4 0.0000 0.0000 0.0000 7.4493 0.0000 0.0000
# 5 0.0000 0.0000 0.0000 0.0000 18.7825 0.0000
# 6 0.0000 0.0000 0.0000 0.0000 0.0000 41.2464
#
#
#
# Elastic Compliance Matrix: (Units=1/GPa)
#
#
# Indices 1 2 3 4 5 6 
#
# 1 0.015091 0.002368 -0.001540 0.000000 0.000000 0.000000
# 2 0.002368 0.025875 -0.004740 0.000000 0.000000 0.000000
# 3 -0.001540 -0.004740 0.008714 0.000000 0.000000 0.000000
# 4 0.000000 0.000000 0.000000 0.134241 0.000000 0.000000
# 5 0.000000 0.000000 0.000000 0.000000 0.053241 0.000000
# 6 0.000000 0.000000 0.000000 0.000000 0.000000 0.024245
#
#
# Mechanical properties :
#
#
# Convention : Reuss Voigt Hill
#
# Bulk Modulus (GPa) = 23.89220 32.84930 28.37075
# Shear Modulus (GPa) = 17.65640 27.63716 22.64678
#
# Velocity S-wave (km/s) = 2.78717 3.48705 3.15657
# Velocity P-wave (km/s) = 4.56833 5.53764 5.07617
#
# Compressibility (1/GPa) = 0.04185467
#
# Stress axis : x y z
#
# Youngs Moduli (GPa) = 66.26489 38.64773 114.75190
#
# Poissons Ratio (x) = -0.09150 0.17677
# Poissons Ratio (y) = -0.15689 0.54391
# Poissons Ratio (z) = 0.10208 0.18319
#
# Static dielectric constant tensor:
#      x y z
#    x 1.938130 0.000000 0.000000 
#    y 0.000000 1.805250 0.000000 
#    z 0.000000 0.000000 1.849000 
# 
# From -- ./inp_files/24275.got.cif
#   From: 2010.05.17/outbox.cif.g08.bks.cpg/sg64_13_cif.got.tgz:24275.got - 2010.06.03 16:29:19.
