data_PCOD9477963
_publ_section_title
;
Structure prediction by ZEFSAII (Michael W. Deem and Ramdas Pophale) SiO2 
 PCOD9477963
Probable space group: C M C A
;
_chemical_formula_sum "Si O2"
_cell_formula_units_Z 80
_cell_length_a 14.985717
_cell_length_b 10.199836
_cell_length_c 27.022812
_cell_angle_alpha 90.000000
_cell_angle_beta 90.000000
_cell_angle_gamma 90.000000
_cell_volume 4130.486962
_symmetry_space_group_name_H-M "C M C A"
_symmetry_group_IT_number 64
_symmetry_cell_setting 'orthorhombic'
loop_
_space_group_symop_operation_xyz
x,y,z
-x,1/2-y,1/2+z
x,-y,-z
-x,1/2+y,1/2-z
-x,-y,-z
x,1/2+y,1/2-z
-x,y,z
x,1/2-y,1/2+z
1/2+x,1/2+y,z
1/2-x,-y,1/2+z
1/2+x,1/2-y,-z
1/2-x,y,1/2-z
1/2-x,1/2-y,-z
1/2+x,y,1/2-z
1/2-x,1/2+y,z
1/2+x,-y,1/2+z
loop_
_atom_site_type_symbol
_atom_site_label
_atom_site_fract_x
_atom_site_fract_y
_atom_site_fract_z
Si Si1 0.000000 0.986071 0.214639
Si Si2 0.392514 0.390320 0.961911
Si Si3 0.328747 0.512848 0.144225
Si Si4 0.323478 0.793019 0.867046
Si Si5 0.000000 0.808851 0.698297
Si Si6 0.107958 0.140793 0.476043
O O1 0.000000 0.831257 0.225975
O O2 0.088427 0.013967 0.182013
O O3 0.000000 0.074214 0.262999
O O4 0.500000 0.393339 0.961691
O O5 0.361806 0.429366 0.907925
O O6 0.359946 0.500000 0.000000
O O7 0.365890 0.250411 0.983790
O O8 0.299514 0.361347 0.136690
O O9 0.248615 0.610348 0.157302
O O10 0.414605 0.810700 0.837023
O O11 0.342850 0.832731 0.924138
O O12 0.000000 0.151813 0.467311
O O13 0.125606 0.000000 0.500000
#
# Coordination Sequence:
#
# PCOD9477963 Si02
#       6
#     8  16  16  16   8  16
#     4  10  24  48  70  93 122 161 210 260 325 378
#     4  10  19  35  63  89 125 174 212 248 298 369
#     4  11  24  41  65  97 127 165 212 256 310 376
#     4  11  24  42  65  94 131 166 208 258 312 372
#     4  10  24  48  72  90 124 163 204 267 323 376
#     4  10  21  37  59  92 132 171 213 252 305 366
#
# _framework density 19.368175999999998
#
# number of rings (size 3 to 8) (size 9 to 14) (size 15 to 20)
#    0.000    1.600    4.000    0.000    2.800    4.000 
#    0.000    4.000    0.000    0.000    0.000    0.000 
#    0.000    0.000    0.000    0.000    0.000    0.000 
#
# Total GULP energy -223529.077340 kJ/mol
# GULP energy per Si atom -5588.226934 kJ/mol
# Density = 1.932409 g / cm^3
# Si number density = 19.368176 Si / 1000 Ang^3
#
#
#
# Elastic Constant Matrix: (Units=GPa)
#
#
# Indices 1 2 3 4 5 6 
#
# 1 76.4896 51.9699 2.9698 0.0000 0.0000 0.0000
# 2 51.9699 163.6045 40.5704 0.0000 0.0000 0.0000
# 3 2.9698 40.5704 54.4354 0.0000 0.0000 0.0000
# 4 0.0000 0.0000 0.0000 36.0067 0.0000 0.0000
# 5 0.0000 0.0000 0.0000 0.0000 -6.3626 0.0000
# 6 0.0000 0.0000 0.0000 0.0000 0.0000 18.3349
#
#
#
# Elastic Compliance Matrix: (Units=1/GPa)
#
#
# Indices 1 2 3 4 5 6 
#
# 1 0.017312 -0.006459 0.003869 0.000000 0.000000 0.000000
# 2 -0.006459 0.009908 -0.007032 0.000000 0.000000 0.000000
# 3 0.003869 -0.007032 0.023400 0.000000 0.000000 0.000000
# 4 0.000000 0.000000 0.000000 0.027773 0.000000 0.000000
# 5 0.000000 0.000000 0.000000 0.000000 -0.157169 0.000000
# 6 0.000000 0.000000 0.000000 0.000000 0.000000 0.054541
#
#
# Mechanical properties :
#
#
# Convention : Reuss Voigt Hill
#
# Bulk Modulus (GPa) = 31.87066 53.94997 42.91031
# Shear Modulus (GPa) = 914.87656 22.86376 468.87016
#
# Velocity S-wave (km/s) = 21.75744 3.43954 15.57589
# Velocity P-wave (km/s) = 25.44941 6.60979 18.59250
#
# Compressibility (1/GPa) = 0.03137682
#
# Stress axis : x y z
#
# Youngs Moduli (GPa) = 57.76448 100.93228 42.73498
#
# Poissons Ratio (x) = 0.65188 -0.16535
# Poissons Ratio (y) = 0.37308 0.30050
# Poissons Ratio (z) = -0.22350 0.70973
#
# Static dielectric constant tensor:
#      x y z
#    x 1.722770 0.000000 0.000000 
#    y 0.000000 1.673760 0.000000 
#    z 0.000000 0.000000 1.625790 
# 
# From -- ./inp_files/49915.got.cif
#   From: 2010.05.17/outbox.cif.g08.bks.cpg/sg64_25_cif.got.tgz:49915.got - 2010.06.03 16:29:19.
