data_PCOD9477690
_publ_section_title
;
Structure prediction by ZEFSAII (Michael W. Deem and Ramdas Pophale) SiO2 
 PCOD9477690
Probable space group: C M C A
;
_chemical_formula_sum "Si O2"
_cell_formula_units_Z 72
_cell_length_a 26.911196
_cell_length_b 8.530124
_cell_length_c 13.900874
_cell_angle_alpha 90.000000
_cell_angle_beta 90.000000
_cell_angle_gamma 90.000000
_cell_volume 3191.026792
_symmetry_space_group_name_H-M "C M C A"
_symmetry_group_IT_number 64
_symmetry_cell_setting 'orthorhombic'
loop_
_space_group_symop_operation_xyz
x,y,z
-x,1/2-y,1/2+z
x,-y,-z
-x,1/2+y,1/2-z
-x,-y,-z
x,1/2+y,1/2-z
-x,y,z
x,1/2-y,1/2+z
1/2+x,1/2+y,z
1/2-x,-y,1/2+z
1/2+x,1/2-y,-z
1/2-x,y,1/2-z
1/2-x,1/2-y,-z
1/2+x,y,1/2-z
1/2-x,1/2+y,z
1/2+x,-y,1/2+z
loop_
_atom_site_type_symbol
_atom_site_label
_atom_site_fract_x
_atom_site_fract_y
_atom_site_fract_z
Si Si1 0.500000 0.522283 0.778722
Si Si2 0.893433 0.059990 0.150041
Si Si3 0.750000 0.155369 0.750000
Si Si4 0.107349 0.237930 0.472218
Si Si5 0.000000 0.341632 0.899509
Si Si6 0.321267 0.087225 0.168246
O O1 0.450590 0.439967 0.818074
O O2 0.500000 0.697434 0.821911
O O3 0.500000 0.499034 0.664103
O O4 0.859116 0.063413 0.243046
O O5 0.887395 0.897984 0.091225
O O6 0.882873 0.206622 0.080533
O O7 0.718430 0.051751 0.824709
O O8 0.711582 0.260749 0.691730
O O9 0.145814 0.118570 0.424860
O O10 0.050795 0.179307 0.458349
#
# Coordination Sequence:
#
# PCOD9477690 Si02
#       6
#     8  16   8  16   8  16
#     4  10  19  33  59  90 122 154 189 227 281 344
#     4  10  20  36  61  90 120 155 193 233 283 350
#     4  10  24  38  62  84 112 148 196 258 302 328
#     4  10  20  36  61  90 120 155 193 233 283 350
#     4  10  19  33  59  90 122 154 189 227 281 344
#     4  11  20  41  60  84 114 153 194 247 296 344
#
# _framework density 22.563271
#
# number of rings (size 3 to 8) (size 9 to 14) (size 15 to 20)
#    0.000    1.778    4.444    0.667    0.000    2.667 
#    0.000    7.778    0.000    1.333    0.000    0.000 
#    0.000    0.000    0.000    0.000    0.000    0.000 
#
# Total GULP energy -201492.843492 kJ/mol
# GULP energy per Si atom -5597.023430 kJ/mol
# Density = 2.251192 g / cm^3
# Si number density = 22.563271 Si / 1000 Ang^3
#
#
#
# Elastic Constant Matrix: (Units=GPa)
#
#
# Indices 1 2 3 4 5 6 
#
# 1 138.7869 46.9650 24.8178 0.0000 0.0000 0.0000
# 2 46.9650 78.9437 33.6168 0.0000 0.0000 0.0000
# 3 24.8178 33.6168 65.5770 0.0000 0.0000 0.0000
# 4 0.0000 0.0000 0.0000 29.1056 0.0000 0.0000
# 5 0.0000 0.0000 0.0000 0.0000 36.3687 0.0000
# 6 0.0000 0.0000 0.0000 0.0000 0.0000 30.5893
#
#
#
# Elastic Compliance Matrix: (Units=1/GPa)
#
#
# Indices 1 2 3 4 5 6 
#
# 1 0.009058 -0.005026 -0.000851 0.000000 0.000000 0.000000
# 2 -0.005026 0.018994 -0.007835 0.000000 0.000000 0.000000
# 3 -0.000851 -0.007835 0.019588 0.000000 0.000000 0.000000
# 4 0.000000 0.000000 0.000000 0.034358 0.000000 0.000000
# 5 0.000000 0.000000 0.000000 0.000000 0.027496 0.000000
# 6 0.000000 0.000000 0.000000 0.000000 0.000000 0.032691
#
#
# Mechanical properties :
#
#
# Convention : Reuss Voigt Hill
#
# Bulk Modulus (GPa) = 49.46814 54.90077 52.18446
# Shear Modulus (GPa) = 28.35297 31.07324 29.71311
#
# Velocity S-wave (km/s) = 3.54870 3.71504 3.63282
# Velocity P-wave (km/s) = 6.22598 6.54116 6.38551
#
# Compressibility (1/GPa) = 0.02021503
#
# Stress axis : x y z
#
# Youngs Moduli (GPa) = 110.39368 52.64879 51.05239
#
# Poissons Ratio (x) = 0.26464 0.04347
# Poissons Ratio (y) = 0.55489 0.39997
# Poissons Ratio (z) = 0.09400 0.41248
#
# Static dielectric constant tensor:
#      x y z
#    x 1.787020 0.000000 0.000000 
#    y 0.000000 1.890600 0.000000 
#    z 0.000000 0.000000 1.829970 
# 
# From -- ./inp_files/10048.got.cif
#   From: 2010.05.17/outbox.cif.g08.bks.cpg/sg64_6_cif.got.tgz:10048.got - 2010.06.03 16:29:19.
