data_PCOD9477916
_publ_section_title
;
Structure prediction by ZEFSAII (Michael W. Deem and Ramdas Pophale) SiO2 
 PCOD9477916
Probable space group: C M C A
;
_chemical_formula_sum "Si O2"
_cell_formula_units_Z 88
_cell_length_a 29.586978
_cell_length_b 8.059016
_cell_length_c 13.873395
_cell_angle_alpha 90.000000
_cell_angle_beta 90.000000
_cell_angle_gamma 90.000000
_cell_volume 3307.999067
_symmetry_space_group_name_H-M "C M C A"
_symmetry_group_IT_number 64
_symmetry_cell_setting 'orthorhombic'
loop_
_space_group_symop_operation_xyz
x,y,z
-x,1/2-y,1/2+z
x,-y,-z
-x,1/2+y,1/2-z
-x,-y,-z
x,1/2+y,1/2-z
-x,y,z
x,1/2-y,1/2+z
1/2+x,1/2+y,z
1/2-x,-y,1/2+z
1/2+x,1/2-y,-z
1/2-x,y,1/2-z
1/2-x,1/2-y,-z
1/2+x,y,1/2-z
1/2-x,1/2+y,z
1/2+x,-y,1/2+z
loop_
_atom_site_type_symbol
_atom_site_label
_atom_site_fract_x
_atom_site_fract_y
_atom_site_fract_z
Si Si1 0.401684 0.234634 0.821207
Si Si2 0.819701 0.981666 0.383682
Si Si3 0.324187 0.500000 0.000000
Si Si4 0.500000 0.771648 0.685950
Si Si5 0.500000 0.852834 0.392773
Si Si6 0.599415 0.379593 0.109534
Si Si7 0.757001 0.694469 0.388681
O O1 0.368008 0.094159 0.859148
O O2 0.453497 0.186900 0.843876
O O3 0.396912 0.426307 0.855973
O O4 0.396578 0.228491 0.705268
O O5 0.786012 0.839030 0.344483
O O6 0.817862 0.000000 0.500000
O O7 0.791033 0.140383 0.347144
O O8 0.358886 0.358698 0.037075
O O9 0.292869 0.546602 0.090365
O O10 0.500000 0.769387 0.801957
O O11 0.500000 0.960030 0.649786
O O12 0.449802 0.842157 0.437722
O O13 0.750000 0.750000 0.500000
#
# Coordination Sequence:
#
# PCOD9477916 Si02
#       7
#    16  16   8   8   8  16  16
#     4  10  20  39  58  88 114 151 194 238 288 345
#     4  10  20  36  61  81 113 155 195 232 291 345
#     4  12  20  35  60  84 112 151 190 242 284 344
#     4   8  16  32  59  78 114 150 183 232 292 343
#     4   8  16  35  54  84 112 152 181 234 287 346
#     4  10  22  36  62  85 119 148 195 236 291 345
#     4  10  19  35  59  79 111 152 190 232 288 343
#
# _framework density 26.602183
#
# number of rings (size 3 to 8) (size 9 to 14) (size 15 to 20)
#    0.000    2.182    4.545    0.000    0.000    3.273 
#    0.000    1.364    4.000    0.000    0.000    0.000 
#    0.000    0.000    0.000    0.273    0.000    0.000 
#
# Total GULP energy -245683.683570 kJ/mol
# GULP energy per Si atom -5583.720081 kJ/mol
# Density = 2.654164 g / cm^3
# Si number density = 26.602183 Si / 1000 Ang^3
#
#
#
# Elastic Constant Matrix: (Units=GPa)
#
#
# Indices 1 2 3 4 5 6 
#
# 1 180.5637 54.7470 2.0403 0.0000 0.0000 0.0000
# 2 54.7470 81.6968 17.0547 0.0000 0.0000 0.0000
# 3 2.0403 17.0547 74.6666 0.0000 0.0000 0.0000
# 4 0.0000 0.0000 0.0000 30.9854 0.0000 0.0000
# 5 0.0000 0.0000 0.0000 0.0000 40.6957 0.0000
# 6 0.0000 0.0000 0.0000 0.0000 0.0000 28.4710
#
#
#
# Elastic Compliance Matrix: (Units=1/GPa)
#
#
# Indices 1 2 3 4 5 6 
#
# 1 0.007011 -0.004891 0.000926 0.000000 0.000000 0.000000
# 2 -0.004891 0.016266 -0.003582 0.000000 0.000000 0.000000
# 3 0.000926 -0.003582 0.014186 0.000000 0.000000 0.000000
# 4 0.000000 0.000000 0.000000 0.032273 0.000000 0.000000
# 5 0.000000 0.000000 0.000000 0.000000 0.024573 0.000000
# 6 0.000000 0.000000 0.000000 0.000000 0.000000 0.035123
#
#
# Mechanical properties :
#
#
# Convention : Reuss Voigt Hill
#
# Bulk Modulus (GPa) = 44.70736 53.84569 49.27652
# Shear Modulus (GPa) = 32.89858 37.56943 35.23401
#
# Velocity S-wave (km/s) = 3.52047 3.76209 3.64329
# Velocity P-wave (km/s) = 5.77645 6.25749 6.02177
#
# Compressibility (1/GPa) = 0.02236768
#
# Stress axis : x y z
#
# Youngs Moduli (GPa) = 142.63679 61.47838 70.49372
#
# Poissons Ratio (x) = 0.30071 -0.06525
# Poissons Ratio (y) = 0.69769 0.25248
# Poissons Ratio (z) = -0.13203 0.22019
#
# Static dielectric constant tensor:
#      x y z
#    x 2.172960 0.000000 0.000000 
#    y 0.000000 2.207630 0.000000 
#    z 0.000000 0.000000 2.170010 
# 
# From -- ./inp_files/35743.got.cif
#   From: 2010.05.17/outbox.cif.g08.bks.cpg/sg64_18_cif.got.tgz:35743.got - 2010.06.03 16:29:19.
