data_PCOD9477925
_publ_section_title
;
Structure prediction by ZEFSAII (Michael W. Deem and Ramdas Pophale) SiO2 
 PCOD9477925
Probable space group: C M C A
;
_chemical_formula_sum "Si O2"
_cell_formula_units_Z 96
_cell_length_a 16.646900
_cell_length_b 8.910768
_cell_length_c 24.131520
_cell_angle_alpha 90.000000
_cell_angle_beta 90.000000
_cell_angle_gamma 90.000000
_cell_volume 3579.589170
_symmetry_space_group_name_H-M "C M C A"
_symmetry_group_IT_number 64
_symmetry_cell_setting 'orthorhombic'
loop_
_space_group_symop_operation_xyz
x,y,z
-x,1/2-y,1/2+z
x,-y,-z
-x,1/2+y,1/2-z
-x,-y,-z
x,1/2+y,1/2-z
-x,y,z
x,1/2-y,1/2+z
1/2+x,1/2+y,z
1/2-x,-y,1/2+z
1/2+x,1/2-y,-z
1/2-x,y,1/2-z
1/2-x,1/2-y,-z
1/2+x,y,1/2-z
1/2-x,1/2+y,z
1/2+x,-y,1/2+z
loop_
_atom_site_type_symbol
_atom_site_label
_atom_site_fract_x
_atom_site_fract_y
_atom_site_fract_z
Si Si1 0.500000 0.577175 0.241838
Si Si2 0.000000 0.816292 0.331302
Si Si3 0.340175 0.954391 0.118737
Si Si4 0.168949 0.295996 0.786576
Si Si5 0.667560 0.084631 0.620891
Si Si6 0.589571 0.181967 0.041487
Si Si7 0.183838 0.653518 0.464738
O O1 0.500000 0.418209 0.273837
O O2 0.415200 0.653857 0.259960
O O3 0.500000 0.636017 0.178210
O O4 0.919548 0.871127 0.361638
O O5 0.319720 0.076847 0.166299
O O6 0.259788 0.859245 0.110494
O O7 0.353888 0.050029 0.063301
O O8 0.250000 0.289430 0.750000
O O9 0.154878 0.133249 0.815663
O O10 0.671781 0.918310 0.596327
O O11 0.606158 0.184283 0.585431
O O12 0.500000 0.127075 0.047481
O O13 0.606224 0.248790 0.981526
O O14 0.182323 0.500000 0.500000
O O15 0.250000 0.750000 0.500000
#
# Coordination Sequence:
#
# PCOD9477925 Si02
#       7
#     8   8  16  16  16  16  16
#     4  10  22  38  58  85 117 164 210 271 315 383
#     4  10  20  36  62  85 120 162 220 255 322 379
#     4  10  19  35  59  88 116 166 208 255 310 387
#     4  10  22  38  57  83 123 162 213 263 319 377
#     4  10  21  33  59  89 120 155 212 259 307 372
#     4  10  20  37  61  93 126 161 207 263 319 379
#     4  10  20  36  61  94 123 164 208 258 316 385
#
# _framework density 26.818719999999999
#
# number of rings (size 3 to 8) (size 9 to 14) (size 15 to 20)
#    0.000    2.000    2.500    1.000    3.500    6.333 
#    0.000    0.000    1.833    0.500    8.667    0.000 
#    0.000    0.000    0.000    0.000    0.000    0.000 
#
# Total GULP energy -268151.707698 kJ/mol
# GULP energy per Si atom -5586.493910 kJ/mol
# Density = 2.675768 g / cm^3
# Si number density = 26.818720 Si / 1000 Ang^3
#
#
#
# Elastic Constant Matrix: (Units=GPa)
#
#
# Indices 1 2 3 4 5 6 
#
# 1 99.2690 4.7668 32.1366 0.0000 0.0000 0.0000
# 2 4.7668 123.2995 49.3897 0.0000 0.0000 0.0000
# 3 32.1366 49.3897 102.8590 0.0000 0.0000 0.0000
# 4 0.0000 0.0000 0.0000 47.2212 0.0000 0.0000
# 5 0.0000 0.0000 0.0000 0.0000 32.6447 0.0000
# 6 0.0000 0.0000 0.0000 0.0000 0.0000 29.4302
#
#
#
# Elastic Compliance Matrix: (Units=1/GPa)
#
#
# Indices 1 2 3 4 5 6 
#
# 1 0.011352 0.001216 -0.004131 0.000000 0.000000 0.000000
# 2 0.001216 0.010172 -0.005264 0.000000 0.000000 0.000000
# 3 -0.004131 -0.005264 0.013540 0.000000 0.000000 0.000000
# 4 0.000000 0.000000 0.000000 0.021177 0.000000 0.000000
# 5 0.000000 0.000000 0.000000 0.000000 0.030633 0.000000
# 6 0.000000 0.000000 0.000000 0.000000 0.000000 0.033979
#
#
# Mechanical properties :
#
#
# Convention : Reuss Voigt Hill
#
# Bulk Modulus (GPa) = 53.45694 55.33486 54.39590
# Shear Modulus (GPa) = 34.85614 37.80151 36.32883
#
# Velocity S-wave (km/s) = 3.60904 3.75843 3.68449
# Velocity P-wave (km/s) = 6.11088 6.28587 6.19899
#
# Compressibility (1/GPa) = 0.01870665
#
# Stress axis : x y z
#
# Youngs Moduli (GPa) = 88.08649 98.30951 73.85394
#
# Poissons Ratio (x) = -0.11952 0.30506
# Poissons Ratio (y) = -0.10709 0.38877
# Poissons Ratio (z) = 0.36385 0.51751
#
# Static dielectric constant tensor:
#      x y z
#    x 2.140560 0.000000 0.000000 
#    y 0.000000 2.151890 0.000000 
#    z 0.000000 0.000000 2.219890 
# 
# From -- ./inp_files/53198.got.cif
#   From: 2010.05.17/outbox.cif.g08.bks.cpg/sg64_27_cif.got.tgz:53198.got - 2010.06.03 16:29:19.
