data_PCOD9477807
_publ_section_title
;
Structure prediction by ZEFSAII (Michael W. Deem and Ramdas Pophale) SiO2 
 PCOD9477807
Probable space group: C M C A
;
_chemical_formula_sum "Si O2"
_cell_formula_units_Z 88
_cell_length_a 29.761410
_cell_length_b 24.217629
_cell_length_c 5.241316
_cell_angle_alpha 90.000000
_cell_angle_beta 90.000000
_cell_angle_gamma 90.000000
_cell_volume 3777.682626
_symmetry_space_group_name_H-M "C M C A"
_symmetry_group_IT_number 64
_symmetry_cell_setting 'orthorhombic'
loop_
_space_group_symop_operation_xyz
x,y,z
-x,1/2-y,1/2+z
x,-y,-z
-x,1/2+y,1/2-z
-x,-y,-z
x,1/2+y,1/2-z
-x,y,z
x,1/2-y,1/2+z
1/2+x,1/2+y,z
1/2-x,-y,1/2+z
1/2+x,1/2-y,-z
1/2-x,y,1/2-z
1/2-x,1/2-y,-z
1/2+x,y,1/2-z
1/2-x,1/2+y,z
1/2+x,-y,1/2+z
loop_
_atom_site_type_symbol
_atom_site_label
_atom_site_fract_x
_atom_site_fract_y
_atom_site_fract_z
Si Si1 0.500000 0.712781 0.961857
Si Si2 0.950004 0.896587 0.122403
Si Si3 0.798529 0.816501 0.291111
Si Si4 0.114843 0.233763 0.208796
Si Si5 0.096827 0.939141 0.613786
Si Si6 0.671716 0.129076 0.298806
O O1 0.500000 0.753949 0.723959
O O2 0.459705 0.667156 0.945188
O O3 0.917825 0.902067 0.368742
O O4 0.000000 0.918774 0.194500
O O5 0.932431 0.927439 0.868261
O O6 0.750000 0.789481 0.250000
O O7 0.839178 0.772135 0.269235
O O8 0.800635 0.845374 0.565115
O O9 0.804704 0.862711 0.069986
O O10 0.090649 0.238788 0.474442
O O11 0.130001 0.171622 0.174950
O O12 0.147750 0.926449 0.707606
O O13 0.091978 0.000000 0.500000
#
# Coordination Sequence:
#
# PCOD9477807 Si02
#       6
#     8  16  16  16  16  16
#     4  10  20  42  65  94 133 166 196 244 310 390
#     4  10  24  42  68  98 125 159 221 263 310 400
#     4  10  19  34  58  86 119 159 203 258 315 376
#     4   8  16  29  47  75 112 145 187 234 291 367
#     4  12  24  42  64  91 127 170 213 277 337 366
#     4  10  21  35  53  83 124 155 203 248 316 388
#
# _framework density 23.294702999999998
#
# number of rings (size 3 to 8) (size 9 to 14) (size 15 to 20)
#    0.545    1.455    0.000    3.818    0.000    8.727 
#    0.000   16.364    0.000    2.182    0.000    0.000 
#    0.000    0.000    0.000    0.000    0.000    0.000 
#
# Total GULP energy -245742.912397 kJ/mol
# GULP energy per Si atom -5585.066191 kJ/mol
# Density = 2.324168 g / cm^3
# Si number density = 23.294703 Si / 1000 Ang^3
#
#
#
# Elastic Constant Matrix: (Units=GPa)
#
#
# Indices 1 2 3 4 5 6 
#
# 1 75.9454 4.5585 2.7655 0.0000 0.0000 0.0000
# 2 4.5585 68.8243 9.3534 0.0000 0.0000 0.0000
# 3 2.7655 9.3534 159.9342 0.0000 0.0000 0.0000
# 4 0.0000 0.0000 0.0000 35.3487 0.0000 0.0000
# 5 0.0000 0.0000 0.0000 0.0000 29.3887 0.0000
# 6 0.0000 0.0000 0.0000 0.0000 0.0000 16.0873
#
#
#
# Elastic Compliance Matrix: (Units=1/GPa)
#
#
# Indices 1 2 3 4 5 6 
#
# 1 0.013225 -0.000852 -0.000179 0.000000 0.000000 0.000000
# 2 -0.000852 0.014701 -0.000845 0.000000 0.000000 0.000000
# 3 -0.000179 -0.000845 0.006305 0.000000 0.000000 0.000000
# 4 0.000000 0.000000 0.000000 0.028290 0.000000 0.000000
# 5 0.000000 0.000000 0.000000 0.000000 0.034027 0.000000
# 6 0.000000 0.000000 0.000000 0.000000 0.000000 0.062161
#
#
# Mechanical properties :
#
#
# Convention : Reuss Voigt Hill
#
# Bulk Modulus (GPa) = 32.80839 37.56207 35.18523
# Shear Modulus (GPa) = 28.96548 35.36670 32.16609
#
# Velocity S-wave (km/s) = 3.53006 3.90067 3.71999
# Velocity P-wave (km/s) = 5.54344 6.03711 5.79554
#
# Compressibility (1/GPa) = 0.03048001
#
# Stress axis : x y z
#
# Youngs Moduli (GPa) = 75.61447 68.02256 158.60214
#
# Poissons Ratio (x) = 0.05793 0.02837
# Poissons Ratio (y) = 0.06440 0.13402
# Poissons Ratio (z) = 0.01353 0.05748
#
# Static dielectric constant tensor:
#      x y z
#    x 2.013720 0.000000 0.000000 
#    y 0.000000 1.869650 0.000000 
#    z 0.000000 0.000000 1.946540 
# 
# From -- ./inp_files/3328.got.cif
#   From: 2010.05.17/outbox.cif.g08.bks.cpg/sg64_2_cif.got.tgz:3328.got - 2010.06.03 16:29:19.
