data_PCOD9477712
_publ_section_title
;
Structure prediction by ZEFSAII (Michael W. Deem and Ramdas Pophale) SiO2 
 PCOD9477712
Probable space group: C M C A
;
_chemical_formula_sum "Si O2"
_cell_formula_units_Z 64
_cell_length_a 31.318056
_cell_length_b 22.676940
_cell_length_c 5.005253
_cell_angle_alpha 90.000000
_cell_angle_beta 90.000000
_cell_angle_gamma 90.000000
_cell_volume 3554.719053
_symmetry_space_group_name_H-M "C M C A"
_symmetry_group_IT_number 64
_symmetry_cell_setting 'orthorhombic'
loop_
_space_group_symop_operation_xyz
x,y,z
-x,1/2-y,1/2+z
x,-y,-z
-x,1/2+y,1/2-z
-x,-y,-z
x,1/2+y,1/2-z
-x,y,z
x,1/2-y,1/2+z
1/2+x,1/2+y,z
1/2-x,-y,1/2+z
1/2+x,1/2-y,-z
1/2-x,y,1/2-z
1/2-x,1/2-y,-z
1/2+x,y,1/2-z
1/2-x,1/2+y,z
1/2+x,-y,1/2+z
loop_
_atom_site_type_symbol
_atom_site_label
_atom_site_fract_x
_atom_site_fract_y
_atom_site_fract_z
Si Si1 0.093528 0.206636 0.633288
Si Si2 0.700693 0.442677 0.805158
Si Si3 0.329675 0.619594 0.698254
Si Si4 0.500000 0.210814 0.965487
Si Si5 0.750000 0.706905 0.750000
O O1 0.098619 0.244514 0.902301
O O2 0.128105 0.155268 0.624031
O O3 0.045211 0.181890 0.604063
O O4 0.750000 0.424216 0.750000
O O5 0.680065 0.433288 0.511607
O O6 0.705182 0.500000 0.000000
O O7 0.671747 0.402462 0.997462
O O8 0.290401 0.665157 0.699786
O O9 0.500000 0.231047 0.273513
O O10 0.750000 0.750000 0.500000
#
# Coordination Sequence:
#
# PCOD9477712 Si02
#       5
#    16  16  16   8   8
#     4  10  19  34  53  81 113 145 176 215 259 323
#     4  12  23  40  56  75  99 138 188 242 273 307
#     4  12  22  36  54  79 106 143 181 219 271 322
#     4   8  16  30  52  76 107 142 179 214 254 304
#     4  12  22  34  48  74 112 146 170 202 254 328
#
# _framework density 18.004238000000001
#
# number of rings (size 3 to 8) (size 9 to 14) (size 15 to 20)
#    0.000    1.000    2.500    6.750    0.000    0.000 
#    0.000    0.000    0.000    0.000    0.000    5.250 
#    0.000    0.000    0.000    0.000    0.000    0.000 
#
# Total GULP energy -178223.931343 kJ/mol
# GULP energy per Si atom -5569.497854 kJ/mol
# Density = 1.796326 g / cm^3
# Si number density = 18.004238 Si / 1000 Ang^3
#
#
#
# Elastic Constant Matrix: (Units=GPa)
#
#
# Indices 1 2 3 4 5 6 
#
# 1 133.1900 29.5050 14.2208 0.0000 0.0000 0.0000
# 2 29.5050 39.6694 21.9739 0.0000 0.0000 0.0000
# 3 14.2208 21.9739 122.6691 0.0000 0.0000 0.0000
# 4 0.0000 0.0000 0.0000 26.5121 0.0000 0.0000
# 5 0.0000 0.0000 0.0000 0.0000 18.2268 0.0000
# 6 0.0000 0.0000 0.0000 0.0000 0.0000 -33.1769
#
#
#
# Elastic Compliance Matrix: (Units=1/GPa)
#
#
# Indices 1 2 3 4 5 6 
#
# 1 0.008992 -0.006784 0.000173 0.000000 0.000000 0.000000
# 2 -0.006784 0.033103 -0.005143 0.000000 0.000000 0.000000
# 3 0.000173 -0.005143 0.009053 0.000000 0.000000 0.000000
# 4 0.000000 0.000000 0.000000 0.037719 0.000000 0.000000
# 5 0.000000 0.000000 0.000000 0.000000 0.054864 0.000000
# 6 0.000000 0.000000 0.000000 0.000000 0.000000 -0.030141
#
#
# Mechanical properties :
#
#
# Convention : Reuss Voigt Hill
#
# Bulk Modulus (GPa) = 36.17988 47.43642 41.80815
# Shear Modulus (GPa) = 34.17336 17.63433 25.90384
#
# Velocity S-wave (km/s) = 4.36141 3.13302 3.79722
# Velocity P-wave (km/s) = 6.74547 6.28429 6.51896
#
# Compressibility (1/GPa) = 0.02763968
#
# Stress axis : x y z
#
# Youngs Moduli (GPa) = 111.20424 30.20861 110.45676
#
# Poissons Ratio (x) = 0.20494 -0.01908
# Poissons Ratio (y) = 0.75441 0.56812
# Poissons Ratio (z) = -0.01921 0.15537
#
# Static dielectric constant tensor:
#      x y z
#    x 1.615630 0.000000 0.000000 
#    y 0.000000 1.601660 0.000000 
#    z 0.000000 0.000000 1.625660 
# 
# From -- ./inp_files/2720.got.cif
#   From: 2010.05.17/outbox.cif.g08.bks.cpg/sg64_2_cif.got.tgz:2720.got - 2010.06.03 16:29:19.
