data_PCOD9477842
_publ_section_title
;
Structure prediction by ZEFSAII (Michael W. Deem and Ramdas Pophale) SiO2 
 PCOD9477842
Probable space group: C M C A
;
_chemical_formula_sum "Si O2"
_cell_formula_units_Z 96
_cell_length_a 13.933261
_cell_length_b 19.715094
_cell_length_c 15.693299
_cell_angle_alpha 90.000000
_cell_angle_beta 90.000000
_cell_angle_gamma 90.000000
_cell_volume 4310.879405
_symmetry_space_group_name_H-M "C M C A"
_symmetry_group_IT_number 64
_symmetry_cell_setting 'orthorhombic'
loop_
_space_group_symop_operation_xyz
x,y,z
-x,1/2-y,1/2+z
x,-y,-z
-x,1/2+y,1/2-z
-x,-y,-z
x,1/2+y,1/2-z
-x,y,z
x,1/2-y,1/2+z
1/2+x,1/2+y,z
1/2-x,-y,1/2+z
1/2+x,1/2-y,-z
1/2-x,y,1/2-z
1/2-x,1/2-y,-z
1/2+x,y,1/2-z
1/2-x,1/2+y,z
1/2+x,-y,1/2+z
loop_
_atom_site_type_symbol
_atom_site_label
_atom_site_fract_x
_atom_site_fract_y
_atom_site_fract_z
Si Si1 0.791438 0.579063 0.021602
Si Si2 0.884262 0.004889 0.789211
Si Si3 0.383492 0.875387 0.802922
Si Si4 0.613932 0.109099 0.564760
Si Si5 0.884156 0.616656 0.848141
Si Si6 0.883656 0.220571 0.793930
O O1 0.644844 0.572065 0.228226
O O2 0.843055 0.596302 0.108764
O O3 0.800995 0.500000 0.000000
O O4 0.680665 0.602413 0.016958
O O5 0.857924 0.045215 0.874482
O O6 0.855253 0.050733 0.707816
O O7 0.000000 0.006785 0.790213
O O8 0.500000 0.876008 0.806780
O O9 0.351689 0.797842 0.794199
O O10 0.341267 0.883607 0.058440
O O11 0.500000 0.107064 0.547501
O O12 0.636410 0.175263 0.622255
O O13 0.852661 0.679873 0.790131
O O14 0.000000 0.616118 0.853838
O O15 0.000000 0.221018 0.790248
#
# Coordination Sequence:
#
# PCOD9477842 Si02
#       6
#    16  16  16  16  16  16
#     4  12  23  33  57  96 125 158 195 256 322 361
#     4   8  15  31  57  83 111 153 201 249 291 345
#     4  10  19  34  60  96 129 150 190 256 316 367
#     4   9  20  39  60  79 113 168 217 248 292 368
#     4   9  17  33  56  86 123 158 195 236 301 375
#     4   8  17  35  60  85 116 165 205 238 291 365
#
# _framework density 22.269238999999999
#
# number of rings (size 3 to 8) (size 9 to 14) (size 15 to 20)
#    0.000    2.667    1.667    2.500    0.000    4.333 
#    0.000    0.000   11.000    0.000    0.000    1.167 
#    0.000    0.000    0.000    0.000    0.000    0.000 
#
# Total GULP energy -268401.998844 kJ/mol
# GULP energy per Si atom -5591.708309 kJ/mol
# Density = 2.221855 g / cm^3
# Si number density = 22.269239 Si / 1000 Ang^3
#
#
#
# Elastic Constant Matrix: (Units=GPa)
#
#
# Indices 1 2 3 4 5 6 
#
# 1 97.2609 14.9804 17.2831 0.0000 0.0000 0.0000
# 2 14.9804 175.4833 29.2367 0.0000 0.0000 0.0000
# 3 17.2831 29.2367 48.5371 0.0000 0.0000 0.0000
# 4 0.0000 0.0000 0.0000 15.4580 0.0000 0.0000
# 5 0.0000 0.0000 0.0000 0.0000 35.7013 0.0000
# 6 0.0000 0.0000 0.0000 0.0000 0.0000 7.2128
#
#
#
# Elastic Compliance Matrix: (Units=1/GPa)
#
#
# Indices 1 2 3 4 5 6 
#
# 1 0.010992 -0.000318 -0.003722 0.000000 0.000000 0.000000
# 2 -0.000318 0.006343 -0.003708 0.000000 0.000000 0.000000
# 3 -0.003722 -0.003708 0.024162 0.000000 0.000000 0.000000
# 4 0.000000 0.000000 0.000000 0.064691 0.000000 0.000000
# 5 0.000000 0.000000 0.000000 0.000000 0.028010 0.000000
# 6 0.000000 0.000000 0.000000 0.000000 0.000000 0.138643
#
#
# Mechanical properties :
#
#
# Convention : Reuss Voigt Hill
#
# Bulk Modulus (GPa) = 38.46073 49.36466 43.91269
# Shear Modulus (GPa) = 16.83473 28.99315 22.91394
#
# Velocity S-wave (km/s) = 2.75246 3.61215 3.21121
# Velocity P-wave (km/s) = 5.23542 6.29382 5.78886
#
# Compressibility (1/GPa) = 0.02600055
#
# Stress axis : x y z
#
# Youngs Moduli (GPa) = 90.97447 157.64303 41.38789
#
# Poissons Ratio (x) = 0.05016 0.15406
# Poissons Ratio (y) = 0.02895 0.15346
# Poissons Ratio (z) = 0.33864 0.58450
#
# Static dielectric constant tensor:
#      x y z
#    x 1.870250 0.000000 0.000000 
#    y 0.000000 1.818700 0.000000 
#    z 0.000000 0.000000 1.769680 
# 
# From -- ./inp_files/23856.got.cif
#   From: 2010.05.17/outbox.cif.g08.bks.cpg/sg64_12_cif.got.tgz:23856.got - 2010.06.03 16:29:19.
