data_PCOD9477463
_publ_section_title
;
Structure prediction by ZEFSAII (Michael W. Deem and Ramdas Pophale) SiO2 
 PCOD9477463
Probable space group: C M C A
;
_chemical_formula_sum "Si O2"
_cell_formula_units_Z 88
_cell_length_a 7.770458
_cell_length_b 19.520721
_cell_length_c 25.337287
_cell_angle_alpha 90.000000
_cell_angle_beta 90.000000
_cell_angle_gamma 90.000000
_cell_volume 3843.284926
_symmetry_space_group_name_H-M "C M C A"
_symmetry_group_IT_number 64
_symmetry_cell_setting 'orthorhombic'
loop_
_space_group_symop_operation_xyz
x,y,z
-x,1/2-y,1/2+z
x,-y,-z
-x,1/2+y,1/2-z
-x,-y,-z
x,1/2+y,1/2-z
-x,y,z
x,1/2-y,1/2+z
1/2+x,1/2+y,z
1/2-x,-y,1/2+z
1/2+x,1/2-y,-z
1/2-x,y,1/2-z
1/2-x,1/2-y,-z
1/2+x,y,1/2-z
1/2-x,1/2+y,z
1/2+x,-y,1/2+z
loop_
_atom_site_type_symbol
_atom_site_label
_atom_site_fract_x
_atom_site_fract_y
_atom_site_fract_z
Si Si1 0.703320 0.568946 0.973458
Si Si2 0.696086 0.242322 0.653117
Si Si3 0.297668 0.054721 0.169841
Si Si4 0.750000 0.341615 0.750000
Si Si5 0.293017 0.354573 0.573286
Si Si6 0.791276 0.407560 0.354072
O O1 0.500000 0.557678 0.966955
O O2 0.767655 0.584907 0.915062
O O3 0.778757 0.500000 0.000000
O O4 0.727500 0.630226 0.015092
O O5 0.500000 0.229023 0.635704
O O6 0.686719 0.288140 0.705664
O O7 0.773306 0.288734 0.606077
O O8 0.770295 0.167393 0.663973
O O9 0.500000 0.073521 0.178746
O O10 0.276261 0.974264 0.175790
O O11 0.184124 0.100917 0.208521
O O12 0.252785 0.079952 0.110772
O O13 0.500000 0.349992 0.570671
O O14 0.000000 0.411733 0.350623
#
# Coordination Sequence:
#
# PCOD9477463 Si02
#       6
#    16  16  16   8  16  16
#     4  10  19  32  52  84 120 153 189 230 279 335
#     4   9  20  39  58  81 112 149 190 234 288 344
#     4  10  21  37  57  84 111 141 187 236 281 337
#     4  10  20  38  60  78 104 142 184 236 290 342
#     4   9  18  34  57  80 110 150 190 228 272 332
#     4  10  21  37  58  83 117 153 187 233 285 338
#
# _framework density 22.897079000000002
#
# number of rings (size 3 to 8) (size 9 to 14) (size 15 to 20)
#    0.000    2.364    1.818    1.636    0.000    4.000 
#    0.000   10.000    0.000    0.000    0.000    0.000 
#    0.000    0.000    0.000    0.000    0.000    0.000 
#
# Total GULP energy -244995.166428 kJ/mol
# GULP energy per Si atom -5568.071964 kJ/mol
# Density = 2.284496 g / cm^3
# Si number density = 22.897079 Si / 1000 Ang^3
#
#
#
# Elastic Constant Matrix: (Units=GPa)
#
#
# Indices 1 2 3 4 5 6 
#
# 1 41.2846 17.3111 10.8991 0.0000 0.0000 0.0000
# 2 17.3111 192.6858 29.6602 0.0000 0.0000 0.0000
# 3 10.8991 29.6602 71.6066 0.0000 0.0000 0.0000
# 4 0.0000 0.0000 0.0000 22.1550 0.0000 0.0000
# 5 0.0000 0.0000 0.0000 0.0000 -51.3456 0.0000
# 6 0.0000 0.0000 0.0000 0.0000 0.0000 0.1599
#
#
#
# Elastic Compliance Matrix: (Units=1/GPa)
#
#
# Indices 1 2 3 4 5 6 
#
# 1 0.025828 -0.001832 -0.003172 0.000000 0.000000 0.000000
# 2 -0.001832 0.005673 -0.002071 0.000000 0.000000 0.000000
# 3 -0.003172 -0.002071 0.015306 0.000000 0.000000 0.000000
# 4 0.000000 0.000000 0.000000 0.045137 0.000000 0.000000
# 5 0.000000 0.000000 0.000000 0.000000 -0.019476 0.000000
# 6 0.000000 0.000000 0.000000 0.000000 0.000000 6.255113
#
#
# Mechanical properties :
#
#
# Convention : Reuss Voigt Hill
#
# Bulk Modulus (GPa) = 30.62227 46.81310 38.71769
# Shear Modulus (GPa) = 0.78708 10.70762 5.74735
#
# Velocity S-wave (km/s) = 0.58693 2.16485 1.58604
# Velocity P-wave (km/s) = 3.72320 5.17089 4.50557
#
# Compressibility (1/GPa) = 0.03265597
#
# Stress axis : x y z
#
# Youngs Moduli (GPa) = 38.71795 176.26774 65.33432
#
# Poissons Ratio (x) = 0.32293 0.20726
# Poissons Ratio (y) = 0.07093 0.13531
# Poissons Ratio (z) = 0.12283 0.36506
#
# Static dielectric constant tensor:
#      x y z
#    x 1.874470 0.000000 0.000000 
#    y 0.000000 1.874900 0.000000 
#    z 0.000000 0.000000 1.853010 
# 
# From -- ./inp_files/51870.got.cif
#   From: 2010.05.17/outbox.cif.g08.bks.cpg/sg64_26_cif.got.tgz:51870.got - 2010.06.03 16:29:19.
