data_PCOD9477768
_publ_section_title
;
Structure prediction by ZEFSAII (Michael W. Deem and Ramdas Pophale) SiO2 
 PCOD9477768
Probable space group: C M C A
;
_chemical_formula_sum "Si O2"
_cell_formula_units_Z 116
_cell_length_a 9.520013
_cell_length_b 22.939183
_cell_length_c 30.567988
_cell_angle_alpha 90.000000
_cell_angle_beta 90.000000
_cell_angle_gamma 90.000000
_cell_volume 6675.477580
_symmetry_space_group_name_H-M "C M C A"
_symmetry_group_IT_number 64
_symmetry_cell_setting 'orthorhombic'
loop_
_space_group_symop_operation_xyz
x,y,z
-x,1/2-y,1/2+z
x,-y,-z
-x,1/2+y,1/2-z
-x,-y,-z
x,1/2+y,1/2-z
-x,y,z
x,1/2-y,1/2+z
1/2+x,1/2+y,z
1/2-x,-y,1/2+z
1/2+x,1/2-y,-z
1/2-x,y,1/2-z
1/2-x,1/2-y,-z
1/2+x,y,1/2-z
1/2-x,1/2+y,z
1/2+x,-y,1/2+z
loop_
_atom_site_type_symbol
_atom_site_label
_atom_site_fract_x
_atom_site_fract_y
_atom_site_fract_z
Si Si1 0.664804 0.348290 0.918948
Si Si2 0.834686 0.788835 0.407806
Si Si3 0.244456 0.966712 0.064395
Si Si4 0.842891 0.439497 0.870462
Si Si5 0.831454 0.966909 0.295152
Si Si6 0.500000 0.000000 0.500000
Si Si7 0.164173 0.618296 0.643200
Si Si8 0.340158 0.362516 0.493366
O O1 0.500000 0.360303 0.923038
O O2 0.683998 0.280259 0.907734
O O3 0.734009 0.389482 0.882672
O O4 0.737950 0.360012 0.965570
O O5 0.736438 0.822376 0.373608
O O6 0.804249 0.814311 0.456400
O O7 0.000000 0.802680 0.399494
O O8 0.177816 0.925036 0.101576
O O9 0.326831 0.923895 0.031808
O O10 0.335556 0.014069 0.089767
O O11 0.122073 0.996934 0.037679
O O12 0.812528 0.477454 0.827275
O O13 0.000000 0.415343 0.867471
O O14 0.750000 0.976351 0.250000
O O15 0.757193 0.912315 0.319359
O O16 0.000000 0.958150 0.289955
O O17 0.000000 0.624711 0.654807
O O18 0.500000 0.353201 0.508011
#
# Coordination Sequence:
#
# PCOD9477768 Si02
#       8
#    16  16  16  16  16   4  16  16
#     4  11  23  34  50  74 106 145 191 234 275 318
#     4   9  20  37  52  73 104 145 187 234 280 323
#     4  10  21  31  49  73 106 141 182 227 274 319
#     4  10  22  38  55  76 110 147 184 222 278 337
#     4  10  21  38  62  90 115 140 169 215 272 340
#     4  12  20  28  42  72 108 140 178 220 264 310
#     4  10  19  34  56  83 108 138 176 222 273 323
#     4  10  20  34  52  70 100 142 193 239 282 323
#
# _framework density 17.377033999999998
#
# number of rings (size 3 to 8) (size 9 to 14) (size 15 to 20)
#    0.000    1.931    0.690    2.897    3.862    6.069 
#    0.000    2.069    0.000    0.828    0.000    1.931 
#    0.000    0.000    0.000    0.000    0.000    0.000 
#
# Total GULP energy -323267.423512 kJ/mol
# GULP energy per Si atom -5573.576267 kJ/mol
# Density = 1.733748 g / cm^3
# Si number density = 17.377034 Si / 1000 Ang^3
#
#
#
# Elastic Constant Matrix: (Units=GPa)
#
#
# Indices 1 2 3 4 5 6 
#
# 1 138.8226 60.4216 77.6333 0.0000 0.0000 0.0000
# 2 60.4216 79.2825 39.8554 0.0000 0.0000 0.0000
# 3 77.6333 39.8554 104.7481 0.0000 0.0000 0.0000
# 4 0.0000 0.0000 0.0000 13.1981 0.0000 0.0000
# 5 0.0000 0.0000 0.0000 0.0000 20.7539 0.0000
# 6 0.0000 0.0000 0.0000 0.0000 0.0000 18.1498
#
#
#
# Elastic Compliance Matrix: (Units=1/GPa)
#
#
# Indices 1 2 3 4 5 6 
#
# 1 0.015058 -0.007253 -0.008400 0.000000 0.000000 0.000000
# 2 -0.007253 0.019090 -0.001888 0.000000 0.000000 0.000000
# 3 -0.008400 -0.001888 0.016491 0.000000 0.000000 0.000000
# 4 0.000000 0.000000 0.000000 0.075769 0.000000 0.000000
# 5 0.000000 0.000000 0.000000 0.000000 0.048184 0.000000
# 6 0.000000 0.000000 0.000000 0.000000 0.000000 0.055097
#
#
# Mechanical properties :
#
#
# Convention : Reuss Voigt Hill
#
# Bulk Modulus (GPa) = 64.28383 75.40820 69.84602
# Shear Modulus (GPa) = 18.52154 20.08321 19.30237
#
# Velocity S-wave (km/s) = 3.26830 3.40330 3.33648
# Velocity P-wave (km/s) = 7.16353 7.67677 7.42459
#
# Compressibility (1/GPa) = 0.01555601
#
# Stress axis : x y z
#
# Youngs Moduli (GPa) = 66.41013 52.38443 60.63901
#
# Poissons Ratio (x) = 0.37993 0.50940
# Poissons Ratio (y) = 0.48166 0.11449
# Poissons Ratio (z) = 0.55788 0.09890
#
# Static dielectric constant tensor:
#      x y z
#    x 1.585210 0.000000 0.000000 
#    y 0.000000 1.604370 0.000000 
#    z 0.000000 0.000000 1.570020 
# 
# From -- ./inp_files/48560.got.cif
#   From: 2010.05.17/outbox.cif.g08.bks.cpg/sg64_25_cif.got.tgz:48560.got - 2010.06.03 16:29:19.
