data_PCOD9477555
_publ_section_title
;
Structure prediction by ZEFSAII (Michael W. Deem and Ramdas Pophale) SiO2 
 PCOD9477555
Probable space group: C M C A
;
_chemical_formula_sum "Si O2"
_cell_formula_units_Z 128
_cell_length_a 24.234833
_cell_length_b 20.221501
_cell_length_c 11.920992
_cell_angle_alpha 90.000000
_cell_angle_beta 90.000000
_cell_angle_gamma 90.000000
_cell_volume 5842.057365
_symmetry_space_group_name_H-M "C M C A"
_symmetry_group_IT_number 64
_symmetry_cell_setting 'orthorhombic'
loop_
_space_group_symop_operation_xyz
x,y,z
-x,1/2-y,1/2+z
x,-y,-z
-x,1/2+y,1/2-z
-x,-y,-z
x,1/2+y,1/2-z
-x,y,z
x,1/2-y,1/2+z
1/2+x,1/2+y,z
1/2-x,-y,1/2+z
1/2+x,1/2-y,-z
1/2-x,y,1/2-z
1/2-x,1/2-y,-z
1/2+x,y,1/2-z
1/2-x,1/2+y,z
1/2+x,-y,1/2+z
loop_
_atom_site_type_symbol
_atom_site_label
_atom_site_fract_x
_atom_site_fract_y
_atom_site_fract_z
Si Si1 0.934554 0.620825 0.739199
Si Si2 0.228059 0.826724 0.128640
Si Si3 0.437610 0.656450 0.343916
Si Si4 0.226656 0.173553 0.398217
Si Si5 0.157410 0.640135 0.290541
Si Si6 0.565797 0.726382 0.579415
Si Si7 0.933707 0.503823 0.125881
Si Si8 0.881508 0.861818 0.010829
O O1 0.911778 0.553736 0.794780
O O2 0.925301 0.620999 0.606128
O O3 0.000000 0.622670 0.757218
O O4 0.914796 0.683632 0.812984
O O5 0.250000 0.845234 0.250000
O O6 0.211130 0.749152 0.128067
O O7 0.174143 0.863569 0.084397
O O8 0.273667 0.835836 0.031077
O O9 0.500000 0.673459 0.310948
O O10 0.391397 0.684539 0.262288
O O11 0.431168 0.676668 0.472392
O O12 0.427789 0.578163 0.331007
O O13 0.190219 0.122810 0.325215
O O14 0.290416 0.170483 0.357652
O O15 0.129002 0.599686 0.393162
O O16 0.500000 0.743875 0.590339
O O17 0.600642 0.789405 0.536294
O O18 0.000000 0.493765 0.117658
O O19 0.911087 0.500000 0.000000
#
# Coordination Sequence:
#
# PCOD9477555 Si02
#       8
#    16  16  16  16  16  16  16  16
#     4  10  21  37  56  79 114 156 191 233 286 337
#     4  10  19  33  52  76 106 142 186 238 279 328
#     4  10  20  33  56  85 108 142 187 236 281 330
#     4   9  19  34  52  74 106 147 192 226 277 332
#     4  10  20  36  51  77 112 148 188 225 276 349
#     4  10  21  33  48  77 114 153 190 222 276 345
#     4   9  16  35  58  79 107 140 196 248 275 319
#     4  11  24  33  51  80 119 153 179 227 293 347
#
# _framework density 21.910088999999999
#
# number of rings (size 3 to 8) (size 9 to 14) (size 15 to 20)
#    0.000    2.125    2.500    1.125    3.500    2.000 
#    0.000    0.625    0.000    2.250    3.250    0.000 
#    0.000    0.000    0.000    0.000    0.000    0.000 
#
# Total GULP energy -356288.512076 kJ/mol
# GULP energy per Si atom -5567.008001 kJ/mol
# Density = 2.186022 g / cm^3
# Si number density = 21.910089 Si / 1000 Ang^3
#
#
#
# Elastic Constant Matrix: (Units=GPa)
#
#
# Indices 1 2 3 4 5 6 
#
# 1 62.9663 1.4763 30.1075 0.0000 0.0000 0.0000
# 2 1.4763 43.5960 37.3566 0.0000 0.0000 0.0000
# 3 30.1075 37.3566 180.4761 0.0000 0.0000 0.0000
# 4 0.0000 0.0000 0.0000 6.6720 0.0000 0.0000
# 5 0.0000 0.0000 0.0000 0.0000 40.2089 0.0000
# 6 0.0000 0.0000 0.0000 0.0000 0.0000 -1.8267
#
#
#
# Elastic Compliance Matrix: (Units=1/GPa)
#
#
# Indices 1 2 3 4 5 6 
#
# 1 0.017448 0.002314 -0.003390 0.000000 0.000000 0.000000
# 2 0.002314 0.028190 -0.006221 0.000000 0.000000 0.000000
# 3 -0.003390 -0.006221 0.007394 0.000000 0.000000 0.000000
# 4 0.000000 0.000000 0.000000 0.149881 0.000000 0.000000
# 5 0.000000 0.000000 0.000000 0.000000 0.024870 0.000000
# 6 0.000000 0.000000 0.000000 0.000000 0.000000 -0.547420
#
#
# Mechanical properties :
#
#
# Convention : Reuss Voigt Hill
#
# Bulk Modulus (GPa) = 26.01570 47.21324 36.61447
# Shear Modulus (GPa) = -17.10980 23.55069 3.22044
#
# Velocity S-wave (km/s) = -2.79751 3.28209 1.21369
# Velocity P-wave (km/s) = 1.21033 5.99652 4.32569
#
# Compressibility (1/GPa) = 0.03843833
#
# Stress axis : x y z
#
# Youngs Moduli (GPa) = 57.31302 35.47328 135.24375
#
# Poissons Ratio (x) = -0.08207 0.45843
# Poissons Ratio (y) = -0.13260 0.84136
# Poissons Ratio (z) = 0.19427 0.22068
#
# Static dielectric constant tensor:
#      x y z
#    x 1.878590 0.000000 0.000000 
#    y 0.000000 1.849400 0.000000 
#    z 0.000000 0.000000 1.905500 
# 
# From -- ./inp_files/18684.got.cif
#   From: 2010.05.17/outbox.cif.g08.bks.cpg/sg64_10_cif.got.tgz:18684.got - 2010.06.03 16:29:19.
