data_PCOD9477039
_publ_section_title
;
Structure prediction by ZEFSAII (Michael W. Deem and Ramdas Pophale) SiO2 
 PCOD9477039
Probable space group: C M C A
;
_chemical_formula_sum "Si O2"
_cell_formula_units_Z 104
_cell_length_a 27.814504
_cell_length_b 17.254733
_cell_length_c 10.083605
_cell_angle_alpha 90.000000
_cell_angle_beta 90.000000
_cell_angle_gamma 90.000000
_cell_volume 4839.443102
_symmetry_space_group_name_H-M "C M C A"
_symmetry_group_IT_number 64
_symmetry_cell_setting 'orthorhombic'
loop_
_space_group_symop_operation_xyz
x,y,z
-x,1/2-y,1/2+z
x,-y,-z
-x,1/2+y,1/2-z
-x,-y,-z
x,1/2+y,1/2-z
-x,y,z
x,1/2-y,1/2+z
1/2+x,1/2+y,z
1/2-x,-y,1/2+z
1/2+x,1/2-y,-z
1/2-x,y,1/2-z
1/2-x,1/2-y,-z
1/2+x,y,1/2-z
1/2-x,1/2+y,z
1/2+x,-y,1/2+z
loop_
_atom_site_type_symbol
_atom_site_label
_atom_site_fract_x
_atom_site_fract_y
_atom_site_fract_z
Si Si1 0.605224 0.588674 0.276430
Si Si2 0.895839 0.158671 0.993230
Si Si3 0.000000 0.405790 0.791117
Si Si4 0.294692 0.326561 0.681899
Si Si5 0.000000 0.413509 0.203270
Si Si6 0.894672 0.093746 0.699788
Si Si7 0.178789 0.712854 0.912613
Si Si8 0.500000 0.649323 0.994439
O O1 0.553811 0.623089 0.327702
O O2 0.653637 0.631726 0.318367
O O3 0.607795 0.498659 0.314233
O O4 0.604709 0.599513 0.116760
O O5 0.888732 0.116515 0.854097
O O6 0.949739 0.194192 0.990914
O O7 0.856113 0.222707 0.022003
O O8 0.000000 0.495844 0.829746
O O9 0.000000 0.397942 0.631141
O O10 0.250000 0.370663 0.750000
O O11 0.284559 0.310225 0.528268
O O12 0.301381 0.252117 0.778675
O O13 0.051170 0.380461 0.158572
O O14 0.000000 0.404112 0.363555
O O15 0.853856 0.139620 0.623818
#
# Coordination Sequence:
#
# PCOD9477039 Si02
#       8
#    16  16   8  16   8  16  16   8
#     4   9  19  34  62  88 123 158 198 255 295 361
#     4   9  17  32  54  87 121 165 202 245 294 357
#     4   8  13  28  50  87 118 157 197 232 305 356
#     4  11  24  44  65  87 117 157 202 251 307 363
#     4   8  15  25  48  84 123 162 194 242 288 362
#     4  10  18  34  58  89 125 160 205 244 303 355
#     4  11  22  39  64  86 118 158 200 251 304 363
#     4   8  13  23  46  79 121 158 204 241 283 344
#
# _framework density 21.490075999999998
#
# number of rings (size 3 to 8) (size 9 to 14) (size 15 to 20)
#    0.000    2.462    1.538    1.154    0.000    4.923 
#    0.000    3.077    6.769    2.769    0.000    0.000 
#    0.000    0.000    0.000    0.000    0.000    0.000 
#
# Total GULP energy -289936.265129 kJ/mol
# GULP energy per Si atom -5575.697406 kJ/mol
# Density = 2.144116 g / cm^3
# Si number density = 21.490076 Si / 1000 Ang^3
#
#
#
# Elastic Constant Matrix: (Units=GPa)
#
#
# Indices 1 2 3 4 5 6 
#
# 1 105.9900 29.4561 12.6911 0.0000 0.0000 0.0000
# 2 29.4561 52.5290 21.9403 0.0000 0.0000 0.0000
# 3 12.6911 21.9403 90.4192 0.0000 0.0000 0.0000
# 4 0.0000 0.0000 0.0000 6.5378 0.0000 0.0000
# 5 0.0000 0.0000 0.0000 0.0000 14.8724 0.0000
# 6 0.0000 0.0000 0.0000 0.0000 0.0000 29.4390
#
#
#
# Elastic Compliance Matrix: (Units=1/GPa)
#
#
# Indices 1 2 3 4 5 6 
#
# 1 0.011177 -0.006245 -0.000053 0.000000 0.000000 0.000000
# 2 -0.006245 0.024674 -0.005111 0.000000 0.000000 0.000000
# 3 -0.000053 -0.005111 0.012307 0.000000 0.000000 0.000000
# 4 0.000000 0.000000 0.000000 0.152956 0.000000 0.000000
# 5 0.000000 0.000000 0.000000 0.000000 0.067239 0.000000
# 6 0.000000 0.000000 0.000000 0.000000 0.000000 0.033969
#
#
# Mechanical properties :
#
#
# Convention : Reuss Voigt Hill
#
# Bulk Modulus (GPa) = 39.46408 41.90150 40.68279
# Shear Modulus (GPa) = 14.98866 22.49323 18.74094
#
# Velocity S-wave (km/s) = 2.64383 3.23875 2.95629
# Velocity P-wave (km/s) = 5.26531 5.79020 5.53398
#
# Compressibility (1/GPa) = 0.02533950
#
# Stress axis : x y z
#
# Youngs Moduli (GPa) = 89.47038 40.52887 81.25345
#
# Poissons Ratio (x) = 0.25311 0.00434
# Poissons Ratio (y) = 0.55877 0.41525
# Poissons Ratio (z) = 0.00477 0.20712
#
# Static dielectric constant tensor:
#      x y z
#    x 1.845570 0.000000 0.000000 
#    y 0.000000 1.737810 0.000000 
#    z 0.000000 0.000000 1.795670 
# 
# From -- ./inp_files/19242.got.cif
#   From: 2010.05.17/outbox.cif.g08.bks.cpg/sg64_10_cif.got.tgz:19242.got - 2010.06.03 16:29:19.
