data_PCOD9477511
_publ_section_title
;
Structure prediction by ZEFSAII (Michael W. Deem and Ramdas Pophale) SiO2 
 PCOD9477511
Probable space group: C M C A
;
_chemical_formula_sum "Si O2"
_cell_formula_units_Z 80
_cell_length_a 19.416635
_cell_length_b 13.598401
_cell_length_c 14.240375
_cell_angle_alpha 90.000000
_cell_angle_beta 90.000000
_cell_angle_gamma 90.000000
_cell_volume 3759.960102
_symmetry_space_group_name_H-M "C M C A"
_symmetry_group_IT_number 64
_symmetry_cell_setting 'orthorhombic'
loop_
_space_group_symop_operation_xyz
x,y,z
-x,1/2-y,1/2+z
x,-y,-z
-x,1/2+y,1/2-z
-x,-y,-z
x,1/2+y,1/2-z
-x,y,z
x,1/2-y,1/2+z
1/2+x,1/2+y,z
1/2-x,-y,1/2+z
1/2+x,1/2-y,-z
1/2-x,y,1/2-z
1/2-x,1/2-y,-z
1/2+x,y,1/2-z
1/2-x,1/2+y,z
1/2+x,-y,1/2+z
loop_
_atom_site_type_symbol
_atom_site_label
_atom_site_fract_x
_atom_site_fract_y
_atom_site_fract_z
Si Si1 0.920777 0.547572 0.223163
Si Si2 0.075900 0.079140 0.914844
Si Si3 0.300530 0.576392 0.661456
Si Si4 0.707207 0.150125 0.507654
Si Si5 0.821961 0.304411 0.695768
O O1 0.919323 0.478856 0.316931
O O2 0.864748 0.496345 0.156470
O O3 0.887325 0.651800 0.250672
O O4 0.000000 0.553800 0.191988
O O5 0.137482 0.154907 0.931361
O O6 0.000000 0.124519 0.921303
O O7 0.081615 0.000000 0.000000
O O8 0.250000 0.553801 0.750000
O O9 0.254742 0.578533 0.568216
O O10 0.327689 0.688162 0.676471
O O11 0.750000 0.250000 0.500000
O O12 0.685706 0.133877 0.400539
O O13 0.750000 0.317126 0.750000
#
# Coordination Sequence:
#
# PCOD9477511 Si02
#       5
#    16  16  16  16  16
#     4  11  22  36  57  85 119 156 188 238 304 354
#     4  10  19  32  55  87 114 141 188 244 293 343
#     4  10  20  37  59  86 116 147 196 245 293 351
#     4  10  20  36  59  85 114 152 193 244 298 347
#     4  10  22  37  58  85 113 151 198 242 289 351
#
# _framework density 21.276820000000001
#
# number of rings (size 3 to 8) (size 9 to 14) (size 15 to 20)
#    0.000    1.800    4.000    0.600    0.000    0.800 
#    0.000    3.000    0.000    2.400    0.000    0.000 
#    0.000    0.000    0.000    0.000    0.000    0.000 
#
# Total GULP energy -223407.203382 kJ/mol
# GULP energy per Si atom -5585.180085 kJ/mol
# Density = 2.122839 g / cm^3
# Si number density = 21.276820 Si / 1000 Ang^3
#
#
#
# Elastic Constant Matrix: (Units=GPa)
#
#
# Indices 1 2 3 4 5 6 
#
# 1 167.2383 43.3836 0.9763 0.0000 0.0000 0.0000
# 2 43.3836 73.8200 -1.7196 0.0000 0.0000 0.0000
# 3 0.9763 -1.7196 30.2961 0.0000 0.0000 0.0000
# 4 0.0000 0.0000 0.0000 22.5828 0.0000 0.0000
# 5 0.0000 0.0000 0.0000 0.0000 20.9525 0.0000
# 6 0.0000 0.0000 0.0000 0.0000 0.0000 25.4986
#
#
#
# Elastic Compliance Matrix: (Units=1/GPa)
#
#
# Indices 1 2 3 4 5 6 
#
# 1 0.007062 -0.004161 -0.000464 0.000000 0.000000 0.000000
# 2 -0.004161 0.016016 0.001043 0.000000 0.000000 0.000000
# 3 -0.000464 0.001043 0.033082 0.000000 0.000000 0.000000
# 4 0.000000 0.000000 0.000000 0.044282 0.000000 0.000000
# 5 0.000000 0.000000 0.000000 0.000000 0.047727 0.000000
# 6 0.000000 0.000000 0.000000 0.000000 0.000000 0.039218
#
#
# Mechanical properties :
#
#
# Convention : Reuss Voigt Hill
#
# Bulk Modulus (GPa) = 20.40965 39.62613 30.01789
# Shear Modulus (GPa) = 23.71008 29.05437 26.38223
#
# Velocity S-wave (km/s) = 3.34183 3.69933 3.52511
# Velocity P-wave (km/s) = 4.95012 6.07546 5.54143
#
# Compressibility (1/GPa) = 0.04899643
#
# Stress axis : x y z
#
# Youngs Moduli (GPa) = 141.61147 62.43728 30.22823
#
# Poissons Ratio (x) = 0.25979 0.01402
# Poissons Ratio (y) = 0.58922 -0.03153
# Poissons Ratio (z) = 0.06567 -0.06513
#
# Static dielectric constant tensor:
#      x y z
#    x 1.779020 0.000000 0.000000 
#    y 0.000000 1.789990 0.000000 
#    z 0.000000 0.000000 1.815100 
# 
# From -- ./inp_files/25299.got.cif
#   From: 2010.05.17/outbox.cif.g08.bks.cpg/sg64_13_cif.got.tgz:25299.got - 2010.06.03 16:29:19.
