data_PCOD9477037
_publ_section_title
;
Structure prediction by ZEFSAII (Michael W. Deem and Ramdas Pophale) SiO2 
 PCOD9477037
Probable space group: C M C A
;
_chemical_formula_sum "Si O2"
_cell_formula_units_Z 80
_cell_length_a 26.196758
_cell_length_b 8.638851
_cell_length_c 13.654218
_cell_angle_alpha 90.000000
_cell_angle_beta 90.000000
_cell_angle_gamma 90.000000
_cell_volume 3090.084561
_symmetry_space_group_name_H-M "C M C A"
_symmetry_group_IT_number 64
_symmetry_cell_setting 'orthorhombic'
loop_
_space_group_symop_operation_xyz
x,y,z
-x,1/2-y,1/2+z
x,-y,-z
-x,1/2+y,1/2-z
-x,-y,-z
x,1/2+y,1/2-z
-x,y,z
x,1/2-y,1/2+z
1/2+x,1/2+y,z
1/2-x,-y,1/2+z
1/2+x,1/2-y,-z
1/2-x,y,1/2-z
1/2-x,1/2-y,-z
1/2+x,y,1/2-z
1/2-x,1/2+y,z
1/2+x,-y,1/2+z
loop_
_atom_site_type_symbol
_atom_site_label
_atom_site_fract_x
_atom_site_fract_y
_atom_site_fract_z
Si Si1 0.192527 0.619353 0.222211
Si Si2 0.000000 0.301112 0.891324
Si Si3 0.405970 0.160089 0.554954
Si Si4 0.299146 0.826184 0.458907
Si Si5 0.500000 0.873498 0.202932
Si Si6 0.617345 0.343975 0.290475
O O1 0.250000 0.564651 0.250000
O O2 0.203753 0.768055 0.153156
O O3 0.154316 0.695285 0.301507
O O4 0.154266 0.487778 0.178649
O O5 0.950075 0.284426 0.953464
O O6 0.000000 0.153988 0.819355
O O7 0.000000 0.447184 0.822837
O O8 0.354735 0.231480 0.511434
O O9 0.393634 0.135320 0.671415
O O10 0.418274 0.000000 0.500000
O O11 0.250000 0.750000 0.500000
O O12 0.298245 0.000000 0.500000
O O13 0.441649 0.821020 0.172532
#
# Coordination Sequence:
#
# PCOD9477037 Si02
#       6
#    16   8  16  16   8  16
#     4  11  24  37  60  87 122 152 202 245 296 357
#     4  10  19  34  58  90 111 156 186 246 293 353
#     4   9  19  35  58  84 117 150 197 241 295 361
#     4  10  23  39  58  83 115 157 195 242 301 353
#     4  10  18  34  58  82 116 140 194 238 298 342
#     4  10  21  37  58  90 114 155 194 252 296 352
#
# _framework density 25.889261000000001
#
# number of rings (size 3 to 8) (size 9 to 14) (size 15 to 20)
#    0.000    2.000    0.000    4.500   11.200    0.000 
#    0.000    0.000    0.000    0.000    0.000   13.300 
#    0.000    0.000    0.000    0.000    0.000    0.000 
#
# Total GULP energy -222772.880039 kJ/mol
# GULP energy per Si atom -5569.322001 kJ/mol
# Density = 2.583034 g / cm^3
# Si number density = 25.889261 Si / 1000 Ang^3
#
#
#
# Elastic Constant Matrix: (Units=GPa)
#
#
# Indices 1 2 3 4 5 6 
#
# 1 296.9009 67.2685 7.1622 0.0000 0.0000 0.0000
# 2 67.2685 58.8058 -12.6249 0.0000 0.0000 0.0000
# 3 7.1622 -12.6249 95.6748 0.0000 0.0000 0.0000
# 4 0.0000 0.0000 0.0000 7.8795 0.0000 0.0000
# 5 0.0000 0.0000 0.0000 0.0000 14.9776 0.0000
# 6 0.0000 0.0000 0.0000 0.0000 0.0000 25.0790
#
#
#
# Elastic Compliance Matrix: (Units=1/GPa)
#
#
# Indices 1 2 3 4 5 6 
#
# 1 0.004653 -0.005554 -0.001081 0.000000 0.000000 0.000000
# 2 -0.005554 0.024132 0.003600 0.000000 0.000000 0.000000
# 3 -0.001081 0.003600 0.011008 0.000000 0.000000 0.000000
# 4 0.000000 0.000000 0.000000 0.126911 0.000000 0.000000
# 5 0.000000 0.000000 0.000000 0.000000 0.066766 0.000000
# 6 0.000000 0.000000 0.000000 0.000000 0.000000 0.039874
#
#
# Mechanical properties :
#
#
# Convention : Reuss Voigt Hill
#
# Bulk Modulus (GPa) = 29.65463 63.88810 46.77136
# Shear Modulus (GPa) = 17.20250 35.55894 26.38072
#
# Velocity S-wave (km/s) = 2.58052 3.71010 3.19561
# Velocity P-wave (km/s) = 4.51199 6.56385 5.63215
#
# Compressibility (1/GPa) = 0.03372155
#
# Stress axis : x y z
#
# Youngs Moduli (GPa) = 214.93139 41.43931 90.84241
#
# Poissons Ratio (x) = 0.23017 0.09822
# Poissons Ratio (y) = 1.19380 -0.32704
# Poissons Ratio (z) = 0.23239 -0.14919
#
# Static dielectric constant tensor:
#      x y z
#    x 2.148440 0.000000 0.000000 
#    y 0.000000 2.193420 0.000000 
#    z 0.000000 0.000000 2.299970 
# 
# From -- ./inp_files/35404.got.cif
#   From: 2010.05.17/outbox.cif.g08.bks.cpg/sg64_18_cif.got.tgz:35404.got - 2010.06.03 16:29:19.
