data_PCOD9477852
_publ_section_title
;
Structure prediction by ZEFSAII (Michael W. Deem and Ramdas Pophale) SiO2 
 PCOD9477852
Probable space group: C M C A
;
_chemical_formula_sum "Si O2"
_cell_formula_units_Z 112
_cell_length_a 14.209919
_cell_length_b 13.378854
_cell_length_c 25.139963
_cell_angle_alpha 90.000000
_cell_angle_beta 90.000000
_cell_angle_gamma 90.000000
_cell_volume 4779.419498
_symmetry_space_group_name_H-M "C M C A"
_symmetry_group_IT_number 64
_symmetry_cell_setting 'orthorhombic'
loop_
_space_group_symop_operation_xyz
x,y,z
-x,1/2-y,1/2+z
x,-y,-z
-x,1/2+y,1/2-z
-x,-y,-z
x,1/2+y,1/2-z
-x,y,z
x,1/2-y,1/2+z
1/2+x,1/2+y,z
1/2-x,-y,1/2+z
1/2+x,1/2-y,-z
1/2-x,y,1/2-z
1/2-x,1/2-y,-z
1/2+x,y,1/2-z
1/2-x,1/2+y,z
1/2+x,-y,1/2+z
loop_
_atom_site_type_symbol
_atom_site_label
_atom_site_fract_x
_atom_site_fract_y
_atom_site_fract_z
Si Si1 0.102180 0.434287 0.381084
Si Si2 0.109503 0.718674 0.098271
Si Si3 0.255021 0.485513 0.811028
Si Si4 0.730970 0.262897 0.812531
Si Si5 0.385313 0.181069 0.983257
Si Si6 0.887243 0.595461 0.872235
Si Si7 0.111315 0.592355 0.467492
O O1 0.109556 0.337425 0.418680
O O2 0.180954 0.431337 0.337731
O O3 0.112034 0.539679 0.410207
O O4 0.000000 0.427562 0.355994
O O5 0.177318 0.722354 0.148996
O O6 0.000000 0.693452 0.110136
O O7 0.140542 0.660222 0.044838
O O8 0.250000 0.510450 0.750000
O O9 0.303140 0.377863 0.812372
O O10 0.158579 0.498690 0.844184
O O11 0.750000 0.239485 0.750000
O O12 0.655165 0.189595 0.839527
O O13 0.500000 0.180135 0.983164
O O14 0.356743 0.110562 0.934098
O O15 0.353216 0.294444 0.968836
O O16 0.000000 0.593360 0.870089
O O17 0.156590 0.500000 0.500000
O O18 0.000000 0.598238 0.482594
#
# Coordination Sequence:
#
# PCOD9477852 Si02
#       7
#    16  16  16  16  16  16  16
#     4  10  19  34  61  92 120 156 205 261 320 378
#     4  10  20  37  64  95 127 167 211 258 321 387
#     4  11  25  45  64  90 128 168 217 275 330 389
#     4  11  25  45  66  92 129 169 221 279 325 385
#     4   9  18  34  58  91 131 170 208 262 323 391
#     4  11  24  43  67  96 133 173 214 266 333 396
#     4   9  14  25  50  88 125 154 194 248 308 370
#
# _framework density 23.433809
#
# number of rings (size 3 to 8) (size 9 to 14) (size 15 to 20)
#    0.000    1.857    2.857    1.286    0.000    4.000 
#    0.000    3.571    0.000    2.571    0.000    0.000 
#    0.000    0.000    0.000    0.000    0.000    0.000 
#
# Total GULP energy -312322.188205 kJ/mol
# GULP energy per Si atom -5577.181932 kJ/mol
# Density = 2.338047 g / cm^3
# Si number density = 23.433809 Si / 1000 Ang^3
#
#
#
# Elastic Constant Matrix: (Units=GPa)
#
#
# Indices 1 2 3 4 5 6 
#
# 1 67.0777 -14.7939 24.6289 0.0000 0.0000 0.0000
# 2 -14.7939 66.6099 -3.3755 0.0000 0.0000 0.0000
# 3 24.6289 -3.3755 119.4708 0.0000 0.0000 0.0000
# 4 0.0000 0.0000 0.0000 -61.3867 0.0000 0.0000
# 5 0.0000 0.0000 0.0000 0.0000 35.9627 0.0000
# 6 0.0000 0.0000 0.0000 0.0000 0.0000 17.1719
#
#
#
# Elastic Compliance Matrix: (Units=1/GPa)
#
#
# Indices 1 2 3 4 5 6 
#
# 1 0.016946 0.003592 -0.003392 0.000000 0.000000 0.000000
# 2 0.003592 0.015796 -0.000294 0.000000 0.000000 0.000000
# 3 -0.003392 -0.000294 0.009061 0.000000 0.000000 0.000000
# 4 0.000000 0.000000 0.000000 -0.016290 0.000000 0.000000
# 5 0.000000 0.000000 0.000000 0.000000 0.027807 0.000000
# 6 0.000000 0.000000 0.000000 0.000000 0.000000 0.058235
#
#
# Mechanical properties :
#
#
# Convention : Reuss Voigt Hill
#
# Bulk Modulus (GPa) = 24.03053 29.56416 26.79735
# Shear Modulus (GPa) = 39.80464 14.79615 27.30039
#
# Velocity S-wave (km/s) = 4.12588 2.51550 3.41691
# Velocity P-wave (km/s) = 5.74230 4.59134 5.19877
#
# Compressibility (1/GPa) = 0.04161373
#
# Stress axis : x y z
#
# Youngs Moduli (GPa) = 59.01235 63.30882 110.36106
#
# Poissons Ratio (x) = -0.22739 0.37433
# Poissons Ratio (y) = -0.21195 0.03246
# Poissons Ratio (z) = 0.20016 0.01862
#
# Static dielectric constant tensor:
#      x y z
#    x 1.900000 0.000000 0.000000 
#    y 0.000000 1.935240 0.000000 
#    z 0.000000 0.000000 2.007610 
# 
# From -- ./inp_files/45254.got.cif
#   From: 2010.05.17/outbox.cif.g08.bks.cpg/sg64_23_cif.got.tgz:45254.got - 2010.06.03 16:29:19.
