data_PCOD9477810
_publ_section_title
;
Structure prediction by ZEFSAII (Michael W. Deem and Ramdas Pophale) SiO2 
 PCOD9477810
Probable space group: C M C A
;
_chemical_formula_sum "Si O2"
_cell_formula_units_Z 96
_cell_length_a 13.668183
_cell_length_b 21.089078
_cell_length_c 16.058101
_cell_angle_alpha 90.000000
_cell_angle_beta 90.000000
_cell_angle_gamma 90.000000
_cell_volume 4628.737616
_symmetry_space_group_name_H-M "C M C A"
_symmetry_group_IT_number 64
_symmetry_cell_setting 'orthorhombic'
loop_
_space_group_symop_operation_xyz
x,y,z
-x,1/2-y,1/2+z
x,-y,-z
-x,1/2+y,1/2-z
-x,-y,-z
x,1/2+y,1/2-z
-x,y,z
x,1/2-y,1/2+z
1/2+x,1/2+y,z
1/2-x,-y,1/2+z
1/2+x,1/2-y,-z
1/2-x,y,1/2-z
1/2-x,1/2-y,-z
1/2+x,y,1/2-z
1/2-x,1/2+y,z
1/2+x,-y,1/2+z
loop_
_atom_site_type_symbol
_atom_site_label
_atom_site_fract_x
_atom_site_fract_y
_atom_site_fract_z
Si Si1 0.886458 0.403079 0.022451
Si Si2 0.118631 0.599277 0.166640
Si Si3 0.111716 0.851247 0.174980
Si Si4 0.888656 0.219982 0.222461
Si Si5 0.618366 0.039400 0.807042
Si Si6 0.782840 0.212426 0.579828
O O1 0.843757 0.402986 0.929046
O O2 0.000000 0.420817 0.013863
O O3 0.846098 0.445100 0.098844
O O4 0.874260 0.332200 0.057510
O O5 0.142412 0.661531 0.219437
O O6 0.144710 0.533151 0.210946
O O7 0.000000 0.601267 0.160240
O O8 0.107264 0.785644 0.226357
O O9 0.142340 0.908199 0.237225
O O10 0.195488 0.834472 0.108794
O O11 0.000000 0.863638 0.144340
O O12 0.815756 0.237487 0.148806
O O13 0.000000 0.206787 0.192762
O O14 0.500000 0.043148 0.811427
O O15 0.750000 0.250000 0.500000
#
# Coordination Sequence:
#
# PCOD9477810 Si02
#       6
#    16  16  16  16  16  16
#     4  10  19  34  58  90 123 153 192 241 298 356
#     4   9  18  33  60  93 122 152 192 241 298 359
#     4  10  21  38  61  84 114 158 205 245 293 353
#     4  10  20  37  60  86 117 152 193 243 298 357
#     4   9  17  33  60  89 117 156 194 239 297 353
#     4  12  24  36  59  83 121 159 200 249 298 353
#
# _framework density 20.739996000000001
#
# number of rings (size 3 to 8) (size 9 to 14) (size 15 to 20)
#    0.000    2.000    1.667    2.500    0.000    4.667 
#    0.000    0.000   18.333    0.000    0.000    4.667 
#    0.000    0.000    0.000    0.000    0.000    0.000 
#
# Total GULP energy -267749.994807 kJ/mol
# GULP energy per Si atom -5578.124892 kJ/mol
# Density = 2.069279 g / cm^3
# Si number density = 20.739996 Si / 1000 Ang^3
#
#
#
# Elastic Constant Matrix: (Units=GPa)
#
#
# Indices 1 2 3 4 5 6 
#
# 1 82.1628 11.1975 27.1680 0.0000 0.0000 0.0000
# 2 11.1975 156.2034 59.0348 0.0000 0.0000 0.0000
# 3 27.1680 59.0348 71.4898 0.0000 0.0000 0.0000
# 4 0.0000 0.0000 0.0000 29.6954 0.0000 0.0000
# 5 0.0000 0.0000 0.0000 0.0000 22.8266 0.0000
# 6 0.0000 0.0000 0.0000 0.0000 0.0000 -13.1546
#
#
#
# Elastic Compliance Matrix: (Units=1/GPa)
#
#
# Indices 1 2 3 4 5 6 
#
# 1 0.014152 0.001480 -0.006600 0.000000 0.000000 0.000000
# 2 0.001480 0.009461 -0.008375 0.000000 0.000000 0.000000
# 3 -0.006600 -0.008375 0.023412 0.000000 0.000000 0.000000
# 4 0.000000 0.000000 0.000000 0.033675 0.000000 0.000000
# 5 0.000000 0.000000 0.000000 0.000000 0.043808 0.000000
# 6 0.000000 0.000000 0.000000 0.000000 0.000000 -0.076019
#
#
# Mechanical properties :
#
#
# Convention : Reuss Voigt Hill
#
# Bulk Modulus (GPa) = 49.91432 56.07295 52.99363
# Shear Modulus (GPa) = 60.85765 22.03718 41.44741
#
# Velocity S-wave (km/s) = 5.42281 3.26321 4.47523
# Velocity P-wave (km/s) = 7.95789 6.42595 7.23260
#
# Compressibility (1/GPa) = 0.02003433
#
# Stress axis : x y z
#
# Youngs Moduli (GPa) = 70.66309 105.69581 42.71253
#
# Poissons Ratio (x) = -0.15643 0.28191
# Poissons Ratio (y) = -0.10458 0.35773
# Poissons Ratio (z) = 0.46638 0.88523
#
# Static dielectric constant tensor:
#      x y z
#    x 1.809820 0.000000 0.000000 
#    y 0.000000 1.757700 0.000000 
#    z 0.000000 0.000000 1.756300 
# 
# From -- ./inp_files/23922.got.cif
#   From: 2010.05.17/outbox.cif.g08.bks.cpg/sg64_12_cif.got.tgz:23922.got - 2010.06.03 16:29:19.
