data_PCOD9477487
_publ_section_title
;
Structure prediction by ZEFSAII (Michael W. Deem and Ramdas Pophale) SiO2 
 PCOD9477487
Probable space group: C M C A
;
_chemical_formula_sum "Si O2"
_cell_formula_units_Z 64
_cell_length_a 13.793010
_cell_length_b 13.312756
_cell_length_c 19.581898
_cell_angle_alpha 90.000000
_cell_angle_beta 90.000000
_cell_angle_gamma 90.000000
_cell_volume 3595.686399
_symmetry_space_group_name_H-M "C M C A"
_symmetry_group_IT_number 64
_symmetry_cell_setting 'orthorhombic'
loop_
_space_group_symop_operation_xyz
x,y,z
-x,1/2-y,1/2+z
x,-y,-z
-x,1/2+y,1/2-z
-x,-y,-z
x,1/2+y,1/2-z
-x,y,z
x,1/2-y,1/2+z
1/2+x,1/2+y,z
1/2-x,-y,1/2+z
1/2+x,1/2-y,-z
1/2-x,y,1/2-z
1/2-x,1/2-y,-z
1/2+x,y,1/2-z
1/2-x,1/2+y,z
1/2+x,-y,1/2+z
loop_
_atom_site_type_symbol
_atom_site_label
_atom_site_fract_x
_atom_site_fract_y
_atom_site_fract_z
Si Si1 0.115176 0.888315 0.357864
Si Si2 0.889336 0.621381 0.008796
Si Si3 0.386731 0.187462 0.281101
Si Si4 0.291314 0.605133 0.352792
O O1 0.136740 0.842110 0.432970
O O2 0.130712 0.803144 0.301787
O O3 0.000000 0.915168 0.358817
O O4 0.176377 0.988880 0.347829
O O5 0.819540 0.642938 0.071895
O O6 0.000000 0.652028 0.025217
O O7 0.889986 0.500000 0.000000
O O8 0.500000 0.166072 0.289495
O O9 0.352614 0.164104 0.204606
O O10 0.319261 0.121745 0.331019
#
# Coordination Sequence:
#
# PCOD9477487 Si02
#       4
#    16  16  16  16
#     4   9  18  34  54  76 102 129 164 211 250 285
#     4   8  14  28  52  76  95 125 171 212 240 278
#     4  10  21  33  48  75 105 130 160 203 255 299
#     4  10  19  32  54  74  97 134 172 203 242 297
#
# _framework density 17.799105999999998
#
# number of rings (size 3 to 8) (size 9 to 14) (size 15 to 20)
#    0.000    2.750    0.000    3.750    0.000    5.000 
#    0.000    0.000    0.000    9.750    0.000    0.000 
#    0.000    0.000    0.000    0.000    0.000    0.000 
#
# Total GULP energy -178347.408269 kJ/mol
# GULP energy per Si atom -5573.356508 kJ/mol
# Density = 1.775859 g / cm^3
# Si number density = 17.799106 Si / 1000 Ang^3
#
#
#
# Elastic Constant Matrix: (Units=GPa)
#
#
# Indices 1 2 3 4 5 6 
#
# 1 92.4131 38.2915 22.5674 0.0000 0.0000 0.0000
# 2 38.2915 53.6703 29.1634 0.0000 0.0000 0.0000
# 3 22.5674 29.1634 84.4893 0.0000 0.0000 0.0000
# 4 0.0000 0.0000 0.0000 17.9371 0.0000 0.0000
# 5 0.0000 0.0000 0.0000 0.0000 23.1774 0.0000
# 6 0.0000 0.0000 0.0000 0.0000 0.0000 23.9579
#
#
#
# Elastic Compliance Matrix: (Units=1/GPa)
#
#
# Indices 1 2 3 4 5 6 
#
# 1 0.015373 -0.010754 -0.000394 0.000000 0.000000 0.000000
# 2 -0.010754 0.030456 -0.007640 0.000000 0.000000 0.000000
# 3 -0.000394 -0.007640 0.014578 0.000000 0.000000 0.000000
# 4 0.000000 0.000000 0.000000 0.055751 0.000000 0.000000
# 5 0.000000 0.000000 0.000000 0.000000 0.043145 0.000000
# 6 0.000000 0.000000 0.000000 0.000000 0.000000 0.041740
#
#
# Mechanical properties :
#
#
# Convention : Reuss Voigt Hill
#
# Bulk Modulus (GPa) = 43.80024 45.62417 44.71221
# Shear Modulus (GPa) = 20.30616 22.38450 21.34533
#
# Velocity S-wave (km/s) = 3.38132 3.55014 3.46676
# Velocity P-wave (km/s) = 6.31711 6.51868 6.41869
#
# Compressibility (1/GPa) = 0.02283092
#
# Stress axis : x y z
#
# Youngs Moduli (GPa) = 65.04859 32.83398 68.59488
#
# Poissons Ratio (x) = 0.35309 0.02705
# Poissons Ratio (y) = 0.69952 0.52408
# Poissons Ratio (z) = 0.02565 0.25086
#
# Static dielectric constant tensor:
#      x y z
#    x 1.611650 0.000000 0.000000 
#    y 0.000000 1.599760 0.000000 
#    z 0.000000 0.000000 1.643900 
# 
# From -- ./inp_files/31644.got.cif
#   From: 2010.05.17/outbox.cif.g08.bks.cpg/sg64_16_cif.got.tgz:31644.got - 2010.06.03 16:29:19.
