data_PCOD9477498
_publ_section_title
;
Structure prediction by ZEFSAII (Michael W. Deem and Ramdas Pophale) SiO2 
 PCOD9477498
Probable space group: C M C A
;
_chemical_formula_sum "Si O2"
_cell_formula_units_Z 104
_cell_length_a 13.265092
_cell_length_b 17.985189
_cell_length_c 23.930421
_cell_angle_alpha 90.000000
_cell_angle_beta 90.000000
_cell_angle_gamma 90.000000
_cell_volume 5709.204658
_symmetry_space_group_name_H-M "C M C A"
_symmetry_group_IT_number 64
_symmetry_cell_setting 'orthorhombic'
loop_
_space_group_symop_operation_xyz
x,y,z
-x,1/2-y,1/2+z
x,-y,-z
-x,1/2+y,1/2-z
-x,-y,-z
x,1/2+y,1/2-z
-x,y,z
x,1/2-y,1/2+z
1/2+x,1/2+y,z
1/2-x,-y,1/2+z
1/2+x,1/2-y,-z
1/2-x,y,1/2-z
1/2-x,1/2-y,-z
1/2+x,y,1/2-z
1/2-x,1/2+y,z
1/2+x,-y,1/2+z
loop_
_atom_site_type_symbol
_atom_site_label
_atom_site_fract_x
_atom_site_fract_y
_atom_site_fract_z
Si Si1 0.386432 0.013657 0.935449
Si Si2 0.730724 0.675894 0.076199
Si Si3 0.250000 0.870974 0.750000
Si Si4 0.616152 0.378951 0.123064
Si Si5 0.796992 0.460023 0.638650
Si Si6 0.803757 0.835419 0.452068
Si Si7 0.117990 0.274842 0.825930
O O1 0.500000 0.985804 0.928761
O O2 0.379757 0.102667 0.930461
O O3 0.310190 0.980182 0.890528
O O4 0.354213 0.000000 0.000000
O O5 0.666095 0.606119 0.097573
O O6 0.670631 0.752068 0.066094
O O7 0.814306 0.693443 0.123406
O O8 0.788651 0.661173 0.018423
O O9 0.215935 0.923399 0.800904
O O10 0.161973 0.816278 0.728056
O O11 0.500000 0.373940 0.104651
O O12 0.641373 0.463367 0.140305
O O13 0.695389 0.356749 0.074968
O O14 0.630040 0.314975 0.170404
O O15 0.000000 0.291014 0.833276
#
# Coordination Sequence:
#
# PCOD9477498 Si02
#       7
#    16  16   8  16  16  16  16
#     4  10  19  32  54  83 113 146 185 235 284 332
#     4   9  17  31  52  77 109 146 178 225 271 323
#     4  10  22  36  56  80 108 144 184 238 288 322
#     4   9  19  35  55  76 103 142 183 223 273 336
#     4  10  20  35  54  80 112 145 187 232 281 337
#     4   9  17  32  52  77 114 146 182 224 274 333
#     4   9  19  36  57  79 102 137 185 226 272 329
#
# _framework density 18.216197999999999
#
# number of rings (size 3 to 8) (size 9 to 14) (size 15 to 20)
#    0.000    2.615    1.538    0.000    0.000    4.308 
#    0.000    4.615    0.000   18.462    0.000    0.000 
#    0.000    0.000    0.000    0.000    0.000    0.000 
#
# Total GULP energy -289544.691865 kJ/mol
# GULP energy per Si atom -5568.167151 kJ/mol
# Density = 1.817474 g / cm^3
# Si number density = 18.216198 Si / 1000 Ang^3
#
#
#
# Elastic Constant Matrix: (Units=GPa)
#
#
# Indices 1 2 3 4 5 6 
#
# 1 45.8275 10.3227 16.1762 0.0000 0.0000 0.0000
# 2 10.3227 132.8158 30.6743 0.0000 0.0000 0.0000
# 3 16.1762 30.6743 82.2397 0.0000 0.0000 0.0000
# 4 0.0000 0.0000 0.0000 30.8245 0.0000 0.0000
# 5 0.0000 0.0000 0.0000 0.0000 10.0018 0.0000
# 6 0.0000 0.0000 0.0000 0.0000 0.0000 10.7942
#
#
#
# Elastic Compliance Matrix: (Units=1/GPa)
#
#
# Indices 1 2 3 4 5 6 
#
# 1 0.023533 -0.000832 -0.004319 0.000000 0.000000 0.000000
# 2 -0.000832 0.008268 -0.002920 0.000000 0.000000 0.000000
# 3 -0.004319 -0.002920 0.014098 0.000000 0.000000 0.000000
# 4 0.000000 0.000000 0.000000 0.032442 0.000000 0.000000
# 5 0.000000 0.000000 0.000000 0.000000 0.099982 0.000000
# 6 0.000000 0.000000 0.000000 0.000000 0.000000 0.092643
#
#
# Mechanical properties :
#
#
# Convention : Reuss Voigt Hill
#
# Bulk Modulus (GPa) = 33.60433 41.69217 37.64825
# Shear Modulus (GPa) = 16.83356 23.90477 20.36916
#
# Velocity S-wave (km/s) = 3.04320 3.62647 3.34756
# Velocity P-wave (km/s) = 5.55298 6.36177 5.97109
#
# Compressibility (1/GPa) = 0.02975807
#
# Stress axis : x y z
#
# Youngs Moduli (GPa) = 42.49416 120.94332 70.93058
#
# Poissons Ratio (x) = 0.10058 0.30632
# Poissons Ratio (y) = 0.03534 0.20715
# Poissons Ratio (z) = 0.18351 0.35320
#
# Static dielectric constant tensor:
#      x y z
#    x 1.598030 0.000000 0.000000 
#    y 0.000000 1.698110 0.000000 
#    z 0.000000 0.000000 1.609710 
# 
# From -- ./inp_files/45383.got.cif
#   From: 2010.05.17/outbox.cif.g08.bks.cpg/sg64_23_cif.got.tgz:45383.got - 2010.06.03 16:29:19.
