data_PCOD9477533
_publ_section_title
;
Structure prediction by ZEFSAII (Michael W. Deem and Ramdas Pophale) SiO2 
 PCOD9477533
Probable space group: C M C A
;
_chemical_formula_sum "Si O2"
_cell_formula_units_Z 88
_cell_length_a 25.641802
_cell_length_b 5.149290
_cell_length_c 30.573745
_cell_angle_alpha 90.000000
_cell_angle_beta 90.000000
_cell_angle_gamma 90.000000
_cell_volume 4036.867850
_symmetry_space_group_name_H-M "C M C A"
_symmetry_group_IT_number 64
_symmetry_cell_setting 'orthorhombic'
loop_
_space_group_symop_operation_xyz
x,y,z
-x,1/2-y,1/2+z
x,-y,-z
-x,1/2+y,1/2-z
-x,-y,-z
x,1/2+y,1/2-z
-x,y,z
x,1/2-y,1/2+z
1/2+x,1/2+y,z
1/2-x,-y,1/2+z
1/2+x,1/2-y,-z
1/2-x,y,1/2-z
1/2-x,1/2-y,-z
1/2+x,y,1/2-z
1/2-x,1/2+y,z
1/2+x,-y,1/2+z
loop_
_atom_site_type_symbol
_atom_site_label
_atom_site_fract_x
_atom_site_fract_y
_atom_site_fract_z
Si Si1 0.127737 0.565804 0.546252
Si Si2 0.000000 0.345303 0.224036
Si Si3 0.807413 0.854661 0.230321
Si Si4 0.911098 0.003333 0.341789
Si Si5 0.846522 0.003863 0.143701
Si Si6 0.559035 0.434263 0.439435
O O1 0.155019 0.500000 0.500000
O O2 0.160321 0.541500 0.591667
O O3 0.082599 0.347843 0.550548
O O4 0.099183 0.843923 0.544648
O O5 0.948935 0.422499 0.196705
O O6 0.000000 0.540902 0.265167
O O7 0.834596 0.585745 0.242926
O O8 0.750000 0.816000 0.250000
O O9 0.803441 0.924680 0.179387
O O10 0.863462 0.798624 0.347021
O O11 0.941119 0.964940 0.387301
O O12 0.891868 0.300550 0.342026
O O13 0.500000 0.465359 0.454760
#
# Coordination Sequence:
#
# PCOD9477533 Si02
#       6
#    16   8  16  16  16  16
#     4  10  21  33  49  77 104 137 185 224 270 329
#     4  12  24  34  48  70  99 140 189 236 270 308
#     4  10  21  37  59  87 111 133 168 218 273 335
#     4  10  21  36  49  71 103 144 186 224 271 319
#     4  10  21  36  57  76 107 144 173 223 279 320
#     4  10  19  33  51  66 100 143 183 235 274 306
#
# _framework density 21.799078000000002
#
# number of rings (size 3 to 8) (size 9 to 14) (size 15 to 20)
#    0.000    1.818    0.909    3.273    0.000    6.545 
#    0.000    0.000    0.000    0.000    0.000    5.091 
#    0.000    0.000    0.000    0.000    0.000    0.000 
#
# Total GULP energy -245558.577140 kJ/mol
# GULP energy per Si atom -5580.876753 kJ/mol
# Density = 2.174946 g / cm^3
# Si number density = 21.799078 Si / 1000 Ang^3
#
#
#
# Elastic Constant Matrix: (Units=GPa)
#
#
# Indices 1 2 3 4 5 6 
#
# 1 26.4070 -10.3256 28.2459 0.0000 0.0000 0.0000
# 2 -10.3256 116.6118 -1.2985 0.0000 0.0000 0.0000
# 3 28.2459 -1.2985 134.8160 0.0000 0.0000 0.0000
# 4 0.0000 0.0000 0.0000 31.4079 0.0000 0.0000
# 5 0.0000 0.0000 0.0000 0.0000 -62.9498 0.0000
# 6 0.0000 0.0000 0.0000 0.0000 0.0000 10.8735
#
#
#
# Elastic Compliance Matrix: (Units=1/GPa)
#
#
# Indices 1 2 3 4 5 6 
#
# 1 0.050963 0.004394 -0.010635 0.000000 0.000000 0.000000
# 2 0.004394 0.008955 -0.000834 0.000000 0.000000 0.000000
# 3 -0.010635 -0.000834 0.009638 0.000000 0.000000 0.000000
# 4 0.000000 0.000000 0.000000 0.031839 0.000000 0.000000
# 5 0.000000 0.000000 0.000000 0.000000 -0.015886 0.000000
# 6 0.000000 0.000000 0.000000 0.000000 0.000000 0.091967
#
#
# Mechanical properties :
#
#
# Convention : Reuss Voigt Hill
#
# Bulk Modulus (GPa) = 18.04892 34.56424 26.30658
# Shear Modulus (GPa) = 23.79883 13.28053 18.53968
#
# Velocity S-wave (km/s) = 3.30773 2.47093 2.91946
# Velocity P-wave (km/s) = 4.78390 4.90213 4.84338
#
# Compressibility (1/GPa) = 0.05540498
#
# Stress axis : x y z
#
# Youngs Moduli (GPa) = 19.62223 111.66618 103.75941
#
# Poissons Ratio (x) = -0.49068 1.10349
# Poissons Ratio (y) = -0.08622 0.08658
# Poissons Ratio (z) = 0.20868 0.09317
#
# Static dielectric constant tensor:
#      x y z
#    x 1.393560 0.000000 0.000000 
#    y 0.000000 1.843350 0.000000 
#    z 0.000000 0.000000 1.883910 
# 
# From -- ./inp_files/2980.got.cif
#   From: 2010.05.17/outbox.cif.g08.bks.cpg/sg64_2_cif.got.tgz:2980.got - 2010.06.03 16:29:19.
