data_PCOD9477716
_publ_section_title
;
Structure prediction by ZEFSAII (Michael W. Deem and Ramdas Pophale) SiO2 
 PCOD9477716
Probable space group: C M C A
;
_chemical_formula_sum "Si O2"
_cell_formula_units_Z 64
_cell_length_a 14.915756
_cell_length_b 22.731402
_cell_length_c 6.911842
_cell_angle_alpha 90.000000
_cell_angle_beta 90.000000
_cell_angle_gamma 90.000000
_cell_volume 2343.501818
_symmetry_space_group_name_H-M "C M C A"
_symmetry_group_IT_number 64
_symmetry_cell_setting 'orthorhombic'
loop_
_space_group_symop_operation_xyz
x,y,z
-x,1/2-y,1/2+z
x,-y,-z
-x,1/2+y,1/2-z
-x,-y,-z
x,1/2+y,1/2-z
-x,y,z
x,1/2-y,1/2+z
1/2+x,1/2+y,z
1/2-x,-y,1/2+z
1/2+x,1/2-y,-z
1/2-x,y,1/2-z
1/2-x,1/2-y,-z
1/2+x,y,1/2-z
1/2-x,1/2+y,z
1/2+x,-y,1/2+z
loop_
_atom_site_type_symbol
_atom_site_label
_atom_site_fract_x
_atom_site_fract_y
_atom_site_fract_z
Si Si1 0.394421 0.925191 0.179634
Si Si2 0.607208 0.547278 0.222900
Si Si3 0.393946 0.172567 0.284275
Si Si4 0.337360 0.297543 0.375493
O O1 0.500000 0.930518 0.203397
O O2 0.375832 0.857017 0.219059
O O3 0.355650 0.980795 0.300426
O O4 0.377571 0.938694 0.951920
O O5 0.500000 0.543987 0.187125
O O6 0.634440 0.609511 0.126871
O O7 0.500000 0.166162 0.226142
O O8 0.388375 0.235110 0.391119
O O9 0.332192 0.182682 0.096972
O O10 0.250000 0.287066 0.250000
#
# Coordination Sequence:
#
# PCOD9477716 Si02
#       4
#    16  16  16  16
#     4   8  13  26  47  70  91 120 162 206 241 285
#     4   7  12  24  47  72  90 114 163 211 237 275
#     4  10  19  34  54  75  98 135 177 210 245 299
#     4  11  21  32  48  75 107 133 162 209 261 303
#
# _framework density 27.309557000000002
#
# number of rings (size 3 to 8) (size 9 to 14) (size 15 to 20)
#    0.000    3.000    0.000    6.000    0.000    0.000 
#    0.000    1.250    0.000    4.500    0.000    7.000 
#    0.000    0.000    0.000    0.000    0.000    0.000 
#
# Total GULP energy -178498.613254 kJ/mol
# GULP energy per Si atom -5578.081664 kJ/mol
# Density = 2.724740 g / cm^3
# Si number density = 27.309557 Si / 1000 Ang^3
#
#
#
# Elastic Constant Matrix: (Units=GPa)
#
#
# Indices 1 2 3 4 5 6 
#
# 1 34.8151 20.0874 -2.2922 0.0000 0.0000 0.0000
# 2 20.0874 381.3425 47.6367 0.0000 0.0000 0.0000
# 3 -2.2922 47.6367 71.5873 0.0000 0.0000 0.0000
# 4 0.0000 0.0000 0.0000 52.2952 0.0000 0.0000
# 5 0.0000 0.0000 0.0000 0.0000 0.7670 0.0000
# 6 0.0000 0.0000 0.0000 0.0000 0.0000 86.4449
#
#
#
# Elastic Compliance Matrix: (Units=1/GPa)
#
#
# Indices 1 2 3 4 5 6 
#
# 1 0.029935 -0.001850 0.002190 0.000000 0.000000 0.000000
# 2 -0.001850 0.002974 -0.002039 0.000000 0.000000 0.000000
# 3 0.002190 -0.002039 0.015396 0.000000 0.000000 0.000000
# 4 0.000000 0.000000 0.000000 0.019122 0.000000 0.000000
# 5 0.000000 0.000000 0.000000 0.000000 1.303858 0.000000
# 6 0.000000 0.000000 0.000000 0.000000 0.000000 0.011568
#
#
# Mechanical properties :
#
#
# Convention : Reuss Voigt Hill
#
# Bulk Modulus (GPa) = 22.26836 68.73430 45.50133
# Shear Modulus (GPa) = 3.56832 56.05560 29.81196
#
# Velocity S-wave (km/s) = 1.14431 4.53548 3.30757
# Velocity P-wave (km/s) = 3.14924 7.25608 5.59323
#
# Compressibility (1/GPa) = 0.04490677
#
# Stress axis : x y z
#
# Youngs Moduli (GPa) = 33.40576 336.19818 64.95366
#
# Poissons Ratio (x) = 0.62210 -0.14224
# Poissons Ratio (y) = 0.06181 0.13241
# Poissons Ratio (z) = -0.07315 0.68535
#
# Static dielectric constant tensor:
#      x y z
#    x 2.108230 0.000000 0.000000 
#    y 0.000000 2.320010 0.000000 
#    z 0.000000 0.000000 2.240560 
# 
# From -- ./inp_files/5567.got.cif
#   From: 2010.05.17/outbox.cif.g08.bks.cpg/sg64_3_cif.got.tgz:5567.got - 2010.06.03 16:29:19.
