data_PCOD9477781
_publ_section_title
;
Structure prediction by ZEFSAII (Michael W. Deem and Ramdas Pophale) SiO2 
 PCOD9477781
Probable space group: C M C A
;
_chemical_formula_sum "Si O2"
_cell_formula_units_Z 96
_cell_length_a 22.144804
_cell_length_b 24.444073
_cell_length_c 10.484974
_cell_angle_alpha 90.000000
_cell_angle_beta 90.000000
_cell_angle_gamma 90.000000
_cell_volume 5675.612946
_symmetry_space_group_name_H-M "C M C A"
_symmetry_group_IT_number 64
_symmetry_cell_setting 'orthorhombic'
loop_
_space_group_symop_operation_xyz
x,y,z
-x,1/2-y,1/2+z
x,-y,-z
-x,1/2+y,1/2-z
-x,-y,-z
x,1/2+y,1/2-z
-x,y,z
x,1/2-y,1/2+z
1/2+x,1/2+y,z
1/2-x,-y,1/2+z
1/2+x,1/2-y,-z
1/2-x,y,1/2-z
1/2-x,1/2-y,-z
1/2+x,y,1/2-z
1/2-x,1/2+y,z
1/2+x,-y,1/2+z
loop_
_atom_site_type_symbol
_atom_site_label
_atom_site_fract_x
_atom_site_fract_y
_atom_site_fract_z
Si Si1 0.000000 0.544610 0.611991
Si Si2 0.399084 0.875504 0.485856
Si Si3 0.500000 0.971646 0.861765
Si Si4 0.706463 0.187130 0.127646
Si Si5 0.500000 0.216105 0.479452
Si Si6 0.500000 0.794109 0.787902
Si Si7 0.789365 0.687680 0.622907
Si Si8 0.398813 0.385458 0.719525
O O1 0.000000 0.500000 0.500000
O O2 0.940667 0.581116 0.587302
O O3 0.000000 0.516058 0.748613
O O4 0.442127 0.822836 0.505250
O O5 0.341636 0.855800 0.406140
O O6 0.384105 0.896050 0.630288
O O7 0.560012 0.933969 0.838809
O O8 0.500000 0.000000 0.000000
O O9 0.750000 0.183033 0.250000
O O10 0.683052 0.250386 0.130599
O O11 0.658569 0.138037 0.143059
O O12 0.744665 0.184336 0.998162
O O13 0.500000 0.241914 0.339242
O O14 0.500000 0.260624 0.585883
O O15 0.556923 0.833553 0.780879
O O16 0.750000 0.678674 0.750000
#
# Coordination Sequence:
#
# PCOD9477781 Si02
#       8
#     8  16   8  16   8   8  16  16
#     4  11  20  39  65  84 102 146 194 238 295 341
#     4  10  19  35  59  81 108 149 194 227 277 352
#     4  11  24  41  61  88 112 136 190 257 306 335
#     4  10  19  34  57  81 117 160 188 218 272 338
#     4   9  18  32  49  77 110 143 179 226 278 332
#     4   9  18  32  49  76 112 141 177 224 277 338
#     4  10  21  34  53  88 122 152 190 228 265 329
#     4  10  19  36  59  79 107 153 189 225 287 350
#
# _framework density 16.914473000000001
#
# number of rings (size 3 to 8) (size 9 to 14) (size 15 to 20)
#    0.000    2.000    3.333    2.000    0.000    1.333 
#    9.000    0.000    0.000    6.000    0.000    0.000 
#    0.000    0.000    0.000    0.000    0.000    0.000 
#
# Total GULP energy -267398.002770 kJ/mol
# GULP energy per Si atom -5570.791724 kJ/mol
# Density = 1.687597 g / cm^3
# Si number density = 16.914473 Si / 1000 Ang^3
#
#
#
# Elastic Constant Matrix: (Units=GPa)
#
#
# Indices 1 2 3 4 5 6 
#
# 1 84.1064 48.1610 40.9579 0.0000 0.0000 0.0000
# 2 48.1610 84.6206 55.8640 0.0000 0.0000 0.0000
# 3 40.9579 55.8640 139.5665 0.0000 0.0000 0.0000
# 4 0.0000 0.0000 0.0000 33.9834 0.0000 0.0000
# 5 0.0000 0.0000 0.0000 0.0000 60.3795 0.0000
# 6 0.0000 0.0000 0.0000 0.0000 0.0000 20.3384
#
#
#
# Elastic Compliance Matrix: (Units=1/GPa)
#
#
# Indices 1 2 3 4 5 6 
#
# 1 0.017896 -0.009131 -0.001597 0.000000 0.000000 0.000000
# 2 -0.009131 0.020721 -0.005614 0.000000 0.000000 0.000000
# 3 -0.001597 -0.005614 0.009881 0.000000 0.000000 0.000000
# 4 0.000000 0.000000 0.000000 0.029426 0.000000 0.000000
# 5 0.000000 0.000000 0.000000 0.000000 0.016562 0.000000
# 6 0.000000 0.000000 0.000000 0.000000 0.000000 0.049168
#
#
# Mechanical properties :
#
#
# Convention : Reuss Voigt Hill
#
# Bulk Modulus (GPa) = 63.23873 66.47327 64.85600
# Shear Modulus (GPa) = 27.53166 33.82763 30.67964
#
# Velocity S-wave (km/s) = 4.03885 4.47690 4.26351
# Velocity P-wave (km/s) = 7.69534 8.13071 7.91602
#
# Compressibility (1/GPa) = 0.01581309
#
# Stress axis : x y z
#
# Youngs Moduli (GPa) = 55.87836 48.26115 101.20564
#
# Poissons Ratio (x) = 0.44068 0.16162
# Poissons Ratio (y) = 0.51023 0.56818
# Poissons Ratio (z) = 0.08924 0.27095
#
# Static dielectric constant tensor:
#      x y z
#    x 1.543130 0.000000 0.000000 
#    y 0.000000 1.565880 0.000000 
#    z 0.000000 0.000000 1.576270 
# 
# From -- ./inp_files/9571.got.cif
#   From: 2010.05.17/outbox.cif.g08.bks.cpg/sg64_5_cif.got.tgz:9571.got - 2010.06.03 16:29:19.
