data_PCOD9477514
_publ_section_title
;
Structure prediction by ZEFSAII (Michael W. Deem and Ramdas Pophale) SiO2 
 PCOD9477514
Probable space group: C M C A
;
_chemical_formula_sum "Si O2"
_cell_formula_units_Z 104
_cell_length_a 25.762609
_cell_length_b 10.673004
_cell_length_c 18.254709
_cell_angle_alpha 90.000000
_cell_angle_beta 90.000000
_cell_angle_gamma 90.000000
_cell_volume 5019.395635
_symmetry_space_group_name_H-M "C M C A"
_symmetry_group_IT_number 64
_symmetry_cell_setting 'orthorhombic'
loop_
_space_group_symop_operation_xyz
x,y,z
-x,1/2-y,1/2+z
x,-y,-z
-x,1/2+y,1/2-z
-x,-y,-z
x,1/2+y,1/2-z
-x,y,z
x,1/2-y,1/2+z
1/2+x,1/2+y,z
1/2-x,-y,1/2+z
1/2+x,1/2-y,-z
1/2-x,y,1/2-z
1/2-x,1/2-y,-z
1/2+x,y,1/2-z
1/2-x,1/2+y,z
1/2+x,-y,1/2+z
loop_
_atom_site_type_symbol
_atom_site_label
_atom_site_fract_x
_atom_site_fract_y
_atom_site_fract_z
Si Si1 0.212938 0.855139 0.586691
Si Si2 0.386878 0.748414 0.339985
Si Si3 0.115196 0.981420 0.920409
Si Si4 0.000000 0.734964 0.821250
Si Si5 0.000000 0.528198 0.401678
Si Si6 0.787881 0.369421 0.088096
Si Si7 0.383707 0.268856 0.335399
Si Si8 0.000000 0.253424 0.347438
O O1 0.158592 0.833157 0.626320
O O2 0.203956 0.850241 0.498988
O O3 0.250188 0.742729 0.610842
O O4 0.235426 0.993054 0.601327
O O5 0.384137 0.887759 0.376467
O O6 0.381213 0.760274 0.252484
O O7 0.444034 0.691721 0.357504
O O8 0.055188 0.940100 0.935930
O O9 0.132521 0.865245 0.870887
O O10 0.141181 0.000000 0.000000
O O11 0.944042 0.697097 0.853327
O O12 0.000000 0.699898 0.736666
O O13 0.000000 0.887901 0.827669
O O14 0.000000 0.380247 0.393467
O O15 0.842087 0.361999 0.130506
#
# Coordination Sequence:
#
# PCOD9477514 Si02
#       8
#    16  16  16   8   8  16  16   8
#     4  10  23  43  65  88 119 160 206 255 314 380
#     4  10  21  36  60  90 125 160 202 252 305 367
#     4  10  19  32  56  85 118 160 206 251 302 361
#     4   8  16  33  51  83 122 163 194 235 305 369
#     4   8  15  28  48  78 114 152 207 256 281 342
#     4  10  23  43  65  88 119 160 206 255 314 380
#     4  10  21  36  60  90 125 160 202 252 305 367
#     4   8  16  33  51  83 122 163 194 235 305 369
#
# _framework density 20.719625000000001
#
# number of rings (size 3 to 8) (size 9 to 14) (size 15 to 20)
#    0.000    2.462    0.000    1.154    4.308    0.615 
#    2.769    3.846    0.000    1.846    0.000    0.000 
#    0.000    0.000    0.000    0.000    0.000    0.000 
#
# Total GULP energy -289730.306685 kJ/mol
# GULP energy per Si atom -5571.736667 kJ/mol
# Density = 2.067247 g / cm^3
# Si number density = 20.719625 Si / 1000 Ang^3
#
#
#
# Elastic Constant Matrix: (Units=GPa)
#
#
# Indices 1 2 3 4 5 6 
#
# 1 117.6251 44.7805 17.0882 0.0000 0.0000 0.0000
# 2 44.7805 91.3949 36.1888 0.0000 0.0000 0.0000
# 3 17.0882 36.1888 68.3652 0.0000 0.0000 0.0000
# 4 0.0000 0.0000 0.0000 21.6966 0.0000 0.0000
# 5 0.0000 0.0000 0.0000 0.0000 -107.3669 0.0000
# 6 0.0000 0.0000 0.0000 0.0000 0.0000 23.1602
#
#
#
# Elastic Compliance Matrix: (Units=1/GPa)
#
#
# Indices 1 2 3 4 5 6 
#
# 1 0.010452 -0.005170 0.000124 0.000000 0.000000 0.000000
# 2 -0.005170 0.016401 -0.007389 0.000000 0.000000 0.000000
# 3 0.000124 -0.007389 0.018508 0.000000 0.000000 0.000000
# 4 0.000000 0.000000 0.000000 0.046090 0.000000 0.000000
# 5 0.000000 0.000000 0.000000 0.000000 -0.009314 0.000000
# 6 0.000000 0.000000 0.000000 0.000000 0.000000 0.043177
#
#
# Mechanical properties :
#
#
# Convention : Reuss Voigt Hill
#
# Bulk Modulus (GPa) = 48.80464 52.61114 50.70789
# Shear Modulus (GPa) = 31.84421 -0.54682 15.64869
#
# Velocity S-wave (km/s) = 3.92460 -0.51428 2.75118
# Velocity P-wave (km/s) = 6.64399 5.00943 5.88375
#
# Compressibility (1/GPa) = 0.02048985
#
# Stress axis : x y z
#
# Youngs Moduli (GPa) = 95.67643 60.97296 54.03147
#
# Poissons Ratio (x) = 0.31525 -0.00672
# Poissons Ratio (y) = 0.49468 0.39925
# Poissons Ratio (z) = -0.01190 0.45055
#
# Static dielectric constant tensor:
#      x y z
#    x 1.792680 0.000000 0.000000 
#    y 0.000000 1.784770 0.000000 
#    z 0.000000 0.000000 1.738290 
# 
# From -- ./inp_files/41906.got.cif
#   From: 2010.05.17/outbox.cif.g08.bks.cpg/sg64_21_cif.got.tgz:41906.got - 2010.06.03 16:29:19.
