data_PCOD9477181
_publ_section_title
;
Structure prediction by ZEFSAII (Michael W. Deem and Ramdas Pophale) SiO2 
 PCOD9477181
Probable space group: C M C A
;
_chemical_formula_sum "Si O2"
_cell_formula_units_Z 128
_cell_length_a 27.417316
_cell_length_b 23.317450
_cell_length_c 11.321159
_cell_angle_alpha 90.000000
_cell_angle_beta 90.000000
_cell_angle_gamma 90.000000
_cell_volume 7237.638402
_symmetry_space_group_name_H-M "C M C A"
_symmetry_group_IT_number 64
_symmetry_cell_setting 'orthorhombic'
loop_
_space_group_symop_operation_xyz
x,y,z
-x,1/2-y,1/2+z
x,-y,-z
-x,1/2+y,1/2-z
-x,-y,-z
x,1/2+y,1/2-z
-x,y,z
x,1/2-y,1/2+z
1/2+x,1/2+y,z
1/2-x,-y,1/2+z
1/2+x,1/2-y,-z
1/2-x,y,1/2-z
1/2-x,1/2-y,-z
1/2+x,y,1/2-z
1/2-x,1/2+y,z
1/2+x,-y,1/2+z
loop_
_atom_site_type_symbol
_atom_site_label
_atom_site_fract_x
_atom_site_fract_y
_atom_site_fract_z
Si Si1 0.116195 0.826621 0.201427
Si Si2 0.696948 0.122739 0.199850
Si Si3 0.293820 0.791896 0.022024
Si Si4 0.864789 0.563508 0.017918
Si Si5 0.361267 0.216209 0.326869
Si Si6 0.943902 0.288839 0.515708
Si Si7 0.200698 0.606783 0.803437
Si Si8 0.943048 0.343772 0.054833
O O1 0.138714 0.763224 0.223200
O O2 0.085000 0.823232 0.083959
O O3 0.159593 0.873019 0.209670
O O4 0.080626 0.837251 0.314125
O O5 0.750000 0.106441 0.250000
O O6 0.700590 0.167907 0.091180
O O7 0.665018 0.072767 0.139755
O O8 0.669147 0.159915 0.298483
O O9 0.250000 0.750000 0.000000
O O10 0.338633 0.752178 0.063507
O O11 0.283518 0.834373 0.130952
O O12 0.885003 0.500000 0.000000
O O13 0.827254 0.573308 0.908088
O O14 0.907021 0.611552 0.009081
O O15 0.416163 0.201038 0.361327
O O16 0.941808 0.219671 0.497159
O O17 0.000000 0.305304 0.518979
O O18 0.250000 0.580453 0.750000
O O19 0.000000 0.361129 0.060278
#
# Coordination Sequence:
#
# PCOD9477181 Si02
#       8
#    16  16  16  16  16  16  16  16
#     4   9  17  29  46  72 104 137 161 190 232 290
#     4  11  21  33  49  75 102 138 168 197 247 294
#     4  10  19  28  45  73 106 132 159 195 229 289
#     4  10  22  39  52  70  95 122 171 225 255 284
#     4  10  19  29  45  70 107 134 169 195 231 289
#     4  10  19  30  48  74 107 140 160 186 238 302
#     4   9  20  31  49  73  98 131 167 199 241 292
#     4   9  18  34  51  72  96 125 166 206 248 300
#
# _framework density 17.685326
#
# number of rings (size 3 to 8) (size 9 to 14) (size 15 to 20)
#    0.000    2.250    1.250    4.125    5.250    1.250 
#    0.000    0.625    0.000    0.000    0.000    0.000 
#    0.000    5.000    0.000    0.000    0.000    0.000 
#
# Total GULP energy -356635.904253 kJ/mol
# GULP energy per Si atom -5572.436004 kJ/mol
# Density = 1.764507 g / cm^3
# Si number density = 17.685326 Si / 1000 Ang^3
#
#
#
# Elastic Constant Matrix: (Units=GPa)
#
#
# Indices 1 2 3 4 5 6 
#
# 1 91.1989 1.3861 6.9739 0.0000 0.0000 0.0000
# 2 1.3861 26.0346 -0.7112 0.0000 0.0000 0.0000
# 3 6.9739 -0.7112 33.2559 0.0000 0.0000 0.0000
# 4 0.0000 0.0000 0.0000 9.3976 0.0000 0.0000
# 5 0.0000 0.0000 0.0000 0.0000 22.2280 0.0000
# 6 0.0000 0.0000 0.0000 0.0000 0.0000 12.9728
#
#
#
# Elastic Compliance Matrix: (Units=1/GPa)
#
#
# Indices 1 2 3 4 5 6 
#
# 1 0.011155 -0.000658 -0.002353 0.000000 0.000000 0.000000
# 2 -0.000658 0.038472 0.000961 0.000000 0.000000 0.000000
# 3 -0.002353 0.000961 0.030584 0.000000 0.000000 0.000000
# 4 0.000000 0.000000 0.000000 0.106411 0.000000 0.000000
# 5 0.000000 0.000000 0.000000 0.000000 0.044988 0.000000
# 6 0.000000 0.000000 0.000000 0.000000 0.000000 0.077084
#
#
# Mechanical properties :
#
#
# Convention : Reuss Voigt Hill
#
# Bulk Modulus (GPa) = 13.13904 18.42078 15.77991
# Shear Modulus (GPa) = 14.78569 18.44239 16.61404
#
# Velocity S-wave (km/s) = 2.89458 3.23276 3.06833
# Velocity P-wave (km/s) = 4.31473 4.93688 4.63625
#
# Compressibility (1/GPa) = 0.07610908
#
# Stress axis : x y z
#
# Youngs Moduli (GPa) = 89.64582 25.99311 32.69691
#
# Poissons Ratio (x) = 0.01711 0.07695
# Poissons Ratio (y) = 0.05900 -0.03141
# Poissons Ratio (z) = 0.21097 -0.02497
#
# Static dielectric constant tensor:
#      x y z
#    x 1.641780 0.000000 0.000000 
#    y 0.000000 1.597240 0.000000 
#    z 0.000000 0.000000 1.691530 
# 
# From -- ./inp_files/19410.got.cif
#   From: 2010.05.17/outbox.cif.g08.bks.cpg/sg64_10_cif.got.tgz:19410.got - 2010.06.03 16:29:19.
