data_PCOD9477459
_publ_section_title
;
Structure prediction by ZEFSAII (Michael W. Deem and Ramdas Pophale) SiO2 
 PCOD9477459
Probable space group: C M C A
;
_chemical_formula_sum "Si O2"
_cell_formula_units_Z 116
_cell_length_a 10.731421
_cell_length_b 24.369768
_cell_length_c 22.533673
_cell_angle_alpha 90.000000
_cell_angle_beta 90.000000
_cell_angle_gamma 90.000000
_cell_volume 5893.056640
_symmetry_space_group_name_H-M "C M C A"
_symmetry_group_IT_number 64
_symmetry_cell_setting 'orthorhombic'
loop_
_space_group_symop_operation_xyz
x,y,z
-x,1/2-y,1/2+z
x,-y,-z
-x,1/2+y,1/2-z
-x,-y,-z
x,1/2+y,1/2-z
-x,y,z
x,1/2-y,1/2+z
1/2+x,1/2+y,z
1/2-x,-y,1/2+z
1/2+x,1/2-y,-z
1/2-x,y,1/2-z
1/2-x,1/2-y,-z
1/2+x,y,1/2-z
1/2-x,1/2+y,z
1/2+x,-y,1/2+z
loop_
_atom_site_type_symbol
_atom_site_label
_atom_site_fract_x
_atom_site_fract_y
_atom_site_fract_z
Si Si1 0.362202 0.203730 0.946727
Si Si2 0.636990 0.820237 0.792662
Si Si3 0.500000 0.500000 0.500000
Si Si4 0.861997 0.914466 0.944701
Si Si5 0.856133 0.121212 0.917786
Si Si6 0.786541 0.517063 0.906150
Si Si7 0.135382 0.452856 0.790711
Si Si8 0.222223 0.807714 0.579649
O O1 0.500000 0.184870 0.928013
O O2 0.242570 0.171149 0.921031
O O3 0.338319 0.266716 0.929103
O O4 0.353892 0.199020 0.018501
O O5 0.500000 0.805493 0.769082
O O6 0.750000 0.803454 0.750000
O O7 0.640821 0.886778 0.797714
O O8 0.653750 0.796586 0.858812
O O9 0.609829 0.473340 0.456730
O O10 0.769597 0.869935 0.917391
O O11 0.000000 0.906919 0.920002
O O12 0.815026 0.974974 0.932104
O O13 0.863770 0.900672 0.014334
O O14 0.785093 0.071493 0.885286
O O15 0.000000 0.132902 0.899456
O O16 0.851127 0.483924 0.852858
O O17 0.250000 0.469502 0.750000
O O18 0.000000 0.465651 0.764079
#
# Coordination Sequence:
#
# PCOD9477459 Si02
#       8
#    16  16   4  16  16  16  16  16
#     4  10  22  36  58  85 116 156 199 240 292 358
#     4  10  21  37  57  84 116 156 196 241 290 344
#     4  12  24  32  58  92 120 156 194 254 304 354
#     4  10  19  32  52  80 115 149 185 235 295 356
#     4  10  22  36  52  79 117 153 194 237 292 357
#     4  12  21  35  57  85 118 154 195 242 302 357
#     4  10  22  38  56  83 119 158 202 240 287 356
#     4  10  20  36  57  86 117 152 191 242 298 353
#
# _framework density 19.684182
#
# number of rings (size 3 to 8) (size 9 to 14) (size 15 to 20)
#    0.000    1.655    3.448    1.241    0.966    7.172 
#    0.000    0.000    0.000    0.828    0.000    3.862 
#    0.000    0.000    0.000    0.000    0.000    0.000 
#
# Total GULP energy -322936.446234 kJ/mol
# GULP energy per Si atom -5567.869763 kJ/mol
# Density = 1.963938 g / cm^3
# Si number density = 19.684182 Si / 1000 Ang^3
#
#
#
# Elastic Constant Matrix: (Units=GPa)
#
#
# Indices 1 2 3 4 5 6 
#
# 1 141.8012 11.0615 30.5462 0.0000 0.0000 0.0000
# 2 11.0615 44.7389 3.4768 0.0000 0.0000 0.0000
# 3 30.5462 3.4768 26.6942 0.0000 0.0000 0.0000
# 4 0.0000 0.0000 0.0000 14.8666 0.0000 0.0000
# 5 0.0000 0.0000 0.0000 0.0000 13.0990 0.0000
# 6 0.0000 0.0000 0.0000 0.0000 0.0000 11.2250
#
#
#
# Elastic Compliance Matrix: (Units=1/GPa)
#
#
# Indices 1 2 3 4 5 6 
#
# 1 0.009459 -0.001513 -0.010627 0.000000 0.000000 0.000000
# 2 -0.001513 0.022822 -0.001241 0.000000 0.000000 0.000000
# 3 -0.010627 -0.001241 0.049784 0.000000 0.000000 0.000000
# 4 0.000000 0.000000 0.000000 0.067265 0.000000 0.000000
# 5 0.000000 0.000000 0.000000 0.000000 0.076342 0.000000
# 6 0.000000 0.000000 0.000000 0.000000 0.000000 0.089087
#
#
# Mechanical properties :
#
#
# Convention : Reuss Voigt Hill
#
# Bulk Modulus (GPa) = 18.08236 33.71147 25.89691
# Shear Modulus (GPa) = 13.89056 19.04811 16.46933
#
# Velocity S-wave (km/s) = 2.65933 3.11414 2.89568
# Velocity P-wave (km/s) = 4.31689 5.48579 4.93606
#
# Compressibility (1/GPa) = 0.05530253
#
# Stress axis : x y z
#
# Youngs Moduli (GPa) = 105.71450 43.81651 20.08686
#
# Poissons Ratio (x) = 0.06629 0.21347
# Poissons Ratio (y) = 0.15994 0.02493
# Poissons Ratio (z) = 1.12347 0.05439
#
# Static dielectric constant tensor:
#      x y z
#    x 1.726100 0.000000 0.000000 
#    y 0.000000 1.693860 0.000000 
#    z 0.000000 0.000000 1.698180 
# 
# From -- ./inp_files/43358.got.cif
#   From: 2010.05.17/outbox.cif.g08.bks.cpg/sg64_22_cif.got.tgz:43358.got - 2010.06.03 16:29:19.
