data_PCOD9477091
_publ_section_title
;
Structure prediction by ZEFSAII (Michael W. Deem and Ramdas Pophale) SiO2 
 PCOD9477091
Probable space group: C M C A
;
_chemical_formula_sum "Si O2"
_cell_formula_units_Z 104
_cell_length_a 22.058132
_cell_length_b 24.498475
_cell_length_c 9.596086
_cell_angle_alpha 90.000000
_cell_angle_beta 90.000000
_cell_angle_gamma 90.000000
_cell_volume 5185.634627
_symmetry_space_group_name_H-M "C M C A"
_symmetry_group_IT_number 64
_symmetry_cell_setting 'orthorhombic'
loop_
_space_group_symop_operation_xyz
x,y,z
-x,1/2-y,1/2+z
x,-y,-z
-x,1/2+y,1/2-z
-x,-y,-z
x,1/2+y,1/2-z
-x,y,z
x,1/2-y,1/2+z
1/2+x,1/2+y,z
1/2-x,-y,1/2+z
1/2+x,1/2-y,-z
1/2-x,y,1/2-z
1/2-x,1/2-y,-z
1/2+x,y,1/2-z
1/2-x,1/2+y,z
1/2+x,-y,1/2+z
loop_
_atom_site_type_symbol
_atom_site_label
_atom_site_fract_x
_atom_site_fract_y
_atom_site_fract_z
Si Si1 0.683501 0.621515 0.751874
Si Si2 0.869590 0.342271 0.530126
Si Si3 0.880124 0.435617 0.007190
Si Si4 0.500000 0.621058 0.376875
Si Si5 0.500000 0.284481 0.427945
Si Si6 0.316423 0.639841 0.315615
Si Si7 0.638122 0.787225 0.066847
Si Si8 0.000000 0.345722 0.563766
O O1 0.750000 0.596650 0.750000
O O2 0.636364 0.585831 0.661821
O O3 0.680722 0.680956 0.675222
O O4 0.670707 0.632131 0.912188
O O5 0.858928 0.366380 0.682084
O O6 0.857589 0.277640 0.550395
O O7 0.937994 0.354901 0.484493
O O8 0.886280 0.500000 0.000000
O O9 0.824530 0.413234 0.912086
O O10 0.940823 0.407321 0.944754
O O11 0.500000 0.685107 0.422294
O O12 0.500000 0.622434 0.210159
O O13 0.431306 0.299469 0.380746
O O14 0.500000 0.219647 0.414593
O O15 0.250000 0.649844 0.250000
O O16 0.343067 0.687089 0.417029
#
# Coordination Sequence:
#
# PCOD9477091 Si02
#       8
#    16  16  16   8   8  16  16   8
#     4  11  24  40  59  91 127 161 209 258 302 372
#     4  11  21  36  60  92 131 165 198 250 313 368
#     4  11  25  45  69  88 112 164 219 269 320 369
#     4  12  19  45  68  92 126 155 214 252 304 390
#     4  10  18  35  61  92 121 164 203 237 294 366
#     4  11  22  38  60  87 123 168 207 254 309 369
#     4  10  21  36  59  91 130 170 205 236 298 388
#     4  10  22  34  63  98 131 164 194 252 310 373
#
# _framework density 20.055406000000001
#
# number of rings (size 3 to 8) (size 9 to 14) (size 15 to 20)
#    0.000    1.231    4.615    3.000    0.000    9.231 
#    0.000    0.769    0.000    0.923    0.000    0.000 
#    0.000    0.000    0.000    0.000    0.000    0.000 
#
# Total GULP energy -289743.564860 kJ/mol
# GULP energy per Si atom -5571.991632 kJ/mol
# Density = 2.000976 g / cm^3
# Si number density = 20.055406 Si / 1000 Ang^3
#
#
#
# Elastic Constant Matrix: (Units=GPa)
#
#
# Indices 1 2 3 4 5 6 
#
# 1 83.2897 2.0450 -12.9552 0.0000 0.0000 0.0000
# 2 2.0450 66.8849 9.4657 0.0000 0.0000 0.0000
# 3 -12.9552 9.4657 66.5414 0.0000 0.0000 0.0000
# 4 0.0000 0.0000 0.0000 10.1769 0.0000 0.0000
# 5 0.0000 0.0000 0.0000 0.0000 31.0025 0.0000
# 6 0.0000 0.0000 0.0000 0.0000 0.0000 20.6618
#
#
#
# Elastic Compliance Matrix: (Units=1/GPa)
#
#
# Indices 1 2 3 4 5 6 
#
# 1 0.012417 -0.000737 0.002522 0.000000 0.000000 0.000000
# 2 -0.000737 0.015302 -0.002320 0.000000 0.000000 0.000000
# 3 0.002522 -0.002320 0.015849 0.000000 0.000000 0.000000
# 4 0.000000 0.000000 0.000000 0.098261 0.000000 0.000000
# 5 0.000000 0.000000 0.000000 0.000000 0.032255 0.000000
# 6 0.000000 0.000000 0.000000 0.000000 0.000000 0.048399
#
#
# Mechanical properties :
#
#
# Convention : Reuss Voigt Hill
#
# Bulk Modulus (GPa) = 23.52996 23.75853 23.64425
# Shear Modulus (GPa) = 21.03325 26.91228 23.97277
#
# Velocity S-wave (km/s) = 3.24197 3.66716 3.46110
# Velocity P-wave (km/s) = 5.07659 5.45921 5.27137
#
# Compressibility (1/GPa) = 0.04249901
#
# Stress axis : x y z
#
# Youngs Moduli (GPa) = 80.53671 65.35128 63.09403
#
# Poissons Ratio (x) = 0.04814 -0.15914
# Poissons Ratio (y) = 0.05932 0.14639
# Poissons Ratio (z) = -0.20313 0.15162
#
# Static dielectric constant tensor:
#      x y z
#    x 1.812530 0.000000 0.000000 
#    y 0.000000 1.684640 0.000000 
#    z 0.000000 0.000000 1.680830 
# 
# From -- ./inp_files/9697.got.cif
#   From: 2010.05.17/outbox.cif.g08.bks.cpg/sg64_5_cif.got.tgz:9697.got - 2010.06.03 16:29:19.
