data_PCOD9477414
_publ_section_title
;
Structure prediction by ZEFSAII (Michael W. Deem and Ramdas Pophale) SiO2 
 PCOD9477414
Probable space group: C M C A
;
_chemical_formula_sum "Si O2"
_cell_formula_units_Z 80
_cell_length_a 15.371770
_cell_length_b 28.222718
_cell_length_c 6.675380
_cell_angle_alpha 90.000000
_cell_angle_beta 90.000000
_cell_angle_gamma 90.000000
_cell_volume 2896.000998
_symmetry_space_group_name_H-M "C M C A"
_symmetry_group_IT_number 64
_symmetry_cell_setting 'orthorhombic'
loop_
_space_group_symop_operation_xyz
x,y,z
-x,1/2-y,1/2+z
x,-y,-z
-x,1/2+y,1/2-z
-x,-y,-z
x,1/2+y,1/2-z
-x,y,z
x,1/2-y,1/2+z
1/2+x,1/2+y,z
1/2-x,-y,1/2+z
1/2+x,1/2-y,-z
1/2-x,y,1/2-z
1/2-x,1/2-y,-z
1/2+x,y,1/2-z
1/2-x,1/2+y,z
1/2+x,-y,1/2+z
loop_
_atom_site_type_symbol
_atom_site_label
_atom_site_fract_x
_atom_site_fract_y
_atom_site_fract_z
Si Si1 0.402453 0.214361 0.565947
Si Si2 0.396279 0.485152 0.222425
Si Si3 0.852571 0.586028 0.215462
Si Si4 0.897755 0.884828 0.169301
Si Si5 0.654138 0.185920 0.153956
O O1 0.500000 0.221695 0.645833
O O2 0.359580 0.168856 0.677594
O O3 0.354173 0.264496 0.540185
O O4 0.407688 0.195737 0.341107
O O5 0.500000 0.478031 0.208776
O O6 0.384749 0.533956 0.343793
O O7 0.358642 0.432853 0.266173
O O8 0.362710 0.500000 0.000000
O O9 0.750000 0.581505 0.250000
O O10 0.892844 0.599801 0.432424
O O11 0.868478 0.633035 0.079888
O O12 0.000000 0.879535 0.220553
O O13 0.750000 0.182794 0.250000
#
# Coordination Sequence:
#
# PCOD9477414 Si02
#       5
#    16  16  16  16  16
#     4  10  19  32  51  74  97 125 166 207 238 281
#     4   8  13  24  43  63  83 109 143 186 230 266
#     4   9  16  25  41  66  94 118 145 185 232 279
#     4   8  15  28  46  67  90 116 150 194 236 274
#     4  10  20  33  48  69 100 132 159 195 247 294
#
# _framework density 27.624300999999999
#
# number of rings (size 3 to 8) (size 9 to 14) (size 15 to 20)
#    0.000    3.000    0.000    3.000    0.000    2.400 
#    0.000    1.000    0.000    4.800    0.000    0.000 
#    0.000   35.200    0.000    0.000    0.000    0.000 
#
# Total GULP energy -223177.918434 kJ/mol
# GULP energy per Si atom -5579.447961 kJ/mol
# Density = 2.756143 g / cm^3
# Si number density = 27.624301 Si / 1000 Ang^3
#
#
#
# Elastic Constant Matrix: (Units=GPa)
#
#
# Indices 1 2 3 4 5 6 
#
# 1 87.7125 24.5004 -9.6590 0.0000 0.0000 0.0000
# 2 24.5004 397.8264 46.6167 0.0000 0.0000 0.0000
# 3 -9.6590 46.6167 48.8753 0.0000 0.0000 0.0000
# 4 0.0000 0.0000 0.0000 69.3006 0.0000 0.0000
# 5 0.0000 0.0000 0.0000 0.0000 8.3381 0.0000
# 6 0.0000 0.0000 0.0000 0.0000 0.0000 -18.5047
#
#
#
# Elastic Compliance Matrix: (Units=1/GPa)
#
#
# Indices 1 2 3 4 5 6 
#
# 1 0.012108 -0.001155 0.003495 0.000000 0.000000 0.000000
# 2 -0.001155 0.002940 -0.003033 0.000000 0.000000 0.000000
# 3 0.003495 -0.003033 0.024043 0.000000 0.000000 0.000000
# 4 0.000000 0.000000 0.000000 0.014430 0.000000 0.000000
# 5 0.000000 0.000000 0.000000 0.000000 0.119931 0.000000
# 6 0.000000 0.000000 0.000000 0.000000 0.000000 -0.054040
#
#
# Mechanical properties :
#
#
# Convention : Reuss Voigt Hill
#
# Bulk Modulus (GPa) = 26.52108 73.03671 49.77889
# Shear Modulus (GPa) = 37.49056 43.35722 40.42389
#
# Velocity S-wave (km/s) = 3.68796 3.96603 3.82952
# Velocity P-wave (km/s) = 5.26842 6.88979 6.13292
#
# Compressibility (1/GPa) = 0.03770586
#
# Stress axis : x y z
#
# Youngs Moduli (GPa) = 82.58718 340.11758 41.59153
#
# Poissons Ratio (x) = 0.39291 -0.14535
# Poissons Ratio (y) = 0.09541 0.12613
# Poissons Ratio (z) = -0.28862 1.03144
#
# Static dielectric constant tensor:
#      x y z
#    x 2.022160 0.000000 0.000000 
#    y 0.000000 2.308260 0.000000 
#    z 0.000000 0.000000 2.326970 
# 
# From -- ./inp_files/7035.got.cif
#   From: 2010.05.17/outbox.cif.g08.bks.cpg/sg64_4_cif.got.tgz:7035.got - 2010.06.03 16:29:19.
