data_PCOD9477345
_publ_section_title
;
Structure prediction by ZEFSAII (Michael W. Deem and Ramdas Pophale) SiO2 
 PCOD9477345
Probable space group: C M C A
;
_chemical_formula_sum "Si O2"
_cell_formula_units_Z 96
_cell_length_a 8.466902
_cell_length_b 21.226025
_cell_length_c 25.814461
_cell_angle_alpha 90.000000
_cell_angle_beta 90.000000
_cell_angle_gamma 90.000000
_cell_volume 4639.340689
_symmetry_space_group_name_H-M "C M C A"
_symmetry_group_IT_number 64
_symmetry_cell_setting 'orthorhombic'
loop_
_space_group_symop_operation_xyz
x,y,z
-x,1/2-y,1/2+z
x,-y,-z
-x,1/2+y,1/2-z
-x,-y,-z
x,1/2+y,1/2-z
-x,y,z
x,1/2-y,1/2+z
1/2+x,1/2+y,z
1/2-x,-y,1/2+z
1/2+x,1/2-y,-z
1/2-x,y,1/2-z
1/2-x,1/2-y,-z
1/2+x,y,1/2-z
1/2-x,1/2+y,z
1/2+x,-y,1/2+z
loop_
_atom_site_type_symbol
_atom_site_label
_atom_site_fract_x
_atom_site_fract_y
_atom_site_fract_z
Si Si1 0.311223 0.790994 0.109444
Si Si2 0.811205 0.157836 0.386938
Si Si3 0.308194 0.051698 0.194663
Si Si4 0.183049 0.075049 0.651355
Si Si5 0.176414 0.672979 0.501504
Si Si6 0.678803 0.035664 0.549423
O O1 0.500000 0.793376 0.111242
O O2 0.248750 0.725911 0.133062
O O3 0.251285 0.854614 0.139146
O O4 0.262493 0.789574 0.048134
O O5 0.756855 0.099375 0.351288
O O6 0.752875 0.156239 0.446380
O O7 0.000000 0.157911 0.387069
O O8 0.500000 0.049733 0.193450
O O9 0.250000 0.075927 0.250000
O O10 0.247668 0.979138 0.188403
O O11 0.203370 0.038413 0.596911
O O12 0.000000 0.083891 0.664946
O O13 0.161607 0.606215 0.529879
O O14 0.000000 0.698654 0.493844
O O15 0.500000 0.012025 0.562483
O O16 0.742898 0.000000 0.500000
#
# Coordination Sequence:
#
# PCOD9477345 Si02
#       6
#    16  16  16  16  16  16
#     4  10  20  35  56  82 115 151 184 220 266 324
#     4  11  22  36  55  81 114 148 185 228 273 324
#     4  10  23  42  62  83 106 137 181 232 282 331
#     4   9  19  36  56  78 104 136 176 220 266 317
#     4  10  19  31  50  79 115 152 188 222 263 320
#     4   9  17  28  45  74 109 142 177 216 259 312
#
# _framework density 20.692596000000002
#
# number of rings (size 3 to 8) (size 9 to 14) (size 15 to 20)
#    0.000    2.167    0.000    3.000    0.000    3.667 
#    0.000    0.833    0.000    4.000    0.000    0.000 
#    0.000    0.000    0.000    0.000    0.000    0.000 
#
# Total GULP energy -267295.232519 kJ/mol
# GULP energy per Si atom -5568.650677 kJ/mol
# Density = 2.064550 g / cm^3
# Si number density = 20.692596 Si / 1000 Ang^3
#
#
#
# Elastic Constant Matrix: (Units=GPa)
#
#
# Indices 1 2 3 4 5 6 
#
# 1 32.1869 21.4325 11.0910 0.0000 0.0000 0.0000
# 2 21.4325 109.8114 49.8713 0.0000 0.0000 0.0000
# 3 11.0910 49.8713 68.6457 0.0000 0.0000 0.0000
# 4 0.0000 0.0000 0.0000 21.8771 0.0000 0.0000
# 5 0.0000 0.0000 0.0000 0.0000 19.4247 0.0000
# 6 0.0000 0.0000 0.0000 0.0000 0.0000 23.4514
#
#
#
# Elastic Compliance Matrix: (Units=1/GPa)
#
#
# Indices 1 2 3 4 5 6 
#
# 1 0.035761 -0.006500 -0.001055 0.000000 0.000000 0.000000
# 2 -0.006500 0.014772 -0.009682 0.000000 0.000000 0.000000
# 3 -0.001055 -0.009682 0.021772 0.000000 0.000000 0.000000
# 4 0.000000 0.000000 0.000000 0.045710 0.000000 0.000000
# 5 0.000000 0.000000 0.000000 0.000000 0.051481 0.000000
# 6 0.000000 0.000000 0.000000 0.000000 0.000000 0.042641
#
#
# Mechanical properties :
#
#
# Convention : Reuss Voigt Hill
#
# Bulk Modulus (GPa) = 26.43412 41.71483 34.07448
# Shear Modulus (GPa) = 19.28849 21.50059 20.39454
#
# Velocity S-wave (km/s) = 3.05642 3.22692 3.14283
# Velocity P-wave (km/s) = 5.02573 5.83842 5.44725
#
# Compressibility (1/GPa) = 0.03782989
#
# Stress axis : x y z
#
# Youngs Moduli (GPa) = 27.96373 67.69438 45.93063
#
# Poissons Ratio (x) = 0.44003 0.04847
# Poissons Ratio (y) = 0.18177 0.44469
# Poissons Ratio (z) = 0.02951 0.65541
#
# Static dielectric constant tensor:
#      x y z
#    x 1.778180 0.000000 0.000000 
#    y 0.000000 1.888440 0.000000 
#    z 0.000000 0.000000 1.768310 
# 
# From -- ./inp_files/42965.got.cif
#   From: 2010.05.17/outbox.cif.g08.bks.cpg/sg64_22_cif.got.tgz:42965.got - 2010.06.03 16:29:19.
