data_PCOD9477937
_publ_section_title
;
Structure prediction by ZEFSAII (Michael W. Deem and Ramdas Pophale) SiO2 
 PCOD9477937
Probable space group: C M C A
;
_chemical_formula_sum "Si O2"
_cell_formula_units_Z 112
_cell_length_a 14.842135
_cell_length_b 14.493082
_cell_length_c 24.656801
_cell_angle_alpha 90.000000
_cell_angle_beta 90.000000
_cell_angle_gamma 90.000000
_cell_volume 5303.882044
_symmetry_space_group_name_H-M "C M C A"
_symmetry_group_IT_number 64
_symmetry_cell_setting 'orthorhombic'
loop_
_space_group_symop_operation_xyz
x,y,z
-x,1/2-y,1/2+z
x,-y,-z
-x,1/2+y,1/2-z
-x,-y,-z
x,1/2+y,1/2-z
-x,y,z
x,1/2-y,1/2+z
1/2+x,1/2+y,z
1/2-x,-y,1/2+z
1/2+x,1/2-y,-z
1/2-x,y,1/2-z
1/2-x,1/2-y,-z
1/2+x,y,1/2-z
1/2-x,1/2+y,z
1/2+x,-y,1/2+z
loop_
_atom_site_type_symbol
_atom_site_label
_atom_site_fract_x
_atom_site_fract_y
_atom_site_fract_z
Si Si1 0.824927 0.212216 0.895764
Si Si2 0.394669 0.542249 0.711099
Si Si3 0.103068 0.259177 0.222435
Si Si4 0.603186 0.107800 0.503238
Si Si5 0.607510 0.470907 0.160824
Si Si6 0.104513 0.145376 0.322453
Si Si7 0.851389 0.838436 0.884851
O O1 0.849193 0.126311 0.856489
O O2 0.890361 0.294868 0.876382
O O3 0.731445 0.267287 0.890143
O O4 0.840201 0.168926 0.954816
O O5 0.500000 0.553166 0.694380
O O6 0.352372 0.643283 0.707985
O O7 0.389475 0.516092 0.774459
O O8 0.355359 0.457213 0.677318
O O9 0.145608 0.204097 0.272636
O O10 0.098200 0.200000 0.168093
O O11 0.000000 0.280874 0.240942
O O12 0.500000 0.105687 0.523225
O O13 0.605297 0.153805 0.444047
O O14 0.632932 0.000000 0.500000
O O15 0.500000 0.472402 0.146100
O O16 0.658795 0.553984 0.131163
O O17 0.000000 0.131312 0.307949
#
# Coordination Sequence:
#
# PCOD9477937 Si02
#       7
#    16  16  16  16  16  16  16
#     4  12  25  39  61  98 134 161 201 276 341 377
#     4   9  18  33  58  89 122 167 223 271 297 354
#     4  10  19  35  60  89 126 174 224 264 309 379
#     4  11  23  44  74  95 112 160 229 273 307 382
#     4  11  20  40  69  95 124 174 235 264 289 378
#     4  10  19  35  60  89 126 174 224 264 309 379
#     4  12  25  39  61  98 134 161 201 276 341 377
#
# _framework density 21.116607999999999
#
# number of rings (size 3 to 8) (size 9 to 14) (size 15 to 20)
#    0.000    1.286    4.286    3.000    0.000    1.714 
#    0.000    1.429    0.000    0.000    0.000    5.000 
#    0.000    0.000    0.000    0.000    0.000    0.000 
#
# Total GULP energy -312278.898932 kJ/mol
# GULP energy per Si atom -5576.408910 kJ/mol
# Density = 2.106855 g / cm^3
# Si number density = 21.116608 Si / 1000 Ang^3
#
#
#
# Elastic Constant Matrix: (Units=GPa)
#
#
# Indices 1 2 3 4 5 6 
#
# 1 66.9257 13.9366 4.2982 0.0000 0.0000 0.0000
# 2 13.9366 103.6022 2.5016 0.0000 0.0000 0.0000
# 3 4.2982 2.5016 59.2755 0.0000 0.0000 0.0000
# 4 0.0000 0.0000 0.0000 44.9594 0.0000 0.0000
# 5 0.0000 0.0000 0.0000 0.0000 12.5172 0.0000
# 6 0.0000 0.0000 0.0000 0.0000 0.0000 18.3311
#
#
#
# Elastic Compliance Matrix: (Units=1/GPa)
#
#
# Indices 1 2 3 4 5 6 
#
# 1 0.015435 -0.002051 -0.001033 0.000000 0.000000 0.000000
# 2 -0.002051 0.009935 -0.000271 0.000000 0.000000 0.000000
# 3 -0.001033 -0.000271 0.016957 0.000000 0.000000 0.000000
# 4 0.000000 0.000000 0.000000 0.022242 0.000000 0.000000
# 5 0.000000 0.000000 0.000000 0.000000 0.079890 0.000000
# 6 0.000000 0.000000 0.000000 0.000000 0.000000 0.054552
#
#
# Mechanical properties :
#
#
# Convention : Reuss Voigt Hill
#
# Bulk Modulus (GPa) = 28.07598 30.14180 29.10889
# Shear Modulus (GPa) = 22.97865 29.09935 26.03900
#
# Velocity S-wave (km/s) = 3.30233 3.71621 3.51537
# Velocity P-wave (km/s) = 5.27874 5.72002 5.50380
#
# Compressibility (1/GPa) = 0.03561764
#
# Stress axis : x y z
#
# Youngs Moduli (GPa) = 64.78593 100.65630 58.97381
#
# Poissons Ratio (x) = 0.20649 0.06090
# Poissons Ratio (y) = 0.13290 0.01595
# Poissons Ratio (z) = 0.06690 0.02723
#
# Static dielectric constant tensor:
#      x y z
#    x 1.864190 0.000000 0.000000 
#    y 0.000000 1.799890 0.000000 
#    z 0.000000 0.000000 1.739380 
# 
# From -- ./inp_files/45290.got.cif
#   From: 2010.05.17/outbox.cif.g08.bks.cpg/sg64_23_cif.got.tgz:45290.got - 2010.06.03 16:29:19.
