data_PCOD9477322
_publ_section_title
;
Structure prediction by ZEFSAII (Michael W. Deem and Ramdas Pophale) SiO2 
 PCOD9477322
Probable space group: C M C A
;
_chemical_formula_sum "Si O2"
_cell_formula_units_Z 96
_cell_length_a 8.897461
_cell_length_b 24.160449
_cell_length_c 26.591091
_cell_angle_alpha 90.000000
_cell_angle_beta 90.000000
_cell_angle_gamma 90.000000
_cell_volume 5716.197824
_symmetry_space_group_name_H-M "C M C A"
_symmetry_group_IT_number 64
_symmetry_cell_setting 'orthorhombic'
loop_
_space_group_symop_operation_xyz
x,y,z
-x,1/2-y,1/2+z
x,-y,-z
-x,1/2+y,1/2-z
-x,-y,-z
x,1/2+y,1/2-z
-x,y,z
x,1/2-y,1/2+z
1/2+x,1/2+y,z
1/2-x,-y,1/2+z
1/2+x,1/2-y,-z
1/2-x,y,1/2-z
1/2-x,1/2-y,-z
1/2+x,y,1/2-z
1/2-x,1/2+y,z
1/2+x,-y,1/2+z
loop_
_atom_site_type_symbol
_atom_site_label
_atom_site_fract_x
_atom_site_fract_y
_atom_site_fract_z
Si Si1 0.679810 0.587464 0.804786
Si Si2 0.178531 0.610221 0.071721
Si Si3 0.322705 0.826349 0.390813
Si Si4 0.326365 0.414008 0.458279
Si Si5 0.321399 0.729040 0.052847
Si Si6 0.322096 0.495892 0.626378
O O1 0.500000 0.586243 0.801995
O O2 0.750000 0.593106 0.750000
O O3 0.722515 0.638981 0.841211
O O4 0.737428 0.531438 0.831695
O O5 0.263294 0.668056 0.066919
O O6 0.228744 0.566409 0.114010
O O7 0.000000 0.620689 0.078683
O O8 0.194508 0.580601 0.017442
O O9 0.500000 0.814741 0.388800
O O10 0.285269 0.868337 0.436300
O O11 0.232216 0.771359 0.403912
O O12 0.500000 0.395024 0.450216
O O13 0.306582 0.468593 0.425060
O O14 0.500000 0.729803 0.047477
O O15 0.250000 0.750000 0.000000
O O16 0.500000 0.494620 0.638333
#
# Coordination Sequence:
#
# PCOD9477322 Si02
#       6
#    16  16  16  16  16  16
#     4  10  21  37  59  83 106 133 170 220 273 321
#     4  10  19  31  49  74 107 145 180 212 253 306
#     4  10  20  34  52  77 106 137 177 222 265 310
#     4   9  16  28  48  73 104 141 176 210 251 304
#     4  12  23  34  50  73 106 147 185 220 258 309
#     4   9  18  32  51  77 107 138 174 215 261 314
#
# _framework density 16.794381000000001
#
# number of rings (size 3 to 8) (size 9 to 14) (size 15 to 20)
#    0.000    2.000    1.667    3.000    0.000    4.667 
#    0.000    0.000    0.000    6.000    0.000    4.667 
#    0.000    0.000    0.000    0.000    0.000    0.000 
#
# Total GULP energy -267737.494710 kJ/mol
# GULP energy per Si atom -5577.864473 kJ/mol
# Density = 1.675616 g / cm^3
# Si number density = 16.794381 Si / 1000 Ang^3
#
#
#
# Elastic Constant Matrix: (Units=GPa)
#
#
# Indices 1 2 3 4 5 6 
#
# 1 67.6398 47.4390 44.5329 0.0000 0.0000 0.0000
# 2 47.4390 94.7187 53.2492 0.0000 0.0000 0.0000
# 3 44.5329 53.2492 91.8142 0.0000 0.0000 0.0000
# 4 0.0000 0.0000 0.0000 11.8314 0.0000 0.0000
# 5 0.0000 0.0000 0.0000 0.0000 19.3796 0.0000
# 6 0.0000 0.0000 0.0000 0.0000 0.0000 27.2234
#
#
#
# Elastic Compliance Matrix: (Units=1/GPa)
#
#
# Indices 1 2 3 4 5 6 
#
# 1 0.025824 -0.008743 -0.007455 0.000000 0.000000 0.000000
# 2 -0.008743 0.018625 -0.006561 0.000000 0.000000 0.000000
# 3 -0.007455 -0.006561 0.018313 0.000000 0.000000 0.000000
# 4 0.000000 0.000000 0.000000 0.084521 0.000000 0.000000
# 5 0.000000 0.000000 0.000000 0.000000 0.051601 0.000000
# 6 0.000000 0.000000 0.000000 0.000000 0.000000 0.036733
#
#
# Mechanical properties :
#
#
# Convention : Reuss Voigt Hill
#
# Bulk Modulus (GPa) = 57.99210 60.51276 59.25243
# Shear Modulus (GPa) = 17.42872 18.95033 18.18953
#
# Velocity S-wave (km/s) = 3.22494 3.36277 3.29458
# Velocity P-wave (km/s) = 6.96223 7.15454 7.05904
#
# Compressibility (1/GPa) = 0.01724373
#
# Stress axis : x y z
#
# Youngs Moduli (GPa) = 38.72346 53.69138 54.60634
#
# Poissons Ratio (x) = 0.46941 0.40709
# Poissons Ratio (y) = 0.33855 0.35829
# Poissons Ratio (z) = 0.28869 0.35229
#
# Static dielectric constant tensor:
#      x y z
#    x 1.565360 0.000000 0.000000 
#    y 0.000000 1.582150 0.000000 
#    z 0.000000 0.000000 1.554200 
# 
# From -- ./inp_files/43034.got.cif
#   From: 2010.05.17/outbox.cif.g08.bks.cpg/sg64_22_cif.got.tgz:43034.got - 2010.06.03 16:29:19.
