data_PCOD9477881
_publ_section_title
;
Structure prediction by ZEFSAII (Michael W. Deem and Ramdas Pophale) SiO2 
 PCOD9477881
Probable space group: C M C A
;
_chemical_formula_sum "Si O2"
_cell_formula_units_Z 80
_cell_length_a 10.902180
_cell_length_b 30.079684
_cell_length_c 10.980888
_cell_angle_alpha 90.000000
_cell_angle_beta 90.000000
_cell_angle_gamma 90.000000
_cell_volume 3601.007945
_symmetry_space_group_name_H-M "C M C A"
_symmetry_group_IT_number 64
_symmetry_cell_setting 'orthorhombic'
loop_
_space_group_symop_operation_xyz
x,y,z
-x,1/2-y,1/2+z
x,-y,-z
-x,1/2+y,1/2-z
-x,-y,-z
x,1/2+y,1/2-z
-x,y,z
x,1/2-y,1/2+z
1/2+x,1/2+y,z
1/2-x,-y,1/2+z
1/2+x,1/2-y,-z
1/2-x,y,1/2-z
1/2-x,1/2-y,-z
1/2+x,y,1/2-z
1/2-x,1/2+y,z
1/2+x,-y,1/2+z
loop_
_atom_site_type_symbol
_atom_site_label
_atom_site_fract_x
_atom_site_fract_y
_atom_site_fract_z
Si Si1 0.138126 0.254734 0.659355
Si Si2 0.000000 0.535395 0.890496
Si Si3 0.750974 0.592516 0.890334
Si Si4 0.634252 0.826820 0.989916
Si Si5 0.870650 0.351751 0.714055
Si Si6 0.000000 0.037721 0.896959
O O1 0.250000 0.244883 0.750000
O O2 0.151373 0.221446 0.546451
O O3 0.139646 0.307660 0.630045
O O4 0.000000 0.246042 0.709382
O O5 0.127286 0.562537 0.906674
O O6 0.000000 0.521389 0.745914
O O7 0.000000 0.500000 0.000000
O O8 0.750000 0.607091 0.750000
O O9 0.769027 0.636024 0.971057
O O10 0.624370 0.566598 0.913576
O O11 0.500000 0.842479 0.038229
O O12 0.621222 0.827132 0.845420
O O13 0.750000 0.380231 0.750000
O O14 0.000000 0.375033 0.689184
O O15 0.000000 0.000000 0.000000
#
# Coordination Sequence:
#
# PCOD9477881 Si02
#       6
#    16   8  16  16  16   8
#     4   9  18  32  50  73 102 139 188 236 285 335
#     4  10  20  38  66  92 118 164 200 222 296 384
#     4  10  20  37  61  88 120 155 194 244 291 351
#     4  10  19  35  56  78 111 154 197 241 296 354
#     4   9  19  35  52  73 105 146 192 245 296 350
#     4  10  22  40  62  96 130 148 192 258 296 344
#
# _framework density 22.216003000000001
#
# number of rings (size 3 to 8) (size 9 to 14) (size 15 to 20)
#    0.000    2.400    1.000    1.200    0.000    3.200 
#    3.600    4.000    0.000    0.000    0.000    0.000 
#    0.000    0.000    0.000    0.000    0.000    0.000 
#
# Total GULP energy -222754.972560 kJ/mol
# GULP energy per Si atom -5568.874314 kJ/mol
# Density = 2.216544 g / cm^3
# Si number density = 22.216003 Si / 1000 Ang^3
#
#
#
# Elastic Constant Matrix: (Units=GPa)
#
#
# Indices 1 2 3 4 5 6 
#
# 1 140.1099 21.7587 14.5274 0.0000 0.0000 0.0000
# 2 21.7587 76.0031 71.6360 0.0000 0.0000 0.0000
# 3 14.5274 71.6360 93.9395 0.0000 0.0000 0.0000
# 4 0.0000 0.0000 0.0000 32.1272 0.0000 0.0000
# 5 0.0000 0.0000 0.0000 0.0000 25.5280 0.0000
# 6 0.0000 0.0000 0.0000 0.0000 0.0000 26.0465
#
#
#
# Elastic Compliance Matrix: (Units=1/GPa)
#
#
# Indices 1 2 3 4 5 6 
#
# 1 0.007546 -0.003770 0.001708 0.000000 0.000000 0.000000
# 2 -0.003770 0.048667 -0.036529 0.000000 0.000000 0.000000
# 3 0.001708 -0.036529 0.038237 0.000000 0.000000 0.000000
# 4 0.000000 0.000000 0.000000 0.031126 0.000000 0.000000
# 5 0.000000 0.000000 0.000000 0.000000 0.039173 0.000000
# 6 0.000000 0.000000 0.000000 0.000000 0.000000 0.038393
#
#
# Mechanical properties :
#
#
# Convention : Reuss Voigt Hill
#
# Bulk Modulus (GPa) = 57.91273 58.43298 58.17285
# Shear Modulus (GPa) = 17.47757 30.21569 23.84663
#
# Velocity S-wave (km/s) = 2.80788 3.69194 3.27983
# Velocity P-wave (km/s) = 6.05284 6.67332 6.37064
#
# Compressibility (1/GPa) = 0.01726736
#
# Stress axis : x y z
#
# Youngs Moduli (GPa) = 132.52661 20.54769 26.15236
#
# Poissons Ratio (x) = 0.07747 -0.04467
# Poissons Ratio (y) = 0.49967 0.95533
# Poissons Ratio (z) = -0.22639 0.75060
#
# Static dielectric constant tensor:
#      x y z
#    x 2.070060 0.000000 0.000000 
#    y 0.000000 1.775120 0.000000 
#    z 0.000000 0.000000 1.886790 
# 
# From -- ./inp_files/13237.got.cif
#   From: 2010.05.17/outbox.cif.g08.bks.cpg/sg64_7_cif.got.tgz:13237.got - 2010.06.03 16:29:19.
