data_PCOD9477806
_publ_section_title
;
Structure prediction by ZEFSAII (Michael W. Deem and Ramdas Pophale) SiO2 
 PCOD9477806
Probable space group: C M C A
;
_chemical_formula_sum "Si O2"
_cell_formula_units_Z 96
_cell_length_a 9.038159
_cell_length_b 29.927876
_cell_length_c 18.957641
_cell_angle_alpha 90.000000
_cell_angle_beta 90.000000
_cell_angle_gamma 90.000000
_cell_volume 5127.907326
_symmetry_space_group_name_H-M "C M C A"
_symmetry_group_IT_number 64
_symmetry_cell_setting 'orthorhombic'
loop_
_space_group_symop_operation_xyz
x,y,z
-x,1/2-y,1/2+z
x,-y,-z
-x,1/2+y,1/2-z
-x,-y,-z
x,1/2+y,1/2-z
-x,y,z
x,1/2-y,1/2+z
1/2+x,1/2+y,z
1/2-x,-y,1/2+z
1/2+x,1/2-y,-z
1/2-x,y,1/2-z
1/2-x,1/2-y,-z
1/2+x,y,1/2-z
1/2-x,1/2+y,z
1/2+x,-y,1/2+z
loop_
_atom_site_type_symbol
_atom_site_label
_atom_site_fract_x
_atom_site_fract_y
_atom_site_fract_z
Si Si1 0.825031 0.812920 0.942814
Si Si2 0.823442 0.941517 0.071834
Si Si3 0.175985 0.638378 0.678408
Si Si4 0.676281 0.775001 0.398875
Si Si5 0.824345 0.485989 0.826223
Si Si6 0.824765 0.908686 0.568701
O O1 0.760864 0.771719 0.897950
O O2 0.744185 0.859437 0.928534
O O3 0.000000 0.818169 0.932196
O O4 0.801565 0.797878 0.024284
O O5 0.796405 0.895457 0.114455
O O6 0.000000 0.948449 0.066218
O O7 0.749142 0.979769 0.118705
O O8 0.752296 0.935475 0.995272
O O9 0.250000 0.622358 0.750000
O O10 0.226984 0.688019 0.657175
O O11 0.000000 0.639896 0.688333
O O12 0.500000 0.767518 0.391372
O O13 0.750000 0.490227 0.750000
O O14 0.802893 0.436945 0.860019
O O15 0.000000 0.494763 0.821253
O O16 0.000000 0.905942 0.554806
#
# Coordination Sequence:
#
# PCOD9477806 Si02
#       6
#    16  16  16  16  16  16
#     4  10  19  34  58  86 113 145 192 239 289 346
#     4  11  22  39  62  89 119 154 197 245 297 352
#     4  10  21  36  54  82 119 155 193 238 288 349
#     4   9  18  35  54  79 116 150 187 236 287 343
#     4  11  25  43  61  86 118 156 198 243 298 356
#     4  11  23  39  61  89 120 153 196 247 296 350
#
# _framework density 18.721088000000002
#
# number of rings (size 3 to 8) (size 9 to 14) (size 15 to 20)
#    0.000    1.667    1.667    3.000    0.000    8.667 
#    0.000    0.833    0.000    0.000    0.000    0.000 
#    0.000    0.000    0.000    0.000    0.000    0.000 
#
# Total GULP energy -268174.965492 kJ/mol
# GULP energy per Si atom -5586.978448 kJ/mol
# Density = 1.867848 g / cm^3
# Si number density = 18.721088 Si / 1000 Ang^3
#
#
#
# Elastic Constant Matrix: (Units=GPa)
#
#
# Indices 1 2 3 4 5 6 
#
# 1 71.4661 62.2244 27.0765 0.0000 0.0000 0.0000
# 2 62.2244 116.4926 25.5576 0.0000 0.0000 0.0000
# 3 27.0765 25.5576 45.0322 0.0000 0.0000 0.0000
# 4 0.0000 0.0000 0.0000 13.8066 0.0000 0.0000
# 5 0.0000 0.0000 0.0000 0.0000 28.6038 0.0000
# 6 0.0000 0.0000 0.0000 0.0000 0.0000 34.8469
#
#
#
# Elastic Compliance Matrix: (Units=1/GPa)
#
#
# Indices 1 2 3 4 5 6 
#
# 1 0.029711 -0.013650 -0.010117 0.000000 0.000000 0.000000
# 2 -0.013650 0.016077 -0.000917 0.000000 0.000000 0.000000
# 3 -0.010117 -0.000917 0.028810 0.000000 0.000000 0.000000
# 4 0.000000 0.000000 0.000000 0.072429 0.000000 0.000000
# 5 0.000000 0.000000 0.000000 0.000000 0.034960 0.000000
# 6 0.000000 0.000000 0.000000 0.000000 0.000000 0.028697
#
#
# Mechanical properties :
#
#
# Convention : Reuss Voigt Hill
#
# Bulk Modulus (GPa) = 39.63692 51.41198 45.52445
# Shear Modulus (GPa) = 18.62462 23.32696 20.97579
#
# Velocity S-wave (km/s) = 3.15754 3.53374 3.35092
# Velocity P-wave (km/s) = 5.87467 6.64616 6.27229
#
# Compressibility (1/GPa) = 0.02522900
#
# Stress axis : x y z
#
# Youngs Moduli (GPa) = 33.65759 62.20177 34.71065
#
# Poissons Ratio (x) = 0.84908 0.35117
# Poissons Ratio (y) = 0.45944 0.03181
# Poissons Ratio (z) = 0.34052 0.05701
#
# Static dielectric constant tensor:
#      x y z
#    x 1.623360 0.000000 0.000000 
#    y 0.000000 1.655890 0.000000 
#    z 0.000000 0.000000 1.620590 
# 
# From -- ./inp_files/37057.got.cif
#   From: 2010.05.17/outbox.cif.g08.bks.cpg/sg64_19_cif.got.tgz:37057.got - 2010.06.03 16:29:19.
