data_PCOD9477305
_publ_section_title
;
Structure prediction by ZEFSAII (Michael W. Deem and Ramdas Pophale) SiO2 
 PCOD9477305
Probable space group: C M C A
;
_chemical_formula_sum "Si O2"
_cell_formula_units_Z 96
_cell_length_a 8.864760
_cell_length_b 26.026522
_cell_length_c 25.692895
_cell_angle_alpha 90.000000
_cell_angle_beta 90.000000
_cell_angle_gamma 90.000000
_cell_volume 5927.835731
_symmetry_space_group_name_H-M "C M C A"
_symmetry_group_IT_number 64
_symmetry_cell_setting 'orthorhombic'
loop_
_space_group_symop_operation_xyz
x,y,z
-x,1/2-y,1/2+z
x,-y,-z
-x,1/2+y,1/2-z
-x,-y,-z
x,1/2+y,1/2-z
-x,y,z
x,1/2-y,1/2+z
1/2+x,1/2+y,z
1/2-x,-y,1/2+z
1/2+x,1/2-y,-z
1/2-x,y,1/2-z
1/2-x,1/2-y,-z
1/2+x,y,1/2-z
1/2-x,1/2+y,z
1/2+x,-y,1/2+z
loop_
_atom_site_type_symbol
_atom_site_label
_atom_site_fract_x
_atom_site_fract_y
_atom_site_fract_z
Si Si1 0.180357 0.749669 0.192069
Si Si2 0.672788 0.562210 0.995592
Si Si3 0.319461 0.635781 0.807841
Si Si4 0.821066 0.055932 0.612032
Si Si5 0.319243 0.645451 0.192294
Si Si6 0.317942 0.942736 0.610324
O O1 0.250000 0.751125 0.250000
O O2 0.213319 0.806547 0.170602
O O3 0.254197 0.698587 0.168653
O O4 0.000000 0.743395 0.194689
O O5 0.500000 0.579016 0.986443
O O6 0.772403 0.574544 0.945679
O O7 0.670945 0.500000 0.000000
O O8 0.724367 0.578865 0.053037
O O9 0.500000 0.630676 0.804107
O O10 0.250000 0.631580 0.750000
O O11 0.252104 0.592897 0.845276
O O12 0.000000 0.055703 0.616965
O O13 0.758147 0.997972 0.618271
O O14 0.500000 0.649399 0.196601
O O15 0.250000 0.638725 0.250000
O O16 0.281537 0.597525 0.155434
O O17 0.500000 0.950226 0.609019
#
# Coordination Sequence:
#
# PCOD9477305 Si02
#       6
#    16  16  16  16  16  16
#     4   9  17  30  49  70  92 122 159 196 233 275
#     4   8  15  31  51  67  89 124 163 199 236 281
#     4  10  20  34  51  71  97 128 160 195 236 284
#     4  11  21  31  48  74 100 126 157 197 241 284
#     4  10  19  31  49  72  98 127 158 193 234 281
#     4   9  19  34  50  69  96 131 164 195 237 285
#
# _framework density 16.194780000000002
#
# number of rings (size 3 to 8) (size 9 to 14) (size 15 to 20)
#    0.000    2.500    0.000    5.000    0.000    7.000 
#    0.000    1.667    0.000    1.000    0.000    0.000 
#    0.000    0.000    0.000    0.000    0.000    0.000 
#
# Total GULP energy -267414.433205 kJ/mol
# GULP energy per Si atom -5571.134025 kJ/mol
# Density = 1.615792 g / cm^3
# Si number density = 16.194780 Si / 1000 Ang^3
#
#
#
# Elastic Constant Matrix: (Units=GPa)
#
#
# Indices 1 2 3 4 5 6 
#
# 1 80.3548 60.0422 49.3636 0.0000 0.0000 0.0000
# 2 60.0422 112.1211 69.6576 0.0000 0.0000 0.0000
# 3 49.3636 69.6576 98.8376 0.0000 0.0000 0.0000
# 4 0.0000 0.0000 0.0000 -3.3932 0.0000 0.0000
# 5 0.0000 0.0000 0.0000 0.0000 20.0095 0.0000
# 6 0.0000 0.0000 0.0000 0.0000 0.0000 16.9760
#
#
#
# Elastic Compliance Matrix: (Units=1/GPa)
#
#
# Indices 1 2 3 4 5 6 
#
# 1 0.021938 -0.008789 -0.004762 0.000000 0.000000 0.000000
# 2 -0.008789 0.019387 -0.009274 0.000000 0.000000 0.000000
# 3 -0.004762 -0.009274 0.019032 0.000000 0.000000 0.000000
# 4 0.000000 0.000000 0.000000 -0.294709 0.000000 0.000000
# 5 0.000000 0.000000 0.000000 0.000000 0.049976 0.000000
# 6 0.000000 0.000000 0.000000 0.000000 0.000000 0.058907
#
#
# Mechanical properties :
#
#
# Convention : Reuss Voigt Hill
#
# Bulk Modulus (GPa) = 67.99779 72.16004 70.07891
# Shear Modulus (GPa) = -66.74108 14.20179 -26.26965
#
# Velocity S-wave (km/s) = -6.42658 2.96452 -4.03191
# Velocity P-wave (km/s) = 3.60407 7.50814 4.65741
#
# Compressibility (1/GPa) = 0.01470636
#
# Stress axis : x y z
#
# Youngs Moduli (GPa) = 45.58324 51.58039 52.54339
#
# Poissons Ratio (x) = 0.45336 0.25022
# Poissons Ratio (y) = 0.40065 0.48727
# Poissons Ratio (z) = 0.21708 0.47834
#
# Static dielectric constant tensor:
#      x y z
#    x 1.540910 0.000000 0.000000 
#    y 0.000000 1.552790 0.000000 
#    z 0.000000 0.000000 1.545420 
# 
# From -- ./inp_files/48632.got.cif
#   From: 2010.05.17/outbox.cif.g08.bks.cpg/sg64_25_cif.got.tgz:48632.got - 2010.06.03 16:29:19.
