data_PCOD9477784
_publ_section_title
;
Structure prediction by ZEFSAII (Michael W. Deem and Ramdas Pophale) SiO2 
 PCOD9477784
Probable space group: C M C A
;
_chemical_formula_sum "Si O2"
_cell_formula_units_Z 40
_cell_length_a 20.805548
_cell_length_b 17.198022
_cell_length_c 5.016426
_cell_angle_alpha 90.000000
_cell_angle_beta 90.000000
_cell_angle_gamma 90.000000
_cell_volume 1794.948818
_symmetry_space_group_name_H-M "C M C A"
_symmetry_group_IT_number 64
_symmetry_cell_setting 'orthorhombic'
loop_
_space_group_symop_operation_xyz
x,y,z
-x,1/2-y,1/2+z
x,-y,-z
-x,1/2+y,1/2-z
-x,-y,-z
x,1/2+y,1/2-z
-x,y,z
x,1/2-y,1/2+z
1/2+x,1/2+y,z
1/2-x,-y,1/2+z
1/2+x,1/2-y,-z
1/2-x,y,1/2-z
1/2-x,1/2-y,-z
1/2+x,y,1/2-z
1/2-x,1/2+y,z
1/2+x,-y,1/2+z
loop_
_atom_site_type_symbol
_atom_site_label
_atom_site_fract_x
_atom_site_fract_y
_atom_site_fract_z
Si Si1 0.678777 0.804986 0.196976
Si Si2 0.072724 0.413420 0.428198
Si Si3 0.000000 0.805788 0.722737
O O1 0.673650 0.734660 0.410186
O O2 0.750000 0.838672 0.250000
O O3 0.623967 0.867250 0.256614
O O4 0.093590 0.500000 0.500000
O O5 0.058953 0.360909 0.690918
O O6 0.000000 0.420384 0.306790
O O7 0.000000 0.764491 0.440092
#
# Coordination Sequence:
#
# PCOD9477784 Si02
#       3
#    16  16   8
#     4  10  21  39  62  87 117 158 208 251 295 362
#     4   9  20  38  59  91 125 157 197 253 308 369
#     4  10  19  34  57  82 112 154 194 236 291 350
#
# _framework density 22.284759000000001
#
# number of rings (size 3 to 8) (size 9 to 14) (size 15 to 20)
#    1.200    1.200    0.000    2.400    0.000    0.000 
#    0.000   16.000    0.000    0.000    0.000    0.000 
#    0.000    0.000    0.000    0.000    0.000    0.000 
#
# Total GULP energy -111761.677078 kJ/mol
# GULP energy per Si atom -5588.083854 kJ/mol
# Density = 2.223404 g / cm^3
# Si number density = 22.284759 Si / 1000 Ang^3
#
#
#
# Elastic Constant Matrix: (Units=GPa)
#
#
# Indices 1 2 3 4 5 6 
#
# 1 138.8862 32.8629 12.2110 0.0000 0.0000 0.0000
# 2 32.8629 102.9148 4.5283 0.0000 0.0000 0.0000
# 3 12.2110 4.5283 68.2763 0.0000 0.0000 0.0000
# 4 0.0000 0.0000 0.0000 12.3093 0.0000 0.0000
# 5 0.0000 0.0000 0.0000 0.0000-1091.1385 0.0000
# 6 0.0000 0.0000 0.0000 0.0000 0.0000 4.8434
#
#
#
# Elastic Compliance Matrix: (Units=1/GPa)
#
#
# Indices 1 2 3 4 5 6 
#
# 1 0.007893 -0.002466 -0.001248 0.000000 0.000000 0.000000
# 2 -0.002466 0.010515 -0.000256 0.000000 0.000000 0.000000
# 3 -0.001248 -0.000256 0.014887 0.000000 0.000000 0.000000
# 4 0.000000 0.000000 0.000000 0.081239 0.000000 0.000000
# 5 0.000000 0.000000 0.000000 0.000000 -0.000916 0.000000
# 6 0.000000 0.000000 0.000000 0.000000 0.000000 0.206469
#
#
# Mechanical properties :
#
#
# Convention : Reuss Voigt Hill
#
# Bulk Modulus (GPa) = 39.44013 45.47574 42.45794
# Shear Modulus (GPa) = 14.85979 -197.43215 -91.28618
#
# Velocity S-wave (km/s) = 2.58508 -9.42271 -6.40722
# Velocity P-wave (km/s) = 5.16206 9.89608 5.97016
#
# Compressibility (1/GPa) = 0.02535488
#
# Stress axis : x y z
#
# Youngs Moduli (GPa) = 126.69011 95.09894 67.17444
#
# Poissons Ratio (x) = 0.23447 0.08384
# Poissons Ratio (y) = 0.31236 0.01723
# Poissons Ratio (z) = 0.15813 0.02439
#
# Static dielectric constant tensor:
#      x y z
#    x 1.902260 0.000000 0.000000 
#    y 0.000000 1.774850 0.000000 
#    z 0.000000 0.000000 1.856820 
# 
# From -- ./inp_files/1485.got.cif
#   From: 2010.05.17/outbox.cif.g08.bks.cpg/sg64_1_cif.got.tgz:1485.got - 2010.06.03 16:29:19.
