data_PCOD9477449
_publ_section_title
;
Structure prediction by ZEFSAII (Michael W. Deem and Ramdas Pophale) SiO2 
 PCOD9477449
Probable space group: C M C A
;
_chemical_formula_sum "Si O2"
_cell_formula_units_Z 112
_cell_length_a 17.036610
_cell_length_b 19.864017
_cell_length_c 19.407560
_cell_angle_alpha 90.000000
_cell_angle_beta 90.000000
_cell_angle_gamma 90.000000
_cell_volume 6567.819328
_symmetry_space_group_name_H-M "C M C A"
_symmetry_group_IT_number 64
_symmetry_cell_setting 'orthorhombic'
loop_
_space_group_symop_operation_xyz
x,y,z
-x,1/2-y,1/2+z
x,-y,-z
-x,1/2+y,1/2-z
-x,-y,-z
x,1/2+y,1/2-z
-x,y,z
x,1/2-y,1/2+z
1/2+x,1/2+y,z
1/2-x,-y,1/2+z
1/2+x,1/2-y,-z
1/2-x,y,1/2-z
1/2-x,1/2-y,-z
1/2+x,y,1/2-z
1/2-x,1/2+y,z
1/2+x,-y,1/2+z
loop_
_atom_site_type_symbol
_atom_site_label
_atom_site_fract_x
_atom_site_fract_y
_atom_site_fract_z
Si Si1 0.656850 0.346508 0.737333
Si Si2 0.406225 0.866363 0.264236
Si Si3 0.908719 0.204847 0.010681
Si Si4 0.904585 0.945160 0.943710
Si Si5 0.094449 0.481243 0.710908
Si Si6 0.327672 0.763797 0.369713
Si Si7 0.140352 0.263661 0.150310
O O1 0.750000 0.349958 0.750000
O O2 0.622886 0.420792 0.741071
O O3 0.644011 0.304704 0.667588
O O4 0.623075 0.300006 0.799290
O O5 0.500000 0.863223 0.275144
O O6 0.363831 0.824464 0.324517
O O7 0.385562 0.828887 0.193126
O O8 0.380953 0.944114 0.266860
O O9 0.857148 0.229880 0.947202
O O10 0.000000 0.200599 0.989375
O O11 0.881907 0.130055 0.034050
O O12 0.900580 0.251530 0.077665
O O13 0.877839 0.964526 0.867004
O O14 0.000000 0.946084 0.942510
O O15 0.879048 0.000000 0.000000
O O16 0.000000 0.480584 0.709952
O O17 0.233765 0.765998 0.362436
#
# Coordination Sequence:
#
# PCOD9477449 Si02
#       7
#    16  16  16  16  16  16  16
#     4   9  19  34  52  74 103 137 177 211 256 316
#     4  10  20  34  54  80 107 136 180 222 263 317
#     4  11  20  32  54  80 107 140 176 220 268 312
#     4   9  17  29  47  74 106 132 162 208 267 319
#     4  10  19  32  52  77 104 136 170 218 268 309
#     4  10  21  35  52  78 109 141 175 219 266 314
#     4  10  20  36  53  76 107 145 178 214 263 318
#
# _framework density 17.052844
#
# number of rings (size 3 to 8) (size 9 to 14) (size 15 to 20)
#    0.000    2.143    1.429    3.429    0.000    6.286 
#    0.000    0.000    0.000    0.857    0.000    3.000 
#    0.000    0.000    0.000    0.000    0.000    0.000 
#
# Total GULP energy -312466.578940 kJ/mol
# GULP energy per Si atom -5579.760338 kJ/mol
# Density = 1.701403 g / cm^3
# Si number density = 17.052844 Si / 1000 Ang^3
#
#
#
# Elastic Constant Matrix: (Units=GPa)
#
#
# Indices 1 2 3 4 5 6 
#
# 1 22.6872 9.4202 1.2005 0.0000 0.0000 0.0000
# 2 9.4202 117.0458 50.7030 0.0000 0.0000 0.0000
# 3 1.2005 50.7030 74.5797 0.0000 0.0000 0.0000
# 4 0.0000 0.0000 0.0000 20.2579 0.0000 0.0000
# 5 0.0000 0.0000 0.0000 0.0000 24.9902 0.0000
# 6 0.0000 0.0000 0.0000 0.0000 0.0000 14.3449
#
#
#
# Elastic Compliance Matrix: (Units=1/GPa)
#
#
# Indices 1 2 3 4 5 6 
#
# 1 0.045932 -0.004786 0.002514 0.000000 0.000000 0.000000
# 2 -0.004786 0.012609 -0.008495 0.000000 0.000000 0.000000
# 3 0.002514 -0.008495 0.019143 0.000000 0.000000 0.000000
# 4 0.000000 0.000000 0.000000 0.049363 0.000000 0.000000
# 5 0.000000 0.000000 0.000000 0.000000 0.040016 0.000000
# 6 0.000000 0.000000 0.000000 0.000000 0.000000 0.069711
#
#
# Mechanical properties :
#
#
# Convention : Reuss Voigt Hill
#
# Bulk Modulus (GPa) = 17.80921 37.44000 27.62461
# Shear Modulus (GPa) = 18.04894 22.11786 20.08340
#
# Velocity S-wave (km/s) = 3.25685 3.60532 3.43551
# Velocity P-wave (km/s) = 4.96075 6.27169 5.65434
#
# Compressibility (1/GPa) = 0.05615072
#
# Stress axis : x y z
#
# Youngs Moduli (GPa) = 21.77138 79.30958 52.23743
#
# Poissons Ratio (x) = 0.37957 -0.13134
# Poissons Ratio (y) = 0.10420 0.44376
# Poissons Ratio (z) = -0.05474 0.67374
#
# Static dielectric constant tensor:
#      x y z
#    x 1.573500 0.000000 0.000000 
#    y 0.000000 1.573140 0.000000 
#    z 0.000000 0.000000 1.569540 
# 
# From -- ./inp_files/33598.got.cif
#   From: 2010.05.17/outbox.cif.g08.bks.cpg/sg64_17_cif.got.tgz:33598.got - 2010.06.03 16:29:19.
