data_PCOD9477059
_publ_section_title
;
Structure prediction by ZEFSAII (Michael W. Deem and Ramdas Pophale) SiO2 
 PCOD9477059
Probable space group: C M C A
;
_chemical_formula_sum "Si O2"
_cell_formula_units_Z 68
_cell_length_a 13.281037
_cell_length_b 7.675234
_cell_length_c 24.698586
_cell_angle_alpha 90.000000
_cell_angle_beta 90.000000
_cell_angle_gamma 90.000000
_cell_volume 2517.652012
_symmetry_space_group_name_H-M "C M C A"
_symmetry_group_IT_number 64
_symmetry_cell_setting 'orthorhombic'
loop_
_space_group_symop_operation_xyz
x,y,z
-x,1/2-y,1/2+z
x,-y,-z
-x,1/2+y,1/2-z
-x,-y,-z
x,1/2+y,1/2-z
-x,y,z
x,1/2-y,1/2+z
1/2+x,1/2+y,z
1/2-x,-y,1/2+z
1/2+x,1/2-y,-z
1/2-x,y,1/2-z
1/2-x,1/2-y,-z
1/2+x,y,1/2-z
1/2-x,1/2+y,z
1/2+x,-y,1/2+z
loop_
_atom_site_type_symbol
_atom_site_label
_atom_site_fract_x
_atom_site_fract_y
_atom_site_fract_z
Si Si1 0.000000 0.000000 0.000000
Si Si2 0.368919 0.783760 0.192173
Si Si3 0.653663 0.736553 0.930436
Si Si4 0.610746 0.629149 0.571937
Si Si5 0.636953 0.123443 0.688582
O O1 0.090347 0.904209 0.036872
O O2 0.382289 0.580020 0.181674
O O3 0.401514 0.874917 0.137073
O O4 0.403863 0.819520 0.253199
O O5 0.254472 0.842252 0.194175
O O6 0.623481 0.931136 0.947367
O O7 0.776974 0.715492 0.935633
O O8 0.617412 0.716351 0.868063
O O9 0.500000 0.709318 0.552675
#
# Coordination Sequence:
#
# PCOD9477059 Si02
#       5
#     4  16  16  16  16
#     4  12  28  52  78 106 136 200 252 312 376 426
#     4  10  18  34  65 108 150 191 238 279 365 442
#     4  11  24  48  75 104 151 192 249 308 367 426
#     4  11  23  46  73 110 144 190 236 301 364 443
#     4  10  18  35  65 101 148 197 229 293 352 436
#
# _framework density 27.009295000000002
#
# number of rings (size 3 to 8) (size 9 to 14) (size 15 to 20)
#    0.000    1.412    1.176    9.882    0.000    0.941 
#   10.588    0.588    0.000    0.000    0.000    0.000 
#    0.000    0.000    0.000    0.000    0.000    0.000 
#
# Total GULP energy -189611.171860 kJ/mol
# GULP energy per Si atom -5576.799172 kJ/mol
# Density = 2.694782 g / cm^3
# Si number density = 27.009295 Si / 1000 Ang^3
#
#
#
# Elastic Constant Matrix: (Units=GPa)
#
#
# Indices 1 2 3 4 5 6 
#
# 1 290.5677 15.3812 55.2168 0.0000 0.0000 0.0000
# 2 15.3812 123.0091 44.9501 0.0000 0.0000 0.0000
# 3 55.2168 44.9501 202.2595 0.0000 0.0000 0.0000
# 4 0.0000 0.0000 0.0000 58.0860 0.0000 0.0000
# 5 0.0000 0.0000 0.0000 0.0000 2.5438 0.0000
# 6 0.0000 0.0000 0.0000 0.0000 0.0000 -45.4222
#
#
#
# Elastic Compliance Matrix: (Units=1/GPa)
#
#
# Indices 1 2 3 4 5 6 
#
# 1 0.003631 -0.000100 -0.000969 0.000000 0.000000 0.000000
# 2 -0.000100 0.008851 -0.001940 0.000000 0.000000 0.000000
# 3 -0.000969 -0.001940 0.005640 0.000000 0.000000 0.000000
# 4 0.000000 0.000000 0.000000 0.017216 0.000000 0.000000
# 5 0.000000 0.000000 0.000000 0.000000 0.393109 0.000000
# 6 0.000000 0.000000 0.000000 0.000000 0.000000 -0.022016
#
#
# Mechanical properties :
#
#
# Convention : Reuss Voigt Hill
#
# Bulk Modulus (GPa) = 82.61612 94.10361 88.35986
# Shear Modulus (GPa) = 12.00530 36.39407 24.19968
#
# Velocity S-wave (km/s) = 2.11057 3.67476 2.99653
# Velocity P-wave (km/s) = 6.04928 7.27475 6.69014
#
# Compressibility (1/GPa) = 0.01210418
#
# Stress axis : x y z
#
# Youngs Moduli (GPa) = 275.40793 112.98430 177.31198
#
# Poissons Ratio (x) = 0.01129 0.17182
# Poissons Ratio (y) = 0.02752 0.34394
# Poissons Ratio (z) = 0.26688 0.21916
#
# Static dielectric constant tensor:
#      x y z
#    x 2.104630 0.000000 0.000000 
#    y 0.000000 4.743480 0.000000 
#    z 0.000000 0.000000 2.104230 
# 
# From -- ./inp_files/49758.got.cif
#   From: 2010.05.17/outbox.cif.g08.bks.cpg/sg64_25_cif.got.tgz:49758.got - 2010.06.03 16:29:19.
