data_PCOD9477786
_publ_section_title
;
Structure prediction by ZEFSAII (Michael W. Deem and Ramdas Pophale) SiO2 
 PCOD9477786
Probable space group: C M C A
;
_chemical_formula_sum "Si O2"
_cell_formula_units_Z 96
_cell_length_a 19.027596
_cell_length_b 13.855485
_cell_length_c 14.750567
_cell_angle_alpha 90.000000
_cell_angle_beta 90.000000
_cell_angle_gamma 90.000000
_cell_volume 3888.788904
_symmetry_space_group_name_H-M "C M C A"
_symmetry_group_IT_number 64
_symmetry_cell_setting 'orthorhombic'
loop_
_space_group_symop_operation_xyz
x,y,z
-x,1/2-y,1/2+z
x,-y,-z
-x,1/2+y,1/2-z
-x,-y,-z
x,1/2+y,1/2-z
-x,y,z
x,1/2-y,1/2+z
1/2+x,1/2+y,z
1/2-x,-y,1/2+z
1/2+x,1/2-y,-z
1/2-x,y,1/2-z
1/2-x,1/2-y,-z
1/2+x,y,1/2-z
1/2-x,1/2+y,z
1/2+x,-y,1/2+z
loop_
_atom_site_type_symbol
_atom_site_label
_atom_site_fract_x
_atom_site_fract_y
_atom_site_fract_z
Si Si1 0.285663 0.980615 0.106468
Si Si2 0.416642 0.253479 0.601344
Si Si3 0.625728 0.530568 0.897822
Si Si4 0.078275 0.257142 0.692033
Si Si5 0.924431 0.020555 0.705734
Si Si6 0.181089 0.219455 0.553481
O O1 0.205046 0.003747 0.126614
O O2 0.353211 0.017367 0.159987
O O3 0.291186 0.865712 0.116514
O O4 0.294206 0.000000 0.000000
O O5 0.500000 0.246253 0.583621
O O6 0.381696 0.147024 0.598875
O O7 0.408503 0.288056 0.704793
O O8 0.376457 0.310246 0.522214
O O9 0.579024 0.499907 0.812787
O O10 0.608081 0.500000 0.000000
O O11 0.076414 0.138478 0.694863
O O12 0.137429 0.288042 0.620617
O O13 0.000000 0.287045 0.663838
O O14 0.000000 0.986974 0.667879
O O15 0.250000 0.250000 0.500000
#
# Coordination Sequence:
#
# PCOD9477786 Si02
#       6
#    16  16  16  16  16  16
#     4  10  21  37  57  80 112 145 184 226 272 328
#     4  10  20  35  56  82 110 145 186 230 275 325
#     4  10  19  34  57  83 113 145 184 230 277 324
#     4   8  17  33  53  77 107 142 181 222 268 325
#     4   9  18  33  55  81 107 146 189 222 267 331
#     4  11  20  34  56  82 107 142 184 225 271 324
#
# _framework density 24.686347999999999
#
# number of rings (size 3 to 8) (size 9 to 14) (size 15 to 20)
#    0.000    2.333    1.667    2.500    0.000    3.000 
#    0.000    1.667    7.333    2.000    0.000    0.000 
#    0.000    0.000    0.000    0.000    0.000    0.000 
#
# Total GULP energy -268129.900427 kJ/mol
# GULP energy per Si atom -5586.039592 kJ/mol
# Density = 2.463016 g / cm^3
# Si number density = 24.686348 Si / 1000 Ang^3
#
#
#
# Elastic Constant Matrix: (Units=GPa)
#
#
# Indices 1 2 3 4 5 6 
#
# 1 195.7730 29.9000 85.4304 0.0000 0.0000 0.0000
# 2 29.9000 57.6764 -4.7952 0.0000 0.0000 0.0000
# 3 85.4304 -4.7952 88.2036 0.0000 0.0000 0.0000
# 4 0.0000 0.0000 0.0000 27.4040 0.0000 0.0000
# 5 0.0000 0.0000 0.0000 0.0000 38.6352 0.0000
# 6 0.0000 0.0000 0.0000 0.0000 0.0000 15.2285
#
#
#
# Elastic Compliance Matrix: (Units=1/GPa)
#
#
# Indices 1 2 3 4 5 6 
#
# 1 0.010841 -0.006522 -0.010854 0.000000 0.000000 0.000000
# 2 -0.006522 0.021341 0.007478 0.000000 0.000000 0.000000
# 3 -0.010854 0.007478 0.022257 0.000000 0.000000 0.000000
# 4 0.000000 0.000000 0.000000 0.036491 0.000000 0.000000
# 5 0.000000 0.000000 0.000000 0.000000 0.025883 0.000000
# 6 0.000000 0.000000 0.000000 0.000000 0.000000 0.065666
#
#
# Mechanical properties :
#
#
# Convention : Reuss Voigt Hill
#
# Bulk Modulus (GPa) = 28.86814 62.52484 45.69649
# Shear Modulus (GPa) = 23.38362 31.66139 27.52251
#
# Velocity S-wave (km/s) = 3.08105 3.58515 3.34262
# Velocity P-wave (km/s) = 4.93726 6.52077 5.78346
#
# Compressibility (1/GPa) = 0.03464026
#
# Stress axis : x y z
#
# Youngs Moduli (GPa) = 92.24464 46.85802 44.92939
#
# Poissons Ratio (x) = 0.30563 0.48769
# Poissons Ratio (y) = 0.60166 -0.33596
# Poissons Ratio (z) = 1.00127 -0.35038
#
# Static dielectric constant tensor:
#      x y z
#    x 1.944170 0.000000 0.000000 
#    y 0.000000 2.125140 0.000000 
#    z 0.000000 0.000000 1.926500 
# 
# From -- ./inp_files/16179.got.cif
#   From: 2010.05.17/outbox.cif.g08.bks.cpg/sg64_9_cif.got.tgz:16179.got - 2010.06.03 16:29:19.
