data_PCOD9477999
_publ_section_title
;
Structure prediction by ZEFSAII (Michael W. Deem and Ramdas Pophale) SiO2 
 PCOD9477999
Probable space group: C M C A
;
_chemical_formula_sum "Si O2"
_cell_formula_units_Z 80
_cell_length_a 16.289728
_cell_length_b 19.846789
_cell_length_c 14.654789
_cell_angle_alpha 90.000000
_cell_angle_beta 90.000000
_cell_angle_gamma 90.000000
_cell_volume 4737.875617
_symmetry_space_group_name_H-M "C M C A"
_symmetry_group_IT_number 64
_symmetry_cell_setting 'orthorhombic'
loop_
_space_group_symop_operation_xyz
x,y,z
-x,1/2-y,1/2+z
x,-y,-z
-x,1/2+y,1/2-z
-x,-y,-z
x,1/2+y,1/2-z
-x,y,z
x,1/2-y,1/2+z
1/2+x,1/2+y,z
1/2-x,-y,1/2+z
1/2+x,1/2-y,-z
1/2-x,y,1/2-z
1/2-x,1/2-y,-z
1/2+x,y,1/2-z
1/2-x,1/2+y,z
1/2+x,-y,1/2+z
loop_
_atom_site_type_symbol
_atom_site_label
_atom_site_fract_x
_atom_site_fract_y
_atom_site_fract_z
Si Si1 0.197966 0.140596 0.158257
Si Si2 0.726347 0.674213 0.523891
Si Si3 0.597914 0.717895 0.658726
Si Si4 0.329383 0.619042 0.808736
Si Si5 0.403247 0.011216 0.394583
O O1 0.250000 0.140870 0.250000
O O2 0.142871 0.209092 0.157553
O O3 0.141254 0.075469 0.148063
O O4 0.259814 0.137505 0.071647
O O5 0.750000 0.750000 0.500000
O O6 0.638423 0.676861 0.573843
O O7 0.791655 0.649042 0.598520
O O8 0.500000 0.724069 0.652673
O O9 0.624486 0.675975 0.749114
O O10 0.250000 0.597072 0.750000
O O11 0.383617 0.555497 0.836500
O O12 0.500000 0.023472 0.396624
O O13 0.375986 0.000000 0.500000
#
# Coordination Sequence:
#
# PCOD9477999 Si02
#       5
#    16  16  16  16  16
#     4  11  21  38  57  81 114 153 193 234 282 346
#     4   9  18  34  54  78 109 146 184 224 273 335
#     4  10  20  35  57  86 115 147 188 238 285 335
#     4  10  19  36  58  81 112 151 191 228 281 346
#     4  11  22  36  56  85 115 148 189 240 290 335
#
# _framework density 16.885204999999999
#
# number of rings (size 3 to 8) (size 9 to 14) (size 15 to 20)
#    0.000    1.800    2.000    4.800    0.000    0.000 
#    0.000    7.000    0.000    0.000    0.000    7.000 
#    0.000    0.000    0.000    0.000    0.000    0.000 
#
# Total GULP energy -222971.482781 kJ/mol
# GULP energy per Si atom -5574.287070 kJ/mol
# Density = 1.684677 g / cm^3
# Si number density = 16.885205 Si / 1000 Ang^3
#
#
#
# Elastic Constant Matrix: (Units=GPa)
#
#
# Indices 1 2 3 4 5 6 
#
# 1 116.6000 44.2421 63.4895 0.0000 0.0000 0.0000
# 2 44.2421 95.3321 40.8949 0.0000 0.0000 0.0000
# 3 63.4895 40.8949 135.9341 0.0000 0.0000 0.0000
# 4 0.0000 0.0000 0.0000 25.7508 0.0000 0.0000
# 5 0.0000 0.0000 0.0000 0.0000 15.1756 0.0000
# 6 0.0000 0.0000 0.0000 0.0000 0.0000 26.8440
#
#
#
# Elastic Compliance Matrix: (Units=1/GPa)
#
#
# Indices 1 2 3 4 5 6 
#
# 1 0.012605 -0.003817 -0.004739 0.000000 0.000000 0.000000
# 2 -0.003817 0.013200 -0.002188 0.000000 0.000000 0.000000
# 3 -0.004739 -0.002188 0.010228 0.000000 0.000000 0.000000
# 4 0.000000 0.000000 0.000000 0.038834 0.000000 0.000000
# 5 0.000000 0.000000 0.000000 0.000000 0.065895 0.000000
# 6 0.000000 0.000000 0.000000 0.000000 0.000000 0.037252
#
#
# Mechanical properties :
#
#
# Convention : Reuss Voigt Hill
#
# Bulk Modulus (GPa) = 68.75438 71.67993 70.21715
# Shear Modulus (GPa) = 24.46769 26.83671 25.65220
#
# Velocity S-wave (km/s) = 3.81078 3.99101 3.90194
# Velocity P-wave (km/s) = 7.75692 7.98630 7.87245
#
# Compressibility (1/GPa) = 0.01454453
#
# Stress axis : x y z
#
# Youngs Moduli (GPa) = 79.33342 75.75911 97.76822
#
# Poissons Ratio (x) = 0.28916 0.46333
# Poissons Ratio (y) = 0.30281 0.21395
# Poissons Ratio (z) = 0.37596 0.16579
#
# Static dielectric constant tensor:
#      x y z
#    x 1.548970 0.000000 0.000000 
#    y 0.000000 1.567950 0.000000 
#    z 0.000000 0.000000 1.128760 
# 
# From -- ./inp_files/14452.got.cif
#   From: 2010.05.17/outbox.cif.g08.bks.cpg/sg64_8_cif.got.tgz:14452.got - 2010.06.03 16:29:19.
