data_PCOD9477539
_publ_section_title
;
Structure prediction by ZEFSAII (Michael W. Deem and Ramdas Pophale) SiO2 
 PCOD9477539
Probable space group: C M C A
;
_chemical_formula_sum "Si O2"
_cell_formula_units_Z 104
_cell_length_a 24.028632
_cell_length_b 8.954763
_cell_length_c 23.642539
_cell_angle_alpha 90.000000
_cell_angle_beta 90.000000
_cell_angle_gamma 90.000000
_cell_volume 5087.181779
_symmetry_space_group_name_H-M "C M C A"
_symmetry_group_IT_number 64
_symmetry_cell_setting 'orthorhombic'
loop_
_space_group_symop_operation_xyz
x,y,z
-x,1/2-y,1/2+z
x,-y,-z
-x,1/2+y,1/2-z
-x,-y,-z
x,1/2+y,1/2-z
-x,y,z
x,1/2-y,1/2+z
1/2+x,1/2+y,z
1/2-x,-y,1/2+z
1/2+x,1/2-y,-z
1/2-x,y,1/2-z
1/2-x,1/2-y,-z
1/2+x,y,1/2-z
1/2-x,1/2+y,z
1/2+x,-y,1/2+z
loop_
_atom_site_type_symbol
_atom_site_label
_atom_site_fract_x
_atom_site_fract_y
_atom_site_fract_z
Si Si1 0.829336 0.976565 0.068846
Si Si2 0.567576 0.969704 0.828600
Si Si3 0.845268 0.000000 0.500000
Si Si4 0.437013 0.362515 0.438791
Si Si5 0.236671 0.810583 0.562825
Si Si6 0.937843 0.550786 0.371529
Si Si7 0.566719 0.761987 0.736904
O O1 0.795013 0.830357 0.087669
O O2 0.792944 0.120978 0.088172
O O3 0.889184 0.964640 0.097441
O O4 0.833647 0.000000 0.000000
O O5 0.500000 0.970129 0.824730
O O6 0.577654 0.006589 0.893932
O O7 0.588851 0.112533 0.792439
O O8 0.587179 0.819239 0.797741
O O9 0.887560 0.132409 0.516423
O O10 0.805358 0.052517 0.449523
O O11 0.500000 0.381978 0.460386
O O12 0.438510 0.209072 0.404628
O O13 0.250000 0.750000 0.500000
O O14 0.926297 0.600701 0.307246
O O15 0.000000 0.484009 0.374662
O O16 0.500000 0.739090 0.741157
#
# Coordination Sequence:
#
# PCOD9477539 Si02
#       7
#    16  16   8  16  16  16  16
#     4  10  19  33  51  73  99 128 174 213 245 294
#     4   8  14  27  45  66  95 131 169 199 241 298
#     4  12  19  32  52  70 105 130 170 218 252 300
#     4   9  18  30  47  73 105 144 167 195 256 317
#     4  10  19  33  51  71  94 129 173 215 249 282
#     4   9  18  32  51  74 105 139 168 200 260 316
#     4   8  14  27  47  68  95 130 164 205 244 296
#
# _framework density 20.443541
#
# number of rings (size 3 to 8) (size 9 to 14) (size 15 to 20)
#    0.000    2.769    2.308    3.923    0.000    0.308 
#    2.769    1.538    0.000    0.000    0.000    1.077 
#    4.615    0.000    0.000    0.000    0.000    0.000 
#
# Total GULP energy -289581.826419 kJ/mol
# GULP energy per Si atom -5568.881277 kJ/mol
# Density = 2.039701 g / cm^3
# Si number density = 20.443541 Si / 1000 Ang^3
#
#
#
# Elastic Constant Matrix: (Units=GPa)
#
#
# Indices 1 2 3 4 5 6 
#
# 1 87.4445 15.0958 16.6865 0.0000 0.0000 0.0000
# 2 15.0958 32.1931 4.7621 0.0000 0.0000 0.0000
# 3 16.6865 4.7621 16.7771 0.0000 0.0000 0.0000
# 4 0.0000 0.0000 0.0000 23.2217 0.0000 0.0000
# 5 0.0000 0.0000 0.0000 0.0000 3.0118 0.0000
# 6 0.0000 0.0000 0.0000 0.0000 0.0000 25.0333
#
#
#
# Elastic Compliance Matrix: (Units=1/GPa)
#
#
# Indices 1 2 3 4 5 6 
#
# 1 0.014844 -0.004986 -0.013348 0.000000 0.000000 0.000000
# 2 -0.004986 0.034099 -0.004720 0.000000 0.000000 0.000000
# 3 -0.013348 -0.004720 0.074221 0.000000 0.000000 0.000000
# 4 0.000000 0.000000 0.000000 0.043063 0.000000 0.000000
# 5 0.000000 0.000000 0.000000 0.000000 0.332023 0.000000
# 6 0.000000 0.000000 0.000000 0.000000 0.000000 0.039947
#
#
# Mechanical properties :
#
#
# Convention : Reuss Voigt Hill
#
# Bulk Modulus (GPa) = 12.97770 23.27818 18.12794
# Shear Modulus (GPa) = 8.19686 16.91138 12.55412
#
# Velocity S-wave (km/s) = 2.00455 2.87927 2.48077
# Velocity P-wave (km/s) = 3.42337 4.73971 4.13427
#
# Compressibility (1/GPa) = 0.07705524
#
# Stress axis : x y z
#
# Youngs Moduli (GPa) = 67.36848 29.32666 13.47331
#
# Poissons Ratio (x) = 0.14622 0.17985
# Poissons Ratio (y) = 0.33589 0.06359
# Poissons Ratio (z) = 0.89926 0.13841
#
# Static dielectric constant tensor:
#      x y z
#    x 1.741640 0.000000 0.000000 
#    y 0.000000 1.819710 0.000000 
#    z 0.000000 0.000000 1.772980 
# 
# From -- ./inp_files/51038.got.cif
#   From: 2010.05.17/outbox.cif.g08.bks.cpg/sg64_26_cif.got.tgz:51038.got - 2010.06.03 16:29:19.
