data_PCOD9477898
_publ_section_title
;
Structure prediction by ZEFSAII (Michael W. Deem and Ramdas Pophale) SiO2 
 PCOD9477898
Probable space group: C M C A
;
_chemical_formula_sum "Si O2"
_cell_formula_units_Z 96
_cell_length_a 18.087215
_cell_length_b 15.604306
_cell_length_c 18.225123
_cell_angle_alpha 90.000000
_cell_angle_beta 90.000000
_cell_angle_gamma 90.000000
_cell_volume 5143.830240
_symmetry_space_group_name_H-M "C M C A"
_symmetry_group_IT_number 64
_symmetry_cell_setting 'orthorhombic'
loop_
_space_group_symop_operation_xyz
x,y,z
-x,1/2-y,1/2+z
x,-y,-z
-x,1/2+y,1/2-z
-x,-y,-z
x,1/2+y,1/2-z
-x,y,z
x,1/2-y,1/2+z
1/2+x,1/2+y,z
1/2-x,-y,1/2+z
1/2+x,1/2-y,-z
1/2-x,y,1/2-z
1/2-x,1/2-y,-z
1/2+x,y,1/2-z
1/2-x,1/2+y,z
1/2+x,-y,1/2+z
loop_
_atom_site_type_symbol
_atom_site_label
_atom_site_fract_x
_atom_site_fract_y
_atom_site_fract_z
Si Si1 0.227196 0.336796 0.541180
Si Si2 0.667734 0.482842 0.282565
Si Si3 0.913805 0.314779 0.258225
Si Si4 0.839173 0.925878 0.450581
Si Si5 0.413889 0.751299 0.089632
Si Si6 0.314734 0.671083 0.307663
O O1 0.250000 0.250000 0.500000
O O2 0.258498 0.406755 0.485195
O O3 0.142220 0.323445 0.564530
O O4 0.275107 0.346070 0.615143
O O5 0.750000 0.477811 0.250000
O O6 0.617910 0.411134 0.243580
O O7 0.668347 0.456117 0.367542
O O8 0.646426 0.583278 0.280394
O O9 0.904429 0.273514 0.176327
O O10 0.868672 0.251767 0.310911
O O11 0.000000 0.315938 0.275235
O O12 0.887180 0.838909 0.450220
O O13 0.874349 0.000000 0.500000
O O14 0.500000 0.733783 0.075990
O O15 0.250000 0.692706 0.250000
#
# Coordination Sequence:
#
# PCOD9477898 Si02
#       6
#    16  16  16  16  16  16
#     4  10  20  34  58  84 114 147 190 239 282 346
#     4  10  22  36  60  83 114 155 198 242 283 347
#     4  10  21  36  57  83 118 153 188 239 294 345
#     4  10  19  35  57  86 113 144 190 244 290 336
#     4   9  19  35  55  81 113 153 185 227 294 349
#     4  11  20  36  59  88 108 151 200 235 286 343
#
# _framework density 18.663135
#
# number of rings (size 3 to 8) (size 9 to 14) (size 15 to 20)
#    0.000    2.000    3.333    0.500    4.667    1.000 
#    0.000    3.333    0.000    0.500    0.000    0.000 
#    0.000    0.000    0.000    0.000    0.000    0.000 
#
# Total GULP energy -267586.555840 kJ/mol
# GULP energy per Si atom -5574.719913 kJ/mol
# Density = 1.862066 g / cm^3
# Si number density = 18.663135 Si / 1000 Ang^3
#
#
#
# Elastic Constant Matrix: (Units=GPa)
#
#
# Indices 1 2 3 4 5 6 
#
# 1 83.2958 38.5590 2.8141 0.0000 0.0000 0.0000
# 2 38.5590 89.7781 -3.6054 0.0000 0.0000 0.0000
# 3 2.8141 -3.6054 15.0458 0.0000 0.0000 0.0000
# 4 0.0000 0.0000 0.0000 20.6247 0.0000 0.0000
# 5 0.0000 0.0000 0.0000 0.0000 17.8069 0.0000
# 6 0.0000 0.0000 0.0000 0.0000 0.0000 17.1799
#
#
#
# Elastic Compliance Matrix: (Units=1/GPa)
#
#
# Indices 1 2 3 4 5 6 
#
# 1 0.015277 -0.006741 -0.004473 0.000000 0.000000 0.000000
# 2 -0.006741 0.014221 0.004669 0.000000 0.000000 0.000000
# 3 -0.004473 0.004669 0.068419 0.000000 0.000000 0.000000
# 4 0.000000 0.000000 0.000000 0.048485 0.000000 0.000000
# 5 0.000000 0.000000 0.000000 0.000000 0.056158 0.000000
# 6 0.000000 0.000000 0.000000 0.000000 0.000000 0.058208
#
#
# Mechanical properties :
#
#
# Convention : Reuss Voigt Hill
#
# Bulk Modulus (GPa) = 11.78868 29.29501 20.54185
# Shear Modulus (GPa) = 16.54894 21.14577 18.84736
#
# Velocity S-wave (km/s) = 2.98101 3.36969 3.18129
# Velocity P-wave (km/s) = 4.26367 5.55613 4.95224
#
# Compressibility (1/GPa) = 0.08482714
#
# Stress axis : x y z
#
# Youngs Moduli (GPa) = 65.45775 70.31727 14.61583
#
# Poissons Ratio (x) = 0.47401 0.06537
# Poissons Ratio (y) = 0.44125 -0.06823
# Poissons Ratio (z) = 0.29277 -0.32828
#
# Static dielectric constant tensor:
#      x y z
#    x 1.642760 0.000000 0.000000 
#    y 0.000000 1.715780 0.000000 
#    z 0.000000 0.000000 1.642270 
# 
# From -- ./inp_files/33288.got.cif
#   From: 2010.05.17/outbox.cif.g08.bks.cpg/sg64_17_cif.got.tgz:33288.got - 2010.06.03 16:29:19.
