data_PCOD9477136
_publ_section_title
;
Structure prediction by ZEFSAII (Michael W. Deem and Ramdas Pophale) SiO2 
 PCOD9477136
Probable space group: C M C A
;
_chemical_formula_sum "Si O2"
_cell_formula_units_Z 96
_cell_length_a 17.853015
_cell_length_b 21.442245
_cell_length_c 14.135226
_cell_angle_alpha 90.000000
_cell_angle_beta 90.000000
_cell_angle_gamma 90.000000
_cell_volume 5411.087795
_symmetry_space_group_name_H-M "C M C A"
_symmetry_group_IT_number 64
_symmetry_cell_setting 'orthorhombic'
loop_
_space_group_symop_operation_xyz
x,y,z
-x,1/2-y,1/2+z
x,-y,-z
-x,1/2+y,1/2-z
-x,-y,-z
x,1/2+y,1/2-z
-x,y,z
x,1/2-y,1/2+z
1/2+x,1/2+y,z
1/2-x,-y,1/2+z
1/2+x,1/2-y,-z
1/2-x,y,1/2-z
1/2-x,1/2-y,-z
1/2+x,y,1/2-z
1/2-x,1/2+y,z
1/2+x,-y,1/2+z
loop_
_atom_site_type_symbol
_atom_site_label
_atom_site_fract_x
_atom_site_fract_y
_atom_site_fract_z
Si Si1 0.840289 0.931657 0.512692
Si Si2 0.264807 0.603922 0.856756
Si Si3 0.828107 0.785230 0.021712
Si Si4 0.588435 0.822362 0.867076
Si Si5 0.909567 0.352583 0.650744
Si Si6 0.705327 0.538591 0.152207
O O1 0.814113 0.905940 0.411411
O O2 0.886382 0.883276 0.574316
O O3 0.762411 0.942285 0.569299
O O4 0.875706 0.000000 0.500000
O O5 0.250000 0.624649 0.750000
O O6 0.310355 0.654122 0.915856
O O7 0.304303 0.535982 0.853102
O O8 0.875320 0.736716 0.082734
O O9 0.750000 0.750000 0.000000
O O10 0.871319 0.808239 0.927758
O O11 0.500000 0.817183 0.871599
O O12 0.608900 0.828691 0.756637
O O13 0.868933 0.420079 0.644411
O O14 0.000000 0.355607 0.639668
O O15 0.750000 0.551448 0.250000
#
# Coordination Sequence:
#
# PCOD9477136 Si02
#       6
#    16  16  16  16  16  16
#     4  10  19  36  62  90 116 151 204 255 299 349
#     4  10  22  36  60  93 118 150 203 260 297 350
#     4  12  24  39  62  88 122 164 207 248 301 362
#     4  11  24  40  60  89 126 164 202 247 304 369
#     4  11  24  41  62  91 125 161 201 251 311 374
#     4  10  18  37  65  90 118 150 202 255 305 359
#
# _framework density 17.741349
#
# number of rings (size 3 to 8) (size 9 to 14) (size 15 to 20)
#    0.000    1.333    5.000    0.500    2.333    0.333 
#    0.000    2.500    0.000    1.000    0.000    0.000 
#    0.000    0.000    0.000    0.000    0.000    0.000 
#
# Total GULP energy -267928.827236 kJ/mol
# GULP energy per Si atom -5581.850567 kJ/mol
# Density = 1.770097 g / cm^3
# Si number density = 17.741349 Si / 1000 Ang^3
#
#
#
# Elastic Constant Matrix: (Units=GPa)
#
#
# Indices 1 2 3 4 5 6 
#
# 1 73.8748 58.8250 51.7328 0.0000 0.0000 0.0000
# 2 58.8250 114.9944 47.7491 0.0000 0.0000 0.0000
# 3 51.7328 47.7491 122.7107 0.0000 0.0000 0.0000
# 4 0.0000 0.0000 0.0000 26.1230 0.0000 0.0000
# 5 0.0000 0.0000 0.0000 0.0000 27.9479 0.0000
# 6 0.0000 0.0000 0.0000 0.0000 0.0000 15.9790
#
#
#
# Elastic Compliance Matrix: (Units=1/GPa)
#
#
# Indices 1 2 3 4 5 6 
#
# 1 0.027371 -0.010985 -0.007265 0.000000 0.000000 0.000000
# 2 -0.010985 0.014781 -0.001120 0.000000 0.000000 0.000000
# 3 -0.007265 -0.001120 0.011648 0.000000 0.000000 0.000000
# 4 0.000000 0.000000 0.000000 0.038280 0.000000 0.000000
# 5 0.000000 0.000000 0.000000 0.000000 0.035781 0.000000
# 6 0.000000 0.000000 0.000000 0.000000 0.000000 0.062582
#
#
# Mechanical properties :
#
#
# Convention : Reuss Voigt Hill
#
# Bulk Modulus (GPa) = 66.40374 69.79931 68.10152
# Shear Modulus (GPa) = 21.34908 24.22818 22.78863
#
# Velocity S-wave (km/s) = 3.47270 3.69946 3.58787
# Velocity P-wave (km/s) = 7.32049 7.59448 7.45874
#
# Compressibility (1/GPa) = 0.01505939
#
# Stress axis : x y z
#
# Youngs Moduli (GPa) = 36.53535 67.65629 85.85292
#
# Poissons Ratio (x) = 0.74320 0.62369
# Poissons Ratio (y) = 0.40134 0.09618
# Poissons Ratio (z) = 0.26541 0.07580
#
# Static dielectric constant tensor:
#      x y z
#    x 1.581190 0.000000 0.000000 
#    y 0.000000 1.616970 0.000000 
#    z 0.000000 0.000000 1.642120 
# 
# From -- ./inp_files/23894.got.cif
#   From: 2010.05.17/outbox.cif.g08.bks.cpg/sg64_12_cif.got.tgz:23894.got - 2010.06.03 16:29:19.
