data_PCOD9477710
_publ_section_title
;
Structure prediction by ZEFSAII (Michael W. Deem and Ramdas Pophale) SiO2 
 PCOD9477710
Probable space group: C M C A
;
_chemical_formula_sum "Si O2"
_cell_formula_units_Z 80
_cell_length_a 18.710259
_cell_length_b 21.811651
_cell_length_c 11.684693
_cell_angle_alpha 90.000000
_cell_angle_beta 90.000000
_cell_angle_gamma 90.000000
_cell_volume 4768.542370
_symmetry_space_group_name_H-M "C M C A"
_symmetry_group_IT_number 64
_symmetry_cell_setting 'orthorhombic'
loop_
_space_group_symop_operation_xyz
x,y,z
-x,1/2-y,1/2+z
x,-y,-z
-x,1/2+y,1/2-z
-x,-y,-z
x,1/2+y,1/2-z
-x,y,z
x,1/2-y,1/2+z
1/2+x,1/2+y,z
1/2-x,-y,1/2+z
1/2+x,1/2-y,-z
1/2-x,y,1/2-z
1/2-x,1/2-y,-z
1/2+x,y,1/2-z
1/2-x,1/2+y,z
1/2+x,-y,1/2+z
loop_
_atom_site_type_symbol
_atom_site_label
_atom_site_fract_x
_atom_site_fract_y
_atom_site_fract_z
Si Si1 0.000000 0.647054 0.415788
Si Si2 0.878996 0.221528 0.855532
Si Si3 0.344077 0.367971 0.930157
Si Si4 0.250000 0.797076 0.750000
Si Si5 0.000000 0.345692 0.208535
Si Si6 0.500000 0.052695 0.630219
Si Si7 0.627410 0.000000 0.500000
Si Si8 0.500000 0.282013 0.515501
O O1 0.077923 0.632318 0.366370
O O2 0.000000 0.719257 0.440132
O O3 0.000000 0.608125 0.535385
O O4 0.811677 0.253164 0.798599
O O5 0.930168 0.185974 0.765992
O O6 0.855772 0.175216 0.957736
O O7 0.929607 0.274214 0.909029
O O8 0.284830 0.338839 0.849063
O O9 0.331159 0.437890 0.969959
O O10 0.000000 0.415502 0.248680
O O11 0.000000 0.336108 0.073998
O O12 0.571377 0.015505 0.602141
#
# Coordination Sequence:
#
# PCOD9477710 Si02
#       8
#     8  16  16   8   8   8   8   8
#     4   8  13  31  48  72  98 123 165 221 257 280
#     4  10  19  35  49  80 108 137 172 215 260 315
#     4  10  19  34  53  79 102 136 176 224 258 302
#     4  12  24  32  52  72 114 152 172 192 270 330
#     4  11  16  30  56  82  98 129 173 215 278 306
#     4   9  14  27  56  81  91 120 172 226 261 291
#     4   9  16  32  56  74 104 123 174 236 248 293
#     4   9  17  28  52  75 112 127 162 222 264 308
#
# _framework density 16.776615
#
# number of rings (size 3 to 8) (size 9 to 14) (size 15 to 20)
#    0.000    2.200    6.000    3.600    0.000    0.800 
#    0.000    1.000    4.400    0.000    0.000    1.400 
#    0.000    0.000    0.000    0.000    0.000    0.000 
#
# Total GULP energy -222768.008932 kJ/mol
# GULP energy per Si atom -5569.200223 kJ/mol
# Density = 1.673843 g / cm^3
# Si number density = 16.776615 Si / 1000 Ang^3
#
#
#
# Elastic Constant Matrix: (Units=GPa)
#
#
# Indices 1 2 3 4 5 6 
#
# 1 100.5470 45.7193 37.1973 0.0000 0.0000 0.0000
# 2 45.7193 87.6749 29.9833 0.0000 0.0000 0.0000
# 3 37.1973 29.9833 51.7293 0.0000 0.0000 0.0000
# 4 0.0000 0.0000 0.0000 16.9396 0.0000 0.0000
# 5 0.0000 0.0000 0.0000 0.0000 19.7289 0.0000
# 6 0.0000 0.0000 0.0000 0.0000 0.0000 12.5188
#
#
#
# Elastic Compliance Matrix: (Units=1/GPa)
#
#
# Indices 1 2 3 4 5 6 
#
# 1 0.015268 -0.005247 -0.007937 0.000000 0.000000 0.000000
# 2 -0.005247 0.016029 -0.005518 0.000000 0.000000 0.000000
# 3 -0.007937 -0.005518 0.028237 0.000000 0.000000 0.000000
# 4 0.000000 0.000000 0.000000 0.059033 0.000000 0.000000
# 5 0.000000 0.000000 0.000000 0.000000 0.050687 0.000000
# 6 0.000000 0.000000 0.000000 0.000000 0.000000 0.079880
#
#
# Mechanical properties :
#
#
# Convention : Reuss Voigt Hill
#
# Bulk Modulus (GPa) = 45.18834 51.75014 48.46924
# Shear Modulus (GPa) = 17.01172 18.30756 17.65964
#
# Velocity S-wave (km/s) = 3.18781 3.30700 3.24795
# Velocity P-wave (km/s) = 6.36736 6.74501 6.55891
#
# Compressibility (1/GPa) = 0.02212960
#
# Stress axis : x y z
#
# Youngs Moduli (GPa) = 65.49637 62.38729 35.41438
#
# Poissons Ratio (x) = 0.32736 0.28110
# Poissons Ratio (y) = 0.34368 0.19540
# Poissons Ratio (z) = 0.51988 0.34422
#
# Static dielectric constant tensor:
#      x y z
#    x 1.583610 0.000000 0.000000 
#    y 0.000000 1.587780 0.000000 
#    z 0.000000 0.000000 1.592450 
# 
# From -- ./inp_files/14758.got.cif
#   From: 2010.05.17/outbox.cif.g08.bks.cpg/sg64_8_cif.got.tgz:14758.got - 2010.06.03 16:29:19.
