data_PCOD9477245
_publ_section_title
;
Structure prediction by ZEFSAII (Michael W. Deem and Ramdas Pophale) SiO2 
 PCOD9477245
Probable space group: C M C A
;
_chemical_formula_sum "Si O2"
_cell_formula_units_Z 96
_cell_length_a 7.704023
_cell_length_b 24.473077
_cell_length_c 26.262669
_cell_angle_alpha 90.000000
_cell_angle_beta 90.000000
_cell_angle_gamma 90.000000
_cell_volume 4951.593765
_symmetry_space_group_name_H-M "C M C A"
_symmetry_group_IT_number 64
_symmetry_cell_setting 'orthorhombic'
loop_
_space_group_symop_operation_xyz
x,y,z
-x,1/2-y,1/2+z
x,-y,-z
-x,1/2+y,1/2-z
-x,-y,-z
x,1/2+y,1/2-z
-x,y,z
x,1/2-y,1/2+z
1/2+x,1/2+y,z
1/2-x,-y,1/2+z
1/2+x,1/2-y,-z
1/2-x,y,1/2-z
1/2-x,1/2-y,-z
1/2+x,y,1/2-z
1/2-x,1/2+y,z
1/2+x,-y,1/2+z
loop_
_atom_site_type_symbol
_atom_site_label
_atom_site_fract_x
_atom_site_fract_y
_atom_site_fract_z
Si Si1 0.208710 0.189569 0.808199
Si Si2 0.787799 0.500694 0.559550
Si Si3 0.706803 0.116290 0.404307
Si Si4 0.208501 0.686376 0.499265
Si Si5 0.705954 0.186732 0.192013
Si Si6 0.287320 0.618264 0.902365
O O1 0.250000 0.174871 0.750000
O O2 0.275800 0.251557 0.817471
O O3 0.271723 0.146769 0.850251
O O4 0.000000 0.191587 0.812669
O O5 0.736697 0.500000 0.500000
O O6 0.727631 0.445159 0.586741
O O7 0.730963 0.556300 0.587000
O O8 0.000000 0.501435 0.559810
O O9 0.500000 0.113015 0.411569
O O10 0.775834 0.156101 0.448749
O O11 0.735634 0.143547 0.349829
O O12 0.250000 0.750000 0.500000
O O13 0.268965 0.655360 0.549911
O O14 0.000000 0.681627 0.499090
O O15 0.500000 0.190088 0.188032
O O16 0.750000 0.171738 0.250000
O O17 0.500000 0.617904 0.901863
#
# Coordination Sequence:
#
# PCOD9477245 Si02
#       6
#    16  16  16  16  16  16
#     4   9  18  32  51  73  97 129 165 205 251 299
#     4   9  15  28  50  75 100 132 172 209 243 291
#     4  10  19  31  51  78 103 130 169 213 255 301
#     4  10  19  30  47  73 103 131 164 208 256 305
#     4  10  20  35  54  75 102 135 169 206 252 304
#     4   9  16  29  49  72  99 130 167 206 247 296
#
# _framework density 19.387698
#
# number of rings (size 3 to 8) (size 9 to 14) (size 15 to 20)
#    0.000    2.500    1.667    1.500    0.000    2.667 
#    0.000    1.667    0.000    4.500    0.000    0.000 
#    0.000    0.000    0.000    0.000    0.000    0.000 
#
# Total GULP energy -267870.394156 kJ/mol
# GULP energy per Si atom -5580.633212 kJ/mol
# Density = 1.934357 g / cm^3
# Si number density = 19.387698 Si / 1000 Ang^3
#
#
#
# Elastic Constant Matrix: (Units=GPa)
#
#
# Indices 1 2 3 4 5 6 
#
# 1 29.2185 6.5728 0.0231 0.0000 0.0000 0.0000
# 2 6.5728 213.5752 138.6470 0.0000 0.0000 0.0000
# 3 0.0231 138.6470 168.6579 0.0000 0.0000 0.0000
# 4 0.0000 0.0000 0.0000 27.4805 0.0000 0.0000
# 5 0.0000 0.0000 0.0000 0.0000 14.3868 0.0000
# 6 0.0000 0.0000 0.0000 0.0000 0.0000 23.9037
#
#
#
# Elastic Compliance Matrix: (Units=1/GPa)
#
#
# Indices 1 2 3 4 5 6 
#
# 1 0.034738 -0.002286 0.001874 0.000000 0.000000 0.000000
# 2 -0.002286 0.010191 -0.008377 0.000000 0.000000 0.000000
# 3 0.001874 -0.008377 0.012815 0.000000 0.000000 0.000000
# 4 0.000000 0.000000 0.000000 0.036389 0.000000 0.000000
# 5 0.000000 0.000000 0.000000 0.000000 0.069508 0.000000
# 6 0.000000 0.000000 0.000000 0.000000 0.000000 0.041835
#
#
# Mechanical properties :
#
#
# Convention : Reuss Voigt Hill
#
# Bulk Modulus (GPa) = 24.89634 77.99304 51.44469
# Shear Modulus (GPa) = 21.14686 30.90144 26.02415
#
# Velocity S-wave (km/s) = 3.30621 3.99666 3.66772
# Velocity P-wave (km/s) = 5.23869 7.84940 6.67297
#
# Compressibility (1/GPa) = 0.04016655
#
# Stress axis : x y z
#
# Youngs Moduli (GPa) = 28.78726 98.12887 78.03144
#
# Poissons Ratio (x) = 0.22430 -0.14626
# Poissons Ratio (y) = 0.06580 0.65367
# Poissons Ratio (z) = -0.05396 0.82203
#
# Static dielectric constant tensor:
#      x y z
#    x 1.724990 0.000000 0.000000 
#    y 0.000000 1.672960 0.000000 
#    z 0.000000 0.000000 1.636160 
# 
# From -- ./inp_files/43002.got.cif
#   From: 2010.05.17/outbox.cif.g08.bks.cpg/sg64_22_cif.got.tgz:43002.got - 2010.06.03 16:29:19.
