data_PCOD9477052
_publ_section_title
;
Structure prediction by ZEFSAII (Michael W. Deem and Ramdas Pophale) SiO2 
 PCOD9477052
Probable space group: C M C A
;
_chemical_formula_sum "Si O2"
_cell_formula_units_Z 104
_cell_length_a 8.420072
_cell_length_b 25.099194
_cell_length_c 22.743266
_cell_angle_alpha 90.000000
_cell_angle_beta 90.000000
_cell_angle_gamma 90.000000
_cell_volume 4806.494076
_symmetry_space_group_name_H-M "C M C A"
_symmetry_group_IT_number 64
_symmetry_cell_setting 'orthorhombic'
loop_
_space_group_symop_operation_xyz
x,y,z
-x,1/2-y,1/2+z
x,-y,-z
-x,1/2+y,1/2-z
-x,-y,-z
x,1/2+y,1/2-z
-x,y,z
x,1/2-y,1/2+z
1/2+x,1/2+y,z
1/2-x,-y,1/2+z
1/2+x,1/2-y,-z
1/2-x,y,1/2-z
1/2-x,1/2-y,-z
1/2+x,y,1/2-z
1/2-x,1/2+y,z
1/2+x,-y,1/2+z
loop_
_atom_site_type_symbol
_atom_site_label
_atom_site_fract_x
_atom_site_fract_y
_atom_site_fract_z
Si Si1 0.692602 0.127492 0.489468
Si Si2 0.312216 0.871551 0.646633
Si Si3 0.186545 0.436170 0.400850
Si Si4 0.750000 0.250000 0.500000
Si Si5 0.312666 0.241418 0.140275
Si Si6 0.313767 0.349415 0.314489
Si Si7 0.813575 0.480810 0.810348
O O1 0.500000 0.134363 0.494201
O O2 0.730368 0.116562 0.421715
O O3 0.739527 0.080541 0.533785
O O4 0.762377 0.184542 0.508133
O O5 0.223208 0.817537 0.664088
O O6 0.000000 0.861179 0.850817
O O7 0.268853 0.923712 0.682462
O O8 0.216959 0.383517 0.361930
O O9 0.273279 0.483132 0.366535
O O10 0.000000 0.449167 0.402692
O O11 0.738247 0.258027 0.571712
O O12 0.500000 0.253010 0.143290
O O13 0.216833 0.287255 0.173122
O O14 0.500000 0.362119 0.319462
O O15 0.250000 0.362011 0.250000
O O16 0.750000 0.506542 0.750000
O O17 0.000000 0.473681 0.805653
#
# Coordination Sequence:
#
# PCOD9477052 Si02
#       7
#    16  16  16   8  16  16  16
#     4   9  19  36  61  94 131 171 209 254 314 379
#     4  10  22  42  65  96 129 168 214 264 321 384
#     4  11  22  42  67  95 128 169 214 265 320 383
#     4  10  18  34  60  94 132 172 210 254 310 376
#     4  11  22  39  63  94 130 170 213 265 320 381
#     4  12  25  41  61  91 128 170 215 268 323 386
#     4  12  26  46  68  93 122 166 218 272 328 388
#
# _framework density 21.637392999999999
#
# number of rings (size 3 to 8) (size 9 to 14) (size 15 to 20)
#    0.000    1.231    1.538    5.077    0.000    3.077 
#    0.000    8.462    0.000    0.000    0.000    0.000 
#    0.000    0.000    0.000    0.000    0.000    0.000 
#
# Total GULP energy -289831.240337 kJ/mol
# GULP energy per Si atom -5573.677699 kJ/mol
# Density = 2.158815 g / cm^3
# Si number density = 21.637393 Si / 1000 Ang^3
#
#
#
# Elastic Constant Matrix: (Units=GPa)
#
#
# Indices 1 2 3 4 5 6 
#
# 1 28.9113 -8.6228 0.6279 0.0000 0.0000 0.0000
# 2 -8.6228 69.0207 2.8960 0.0000 0.0000 0.0000
# 3 0.6279 2.8960 44.6384 0.0000 0.0000 0.0000
# 4 0.0000 0.0000 0.0000 10.1850 0.0000 0.0000
# 5 0.0000 0.0000 0.0000 0.0000 10.2667 0.0000
# 6 0.0000 0.0000 0.0000 0.0000 0.0000 22.8716
#
#
#
# Elastic Compliance Matrix: (Units=1/GPa)
#
#
# Indices 1 2 3 4 5 6 
#
# 1 0.035956 0.004526 -0.000799 0.000000 0.000000 0.000000
# 2 0.004526 0.015098 -0.001043 0.000000 0.000000 0.000000
# 3 -0.000799 -0.001043 0.022481 0.000000 0.000000 0.000000
# 4 0.000000 0.000000 0.000000 0.098183 0.000000 0.000000
# 5 0.000000 0.000000 0.000000 0.000000 0.097402 0.000000
# 6 0.000000 0.000000 0.000000 0.000000 0.000000 0.043722
#
#
# Mechanical properties :
#
#
# Convention : Reuss Voigt Hill
#
# Bulk Modulus (GPa) = 12.67420 14.70806 13.69113
# Shear Modulus (GPa) = 14.98007 18.50928 16.74468
#
# Velocity S-wave (km/s) = 2.63406 2.92795 2.78488
# Velocity P-wave (km/s) = 3.88861 4.27116 4.08436
#
# Compressibility (1/GPa) = 0.07890044
#
# Stress axis : x y z
#
# Youngs Moduli (GPa) = 27.81200 66.23588 44.48173
#
# Poissons Ratio (x) = -0.29975 0.03556
# Poissons Ratio (y) = -0.12586 0.04640
# Poissons Ratio (z) = 0.02223 0.06909
#
# Static dielectric constant tensor:
#      x y z
#    x 1.754510 0.000000 0.000000 
#    y 0.000000 1.771660 0.000000 
#    z 0.000000 0.000000 1.783060 
# 
# From -- ./inp_files/37200.got.cif
#   From: 2010.05.17/outbox.cif.g08.bks.cpg/sg64_19_cif.got.tgz:37200.got - 2010.06.03 16:29:19.
