data_PCOD9477108
_publ_section_title
;
Structure prediction by ZEFSAII (Michael W. Deem and Ramdas Pophale) SiO2 
 PCOD9477108
Probable space group: C M C A
;
_chemical_formula_sum "Si O2"
_cell_formula_units_Z 88
_cell_length_a 27.530582
_cell_length_b 12.173529
_cell_length_c 12.469157
_cell_angle_alpha 90.000000
_cell_angle_beta 90.000000
_cell_angle_gamma 90.000000
_cell_volume 4178.967373
_symmetry_space_group_name_H-M "C M C A"
_symmetry_group_IT_number 64
_symmetry_cell_setting 'orthorhombic'
loop_
_space_group_symop_operation_xyz
x,y,z
-x,1/2-y,1/2+z
x,-y,-z
-x,1/2+y,1/2-z
-x,-y,-z
x,1/2+y,1/2-z
-x,y,z
x,1/2-y,1/2+z
1/2+x,1/2+y,z
1/2-x,-y,1/2+z
1/2+x,1/2-y,-z
1/2-x,y,1/2-z
1/2-x,1/2-y,-z
1/2+x,y,1/2-z
1/2-x,1/2+y,z
1/2+x,-y,1/2+z
loop_
_atom_site_type_symbol
_atom_site_label
_atom_site_fract_x
_atom_site_fract_y
_atom_site_fract_z
Si Si1 0.057979 0.833839 0.969264
Si Si2 0.088459 0.088197 0.583649
Si Si3 0.711330 0.096792 0.423070
Si Si4 0.559104 0.964331 0.324688
Si Si5 0.197009 0.345773 0.056102
Si Si6 0.750000 0.037731 0.750000
O O1 0.068553 0.709530 0.939732
O O2 0.000000 0.848481 0.972001
O O3 0.075117 0.920656 0.879131
O O4 0.074689 0.872474 0.087615
O O5 0.079096 0.055191 0.706399
O O6 0.145614 0.097506 0.561285
O O7 0.067263 0.000000 0.500000
O O8 0.767977 0.121083 0.457272
O O9 0.688057 0.214986 0.439312
O O10 0.711593 0.043476 0.306319
O O11 0.692821 0.000000 0.500000
O O12 0.500000 0.963042 0.316450
O O13 0.227479 0.385307 0.159174
#
# Coordination Sequence:
#
# PCOD9477108 Si02
#       6
#    16  16  16  16  16   8
#     4   9  21  44  67  90 128 171 210 253 312 385
#     4  12  25  39  62 101 131 160 208 272 321 371
#     4   9  19  39  60  81 111 163 203 244 305 372
#     4   9  21  44  67  90 126 171 211 254 313 378
#     4  10  22  40  58  87 126 154 205 262 305 371
#     4  10  18  36  62  82 108 162 202 244 310 360
#
# _framework density 21.057832000000001
#
# number of rings (size 3 to 8) (size 9 to 14) (size 15 to 20)
#    0.000    2.182    0.000    3.818    2.545    2.909 
#   16.364    0.000    0.000    0.000    0.000    0.000 
#    0.000    0.000    0.000    0.000    0.000    0.000 
#
# Total GULP energy -245711.528311 kJ/mol
# GULP energy per Si atom -5584.352916 kJ/mol
# Density = 2.100990 g / cm^3
# Si number density = 21.057832 Si / 1000 Ang^3
#
#
#
# Elastic Constant Matrix: (Units=GPa)
#
#
# Indices 1 2 3 4 5 6 
#
# 1 34.2632 11.3491 12.8937 0.0000 0.0000 0.0000
# 2 11.3491 177.2897 89.0699 0.0000 0.0000 0.0000
# 3 12.8937 89.0699 155.8332 0.0000 0.0000 0.0000
# 4 0.0000 0.0000 0.0000 20.8960 0.0000 0.0000
# 5 0.0000 0.0000 0.0000 0.0000 7.5205 0.0000
# 6 0.0000 0.0000 0.0000 0.0000 0.0000 19.1040
#
#
#
# Elastic Compliance Matrix: (Units=1/GPa)
#
#
# Indices 1 2 3 4 5 6 
#
# 1 0.030238 -0.000952 -0.001958 0.000000 0.000000 0.000000
# 2 -0.000952 0.007943 -0.004461 0.000000 0.000000 0.000000
# 3 -0.001958 -0.004461 0.009129 0.000000 0.000000 0.000000
# 4 0.000000 0.000000 0.000000 0.047856 0.000000 0.000000
# 5 0.000000 0.000000 0.000000 0.000000 0.132969 0.000000
# 6 0.000000 0.000000 0.000000 0.000000 0.000000 0.052345
#
#
# Mechanical properties :
#
#
# Convention : Reuss Voigt Hill
#
# Bulk Modulus (GPa) = 30.70517 66.00128 48.35323
# Shear Modulus (GPa) = 16.33572 26.44233 21.38903
#
# Velocity S-wave (km/s) = 2.78826 3.54743 3.19051
# Velocity P-wave (km/s) = 4.99789 6.94190 6.04850
#
# Compressibility (1/GPa) = 0.03256780
#
# Stress axis : x y z
#
# Youngs Moduli (GPa) = 33.07105 125.90277 109.54231
#
# Poissons Ratio (x) = 0.11987 0.21445
# Poissons Ratio (y) = 0.03149 0.48867
# Poissons Ratio (z) = 0.06474 0.56165
#
# Static dielectric constant tensor:
#      x y z
#    x 1.809040 0.000000 0.000000 
#    y 0.000000 1.784950 0.000000 
#    z 0.000000 0.000000 1.746870 
# 
# From -- ./inp_files/19677.got.cif
#   From: 2010.05.17/outbox.cif.g08.bks.cpg/sg64_10_cif.got.tgz:19677.got - 2010.06.03 16:29:19.
