data_PCOD9477675
_publ_section_title
;
Structure prediction by ZEFSAII (Michael W. Deem and Ramdas Pophale) SiO2 
 PCOD9477675
Probable space group: C M C A
;
_chemical_formula_sum "Si O2"
_cell_formula_units_Z 80
_cell_length_a 15.928602
_cell_length_b 29.968593
_cell_length_c 7.947434
_cell_angle_alpha 90.000000
_cell_angle_beta 90.000000
_cell_angle_gamma 90.000000
_cell_volume 3793.769534
_symmetry_space_group_name_H-M "C M C A"
_symmetry_group_IT_number 64
_symmetry_cell_setting 'orthorhombic'
loop_
_space_group_symop_operation_xyz
x,y,z
-x,1/2-y,1/2+z
x,-y,-z
-x,1/2+y,1/2-z
-x,-y,-z
x,1/2+y,1/2-z
-x,y,z
x,1/2-y,1/2+z
1/2+x,1/2+y,z
1/2-x,-y,1/2+z
1/2+x,1/2-y,-z
1/2-x,y,1/2-z
1/2-x,1/2-y,-z
1/2+x,y,1/2-z
1/2-x,1/2+y,z
1/2+x,-y,1/2+z
loop_
_atom_site_type_symbol
_atom_site_label
_atom_site_fract_x
_atom_site_fract_y
_atom_site_fract_z
Si Si1 0.401505 0.895080 0.331057
Si Si2 0.151431 0.699369 0.798920
Si Si3 0.846945 0.890876 0.802416
Si Si4 0.348428 0.703719 0.302031
Si Si5 0.100044 0.550143 0.991419
O O1 0.500000 0.904725 0.353917
O O2 0.390713 0.842925 0.287522
O O3 0.356635 0.905950 0.506173
O O4 0.367720 0.922229 0.169722
O O5 0.250000 0.697360 0.750000
O O6 0.355069 0.696092 0.500530
O O7 0.116718 0.747696 0.744323
O O8 0.750000 0.887765 0.750000
O O9 0.883478 0.840510 0.786870
O O10 0.886346 0.923347 0.664362
O O11 0.250000 0.706610 0.250000
O O12 0.000000 0.546958 0.966478
O O13 0.134900 0.500000 0.000000
#
# Coordination Sequence:
#
# PCOD9477675 Si02
#       5
#    16  16  16  16  16
#     4  11  24  41  64  93 128 168 211 262 319 375
#     4  11  19  35  59  88 126 165 212 255 301 373
#     4  11  22  41  65  96 127 168 212 262 316 375
#     4  10  19  33  57  90 123 166 210 248 308 375
#     4  10  23  45  67  90 126 170 211 259 322 384
#
# _framework density 21.087206999999999
#
# number of rings (size 3 to 8) (size 9 to 14) (size 15 to 20)
#    0.000    1.400    2.000    6.600    0.000    0.800 
#    3.600    8.000    0.000    0.000    0.000    0.000 
#    0.000    0.000    0.000    0.000    0.000    0.000 
#
# Total GULP energy -223527.259168 kJ/mol
# GULP energy per Si atom -5588.181479 kJ/mol
# Density = 2.103921 g / cm^3
# Si number density = 21.087207 Si / 1000 Ang^3
#
#
#
# Elastic Constant Matrix: (Units=GPa)
#
#
# Indices 1 2 3 4 5 6 
#
# 1 25.6926 5.1028 8.4363 0.0000 0.0000 0.0000
# 2 5.1028 153.1428 60.4224 0.0000 0.0000 0.0000
# 3 8.4363 60.4224 186.8877 0.0000 0.0000 0.0000
# 4 0.0000 0.0000 0.0000 16.0650 0.0000 0.0000
# 5 0.0000 0.0000 0.0000 0.0000 28.4787 0.0000
# 6 0.0000 0.0000 0.0000 0.0000 0.0000 22.7474
#
#
#
# Elastic Compliance Matrix: (Units=1/GPa)
#
#
# Indices 1 2 3 4 5 6 
#
# 1 0.039573 -0.000704 -0.001559 0.000000 0.000000 0.000000
# 2 -0.000704 0.007497 -0.002392 0.000000 0.000000 0.000000
# 3 -0.001559 -0.002392 0.006195 0.000000 0.000000 0.000000
# 4 0.000000 0.000000 0.000000 0.062247 0.000000 0.000000
# 5 0.000000 0.000000 0.000000 0.000000 0.035114 0.000000
# 6 0.000000 0.000000 0.000000 0.000000 0.000000 0.043961
#
#
# Mechanical properties :
#
#
# Convention : Reuss Voigt Hill
#
# Bulk Modulus (GPa) = 22.75012 57.07178 39.91095
# Shear Modulus (GPa) = 22.87823 32.90898 27.89360
#
# Velocity S-wave (km/s) = 3.29741 3.95475 3.64094
# Velocity P-wave (km/s) = 5.03083 6.92653 6.05334
#
# Compressibility (1/GPa) = 0.04395581
#
# Stress axis : x y z
#
# Youngs Moduli (GPa) = 25.26958 133.38481 161.43174
#
# Poissons Ratio (x) = 0.09384 0.25166
# Poissons Ratio (y) = 0.01778 0.38616
# Poissons Ratio (z) = 0.03939 0.31907
#
# Static dielectric constant tensor:
#      x y z
#    x 1.761410 0.000000 0.000000 
#    y 0.000000 1.793000 0.000000 
#    z 0.000000 0.000000 1.729240 
# 
# From -- ./inp_files/7134.got.cif
#   From: 2010.05.17/outbox.cif.g08.bks.cpg/sg64_4_cif.got.tgz:7134.got - 2010.06.03 16:29:19.
