data_PCOD9477017
_publ_section_title
;
Structure prediction by ZEFSAII (Michael W. Deem and Ramdas Pophale) SiO2 
 PCOD9477017
Probable space group: C M C A
;
_chemical_formula_sum "Si O2"
_cell_formula_units_Z 56
_cell_length_a 18.990919
_cell_length_b 13.513061
_cell_length_c 11.801137
_cell_angle_alpha 90.000000
_cell_angle_beta 90.000000
_cell_angle_gamma 90.000000
_cell_volume 3028.472056
_symmetry_space_group_name_H-M "C M C A"
_symmetry_group_IT_number 64
_symmetry_cell_setting 'orthorhombic'
loop_
_space_group_symop_operation_xyz
x,y,z
-x,1/2-y,1/2+z
x,-y,-z
-x,1/2+y,1/2-z
-x,-y,-z
x,1/2+y,1/2-z
-x,y,z
x,1/2-y,1/2+z
1/2+x,1/2+y,z
1/2-x,-y,1/2+z
1/2+x,1/2-y,-z
1/2-x,y,1/2-z
1/2-x,1/2-y,-z
1/2+x,y,1/2-z
1/2-x,1/2+y,z
1/2+x,-y,1/2+z
loop_
_atom_site_type_symbol
_atom_site_label
_atom_site_fract_x
_atom_site_fract_y
_atom_site_fract_z
Si Si1 0.250000 0.111905 0.750000
Si Si2 0.582327 0.596436 0.420610
Si Si3 0.823227 0.924360 0.799218
Si Si4 0.676442 0.258830 0.435086
O O1 0.303715 0.174792 0.825240
O O2 0.203602 0.035330 0.826631
O O3 0.589535 0.500000 0.500000
O O4 0.500000 0.616689 0.403313
O O5 0.621518 0.574986 0.302682
O O6 0.621181 0.685178 0.485875
O O7 0.750000 0.878813 0.750000
O O8 0.847073 0.850131 0.896211
O O9 0.750000 0.250000 0.500000
#
# Coordination Sequence:
#
# PCOD9477017 Si02
#       4
#     8  16  16  16
#     4  10  18  34  54  84 118 142 198 242 280 344
#     4  11  22  38  59  84 119 157 190 237 306 358
#     4  10  20  34  57  85 109 152 197 238 286 345
#     4  12  20  35  59  90 113 150 200 243 292 346
#
# _framework density 18.491173
#
# number of rings (size 3 to 8) (size 9 to 14) (size 15 to 20)
#    0.857    0.286    7.143    0.000    0.000    1.143 
#    0.000    0.000    0.000    0.000    0.000    6.000 
#    0.000    0.000    0.000    0.000    0.000    0.000 
#
# Total GULP energy -156082.997966 kJ/mol
# GULP energy per Si atom -5574.392784 kJ/mol
# Density = 1.844909 g / cm^3
# Si number density = 18.491173 Si / 1000 Ang^3
#
#
#
# Elastic Constant Matrix: (Units=GPa)
#
#
# Indices 1 2 3 4 5 6 
#
# 1 112.8659 11.4099 19.4331 0.0000 0.0000 0.0000
# 2 11.4099 63.2454 5.4340 0.0000 0.0000 0.0000
# 3 19.4331 5.4340 30.5132 0.0000 0.0000 0.0000
# 4 0.0000 0.0000 0.0000 34.3636 0.0000 0.0000
# 5 0.0000 0.0000 0.0000 0.0000 29.0485 0.0000
# 6 0.0000 0.0000 0.0000 0.0000 0.0000 12.6671
#
#
#
# Elastic Compliance Matrix: (Units=1/GPa)
#
#
# Indices 1 2 3 4 5 6 
#
# 1 0.010053 -0.001283 -0.006174 0.000000 0.000000 0.000000
# 2 -0.001283 0.016221 -0.002072 0.000000 0.000000 0.000000
# 3 -0.006174 -0.002072 0.037074 0.000000 0.000000 0.000000
# 4 0.000000 0.000000 0.000000 0.029101 0.000000 0.000000
# 5 0.000000 0.000000 0.000000 0.000000 0.034425 0.000000
# 6 0.000000 0.000000 0.000000 0.000000 0.000000 0.078945
#
#
# Mechanical properties :
#
#
# Convention : Reuss Voigt Hill
#
# Bulk Modulus (GPa) = 22.57833 31.01980 26.79906
# Shear Modulus (GPa) = 20.86478 26.57235 23.71857
#
# Velocity S-wave (km/s) = 3.36276 3.79493 3.58536
# Velocity P-wave (km/s) = 5.22631 6.00116 5.62709
#
# Compressibility (1/GPa) = 0.04429026
#
# Stress axis : x y z
#
# Youngs Moduli (GPa) = 99.47482 61.64885 26.97337
#
# Poissons Ratio (x) = 0.07910 0.16653
# Poissons Ratio (y) = 0.12764 0.05588
# Poissons Ratio (z) = 0.61414 0.12771
#
# Static dielectric constant tensor:
#      x y z
#    x 1.598140 0.000000 0.000000 
#    y 0.000000 1.684380 0.000000 
#    z 0.000000 0.000000 1.698190 
# 
# From -- ./inp_files/15353.got.cif
#   From: 2010.05.17/outbox.cif.g08.bks.cpg/sg64_8_cif.got.tgz:15353.got - 2010.06.03 16:29:19.
