data_PCOD9477692
_publ_section_title
;
Structure prediction by ZEFSAII (Michael W. Deem and Ramdas Pophale) SiO2 
 PCOD9477692
Probable space group: C M C A
;
_chemical_formula_sum "Si O2"
_cell_formula_units_Z 80
_cell_length_a 15.508325
_cell_length_b 13.283276
_cell_length_c 18.133101
_cell_angle_alpha 90.000000
_cell_angle_beta 90.000000
_cell_angle_gamma 90.000000
_cell_volume 3735.443490
_symmetry_space_group_name_H-M "C M C A"
_symmetry_group_IT_number 64
_symmetry_cell_setting 'orthorhombic'
loop_
_space_group_symop_operation_xyz
x,y,z
-x,1/2-y,1/2+z
x,-y,-z
-x,1/2+y,1/2-z
-x,-y,-z
x,1/2+y,1/2-z
-x,y,z
x,1/2-y,1/2+z
1/2+x,1/2+y,z
1/2-x,-y,1/2+z
1/2+x,1/2-y,-z
1/2-x,y,1/2-z
1/2-x,1/2-y,-z
1/2+x,y,1/2-z
1/2-x,1/2+y,z
1/2+x,-y,1/2+z
loop_
_atom_site_type_symbol
_atom_site_label
_atom_site_fract_x
_atom_site_fract_y
_atom_site_fract_z
Si Si1 0.747461 0.864102 0.666061
Si Si2 0.599632 0.483523 0.589204
Si Si3 0.592304 0.511258 0.123343
Si Si4 0.866204 0.147587 0.981964
Si Si5 0.677809 0.679469 0.568223
O O1 0.750000 0.830163 0.750000
O O2 0.676538 0.954079 0.665863
O O3 0.712813 0.770287 0.618521
O O4 0.833897 0.908008 0.628560
O O5 0.609931 0.500000 0.500000
O O6 0.500000 0.460188 0.603940
O O7 0.626783 0.596495 0.613449
O O8 0.500000 0.530205 0.159675
O O9 0.596541 0.397729 0.092829
O O10 0.599131 0.580553 0.049395
O O11 0.763088 0.133882 0.970611
O O12 0.878670 0.262792 0.006011
#
# Coordination Sequence:
#
# PCOD9477692 Si02
#       5
#    16  16  16  16  16
#     4  11  25  43  63  86 131 175 217 263 327 387
#     4  11  23  42  70 100 128 168 218 271 327 387
#     4  10  19  33  60  90 119 156 201 255 316 374
#     4   9  16  31  56  93 122 144 192 250 319 368
#     4  10  20  35  63  92 126 167 200 256 322 390
#
# _framework density 21.416467000000001
#
# number of rings (size 3 to 8) (size 9 to 14) (size 15 to 20)
#    0.000    1.800    2.000    4.800    0.000    5.600 
#    0.000    2.000    0.000    0.000    0.000    0.000 
#    0.000    0.000    0.000    0.000    0.000    0.000 
#
# Total GULP energy -223007.814128 kJ/mol
# GULP energy per Si atom -5575.195353 kJ/mol
# Density = 2.136772 g / cm^3
# Si number density = 21.416467 Si / 1000 Ang^3
#
#
#
# Elastic Constant Matrix: (Units=GPa)
#
#
# Indices 1 2 3 4 5 6 
#
# 1 142.4499 33.7057 30.8716 0.0000 0.0000 0.0000
# 2 33.7057 79.7143 17.0162 0.0000 0.0000 0.0000
# 3 30.8716 17.0162 62.1325 0.0000 0.0000 0.0000
# 4 0.0000 0.0000 0.0000 16.8135 0.0000 0.0000
# 5 0.0000 0.0000 0.0000 0.0000 12.6273 0.0000
# 6 0.0000 0.0000 0.0000 0.0000 0.0000 16.3090
#
#
#
# Elastic Compliance Matrix: (Units=1/GPa)
#
#
# Indices 1 2 3 4 5 6 
#
# 1 0.008431 -0.002836 -0.003412 0.000000 0.000000 0.000000
# 2 -0.002836 0.014278 -0.002501 0.000000 0.000000 0.000000
# 3 -0.003412 -0.002501 0.018475 0.000000 0.000000 0.000000
# 4 0.000000 0.000000 0.000000 0.059476 0.000000 0.000000
# 5 0.000000 0.000000 0.000000 0.000000 0.079193 0.000000
# 6 0.000000 0.000000 0.000000 0.000000 0.000000 0.061316
#
#
# Mechanical properties :
#
#
# Convention : Reuss Voigt Hill
#
# Bulk Modulus (GPa) = 42.22153 49.72041 45.97097
# Shear Modulus (GPa) = 18.75732 22.66350 20.71041
#
# Velocity S-wave (km/s) = 2.96266 3.25657 3.11309
# Velocity P-wave (km/s) = 5.60896 6.11610 5.86801
#
# Compressibility (1/GPa) = 0.02368460
#
# Stress axis : x y z
#
# Youngs Moduli (GPa) = 118.61546 70.03797 54.12730
#
# Poissons Ratio (x) = 0.19865 0.18469
# Poissons Ratio (y) = 0.33644 0.13537
# Poissons Ratio (z) = 0.40473 0.17517
#
# Static dielectric constant tensor:
#      x y z
#    x 1.826460 0.000000 0.000000 
#    y 0.000000 1.869420 0.000000 
#    z 0.000000 0.000000 1.834320 
# 
# From -- ./inp_files/38989.got.cif
#   From: 2010.05.17/outbox.cif.g08.bks.cpg/sg64_20_cif.got.tgz:38989.got - 2010.06.03 16:29:19.
