data_PCOD9477495
_publ_section_title
;
Structure prediction by ZEFSAII (Michael W. Deem and Ramdas Pophale) SiO2 
 PCOD9477495
Probable space group: C M C A
;
_chemical_formula_sum "Si O2"
_cell_formula_units_Z 80
_cell_length_a 27.869923
_cell_length_b 8.500106
_cell_length_c 16.037275
_cell_angle_alpha 90.000000
_cell_angle_beta 90.000000
_cell_angle_gamma 90.000000
_cell_volume 3799.187142
_symmetry_space_group_name_H-M "C M C A"
_symmetry_group_IT_number 64
_symmetry_cell_setting 'orthorhombic'
loop_
_space_group_symop_operation_xyz
x,y,z
-x,1/2-y,1/2+z
x,-y,-z
-x,1/2+y,1/2-z
-x,-y,-z
x,1/2+y,1/2-z
-x,y,z
x,1/2-y,1/2+z
1/2+x,1/2+y,z
1/2-x,-y,1/2+z
1/2+x,1/2-y,-z
1/2-x,y,1/2-z
1/2-x,1/2-y,-z
1/2+x,y,1/2-z
1/2-x,1/2+y,z
1/2+x,-y,1/2+z
loop_
_atom_site_type_symbol
_atom_site_label
_atom_site_fract_x
_atom_site_fract_y
_atom_site_fract_z
Si Si1 0.250000 0.061937 0.250000
Si Si2 0.900734 0.365808 0.284363
Si Si3 0.830368 0.000000 0.000000
Si Si4 0.102337 0.194952 0.127588
Si Si5 0.500000 0.299159 0.943613
Si Si6 0.000000 0.160741 0.868963
Si Si7 0.195907 0.687680 0.647211
O O1 0.228107 0.169085 0.322976
O O2 0.209407 0.952274 0.211144
O O3 0.902977 0.549006 0.308243
O O4 0.883400 0.333673 0.190336
O O5 0.953471 0.308836 0.312332
O O6 0.860588 0.284355 0.342017
O O7 0.798358 0.886784 0.056846
O O8 0.863810 0.115704 0.057062
O O9 0.051713 0.250507 0.090290
O O10 0.500000 0.482230 0.908662
O O11 0.500000 0.254998 0.041549
#
# Coordination Sequence:
#
# PCOD9477495 Si02
#       7
#     8  16   8  16   8   8  16
#     4  10  22  38  60  80 104 142 180 220 274 326
#     4  10  19  33  55  80 110 142 181 218 262 323
#     4  10  20  33  56  80 106 138 178 225 270 316
#     4  10  19  32  54  80 108 146 183 220 264 317
#     4   9  15  28  49  77 110 141 182 218 256 309
#     4   9  17  30  53  82 108 142 178 218 262 315
#     4  10  20  37  57  81 108 139 179 223 267 319
#
# _framework density 21.057134999999999
#
# number of rings (size 3 to 8) (size 9 to 14) (size 15 to 20)
#    0.000    2.200    0.000    6.600    0.000    0.800 
#    0.000    0.000    0.000   28.800    0.000    0.000 
#    0.000    0.000    0.000    0.000    0.000    0.100 
#
# Total GULP energy -222710.023887 kJ/mol
# GULP energy per Si atom -5567.750597 kJ/mol
# Density = 2.100921 g / cm^3
# Si number density = 21.057135 Si / 1000 Ang^3
#
#
#
# Elastic Constant Matrix: (Units=GPa)
#
#
# Indices 1 2 3 4 5 6 
#
# 1 70.7415 19.2592 9.2734 0.0000 0.0000 0.0000
# 2 19.2592 36.2031 30.1342 0.0000 0.0000 0.0000
# 3 9.2734 30.1342 104.5202 0.0000 0.0000 0.0000
# 4 0.0000 0.0000 0.0000 37.1914 0.0000 0.0000
# 5 0.0000 0.0000 0.0000 0.0000 20.0812 0.0000
# 6 0.0000 0.0000 0.0000 0.0000 0.0000 -1.0705
#
#
#
# Elastic Compliance Matrix: (Units=1/GPa)
#
#
# Indices 1 2 3 4 5 6 
#
# 1 0.016689 -0.010060 0.001420 0.000000 0.000000 0.000000
# 2 -0.010060 0.042407 -0.011334 0.000000 0.000000 0.000000
# 3 0.001420 -0.011334 0.012709 0.000000 0.000000 0.000000
# 4 0.000000 0.000000 0.000000 0.026888 0.000000 0.000000
# 5 0.000000 0.000000 0.000000 0.000000 0.049798 0.000000
# 6 0.000000 0.000000 0.000000 0.000000 0.000000 -0.934150
#
#
# Mechanical properties :
#
#
# Convention : Reuss Voigt Hill
#
# Bulk Modulus (GPa) = 31.38984 36.53313 33.96148
# Shear Modulus (GPa) = -6.80187 21.42695 7.31254
#
# Velocity S-wave (km/s) = -1.79922 3.19339 1.86554
# Velocity P-wave (km/s) = 3.25930 5.56634 4.56110
#
# Compressibility (1/GPa) = 0.03185745
#
# Stress axis : x y z
#
# Youngs Moduli (GPa) = 59.92127 23.58082 78.68279
#
# Poissons Ratio (x) = 0.23721 -0.11170
# Poissons Ratio (y) = 0.60278 0.89179
# Poissons Ratio (z) = -0.08506 0.26726
#
# Static dielectric constant tensor:
#      x y z
#    x 1.803820 0.000000 0.000000 
#    y 0.000000 1.783370 0.000000 
#    z 0.000000 0.000000 1.819330 
# 
# From -- ./inp_files/35415.got.cif
#   From: 2010.05.17/outbox.cif.g08.bks.cpg/sg64_18_cif.got.tgz:35415.got - 2010.06.03 16:29:19.
