data_PCOD9477230
_publ_section_title
;
Structure prediction by ZEFSAII (Michael W. Deem and Ramdas Pophale) SiO2 
 PCOD9477230
Probable space group: C M C A
;
_chemical_formula_sum "Si O2"
_cell_formula_units_Z 96
_cell_length_a 8.765633
_cell_length_b 24.702458
_cell_length_c 26.316259
_cell_angle_alpha 90.000000
_cell_angle_beta 90.000000
_cell_angle_gamma 90.000000
_cell_volume 5698.330116
_symmetry_space_group_name_H-M "C M C A"
_symmetry_group_IT_number 64
_symmetry_cell_setting 'orthorhombic'
loop_
_space_group_symop_operation_xyz
x,y,z
-x,1/2-y,1/2+z
x,-y,-z
-x,1/2+y,1/2-z
-x,-y,-z
x,1/2+y,1/2-z
-x,y,z
x,1/2-y,1/2+z
1/2+x,1/2+y,z
1/2-x,-y,1/2+z
1/2+x,1/2-y,-z
1/2-x,y,1/2-z
1/2-x,1/2-y,-z
1/2+x,y,1/2-z
1/2-x,1/2+y,z
1/2+x,-y,1/2+z
loop_
_atom_site_type_symbol
_atom_site_label
_atom_site_fract_x
_atom_site_fract_y
_atom_site_fract_z
Si Si1 0.317764 0.362446 0.928015
Si Si2 0.184767 0.015400 0.058008
Si Si3 0.814950 0.244170 0.119254
Si Si4 0.823965 0.675673 0.969015
Si Si5 0.323165 0.916523 0.116806
Si Si6 0.681850 0.832675 0.306217
O O1 0.500000 0.365136 0.923532
O O2 0.260714 0.424109 0.927820
O O3 0.266094 0.318239 0.886468
O O4 0.276751 0.337732 0.982734
O O5 0.000000 0.014328 0.058946
O O6 0.247563 0.971478 0.097307
O O7 0.230900 0.000000 0.000000
O O8 0.774864 0.274260 0.066173
O O9 0.742143 0.279732 0.163602
O O10 0.000000 0.247533 0.123850
O O11 0.818597 0.624565 0.931029
O O12 0.000000 0.683997 0.984773
O O13 0.500000 0.924764 0.130448
O O14 0.238857 0.884787 0.161870
O O15 0.500000 0.831949 0.304686
O O16 0.750000 0.833685 0.250000
#
# Coordination Sequence:
#
# PCOD9477230 Si02
#       6
#    16  16  16  16  16  16
#     4  10  19  30  47  70 105 147 181 215 255 302
#     4  10  19  31  48  74 109 148 188 222 257 307
#     4   9  19  34  49  73 105 137 174 215 261 311
#     4   9  17  28  44  68 101 137 177 219 255 301
#     4  10  20  34  52  77 107 140 179 221 263 309
#     4  11  22  38  61  83 103 129 165 216 273 323
#
# _framework density 16.847041999999998
#
# number of rings (size 3 to 8) (size 9 to 14) (size 15 to 20)
#    0.000    2.167    1.667    3.500    0.000    4.333 
#    0.000    0.000    0.000    1.000    0.000    4.667 
#    0.000    0.000    0.000    0.000    0.000    0.000 
#
# Total GULP energy -267698.991040 kJ/mol
# GULP energy per Si atom -5577.062313 kJ/mol
# Density = 1.680870 g / cm^3
# Si number density = 16.847042 Si / 1000 Ang^3
#
#
#
# Elastic Constant Matrix: (Units=GPa)
#
#
# Indices 1 2 3 4 5 6 
#
# 1 40.7537 47.1142 34.4557 0.0000 0.0000 0.0000
# 2 47.1142 160.8699 73.1701 0.0000 0.0000 0.0000
# 3 34.4557 73.1701 92.2036 0.0000 0.0000 0.0000
# 4 0.0000 0.0000 0.0000 7.0034 0.0000 0.0000
# 5 0.0000 0.0000 0.0000 0.0000 25.0884 0.0000
# 6 0.0000 0.0000 0.0000 0.0000 0.0000 18.0535
#
#
#
# Elastic Compliance Matrix: (Units=1/GPa)
#
#
# Indices 1 2 3 4 5 6 
#
# 1 0.041536 -0.007988 -0.009183 0.000000 0.000000 0.000000
# 2 -0.007988 0.011263 -0.005953 0.000000 0.000000 0.000000
# 3 -0.009183 -0.005953 0.019001 0.000000 0.000000 0.000000
# 4 0.000000 0.000000 0.000000 0.142788 0.000000 0.000000
# 5 0.000000 0.000000 0.000000 0.000000 0.039859 0.000000
# 6 0.000000 0.000000 0.000000 0.000000 0.000000 0.055391
#
#
# Mechanical properties :
#
#
# Convention : Reuss Voigt Hill
#
# Bulk Modulus (GPa) = 39.13436 67.03413 53.08425
# Shear Modulus (GPa) = 13.71348 19.30153 16.50751
#
# Velocity S-wave (km/s) = 2.85616 3.38848 3.13365
# Velocity P-wave (km/s) = 5.84436 7.42868 6.68363
#
# Compressibility (1/GPa) = 0.02555299
#
# Stress axis : x y z
#
# Youngs Moduli (GPa) = 24.07549 88.78246 52.62785
#
# Poissons Ratio (x) = 0.70921 0.48326
# Poissons Ratio (y) = 0.19232 0.31331
# Poissons Ratio (z) = 0.22107 0.52855
#
# Static dielectric constant tensor:
#      x y z
#    x 1.567660 0.000000 0.000000 
#    y 0.000000 1.603820 0.000000 
#    z 0.000000 0.000000 1.534010 
# 
# From -- ./inp_files/43050.got.cif
#   From: 2010.05.17/outbox.cif.g08.bks.cpg/sg64_22_cif.got.tgz:43050.got - 2010.06.03 16:29:19.
