data_PCOD9477411
_publ_section_title
;
Structure prediction by ZEFSAII (Michael W. Deem and Ramdas Pophale) SiO2 
 PCOD9477411
Probable space group: C M C A
;
_chemical_formula_sum "Si O2"
_cell_formula_units_Z 88
_cell_length_a 25.647882
_cell_length_b 27.000312
_cell_length_c 5.902318
_cell_angle_alpha 90.000000
_cell_angle_beta 90.000000
_cell_angle_gamma 90.000000
_cell_volume 4087.360032
_symmetry_space_group_name_H-M "C M C A"
_symmetry_group_IT_number 64
_symmetry_cell_setting 'orthorhombic'
loop_
_space_group_symop_operation_xyz
x,y,z
-x,1/2-y,1/2+z
x,-y,-z
-x,1/2+y,1/2-z
-x,-y,-z
x,1/2+y,1/2-z
-x,y,z
x,1/2-y,1/2+z
1/2+x,1/2+y,z
1/2-x,-y,1/2+z
1/2+x,1/2-y,-z
1/2-x,y,1/2-z
1/2-x,1/2-y,-z
1/2+x,y,1/2-z
1/2-x,1/2+y,z
1/2+x,-y,1/2+z
loop_
_atom_site_type_symbol
_atom_site_label
_atom_site_fract_x
_atom_site_fract_y
_atom_site_fract_z
Si Si1 0.058781 0.602382 0.356247
Si Si2 0.559818 0.699601 0.416964
Si Si3 0.750000 0.027418 0.250000
Si Si4 0.338549 0.733740 0.893929
Si Si5 0.374875 0.866985 0.261344
Si Si6 0.148191 0.443673 0.921903
O O1 0.058418 0.660998 0.292165
O O2 0.089539 0.598091 0.587585
O O3 0.093511 0.573852 0.176765
O O4 0.000000 0.585055 0.364146
O O5 0.500000 0.715744 0.463188
O O6 0.603028 0.741733 0.382291
O O7 0.584580 0.665359 0.612489
O O8 0.803868 0.057336 0.248546
O O9 0.750744 0.000000 0.500000
O O10 0.316420 0.748192 0.640369
O O11 0.342752 0.674410 0.896609
O O12 0.339524 0.903040 0.113016
O O13 0.142676 0.500000 0.000000
#
# Coordination Sequence:
#
# PCOD9477411 Si02
#       6
#    16  16   8  16  16  16
#     4  10  20  35  57  88 128 172 217 253 310 391
#     4   9  18  31  48  77 118 165 215 263 303 352
#     4  10  24  46  76 104 120 152 216 290 350 388
#     4  10  19  32  50  80 116 164 210 259 309 359
#     4  10  20  35  54  85 125 170 210 263 316 390
#     4  10  24  42  65  92 126 165 212 279 334 393
#
# _framework density 21.529789999999998
#
# number of rings (size 3 to 8) (size 9 to 14) (size 15 to 20)
#    0.000    2.182    1.818    0.545    5.091    4.727 
#    0.000    0.909    0.000    0.000    0.000   11.455 
#    0.000    0.182    0.000    0.000    0.000    0.000 
#
# Total GULP energy -245072.908305 kJ/mol
# GULP energy per Si atom -5569.838825 kJ/mol
# Density = 2.148079 g / cm^3
# Si number density = 21.529790 Si / 1000 Ang^3
#
#
#
# Elastic Constant Matrix: (Units=GPa)
#
#
# Indices 1 2 3 4 5 6 
#
# 1 24.2425 29.5139 12.7887 0.0000 0.0000 0.0000
# 2 29.5139 85.6516 16.3198 0.0000 0.0000 0.0000
# 3 12.7887 16.3198 87.3440 0.0000 0.0000 0.0000
# 4 0.0000 0.0000 0.0000 29.2296 0.0000 0.0000
# 5 0.0000 0.0000 0.0000 0.0000 57.0740 0.0000
# 6 0.0000 0.0000 0.0000 0.0000 0.0000 -57.4738
#
#
#
# Elastic Compliance Matrix: (Units=1/GPa)
#
#
# Indices 1 2 3 4 5 6 
#
# 1 0.074277 -0.024391 -0.006318 0.000000 0.000000 0.000000
# 2 -0.024391 0.020115 -0.000187 0.000000 0.000000 0.000000
# 3 -0.006318 -0.000187 0.012409 0.000000 0.000000 0.000000
# 4 0.000000 0.000000 0.000000 0.034212 0.000000 0.000000
# 5 0.000000 0.000000 0.000000 0.000000 0.017521 0.000000
# 6 0.000000 0.000000 0.000000 0.000000 0.000000 -0.017399
#
#
# Mechanical properties :
#
#
# Convention : Reuss Voigt Hill
#
# Bulk Modulus (GPa) = 22.21759 34.94256 28.58008
# Shear Modulus (GPa) = 22.94311 15.00700 18.97506
#
# Velocity S-wave (km/s) = 3.26796 2.64301 2.97196
# Velocity P-wave (km/s) = 4.95795 5.05758 5.00801
#
# Compressibility (1/GPa) = 0.04500938
#
# Stress axis : x y z
#
# Youngs Moduli (GPa) = 13.46313 49.71319 80.58618
#
# Poissons Ratio (x) = 1.21253 0.50916
# Poissons Ratio (y) = 0.32837 0.01509
# Poissons Ratio (z) = 0.08506 0.00931
#
# Static dielectric constant tensor:
#      x y z
#    x 1.750880 0.000000 0.000000 
#    y 0.000000 1.796880 0.000000 
#    z 0.000000 0.000000 2.051260 
# 
# From -- ./inp_files/2993.got.cif
#   From: 2010.05.17/outbox.cif.g08.bks.cpg/sg64_2_cif.got.tgz:2993.got - 2010.06.03 16:29:19.
