data_PCOD9477460
_publ_section_title
;
Structure prediction by ZEFSAII (Michael W. Deem and Ramdas Pophale) SiO2 
 PCOD9477460
Probable space group: C M C A
;
_chemical_formula_sum "Si O2"
_cell_formula_units_Z 96
_cell_length_a 24.160883
_cell_length_b 10.764842
_cell_length_c 18.971198
_cell_angle_alpha 90.000000
_cell_angle_beta 90.000000
_cell_angle_gamma 90.000000
_cell_volume 4934.182616
_symmetry_space_group_name_H-M "C M C A"
_symmetry_group_IT_number 64
_symmetry_cell_setting 'orthorhombic'
loop_
_space_group_symop_operation_xyz
x,y,z
-x,1/2-y,1/2+z
x,-y,-z
-x,1/2+y,1/2-z
-x,-y,-z
x,1/2+y,1/2-z
-x,y,z
x,1/2-y,1/2+z
1/2+x,1/2+y,z
1/2-x,-y,1/2+z
1/2+x,1/2-y,-z
1/2-x,y,1/2-z
1/2-x,1/2-y,-z
1/2+x,y,1/2-z
1/2-x,1/2+y,z
1/2+x,-y,1/2+z
loop_
_atom_site_type_symbol
_atom_site_label
_atom_site_fract_x
_atom_site_fract_y
_atom_site_fract_z
Si Si1 0.934881 0.797904 0.354236
Si Si2 0.562616 0.754719 0.912880
Si Si3 0.811964 0.917543 0.722147
Si Si4 0.876232 0.346355 0.285054
Si Si5 0.359723 0.007559 0.080443
Si Si6 0.062624 0.597736 0.450378
O O1 0.923927 0.827011 0.273149
O O2 0.893695 0.886354 0.396973
O O3 0.918589 0.658177 0.378005
O O4 0.000000 0.814293 0.370703
O O5 0.500000 0.769833 0.886497
O O6 0.595975 0.660718 0.862043
O O7 0.595719 0.882207 0.912678
O O8 0.559214 0.709258 0.993174
O O9 0.750000 0.911161 0.750000
O O10 0.844822 0.025924 0.765304
O O11 0.814892 0.963424 0.640634
O O12 0.838729 0.778974 0.723925
O O13 0.339681 0.000000 0.000000
O O14 0.093776 0.500000 0.500000
O O15 0.000000 0.547803 0.436180
#
# Coordination Sequence:
#
# PCOD9477460 Si02
#       6
#    16  16  16  16  16  16
#     4  10  19  32  52  81 118 148 177 216 262 325
#     4  10  19  32  52  81 118 148 177 216 262 325
#     4  10  22  41  63  78 105 142 186 244 293 319
#     4  10  22  36  58  84 106 146 188 224 274 332
#     4  10  19  34  58  85 107 139 186 224 272 332
#     4   9  18  29  45  69 106 155 181 202 251 307
#
# _framework density 19.456109000000001
#
# number of rings (size 3 to 8) (size 9 to 14) (size 15 to 20)
#    0.000    2.167    1.667    1.500    2.333    0.667 
#    0.000    1.667    3.667    4.000    0.000    0.000 
#    0.000    0.000    0.000    0.000    0.000    0.000 
#
# Total GULP energy -267316.773080 kJ/mol
# GULP energy per Si atom -5569.099439 kJ/mol
# Density = 1.941183 g / cm^3
# Si number density = 19.456109 Si / 1000 Ang^3
#
#
#
# Elastic Constant Matrix: (Units=GPa)
#
#
# Indices 1 2 3 4 5 6 
#
# 1 77.2540 10.2725 30.9403 0.0000 0.0000 0.0000
# 2 10.2725 51.6559 -5.9858 0.0000 0.0000 0.0000
# 3 30.9403 -5.9858 85.2785 0.0000 0.0000 0.0000
# 4 0.0000 0.0000 0.0000 29.5688 0.0000 0.0000
# 5 0.0000 0.0000 0.0000 0.0000 22.7818 0.0000
# 6 0.0000 0.0000 0.0000 0.0000 0.0000 15.0905
#
#
#
# Elastic Compliance Matrix: (Units=1/GPa)
#
#
# Indices 1 2 3 4 5 6 
#
# 1 0.015872 -0.003855 -0.006029 0.000000 0.000000 0.000000
# 2 -0.003855 0.020454 0.002834 0.000000 0.000000 0.000000
# 3 -0.006029 0.002834 0.014113 0.000000 0.000000 0.000000
# 4 0.000000 0.000000 0.000000 0.033819 0.000000 0.000000
# 5 0.000000 0.000000 0.000000 0.000000 0.043895 0.000000
# 6 0.000000 0.000000 0.000000 0.000000 0.000000 0.066267
#
#
# Mechanical properties :
#
#
# Convention : Reuss Voigt Hill
#
# Bulk Modulus (GPa) = 27.51877 31.62695 29.57286
# Shear Modulus (GPa) = 22.66227 25.41899 24.04063
#
# Velocity S-wave (km/s) = 3.41660 3.61845 3.51897
# Velocity P-wave (km/s) = 5.45334 5.80933 5.63415
#
# Compressibility (1/GPa) = 0.03633884
#
# Stress axis : x y z
#
# Youngs Moduli (GPa) = 63.00595 48.89040 70.85847
#
# Poissons Ratio (x) = 0.18847 0.42721
# Poissons Ratio (y) = 0.24288 -0.20083
# Poissons Ratio (z) = 0.37986 -0.13857
#
# Static dielectric constant tensor:
#      x y z
#    x 1.636660 0.000000 0.000000 
#    y 0.000000 1.744560 0.000000 
#    z 0.000000 0.000000 1.697900 
# 
# From -- ./inp_files/18340.got.cif
#   From: 2010.05.17/outbox.cif.g08.bks.cpg/sg64_10_cif.got.tgz:18340.got - 2010.06.03 16:29:19.
