data_PCOD9477215
_publ_section_title
;
Structure prediction by ZEFSAII (Michael W. Deem and Ramdas Pophale) SiO2 
 PCOD9477215
Probable space group: C M C A
;
_chemical_formula_sum "Si O2"
_cell_formula_units_Z 96
_cell_length_a 8.187971
_cell_length_b 28.242972
_cell_length_c 24.760112
_cell_angle_alpha 90.000000
_cell_angle_beta 90.000000
_cell_angle_gamma 90.000000
_cell_volume 5725.841160
_symmetry_space_group_name_H-M "C M C A"
_symmetry_group_IT_number 64
_symmetry_cell_setting 'orthorhombic'
loop_
_space_group_symop_operation_xyz
x,y,z
-x,1/2-y,1/2+z
x,-y,-z
-x,1/2+y,1/2-z
-x,-y,-z
x,1/2+y,1/2-z
-x,y,z
x,1/2-y,1/2+z
1/2+x,1/2+y,z
1/2-x,-y,1/2+z
1/2+x,1/2-y,-z
1/2-x,y,1/2-z
1/2-x,1/2-y,-z
1/2+x,y,1/2-z
1/2-x,1/2+y,z
1/2+x,-y,1/2+z
loop_
_atom_site_type_symbol
_atom_site_label
_atom_site_fract_x
_atom_site_fract_y
_atom_site_fract_z
Si Si1 0.806590 0.570272 0.470596
Si Si2 0.302478 0.323245 0.976829
Si Si3 0.303254 0.571074 0.690803
Si Si4 0.193645 0.524061 0.919440
Si Si5 0.802730 0.770071 0.416940
Si Si6 0.697008 0.819719 0.190907
O O1 0.745067 0.623845 0.463974
O O2 0.775855 0.553530 0.532170
O O3 0.725595 0.530818 0.432723
O O4 0.000000 0.569130 0.460470
O O5 0.500000 0.323976 0.976150
O O6 0.246172 0.281922 0.936017
O O7 0.248369 0.306458 0.036164
O O8 0.500000 0.571381 0.690185
O O9 0.250000 0.554106 0.750000
O O10 0.247745 0.540698 0.639371
O O11 0.246487 0.625682 0.684631
O O12 0.000000 0.533025 0.923035
O O13 0.743808 0.788107 0.358955
O O14 0.000000 0.769022 0.415664
O O15 0.500000 0.820333 0.189295
O O16 0.750000 0.802966 0.250000
#
# Coordination Sequence:
#
# PCOD9477215 Si02
#       6
#    16  16  16  16  16  16
#     4  10  19  30  45  67  93 120 149 181 222 265
#     4   9  18  30  45  67  92 118 148 181 218 262
#     4   9  18  30  45  66  89 114 144 179 220 264
#     4  10  19  31  47  67  90 117 150 184 221 265
#     4   9  17  30  47  66  90 119 148 180 219 260
#     4   9  17  29  45  65  89 115 143 177 218 261
#
# _framework density 16.766096000000001
#
# number of rings (size 3 to 8) (size 9 to 14) (size 15 to 20)
#    0.000    2.667    0.000    3.000    0.000    4.667 
#    0.000    3.333    0.000    1.000    0.000    4.667 
#    0.000    0.000    0.000    0.000    0.000    0.000 
#
# Total GULP energy -267586.440493 kJ/mol
# GULP energy per Si atom -5574.717510 kJ/mol
# Density = 1.672794 g / cm^3
# Si number density = 16.766096 Si / 1000 Ang^3
#
#
#
# Elastic Constant Matrix: (Units=GPa)
#
#
# Indices 1 2 3 4 5 6 
#
# 1 6.5145 -2.3790 1.5918 0.0000 0.0000 0.0000
# 2 -2.3790 95.3598 65.7773 0.0000 0.0000 0.0000
# 3 1.5918 65.7773 152.5316 0.0000 0.0000 0.0000
# 4 0.0000 0.0000 0.0000 21.3744 0.0000 0.0000
# 5 0.0000 0.0000 0.0000 0.0000 22.7479 0.0000
# 6 0.0000 0.0000 0.0000 0.0000 0.0000 11.7766
#
#
#
# Elastic Compliance Matrix: (Units=1/GPa)
#
#
# Indices 1 2 3 4 5 6 
#
# 1 0.157292 0.007197 -0.004745 0.000000 0.000000 0.000000
# 2 0.007197 0.015256 -0.006654 0.000000 0.000000 0.000000
# 3 -0.004745 -0.006654 0.009475 0.000000 0.000000 0.000000
# 4 0.000000 0.000000 0.000000 0.046785 0.000000 0.000000
# 5 0.000000 0.000000 0.000000 0.000000 0.043960 0.000000
# 6 0.000000 0.000000 0.000000 0.000000 0.000000 0.084914
#
#
# Mechanical properties :
#
#
# Convention : Reuss Voigt Hill
#
# Bulk Modulus (GPa) = 5.75974 42.70957 24.23465
# Shear Modulus (GPa) = 11.79359 23.80751 17.80055
#
# Velocity S-wave (km/s) = 2.65508 3.77235 3.26191
# Velocity P-wave (km/s) = 3.58359 6.67107 5.35469
#
# Compressibility (1/GPa) = 0.17361904
#
# Stress axis : x y z
#
# Youngs Moduli (GPa) = 6.35759 65.54803 105.54069
#
# Poissons Ratio (x) = -0.47175 0.50080
# Poissons Ratio (y) = -0.04576 0.70227
# Poissons Ratio (z) = 0.03017 0.43616
#
# Static dielectric constant tensor:
#      x y z
#    x 1.585980 0.000000 0.000000 
#    y 0.000000 1.575150 0.000000 
#    z 0.000000 0.000000 1.551630 
# 
# From -- ./inp_files/43202.got.cif
#   From: 2010.05.17/outbox.cif.g08.bks.cpg/sg64_22_cif.got.tgz:43202.got - 2010.06.03 16:29:19.
