data_PCOD9477300
_publ_section_title
;
Structure prediction by ZEFSAII (Michael W. Deem and Ramdas Pophale) SiO2 
 PCOD9477300
Probable space group: C M C A
;
_chemical_formula_sum "Si O2"
_cell_formula_units_Z 96
_cell_length_a 16.285042
_cell_length_b 12.566677
_cell_length_c 17.758126
_cell_angle_alpha 90.000000
_cell_angle_beta 90.000000
_cell_angle_gamma 90.000000
_cell_volume 3634.180290
_symmetry_space_group_name_H-M "C M C A"
_symmetry_group_IT_number 64
_symmetry_cell_setting 'orthorhombic'
loop_
_space_group_symop_operation_xyz
x,y,z
-x,1/2-y,1/2+z
x,-y,-z
-x,1/2+y,1/2-z
-x,-y,-z
x,1/2+y,1/2-z
-x,y,z
x,1/2-y,1/2+z
1/2+x,1/2+y,z
1/2-x,-y,1/2+z
1/2+x,1/2-y,-z
1/2-x,y,1/2-z
1/2-x,1/2-y,-z
1/2+x,y,1/2-z
1/2-x,1/2+y,z
1/2+x,-y,1/2+z
loop_
_atom_site_type_symbol
_atom_site_label
_atom_site_fract_x
_atom_site_fract_y
_atom_site_fract_z
Si Si1 0.212974 0.922125 0.561543
Si Si2 0.343798 0.025156 0.277310
Si Si3 0.314628 0.225000 0.191008
Si Si4 0.908528 0.584898 0.855181
Si Si5 0.095562 0.758660 0.473176
Si Si6 0.597381 0.097378 0.592131
O O1 0.238740 0.841750 0.628821
O O2 0.156742 0.840857 0.513015
O O3 0.254532 0.000000 0.500000
O O4 0.154822 0.005888 0.605238
O O5 0.250000 0.010042 0.250000
O O6 0.396716 0.937093 0.232323
O O7 0.357918 0.999750 0.364918
O O8 0.365396 0.139082 0.240414
O O9 0.250000 0.274429 0.250000
O O10 0.369842 0.303415 0.142493
O O11 0.000000 0.551553 0.877363
O O12 0.898299 0.704455 0.886457
O O13 0.113156 0.642292 0.507297
O O14 0.000000 0.777818 0.494950
O O15 0.500000 0.078412 0.597281
#
# Coordination Sequence:
#
# PCOD9477300 Si02
#       6
#    16  16  16  16  16  16
#     4   8  13  22  40  66  92 115 142 184 235 279
#     4  10  20  32  46  67  96 127 155 185 222 273
#     4   9  18  31  47  67  95 125 151 183 227 276
#     4   9  15  25  43  65  89 117 150 187 229 274
#     4   8  14  24  40  65  91 113 142 187 237 274
#     4  10  19  31  49  71  94 120 153 193 232 271
#
# _framework density 26.415861
#
# number of rings (size 3 to 8) (size 9 to 14) (size 15 to 20)
#    0.000    3.000    0.000    1.500    0.000    6.667 
#    0.000    0.833    0.000    4.000    0.000    0.000 
#    0.000    6.000    0.000    0.000    0.000    0.000 
#
# Total GULP energy -267777.141640 kJ/mol
# GULP energy per Si atom -5578.690451 kJ/mol
# Density = 2.635574 g / cm^3
# Si number density = 26.415861 Si / 1000 Ang^3
#
#
#
# Elastic Constant Matrix: (Units=GPa)
#
#
# Indices 1 2 3 4 5 6 
#
# 1 57.9016 28.9641 -6.5233 0.0000 0.0000 0.0000
# 2 28.9641 58.4104 14.3687 0.0000 0.0000 0.0000
# 3 -6.5233 14.3687 112.2187 0.0000 0.0000 0.0000
# 4 0.0000 0.0000 0.0000 55.9732 0.0000 0.0000
# 5 0.0000 0.0000 0.0000 0.0000 10.7497 0.0000
# 6 0.0000 0.0000 0.0000 0.0000 0.0000 -34.8868
#
#
#
# Elastic Compliance Matrix: (Units=1/GPa)
#
#
# Indices 1 2 3 4 5 6 
#
# 1 0.023909 -0.012594 0.003002 0.000000 0.000000 0.000000
# 2 -0.012594 0.024311 -0.003845 0.000000 0.000000 0.000000
# 3 0.003002 -0.003845 0.009578 0.000000 0.000000 0.000000
# 4 0.000000 0.000000 0.000000 0.017866 0.000000 0.000000
# 5 0.000000 0.000000 0.000000 0.000000 0.093026 0.000000
# 6 0.000000 0.000000 0.000000 0.000000 0.000000 -0.028664
#
#
# Mechanical properties :
#
#
# Convention : Reuss Voigt Hill
#
# Bulk Modulus (GPa) = 32.33686 33.57220 32.95453
# Shear Modulus (GPa) = 28.21539 19.14862 23.68201
#
# Velocity S-wave (km/s) = 3.27176 2.69530 2.99742
# Velocity P-wave (km/s) = 5.15176 4.73528 4.94790
#
# Compressibility (1/GPa) = 0.03092446
#
# Stress axis : x y z
#
# Youngs Moduli (GPa) = 41.82510 41.13307 104.40569
#
# Poissons Ratio (x) = 0.51805 -0.31347
# Poissons Ratio (y) = 0.52676 0.40144
# Poissons Ratio (z) = -0.12558 0.15816
#
# Static dielectric constant tensor:
#      x y z
#    x 2.121540 0.000000 0.000000 
#    y 0.000000 2.105470 0.000000 
#    z 0.000000 0.000000 2.165590 
# 
# From -- ./inp_files/40970.got.cif
#   From: 2010.05.17/outbox.cif.g08.bks.cpg/sg64_21_cif.got.tgz:40970.got - 2010.06.03 16:29:19.
