data_PCOD9477973
_publ_section_title
;
Structure prediction by ZEFSAII (Michael W. Deem and Ramdas Pophale) SiO2 
 PCOD9477973
Probable space group: C M C A
;
_chemical_formula_sum "Si O2"
_cell_formula_units_Z 88
_cell_length_a 15.675473
_cell_length_b 28.141973
_cell_length_c 10.456339
_cell_angle_alpha 90.000000
_cell_angle_beta 90.000000
_cell_angle_gamma 90.000000
_cell_volume 4612.696190
_symmetry_space_group_name_H-M "C M C A"
_symmetry_group_IT_number 64
_symmetry_cell_setting 'orthorhombic'
loop_
_space_group_symop_operation_xyz
x,y,z
-x,1/2-y,1/2+z
x,-y,-z
-x,1/2+y,1/2-z
-x,-y,-z
x,1/2+y,1/2-z
-x,y,z
x,1/2-y,1/2+z
1/2+x,1/2+y,z
1/2-x,-y,1/2+z
1/2+x,1/2-y,-z
1/2-x,y,1/2-z
1/2-x,1/2-y,-z
1/2+x,y,1/2-z
1/2-x,1/2+y,z
1/2+x,-y,1/2+z
loop_
_atom_site_type_symbol
_atom_site_label
_atom_site_fract_x
_atom_site_fract_y
_atom_site_fract_z
Si Si1 0.900914 0.950938 0.423697
Si Si2 0.332182 0.159178 0.616149
Si Si3 0.750000 0.428027 0.250000
Si Si4 0.098309 0.860411 0.591057
Si Si5 0.601393 0.185070 0.347038
Si Si6 0.349684 0.293583 0.371534
O O1 0.828664 0.954868 0.315221
O O2 0.871525 0.906809 0.513933
O O3 0.000000 0.941225 0.381216
O O4 0.902728 0.000000 0.500000
O O5 0.295244 0.107689 0.649559
O O6 0.380819 0.161378 0.483714
O O7 0.379292 0.178514 0.743267
O O8 0.249376 0.193316 0.607270
O O9 0.137133 0.844676 0.726534
O O10 0.104667 0.815786 0.494763
O O11 0.000000 0.871709 0.617629
O O12 0.500000 0.190412 0.329351
O O13 0.638379 0.238113 0.352296
#
# Coordination Sequence:
#
# PCOD9477973 Si02
#       6
#    16  16   8  16  16  16
#     4  10  21  42  70  93 120 160 207 256 310 378
#     4  10  21  36  55  80 115 154 204 250 300 362
#     4  10  20  44  62  94 118 156 206 248 316 372
#     4  10  20  36  57  84 117 153 198 246 295 362
#     4  11  23  34  51  83 120 156 202 251 305 355
#     4  10  19  36  54  77 111 157 200 245 293 362
#
# _framework density 19.077779
#
# number of rings (size 3 to 8) (size 9 to 14) (size 15 to 20)
#    0.000    2.000    3.636    2.182    0.000    5.818 
#    3.273    0.000    0.000    0.545    0.000    0.000 
#    0.000    0.000    0.000    0.000    0.000    0.000 
#
# Total GULP energy -245321.178467 kJ/mol
# GULP energy per Si atom -5575.481329 kJ/mol
# Density = 1.903436 g / cm^3
# Si number density = 19.077779 Si / 1000 Ang^3
#
#
#
# Elastic Constant Matrix: (Units=GPa)
#
#
# Indices 1 2 3 4 5 6 
#
# 1 60.3985 22.8597 23.4982 0.0000 0.0000 0.0000
# 2 22.8597 52.0902 17.1692 0.0000 0.0000 0.0000
# 3 23.4982 17.1692 112.5377 0.0000 0.0000 0.0000
# 4 0.0000 0.0000 0.0000 -1.6578 0.0000 0.0000
# 5 0.0000 0.0000 0.0000 0.0000 28.9783 0.0000
# 6 0.0000 0.0000 0.0000 0.0000 0.0000 1.5674
#
#
#
# Elastic Compliance Matrix: (Units=1/GPa)
#
#
# Indices 1 2 3 4 5 6 
#
# 1 0.020841 -0.008120 -0.003113 0.000000 0.000000 0.000000
# 2 -0.008120 0.023378 -0.001871 0.000000 0.000000 0.000000
# 3 -0.003113 -0.001871 0.009821 0.000000 0.000000 0.000000
# 4 0.000000 0.000000 0.000000 -0.603220 0.000000 0.000000
# 5 0.000000 0.000000 0.000000 0.000000 0.034509 0.000000
# 6 0.000000 0.000000 0.000000 0.000000 0.000000 0.638005
#
#
# Mechanical properties :
#
#
# Convention : Reuss Voigt Hill
#
# Bulk Modulus (GPa) = 35.92978 39.12007 37.52493
# Shear Modulus (GPa) = 31.48226 16.54419 24.01323
#
# Velocity S-wave (km/s) = 4.06668 2.94802 3.55167
# Velocity P-wave (km/s) = 6.39724 5.66902 6.04411
#
# Compressibility (1/GPa) = 0.02783206
#
# Stress axis : x y z
#
# Youngs Moduli (GPa) = 47.98220 42.77584 101.81910
#
# Poissons Ratio (x) = 0.34734 0.31695
# Poissons Ratio (y) = 0.38962 0.19051
# Poissons Ratio (z) = 0.14936 0.08004
#
# Static dielectric constant tensor:
#      x y z
#    x 1.701370 0.000000 0.000000 
#    y 0.000000 1.642020 0.000000 
#    z 0.000000 0.000000 1.714400 
# 
# From -- ./inp_files/7322.got.cif
#   From: 2010.05.17/outbox.cif.g08.bks.cpg/sg64_4_cif.got.tgz:7322.got - 2010.06.03 16:29:19.
