data_PCOD9477190
_publ_section_title
;
Structure prediction by ZEFSAII (Michael W. Deem and Ramdas Pophale) SiO2 
 PCOD9477190
Probable space group: C M C A
;
_chemical_formula_sum "Si O2"
_cell_formula_units_Z 116
_cell_length_a 23.536262
_cell_length_b 9.157752
_cell_length_c 30.074848
_cell_angle_alpha 90.000000
_cell_angle_beta 90.000000
_cell_angle_gamma 90.000000
_cell_volume 6482.310194
_symmetry_space_group_name_H-M "C M C A"
_symmetry_group_IT_number 64
_symmetry_cell_setting 'orthorhombic'
loop_
_space_group_symop_operation_xyz
x,y,z
-x,1/2-y,1/2+z
x,-y,-z
-x,1/2+y,1/2-z
-x,-y,-z
x,1/2+y,1/2-z
-x,y,z
x,1/2-y,1/2+z
1/2+x,1/2+y,z
1/2-x,-y,1/2+z
1/2+x,1/2-y,-z
1/2-x,y,1/2-z
1/2-x,1/2-y,-z
1/2+x,y,1/2-z
1/2-x,1/2+y,z
1/2+x,-y,1/2+z
loop_
_atom_site_type_symbol
_atom_site_label
_atom_site_fract_x
_atom_site_fract_y
_atom_site_fract_z
Si Si1 0.438271 0.082260 0.588506
Si Si2 0.680129 0.785009 0.186166
Si Si3 0.749521 0.528774 0.361794
Si Si4 0.562774 0.017114 0.745133
Si Si5 0.328365 0.772254 0.380738
Si Si6 0.500000 0.500000 0.000000
Si Si7 0.436212 0.178469 0.343926
Si Si8 0.135092 0.780838 0.719971
O O1 0.500000 0.134608 0.607052
O O2 0.388294 0.196688 0.596277
O O3 0.451486 0.042827 0.537710
O O4 0.425007 0.933813 0.615776
O O5 0.714293 0.928730 0.172588
O O6 0.711625 0.645875 0.163945
O O7 0.616704 0.784220 0.164719
O O8 0.676191 0.753891 0.238728
O O9 0.706143 0.625072 0.391102
O O10 0.788781 0.413745 0.387649
O O11 0.500000 0.017525 0.764923
O O12 0.581312 0.176620 0.729947
O O13 0.562732 0.920326 0.700498
O O14 0.610589 0.943498 0.775689
O O15 0.339951 0.759439 0.327522
O O16 0.500000 0.240867 0.349832
#
# Coordination Sequence:
#
# PCOD9477190 Si02
#       8
#    16  16  16  16  16   4  16  16
#     4   9  17  34  58  87 107 129 175 220 282 328
#     4  10  20  34  45  75 103 148 201 220 257 304
#     4  10  22  33  51  71 108 155 190 229 260 295
#     4  10  19  29  43  68 100 143 185 221 272 316
#     4  11  20  35  51  77 108 145 183 228 269 320
#     4   8  20  32  64 100  98 132 164 228 276 352
#     4   9  16  31  54  72 103 138 172 223 270 322
#     4  11  20  30  46  66 102 147 191 234 263 292
#
# _framework density 17.894855
#
# number of rings (size 3 to 8) (size 9 to 14) (size 15 to 20)
#    0.414    1.655    2.759    2.069    0.000    4.414 
#    0.000    0.690    0.000    0.828    0.000    0.966 
#    0.000    0.000    0.000    0.000    0.000    0.000 
#
# Total GULP energy -322885.112013 kJ/mol
# GULP energy per Si atom -5566.984690 kJ/mol
# Density = 1.785413 g / cm^3
# Si number density = 17.894855 Si / 1000 Ang^3
#
#
#
# Elastic Constant Matrix: (Units=GPa)
#
#
# Indices 1 2 3 4 5 6 
#
# 1 88.4532 27.4285 9.3307 0.0000 0.0000 0.0000
# 2 27.4285 73.0604 3.8734 0.0000 0.0000 0.0000
# 3 9.3307 3.8734 18.6769 0.0000 0.0000 0.0000
# 4 0.0000 0.0000 0.0000 2.7899 0.0000 0.0000
# 5 0.0000 0.0000 0.0000 0.0000 19.0340 0.0000
# 6 0.0000 0.0000 0.0000 0.0000 0.0000 23.1991
#
#
#
# Elastic Compliance Matrix: (Units=1/GPa)
#
#
# Indices 1 2 3 4 5 6 
#
# 1 0.013369 -0.004717 -0.005701 0.000000 0.000000 0.000000
# 2 -0.004717 0.015504 -0.000859 0.000000 0.000000 0.000000
# 3 -0.005701 -0.000859 0.056568 0.000000 0.000000 0.000000
# 4 0.000000 0.000000 0.000000 0.358442 0.000000 0.000000
# 5 0.000000 0.000000 0.000000 0.000000 0.052538 0.000000
# 6 0.000000 0.000000 0.000000 0.000000 0.000000 0.043105
#
#
# Mechanical properties :
#
#
# Convention : Reuss Voigt Hill
#
# Bulk Modulus (GPa) = 15.90127 29.05065 22.47596
# Shear Modulus (GPa) = 8.57571 18.30844 13.44208
#
# Velocity S-wave (km/s) = 2.19150 3.20208 2.74372
# Velocity P-wave (km/s) = 3.91265 5.47178 4.75653
#
# Compressibility (1/GPa) = 0.06288807
#
# Stress axis : x y z
#
# Youngs Moduli (GPa) = 74.79728 64.50076 17.67774
#
# Poissons Ratio (x) = 0.30425 0.10078
# Poissons Ratio (y) = 0.35282 0.01518
# Poissons Ratio (z) = 0.42641 0.05539
#
# Static dielectric constant tensor:
#      x y z
#    x 1.706560 0.000000 0.000000 
#    y 0.000000 1.637880 0.000000 
#    z 0.000000 0.000000 1.573780 
# 
# From -- ./inp_files/53962.got.cif
#   From: 2010.05.17/outbox.cif.g08.bks.cpg/sg64_27_cif.got.tgz:53962.got - 2010.06.03 16:29:19.
