data_PCOD9477209
_publ_section_title
;
Structure prediction by ZEFSAII (Michael W. Deem and Ramdas Pophale) SiO2 
 PCOD9477209
Probable space group: C M C A
;
_chemical_formula_sum "Si O2"
_cell_formula_units_Z 96
_cell_length_a 9.001008
_cell_length_b 23.250099
_cell_length_c 27.050197
_cell_angle_alpha 90.000000
_cell_angle_beta 90.000000
_cell_angle_gamma 90.000000
_cell_volume 5660.911775
_symmetry_space_group_name_H-M "C M C A"
_symmetry_group_IT_number 64
_symmetry_cell_setting 'orthorhombic'
loop_
_space_group_symop_operation_xyz
x,y,z
-x,1/2-y,1/2+z
x,-y,-z
-x,1/2+y,1/2-z
-x,-y,-z
x,1/2+y,1/2-z
-x,y,z
x,1/2-y,1/2+z
1/2+x,1/2+y,z
1/2-x,-y,1/2+z
1/2+x,1/2-y,-z
1/2-x,y,1/2-z
1/2-x,1/2-y,-z
1/2+x,y,1/2-z
1/2-x,1/2+y,z
1/2+x,-y,1/2+z
loop_
_atom_site_type_symbol
_atom_site_label
_atom_site_fract_x
_atom_site_fract_y
_atom_site_fract_z
Si Si1 0.326281 0.693303 0.697261
Si Si2 0.179565 0.009724 0.942499
Si Si3 0.324837 0.669221 0.197055
Si Si4 0.833391 0.015218 0.796034
Si Si5 0.323053 0.425755 0.637691
Si Si6 0.167210 0.612746 0.621079
O O1 0.500000 0.679024 0.701349
O O2 0.250000 0.678616 0.750000
O O3 0.309454 0.762047 0.691051
O O4 0.259389 0.661403 0.649320
O O5 0.226388 0.074158 0.924672
O O6 0.000000 0.006692 0.934814
O O7 0.254942 0.960186 0.909106
O O8 0.210582 0.000000 0.000000
O O9 0.500000 0.655200 0.198598
O O10 0.250000 0.654459 0.250000
O O11 0.247259 0.635517 0.152019
O O12 0.750000 0.041652 0.750000
O O13 0.843507 0.062784 0.837913
O O14 0.000000 0.995221 0.784540
O O15 0.731043 0.964490 0.816201
O O16 0.500000 0.423015 0.634006
O O17 0.000000 0.633654 0.609685
#
# Coordination Sequence:
#
# PCOD9477209 Si02
#       6
#    16  16  16  16  16  16
#     4  10  20  32  49  72 101 137 171 204 240 284
#     4   9  19  37  58  77  98 127 162 203 255 307
#     4  10  20  34  50  71 101 137 173 205 241 287
#     4  10  19  30  44  66  97 131 163 197 241 292
#     4  11  21  32  49  73  99 128 162 203 248 293
#     4   9  18  31  49  72  97 126 160 199 243 293
#
# _framework density 16.958397999999999
#
# number of rings (size 3 to 8) (size 9 to 14) (size 15 to 20)
#    0.000    2.167    0.000    5.000    0.000    7.000 
#    0.000    0.000    0.000    1.000    0.000    0.000 
#    0.000    0.000    0.000    0.000    0.000    0.000 
#
# Total GULP energy -267460.106389 kJ/mol
# GULP energy per Si atom -5572.085550 kJ/mol
# Density = 1.691980 g / cm^3
# Si number density = 16.958398 Si / 1000 Ang^3
#
#
#
# Elastic Constant Matrix: (Units=GPa)
#
#
# Indices 1 2 3 4 5 6 
#
# 1 109.4883 51.3002 52.4223 0.0000 0.0000 0.0000
# 2 51.3002 69.6699 35.8433 0.0000 0.0000 0.0000
# 3 52.4223 35.8433 82.2173 0.0000 0.0000 0.0000
# 4 0.0000 0.0000 0.0000 25.3408 0.0000 0.0000
# 5 0.0000 0.0000 0.0000 0.0000 20.5257 0.0000
# 6 0.0000 0.0000 0.0000 0.0000 0.0000 11.9532
#
#
#
# Elastic Compliance Matrix: (Units=1/GPa)
#
#
# Indices 1 2 3 4 5 6 
#
# 1 0.016369 -0.008616 -0.006681 0.000000 0.000000 0.000000
# 2 -0.008616 0.023039 -0.004550 0.000000 0.000000 0.000000
# 3 -0.006681 -0.004550 0.018406 0.000000 0.000000 0.000000
# 4 0.000000 0.000000 0.000000 0.039462 0.000000 0.000000
# 5 0.000000 0.000000 0.000000 0.000000 0.048719 0.000000
# 6 0.000000 0.000000 0.000000 0.000000 0.000000 0.083659
#
#
# Mechanical properties :
#
#
# Convention : Reuss Voigt Hill
#
# Bulk Modulus (GPa) = 55.18794 60.05636 57.62215
# Shear Modulus (GPa) = 18.15613 19.68459 18.92036
#
# Velocity S-wave (km/s) = 3.27559 3.41069 3.34382
# Velocity P-wave (km/s) = 6.84980 7.14151 6.99718
#
# Compressibility (1/GPa) = 0.01811990
#
# Stress axis : x y z
#
# Youngs Moduli (GPa) = 61.09057 43.40532 54.32897
#
# Poissons Ratio (x) = 0.37398 0.36296
# Poissons Ratio (y) = 0.52636 0.24721
# Poissons Ratio (z) = 0.40814 0.19751
#
# Static dielectric constant tensor:
#      x y z
#    x 1.588710 0.000000 0.000000 
#    y 0.000000 1.602640 0.000000 
#    z 0.000000 0.000000 1.628900 
# 
# From -- ./inp_files/48334.got.cif
#   From: 2010.05.17/outbox.cif.g08.bks.cpg/sg64_25_cif.got.tgz:48334.got - 2010.06.03 16:29:19.
