data_PCOD9477902
_publ_section_title
;
Structure prediction by ZEFSAII (Michael W. Deem and Ramdas Pophale) SiO2 
 PCOD9477902
Probable space group: C M C A
;
_chemical_formula_sum "Si O2"
_cell_formula_units_Z 72
_cell_length_a 24.737235
_cell_length_b 5.111674
_cell_length_c 23.477189
_cell_angle_alpha 90.000000
_cell_angle_beta 90.000000
_cell_angle_gamma 90.000000
_cell_volume 2968.659582
_symmetry_space_group_name_H-M "C M C A"
_symmetry_group_IT_number 64
_symmetry_cell_setting 'orthorhombic'
loop_
_space_group_symop_operation_xyz
x,y,z
-x,1/2-y,1/2+z
x,-y,-z
-x,1/2+y,1/2-z
-x,-y,-z
x,1/2+y,1/2-z
-x,y,z
x,1/2-y,1/2+z
1/2+x,1/2+y,z
1/2-x,-y,1/2+z
1/2+x,1/2-y,-z
1/2-x,y,1/2-z
1/2-x,1/2-y,-z
1/2+x,y,1/2-z
1/2-x,1/2+y,z
1/2+x,-y,1/2+z
loop_
_atom_site_type_symbol
_atom_site_label
_atom_site_fract_x
_atom_site_fract_y
_atom_site_fract_z
Si Si1 0.000000 0.913276 0.405568
Si Si2 0.710286 0.500000 0.500000
Si Si3 0.227596 0.635291 0.687974
Si Si4 0.115704 0.540123 0.091588
Si Si5 0.000000 0.912515 0.172266
Si Si6 0.612259 0.458537 0.832719
O O1 0.057075 0.969229 0.435236
O O2 0.000000 0.619352 0.380888
O O3 0.000000 0.119151 0.352011
O O4 0.750000 0.750000 0.500000
O O5 0.667443 0.499845 0.447703
O O6 0.250000 0.702975 0.750000
O O7 0.261703 0.409535 0.657445
O O8 0.167004 0.543336 0.696958
O O9 0.112053 0.837730 0.113913
O O10 0.117133 0.335877 0.144657
O O11 0.943010 0.982327 0.200945
#
# Coordination Sequence:
#
# PCOD9477902 Si02
#       6
#     8   8  16  16   8  16
#     4   8  16  33  54  78 101 130 181 226 267 312
#     4  12  26  39  50  75 116 148 182 224 266 316
#     4  10  21  35  53  78 108 137 173 221 262 311
#     4  10  21  36  56  79 106 142 181 226 269 317
#     4   8  16  30  52  81 105 128 171 226 265 317
#     4  10  19  35  58  80 104 139 181 220 271 320
#
# _framework density 24.25337
#
# number of rings (size 3 to 8) (size 9 to 14) (size 15 to 20)
#    0.000    2.222    0.000    2.667    0.000    5.778 
#    0.000    0.000    0.000   14.667    0.000    0.000 
#    0.000    0.000    0.000    0.000    0.000    0.000 
#
# Total GULP energy -200999.240683 kJ/mol
# GULP energy per Si atom -5583.312241 kJ/mol
# Density = 2.419817 g / cm^3
# Si number density = 24.253370 Si / 1000 Ang^3
#
#
#
# Elastic Constant Matrix: (Units=GPa)
#
#
# Indices 1 2 3 4 5 6 
#
# 1 238.0480 17.6280 32.2361 0.0000 0.0000 0.0000
# 2 17.6280 142.8283 2.0528 0.0000 0.0000 0.0000
# 3 32.2361 2.0528 32.3821 0.0000 0.0000 0.0000
# 4 0.0000 0.0000 0.0000 9.3093 0.0000 0.0000
# 5 0.0000 0.0000 0.0000 0.0000********** 0.0000
# 6 0.0000 0.0000 0.0000 0.0000 0.0000 46.3181
#
#
#
# Elastic Compliance Matrix: (Units=1/GPa)
#
#
# Indices 1 2 3 4 5 6 
#
# 1 0.004896 -0.000535 -0.004840 0.000000 0.000000 0.000000
# 2 -0.000535 0.007066 0.000084 0.000000 0.000000 0.000000
# 3 -0.004840 0.000084 0.035694 0.000000 0.000000 0.000000
# 4 0.000000 0.000000 0.000000 0.107420 0.000000 0.000000
# 5 0.000000 0.000000 0.000000 0.000000 -0.000049 0.000000
# 6 0.000000 0.000000 0.000000 0.000000 0.000000 0.021590
#
#
# Mechanical properties :
#
#
# Convention : Reuss Voigt Hill
#
# Bulk Modulus (GPa) = 26.97198 57.45471 42.21335
# Shear Modulus (GPa) = 25.05568 -4047.17062 -2011.05747
#
# Velocity S-wave (km/s) = 3.21764 -40.89410 -28.82684
# Velocity P-wave (km/s) = 4.99493 46.96838 33.02332
#
# Compressibility (1/GPa) = 0.03707551
#
# Stress axis : x y z
#
# Youngs Moduli (GPa) = 204.25526 141.51895 28.01595
#
# Poissons Ratio (x) = 0.07567 0.13559
# Poissons Ratio (y) = 0.10921 -0.00236
# Poissons Ratio (z) = 0.98857 -0.01193
#
# Static dielectric constant tensor:
#      x y z
#    x 2.038660 0.000000 0.000000 
#    y 0.000000 2.034930 0.000000 
#    z 0.000000 0.000000 2.322940 
# 
# From -- ./inp_files/50942.got.cif
#   From: 2010.05.17/outbox.cif.g08.bks.cpg/sg64_26_cif.got.tgz:50942.got - 2010.06.03 16:29:19.
