data_PCOD9477341
_publ_section_title
;
Structure prediction by ZEFSAII (Michael W. Deem and Ramdas Pophale) SiO2 
 PCOD9477341
Probable space group: C M C A
;
_chemical_formula_sum "Si O2"
_cell_formula_units_Z 80
_cell_length_a 8.908026
_cell_length_b 18.361976
_cell_length_c 25.713517
_cell_angle_alpha 90.000000
_cell_angle_beta 90.000000
_cell_angle_gamma 90.000000
_cell_volume 4205.933224
_symmetry_space_group_name_H-M "C M C A"
_symmetry_group_IT_number 64
_symmetry_cell_setting 'orthorhombic'
loop_
_space_group_symop_operation_xyz
x,y,z
-x,1/2-y,1/2+z
x,-y,-z
-x,1/2+y,1/2-z
-x,-y,-z
x,1/2+y,1/2-z
-x,y,z
x,1/2-y,1/2+z
1/2+x,1/2+y,z
1/2-x,-y,1/2+z
1/2+x,1/2-y,-z
1/2-x,y,1/2-z
1/2-x,1/2-y,-z
1/2+x,y,1/2-z
1/2-x,1/2+y,z
1/2+x,-y,1/2+z
loop_
_atom_site_type_symbol
_atom_site_label
_atom_site_fract_x
_atom_site_fract_y
_atom_site_fract_z
Si Si1 0.679843 0.482339 0.691025
Si Si2 0.320264 0.274591 0.445784
Si Si3 0.665775 0.714337 0.793141
Si Si4 0.168913 0.101251 0.884504
Si Si5 0.176700 0.164420 0.149494
O O1 0.500000 0.488838 0.695856
O O2 0.750000 0.486317 0.750000
O O3 0.743309 0.541005 0.649169
O O4 0.727344 0.406150 0.663884
O O5 0.500000 0.279974 0.448429
O O6 0.250000 0.250000 0.500000
O O7 0.255569 0.354256 0.429503
O O8 0.287618 0.210370 0.403117
O O9 0.500000 0.739010 0.778627
O O10 0.750000 0.667194 0.750000
O O11 0.651271 0.665900 0.843309
O O12 0.779805 0.778606 0.805688
O O13 0.000000 0.076339 0.899804
O O14 0.000000 0.146854 0.149425
#
# Coordination Sequence:
#
# PCOD9477341 Si02
#       5
#    16  16  16  16  16
#     4  12  24  38  57  83 119 158 193 232 281 339
#     4  10  21  39  64  89 114 147 189 240 293 342
#     4  10  19  31  50  76 106 142 183 228 276 329
#     4  10  21  37  57  82 113 148 189 235 283 339
#     4  10  21  37  56  80 111 147 188 232 280 336
#
# _framework density 19.020748000000001
#
# number of rings (size 3 to 8) (size 9 to 14) (size 15 to 20)
#    0.000    1.600    0.000    5.400    0.000    6.400 
#    0.000    1.000    0.000    6.000    0.000    0.000 
#    0.000    0.000    0.000    0.000    0.000    0.000 
#
# Total GULP energy -222732.160962 kJ/mol
# GULP energy per Si atom -5568.304024 kJ/mol
# Density = 1.897746 g / cm^3
# Si number density = 19.020748 Si / 1000 Ang^3
#
#
#
# Elastic Constant Matrix: (Units=GPa)
#
#
# Indices 1 2 3 4 5 6 
#
# 1 121.0547 41.6661 46.3017 0.0000 0.0000 0.0000
# 2 41.6661 81.7649 13.6452 0.0000 0.0000 0.0000
# 3 46.3017 13.6452 91.8600 0.0000 0.0000 0.0000
# 4 0.0000 0.0000 0.0000 16.4592 0.0000 0.0000
# 5 0.0000 0.0000 0.0000 0.0000 30.4655 0.0000
# 6 0.0000 0.0000 0.0000 0.0000 0.0000 28.3711
#
#
#
# Elastic Compliance Matrix: (Units=1/GPa)
#
#
# Indices 1 2 3 4 5 6 
#
# 1 0.012115 -0.005286 -0.005322 0.000000 0.000000 0.000000
# 2 -0.005286 0.014847 0.000459 0.000000 0.000000 0.000000
# 3 -0.005322 0.000459 0.013500 0.000000 0.000000 0.000000
# 4 0.000000 0.000000 0.000000 0.060756 0.000000 0.000000
# 5 0.000000 0.000000 0.000000 0.000000 0.032824 0.000000
# 6 0.000000 0.000000 0.000000 0.000000 0.000000 0.035247
#
#
# Mechanical properties :
#
#
# Convention : Reuss Voigt Hill
#
# Bulk Modulus (GPa) = 49.58872 55.32283 52.45578
# Shear Modulus (GPa) = 25.46997 27.93026 26.70012
#
# Velocity S-wave (km/s) = 3.66329 3.83614 3.75071
# Velocity P-wave (km/s) = 6.63479 6.98355 6.81140
#
# Compressibility (1/GPa) = 0.02016588
#
# Stress axis : x y z
#
# Youngs Moduli (GPa) = 82.53891 67.35288 74.07230
#
# Poissons Ratio (x) = 0.35601 0.39418
# Poissons Ratio (y) = 0.43628 -0.03399
# Poissons Ratio (z) = 0.43924 -0.03090
#
# Static dielectric constant tensor:
#      x y z
#    x 1.708880 0.000000 0.000000 
#    y 0.000000 1.682710 0.000000 
#    z 0.000000 0.000000 1.878960 
# 
# From -- ./inp_files/47792.got.cif
#   From: 2010.05.17/outbox.cif.g08.bks.cpg/sg64_24_cif.got.tgz:47792.got - 2010.06.03 16:29:19.
