data_PCOD9477865
_publ_section_title
;
Structure prediction by ZEFSAII (Michael W. Deem and Ramdas Pophale) SiO2 
 PCOD9477865
Probable space group: C M C A
;
_chemical_formula_sum "Si O2"
_cell_formula_units_Z 104
_cell_length_a 12.336881
_cell_length_b 27.045484
_cell_length_c 17.224351
_cell_angle_alpha 90.000000
_cell_angle_beta 90.000000
_cell_angle_gamma 90.000000
_cell_volume 5747.023864
_symmetry_space_group_name_H-M "C M C A"
_symmetry_group_IT_number 64
_symmetry_cell_setting 'orthorhombic'
loop_
_space_group_symop_operation_xyz
x,y,z
-x,1/2-y,1/2+z
x,-y,-z
-x,1/2+y,1/2-z
-x,-y,-z
x,1/2+y,1/2-z
-x,y,z
x,1/2-y,1/2+z
1/2+x,1/2+y,z
1/2-x,-y,1/2+z
1/2+x,1/2-y,-z
1/2-x,y,1/2-z
1/2-x,1/2-y,-z
1/2+x,y,1/2-z
1/2-x,1/2+y,z
1/2+x,-y,1/2+z
loop_
_atom_site_type_symbol
_atom_site_label
_atom_site_fract_x
_atom_site_fract_y
_atom_site_fract_z
Si Si1 0.374923 0.335440 0.861403
Si Si2 0.250000 0.408827 0.750000
Si Si3 0.126406 0.239537 0.742126
Si Si4 0.371472 0.971286 0.879921
Si Si5 0.883354 0.247453 0.416193
Si Si6 0.628547 0.074036 0.948091
Si Si7 0.768589 0.172220 0.513347
O O1 0.500000 0.345307 0.876383
O O2 0.329850 0.373167 0.797654
O O3 0.365755 0.280093 0.825818
O O4 0.308496 0.340380 0.940691
O O5 0.310599 0.442924 0.687627
O O6 0.250000 0.214870 0.750000
O O7 0.119829 0.266510 0.825946
O O8 0.000000 0.216816 0.734446
O O9 0.500000 0.971371 0.864565
O O10 0.337168 0.028181 0.894168
O O11 0.356499 0.943872 0.962691
O O12 0.866980 0.200749 0.471543
O O13 0.792581 0.287584 0.434884
O O14 0.000000 0.270661 0.432505
O O15 0.500000 0.081955 0.936757
O O16 0.693054 0.124697 0.940073
#
# Coordination Sequence:
#
# PCOD9477865 Si02
#       7
#    16   8  16  16  16  16  16
#     4  11  21  31  50  80 112 137 173 225 282 332
#     4  12  18  32  54  82 110 138 172 212 292 326
#     4  10  19  35  51  75 109 145 179 223 276 328
#     4   9  19  33  55  83 109 136 175 221 268 328
#     4  10  21  33  51  78 109 143 184 226 269 325
#     4   9  18  35  56  80 106 140 181 223 267 323
#     4  11  19  34  54  78 108 141 183 217 280 318
#
# _framework density 18.096323999999999
#
# number of rings (size 3 to 8) (size 9 to 14) (size 15 to 20)
#    0.000    1.846    3.846    2.308    0.000    0.000 
#    0.000    0.769    1.692    4.615    0.000    0.000 
#    0.000    0.000    0.000    0.000    0.000    0.000 
#
# Total GULP energy -289637.075334 kJ/mol
# GULP energy per Si atom -5569.943756 kJ/mol
# Density = 1.805514 g / cm^3
# Si number density = 18.096324 Si / 1000 Ang^3
#
#
#
# Elastic Constant Matrix: (Units=GPa)
#
#
# Indices 1 2 3 4 5 6 
#
# 1 91.5882 23.5521 17.3685 0.0000 0.0000 0.0000
# 2 23.5521 60.0997 4.7965 0.0000 0.0000 0.0000
# 3 17.3685 4.7965 44.8967 0.0000 0.0000 0.0000
# 4 0.0000 0.0000 0.0000 26.2800 0.0000 0.0000
# 5 0.0000 0.0000 0.0000 0.0000 17.7276 0.0000
# 6 0.0000 0.0000 0.0000 0.0000 0.0000 9.5303
#
#
#
# Elastic Compliance Matrix: (Units=1/GPa)
#
#
# Indices 1 2 3 4 5 6 
#
# 1 0.012992 -0.004731 -0.004521 0.000000 0.000000 0.000000
# 2 -0.004731 0.018505 -0.000147 0.000000 0.000000 0.000000
# 3 -0.004521 -0.000147 0.024038 0.000000 0.000000 0.000000
# 4 0.000000 0.000000 0.000000 0.038052 0.000000 0.000000
# 5 0.000000 0.000000 0.000000 0.000000 0.056409 0.000000
# 6 0.000000 0.000000 0.000000 0.000000 0.000000 0.104929
#
#
# Mechanical properties :
#
#
# Convention : Reuss Voigt Hill
#
# Bulk Modulus (GPa) = 27.21955 32.00209 29.61082
# Shear Modulus (GPa) = 17.48453 20.76541 19.12497
#
# Velocity S-wave (km/s) = 3.11174 3.39114 3.25444
# Velocity P-wave (km/s) = 5.29005 5.74942 5.52451
#
# Compressibility (1/GPa) = 0.03673830
#
# Stress axis : x y z
#
# Youngs Moduli (GPa) = 76.96907 54.04061 41.60097
#
# Poissons Ratio (x) = 0.25565 0.18807
# Poissons Ratio (y) = 0.36411 0.00611
# Poissons Ratio (z) = 0.34795 0.00794
#
# Static dielectric constant tensor:
#      x y z
#    x 1.677410 0.000000 0.000000 
#    y 0.000000 1.610950 0.000000 
#    z 0.000000 0.000000 1.614140 
# 
# From -- ./inp_files/31222.got.cif
#   From: 2010.05.17/outbox.cif.g08.bks.cpg/sg64_16_cif.got.tgz:31222.got - 2010.06.03 16:29:19.
