data_PCOD9477458
_publ_section_title
;
Structure prediction by ZEFSAII (Michael W. Deem and Ramdas Pophale) SiO2 
 PCOD9477458
Probable space group: C M C A
;
_chemical_formula_sum "Si O2"
_cell_formula_units_Z 128
_cell_length_a 26.272737
_cell_length_b 19.474453
_cell_length_c 12.135275
_cell_angle_alpha 90.000000
_cell_angle_beta 90.000000
_cell_angle_gamma 90.000000
_cell_volume 6208.979255
_symmetry_space_group_name_H-M "C M C A"
_symmetry_group_IT_number 64
_symmetry_cell_setting 'orthorhombic'
loop_
_space_group_symop_operation_xyz
x,y,z
-x,1/2-y,1/2+z
x,-y,-z
-x,1/2+y,1/2-z
-x,-y,-z
x,1/2+y,1/2-z
-x,y,z
x,1/2-y,1/2+z
1/2+x,1/2+y,z
1/2-x,-y,1/2+z
1/2+x,1/2-y,-z
1/2-x,y,1/2-z
1/2-x,1/2-y,-z
1/2+x,y,1/2-z
1/2-x,1/2+y,z
1/2+x,-y,1/2+z
loop_
_atom_site_type_symbol
_atom_site_label
_atom_site_fract_x
_atom_site_fract_y
_atom_site_fract_z
Si Si1 0.557878 0.640192 0.663774
Si Si2 0.903955 0.990529 0.627876
Si Si3 0.303861 0.543289 0.712606
Si Si4 0.290086 0.150571 0.985028
Si Si5 0.851884 0.332433 0.331644
Si Si6 0.942487 0.341113 0.904996
Si Si7 0.340353 0.186387 0.199909
Si Si8 0.821941 0.194769 0.054284
O O1 0.500000 0.659119 0.692112
O O2 0.563878 0.557468 0.660834
O O3 0.600313 0.665445 0.748963
O O4 0.567653 0.663085 0.536821
O O5 0.851894 0.993721 0.696913
O O6 0.889808 0.000000 0.500000
O O7 0.935286 0.920570 0.631076
O O8 0.250000 0.512650 0.750000
O O9 0.298422 0.589032 0.600475
O O10 0.319977 0.600118 0.802658
O O11 0.315911 0.140400 0.104530
O O12 0.231357 0.165026 0.010289
O O13 0.314896 0.222305 0.941905
O O14 0.818490 0.263769 0.310450
O O15 0.862832 0.326705 0.461760
O O16 0.898865 0.304696 0.835894
O O17 0.000000 0.318432 0.884906
O O18 0.333636 0.166262 0.325301
#
# Coordination Sequence:
#
# PCOD9477458 Si02
#       8
#    16  16  16  16  16  16  16  16
#     4   9  18  34  58  82 105 137 185 241 290 338
#     4   9  18  34  58  82 105 137 184 239 287 328
#     4  11  19  34  57  83 115 147 184 232 281 336
#     4  10  19  32  52  79 113 151 186 222 263 328
#     4  10  20  32  52  81 115 145 181 224 278 332
#     4  10  21  38  58  81 108 142 188 242 292 333
#     4  11  21  33  54  79 113 153 190 227 271 336
#     4  10  20  31  50  79 116 154 184 214 265 338
#
# _framework density 20.615304999999999
#
# number of rings (size 3 to 8) (size 9 to 14) (size 15 to 20)
#    0.000    2.000    2.500    3.000    1.750    2.000 
#    0.000    3.125    0.000    2.250    0.000    4.375 
#    0.000    0.000    0.000    0.000    0.000    0.000 
#
# Total GULP energy -357294.281164 kJ/mol
# GULP energy per Si atom -5582.723143 kJ/mol
# Density = 2.056838 g / cm^3
# Si number density = 20.615305 Si / 1000 Ang^3
#
#
#
# Elastic Constant Matrix: (Units=GPa)
#
#
# Indices 1 2 3 4 5 6 
#
# 1 108.4248 -4.8819 38.8237 0.0000 0.0000 0.0000
# 2 -4.8819 28.0754 8.4610 0.0000 0.0000 0.0000
# 3 38.8237 8.4610 138.3297 0.0000 0.0000 0.0000
# 4 0.0000 0.0000 0.0000 14.9257 0.0000 0.0000
# 5 0.0000 0.0000 0.0000 0.0000 28.1946 0.0000
# 6 0.0000 0.0000 0.0000 0.0000 0.0000 18.9495
#
#
#
# Elastic Compliance Matrix: (Units=1/GPa)
#
#
# Indices 1 2 3 4 5 6 
#
# 1 0.010458 0.002754 -0.003104 0.000000 0.000000 0.000000
# 2 0.002754 0.037012 -0.003037 0.000000 0.000000 0.000000
# 3 -0.003104 -0.003037 0.008286 0.000000 0.000000 0.000000
# 4 0.000000 0.000000 0.000000 0.066999 0.000000 0.000000
# 5 0.000000 0.000000 0.000000 0.000000 0.035468 0.000000
# 6 0.000000 0.000000 0.000000 0.000000 0.000000 0.052772
#
#
# Mechanical properties :
#
#
# Convention : Reuss Voigt Hill
#
# Bulk Modulus (GPa) = 20.41506 39.95951 30.18728
# Shear Modulus (GPa) = 21.35876 27.90910 24.63393
#
# Velocity S-wave (km/s) = 3.22229 3.68340 3.46053
# Velocity P-wave (km/s) = 4.87530 6.12498 5.53552
#
# Compressibility (1/GPa) = 0.04898345
#
# Stress axis : x y z
#
# Youngs Moduli (GPa) = 95.61778 27.01798 120.68651
#
# Poissons Ratio (x) = -0.07440 0.37457
# Poissons Ratio (y) = -0.26332 0.36650
# Poissons Ratio (z) = 0.29677 0.08205
#
# Static dielectric constant tensor:
#      x y z
#    x 1.760970 0.000000 0.000000 
#    y 0.000000 1.790910 0.000000 
#    z 0.000000 0.000000 1.756160 
# 
# From -- ./inp_files/19417.got.cif
#   From: 2010.05.17/outbox.cif.g08.bks.cpg/sg64_10_cif.got.tgz:19417.got - 2010.06.03 16:29:19.
