data_PCOD9477086
_publ_section_title
;
Structure prediction by ZEFSAII (Michael W. Deem and Ramdas Pophale) SiO2 
 PCOD9477086
Probable space group: C M C A
;
_chemical_formula_sum "Si O2"
_cell_formula_units_Z 88
_cell_length_a 23.440574
_cell_length_b 11.382848
_cell_length_c 13.917232
_cell_angle_alpha 90.000000
_cell_angle_beta 90.000000
_cell_angle_gamma 90.000000
_cell_volume 3713.402674
_symmetry_space_group_name_H-M "C M C A"
_symmetry_group_IT_number 64
_symmetry_cell_setting 'orthorhombic'
loop_
_space_group_symop_operation_xyz
x,y,z
-x,1/2-y,1/2+z
x,-y,-z
-x,1/2+y,1/2-z
-x,-y,-z
x,1/2+y,1/2-z
-x,y,z
x,1/2-y,1/2+z
1/2+x,1/2+y,z
1/2-x,-y,1/2+z
1/2+x,1/2-y,-z
1/2-x,y,1/2-z
1/2-x,1/2-y,-z
1/2+x,y,1/2-z
1/2-x,1/2+y,z
1/2+x,-y,1/2+z
loop_
_atom_site_type_symbol
_atom_site_label
_atom_site_fract_x
_atom_site_fract_y
_atom_site_fract_z
Si Si1 0.902129 0.384723 0.271104
Si Si2 0.500000 0.985561 0.388491
Si Si3 0.500000 0.757641 0.670370
Si Si4 0.116708 0.428810 0.900031
Si Si5 0.779588 0.078194 0.852817
Si Si6 0.000000 0.363431 0.965559
Si Si7 0.241240 0.172583 0.365519
O O1 0.943863 0.421630 0.355403
O O2 0.940738 0.288273 0.216204
O O3 0.892672 0.483253 0.188775
O O4 0.841578 0.374288 0.322773
O O5 0.500000 0.104596 0.328803
O O6 0.500000 0.000000 0.500000
O O7 0.500000 0.714031 0.560376
O O8 0.176105 0.363474 0.885702
O O9 0.059325 0.350946 0.909246
O O10 0.121482 0.500000 0.000000
O O11 0.750000 0.059129 0.750000
O O12 0.748632 0.192011 0.901676
O O13 0.777165 0.945227 0.896466
O O14 0.000000 0.500000 0.000000
O O15 0.250000 0.184733 0.250000
#
# Coordination Sequence:
#
# PCOD9477086 Si02
#       7
#    16   8   8  16  16   8  16
#     4  11  22  45  69 100 138 191 235 290 354 430
#     4  11  29  48  65 106 155 181 233 293 376 434
#     4  11  23  41  69 101 136 192 231 293 351 436
#     4  11  20  39  66 103 135 171 238 301 340 420
#     4  10  21  39  68  95 132 183 236 290 353 423
#     4  10  18  35  60  99 137 159 229 288 341 404
#     4  10  21  39  65  94 132 179 230 290 356 416
#
# _framework density 23.697942000000001
#
# number of rings (size 3 to 8) (size 9 to 14) (size 15 to 20)
#    0.000    1.455    7.273    0.545    2.545    1.455 
#    3.273    1.818    0.000    0.000    0.000    0.000 
#    0.000    0.000    0.000    0.000    0.000    0.000 
#
# Total GULP energy -245680.804970 kJ/mol
# GULP energy per Si atom -5583.654658 kJ/mol
# Density = 2.364400 g / cm^3
# Si number density = 23.697942 Si / 1000 Ang^3
#
#
#
# Elastic Constant Matrix: (Units=GPa)
#
#
# Indices 1 2 3 4 5 6 
#
# 1 148.6358 16.4783 13.4534 0.0000 0.0000 0.0000
# 2 16.4783 149.0128 14.2772 0.0000 0.0000 0.0000
# 3 13.4534 14.2772 90.4492 0.0000 0.0000 0.0000
# 4 0.0000 0.0000 0.0000 27.3095 0.0000 0.0000
# 5 0.0000 0.0000 0.0000 0.0000 58.3055 0.0000
# 6 0.0000 0.0000 0.0000 0.0000 0.0000 9.6045
#
#
#
# Elastic Compliance Matrix: (Units=1/GPa)
#
#
# Indices 1 2 3 4 5 6 
#
# 1 0.006886 -0.000673 -0.000918 0.000000 0.000000 0.000000
# 2 -0.000673 0.006880 -0.000986 0.000000 0.000000 0.000000
# 3 -0.000918 -0.000986 0.011348 0.000000 0.000000 0.000000
# 4 0.000000 0.000000 0.000000 0.036617 0.000000 0.000000
# 5 0.000000 0.000000 0.000000 0.000000 0.017151 0.000000
# 6 0.000000 0.000000 0.000000 0.000000 0.000000 0.104117
#
#
# Mechanical properties :
#
#
# Convention : Reuss Voigt Hill
#
# Bulk Modulus (GPa) = 50.10233 52.94620 51.52426
# Shear Modulus (GPa) = 25.66651 41.96984 33.81818
#
# Velocity S-wave (km/s) = 3.29457 4.21293 3.78173
# Velocity P-wave (km/s) = 5.97162 6.78643 6.39202
#
# Compressibility (1/GPa) = 0.01995915
#
# Stress axis : x y z
#
# Youngs Moduli (GPa) = 145.23069 145.35396 88.12087
#
# Poissons Ratio (x) = 0.09789 0.08088
# Poissons Ratio (y) = 0.09781 0.08687
# Poissons Ratio (z) = 0.13330 0.14329
#
# Static dielectric constant tensor:
#      x y z
#    x 1.801740 0.000000 0.000000 
#    y 0.000000 1.988430 0.000000 
#    z 0.000000 0.000000 1.882720 
# 
# From -- ./inp_files/27231.got.cif
#   From: 2010.05.17/outbox.cif.g08.bks.cpg/sg64_14_cif.got.tgz:27231.got - 2010.06.03 16:29:19.
