data_PCOD9477496
_publ_section_title
;
Structure prediction by ZEFSAII (Michael W. Deem and Ramdas Pophale) SiO2 
 PCOD9477496
Probable space group: C M C A
;
_chemical_formula_sum "Si O2"
_cell_formula_units_Z 112
_cell_length_a 13.259186
_cell_length_b 24.669774
_cell_length_c 16.843687
_cell_angle_alpha 90.000000
_cell_angle_beta 90.000000
_cell_angle_gamma 90.000000
_cell_volume 5509.588917
_symmetry_space_group_name_H-M "C M C A"
_symmetry_group_IT_number 64
_symmetry_cell_setting 'orthorhombic'
loop_
_space_group_symop_operation_xyz
x,y,z
-x,1/2-y,1/2+z
x,-y,-z
-x,1/2+y,1/2-z
-x,-y,-z
x,1/2+y,1/2-z
-x,y,z
x,1/2-y,1/2+z
1/2+x,1/2+y,z
1/2-x,-y,1/2+z
1/2+x,1/2-y,-z
1/2-x,y,1/2-z
1/2-x,1/2-y,-z
1/2+x,y,1/2-z
1/2-x,1/2+y,z
1/2+x,-y,1/2+z
loop_
_atom_site_type_symbol
_atom_site_label
_atom_site_fract_x
_atom_site_fract_y
_atom_site_fract_z
Si Si1 0.877893 0.010828 0.405893
Si Si2 0.285953 0.203022 0.836884
Si Si3 0.121890 0.321954 0.644815
Si Si4 0.120222 0.793818 0.029432
Si Si5 0.882213 0.396314 0.091766
Si Si6 0.878988 0.329488 0.949927
Si Si7 0.877345 0.386986 0.797826
O O1 0.843653 0.952204 0.371921
O O2 0.000000 0.018311 0.407050
O O3 0.851274 0.000000 0.500000
O O4 0.843064 0.059011 0.346299
O O5 0.250000 0.190838 0.750000
O O6 0.331018 0.263387 0.836324
O O7 0.191829 0.194267 0.896713
O O8 0.367334 0.157908 0.859248
O O9 0.143481 0.327706 0.550342
O O10 0.152239 0.368349 0.708640
O O11 0.000000 0.317046 0.650438
O O12 0.142146 0.729569 0.014737
O O13 0.000000 0.798539 0.046220
O O14 0.000000 0.406479 0.081079
O O15 0.842112 0.378472 0.005028
O O16 0.850372 0.338053 0.858762
O O17 0.000000 0.333224 0.950714
O O18 0.000000 0.390675 0.794270
#
# Coordination Sequence:
#
# PCOD9477496 Si02
#       7
#    16  16  16  16  16  16  16
#     4   9  15  27  51  84 114 145 186 230 288 350
#     4  12  24  36  54  78 111 152 198 242 293 351
#     4  10  20  35  54  81 118 153 186 230 290 357
#     4  10  21  37  56  79 113 155 197 240 289 353
#     4  10  19  32  54  81 111 148 185 232 288 344
#     4   9  15  27  49  76 106 142 179 221 279 341
#     4   9  16  27  49  83 118 147 181 227 283 352
#
# _framework density 20.328195999999998
#
# number of rings (size 3 to 8) (size 9 to 14) (size 15 to 20)
#    0.000    2.143    2.857    1.714    0.000    2.286 
#    0.000    0.000    0.000    4.286    0.000    0.000 
#    0.000    7.429    0.000    0.000    0.000    0.143 
#
# Total GULP energy -311902.670268 kJ/mol
# GULP energy per Si atom -5569.690541 kJ/mol
# Density = 2.028193 g / cm^3
# Si number density = 20.328196 Si / 1000 Ang^3
#
#
#
# Elastic Constant Matrix: (Units=GPa)
#
#
# Indices 1 2 3 4 5 6 
#
# 1 54.3978 28.3289 34.1676 0.0000 0.0000 0.0000
# 2 28.3289 118.3318 61.6718 0.0000 0.0000 0.0000
# 3 34.1676 61.6718 148.4544 0.0000 0.0000 0.0000
# 4 0.0000 0.0000 0.0000 30.5396 0.0000 0.0000
# 5 0.0000 0.0000 0.0000 0.0000 30.4379 0.0000
# 6 0.0000 0.0000 0.0000 0.0000 0.0000 16.0851
#
#
#
# Elastic Compliance Matrix: (Units=1/GPa)
#
#
# Indices 1 2 3 4 5 6 
#
# 1 0.022533 -0.003435 -0.003759 0.000000 0.000000 0.000000
# 2 -0.003435 0.011310 -0.003908 0.000000 0.000000 0.000000
# 3 -0.003759 -0.003908 0.009225 0.000000 0.000000 0.000000
# 4 0.000000 0.000000 0.000000 0.032744 0.000000 0.000000
# 5 0.000000 0.000000 0.000000 0.000000 0.032854 0.000000
# 6 0.000000 0.000000 0.000000 0.000000 0.000000 0.062169
#
#
# Mechanical properties :
#
#
# Convention : Reuss Voigt Hill
#
# Bulk Modulus (GPa) = 47.93074 63.28006 55.60540
# Shear Modulus (GPa) = 25.00076 28.54690 26.77383
#
# Velocity S-wave (km/s) = 3.51074 3.75147 3.63309
# Velocity P-wave (km/s) = 6.32956 7.06834 6.70913
#
# Compressibility (1/GPa) = 0.02086344
#
# Stress axis : x y z
#
# Youngs Moduli (GPa) = 44.37894 88.41836 108.40575
#
# Poissons Ratio (x) = 0.30375 0.40750
# Poissons Ratio (y) = 0.15246 0.42362
# Poissons Ratio (z) = 0.16682 0.34552
#
# Static dielectric constant tensor:
#      x y z
#    x 1.796110 0.000000 0.000000 
#    y 0.000000 1.779050 0.000000 
#    z 0.000000 0.000000 1.788460 
# 
# From -- ./inp_files/24402.got.cif
#   From: 2010.05.17/outbox.cif.g08.bks.cpg/sg64_13_cif.got.tgz:24402.got - 2010.06.03 16:29:19.
