data_PCOD9477439
_publ_section_title
;
Structure prediction by ZEFSAII (Michael W. Deem and Ramdas Pophale) SiO2 
 PCOD9477439
Probable space group: C M C A
;
_chemical_formula_sum "Si O2"
_cell_formula_units_Z 80
_cell_length_a 25.659190
_cell_length_b 5.391553
_cell_length_c 25.926599
_cell_angle_alpha 90.000000
_cell_angle_beta 90.000000
_cell_angle_gamma 90.000000
_cell_volume 3586.760447
_symmetry_space_group_name_H-M "C M C A"
_symmetry_group_IT_number 64
_symmetry_cell_setting 'orthorhombic'
loop_
_space_group_symop_operation_xyz
x,y,z
-x,1/2-y,1/2+z
x,-y,-z
-x,1/2+y,1/2-z
-x,-y,-z
x,1/2+y,1/2-z
-x,y,z
x,1/2-y,1/2+z
1/2+x,1/2+y,z
1/2-x,-y,1/2+z
1/2+x,1/2-y,-z
1/2-x,y,1/2-z
1/2-x,1/2-y,-z
1/2+x,y,1/2-z
1/2-x,1/2+y,z
1/2+x,-y,1/2+z
loop_
_atom_site_type_symbol
_atom_site_label
_atom_site_fract_x
_atom_site_fract_y
_atom_site_fract_z
Si Si1 0.913838 0.310079 0.644758
Si Si2 0.338402 0.309370 0.769229
Si Si3 0.616036 0.758689 0.031517
Si Si4 0.268496 0.056136 0.941416
Si Si5 0.556461 0.809449 0.800401
O O1 0.855716 0.310803 0.671168
O O2 0.914505 0.298398 0.583630
O O3 0.938486 0.564886 0.664832
O O4 0.938859 0.058518 0.666354
O O5 0.312125 0.558663 0.749605
O O6 0.394426 0.308098 0.738093
O O7 0.672869 0.851435 0.051128
O O8 0.619896 0.500000 0.000000
O O9 0.595798 0.000000 0.000000
O O10 0.236510 0.283249 0.916799
O O11 0.248051 0.000000 0.000000
O O12 0.500000 0.806101 0.774212
#
# Coordination Sequence:
#
# PCOD9477439 Si02
#       5
#    16  16  16  16  16
#     4  10  20  32  47  70  97 123 156 191 237 289
#     4   8  16  28  45  69  94 112 141 188 244 292
#     4  11  21  33  50  69  97 134 161 187 224 273
#     4   9  16  28  47  71  94 117 150 192 235 271
#     4  10  19  32  52  74  93 115 151 204 257 290
#
# _framework density 22.30425
#
# number of rings (size 3 to 8) (size 9 to 14) (size 15 to 20)
#    0.000    2.400    0.000    4.800    0.000    7.200 
#    0.000    0.000    0.000   12.000    0.000    0.000 
#    0.000   43.200    0.000    0.000    0.000    3.400 
#
# Total GULP energy -223130.444272 kJ/mol
# GULP energy per Si atom -5578.261107 kJ/mol
# Density = 2.225348 g / cm^3
# Si number density = 22.304250 Si / 1000 Ang^3
#
#
#
# Elastic Constant Matrix: (Units=GPa)
#
#
# Indices 1 2 3 4 5 6 
#
# 1 40.2704 15.3314 10.2516 0.0000 0.0000 0.0000
# 2 15.3314 249.6361 45.9631 0.0000 0.0000 0.0000
# 3 10.2516 45.9631 91.7198 0.0000 0.0000 0.0000
# 4 0.0000 0.0000 0.0000 24.4887 0.0000 0.0000
# 5 0.0000 0.0000 0.0000 0.0000 25.6481 0.0000
# 6 0.0000 0.0000 0.0000 0.0000 0.0000 5.8494
#
#
#
# Elastic Compliance Matrix: (Units=1/GPa)
#
#
# Indices 1 2 3 4 5 6 
#
# 1 0.025863 -0.001163 -0.002308 0.000000 0.000000 0.000000
# 2 -0.001163 0.004465 -0.002108 0.000000 0.000000 0.000000
# 3 -0.002308 -0.002108 0.012217 0.000000 0.000000 0.000000
# 4 0.000000 0.000000 0.000000 0.040835 0.000000 0.000000
# 5 0.000000 0.000000 0.000000 0.000000 0.038989 0.000000
# 6 0.000000 0.000000 0.000000 0.000000 0.000000 0.170957
#
#
# Mechanical properties :
#
#
# Convention : Reuss Voigt Hill
#
# Bulk Modulus (GPa) = 31.86004 58.30204 45.08104
# Shear Modulus (GPa) = 15.87573 31.86926 23.87249
#
# Velocity S-wave (km/s) = 2.67082 3.78410 3.27511
# Velocity P-wave (km/s) = 4.88122 6.72969 5.87857
#
# Compressibility (1/GPa) = 0.03138728
#
# Stress axis : x y z
#
# Youngs Moduli (GPa) = 38.66594 223.94671 81.85388
#
# Poissons Ratio (x) = 0.26055 0.18889
# Poissons Ratio (y) = 0.04499 0.17252
# Poissons Ratio (z) = 0.08923 0.47200
#
# Static dielectric constant tensor:
#      x y z
#    x 1.839750 0.000000 0.000000 
#    y 0.000000 1.936200 0.000000 
#    z 0.000000 0.000000 1.827770 
# 
# From -- ./inp_files/47046.got.cif
#   From: 2010.05.17/outbox.cif.g08.bks.cpg/sg64_24_cif.got.tgz:47046.got - 2010.06.03 16:29:19.
