data_PCOD9477989
_publ_section_title
;
Structure prediction by ZEFSAII (Michael W. Deem and Ramdas Pophale) SiO2 
 PCOD9477989
Probable space group: C M C A
;
_chemical_formula_sum "Si O2"
_cell_formula_units_Z 80
_cell_length_a 15.767816
_cell_length_b 15.566409
_cell_length_c 16.546162
_cell_angle_alpha 90.000000
_cell_angle_beta 90.000000
_cell_angle_gamma 90.000000
_cell_volume 4061.226886
_symmetry_space_group_name_H-M "C M C A"
_symmetry_group_IT_number 64
_symmetry_cell_setting 'orthorhombic'
loop_
_space_group_symop_operation_xyz
x,y,z
-x,1/2-y,1/2+z
x,-y,-z
-x,1/2+y,1/2-z
-x,-y,-z
x,1/2+y,1/2-z
-x,y,z
x,1/2-y,1/2+z
1/2+x,1/2+y,z
1/2-x,-y,1/2+z
1/2+x,1/2-y,-z
1/2-x,y,1/2-z
1/2-x,1/2-y,-z
1/2+x,y,1/2-z
1/2-x,1/2+y,z
1/2+x,-y,1/2+z
loop_
_atom_site_type_symbol
_atom_site_label
_atom_site_fract_x
_atom_site_fract_y
_atom_site_fract_z
Si Si1 0.098643 0.928006 0.585764
Si Si2 0.314161 0.114634 0.934819
Si Si3 0.400646 0.765852 0.195252
Si Si4 0.149002 0.418378 0.734902
Si Si5 0.827081 0.602876 0.685188
O O1 0.160979 0.872673 0.528285
O O2 0.104208 0.905439 0.679124
O O3 0.000000 0.923830 0.559483
O O4 0.137593 0.024341 0.582842
O O5 0.355787 0.184182 0.877205
O O6 0.217583 0.108112 0.902599
O O7 0.500000 0.774867 0.187002
O O8 0.374288 0.667126 0.187830
O O9 0.375029 0.813659 0.279903
O O10 0.250000 0.417420 0.750000
O O11 0.126456 0.511123 0.696672
O O12 0.750000 0.596920 0.750000
#
# Coordination Sequence:
#
# PCOD9477989 Si02
#       5
#    16  16  16  16  16
#     4  11  20  33  60  91 116 144 193 254 299 331
#     4  10  19  36  57  84 114 146 187 244 302 342
#     4  11  21  34  56  84 115 153 197 241 286 342
#     4  11  20  36  56  81 117 152 188 231 288 355
#     4   9  18  36  54  78 114 150 189 229 288 354
#
# _framework density 19.69848
#
# number of rings (size 3 to 8) (size 9 to 14) (size 15 to 20)
#    0.000    1.600    6.000    4.800    0.000    0.800 
#    0.000    4.000    0.000    0.000    0.000    4.200 
#    0.000    0.000    0.000    0.000    0.000    0.000 
#
# Total GULP energy -222844.055506 kJ/mol
# GULP energy per Si atom -5571.101388 kJ/mol
# Density = 1.965365 g / cm^3
# Si number density = 19.698480 Si / 1000 Ang^3
#
#
#
# Elastic Constant Matrix: (Units=GPa)
#
#
# Indices 1 2 3 4 5 6 
#
# 1 10.0991 31.4649 65.9945 0.0000 0.0000 0.0000
# 2 31.4649 36.9860 -58.6755 0.0000 0.0000 0.0000
# 3 65.9945 -58.6755 -46.1662 0.0000 0.0000 0.0000
# 4 0.0000 0.0000 0.0000 24.5715 0.0000 0.0000
# 5 0.0000 0.0000 0.0000 0.0000 28.7952 0.0000
# 6 0.0000 0.0000 0.0000 0.0000 0.0000 114.8739
#
#
#
# Elastic Compliance Matrix: (Units=1/GPa)
#
#
# Indices 1 2 3 4 5 6 
#
# 1 0.012529 0.005886 0.010429 0.000000 0.000000 0.000000
# 2 0.005886 0.011729 -0.006493 0.000000 0.000000 0.000000
# 3 0.010429 -0.006493 0.001500 0.000000 0.000000 0.000000
# 4 0.000000 0.000000 0.000000 0.040698 0.000000 0.000000
# 5 0.000000 0.000000 0.000000 0.000000 0.034728 0.000000
# 6 0.000000 0.000000 0.000000 0.000000 0.000000 0.008705
#
#
# Mechanical properties :
#
#
# Convention : Reuss Voigt Hill
#
# Bulk Modulus (GPa) = 22.02523 8.72072 15.37298
# Shear Modulus (GPa) = 47.44807 31.12376 39.28592
#
# Velocity S-wave (km/s) = 4.91319 3.97924 4.47067
# Velocity P-wave (km/s) = 6.58722 5.05462 5.87114
#
# Compressibility (1/GPa) = 0.04540248
#
# Stress axis : x y z
#
# Youngs Moduli (GPa) = 79.81475 85.25785 666.76803
#
# Poissons Ratio (x) = -0.50184 -6.95376
# Poissons Ratio (y) = -0.46981 4.32931
# Poissons Ratio (z) = -0.83239 0.55358
#
# Static dielectric constant tensor:
#      x y z
#    x 1.711950 0.000000 0.000000 
#    y 0.000000 1.722930 0.000000 
#    z 0.000000 0.000000 1.767210 
# 
# From -- ./inp_files/33009.got.cif
#   From: 2010.05.17/outbox.cif.g08.bks.cpg/sg64_17_cif.got.tgz:33009.got - 2010.06.03 16:29:19.
