data_PCOD9477078
_publ_section_title
;
Structure prediction by ZEFSAII (Michael W. Deem and Ramdas Pophale) SiO2 
 PCOD9477078
Probable space group: C M C A
;
_chemical_formula_sum "Si O2"
_cell_formula_units_Z 96
_cell_length_a 17.421920
_cell_length_b 17.629213
_cell_length_c 18.520444
_cell_angle_alpha 90.000000
_cell_angle_beta 90.000000
_cell_angle_gamma 90.000000
_cell_volume 5688.271726
_symmetry_space_group_name_H-M "C M C A"
_symmetry_group_IT_number 64
_symmetry_cell_setting 'orthorhombic'
loop_
_space_group_symop_operation_xyz
x,y,z
-x,1/2-y,1/2+z
x,-y,-z
-x,1/2+y,1/2-z
-x,-y,-z
x,1/2+y,1/2-z
-x,y,z
x,1/2-y,1/2+z
1/2+x,1/2+y,z
1/2-x,-y,1/2+z
1/2+x,1/2-y,-z
1/2-x,y,1/2-z
1/2-x,1/2-y,-z
1/2+x,y,1/2-z
1/2-x,1/2+y,z
1/2+x,-y,1/2+z
loop_
_atom_site_type_symbol
_atom_site_label
_atom_site_fract_x
_atom_site_fract_y
_atom_site_fract_z
Si Si1 0.091522 0.084600 0.328632
Si Si2 0.311118 0.787421 0.105525
Si Si3 0.688269 0.674112 0.445529
Si Si4 0.409355 0.654570 0.171795
Si Si5 0.318440 0.048836 0.433006
Si Si6 0.211251 0.548176 0.828170
O O1 0.126954 0.134312 0.393671
O O2 0.109526 0.125765 0.252453
O O3 0.000000 0.076610 0.335183
O O4 0.135314 0.004204 0.328049
O O5 0.229366 0.745179 0.093457
O O6 0.363764 0.730119 0.150459
O O7 0.304326 0.867442 0.144550
O O8 0.341559 0.800921 0.023832
O O9 0.757228 0.613168 0.458098
O O10 0.500000 0.666338 0.167416
O O11 0.381592 0.591201 0.114752
O O12 0.348044 0.000000 0.500000
O O13 0.270136 0.992983 0.382097
O O14 0.250000 0.548827 0.750000
#
# Coordination Sequence:
#
# PCOD9477078 Si02
#       6
#    16  16  16  16  16  16
#     4  10  22  39  57  79 113 152 187 228 282 337
#     4  10  21  35  58  86 110 142 185 233 279 328
#     4   9  20  36  57  83 113 142 182 231 279 332
#     4  10  22  38  54  79 118 155 183 220 278 343
#     4  10  18  35  59  82 111 142 186 230 273 326
#     4  11  21  35  60  86 106 142 188 239 274 323
#
# _framework density 16.876830000000002
#
# number of rings (size 3 to 8) (size 9 to 14) (size 15 to 20)
#    0.000    2.000    3.333    0.000    2.333    1.667 
#    0.000    0.833    0.000    0.000    0.000    0.000 
#    0.000    0.000    0.000    0.000    0.000    0.000 
#
# Total GULP energy -267815.099393 kJ/mol
# GULP energy per Si atom -5579.481237 kJ/mol
# Density = 1.683842 g / cm^3
# Si number density = 16.876830 Si / 1000 Ang^3
#
#
#
# Elastic Constant Matrix: (Units=GPa)
#
#
# Indices 1 2 3 4 5 6 
#
# 1 56.7658 49.2739 36.3389 0.0000 0.0000 0.0000
# 2 49.2739 144.7053 53.9704 0.0000 0.0000 0.0000
# 3 36.3389 53.9704 73.1446 0.0000 0.0000 0.0000
# 4 0.0000 0.0000 0.0000 33.6115 0.0000 0.0000
# 5 0.0000 0.0000 0.0000 0.0000 18.9612 0.0000
# 6 0.0000 0.0000 0.0000 0.0000 0.0000 11.3923
#
#
#
# Elastic Compliance Matrix: (Units=1/GPa)
#
#
# Indices 1 2 3 4 5 6 
#
# 1 0.029497 -0.006317 -0.009993 0.000000 0.000000 0.000000
# 2 -0.006317 0.010887 -0.004895 0.000000 0.000000 0.000000
# 3 -0.009993 -0.004895 0.022248 0.000000 0.000000 0.000000
# 4 0.000000 0.000000 0.000000 0.029752 0.000000 0.000000
# 5 0.000000 0.000000 0.000000 0.000000 0.052739 0.000000
# 6 0.000000 0.000000 0.000000 0.000000 0.000000 0.087778
#
#
# Mechanical properties :
#
#
# Convention : Reuss Voigt Hill
#
# Bulk Modulus (GPa) = 49.45155 61.53135 55.49145
# Shear Modulus (GPa) = 17.72723 21.79516 19.76119
#
# Velocity S-wave (km/s) = 3.24449 3.59754 3.42556
# Velocity P-wave (km/s) = 6.58792 7.33448 6.97120
#
# Compressibility (1/GPa) = 0.02022181
#
# Stress axis : x y z
#
# Youngs Moduli (GPa) = 33.90225 91.85089 44.94759
#
# Poissons Ratio (x) = 0.58020 0.44917
# Poissons Ratio (y) = 0.21415 0.22002
# Poissons Ratio (z) = 0.33879 0.44961
#
# Static dielectric constant tensor:
#      x y z
#    x 1.538930 0.000000 0.000000 
#    y 0.000000 1.560530 0.000000 
#    z 0.000000 0.000000 1.579150 
# 
# From -- ./inp_files/33314.got.cif
#   From: 2010.05.17/outbox.cif.g08.bks.cpg/sg64_17_cif.got.tgz:33314.got - 2010.06.03 16:29:19.
