data_PCOD9477918
_publ_section_title
;
Structure prediction by ZEFSAII (Michael W. Deem and Ramdas Pophale) SiO2 
 PCOD9477918
Probable space group: C M C A
;
_chemical_formula_sum "Si O2"
_cell_formula_units_Z 96
_cell_length_a 8.914138
_cell_length_b 29.930258
_cell_length_c 18.943054
_cell_angle_alpha 90.000000
_cell_angle_beta 90.000000
_cell_angle_gamma 90.000000
_cell_volume 5054.053221
_symmetry_space_group_name_H-M "C M C A"
_symmetry_group_IT_number 64
_symmetry_cell_setting 'orthorhombic'
loop_
_space_group_symop_operation_xyz
x,y,z
-x,1/2-y,1/2+z
x,-y,-z
-x,1/2+y,1/2-z
-x,-y,-z
x,1/2+y,1/2-z
-x,y,z
x,1/2-y,1/2+z
1/2+x,1/2+y,z
1/2-x,-y,1/2+z
1/2+x,1/2-y,-z
1/2-x,y,1/2-z
1/2-x,1/2-y,-z
1/2+x,y,1/2-z
1/2-x,1/2+y,z
1/2+x,-y,1/2+z
loop_
_atom_site_type_symbol
_atom_site_label
_atom_site_fract_x
_atom_site_fract_y
_atom_site_fract_z
Si Si1 0.178476 0.089751 0.077523
Si Si2 0.820616 0.481090 0.825718
Si Si3 0.320068 0.361712 0.323099
Si Si4 0.177122 0.813918 0.556054
Si Si5 0.321370 0.274430 0.398720
Si Si6 0.679646 0.061599 0.933241
O O1 0.252353 0.064443 0.143480
O O2 0.236092 0.140543 0.071347
O O3 0.000000 0.088357 0.082243
O O4 0.234726 0.064519 0.006759
O O5 0.750000 0.492075 0.750000
O O6 0.787004 0.519428 0.883616
O O7 0.000000 0.478108 0.819365
O O8 0.500000 0.362306 0.317476
O O9 0.250000 0.376999 0.250000
O O10 0.272501 0.311370 0.342170
O O11 0.281744 0.394767 0.386980
O O12 0.234702 0.772132 0.601937
O O13 0.201848 0.797956 0.475097
O O14 0.000000 0.821325 0.565100
O O15 0.500000 0.266425 0.392055
O O16 0.500000 0.061901 0.947707
#
# Coordination Sequence:
#
# PCOD9477918 Si02
#       6
#    16  16  16  16  16  16
#     4  12  24  38  61  91 121 154 202 251 294 352
#     4  11  24  42  64  87 120 159 198 244 301 360
#     4  10  20  35  55  83 121 158 194 240 293 355
#     4  10  19  35  59  84 114 148 193 243 295 349
#     4   9  18  34  55  81 116 151 190 239 292 351
#     4  10  21  40  62  87 119 157 197 244 301 353
#
# _framework density 18.994657
#
# number of rings (size 3 to 8) (size 9 to 14) (size 15 to 20)
#    0.000    1.667    1.667    3.500    0.000    5.333 
#    0.000    0.833    0.000    2.000    0.000    0.000 
#    0.000    0.000    0.000    0.000    0.000    0.000 
#
# Total GULP energy -268214.292191 kJ/mol
# GULP energy per Si atom -5587.797754 kJ/mol
# Density = 1.895142 g / cm^3
# Si number density = 18.994657 Si / 1000 Ang^3
#
#
#
# Elastic Constant Matrix: (Units=GPa)
#
#
# Indices 1 2 3 4 5 6 
#
# 1 56.4249 47.4262 21.9626 0.0000 0.0000 0.0000
# 2 47.4262 101.6374 23.2688 0.0000 0.0000 0.0000
# 3 21.9626 23.2688 40.6028 0.0000 0.0000 0.0000
# 4 0.0000 0.0000 0.0000 15.6327 0.0000 0.0000
# 5 0.0000 0.0000 0.0000 0.0000 29.5163 0.0000
# 6 0.0000 0.0000 0.0000 0.0000 0.0000 25.2018
#
#
#
# Elastic Compliance Matrix: (Units=1/GPa)
#
#
# Indices 1 2 3 4 5 6 
#
# 1 0.032469 -0.012811 -0.010221 0.000000 0.000000 0.000000
# 2 -0.012811 0.016379 -0.002457 0.000000 0.000000 0.000000
# 3 -0.010221 -0.002457 0.031566 0.000000 0.000000 0.000000
# 4 0.000000 0.000000 0.000000 0.063968 0.000000 0.000000
# 5 0.000000 0.000000 0.000000 0.000000 0.033880 0.000000
# 6 0.000000 0.000000 0.000000 0.000000 0.000000 0.039680
#
#
# Mechanical properties :
#
#
# Convention : Reuss Voigt Hill
#
# Bulk Modulus (GPa) = 33.97238 42.66447 38.31843
# Shear Modulus (GPa) = 17.93844 21.13732 19.53788
#
# Velocity S-wave (km/s) = 3.07643 3.33949 3.21066
# Velocity P-wave (km/s) = 5.52660 6.11389 5.82765
#
# Compressibility (1/GPa) = 0.02943568
#
# Stress axis : x y z
#
# Youngs Moduli (GPa) = 30.79901 61.05330 31.67983
#
# Poissons Ratio (x) = 0.78212 0.32380
# Poissons Ratio (y) = 0.39455 0.07785
# Poissons Ratio (z) = 0.31480 0.15002
#
# Static dielectric constant tensor:
#      x y z
#    x 1.630860 0.000000 0.000000 
#    y 0.000000 1.671580 0.000000 
#    z 0.000000 0.000000 1.642530 
# 
# From -- ./inp_files/37034.got.cif
#   From: 2010.05.17/outbox.cif.g08.bks.cpg/sg64_19_cif.got.tgz:37034.got - 2010.06.03 16:29:19.
