data_PCOD9477926
_publ_section_title
;
Structure prediction by ZEFSAII (Michael W. Deem and Ramdas Pophale) SiO2 
 PCOD9477926
Probable space group: C M C A
;
_chemical_formula_sum "Si O2"
_cell_formula_units_Z 96
_cell_length_a 8.903239
_cell_length_b 20.101388
_cell_length_c 28.449198
_cell_angle_alpha 90.000000
_cell_angle_beta 90.000000
_cell_angle_gamma 90.000000
_cell_volume 5091.480750
_symmetry_space_group_name_H-M "C M C A"
_symmetry_group_IT_number 64
_symmetry_cell_setting 'orthorhombic'
loop_
_space_group_symop_operation_xyz
x,y,z
-x,1/2-y,1/2+z
x,-y,-z
-x,1/2+y,1/2-z
-x,-y,-z
x,1/2+y,1/2-z
-x,y,z
x,1/2-y,1/2+z
1/2+x,1/2+y,z
1/2-x,-y,1/2+z
1/2+x,1/2-y,-z
1/2-x,y,1/2-z
1/2-x,1/2-y,-z
1/2+x,y,1/2-z
1/2-x,1/2+y,z
1/2+x,-y,1/2+z
loop_
_atom_site_type_symbol
_atom_site_label
_atom_site_fract_x
_atom_site_fract_y
_atom_site_fract_z
Si Si1 0.179929 0.667910 0.701046
Si Si2 0.323366 0.223454 0.952346
Si Si3 0.179921 0.521362 0.053004
Si Si4 0.680593 0.102824 0.602966
Si Si5 0.320128 0.675287 0.299511
Si Si6 0.823872 0.641879 0.395415
O O1 0.250000 0.644450 0.750000
O O2 0.226155 0.626878 0.655147
O O3 0.219775 0.746053 0.695165
O O4 0.000000 0.664709 0.704482
O O5 0.500000 0.208905 0.959284
O O6 0.239317 0.158968 0.932875
O O7 0.309170 0.283210 0.914873
O O8 0.250000 0.250000 0.000000
O O9 0.246881 0.466443 0.088065
O O10 0.246638 0.592047 0.068016
O O11 0.000000 0.522952 0.055978
O O12 0.221719 0.500000 0.000000
O O13 0.500000 0.099080 0.600951
O O14 0.500000 0.669686 0.298421
O O15 0.250000 0.652999 0.250000
O O16 0.253547 0.638293 0.344609
O O17 0.000000 0.626125 0.391763
#
# Coordination Sequence:
#
# PCOD9477926 Si02
#       6
#    16  16  16  16  16  16
#     4   9  19  34  57  88 120 155 191 237 292 349
#     4  11  23  37  58  87 118 152 196 248 300 353
#     4  11  25  43  62  85 117 160 204 249 304 362
#     4  11  22  39  61  88 120 155 198 245 297 356
#     4  10  19  35  59  89 123 157 195 242 297 353
#     4  11  23  39  60  88 119 157 201 247 298 355
#
# _framework density 18.855025999999999
#
# number of rings (size 3 to 8) (size 9 to 14) (size 15 to 20)
#    0.000    1.500    1.667    3.500    0.000    8.000 
#    0.000    0.833    0.000    2.000    0.000    0.000 
#    0.000    0.000    0.000    0.000    0.000    0.000 
#
# Total GULP energy -268302.793703 kJ/mol
# GULP energy per Si atom -5589.641535 kJ/mol
# Density = 1.881211 g / cm^3
# Si number density = 18.855026 Si / 1000 Ang^3
#
#
#
# Elastic Constant Matrix: (Units=GPa)
#
#
# Indices 1 2 3 4 5 6 
#
# 1 59.2358 10.1210 26.8559 0.0000 0.0000 0.0000
# 2 10.1210 27.3231 -20.4062 0.0000 0.0000 0.0000
# 3 26.8559 -20.4062 85.9527 0.0000 0.0000 0.0000
# 4 0.0000 0.0000 0.0000 33.2440 0.0000 0.0000
# 5 0.0000 0.0000 0.0000 0.0000 34.3408 0.0000
# 6 0.0000 0.0000 0.0000 0.0000 0.0000 30.6626
#
#
#
# Elastic Compliance Matrix: (Units=1/GPa)
#
#
# Indices 1 2 3 4 5 6 
#
# 1 0.025815 -0.018945 -0.012564 0.000000 0.000000 0.000000
# 2 -0.018945 0.058391 0.019782 0.000000 0.000000 0.000000
# 3 -0.012564 0.019782 0.020256 0.000000 0.000000 0.000000
# 4 0.000000 0.000000 0.000000 0.030081 0.000000 0.000000
# 5 0.000000 0.000000 0.000000 0.000000 0.029120 0.000000
# 6 0.000000 0.000000 0.000000 0.000000 0.000000 0.032613
#
#
# Mechanical properties :
#
#
# Convention : Reuss Voigt Hill
#
# Bulk Modulus (GPa) = 12.34439 22.85033 17.59736
# Shear Modulus (GPa) = 20.26490 30.04555 25.15523
#
# Velocity S-wave (km/s) = 3.28193 3.99620 3.65655
# Velocity P-wave (km/s) = 4.57413 5.78257 5.21348
#
# Compressibility (1/GPa) = 0.08100848
#
# Stress axis : x y z
#
# Youngs Moduli (GPa) = 38.73763 17.12590 49.36729
#
# Poissons Ratio (x) = 0.32446 0.62023
# Poissons Ratio (y) = 0.73390 -0.97659
# Poissons Ratio (z) = 0.48669 -0.33879
#
# Static dielectric constant tensor:
#      x y z
#    x 1.628230 0.000000 0.000000 
#    y 0.000000 1.639360 0.000000 
#    z 0.000000 0.000000 1.653870 
# 
# From -- ./inp_files/48107.got.cif
#   From: 2010.05.17/outbox.cif.g08.bks.cpg/sg64_25_cif.got.tgz:48107.got - 2010.06.03 16:29:19.
