data_PCOD9477064
_publ_section_title
;
Structure prediction by ZEFSAII (Michael W. Deem and Ramdas Pophale) SiO2 
 PCOD9477064
Probable space group: C M C A
;
_chemical_formula_sum "Si O2"
_cell_formula_units_Z 112
_cell_length_a 19.445637
_cell_length_b 17.371137
_cell_length_c 18.386963
_cell_angle_alpha 90.000000
_cell_angle_beta 90.000000
_cell_angle_gamma 90.000000
_cell_volume 6210.984164
_symmetry_space_group_name_H-M "C M C A"
_symmetry_group_IT_number 64
_symmetry_cell_setting 'orthorhombic'
loop_
_space_group_symop_operation_xyz
x,y,z
-x,1/2-y,1/2+z
x,-y,-z
-x,1/2+y,1/2-z
-x,-y,-z
x,1/2+y,1/2-z
-x,y,z
x,1/2-y,1/2+z
1/2+x,1/2+y,z
1/2-x,-y,1/2+z
1/2+x,1/2-y,-z
1/2-x,y,1/2-z
1/2-x,1/2-y,-z
1/2+x,y,1/2-z
1/2-x,1/2+y,z
1/2+x,-y,1/2+z
loop_
_atom_site_type_symbol
_atom_site_label
_atom_site_fract_x
_atom_site_fract_y
_atom_site_fract_z
Si Si1 0.838572 0.611060 0.323955
Si Si2 0.683066 0.262552 0.407470
Si Si3 0.322644 0.897737 0.207154
Si Si4 0.676773 0.572640 0.334805
Si Si5 0.341460 0.790768 0.929522
Si Si6 0.919458 0.166337 0.834550
Si Si7 0.919528 0.490772 0.419088
O O1 0.849828 0.692470 0.362486
O O2 0.759416 0.583925 0.333725
O O3 0.850502 0.614644 0.237954
O O4 0.883541 0.546560 0.362354
O O5 0.683854 0.339024 0.359415
O O6 0.647065 0.276158 0.485083
O O7 0.762275 0.236105 0.418127
O O8 0.250000 0.903302 0.250000
O O9 0.377336 0.862098 0.263941
O O10 0.339649 0.982901 0.176865
O O11 0.651854 0.620395 0.404585
O O12 0.386936 0.739208 0.875490
O O13 0.000000 0.177752 0.817848
O O14 0.913097 0.095970 0.891588
O O15 0.889795 0.500000 0.500000
O O16 0.000000 0.510967 0.421884
#
# Coordination Sequence:
#
# PCOD9477064 Si02
#       7
#    16  16  16  16  16  16  16
#     4  10  18  35  51  84 111 149 194 240 290 346
#     4  10  22  34  61  85 117 153 198 247 292 349
#     4  12  20  38  61  86 115 159 196 245 295 348
#     4  10  20  34  57  80 114 150 200 242 291 344
#     4  10  21  39  54  88 119 154 195 245 299 346
#     4  11  22  38  60  88 120 155 198 243 298 358
#     4  10  20  34  56  85 120 155 185 233 299 360
#
# _framework density 18.032568999999999
#
# number of rings (size 3 to 8) (size 9 to 14) (size 15 to 20)
#    0.000    1.571    4.286    1.714    2.000    0.571 
#    0.000    4.286    0.000    0.000    0.000    2.000 
#    0.000    0.000    0.000    0.000    0.000    0.000 
#
# Total GULP energy -312448.196928 kJ/mol
# GULP energy per Si atom -5579.432088 kJ/mol
# Density = 1.799153 g / cm^3
# Si number density = 18.032569 Si / 1000 Ang^3
#
#
#
# Elastic Constant Matrix: (Units=GPa)
#
#
# Indices 1 2 3 4 5 6 
#
# 1 33.6955 23.1819 14.6494 0.0000 0.0000 0.0000
# 2 23.1819 114.0051 44.2505 0.0000 0.0000 0.0000
# 3 14.6494 44.2505 74.4048 0.0000 0.0000 0.0000
# 4 0.0000 0.0000 0.0000 14.6405 0.0000 0.0000
# 5 0.0000 0.0000 0.0000 0.0000 16.5692 0.0000
# 6 0.0000 0.0000 0.0000 0.0000 0.0000 14.9493
#
#
#
# Elastic Compliance Matrix: (Units=1/GPa)
#
#
# Indices 1 2 3 4 5 6 
#
# 1 0.035182 -0.005805 -0.003474 0.000000 0.000000 0.000000
# 2 -0.005805 0.012362 -0.006209 0.000000 0.000000 0.000000
# 3 -0.003474 -0.006209 0.017817 0.000000 0.000000 0.000000
# 4 0.000000 0.000000 0.000000 0.068304 0.000000 0.000000
# 5 0.000000 0.000000 0.000000 0.000000 0.060353 0.000000
# 6 0.000000 0.000000 0.000000 0.000000 0.000000 0.066893
#
#
# Mechanical properties :
#
#
# Convention : Reuss Voigt Hill
#
# Bulk Modulus (GPa) = 29.08383 42.91877 36.00130
# Shear Modulus (GPa) = 16.48269 18.56671 17.52470
#
# Velocity S-wave (km/s) = 3.02661 3.21225 3.12081
# Velocity P-wave (km/s) = 5.32704 6.13274 5.74403
#
# Compressibility (1/GPa) = 0.03438337
#
# Stress axis : x y z
#
# Youngs Moduli (GPa) = 28.42358 80.89298 56.12716
#
# Poissons Ratio (x) = 0.46962 0.19500
# Poissons Ratio (y) = 0.16501 0.34849
# Poissons Ratio (z) = 0.09875 0.50226
#
# Static dielectric constant tensor:
#      x y z
#    x 1.607460 0.000000 0.000000 
#    y 0.000000 1.620300 0.000000 
#    z 0.000000 0.000000 1.648860 
# 
# From -- ./inp_files/34503.got.cif
#   From: 2010.05.17/outbox.cif.g08.bks.cpg/sg64_18_cif.got.tgz:34503.got - 2010.06.03 16:29:19.
