data_PCOD9477320
_publ_section_title
;
Structure prediction by ZEFSAII (Michael W. Deem and Ramdas Pophale) SiO2 
 PCOD9477320
Probable space group: C M C A
;
_chemical_formula_sum "Si O2"
_cell_formula_units_Z 96
_cell_length_a 15.834902
_cell_length_b 24.863104
_cell_length_c 14.030753
_cell_angle_alpha 90.000000
_cell_angle_beta 90.000000
_cell_angle_gamma 90.000000
_cell_volume 5523.975018
_symmetry_space_group_name_H-M "C M C A"
_symmetry_group_IT_number 64
_symmetry_cell_setting 'orthorhombic'
loop_
_space_group_symop_operation_xyz
x,y,z
-x,1/2-y,1/2+z
x,-y,-z
-x,1/2+y,1/2-z
-x,-y,-z
x,1/2+y,1/2-z
-x,y,z
x,1/2-y,1/2+z
1/2+x,1/2+y,z
1/2-x,-y,1/2+z
1/2+x,1/2-y,-z
1/2-x,y,1/2-z
1/2-x,1/2-y,-z
1/2+x,y,1/2-z
1/2-x,1/2+y,z
1/2+x,-y,1/2+z
loop_
_atom_site_type_symbol
_atom_site_label
_atom_site_fract_x
_atom_site_fract_y
_atom_site_fract_z
Si Si1 0.598562 0.293929 0.344482
Si Si2 0.258286 0.798172 0.650834
Si Si3 0.000000 0.074770 0.060697
Si Si4 0.090174 0.232705 0.443921
Si Si5 0.640447 0.649799 0.996090
Si Si6 0.156569 0.104755 0.784591
Si Si7 0.500000 0.534115 0.839632
O O1 0.500000 0.280028 0.321145
O O2 0.668814 0.246896 0.333573
O O3 0.599446 0.301971 0.459318
O O4 0.625725 0.345482 0.282087
O O5 0.250000 0.828831 0.750000
O O6 0.169444 0.772139 0.624066
O O7 0.281318 0.833498 0.560226
O O8 0.917187 0.111312 0.059945
O O9 0.000000 0.029742 0.142168
O O10 0.000000 0.053442 0.950667
O O11 0.091237 0.294750 0.476585
O O12 0.000000 0.220000 0.398661
O O13 0.662800 0.625471 0.893791
O O14 0.250000 0.087834 0.750000
O O15 0.083142 0.059343 0.789676
#
# Coordination Sequence:
#
# PCOD9477320 Si02
#       7
#    16  16   8  16  16  16   8
#     4  10  19  31  49  74 107 137 168 209 259 314
#     4  11  22  32  45  74 109 146 184 210 243 305
#     4   9  18  36  55  72 101 129 170 227 270 312
#     4  10  19  32  48  73 109 151 180 209 249 308
#     4  10  19  33  52  72 104 143 177 212 260 313
#     4  11  19  32  54  80 107 134 169 216 276 325
#     4   9  20  34  53  82  99 123 170 223 278 320
#
# _framework density 17.378789999999999
#
# number of rings (size 3 to 8) (size 9 to 14) (size 15 to 20)
#    0.000    1.833    1.667    5.500    1.167    2.000 
#    0.000    0.833    0.000    0.000    0.000    0.000 
#    0.000    5.833    0.000    0.000    0.000    0.000 
#
# Total GULP energy -267345.230469 kJ/mol
# GULP energy per Si atom -5569.692301 kJ/mol
# Density = 1.733924 g / cm^3
# Si number density = 17.378790 Si / 1000 Ang^3
#
#
#
# Elastic Constant Matrix: (Units=GPa)
#
#
# Indices 1 2 3 4 5 6 
#
# 1 155.9583 40.9745 54.0061 0.0000 0.0000 0.0000
# 2 40.9745 65.3879 30.4500 0.0000 0.0000 0.0000
# 3 54.0061 30.4500 79.3768 0.0000 0.0000 0.0000
# 4 0.0000 0.0000 0.0000 19.6739 0.0000 0.0000
# 5 0.0000 0.0000 0.0000 0.0000 -23.4089 0.0000
# 6 0.0000 0.0000 0.0000 0.0000 0.0000 18.1759
#
#
#
# Elastic Compliance Matrix: (Units=1/GPa)
#
#
# Indices 1 2 3 4 5 6 
#
# 1 0.008963 -0.003381 -0.004801 0.000000 0.000000 0.000000
# 2 -0.003381 0.019895 -0.005332 0.000000 0.000000 0.000000
# 3 -0.004801 -0.005332 0.017910 0.000000 0.000000 0.000000
# 4 0.000000 0.000000 0.000000 0.050829 0.000000 0.000000
# 5 0.000000 0.000000 0.000000 0.000000 -0.042719 0.000000
# 6 0.000000 0.000000 0.000000 0.000000 0.000000 0.055018
#
#
# Mechanical properties :
#
#
# Convention : Reuss Voigt Hill
#
# Bulk Modulus (GPa) = 50.65756 61.28712 55.97234
# Shear Modulus (GPa) = 34.84258 14.57435 24.70847
#
# Velocity S-wave (km/s) = 4.48246 2.89905 3.77471
# Velocity P-wave (km/s) = 7.48347 6.82261 7.16067
#
# Compressibility (1/GPa) = 0.01974039
#
# Stress axis : x y z
#
# Youngs Moduli (GPa) = 111.57337 50.26480 55.83435
#
# Poissons Ratio (x) = 0.16992 0.26807
# Poissons Ratio (y) = 0.37718 0.29770
# Poissons Ratio (z) = 0.53569 0.26800
#
# Static dielectric constant tensor:
#      x y z
#    x 1.659540 0.000000 0.000000 
#    y 0.000000 1.592240 0.000000 
#    z 0.000000 0.000000 1.609270 
# 
# From -- ./inp_files/24149.got.cif
#   From: 2010.05.17/outbox.cif.g08.bks.cpg/sg64_13_cif.got.tgz:24149.got - 2010.06.03 16:29:19.
