data_PCOD9477779
_publ_section_title
;
Structure prediction by ZEFSAII (Michael W. Deem and Ramdas Pophale) SiO2 
 PCOD9477779
Probable space group: C M C A
;
_chemical_formula_sum "Si O2"
_cell_formula_units_Z 120
_cell_length_a 25.013790
_cell_length_b 27.990942
_cell_length_c 9.755999
_cell_angle_alpha 90.000000
_cell_angle_beta 90.000000
_cell_angle_gamma 90.000000
_cell_volume 6830.755822
_symmetry_space_group_name_H-M "C M C A"
_symmetry_group_IT_number 64
_symmetry_cell_setting 'orthorhombic'
loop_
_space_group_symop_operation_xyz
x,y,z
-x,1/2-y,1/2+z
x,-y,-z
-x,1/2+y,1/2-z
-x,-y,-z
x,1/2+y,1/2-z
-x,y,z
x,1/2-y,1/2+z
1/2+x,1/2+y,z
1/2-x,-y,1/2+z
1/2+x,1/2-y,-z
1/2-x,y,1/2-z
1/2-x,1/2-y,-z
1/2+x,y,1/2-z
1/2-x,1/2+y,z
1/2+x,-y,1/2+z
loop_
_atom_site_type_symbol
_atom_site_label
_atom_site_fract_x
_atom_site_fract_y
_atom_site_fract_z
Si Si1 0.133003 0.883093 0.276872
Si Si2 0.250000 0.384619 0.250000
Si Si3 0.144913 0.054570 0.448848
Si Si4 0.738764 0.556218 0.028085
Si Si5 0.935304 0.795889 0.665079
Si Si6 0.564627 0.206058 0.847466
Si Si7 0.879103 0.942573 0.000479
Si Si8 0.562871 0.902316 0.743485
O O1 0.192256 0.859926 0.256970
O O2 0.133687 0.911805 0.419955
O O3 0.089473 0.841687 0.283872
O O4 0.123467 0.920296 0.152738
O O5 0.247579 0.417896 0.383208
O O6 0.205433 0.064767 0.393779
O O7 0.099370 0.064310 0.338589
O O8 0.144204 0.000000 0.500000
O O9 0.736114 0.500000 0.000000
O O10 0.678592 0.569228 0.070109
O O11 0.918307 0.790779 0.506892
O O12 0.917761 0.752314 0.761118
O O13 0.920666 0.847709 0.724372
O O14 0.000000 0.794446 0.664587
O O15 0.500000 0.203561 0.844237
O O16 0.924350 0.917162 0.911453
O O17 0.886044 0.000000 0.000000
O O18 0.500000 0.907321 0.773874
#
# Coordination Sequence:
#
# PCOD9477779 Si02
#       8
#    16   8  16  16  16  16  16  16
#     4  10  19  34  57  80 107 144 182 220 269 329
#     4   8  16  30  48  76 108 138 168 220 278 312
#     4  10  19  34  57  81 107 144 183 223 270 315
#     4   8  16  30  52  77 101 135 186 234 260 296
#     4   9  20  37  56  81 104 130 176 231 276 314
#     4  10  20  36  60  82 100 130 179 231 276 322
#     4  10  21  36  53  79 114 150 187 220 260 313
#     4  11  23  37  51  77 118 146 174 225 271 318
#
# _framework density 17.567602000000001
#
# number of rings (size 3 to 8) (size 9 to 14) (size 15 to 20)
#    0.000    2.400    1.333    0.800    1.867    4.800 
#    0.000    1.333    0.000    2.400    0.000    0.000 
#    0.000    0.000    0.000    0.000    0.000    0.000 
#
# Total GULP energy -334197.166425 kJ/mol
# GULP energy per Si atom -5569.952774 kJ/mol
# Density = 1.752762 g / cm^3
# Si number density = 17.567602 Si / 1000 Ang^3
#
#
#
# Elastic Constant Matrix: (Units=GPa)
#
#
# Indices 1 2 3 4 5 6 
#
# 1 60.3922 17.5974 9.9455 0.0000 0.0000 0.0000
# 2 17.5974 77.0309 16.1325 0.0000 0.0000 0.0000
# 3 9.9455 16.1325 58.1055 0.0000 0.0000 0.0000
# 4 0.0000 0.0000 0.0000 -330.7947 0.0000 0.0000
# 5 0.0000 0.0000 0.0000 0.0000 24.4489 0.0000
# 6 0.0000 0.0000 0.0000 0.0000 0.0000 11.4781
#
#
#
# Elastic Compliance Matrix: (Units=1/GPa)
#
#
# Indices 1 2 3 4 5 6 
#
# 1 0.017967 -0.003674 -0.002055 0.000000 0.000000 0.000000
# 2 -0.003674 0.014535 -0.003407 0.000000 0.000000 0.000000
# 3 -0.002055 -0.003407 0.018508 0.000000 0.000000 0.000000
# 4 0.000000 0.000000 0.000000 -0.003023 0.000000 0.000000
# 5 0.000000 0.000000 0.000000 0.000000 0.040902 0.000000
# 6 0.000000 0.000000 0.000000 0.000000 0.000000 0.087123
#
#
# Mechanical properties :
#
#
# Convention : Reuss Voigt Hill
#
# Bulk Modulus (GPa) = 30.54571 31.43104 30.98838
# Shear Modulus (GPa) = 24.36702 -48.85000 -12.24149
#
# Velocity S-wave (km/s) = 3.72834 -5.27894 -2.64260
# Velocity P-wave (km/s) = 5.99661 4.38474 2.89252
#
# Compressibility (1/GPa) = 0.03273782
#
# Stress axis : x y z
#
# Youngs Moduli (GPa) = 55.65611 68.80145 54.03170
#
# Poissons Ratio (x) = 0.25279 0.11105
# Poissons Ratio (y) = 0.20449 0.18406
# Poissons Ratio (z) = 0.11439 0.23437
#
# Static dielectric constant tensor:
#      x y z
#    x 1.635560 0.000000 0.000000 
#    y 0.000000 1.561100 0.000000 
#    z 0.000000 0.000000 1.611070 
# 
# From -- ./inp_files/10710.got.cif
#   From: 2010.05.17/outbox.cif.g08.bks.cpg/sg64_6_cif.got.tgz:10710.got - 2010.06.03 16:29:19.
