data_PCOD9477036
_publ_section_title
;
Structure prediction by ZEFSAII (Michael W. Deem and Ramdas Pophale) SiO2 
 PCOD9477036
Probable space group: C M C A
;
_chemical_formula_sum "Si O2"
_cell_formula_units_Z 80
_cell_length_a 25.290095
_cell_length_b 8.839225
_cell_length_c 16.994755
_cell_angle_alpha 90.000000
_cell_angle_beta 90.000000
_cell_angle_gamma 90.000000
_cell_volume 3799.089787
_symmetry_space_group_name_H-M "C M C A"
_symmetry_group_IT_number 64
_symmetry_cell_setting 'orthorhombic'
loop_
_space_group_symop_operation_xyz
x,y,z
-x,1/2-y,1/2+z
x,-y,-z
-x,1/2+y,1/2-z
-x,-y,-z
x,1/2+y,1/2-z
-x,y,z
x,1/2-y,1/2+z
1/2+x,1/2+y,z
1/2-x,-y,1/2+z
1/2+x,1/2-y,-z
1/2-x,y,1/2-z
1/2-x,1/2-y,-z
1/2+x,y,1/2-z
1/2-x,1/2+y,z
1/2+x,-y,1/2+z
loop_
_atom_site_type_symbol
_atom_site_label
_atom_site_fract_x
_atom_site_fract_y
_atom_site_fract_z
Si Si1 0.089202 0.792734 0.773115
Si Si2 0.768466 0.092937 0.424851
Si Si3 0.163528 0.545070 0.791589
Si Si4 0.823650 0.592409 0.607875
Si Si5 0.443246 0.575341 0.865388
O O1 0.129076 0.685626 0.821270
O O2 0.059266 0.684862 0.711757
O O3 0.124496 0.903869 0.719591
O O4 0.058918 0.905193 0.830610
O O5 0.790351 0.263067 0.422602
O O6 0.788657 0.000000 0.500000
O O7 0.790852 0.008156 0.348096
O O8 0.705628 0.060487 0.420324
O O9 0.180044 0.590050 0.703228
O O10 0.886702 0.599428 0.591408
O O11 0.500000 0.601079 0.905716
#
# Coordination Sequence:
#
# PCOD9477036 Si02
#       5
#    16  16  16  16  16
#     4   8  17  31  56  88 116 150 197 245 307 336
#     4  12  24  40  60  92 123 161 196 250 302 360
#     4  10  18  37  60  85 121 153 196 244 297 363
#     4  10  24  38  58  91 116 161 197 245 307 349
#     4  10  18  34  57  84 121 151 202 253 295 348
#
# _framework density 21.057677000000002
#
# number of rings (size 3 to 8) (size 9 to 14) (size 15 to 20)
#    0.000    2.400    4.000    1.800    5.600    1.600 
#    0.000    0.000    0.000    1.200    0.000    0.000 
#    0.000    0.000    0.000    0.000    0.000    0.000 
#
# Total GULP energy -222996.157415 kJ/mol
# GULP energy per Si atom -5574.903935 kJ/mol
# Density = 2.100975 g / cm^3
# Si number density = 21.057677 Si / 1000 Ang^3
#
#
#
# Elastic Constant Matrix: (Units=GPa)
#
#
# Indices 1 2 3 4 5 6 
#
# 1 170.7806 52.1288 9.8261 0.0000 0.0000 0.0000
# 2 52.1288 133.4965 12.1173 0.0000 0.0000 0.0000
# 3 9.8261 12.1173 43.5429 0.0000 0.0000 0.0000
# 4 0.0000 0.0000 0.0000 29.8502 0.0000 0.0000
# 5 0.0000 0.0000 0.0000 0.0000 0.3210 0.0000
# 6 0.0000 0.0000 0.0000 0.0000 0.0000 4.7842
#
#
#
# Elastic Compliance Matrix: (Units=1/GPa)
#
#
# Indices 1 2 3 4 5 6 
#
# 1 0.006675 -0.002534 -0.000801 0.000000 0.000000 0.000000
# 2 -0.002534 0.008647 -0.001834 0.000000 0.000000 0.000000
# 3 -0.000801 -0.001834 0.023657 0.000000 0.000000 0.000000
# 4 0.000000 0.000000 0.000000 0.033501 0.000000 0.000000
# 5 0.000000 0.000000 0.000000 0.000000 3.115363 0.000000
# 6 0.000000 0.000000 0.000000 0.000000 0.000000 0.209020
#
#
# Mechanical properties :
#
#
# Convention : Reuss Voigt Hill
#
# Bulk Modulus (GPa) = 34.91621 55.10714 45.01168
# Shear Modulus (GPa) = 1.46338 25.24094 13.35216
#
# Velocity S-wave (km/s) = 0.83453 3.46592 2.52082
# Velocity P-wave (km/s) = 4.18877 6.49948 5.46759
#
# Compressibility (1/GPa) = 0.02863999
#
# Stress axis : x y z
#
# Youngs Moduli (GPa) = 149.81349 115.65041 42.27055
#
# Poissons Ratio (x) = 0.29303 0.03387
# Poissons Ratio (y) = 0.37959 0.07754
# Poissons Ratio (z) = 0.12003 0.21216
#
# Static dielectric constant tensor:
#      x y z
#    x 1.831530 0.000000 0.000000 
#    y 0.000000 1.794630 0.000000 
#    z 0.000000 0.000000 1.766920 
# 
# From -- ./inp_files/35372.got.cif
#   From: 2010.05.17/outbox.cif.g08.bks.cpg/sg64_18_cif.got.tgz:35372.got - 2010.06.03 16:29:19.
