data_PCOD9477894
_publ_section_title
;
Structure prediction by ZEFSAII (Michael W. Deem and Ramdas Pophale) SiO2 
 PCOD9477894
Probable space group: C M C A
;
_chemical_formula_sum "Si O2"
_cell_formula_units_Z 96
_cell_length_a 7.668914
_cell_length_b 29.941561
_cell_length_c 20.931635
_cell_angle_alpha 90.000000
_cell_angle_beta 90.000000
_cell_angle_gamma 90.000000
_cell_volume 4806.306463
_symmetry_space_group_name_H-M "C M C A"
_symmetry_group_IT_number 64
_symmetry_cell_setting 'orthorhombic'
loop_
_space_group_symop_operation_xyz
x,y,z
-x,1/2-y,1/2+z
x,-y,-z
-x,1/2+y,1/2-z
-x,-y,-z
x,1/2+y,1/2-z
-x,y,z
x,1/2-y,1/2+z
1/2+x,1/2+y,z
1/2-x,-y,1/2+z
1/2+x,1/2-y,-z
1/2-x,y,1/2-z
1/2-x,1/2-y,-z
1/2+x,y,1/2-z
1/2-x,1/2+y,z
1/2+x,-y,1/2+z
loop_
_atom_site_type_symbol
_atom_site_label
_atom_site_fract_x
_atom_site_fract_y
_atom_site_fract_z
Si Si1 0.702732 0.876570 0.861580
Si Si2 0.211032 0.469168 0.059436
Si Si3 0.709397 0.280243 0.061416
Si Si4 0.209580 0.027061 0.321946
Si Si5 0.205348 0.126619 0.991534
Si Si6 0.209956 0.779699 0.677536
O O1 0.500000 0.876401 0.841927
O O2 0.779677 0.922855 0.835358
O O3 0.778990 0.829777 0.836933
O O4 0.710881 0.877406 0.938443
O O5 0.272735 0.492539 0.124446
O O6 0.269725 0.418862 0.047224
O O7 0.000000 0.468689 0.059320
O O8 0.267307 0.500000 0.000000
O O9 0.500000 0.283169 0.067923
O O10 0.773985 0.330057 0.046079
O O11 0.776387 0.255127 0.124522
O O12 0.750000 0.250000 0.000000
O O13 0.250000 0.013587 0.250000
O O14 0.000000 0.029107 0.329461
O O15 0.000000 0.133252 0.003320
O O16 0.250000 0.767065 0.750000
O O17 0.000000 0.781489 0.670168
#
# Coordination Sequence:
#
# PCOD9477894 Si02
#       6
#    16  16  16  16  16  16
#     4  10  19  35  57  81 113 150 181 221 279 339
#     4  10  20  38  60  79 108 149 190 225 270 336
#     4  10  21  37  57  82 112 147 186 230 276 328
#     4  10  21  36  56  82 111 146 184 226 275 331
#     4  11  22  34  55  88 116 140 183 238 280 319
#     4  10  21  36  56  81 113 149 185 228 278 332
#
# _framework density 19.973758
#
# number of rings (size 3 to 8) (size 9 to 14) (size 15 to 20)
#    0.000    1.833    3.333    1.000    0.000    3.667 
#    0.000    0.833    0.000    4.000    0.000    0.000 
#    0.000    0.000    0.000    0.000    0.000    0.000 
#
# Total GULP energy -268107.248353 kJ/mol
# GULP energy per Si atom -5585.567674 kJ/mol
# Density = 1.992830 g / cm^3
# Si number density = 19.973758 Si / 1000 Ang^3
#
#
#
# Elastic Constant Matrix: (Units=GPa)
#
#
# Indices 1 2 3 4 5 6 
#
# 1 30.7953 -7.7553 -17.1616 0.0000 0.0000 0.0000
# 2 -7.7553 151.1660 75.9205 0.0000 0.0000 0.0000
# 3 -17.1616 75.9205 158.1136 0.0000 0.0000 0.0000
# 4 0.0000 0.0000 0.0000 23.1311 0.0000 0.0000
# 5 0.0000 0.0000 0.0000 0.0000 20.8303 0.0000
# 6 0.0000 0.0000 0.0000 0.0000 0.0000 11.3356
#
#
#
# Elastic Compliance Matrix: (Units=1/GPa)
#
#
# Indices 1 2 3 4 5 6 
#
# 1 0.034566 -0.000146 0.003822 0.000000 0.000000 0.000000
# 2 -0.000146 0.008718 -0.004202 0.000000 0.000000 0.000000
# 3 0.003822 -0.004202 0.008757 0.000000 0.000000 0.000000
# 4 0.000000 0.000000 0.000000 0.043232 0.000000 0.000000
# 5 0.000000 0.000000 0.000000 0.000000 0.048007 0.000000
# 6 0.000000 0.000000 0.000000 0.000000 0.000000 0.088218
#
#
# Mechanical properties :
#
#
# Convention : Reuss Voigt Hill
#
# Bulk Modulus (GPa) = 19.61238 49.12024 34.36631
# Shear Modulus (GPa) = 20.03639 30.33082 25.18360
#
# Velocity S-wave (km/s) = 3.17067 3.90106 3.55468
# Velocity P-wave (km/s) = 4.82126 6.70350 5.83872
#
# Compressibility (1/GPa) = 0.05098820
#
# Stress axis : x y z
#
# Youngs Moduli (GPa) = 28.93055 114.70353 114.19378
#
# Poissons Ratio (x) = 0.01677 -0.43644
# Poissons Ratio (y) = 0.00423 0.47984
# Poissons Ratio (z) = -0.11057 0.48198
#
# Static dielectric constant tensor:
#      x y z
#    x 1.556840 0.000000 0.000000 
#    y 0.000000 1.707980 0.000000 
#    z 0.000000 0.000000 1.670440 
# 
# From -- ./inp_files/37104.got.cif
#   From: 2010.05.17/outbox.cif.g08.bks.cpg/sg64_19_cif.got.tgz:37104.got - 2010.06.03 16:29:19.
