data_PCOD9477705
_publ_section_title
;
Structure prediction by ZEFSAII (Michael W. Deem and Ramdas Pophale) SiO2 
 PCOD9477705
Probable space group: C M C A
;
_chemical_formula_sum "Si O2"
_cell_formula_units_Z 96
_cell_length_a 14.751835
_cell_length_b 10.811135
_cell_length_c 29.583559
_cell_angle_alpha 90.000000
_cell_angle_beta 90.000000
_cell_angle_gamma 90.000000
_cell_volume 4718.106681
_symmetry_space_group_name_H-M "C M C A"
_symmetry_group_IT_number 64
_symmetry_cell_setting 'orthorhombic'
loop_
_space_group_symop_operation_xyz
x,y,z
-x,1/2-y,1/2+z
x,-y,-z
-x,1/2+y,1/2-z
-x,-y,-z
x,1/2+y,1/2-z
-x,y,z
x,1/2-y,1/2+z
1/2+x,1/2+y,z
1/2-x,-y,1/2+z
1/2+x,1/2-y,-z
1/2-x,y,1/2-z
1/2-x,1/2-y,-z
1/2+x,y,1/2-z
1/2-x,1/2+y,z
1/2+x,-y,1/2+z
loop_
_atom_site_type_symbol
_atom_site_label
_atom_site_fract_x
_atom_site_fract_y
_atom_site_fract_z
Si Si1 0.109227 0.767137 0.112858
Si Si2 0.609432 0.486532 0.385899
Si Si3 0.644373 0.123678 0.978086
Si Si4 0.110755 0.726477 0.715755
Si Si5 0.143842 0.626283 0.519279
Si Si6 0.110668 0.490750 0.217348
O O1 0.139934 0.626534 0.101950
O O2 0.139150 0.796915 0.163818
O O3 0.136498 0.858585 0.073093
O O4 0.000000 0.764579 0.113674
O O5 0.500000 0.486374 0.386170
O O6 0.639775 0.392250 0.424267
O O7 0.638230 0.462531 0.334375
O O8 0.749533 0.124971 0.992241
O O9 0.604086 0.250422 0.996651
O O10 0.603092 0.000000 0.000000
O O11 0.140794 0.616773 0.748740
O O12 0.000000 0.726307 0.716349
O O13 0.138159 0.867414 0.728317
O O14 0.104620 0.500000 0.500000
O O15 0.000000 0.490983 0.218002
#
# Coordination Sequence:
#
# PCOD9477705 Si02
#       6
#    16  16  16  16  16  16
#     4   9  17  31  51  73  98 127 157 194 242 284
#     4   9  17  30  52  77  94 120 165 204 231 272
#     4  10  19  34  53  69  91 129 166 193 232 285
#     4   8  14  26  45  67  93 124 152 185 232 282
#     4  10  21  34  48  70  98 128 161 195 238 291
#     4   8  14  26  44  68  96 121 150 188 232 282
#
# _framework density 20.347145999999999
#
# number of rings (size 3 to 8) (size 9 to 14) (size 15 to 20)
#    0.000    3.000    1.667    2.000    0.000    1.333 
#    3.000    0.000    0.000    1.000    0.000    4.667 
#    0.000    0.000    0.000    0.000    0.000    0.000 
#
# Total GULP energy -267610.404019 kJ/mol
# GULP energy per Si atom -5575.216750 kJ/mol
# Density = 2.030084 g / cm^3
# Si number density = 20.347146 Si / 1000 Ang^3
#
#
#
# Elastic Constant Matrix: (Units=GPa)
#
#
# Indices 1 2 3 4 5 6 
#
# 1 42.2140 10.2992 -4.8452 0.0000 0.0000 0.0000
# 2 10.2992 174.7962 110.4916 0.0000 0.0000 0.0000
# 3 -4.8452 110.4916 133.4285 0.0000 0.0000 0.0000
# 4 0.0000 0.0000 0.0000 42.5716 0.0000 0.0000
# 5 0.0000 0.0000 0.0000 0.0000 24.6667 0.0000
# 6 0.0000 0.0000 0.0000 0.0000 0.0000 -6.7839
#
#
#
# Elastic Compliance Matrix: (Units=1/GPa)
#
#
# Indices 1 2 3 4 5 6 
#
# 1 0.025266 -0.004341 0.004512 0.000000 0.000000 0.000000
# 2 -0.004341 0.012751 -0.010717 0.000000 0.000000 0.000000
# 3 0.004512 -0.010717 0.016533 0.000000 0.000000 0.000000
# 4 0.000000 0.000000 0.000000 0.023490 0.000000 0.000000
# 5 0.000000 0.000000 0.000000 0.000000 0.040540 0.000000
# 6 0.000000 0.000000 0.000000 0.000000 0.000000 -0.147409
#
#
# Mechanical properties :
#
#
# Convention : Reuss Voigt Hill
#
# Bulk Modulus (GPa) = 29.88741 64.70331 47.29536
# Shear Modulus (GPa) = 1464.42976 27.72378 746.07677
#
# Velocity S-wave (km/s) = 26.85675 3.69526 19.16951
# Velocity P-wave (km/s) = 31.24794 7.07639 22.65512
#
# Compressibility (1/GPa) = 0.03345891
#
# Stress axis : x y z
#
# Youngs Moduli (GPa) = 39.57919 78.42636 60.48574
#
# Poissons Ratio (x) = 0.34044 -0.27292
# Poissons Ratio (y) = 0.17181 0.64820
# Poissons Ratio (z) = -0.17859 0.84046
#
# Static dielectric constant tensor:
#      x y z
#    x 1.727730 0.000000 0.000000 
#    y 0.000000 1.752000 0.000000 
#    z 0.000000 0.000000 1.719380 
# 
# From -- ./inp_files/50384.got.cif
#   From: 2010.05.17/outbox.cif.g08.bks.cpg/sg64_26_cif.got.tgz:50384.got - 2010.06.03 16:29:19.
