data_PCOD9477584
_publ_section_title
;
Structure prediction by ZEFSAII (Michael W. Deem and Ramdas Pophale) SiO2 
 PCOD9477584
Probable space group: C M C A
;
_chemical_formula_sum "Si O2"
_cell_formula_units_Z 64
_cell_length_a 18.136440
_cell_length_b 19.753191
_cell_length_c 10.140836
_cell_angle_alpha 90.000000
_cell_angle_beta 90.000000
_cell_angle_gamma 90.000000
_cell_volume 3632.980492
_symmetry_space_group_name_H-M "C M C A"
_symmetry_group_IT_number 64
_symmetry_cell_setting 'orthorhombic'
loop_
_space_group_symop_operation_xyz
x,y,z
-x,1/2-y,1/2+z
x,-y,-z
-x,1/2+y,1/2-z
-x,-y,-z
x,1/2+y,1/2-z
-x,y,z
x,1/2-y,1/2+z
1/2+x,1/2+y,z
1/2-x,-y,1/2+z
1/2+x,1/2-y,-z
1/2-x,y,1/2-z
1/2-x,1/2-y,-z
1/2+x,y,1/2-z
1/2-x,1/2+y,z
1/2+x,-y,1/2+z
loop_
_atom_site_type_symbol
_atom_site_label
_atom_site_fract_x
_atom_site_fract_y
_atom_site_fract_z
Si Si1 0.692006 0.189544 0.629403
Si Si2 0.412869 0.103729 0.796265
Si Si3 0.316191 0.020399 0.150862
Si Si4 0.172641 0.161645 0.453545
O O1 0.750000 0.196228 0.750000
O O2 0.629564 0.137680 0.673929
O O3 0.743357 0.164377 0.509649
O O4 0.659215 0.263374 0.599870
O O5 0.500000 0.108737 0.787572
O O6 0.381146 0.142516 0.925589
O O7 0.384908 0.026798 0.812046
O O8 0.250000 0.004330 0.250000
O O9 0.332721 0.100168 0.148796
O O10 0.296056 0.000000 0.000000
#
# Coordination Sequence:
#
# PCOD9477584 Si02
#       4
#    16  16  16  16
#     4   9  17  33  52  74  99 128 168 218 264 300
#     4  10  20  32  47  72 106 137 165 206 261 315
#     4  10  19  33  54  77 100 133 174 215 256 302
#     4   9  18  31  54  76  95 128 175 217 254 306
#
# _framework density 17.616389999999999
#
# number of rings (size 3 to 8) (size 9 to 14) (size 15 to 20)
#    0.000    2.500    0.000    4.500    0.000    5.500 
#    0.000    0.000    0.000    6.750    0.000    0.000 
#    0.000    0.000    0.000    0.000    0.000    0.000 
#
# Total GULP energy -178445.044413 kJ/mol
# GULP energy per Si atom -5576.407638 kJ/mol
# Density = 1.757629 g / cm^3
# Si number density = 17.616390 Si / 1000 Ang^3
#
#
#
# Elastic Constant Matrix: (Units=GPa)
#
#
# Indices 1 2 3 4 5 6 
#
# 1 102.8365 53.3061 27.9254 0.0000 0.0000 0.0000
# 2 53.3061 140.7666 23.4669 0.0000 0.0000 0.0000
# 3 27.9254 23.4669 32.2157 0.0000 0.0000 0.0000
# 4 0.0000 0.0000 0.0000 21.4318 0.0000 0.0000
# 5 0.0000 0.0000 0.0000 0.0000 6.4793 0.0000
# 6 0.0000 0.0000 0.0000 0.0000 0.0000 6.6920
#
#
#
# Elastic Compliance Matrix: (Units=1/GPa)
#
#
# Indices 1 2 3 4 5 6 
#
# 1 0.014318 -0.003816 -0.009631 0.000000 0.000000 0.000000
# 2 -0.003816 0.009103 -0.003323 0.000000 0.000000 0.000000
# 3 -0.009631 -0.003323 0.041810 0.000000 0.000000 0.000000
# 4 0.000000 0.000000 0.000000 0.046660 0.000000 0.000000
# 5 0.000000 0.000000 0.000000 0.000000 0.154338 0.000000
# 6 0.000000 0.000000 0.000000 0.000000 0.000000 0.149433
#
#
# Mechanical properties :
#
#
# Convention : Reuss Voigt Hill
#
# Bulk Modulus (GPa) = 31.55571 53.91287 42.73429
# Shear Modulus (GPa) = 10.87510 18.32862 14.60186
#
# Velocity S-wave (km/s) = 2.48731 3.22907 2.88215
# Velocity P-wave (km/s) = 5.11864 6.67628 5.94867
#
# Compressibility (1/GPa) = 0.03168999
#
# Stress axis : x y z
#
# Youngs Moduli (GPa) = 69.84346 109.85281 23.91790
#
# Poissons Ratio (x) = 0.41923 0.23035
# Poissons Ratio (y) = 0.26655 0.07948
# Poissons Ratio (z) = 0.67267 0.36503
#
# Static dielectric constant tensor:
#      x y z
#    x 1.554060 0.000000 0.000000 
#    y 0.000000 1.633390 0.000000 
#    z 0.000000 0.000000 1.634890 
# 
# From -- ./inp_files/14021.got.cif
#   From: 2010.05.17/outbox.cif.g08.bks.cpg/sg64_8_cif.got.tgz:14021.got - 2010.06.03 16:29:19.
