data_PCOD9477224
_publ_section_title
;
Structure prediction by ZEFSAII (Michael W. Deem and Ramdas Pophale) SiO2 
 PCOD9477224
Probable space group: C M C A
;
_chemical_formula_sum "Si O2"
_cell_formula_units_Z 96
_cell_length_a 7.638149
_cell_length_b 20.256312
_cell_length_c 30.913879
_cell_angle_alpha 90.000000
_cell_angle_beta 90.000000
_cell_angle_gamma 90.000000
_cell_volume 4783.017903
_symmetry_space_group_name_H-M "C M C A"
_symmetry_group_IT_number 64
_symmetry_cell_setting 'orthorhombic'
loop_
_space_group_symop_operation_xyz
x,y,z
-x,1/2-y,1/2+z
x,-y,-z
-x,1/2+y,1/2-z
-x,-y,-z
x,1/2+y,1/2-z
-x,y,z
x,1/2-y,1/2+z
1/2+x,1/2+y,z
1/2-x,-y,1/2+z
1/2+x,1/2-y,-z
1/2-x,y,1/2-z
1/2-x,1/2-y,-z
1/2+x,y,1/2-z
1/2-x,1/2+y,z
1/2+x,-y,1/2+z
loop_
_atom_site_type_symbol
_atom_site_label
_atom_site_fract_x
_atom_site_fract_y
_atom_site_fract_z
Si Si1 0.791672 0.335758 0.199868
Si Si2 0.712564 0.072088 0.481620
Si Si3 0.796125 0.407126 0.882506
Si Si4 0.790534 0.351680 0.436485
Si Si5 0.793770 0.737891 0.124502
Si Si6 0.711398 0.451748 0.359685
O O1 0.750000 0.328658 0.250000
O O2 0.721243 0.277938 0.169121
O O3 0.727140 0.405128 0.179491
O O4 0.000000 0.334594 0.194727
O O5 0.500000 0.073993 0.478890
O O6 0.785475 0.083052 0.434076
O O7 0.773210 0.126720 0.516388
O O8 0.760489 0.000000 0.500000
O O9 0.717209 0.335392 0.872649
O O10 0.719359 0.473734 0.861637
O O11 0.000000 0.405066 0.869081
O O12 0.719618 0.285971 0.413054
O O13 0.757522 0.412026 0.403365
O O14 0.000000 0.344565 0.439789
O O15 0.000000 0.730181 0.114648
O O16 0.500000 0.455087 0.358081
#
# Coordination Sequence:
#
# PCOD9477224 Si02
#       6
#    16  16  16  16  16  16
#     4  10  20  36  58  80  99 125 161 201 247 302
#     4  10  19  30  46  71 102 138 179 220 254 292
#     4  10  20  33  50  74 104 136 169 210 257 300
#     4   9  17  31  49  69  97 136 178 213 248 291
#     4   9  19  35  53  74 103 137 169 207 255 303
#     4   9  18  32  51  74 100 128 163 205 247 295
#
# _framework density 20.071009
#
# number of rings (size 3 to 8) (size 9 to 14) (size 15 to 20)
#    0.000    2.500    1.667    0.500    0.000    3.000 
#    0.000    0.833    0.000    2.000    0.000    0.000 
#    0.000    0.000    0.000    0.000    0.000    0.000 
#
# Total GULP energy -267765.230427 kJ/mol
# GULP energy per Si atom -5578.442301 kJ/mol
# Density = 2.002533 g / cm^3
# Si number density = 20.071009 Si / 1000 Ang^3
#
#
#
# Elastic Constant Matrix: (Units=GPa)
#
#
# Indices 1 2 3 4 5 6 
#
# 1 39.7448 1.6610 -15.0386 0.0000 0.0000 0.0000
# 2 1.6610 175.3986 36.1371 0.0000 0.0000 0.0000
# 3 -15.0386 36.1371 57.1223 0.0000 0.0000 0.0000
# 4 0.0000 0.0000 0.0000 7.4167 0.0000 0.0000
# 5 0.0000 0.0000 0.0000 0.0000 4.3331 0.0000
# 6 0.0000 0.0000 0.0000 0.0000 0.0000 6.5230
#
#
#
# Elastic Compliance Matrix: (Units=1/GPa)
#
#
# Indices 1 2 3 4 5 6 
#
# 1 0.028598 -0.002095 0.008855 0.000000 0.000000 0.000000
# 2 -0.002095 0.006709 -0.004796 0.000000 0.000000 0.000000
# 3 0.008855 -0.004796 0.022872 0.000000 0.000000 0.000000
# 4 0.000000 0.000000 0.000000 0.134831 0.000000 0.000000
# 5 0.000000 0.000000 0.000000 0.000000 0.230784 0.000000
# 6 0.000000 0.000000 0.000000 0.000000 0.000000 0.153303
#
#
# Mechanical properties :
#
#
# Convention : Reuss Voigt Hill
#
# Bulk Modulus (GPa) = 16.10148 35.30940 25.70544
# Shear Modulus (GPa) = 8.41932 20.28830 14.35381
#
# Velocity S-wave (km/s) = 2.05033 3.18280 2.67713
# Velocity P-wave (km/s) = 3.69389 5.58009 4.73192
#
# Compressibility (1/GPa) = 0.06210610
#
# Stress axis : x y z
#
# Youngs Moduli (GPa) = 34.96689 149.04773 43.72246
#
# Poissons Ratio (x) = 0.31227 -0.38714
# Poissons Ratio (y) = 0.07326 0.20969
# Poissons Ratio (z) = -0.30962 0.71484
#
# Static dielectric constant tensor:
#      x y z
#    x 1.734950 0.000000 0.000000 
#    y 0.000000 1.757330 0.000000 
#    z 0.000000 0.000000 1.777130 
# 
# From -- ./inp_files/48109.got.cif
#   From: 2010.05.17/outbox.cif.g08.bks.cpg/sg64_25_cif.got.tgz:48109.got - 2010.06.03 16:29:19.
