data_PCOD9477799
_publ_section_title
;
Structure prediction by ZEFSAII (Michael W. Deem and Ramdas Pophale) SiO2 
 PCOD9477799
Probable space group: C M C A
;
_chemical_formula_sum "Si O2"
_cell_formula_units_Z 68
_cell_length_a 7.859914
_cell_length_b 24.391877
_cell_length_c 19.667425
_cell_angle_alpha 90.000000
_cell_angle_beta 90.000000
_cell_angle_gamma 90.000000
_cell_volume 3770.600478
_symmetry_space_group_name_H-M "C M C A"
_symmetry_group_IT_number 64
_symmetry_cell_setting 'orthorhombic'
loop_
_space_group_symop_operation_xyz
x,y,z
-x,1/2-y,1/2+z
x,-y,-z
-x,1/2+y,1/2-z
-x,-y,-z
x,1/2+y,1/2-z
-x,y,z
x,1/2-y,1/2+z
1/2+x,1/2+y,z
1/2-x,-y,1/2+z
1/2+x,1/2-y,-z
1/2-x,y,1/2-z
1/2-x,1/2-y,-z
1/2+x,y,1/2-z
1/2-x,1/2+y,z
1/2+x,-y,1/2+z
loop_
_atom_site_type_symbol
_atom_site_label
_atom_site_fract_x
_atom_site_fract_y
_atom_site_fract_z
Si Si1 0.703255 0.263812 0.826484
Si Si2 0.309892 0.416225 0.036238
Si Si3 0.804542 0.192522 0.466607
Si Si4 0.296358 0.863485 0.173380
Si Si5 0.000000 0.500000 0.000000
O O1 0.500000 0.265232 0.834263
O O2 0.750000 0.280746 0.750000
O O3 0.783077 0.299760 0.885949
O O4 0.759264 0.200206 0.834737
O O5 0.500000 0.438922 0.026040
O O6 0.285714 0.400216 0.115409
O O7 0.152405 0.454028 0.014478
O O8 0.296954 0.358826 0.995441
O O9 0.750000 0.250000 0.500000
O O10 0.000000 0.183227 0.484997
O O11 0.500000 0.865019 0.165539
O O12 0.250000 0.880167 0.250000
#
# Coordination Sequence:
#
# PCOD9477799 Si02
#       5
#    16  16  16  16   4
#     4  10  20  33  53  87 129 170 203 247 316 385
#     4  12  24  42  66  95 125 167 216 265 318 377
#     4  12  22  36  59  93 131 164 204 256 314 379
#     4  10  19  34  57  92 132 163 203 260 319 376
#     4  12  26  48  64  90 124 164 218 268 308 378
#
# _framework density 18.034262999999999
#
# number of rings (size 3 to 8) (size 9 to 14) (size 15 to 20)
#    0.000    0.941    4.706    3.882    0.000    1.882 
#    0.000    0.000    0.000    1.412    6.118    0.000 
#    0.000    0.000    0.000    0.000    0.000    0.000 
#
# Total GULP energy -189434.797967 kJ/mol
# GULP energy per Si atom -5571.611705 kJ/mol
# Density = 1.799322 g / cm^3
# Si number density = 18.034263 Si / 1000 Ang^3
#
#
#
# Elastic Constant Matrix: (Units=GPa)
#
#
# Indices 1 2 3 4 5 6 
#
# 1 137.4402 38.9420 25.7246 0.0000 0.0000 0.0000
# 2 38.9420 88.5987 54.6990 0.0000 0.0000 0.0000
# 3 25.7246 54.6990 84.6886 0.0000 0.0000 0.0000
# 4 0.0000 0.0000 0.0000 3.1723 0.0000 0.0000
# 5 0.0000 0.0000 0.0000 0.0000 29.2245 0.0000
# 6 0.0000 0.0000 0.0000 0.0000 0.0000 26.1521
#
#
#
# Elastic Compliance Matrix: (Units=1/GPa)
#
#
# Indices 1 2 3 4 5 6 
#
# 1 0.008315 -0.003485 -0.000275 0.000000 0.000000 0.000000
# 2 -0.003485 0.020233 -0.012010 0.000000 0.000000 0.000000
# 3 -0.000275 -0.012010 0.019648 0.000000 0.000000 0.000000
# 4 0.000000 0.000000 0.000000 0.315226 0.000000 0.000000
# 5 0.000000 0.000000 0.000000 0.000000 0.034218 0.000000
# 6 0.000000 0.000000 0.000000 0.000000 0.000000 0.038238
#
#
# Mechanical properties :
#
#
# Convention : Reuss Voigt Hill
#
# Bulk Modulus (GPa) = 60.03357 61.05096 60.54227
# Shear Modulus (GPa) = 10.57152 24.46724 17.51938
#
# Velocity S-wave (km/s) = 2.42376 3.68735 3.12019
# Velocity P-wave (km/s) = 6.41823 7.21491 6.82820
#
# Compressibility (1/GPa) = 0.01665735
#
# Stress axis : x y z
#
# Youngs Moduli (GPa) = 120.26828 49.42394 50.89508
#
# Poissons Ratio (x) = 0.17224 0.01398
# Poissons Ratio (y) = 0.41913 0.61123
# Poissons Ratio (z) = 0.03304 0.59356
#
# Static dielectric constant tensor:
#      x y z
#    x 1.653550 0.000000 0.000000 
#    y 0.000000 1.594980 0.000000 
#    z 0.000000 0.000000 1.629370 
# 
# From -- ./inp_files/29337.got.cif
#   From: 2010.05.17/outbox.cif.g08.bks.cpg/sg64_15_cif.got.tgz:29337.got - 2010.06.03 16:29:19.
