data_PCOD9477419
_publ_section_title
;
Structure prediction by ZEFSAII (Michael W. Deem and Ramdas Pophale) SiO2 
 PCOD9477419
Probable space group: C M C A
;
_chemical_formula_sum "Si O2"
_cell_formula_units_Z 80
_cell_length_a 7.588650
_cell_length_b 27.030002
_cell_length_c 19.975043
_cell_angle_alpha 90.000000
_cell_angle_beta 90.000000
_cell_angle_gamma 90.000000
_cell_volume 4097.305283
_symmetry_space_group_name_H-M "C M C A"
_symmetry_group_IT_number 64
_symmetry_cell_setting 'orthorhombic'
loop_
_space_group_symop_operation_xyz
x,y,z
-x,1/2-y,1/2+z
x,-y,-z
-x,1/2+y,1/2-z
-x,-y,-z
x,1/2+y,1/2-z
-x,y,z
x,1/2-y,1/2+z
1/2+x,1/2+y,z
1/2-x,-y,1/2+z
1/2+x,1/2-y,-z
1/2-x,y,1/2-z
1/2-x,1/2-y,-z
1/2+x,y,1/2-z
1/2-x,1/2+y,z
1/2+x,-y,1/2+z
loop_
_atom_site_type_symbol
_atom_site_label
_atom_site_fract_x
_atom_site_fract_y
_atom_site_fract_z
Si Si1 0.714066 0.152123 0.594529
Si Si2 0.707978 0.635044 0.438223
Si Si3 0.207219 0.473490 0.933610
Si Si4 0.290590 0.444018 0.172213
Si Si5 0.788628 0.741244 0.078618
O O1 0.500000 0.152655 0.594525
O O2 0.771595 0.139952 0.518662
O O3 0.776117 0.108200 0.642472
O O4 0.774990 0.207864 0.612476
O O5 0.500000 0.635236 0.422065
O O6 0.782437 0.581206 0.420036
O O7 0.781841 0.686112 0.406843
O O8 0.221693 0.510771 0.872122
O O9 0.000000 0.465323 0.947958
O O10 0.283124 0.500000 0.000000
O O11 0.500000 0.444079 0.163531
O O12 0.250000 0.448994 0.250000
O O13 0.000000 0.739712 0.087131
O O14 0.750000 0.750000 0.000000
#
# Coordination Sequence:
#
# PCOD9477419 Si02
#       5
#    16  16  16  16  16
#     4   9  17  29  46  69  97 126 159 201 245 291
#     4   9  16  27  47  73  99 129 159 196 244 291
#     4  10  19  32  51  75 103 133 168 207 248 298
#     4  11  23  36  51  71  98 133 170 209 255 302
#     4   8  14  25  42  67  96 123 153 189 235 285
#
# _framework density 19.525029
#
# number of rings (size 3 to 8) (size 9 to 14) (size 15 to 20)
#    0.000    2.600    2.000    0.600    0.000    2.000 
#    0.000    0.000    0.000    1.200    0.000    2.800 
#    0.000    0.000    0.000    0.000    0.000    0.000 
#
# Total GULP energy -222820.636654 kJ/mol
# GULP energy per Si atom -5570.515916 kJ/mol
# Density = 1.948059 g / cm^3
# Si number density = 19.525029 Si / 1000 Ang^3
#
#
#
# Elastic Constant Matrix: (Units=GPa)
#
#
# Indices 1 2 3 4 5 6 
#
# 1 43.4092 0.6382 -19.3267 0.0000 0.0000 0.0000
# 2 0.6382 252.5151 53.1059 0.0000 0.0000 0.0000
# 3 -19.3267 53.1059 47.8230 0.0000 0.0000 0.0000
# 4 0.0000 0.0000 0.0000 17.1332 0.0000 0.0000
# 5 0.0000 0.0000 0.0000 0.0000 13.0226 0.0000
# 6 0.0000 0.0000 0.0000 0.0000 0.0000 -5.3224
#
#
#
# Elastic Compliance Matrix: (Units=1/GPa)
#
#
# Indices 1 2 3 4 5 6 
#
# 1 0.030234 -0.003452 0.016052 0.000000 0.000000 0.000000
# 2 -0.003452 0.005561 -0.007571 0.000000 0.000000 0.000000
# 3 0.016052 -0.007571 0.035805 0.000000 0.000000 0.000000
# 4 0.000000 0.000000 0.000000 0.058366 0.000000 0.000000
# 5 0.000000 0.000000 0.000000 0.000000 0.076789 0.000000
# 6 0.000000 0.000000 0.000000 0.000000 0.000000 -0.187886
#
#
# Mechanical properties :
#
#
# Convention : Reuss Voigt Hill
#
# Bulk Modulus (GPa) = 12.24613 45.84246 29.04430
# Shear Modulus (GPa) = 138.77144 25.58868 82.18006
#
# Velocity S-wave (km/s) = 8.43966 3.62409 6.49469
# Velocity P-wave (km/s) = 10.06261 6.40639 8.43499
#
# Compressibility (1/GPa) = 0.08165844
#
# Stress axis : x y z
#
# Youngs Moduli (GPa) = 33.07520 179.82272 27.92942
#
# Poissons Ratio (x) = 0.62081 -0.44833
# Poissons Ratio (y) = 0.11419 0.21144
# Poissons Ratio (z) = -0.53093 1.36136
#
# Static dielectric constant tensor:
#      x y z
#    x 1.874790 0.000000 0.000000 
#    y 0.000000 1.787560 0.000000 
#    z 0.000000 0.000000 1.585330 
# 
# From -- ./inp_files/29748.got.cif
#   From: 2010.05.17/outbox.cif.g08.bks.cpg/sg64_15_cif.got.tgz:29748.got - 2010.06.03 16:29:19.
