data_PCOD9477379
_publ_section_title
;
Structure prediction by ZEFSAII (Michael W. Deem and Ramdas Pophale) SiO2 
 PCOD9477379
Probable space group: C M C A
;
_chemical_formula_sum "Si O2"
_cell_formula_units_Z 116
_cell_length_a 14.622829
_cell_length_b 17.936569
_cell_length_c 16.811608
_cell_angle_alpha 90.000000
_cell_angle_beta 90.000000
_cell_angle_gamma 90.000000
_cell_volume 4409.405392
_symmetry_space_group_name_H-M "C M C A"
_symmetry_group_IT_number 64
_symmetry_cell_setting 'orthorhombic'
loop_
_space_group_symop_operation_xyz
x,y,z
-x,1/2-y,1/2+z
x,-y,-z
-x,1/2+y,1/2-z
-x,-y,-z
x,1/2+y,1/2-z
-x,y,z
x,1/2-y,1/2+z
1/2+x,1/2+y,z
1/2-x,-y,1/2+z
1/2+x,1/2-y,-z
1/2-x,y,1/2-z
1/2-x,1/2-y,-z
1/2+x,y,1/2-z
1/2-x,1/2+y,z
1/2+x,-y,1/2+z
loop_
_atom_site_type_symbol
_atom_site_label
_atom_site_fract_x
_atom_site_fract_y
_atom_site_fract_z
Si Si1 0.500000 0.500000 0.000000
Si Si2 0.110867 0.414913 0.131181
Si Si3 0.357064 0.906429 0.604748
Si Si4 0.102467 0.797877 0.475787
Si Si5 0.641162 0.326871 0.743292
Si Si6 0.848814 0.579597 0.093300
Si Si7 0.109150 0.299608 0.384830
Si Si8 0.388964 0.947782 0.311867
O O1 0.578833 0.557757 0.037526
O O2 0.144406 0.490800 0.089705
O O3 0.131023 0.424364 0.223323
O O4 0.000000 0.413542 0.124541
O O5 0.147183 0.334968 0.100926
O O6 0.344129 0.975624 0.665336
O O7 0.392413 0.842681 0.666393
O O8 0.254324 0.891587 0.577917
O O9 0.095145 0.872269 0.530546
O O10 0.145869 0.737672 0.534596
O O11 0.000000 0.771651 0.455834
O O12 0.750000 0.327403 0.750000
O O13 0.617178 0.392894 0.680530
O O14 0.617542 0.252715 0.693290
O O15 0.143742 0.381660 0.368037
O O16 0.000000 0.306125 0.396716
O O17 0.500000 0.956968 0.324009
#
# Coordination Sequence:
#
# PCOD9477379 Si02
#       8
#     4  16  16  16  16  16  16  16
#     4  12  28  40  56  84 110 178 212 250 296 340
#     4  10  19  31  56  90 118 143 183 242 307 366
#     4  11  23  40  58  80 117 153 211 246 286 351
#     4   9  18  33  55  91 121 144 182 236 310 371
#     4   9  19  37  58  86 113 144 191 249 295 354
#     4  10  19  33  59  89 117 149 182 245 310 351
#     4   9  19  35  60  81 112 154 188 232 302 358
#     4  10  20  38  58  82 116 158 199 245 287 355
#
# _framework density 26.307403000000001
#
# number of rings (size 3 to 8) (size 9 to 14) (size 15 to 20)
#    0.000    2.207    2.069    0.828    2.897    1.655 
#    2.483    1.379    3.034    0.828    0.000    0.000 
#    0.000    0.000    0.000    0.000    0.000    0.000 
#
# Total GULP energy -323869.452481 kJ/mol
# GULP energy per Si atom -5583.956077 kJ/mol
# Density = 2.624753 g / cm^3
# Si number density = 26.307403 Si / 1000 Ang^3
#
#
#
# Elastic Constant Matrix: (Units=GPa)
#
#
# Indices 1 2 3 4 5 6 
#
# 1 87.6799 -14.0038 34.7048 0.0000 0.0000 0.0000
# 2 -14.0038 87.4273 28.5381 0.0000 0.0000 0.0000
# 3 34.7048 28.5381 68.8180 0.0000 0.0000 0.0000
# 4 0.0000 0.0000 0.0000 30.2602 0.0000 0.0000
# 5 0.0000 0.0000 0.0000 0.0000 30.6307 0.0000
# 6 0.0000 0.0000 0.0000 0.0000 0.0000 66.7673
#
#
#
# Elastic Compliance Matrix: (Units=1/GPa)
#
#
# Indices 1 2 3 4 5 6 
#
# 1 0.016803 0.006312 -0.011091 0.000000 0.000000 0.000000
# 2 0.006312 0.015600 -0.009652 0.000000 0.000000 0.000000
# 3 -0.011091 -0.009652 0.024127 0.000000 0.000000 0.000000
# 4 0.000000 0.000000 0.000000 0.033047 0.000000 0.000000
# 5 0.000000 0.000000 0.000000 0.000000 0.032647 0.000000
# 6 0.000000 0.000000 0.000000 0.000000 0.000000 0.014977
#
#
# Mechanical properties :
#
#
# Convention : Reuss Voigt Hill
#
# Bulk Modulus (GPa) = 36.14412 38.04481 37.09446
# Shear Modulus (GPa) = 28.52465 38.51071 33.51768
#
# Velocity S-wave (km/s) = 3.29642 3.83021 3.57330
# Velocity P-wave (km/s) = 5.31577 5.83556 5.58172
#
# Compressibility (1/GPa) = 0.02766702
#
# Stress axis : x y z
#
# Youngs Moduli (GPa) = 59.51192 64.10349 41.44712
#
# Poissons Ratio (x) = -0.40462 0.45971
# Poissons Ratio (y) = -0.37564 0.40006
# Poissons Ratio (z) = 0.66007 0.61874
#
# Static dielectric constant tensor:
#      x y z
#    x 2.035990 0.000000 0.000000 
#    y 0.000000 2.025230 0.000000 
#    z 0.000000 0.000000 2.167850 
# 
# From -- ./inp_files/33474.got.cif
#   From: 2010.05.17/outbox.cif.g08.bks.cpg/sg64_17_cif.got.tgz:33474.got - 2010.06.03 16:29:19.
