data_PCOD9477173
_publ_section_title
;
Structure prediction by ZEFSAII (Michael W. Deem and Ramdas Pophale) SiO2 
 PCOD9477173
Probable space group: C M C A
;
_chemical_formula_sum "Si O2"
_cell_formula_units_Z 68
_cell_length_a 29.083286
_cell_length_b 19.896331
_cell_length_c 5.301483
_cell_angle_alpha 90.000000
_cell_angle_beta 90.000000
_cell_angle_gamma 90.000000
_cell_volume 3067.706769
_symmetry_space_group_name_H-M "C M C A"
_symmetry_group_IT_number 64
_symmetry_cell_setting 'orthorhombic'
loop_
_space_group_symop_operation_xyz
x,y,z
-x,1/2-y,1/2+z
x,-y,-z
-x,1/2+y,1/2-z
-x,-y,-z
x,1/2+y,1/2-z
-x,y,z
x,1/2-y,1/2+z
1/2+x,1/2+y,z
1/2-x,-y,1/2+z
1/2+x,1/2-y,-z
1/2-x,y,1/2-z
1/2-x,1/2-y,-z
1/2+x,y,1/2-z
1/2-x,1/2+y,z
1/2+x,-y,1/2+z
loop_
_atom_site_type_symbol
_atom_site_label
_atom_site_fract_x
_atom_site_fract_y
_atom_site_fract_z
Si Si1 0.376065 0.000000 0.500000
Si Si2 0.425571 0.103884 0.868630
Si Si3 0.222032 0.000000 0.500000
Si Si4 0.250000 0.294490 0.750000
Si Si5 0.500000 0.293657 0.175498
Si Si6 0.834077 0.110459 0.362342
Si Si7 0.500000 0.500000 0.500000
O O1 0.406332 0.048992 0.673019
O O2 0.347203 0.052257 0.334747
O O3 0.455564 0.159671 0.726461
O O4 0.382438 0.134320 0.021526
O O5 0.460165 0.059009 0.035224
O O6 0.192972 0.933706 0.429845
O O7 0.250000 0.982158 0.750000
O O8 0.250000 0.250000 0.500000
O O9 0.202612 0.337206 0.757795
O O10 0.500000 0.237603 0.396826
#
# Coordination Sequence:
#
# PCOD9477173 Si02
#       7
#     8  16   8   8   8  16   4
#     4  12  23  45  75 123 138 192 238 335 399 440
#     4  11  25  42  78 108 154 192 248 321 386 457
#     4  12  24  40  74 112 146 184 236 313 387 432
#     4  12  34  52  72 104 154 214 258 304 366 462
#     4  11  30  52  72 106 151 212 256 292 362 461
#     4  12  26  45  75 111 152 188 256 312 394 444
#     4  10  18  46  58 120 148 174 244 320 404 438
#
# _framework density 22.166395999999999
#
# number of rings (size 3 to 8) (size 9 to 14) (size 15 to 20)
#    0.000    0.471    5.882    0.706    8.235    3.765 
#    0.000    0.000    0.000    0.000    0.000    0.000 
#    0.000    0.000    0.000    0.000    0.000    0.000 
#
# Total GULP energy -189464.332151 kJ/mol
# GULP energy per Si atom -5572.480357 kJ/mol
# Density = 2.211594 g / cm^3
# Si number density = 22.166396 Si / 1000 Ang^3
#
#
#
# Elastic Constant Matrix: (Units=GPa)
#
#
# Indices 1 2 3 4 5 6 
#
# 1 174.7426 59.4021 34.2813 0.0000 0.0000 0.0000
# 2 59.4021 100.7675 29.7732 0.0000 0.0000 0.0000
# 3 34.2813 29.7732 71.6287 0.0000 0.0000 0.0000
# 4 0.0000 0.0000 0.0000 37.7783 0.0000 0.0000
# 5 0.0000 0.0000 0.0000 0.0000 11.4058 0.0000
# 6 0.0000 0.0000 0.0000 0.0000 0.0000 38.2299
#
#
#
# Elastic Compliance Matrix: (Units=1/GPa)
#
#
# Indices 1 2 3 4 5 6 
#
# 1 0.007393 -0.003776 -0.001968 0.000000 0.000000 0.000000
# 2 -0.003776 0.013242 -0.003697 0.000000 0.000000 0.000000
# 3 -0.001968 -0.003697 0.016440 0.000000 0.000000 0.000000
# 4 0.000000 0.000000 0.000000 0.026470 0.000000 0.000000
# 5 0.000000 0.000000 0.000000 0.000000 0.087675 0.000000
# 6 0.000000 0.000000 0.000000 0.000000 0.000000 0.026158
#
#
# Mechanical properties :
#
#
# Convention : Reuss Voigt Hill
#
# Bulk Modulus (GPa) = 54.97177 66.00578 60.48878
# Shear Modulus (GPa) = 24.71283 32.39495 28.55389
#
# Velocity S-wave (km/s) = 3.34260 3.82703 3.59299
# Velocity P-wave (km/s) = 6.30482 7.02640 6.67537
#
# Compressibility (1/GPa) = 0.01819115
#
# Stress axis : x y z
#
# Youngs Moduli (GPa) = 135.27058 75.51572 60.82858
#
# Poissons Ratio (x) = 0.28517 0.11974
# Poissons Ratio (y) = 0.51082 0.22488
# Poissons Ratio (z) = 0.26627 0.27918
#
# Static dielectric constant tensor:
#      x y z
#    x 1.936610 0.000000 0.000000 
#    y 0.000000 1.802020 0.000000 
#    z 0.000000 0.000000 1.873890 
# 
# From -- ./inp_files/3222.got.cif
#   From: 2010.05.17/outbox.cif.g08.bks.cpg/sg64_2_cif.got.tgz:3222.got - 2010.06.03 16:29:19.
