data_PCOD9477273
_publ_section_title
;
Structure prediction by ZEFSAII (Michael W. Deem and Ramdas Pophale) SiO2 
 PCOD9477273
Probable space group: C M C A
;
_chemical_formula_sum "Si O2"
_cell_formula_units_Z 112
_cell_length_a 7.380168
_cell_length_b 30.593684
_cell_length_c 23.271141
_cell_angle_alpha 90.000000
_cell_angle_beta 90.000000
_cell_angle_gamma 90.000000
_cell_volume 5254.310121
_symmetry_space_group_name_H-M "C M C A"
_symmetry_group_IT_number 64
_symmetry_cell_setting 'orthorhombic'
loop_
_space_group_symop_operation_xyz
x,y,z
-x,1/2-y,1/2+z
x,-y,-z
-x,1/2+y,1/2-z
-x,-y,-z
x,1/2+y,1/2-z
-x,y,z
x,1/2-y,1/2+z
1/2+x,1/2+y,z
1/2-x,-y,1/2+z
1/2+x,1/2-y,-z
1/2-x,y,1/2-z
1/2-x,1/2-y,-z
1/2+x,y,1/2-z
1/2-x,1/2+y,z
1/2+x,-y,1/2+z
loop_
_atom_site_type_symbol
_atom_site_label
_atom_site_fract_x
_atom_site_fract_y
_atom_site_fract_z
Si Si1 0.210291 0.296282 0.924594
Si Si2 0.778811 0.895663 0.412375
Si Si3 0.716621 0.348199 0.686202
Si Si4 0.719731 0.697824 0.554987
Si Si5 0.215776 0.961652 0.314567
Si Si6 0.778948 0.442590 0.848209
Si Si7 0.220279 0.451840 0.979801
O O1 0.286080 0.320691 0.868608
O O2 0.220163 0.243902 0.919109
O O3 0.000000 0.309727 0.928218
O O4 0.285054 0.305614 0.988547
O O5 0.722958 0.845305 0.410969
O O6 0.715425 0.927487 0.361713
O O7 0.723595 0.916763 0.473011
O O8 0.000000 0.895903 0.411295
O O9 0.500000 0.349685 0.680397
O O10 0.750000 0.330242 0.750000
O O11 0.784053 0.398257 0.681900
O O12 0.500000 0.699136 0.553596
O O13 0.250000 0.946834 0.250000
O O14 0.000000 0.964176 0.323670
O O15 0.284783 0.011220 0.322703
O O16 0.724812 0.441598 0.915113
O O17 0.000000 0.442770 0.845949
O O18 0.000000 0.452341 0.979528
O O19 0.278191 0.500000 0.000000
#
# Coordination Sequence:
#
# PCOD9477273 Si02
#       7
#    16  16  16  16  16  16  16
#     4   9  18  33  51  73  99 124 154 197 246 291
#     4   9  16  27  45  71  98 121 152 194 235 275
#     4  10  20  33  49  71 100 131 163 199 239 286
#     4   9  17  31  53  76  97 122 154 196 246 294
#     4  10  19  31  46  66  94 127 160 191 224 270
#     4   9  16  27  45  70  98 125 155 193 238 282
#     4   9  13  21  41  71  99 120 147 192 241 275
#
# _framework density 21.315833000000001
#
# number of rings (size 3 to 8) (size 9 to 14) (size 15 to 20)
#    0.000    2.714    1.429    1.286    0.000    4.000 
#    0.000    1.429    0.000    3.429    0.000    4.000 
#    0.000    0.000    0.000    0.000    0.000    0.000 
#
# Total GULP energy -312650.668792 kJ/mol
# GULP energy per Si atom -5583.047657 kJ/mol
# Density = 2.126732 g / cm^3
# Si number density = 21.315833 Si / 1000 Ang^3
#
#
#
# Elastic Constant Matrix: (Units=GPa)
#
#
# Indices 1 2 3 4 5 6 
#
# 1 74.1209 -3.6047 -4.3654 0.0000 0.0000 0.0000
# 2 -3.6047 116.0388 49.6708 0.0000 0.0000 0.0000
# 3 -4.3654 49.6708 109.9642 0.0000 0.0000 0.0000
# 4 0.0000 0.0000 0.0000 21.4449 0.0000 0.0000
# 5 0.0000 0.0000 0.0000 0.0000 7.5495 0.0000
# 6 0.0000 0.0000 0.0000 0.0000 0.0000 10.3339
#
#
#
# Elastic Compliance Matrix: (Units=1/GPa)
#
#
# Indices 1 2 3 4 5 6 
#
# 1 0.013528 0.000236 0.000430 0.000000 0.000000 0.000000
# 2 0.000236 0.010688 -0.004818 0.000000 0.000000 0.000000
# 3 0.000430 -0.004818 0.011287 0.000000 0.000000 0.000000
# 4 0.000000 0.000000 0.000000 0.046631 0.000000 0.000000
# 5 0.000000 0.000000 0.000000 0.000000 0.132460 0.000000
# 6 0.000000 0.000000 0.000000 0.000000 0.000000 0.096768
#
#
# Mechanical properties :
#
#
# Convention : Reuss Voigt Hill
#
# Bulk Modulus (GPa) = 36.76510 42.61391 39.68951
# Shear Modulus (GPa) = 15.20994 25.09388 20.15191
#
# Velocity S-wave (km/s) = 2.67414 3.43482 3.07807
# Velocity P-wave (km/s) = 5.17879 5.98044 5.59400
#
# Compressibility (1/GPa) = 0.02719971
#
# Stress axis : x y z
#
# Youngs Moduli (GPa) = 73.91909 93.56646 88.59478
#
# Poissons Ratio (x) = -0.02208 -0.03814
# Poissons Ratio (y) = -0.01744 0.42687
# Poissons Ratio (z) = -0.03182 0.45082
#
# Static dielectric constant tensor:
#      x y z
#    x 1.863420 0.000000 0.000000 
#    y 0.000000 1.754780 0.000000 
#    z 0.000000 0.000000 1.736290 
# 
# From -- ./inp_files/38555.got.cif
#   From: 2010.05.17/outbox.cif.g08.bks.cpg/sg64_20_cif.got.tgz:38555.got - 2010.06.03 16:29:19.
