data_PCOD9477368
_publ_section_title
;
Structure prediction by ZEFSAII (Michael W. Deem and Ramdas Pophale) SiO2 
 PCOD9477368
Probable space group: C M C A
;
_chemical_formula_sum "Si O2"
_cell_formula_units_Z 120
_cell_length_a 13.348693
_cell_length_b 13.049115
_cell_length_c 28.684383
_cell_angle_alpha 90.000000
_cell_angle_beta 90.000000
_cell_angle_gamma 90.000000
_cell_volume 4996.493379
_symmetry_space_group_name_H-M "C M C A"
_symmetry_group_IT_number 64
_symmetry_cell_setting 'orthorhombic'
loop_
_space_group_symop_operation_xyz
x,y,z
-x,1/2-y,1/2+z
x,-y,-z
-x,1/2+y,1/2-z
-x,-y,-z
x,1/2+y,1/2-z
-x,y,z
x,1/2-y,1/2+z
1/2+x,1/2+y,z
1/2-x,-y,1/2+z
1/2+x,1/2-y,-z
1/2-x,y,1/2-z
1/2-x,1/2-y,-z
1/2+x,y,1/2-z
1/2-x,1/2+y,z
1/2+x,-y,1/2+z
loop_
_atom_site_type_symbol
_atom_site_label
_atom_site_fract_x
_atom_site_fract_y
_atom_site_fract_z
Si Si1 0.613594 0.243008 0.906269
Si Si2 0.615920 0.634914 0.181218
Si Si3 0.750000 0.875926 0.250000
Si Si4 0.112640 0.122733 0.503386
Si Si5 0.880433 0.754355 0.175945
Si Si6 0.880796 0.054611 0.281651
Si Si7 0.196005 0.427908 0.543439
Si Si8 0.384952 0.440949 0.116470
O O1 0.500000 0.212446 0.895148
O O2 0.659274 0.283386 0.856684
O O3 0.616662 0.346635 0.937470
O O4 0.644565 0.159966 0.945080
O O5 0.500000 0.665736 0.185216
O O6 0.647570 0.616182 0.234133
O O7 0.616483 0.520163 0.159733
O O8 0.820200 0.950070 0.280966
O O9 0.819293 0.809702 0.216569
O O10 0.205039 0.138806 0.468163
O O11 0.000000 0.164127 0.493229
O O12 0.104820 0.000000 0.500000
O O13 0.857584 0.633424 0.176616
O O14 0.000000 0.761860 0.186336
O O15 0.865147 0.824642 0.130847
O O16 0.000000 0.034433 0.280433
O O17 0.168755 0.500000 0.500000
O O18 0.199116 0.511220 0.584059
O O19 0.500000 0.446048 0.097666
#
# Coordination Sequence:
#
# PCOD9477368 Si02
#       8
#    16  16   8  16  16  16  16  16
#     4   9  17  30  54  81 106 138 182 228 272 325
#     4   8  14  29  53  80 103 136 183 226 265 322
#     4  12  20  34  56  82 114 150 184 230 284 344
#     4   9  18  33  50  71 104 148 186 222 272 323
#     4  10  21  37  58  84 113 149 191 237 288 341
#     4  10  20  35  58  86 113 146 193 238 281 339
#     4  10  19  31  53  85 110 139 183 231 276 334
#     4   9  17  33  56  80 109 144 181 228 286 336
#
# _framework density 24.016843999999999
#
# number of rings (size 3 to 8) (size 9 to 14) (size 15 to 20)
#    0.000    2.533    1.333    2.400    0.000    1.067 
#    0.000    5.333    2.933    3.200    0.000    0.000 
#    0.000    0.000    0.000    0.000    0.000    0.000 
#
# Total GULP energy -334490.052743 kJ/mol
# GULP energy per Si atom -5574.834212 kJ/mol
# Density = 2.396218 g / cm^3
# Si number density = 24.016844 Si / 1000 Ang^3
#
#
#
# Elastic Constant Matrix: (Units=GPa)
#
#
# Indices 1 2 3 4 5 6 
#
# 1 66.9587 4.5179 1.3641 0.0000 0.0000 0.0000
# 2 4.5179 69.4205 -10.4935 0.0000 0.0000 0.0000
# 3 1.3641 -10.4935 28.5525 0.0000 0.0000 0.0000
# 4 0.0000 0.0000 0.0000 41.6555 0.0000 0.0000
# 5 0.0000 0.0000 0.0000 0.0000 12.3663 0.0000
# 6 0.0000 0.0000 0.0000 0.0000 0.0000 23.4277
#
#
#
# Elastic Compliance Matrix: (Units=1/GPa)
#
#
# Indices 1 2 3 4 5 6 
#
# 1 0.015036 -0.001151 -0.001141 0.000000 0.000000 0.000000
# 2 -0.001151 0.015340 0.005693 0.000000 0.000000 0.000000
# 3 -0.001141 0.005693 0.037170 0.000000 0.000000 0.000000
# 4 0.000000 0.000000 0.000000 0.024006 0.000000 0.000000
# 5 0.000000 0.000000 0.000000 0.000000 0.080865 0.000000
# 6 0.000000 0.000000 0.000000 0.000000 0.000000 0.042685
#
#
# Mechanical properties :
#
#
# Convention : Reuss Voigt Hill
#
# Bulk Modulus (GPa) = 13.45049 17.30096 15.37572
# Shear Modulus (GPa) = 21.45158 26.79277 24.12218
#
# Velocity S-wave (km/s) = 2.99187 3.34366 3.17264
# Velocity P-wave (km/s) = 4.18899 4.70383 4.45386
#
# Compressibility (1/GPa) = 0.07434676
#
# Stress axis : x y z
#
# Youngs Moduli (GPa) = 66.50924 65.18741 26.90343
#
# Poissons Ratio (x) = 0.07503 0.03071
# Poissons Ratio (y) = 0.07655 -0.15316
# Poissons Ratio (z) = 0.07591 -0.37110
#
# Static dielectric constant tensor:
#      x y z
#    x 2.055010 0.000000 0.000000 
#    y 0.000000 1.959040 0.000000 
#    z 0.000000 0.000000 2.098190 
# 
# From -- ./inp_files/53425.got.cif
#   From: 2010.05.17/outbox.cif.g08.bks.cpg/sg64_27_cif.got.tgz:53425.got - 2010.06.03 16:29:19.
