data_PCOD9477707
_publ_section_title
;
Structure prediction by ZEFSAII (Michael W. Deem and Ramdas Pophale) SiO2 
 PCOD9477707
Probable space group: C M C A
;
_chemical_formula_sum "Si O2"
_cell_formula_units_Z 96
_cell_length_a 7.622135
_cell_length_b 23.933256
_cell_length_c 26.719763
_cell_angle_alpha 90.000000
_cell_angle_beta 90.000000
_cell_angle_gamma 90.000000
_cell_volume 4874.286186
_symmetry_space_group_name_H-M "C M C A"
_symmetry_group_IT_number 64
_symmetry_cell_setting 'orthorhombic'
loop_
_space_group_symop_operation_xyz
x,y,z
-x,1/2-y,1/2+z
x,-y,-z
-x,1/2+y,1/2-z
-x,-y,-z
x,1/2+y,1/2-z
-x,y,z
x,1/2-y,1/2+z
1/2+x,1/2+y,z
1/2-x,-y,1/2+z
1/2+x,1/2-y,-z
1/2-x,y,1/2-z
1/2-x,1/2-y,-z
1/2+x,y,1/2-z
1/2-x,1/2+y,z
1/2+x,-y,1/2+z
loop_
_atom_site_type_symbol
_atom_site_label
_atom_site_fract_x
_atom_site_fract_y
_atom_site_fract_z
Si Si1 0.798761 0.368741 0.598636
Si Si2 0.288910 0.688811 0.192446
Si Si3 0.708737 0.937234 0.503507
Si Si4 0.790318 0.750635 0.058215
Si Si5 0.801629 0.870847 0.403474
Si Si6 0.711272 0.316977 0.307716
O O1 0.719695 0.358096 0.653840
O O2 0.720190 0.404591 0.552674
O O3 0.793898 0.305096 0.579592
O O4 0.000000 0.387912 0.605282
O O5 0.500000 0.690619 0.186497
O O6 0.250000 0.676037 0.250000
O O7 0.223670 0.752867 0.183014
O O8 0.500000 0.940594 0.511423
O O9 0.728960 0.905391 0.450535
O O10 0.779740 0.000000 0.500000
O O11 0.705896 0.806523 0.079310
O O12 0.000000 0.751061 0.066662
O O13 0.750000 0.750000 0.000000
O O14 0.720811 0.862585 0.347892
O O15 0.000000 0.891217 0.397604
O O16 0.500000 0.315463 0.313447
O O17 0.750000 0.330160 0.250000
#
# Coordination Sequence:
#
# PCOD9477707 Si02
#       6
#    16  16  16  16  16  16
#     4  10  19  34  53  74 106 140 172 215 264 313
#     4   9  17  30  47  72 106 140 170 207 254 307
#     4  10  22  38  56  78 102 137 183 225 270 321
#     4  12  22  31  48  77 109 140 172 209 259 320
#     4  11  21  35  54  78 108 141 176 217 266 315
#     4   9  18  31  48  74 108 140 172 208 253 312
#
# _framework density 19.69519
#
# number of rings (size 3 to 8) (size 9 to 14) (size 15 to 20)
#    0.000    1.833    3.333    2.000    0.000    2.333 
#    0.000    0.000    0.000    1.000    0.000    4.667 
#    0.000    0.000    0.000    0.000    0.000    0.000 
#
# Total GULP energy -267383.702460 kJ/mol
# GULP energy per Si atom -5570.493801 kJ/mol
# Density = 1.965036 g / cm^3
# Si number density = 19.695190 Si / 1000 Ang^3
#
#
#
# Elastic Constant Matrix: (Units=GPa)
#
#
# Indices 1 2 3 4 5 6 
#
# 1 59.3821 -4.2676 0.8764 0.0000 0.0000 0.0000
# 2 -4.2676 93.8928 62.4392 0.0000 0.0000 0.0000
# 3 0.8764 62.4392 182.8156 0.0000 0.0000 0.0000
# 4 0.0000 0.0000 0.0000 9.2638 0.0000 0.0000
# 5 0.0000 0.0000 0.0000 0.0000 24.9090 0.0000
# 6 0.0000 0.0000 0.0000 0.0000 0.0000 5.6096
#
#
#
# Elastic Compliance Matrix: (Units=1/GPa)
#
#
# Indices 1 2 3 4 5 6 
#
# 1 0.016923 0.001065 -0.000445 0.000000 0.000000 0.000000
# 2 0.001065 0.013847 -0.004735 0.000000 0.000000 0.000000
# 3 -0.000445 -0.004735 0.007089 0.000000 0.000000 0.000000
# 4 0.000000 0.000000 0.000000 0.107947 0.000000 0.000000
# 5 0.000000 0.000000 0.000000 0.000000 0.040146 0.000000
# 6 0.000000 0.000000 0.000000 0.000000 0.000000 0.178266
#
#
# Mechanical properties :
#
#
# Convention : Reuss Voigt Hill
#
# Bulk Modulus (GPa) = 33.74851 50.46516 42.10683
# Shear Modulus (GPa) = 13.07790 26.42598 19.75194
#
# Velocity S-wave (km/s) = 2.57964 3.66696 3.17027
# Velocity P-wave (km/s) = 5.10347 6.60360 5.90139
#
# Compressibility (1/GPa) = 0.02963094
#
# Stress axis : x y z
#
# Youngs Moduli (GPa) = 59.09049 72.21590 141.06012
#
# Poissons Ratio (x) = -0.07691 0.06276
# Poissons Ratio (y) = -0.06293 0.66786
# Poissons Ratio (z) = 0.02629 0.34191
#
# Static dielectric constant tensor:
#      x y z
#    x 1.751710 0.000000 0.000000 
#    y 0.000000 1.692020 0.000000 
#    z 0.000000 0.000000 1.838530 
# 
# From -- ./inp_files/43031.got.cif
#   From: 2010.05.17/outbox.cif.g08.bks.cpg/sg64_22_cif.got.tgz:43031.got - 2010.06.03 16:29:19.
