data_PCOD9477018
_publ_section_title
;
Structure prediction by ZEFSAII (Michael W. Deem and Ramdas Pophale) SiO2 
 PCOD9477018
Probable space group: C M C A
;
_chemical_formula_sum "Si O2"
_cell_formula_units_Z 112
_cell_length_a 15.579576
_cell_length_b 15.078615
_cell_length_c 26.588365
_cell_angle_alpha 90.000000
_cell_angle_beta 90.000000
_cell_angle_gamma 90.000000
_cell_volume 6246.096919
_symmetry_space_group_name_H-M "C M C A"
_symmetry_group_IT_number 64
_symmetry_cell_setting 'orthorhombic'
loop_
_space_group_symop_operation_xyz
x,y,z
-x,1/2-y,1/2+z
x,-y,-z
-x,1/2+y,1/2-z
-x,-y,-z
x,1/2+y,1/2-z
-x,y,z
x,1/2-y,1/2+z
1/2+x,1/2+y,z
1/2-x,-y,1/2+z
1/2+x,1/2-y,-z
1/2-x,y,1/2-z
1/2-x,1/2-y,-z
1/2+x,y,1/2-z
1/2-x,1/2+y,z
1/2+x,-y,1/2+z
loop_
_atom_site_type_symbol
_atom_site_label
_atom_site_fract_x
_atom_site_fract_y
_atom_site_fract_z
Si Si1 0.593948 0.541674 0.309889
Si Si2 0.824014 0.142649 0.708608
Si Si3 0.263434 0.417907 0.874399
Si Si4 0.343435 0.160821 0.276975
Si Si5 0.245671 0.614975 0.600172
Si Si6 0.096827 0.098864 0.522286
Si Si7 0.806307 0.721129 0.047475
O O1 0.500000 0.548986 0.333311
O O2 0.613756 0.441224 0.293316
O O3 0.670617 0.568294 0.347414
O O4 0.600113 0.603062 0.260592
O O5 0.750000 0.126782 0.750000
O O6 0.868889 0.236678 0.718123
O O7 0.776194 0.146195 0.654989
O O8 0.327607 0.383321 0.831265
O O9 0.288362 0.514648 0.895211
O O10 0.247877 0.345952 0.917565
O O11 0.250000 0.162438 0.250000
O O12 0.330314 0.611502 0.564596
O O13 0.180767 0.688289 0.578383
O O14 0.115370 0.167272 0.476768
O O15 0.000000 0.110061 0.541823
O O16 0.105581 0.000000 0.500000
O O17 0.750000 0.750000 0.000000
#
# Coordination Sequence:
#
# PCOD9477018 Si02
#       7
#    16  16  16  16  16  16  16
#     4  10  21  33  49  78 109 139 173 211 266 321
#     4  10  19  34  57  78 104 141 182 219 256 311
#     4  10  18  34  55  78 105 136 176 221 263 307
#     4   9  18  34  54  75 104 140 177 220 259 301
#     4  10  19  32  56  82 104 139 181 219 262 313
#     4  10  20  34  52  79 114 140 166 218 279 321
#     4  10  20  33  53  80 105 134 179 218 258 316
#
# _framework density 17.931197999999998
#
# number of rings (size 3 to 8) (size 9 to 14) (size 15 to 20)
#    0.000    2.143    2.857    2.143    0.000    3.429 
#    0.000    0.000    0.000    0.857    0.000    4.000 
#    0.000    0.000    0.000    0.000    0.000    0.000 
#
# Total GULP energy -312219.319335 kJ/mol
# GULP energy per Si atom -5575.344988 kJ/mol
# Density = 1.789039 g / cm^3
# Si number density = 17.931198 Si / 1000 Ang^3
#
#
#
# Elastic Constant Matrix: (Units=GPa)
#
#
# Indices 1 2 3 4 5 6 
#
# 1 36.4226 11.7232 1.4524 0.0000 0.0000 0.0000
# 2 11.7232 129.2968 38.8506 0.0000 0.0000 0.0000
# 3 1.4524 38.8506 82.8127 0.0000 0.0000 0.0000
# 4 0.0000 0.0000 0.0000 38.3000 0.0000 0.0000
# 5 0.0000 0.0000 0.0000 0.0000 12.0007 0.0000
# 6 0.0000 0.0000 0.0000 0.0000 0.0000 -11.0292
#
#
#
# Elastic Compliance Matrix: (Units=1/GPa)
#
#
# Indices 1 2 3 4 5 6 
#
# 1 0.028329 -0.002816 0.000824 0.000000 0.000000 0.000000
# 2 -0.002816 0.009283 -0.004306 0.000000 0.000000 0.000000
# 3 0.000824 -0.004306 0.014081 0.000000 0.000000 0.000000
# 4 0.000000 0.000000 0.000000 0.026110 0.000000 0.000000
# 5 0.000000 0.000000 0.000000 0.000000 0.083328 0.000000
# 6 0.000000 0.000000 0.000000 0.000000 0.000000 -0.090668
#
#
# Mechanical properties :
#
#
# Convention : Reuss Voigt Hill
#
# Bulk Modulus (GPa) = 25.57674 39.17605 32.37640
# Shear Modulus (GPa) = 52.03409 20.95470 36.49440
#
# Velocity S-wave (km/s) = 5.39275 3.42221 4.51626
# Velocity P-wave (km/s) = 7.28495 6.12461 6.72983
#
# Compressibility (1/GPa) = 0.03909802
#
# Stress axis : x y z
#
# Youngs Moduli (GPa) = 35.29943 107.72081 71.01786
#
# Poissons Ratio (x) = 0.30337 -0.05854
# Poissons Ratio (y) = 0.09941 0.30578
# Poissons Ratio (z) = -0.02910 0.46382
#
# Static dielectric constant tensor:
#      x y z
#    x 1.529530 0.000000 0.000000 
#    y 0.000000 1.645360 0.000000 
#    z 0.000000 0.000000 1.619820 
# 
# From -- ./inp_files/50053.got.cif
#   From: 2010.05.17/outbox.cif.g08.bks.cpg/sg64_26_cif.got.tgz:50053.got - 2010.06.03 16:29:19.
