data_PCOD9477412
_publ_section_title
;
Structure prediction by ZEFSAII (Michael W. Deem and Ramdas Pophale) SiO2 
 PCOD9477412
Probable space group: C M C A
;
_chemical_formula_sum "Si O2"
_cell_formula_units_Z 80
_cell_length_a 8.576387
_cell_length_b 19.443387
_cell_length_c 27.074961
_cell_angle_alpha 90.000000
_cell_angle_beta 90.000000
_cell_angle_gamma 90.000000
_cell_volume 4514.858358
_symmetry_space_group_name_H-M "C M C A"
_symmetry_group_IT_number 64
_symmetry_cell_setting 'orthorhombic'
loop_
_space_group_symop_operation_xyz
x,y,z
-x,1/2-y,1/2+z
x,-y,-z
-x,1/2+y,1/2-z
-x,-y,-z
x,1/2+y,1/2-z
-x,y,z
x,1/2-y,1/2+z
1/2+x,1/2+y,z
1/2-x,-y,1/2+z
1/2+x,1/2-y,-z
1/2-x,y,1/2-z
1/2-x,1/2-y,-z
1/2+x,y,1/2-z
1/2-x,1/2+y,z
1/2+x,-y,1/2+z
loop_
_atom_site_type_symbol
_atom_site_label
_atom_site_fract_x
_atom_site_fract_y
_atom_site_fract_z
Si Si1 0.812887 0.328085 0.497503
Si Si2 0.310316 0.168946 0.394335
Si Si3 0.686770 0.583040 0.803318
Si Si4 0.311734 0.576759 0.196814
Si Si5 0.686647 0.171001 0.893863
O O1 0.750000 0.250000 0.500000
O O2 0.766171 0.358216 0.550998
O O3 0.746495 0.357400 0.446577
O O4 0.000000 0.327496 0.494740
O O5 0.500000 0.168783 0.393173
O O6 0.255564 0.123029 0.348759
O O7 0.261818 0.248833 0.389640
O O8 0.500000 0.585946 0.802924
O O9 0.750000 0.606268 0.750000
O O10 0.734972 0.503045 0.809659
O O11 0.750776 0.628110 0.847983
O O12 0.500000 0.579050 0.197793
O O13 0.250000 0.600526 0.250000
O O14 0.500000 0.170334 0.894190
#
# Coordination Sequence:
#
# PCOD9477412 Si02
#       5
#    16  16  16  16  16
#     4   9  16  29  49  72  99 130 163 199 244 292
#     4   8  16  31  51  73  96 125 161 201 240 282
#     4  10  20  34  52  71  95 128 162 198 241 290
#     4   9  18  34  52  70  94 125 161 198 240 288
#     4  10  19  32  51  74 101 129 161 202 242 287
#
# _framework density 17.719272
#
# number of rings (size 3 to 8) (size 9 to 14) (size 15 to 20)
#    0.000    2.800    0.000    3.000    0.000    1.600 
#    0.000    9.000    0.000    6.000    0.000    0.000 
#    0.000    0.000    0.000    0.000    0.000    0.000 
#
# Total GULP energy -222866.560465 kJ/mol
# GULP energy per Si atom -5571.664012 kJ/mol
# Density = 1.767894 g / cm^3
# Si number density = 17.719272 Si / 1000 Ang^3
#
#
#
# Elastic Constant Matrix: (Units=GPa)
#
#
# Indices 1 2 3 4 5 6 
#
# 1 36.4052 17.9327 40.8955 0.0000 0.0000 0.0000
# 2 17.9327 48.4105 80.4503 0.0000 0.0000 0.0000
# 3 40.8955 80.4503 230.6941 0.0000 0.0000 0.0000
# 4 0.0000 0.0000 0.0000 -42.9985 0.0000 0.0000
# 5 0.0000 0.0000 0.0000 0.0000 34.9929 0.0000
# 6 0.0000 0.0000 0.0000 0.0000 0.0000 15.2795
#
#
#
# Elastic Compliance Matrix: (Units=1/GPa)
#
#
# Indices 1 2 3 4 5 6 
#
# 1 0.035096 -0.006330 -0.004014 0.000000 0.000000 0.000000
# 2 -0.006330 0.050270 -0.016409 0.000000 0.000000 0.000000
# 3 -0.004014 -0.016409 0.010768 0.000000 0.000000 0.000000
# 4 0.000000 0.000000 0.000000 -0.023257 0.000000 0.000000
# 5 0.000000 0.000000 0.000000 0.000000 0.028577 0.000000
# 6 0.000000 0.000000 0.000000 0.000000 0.000000 0.065447
#
#
# Mechanical properties :
#
#
# Convention : Reuss Voigt Hill
#
# Bulk Modulus (GPa) = 23.45812 66.00742 44.73277
# Shear Modulus (GPa) = 21.31142 13.20355 17.25748
#
# Velocity S-wave (km/s) = 3.47180 2.73271 3.12418
# Velocity P-wave (km/s) = 5.41652 6.87674 6.18984
#
# Compressibility (1/GPa) = 0.04262916
#
# Stress axis : x y z
#
# Youngs Moduli (GPa) = 28.49353 19.89273 92.86349
#
# Poissons Ratio (x) = 0.12592 0.37276
# Poissons Ratio (y) = 0.18036 1.52375
# Poissons Ratio (z) = 0.11438 0.32641
#
# Static dielectric constant tensor:
#      x y z
#    x 1.604340 0.000000 0.000000 
#    y 0.000000 1.568740 0.000000 
#    z 0.000000 0.000000 1.620220 
# 
# From -- ./inp_files/47780.got.cif
#   From: 2010.05.17/outbox.cif.g08.bks.cpg/sg64_24_cif.got.tgz:47780.got - 2010.06.03 16:29:19.
