data_PCOD9477294
_publ_section_title
;
Structure prediction by ZEFSAII (Michael W. Deem and Ramdas Pophale) SiO2 
 PCOD9477294
Probable space group: C M C A
;
_chemical_formula_sum "Si O2"
_cell_formula_units_Z 96
_cell_length_a 9.360024
_cell_length_b 22.396241
_cell_length_c 23.788667
_cell_angle_alpha 90.000000
_cell_angle_beta 90.000000
_cell_angle_gamma 90.000000
_cell_volume 4986.802878
_symmetry_space_group_name_H-M "C M C A"
_symmetry_group_IT_number 64
_symmetry_cell_setting 'orthorhombic'
loop_
_space_group_symop_operation_xyz
x,y,z
-x,1/2-y,1/2+z
x,-y,-z
-x,1/2+y,1/2-z
-x,-y,-z
x,1/2+y,1/2-z
-x,y,z
x,1/2-y,1/2+z
1/2+x,1/2+y,z
1/2-x,-y,1/2+z
1/2+x,1/2-y,-z
1/2-x,y,1/2-z
1/2-x,1/2-y,-z
1/2+x,y,1/2-z
1/2-x,1/2+y,z
1/2+x,-y,1/2+z
loop_
_atom_site_type_symbol
_atom_site_label
_atom_site_fract_x
_atom_site_fract_y
_atom_site_fract_z
Si Si1 0.327941 0.336606 0.690763
Si Si2 0.331784 0.537260 0.595814
Si Si3 0.832311 0.841319 0.476207
Si Si4 0.672668 0.405530 0.582894
Si Si5 0.333575 0.599295 0.808165
Si Si6 0.333855 0.720802 0.880598
O O1 0.500000 0.335192 0.698958
O O2 0.250000 0.341137 0.750000
O O3 0.292072 0.389044 0.646799
O O4 0.285838 0.276519 0.656974
O O5 0.500000 0.532515 0.610630
O O6 0.319805 0.593863 0.554574
O O7 0.286684 0.473674 0.570266
O O8 0.239852 0.551875 0.650589
O O9 0.775085 0.856110 0.538458
O O10 0.750231 0.794360 0.437451
O O11 0.000000 0.825478 0.478028
O O12 0.500000 0.402508 0.577717
O O13 0.500000 0.586178 0.798835
O O14 0.250000 0.602822 0.750000
O O15 0.323543 0.662365 0.841057
O O16 0.500000 0.731028 0.894878
#
# Coordination Sequence:
#
# PCOD9477294 Si02
#       6
#    16  16  16  16  16  16
#     4  10  21  37  54  72  99 134 170 206 246 293
#     4   9  17  31  51  74 101 133 167 203 246 296
#     4   9  17  31  54  80 102 128 165 205 246 296
#     4   9  18  33  53  76 102 133 167 204 245 292
#     4  10  19  31  48  71  98 128 166 210 254 297
#     4   9  19  34  51  73 101 130 161 205 256 298
#
# _framework density 19.250810000000001
#
# number of rings (size 3 to 8) (size 9 to 14) (size 15 to 20)
#    0.000    2.667    0.000    1.500    0.000    4.667 
#    0.000    4.167    0.000    4.000    0.000    0.000 
#    0.000    0.000    0.000    0.000    0.000    0.000 
#
# Total GULP energy -267754.981771 kJ/mol
# GULP energy per Si atom -5578.228787 kJ/mol
# Density = 1.920699 g / cm^3
# Si number density = 19.250810 Si / 1000 Ang^3
#
#
#
# Elastic Constant Matrix: (Units=GPa)
#
#
# Indices 1 2 3 4 5 6 
#
# 1 41.3818 10.6199 35.9149 0.0000 0.0000 0.0000
# 2 10.6199 41.9356 10.7704 0.0000 0.0000 0.0000
# 3 35.9149 10.7704 94.9695 0.0000 0.0000 0.0000
# 4 0.0000 0.0000 0.0000 18.0775 0.0000 0.0000
# 5 0.0000 0.0000 0.0000 0.0000 25.6303 0.0000
# 6 0.0000 0.0000 0.0000 0.0000 0.0000 14.5999
#
#
#
# Elastic Compliance Matrix: (Units=1/GPa)
#
#
# Indices 1 2 3 4 5 6 
#
# 1 0.037387 -0.006012 -0.013457 0.000000 0.000000 0.000000
# 2 -0.006012 0.025528 -0.000622 0.000000 0.000000 0.000000
# 3 -0.013457 -0.000622 0.015689 0.000000 0.000000 0.000000
# 4 0.000000 0.000000 0.000000 0.055317 0.000000 0.000000
# 5 0.000000 0.000000 0.000000 0.000000 0.039016 0.000000
# 6 0.000000 0.000000 0.000000 0.000000 0.000000 0.068494
#
#
# Mechanical properties :
#
#
# Convention : Reuss Voigt Hill
#
# Bulk Modulus (GPa) = 26.02556 32.54413 29.28484
# Shear Modulus (GPa) = 16.98246 19.72698 18.35472
#
# Velocity S-wave (km/s) = 2.97335 3.20462 3.09115
# Velocity P-wave (km/s) = 5.03352 5.53487 5.29014
#
# Compressibility (1/GPa) = 0.03842377
#
# Stress axis : x y z
#
# Youngs Moduli (GPa) = 26.74701 39.17234 63.73774
#
# Poissons Ratio (x) = 0.23550 0.85772
# Poissons Ratio (y) = 0.16080 0.03962
# Poissons Ratio (z) = 0.35994 0.02435
#
# Static dielectric constant tensor:
#      x y z
#    x 1.642830 0.000000 0.000000 
#    y 0.000000 1.699740 0.000000 
#    z 0.000000 0.000000 1.672050 
# 
# From -- ./inp_files/38398.got.cif
#   From: 2010.05.17/outbox.cif.g08.bks.cpg/sg64_20_cif.got.tgz:38398.got - 2010.06.03 16:29:19.
