data_PCOD9477367
_publ_section_title
;
Structure prediction by ZEFSAII (Michael W. Deem and Ramdas Pophale) SiO2 
 PCOD9477367
Probable space group: C M C A
;
_chemical_formula_sum "Si O2"
_cell_formula_units_Z 112
_cell_length_a 23.309332
_cell_length_b 10.776501
_cell_length_c 22.189174
_cell_angle_alpha 90.000000
_cell_angle_beta 90.000000
_cell_angle_gamma 90.000000
_cell_volume 5573.766063
_symmetry_space_group_name_H-M "C M C A"
_symmetry_group_IT_number 64
_symmetry_cell_setting 'orthorhombic'
loop_
_space_group_symop_operation_xyz
x,y,z
-x,1/2-y,1/2+z
x,-y,-z
-x,1/2+y,1/2-z
-x,-y,-z
x,1/2+y,1/2-z
-x,y,z
x,1/2-y,1/2+z
1/2+x,1/2+y,z
1/2-x,-y,1/2+z
1/2+x,1/2-y,-z
1/2-x,y,1/2-z
1/2-x,1/2-y,-z
1/2+x,y,1/2-z
1/2-x,1/2+y,z
1/2+x,-y,1/2+z
loop_
_atom_site_type_symbol
_atom_site_label
_atom_site_fract_x
_atom_site_fract_y
_atom_site_fract_z
Si Si1 0.334739 0.424326 0.110946
Si Si2 0.563931 0.699746 0.954007
Si Si3 0.564908 0.426307 0.643881
Si Si4 0.095534 0.605491 0.955568
Si Si5 0.671947 0.689590 0.298876
Si Si6 0.275118 0.664562 0.553138
Si Si7 0.203900 0.662717 0.332521
O O1 0.387140 0.394685 0.066591
O O2 0.331274 0.310654 0.158588
O O3 0.275845 0.426530 0.072642
O O4 0.336356 0.550352 0.147842
O O5 0.500000 0.647812 0.950778
O O6 0.567597 0.815252 0.906285
O O7 0.574739 0.762972 0.018935
O O8 0.500000 0.427524 0.667986
O O9 0.578224 0.555602 0.609796
O O10 0.615689 0.392168 0.689461
O O11 0.164118 0.606547 0.963042
O O12 0.070945 0.500000 0.000000
O O13 0.730564 0.619420 0.318487
O O14 0.680686 0.722317 0.229006
O O15 0.250000 0.750000 0.500000
O O16 0.290065 0.745665 0.611797
#
# Coordination Sequence:
#
# PCOD9477367 Si02
#       7
#    16  16  16  16  16  16  16
#     4  10  20  35  56  78 108 148 182 226 287 339
#     4   9  17  32  51  77 109 145 188 226 274 342
#     4   9  17  31  56  83 107 142 187 239 289 328
#     4  10  19  31  53  82 115 144 181 237 289 338
#     4   9  20  37  54  81 109 138 190 234 278 343
#     4  11  22  34  53  84 114 143 185 235 279 347
#     4  10  22  36  56  81 111 149 181 229 287 342
#
# _framework density 20.094132999999999
#
# number of rings (size 3 to 8) (size 9 to 14) (size 15 to 20)
#    0.000    2.286    1.429    1.286    4.000    7.429 
#    0.000    0.714    0.000    7.714    0.000    0.000 
#    0.000    0.000    0.000    0.000    0.000    0.000 
#
# Total GULP energy -312401.732299 kJ/mol
# GULP energy per Si atom -5578.602362 kJ/mol
# Density = 2.004840 g / cm^3
# Si number density = 20.094133 Si / 1000 Ang^3
#
#
#
# Elastic Constant Matrix: (Units=GPa)
#
#
# Indices 1 2 3 4 5 6 
#
# 1 115.5737 15.0452 16.3587 0.0000 0.0000 0.0000
# 2 15.0452 24.0500 4.7832 0.0000 0.0000 0.0000
# 3 16.3587 4.7832 72.7543 0.0000 0.0000 0.0000
# 4 0.0000 0.0000 0.0000 21.3821 0.0000 0.0000
# 5 0.0000 0.0000 0.0000 0.0000 18.3351 0.0000
# 6 0.0000 0.0000 0.0000 0.0000 0.0000 15.6559
#
#
#
# Elastic Compliance Matrix: (Units=1/GPa)
#
#
# Indices 1 2 3 4 5 6 
#
# 1 0.009646 -0.005677 -0.001796 0.000000 0.000000 0.000000
# 2 -0.005677 0.045472 -0.001713 0.000000 0.000000 0.000000
# 3 -0.001796 -0.001713 0.014261 0.000000 0.000000 0.000000
# 4 0.000000 0.000000 0.000000 0.046768 0.000000 0.000000
# 5 0.000000 0.000000 0.000000 0.000000 0.054540 0.000000
# 6 0.000000 0.000000 0.000000 0.000000 0.000000 0.063874
#
#
# Mechanical properties :
#
#
# Convention : Reuss Voigt Hill
#
# Bulk Modulus (GPa) = 19.60484 31.63912 25.62198
# Shear Modulus (GPa) = 18.52296 22.82067 20.67182
#
# Velocity S-wave (km/s) = 3.03943 3.37365 3.21089
# Velocity P-wave (km/s) = 4.70055 5.56372 5.15025
#
# Compressibility (1/GPa) = 0.05100781
#
# Stress axis : x y z
#
# Youngs Moduli (GPa) = 103.67346 21.99141 70.12004
#
# Poissons Ratio (x) = 0.12485 0.12591
# Poissons Ratio (y) = 0.58856 0.12012
# Poissons Ratio (z) = 0.18615 0.03767
#
# Static dielectric constant tensor:
#      x y z
#    x 1.716190 0.000000 0.000000 
#    y 0.000000 1.723430 0.000000 
#    z 0.000000 0.000000 1.737720 
# 
# From -- ./inp_files/41528.got.cif
#   From: 2010.05.17/outbox.cif.g08.bks.cpg/sg64_21_cif.got.tgz:41528.got - 2010.06.03 16:29:19.
