data_PCOD9477489
_publ_section_title
;
Structure prediction by ZEFSAII (Michael W. Deem and Ramdas Pophale) SiO2 
 PCOD9477489
Probable space group: C M C A
;
_chemical_formula_sum "Si O2"
_cell_formula_units_Z 96
_cell_length_a 22.425430
_cell_length_b 27.295110
_cell_length_c 8.844255
_cell_angle_alpha 90.000000
_cell_angle_beta 90.000000
_cell_angle_gamma 90.000000
_cell_volume 5413.608980
_symmetry_space_group_name_H-M "C M C A"
_symmetry_group_IT_number 64
_symmetry_cell_setting 'orthorhombic'
loop_
_space_group_symop_operation_xyz
x,y,z
-x,1/2-y,1/2+z
x,-y,-z
-x,1/2+y,1/2-z
-x,-y,-z
x,1/2+y,1/2-z
-x,y,z
x,1/2-y,1/2+z
1/2+x,1/2+y,z
1/2-x,-y,1/2+z
1/2+x,1/2-y,-z
1/2-x,y,1/2-z
1/2-x,1/2-y,-z
1/2+x,y,1/2-z
1/2-x,1/2+y,z
1/2+x,-y,1/2+z
loop_
_atom_site_type_symbol
_atom_site_label
_atom_site_fract_x
_atom_site_fract_y
_atom_site_fract_z
Si Si1 0.183513 0.201545 0.318742
Si Si2 0.129310 0.499435 0.666908
Si Si3 0.131017 0.399549 0.853393
Si Si4 0.184883 0.092348 0.674368
Si Si5 0.816921 0.199397 0.682229
Si Si6 0.000000 0.920316 0.539504
Si Si7 0.000000 0.482277 0.247502
O O1 0.250000 0.197241 0.250000
O O2 0.148612 0.151931 0.279284
O O3 0.155585 0.251644 0.253480
O O4 0.186355 0.204808 0.500979
O O5 0.156411 0.500000 0.500000
O O6 0.134944 0.446466 0.744501
O O7 0.155843 0.542624 0.767986
O O8 0.059903 0.513928 0.658997
O O9 0.063318 0.396095 0.918255
O O10 0.176966 0.407947 0.992911
O O11 0.250000 0.092789 0.750000
O O12 0.156725 0.145563 0.718009
O O13 0.750000 0.198369 0.750000
O O14 0.000000 0.935864 0.364322
O O15 0.000000 0.970431 0.637175
#
# Coordination Sequence:
#
# PCOD9477489 Si02
#       7
#    16  16  16  16  16   8   8
#     4  10  19  32  54  78 105 138 177 224 266 323
#     4  11  22  33  52  81 110 141 177 230 279 326
#     4  10  21  36  57  80 106 148 187 220 278 326
#     4  10  21  35  51  76 109 146 184 222 268 336
#     4   9  18  32  51  74 102 139 181 215 261 314
#     4   9  16  34  62  75  97 144 190 231 254 323
#     4   9  17  34  56  75  99 136 188 227 262 310
#
# _framework density 17.733087000000001
#
# number of rings (size 3 to 8) (size 9 to 14) (size 15 to 20)
#    0.000    2.167    1.667    2.750    0.000    7.333 
#    0.000    0.000    0.000    5.000    0.000    0.000 
#    0.000    0.000    0.000    0.000    0.000    0.000 
#
# Total GULP energy -267250.663720 kJ/mol
# GULP energy per Si atom -5567.722161 kJ/mol
# Density = 1.769273 g / cm^3
# Si number density = 17.733087 Si / 1000 Ang^3
#
#
#
# Elastic Constant Matrix: (Units=GPa)
#
#
# Indices 1 2 3 4 5 6 
#
# 1 38.0106 15.7922 0.0732 0.0000 0.0000 0.0000
# 2 15.7922 149.9935 30.6266 0.0000 0.0000 0.0000
# 3 0.0732 30.6266 63.3276 0.0000 0.0000 0.0000
# 4 0.0000 0.0000 0.0000 21.0737 0.0000 0.0000
# 5 0.0000 0.0000 0.0000 0.0000 12.4366 0.0000
# 6 0.0000 0.0000 0.0000 0.0000 0.0000 -87.2289
#
#
#
# Elastic Compliance Matrix: (Units=1/GPa)
#
#
# Indices 1 2 3 4 5 6 
#
# 1 0.027644 -0.003222 0.001526 0.000000 0.000000 0.000000
# 2 -0.003222 0.007773 -0.003755 0.000000 0.000000 0.000000
# 3 0.001526 -0.003755 0.017605 0.000000 0.000000 0.000000
# 4 0.000000 0.000000 0.000000 0.047452 0.000000 0.000000
# 5 0.000000 0.000000 0.000000 0.000000 0.080408 0.000000
# 6 0.000000 0.000000 0.000000 0.000000 0.000000 -0.011464
#
#
# Mechanical properties :
#
#
# Convention : Reuss Voigt Hill
#
# Bulk Modulus (GPa) = 23.74168 38.25731 30.99949
# Shear Modulus (GPa) = 25.72523 2.91225 14.31874
#
# Velocity S-wave (km/s) = 3.81293 1.28290 2.84466
# Velocity P-wave (km/s) = 5.72730 4.88009 5.32058
#
# Compressibility (1/GPa) = 0.04212003
#
# Stress axis : x y z
#
# Youngs Moduli (GPa) = 36.17386 128.64996 56.80081
#
# Poissons Ratio (x) = 0.41454 -0.08670
# Poissons Ratio (y) = 0.11656 0.21331
# Poissons Ratio (z) = -0.05522 0.48314
#
# Static dielectric constant tensor:
#      x y z
#    x 1.629090 0.000000 0.000000 
#    y 0.000000 1.640920 0.000000 
#    z 0.000000 0.000000 1.614990 
# 
# From -- ./inp_files/9636.got.cif
#   From: 2010.05.17/outbox.cif.g08.bks.cpg/sg64_5_cif.got.tgz:9636.got - 2010.06.03 16:29:19.
