data_PCOD9477632
_publ_section_title
;
Structure prediction by ZEFSAII (Michael W. Deem and Ramdas Pophale) SiO2 
 PCOD9477632
Probable space group: C M C A
;
_chemical_formula_sum "Si O2"
_cell_formula_units_Z 72
_cell_length_a 14.046725
_cell_length_b 18.325664
_cell_length_c 15.902896
_cell_angle_alpha 90.000000
_cell_angle_beta 90.000000
_cell_angle_gamma 90.000000
_cell_volume 4093.652922
_symmetry_space_group_name_H-M "C M C A"
_symmetry_group_IT_number 64
_symmetry_cell_setting 'orthorhombic'
loop_
_space_group_symop_operation_xyz
x,y,z
-x,1/2-y,1/2+z
x,-y,-z
-x,1/2+y,1/2-z
-x,-y,-z
x,1/2+y,1/2-z
-x,y,z
x,1/2-y,1/2+z
1/2+x,1/2+y,z
1/2-x,-y,1/2+z
1/2+x,1/2-y,-z
1/2-x,y,1/2-z
1/2-x,1/2-y,-z
1/2+x,y,1/2-z
1/2-x,1/2+y,z
1/2+x,-y,1/2+z
loop_
_atom_site_type_symbol
_atom_site_label
_atom_site_fract_x
_atom_site_fract_y
_atom_site_fract_z
Si Si1 0.113467 0.050327 0.283021
Si Si2 0.750000 0.235648 0.750000
Si Si3 0.223978 0.369326 0.633380
Si Si4 0.111841 0.914503 0.022919
Si Si5 0.613069 0.608159 0.783170
O O1 0.149419 0.092564 0.198846
O O2 0.178849 0.084241 0.356064
O O3 0.000000 0.059133 0.293610
O O4 0.136172 0.965137 0.268513
O O5 0.754626 0.289543 0.670327
O O6 0.661485 0.181059 0.749213
O O7 0.177784 0.371883 0.542333
O O8 0.140721 0.903827 0.119459
O O9 0.000000 0.894220 0.013726
O O10 0.119112 0.000000 0.000000
O O11 0.500000 0.615223 0.781200
#
# Coordination Sequence:
#
# PCOD9477632 Si02
#       5
#    16   8  16  16  16
#     4   9  17  32  54  78 101 133 179 218 252 301
#     4  10  22  34  50  78 112 142 166 204 268 324
#     4  10  20  32  54  81 104 136 171 218 262 307
#     4  10  19  33  56  82 101 130 179 227 258 293
#     4  10  20  34  54  77 105 138 175 216 258 306
#
# _framework density 17.588204000000001
#
# number of rings (size 3 to 8) (size 9 to 14) (size 15 to 20)
#    0.000    2.444    2.222    2.000    0.000    5.333 
#    0.000    0.000    0.000    2.000    0.000    0.000 
#    0.000    0.000    0.000    0.000    0.000    0.000 
#
# Total GULP energy -200780.223830 kJ/mol
# GULP energy per Si atom -5577.228440 kJ/mol
# Density = 1.754817 g / cm^3
# Si number density = 17.588204 Si / 1000 Ang^3
#
#
#
# Elastic Constant Matrix: (Units=GPa)
#
#
# Indices 1 2 3 4 5 6 
#
# 1 91.8357 40.1324 29.2840 0.0000 0.0000 0.0000
# 2 40.1324 120.2926 26.5545 0.0000 0.0000 0.0000
# 3 29.2840 26.5545 38.4544 0.0000 0.0000 0.0000
# 4 0.0000 0.0000 0.0000 -0.0331 0.0000 0.0000
# 5 0.0000 0.0000 0.0000 0.0000 26.9964 0.0000
# 6 0.0000 0.0000 0.0000 0.0000 0.0000 120.8307
#
#
#
# Elastic Compliance Matrix: (Units=1/GPa)
#
#
# Indices 1 2 3 4 5 6 
#
# 1 0.015233 -0.002975 -0.009546 0.000000 0.000000 0.000000
# 2 -0.002975 0.010389 -0.004909 0.000000 0.000000 0.000000
# 3 -0.009546 -0.004909 0.036664 0.000000 0.000000 0.000000
# 4 0.000000 0.000000 0.000000-30.250104 0.000000 0.000000
# 5 0.000000 0.000000 0.000000 0.000000 0.037042 0.000000
# 6 0.000000 0.000000 0.000000 0.000000 0.000000 0.008276
#
#
# Mechanical properties :
#
#
# Convention : Reuss Voigt Hill
#
# Bulk Modulus (GPa) = 36.46049 49.16938 42.81493
# Shear Modulus (GPa) = -0.16612 39.86625 19.85007
#
# Velocity S-wave (km/s) = -0.30766 4.76610 3.36311
# Velocity P-wave (km/s) = 4.54410 7.63572 6.28303
#
# Compressibility (1/GPa) = 0.02742695
#
# Stress axis : x y z
#
# Youngs Moduli (GPa) = 65.64699 96.25441 27.27460
#
# Poissons Ratio (x) = 0.28634 0.26037
# Poissons Ratio (y) = 0.19529 0.13389
# Poissons Ratio (z) = 0.62667 0.47249
#
# Static dielectric constant tensor:
#      x y z
#    x 1.617350 0.000000 0.000000 
#    y 0.000000 1.590020 0.000000 
#    z 0.000000 0.000000 1.605600 
# 
# From -- ./inp_files/23537.got.cif
#   From: 2010.05.17/outbox.cif.g08.bks.cpg/sg64_12_cif.got.tgz:23537.got - 2010.06.03 16:29:19.
