data_PCOD9477899
_publ_section_title
;
Structure prediction by ZEFSAII (Michael W. Deem and Ramdas Pophale) SiO2 
 PCOD9477899
Probable space group: C M C A
;
_chemical_formula_sum "Si O2"
_cell_formula_units_Z 96
_cell_length_a 19.731768
_cell_length_b 27.557786
_cell_length_c 8.634386
_cell_angle_alpha 90.000000
_cell_angle_beta 90.000000
_cell_angle_gamma 90.000000
_cell_volume 4695.066887
_symmetry_space_group_name_H-M "C M C A"
_symmetry_group_IT_number 64
_symmetry_cell_setting 'orthorhombic'
loop_
_space_group_symop_operation_xyz
x,y,z
-x,1/2-y,1/2+z
x,-y,-z
-x,1/2+y,1/2-z
-x,-y,-z
x,1/2+y,1/2-z
-x,y,z
x,1/2-y,1/2+z
1/2+x,1/2+y,z
1/2-x,-y,1/2+z
1/2+x,1/2-y,-z
1/2-x,y,1/2-z
1/2-x,1/2-y,-z
1/2+x,y,1/2-z
1/2-x,1/2+y,z
1/2+x,-y,1/2+z
loop_
_atom_site_type_symbol
_atom_site_label
_atom_site_fract_x
_atom_site_fract_y
_atom_site_fract_z
Si Si1 0.075889 0.809772 0.760644
Si Si2 0.856593 0.749562 0.024187
Si Si3 0.173721 0.995379 0.186622
Si Si4 0.920454 0.404085 0.326547
Si Si5 0.421480 0.415951 0.799773
Si Si6 0.180516 0.676575 0.777706
O O1 0.080715 0.773724 0.616424
O O2 0.122598 0.787178 0.892426
O O3 0.094365 0.864755 0.719140
O O4 0.000000 0.812024 0.822976
O O5 0.823422 0.703036 0.942566
O O6 0.816779 0.779755 0.152384
O O7 0.250000 0.992209 0.250000
O O8 0.126025 0.949350 0.225131
O O9 0.132121 0.042815 0.241412
O O10 0.177355 0.000000 0.000000
O O11 0.917624 0.405131 0.514873
O O12 0.884766 0.355874 0.260283
O O13 0.000000 0.407871 0.283697
O O14 0.500000 0.430276 0.768119
O O15 0.250000 0.647526 0.750000
#
# Coordination Sequence:
#
# PCOD9477899 Si02
#       6
#    16  16  16  16  16  16
#     4  10  19  35  57  86 120 155 198 242 290 342
#     4  10  22  36  56  84 118 161 199 242 289 344
#     4  10  21  40  63  89 116 149 191 234 291 350
#     4  10  20  37  63  89 113 149 195 244 289 343
#     4   9  18  36  60  87 115 151 196 242 287 343
#     4  11  22  39  58  85 120 159 200 242 290 348
#
# _framework density 20.446992999999999
#
# number of rings (size 3 to 8) (size 9 to 14) (size 15 to 20)
#    0.000    2.000    1.667    2.000    0.000    5.333 
#    9.000    0.833    0.000    1.000    0.000    0.000 
#    0.000    0.000    0.000    0.000    0.000    0.000 
#
# Total GULP energy -267672.667905 kJ/mol
# GULP energy per Si atom -5576.513915 kJ/mol
# Density = 2.040046 g / cm^3
# Si number density = 20.446993 Si / 1000 Ang^3
#
#
#
# Elastic Constant Matrix: (Units=GPa)
#
#
# Indices 1 2 3 4 5 6 
#
# 1 137.8299 61.6020 12.8855 0.0000 0.0000 0.0000
# 2 61.6020 94.9737 13.0878 0.0000 0.0000 0.0000
# 3 12.8855 13.0878 21.2463 0.0000 0.0000 0.0000
# 4 0.0000 0.0000 0.0000 10.3243 0.0000 0.0000
# 5 0.0000 0.0000 0.0000 0.0000 22.5909 0.0000
# 6 0.0000 0.0000 0.0000 0.0000 0.0000 22.4853
#
#
#
# Elastic Compliance Matrix: (Units=1/GPa)
#
#
# Indices 1 2 3 4 5 6 
#
# 1 0.010322 -0.006374 -0.002334 0.000000 0.000000 0.000000
# 2 -0.006374 0.015441 -0.005646 0.000000 0.000000 0.000000
# 3 -0.002334 -0.005646 0.051961 0.000000 0.000000 0.000000
# 4 0.000000 0.000000 0.000000 0.096859 0.000000 0.000000
# 5 0.000000 0.000000 0.000000 0.000000 0.044266 0.000000
# 6 0.000000 0.000000 0.000000 0.000000 0.000000 0.044473
#
#
# Mechanical properties :
#
#
# Convention : Reuss Voigt Hill
#
# Bulk Modulus (GPa) = 20.40147 47.68894 34.04521
# Shear Modulus (GPa) = 16.21433 22.17840 19.19637
#
# Velocity S-wave (km/s) = 2.81907 3.29702 3.06737
# Velocity P-wave (km/s) = 4.53824 6.15367 5.40663
#
# Compressibility (1/GPa) = 0.04901608
#
# Stress axis : x y z
#
# Youngs Moduli (GPa) = 96.87931 64.76118 19.24530
#
# Poissons Ratio (x) = 0.41276 0.04492
# Poissons Ratio (y) = 0.61746 0.10867
# Poissons Ratio (z) = 0.22612 0.36567
#
# Static dielectric constant tensor:
#      x y z
#    x 1.744890 0.000000 0.000000 
#    y 0.000000 1.742690 0.000000 
#    z 0.000000 0.000000 1.727470 
# 
# From -- ./inp_files/8410.got.cif
#   From: 2010.05.17/outbox.cif.g08.bks.cpg/sg64_5_cif.got.tgz:8410.got - 2010.06.03 16:29:19.
