data_PCOD9477146
_publ_section_title
;
Structure prediction by ZEFSAII (Michael W. Deem and Ramdas Pophale) SiO2 
 PCOD9477146
Probable space group: C M C A
;
_chemical_formula_sum "Si O2"
_cell_formula_units_Z 80
_cell_length_a 25.730944
_cell_length_b 8.686658
_cell_length_c 14.017531
_cell_angle_alpha 90.000000
_cell_angle_beta 90.000000
_cell_angle_gamma 90.000000
_cell_volume 3133.141205
_symmetry_space_group_name_H-M "C M C A"
_symmetry_group_IT_number 64
_symmetry_cell_setting 'orthorhombic'
loop_
_space_group_symop_operation_xyz
x,y,z
-x,1/2-y,1/2+z
x,-y,-z
-x,1/2+y,1/2-z
-x,-y,-z
x,1/2+y,1/2-z
-x,y,z
x,1/2-y,1/2+z
1/2+x,1/2+y,z
1/2-x,-y,1/2+z
1/2+x,1/2-y,-z
1/2-x,y,1/2-z
1/2-x,1/2-y,-z
1/2+x,y,1/2-z
1/2-x,1/2+y,z
1/2+x,-y,1/2+z
loop_
_atom_site_type_symbol
_atom_site_label
_atom_site_fract_x
_atom_site_fract_y
_atom_site_fract_z
Si Si1 0.000000 0.181365 0.606341
Si Si2 0.191806 0.541338 0.773889
Si Si3 0.615830 0.219662 0.217107
Si Si4 0.000000 0.342789 0.800946
Si Si5 0.697951 0.174876 0.966502
Si Si6 0.404114 0.160982 0.446383
O O1 0.000000 0.018907 0.661569
O O2 0.949759 0.213184 0.543534
O O3 0.000000 0.318307 0.685838
O O4 0.250000 0.484271 0.750000
O O5 0.153418 0.414956 0.818082
O O6 0.151730 0.629724 0.704207
O O7 0.202651 0.669972 0.852451
O O8 0.606529 0.175528 0.330587
O O9 0.557235 0.227849 0.175325
O O10 0.648252 0.274541 0.991877
O O11 0.750000 0.250000 0.000000
O O12 0.695266 0.000000 0.000000
O O13 0.417044 0.000000 0.500000
#
# Coordination Sequence:
#
# PCOD9477146 Si02
#       6
#     8  16  16   8  16  16
#     4  10  21  40  65 101 130 175 212 276 327 395
#     4  11  25  40  63  94 131 165 218 270 328 392
#     4  10  22  38  63  95 123 170 212 273 322 389
#     4  10  18  38  64  91 129 161 219 260 328 384
#     4  11  26  42  64  92 128 176 218 272 334 397
#     4  10  22  41  65  93 131 171 222 269 331 398
#
# _framework density 25.533479
#
# number of rings (size 3 to 8) (size 9 to 14) (size 15 to 20)
#    0.000    1.600    0.000    5.100   11.200    0.000 
#    0.000    4.500    0.000    2.400    0.000    0.000 
#    0.000    0.000    0.000    0.000    0.000    0.000 
#
# Total GULP energy -223181.061256 kJ/mol
# GULP energy per Si atom -5579.526531 kJ/mol
# Density = 2.547536 g / cm^3
# Si number density = 25.533479 Si / 1000 Ang^3
#
#
#
# Elastic Constant Matrix: (Units=GPa)
#
#
# Indices 1 2 3 4 5 6 
#
# 1 262.2220 45.3010 13.5067 0.0000 0.0000 0.0000
# 2 45.3010 81.2160 -6.4561 0.0000 0.0000 0.0000
# 3 13.5067 -6.4561 87.3528 0.0000 0.0000 0.0000
# 4 0.0000 0.0000 0.0000 32.6537 0.0000 0.0000
# 5 0.0000 0.0000 0.0000 0.0000 7.2438 0.0000
# 6 0.0000 0.0000 0.0000 0.0000 0.0000 27.6939
#
#
#
# Elastic Compliance Matrix: (Units=1/GPa)
#
#
# Indices 1 2 3 4 5 6 
#
# 1 0.004281 -0.002455 -0.000843 0.000000 0.000000 0.000000
# 2 -0.002455 0.013793 0.001399 0.000000 0.000000 0.000000
# 3 -0.000843 0.001399 0.011682 0.000000 0.000000 0.000000
# 4 0.000000 0.000000 0.000000 0.030624 0.000000 0.000000
# 5 0.000000 0.000000 0.000000 0.000000 0.138049 0.000000
# 6 0.000000 0.000000 0.000000 0.000000 0.000000 0.036109
#
#
# Mechanical properties :
#
#
# Convention : Reuss Voigt Hill
#
# Bulk Modulus (GPa) = 38.52452 59.49933 49.01192
# Shear Modulus (GPa) = 20.24377 38.74758 29.49568
#
# Velocity S-wave (km/s) = 2.81878 3.89976 3.40248
# Velocity P-wave (km/s) = 5.07096 6.60535 5.88835
#
# Compressibility (1/GPa) = 0.02595750
#
# Stress axis : x y z
#
# Youngs Moduli (GPa) = 233.58358 72.49840 85.60437
#
# Poissons Ratio (x) = 0.17798 0.07220
# Poissons Ratio (y) = 0.57344 -0.11976
# Poissons Ratio (z) = 0.19701 -0.10143
#
# Static dielectric constant tensor:
#      x y z
#    x 2.178370 0.000000 0.000000 
#    y 0.000000 2.036670 0.000000 
#    z 0.000000 0.000000 2.313340 
# 
# From -- ./inp_files/35402.got.cif
#   From: 2010.05.17/outbox.cif.g08.bks.cpg/sg64_18_cif.got.tgz:35402.got - 2010.06.03 16:29:19.
