data_PCOD9477734
_publ_section_title
;
Structure prediction by ZEFSAII (Michael W. Deem and Ramdas Pophale) SiO2 
 PCOD9477734
Probable space group: C M C A
;
_chemical_formula_sum "Si O2"
_cell_formula_units_Z 96
_cell_length_a 21.423315
_cell_length_b 11.908018
_cell_length_c 15.325835
_cell_angle_alpha 90.000000
_cell_angle_beta 90.000000
_cell_angle_gamma 90.000000
_cell_volume 3909.761823
_symmetry_space_group_name_H-M "C M C A"
_symmetry_group_IT_number 64
_symmetry_cell_setting 'orthorhombic'
loop_
_space_group_symop_operation_xyz
x,y,z
-x,1/2-y,1/2+z
x,-y,-z
-x,1/2+y,1/2-z
-x,-y,-z
x,1/2+y,1/2-z
-x,y,z
x,1/2-y,1/2+z
1/2+x,1/2+y,z
1/2-x,-y,1/2+z
1/2+x,1/2-y,-z
1/2-x,y,1/2-z
1/2-x,1/2-y,-z
1/2+x,y,1/2-z
1/2-x,1/2+y,z
1/2+x,-y,1/2+z
loop_
_atom_site_type_symbol
_atom_site_label
_atom_site_fract_x
_atom_site_fract_y
_atom_site_fract_z
Si Si1 0.758898 0.331557 0.645077
Si Si2 0.070536 0.612048 0.457901
Si Si3 0.867333 0.681747 0.894717
Si Si4 0.632901 0.063904 0.132070
Si Si5 0.363543 0.503719 0.829371
Si Si6 0.072800 0.722945 0.702742
O O1 0.750000 0.317205 0.750000
O O2 0.795302 0.220459 0.614041
O O3 0.693617 0.366227 0.603172
O O4 0.805687 0.436719 0.629022
O O5 0.099739 0.500000 0.500000
O O6 0.102485 0.731537 0.462662
O O7 0.076386 0.569986 0.357630
O O8 0.000000 0.621708 0.488297
O O9 0.879895 0.552698 0.916714
O O10 0.900447 0.712356 0.801660
O O11 0.650085 0.011049 0.227261
O O12 0.581830 0.156767 0.157047
O O13 0.383223 0.631263 0.845575
O O14 0.000000 0.691140 0.702665
#
# Coordination Sequence:
#
# PCOD9477734 Si02
#       6
#    16  16  16  16  16  16
#     4   9  16  31  48  71 102 129 173 206 255 308
#     4  10  19  34  55  75 101 140 184 218 250 302
#     4  10  20  32  48  76 104 136 170 221 254 314
#     4  10  20  30  50  78 105 138 163 212 272 322
#     4   9  19  32  48  76 101 136 168 219 252 309
#     4  11  20  30  47  75 112 138 159 207 272 325
#
# _framework density 24.553925
#
# number of rings (size 3 to 8) (size 9 to 14) (size 15 to 20)
#    0.000    2.167    5.000    1.000    2.333    4.000 
#    0.000    0.000    0.000    5.000    0.000    3.500 
#    0.000    0.000    0.000    0.000    0.000    0.000 
#
# Total GULP energy -267657.532254 kJ/mol
# GULP energy per Si atom -5576.198589 kJ/mol
# Density = 2.449804 g / cm^3
# Si number density = 24.553925 Si / 1000 Ang^3
#
#
#
# Elastic Constant Matrix: (Units=GPa)
#
#
# Indices 1 2 3 4 5 6 
#
# 1 75.2912 18.0339 13.2254 0.0000 0.0000 0.0000
# 2 18.0339 168.3963 50.1642 0.0000 0.0000 0.0000
# 3 13.2254 50.1642 57.9554 0.0000 0.0000 0.0000
# 4 0.0000 0.0000 0.0000 36.6945 0.0000 0.0000
# 5 0.0000 0.0000 0.0000 0.0000 11.6742 0.0000
# 6 0.0000 0.0000 0.0000 0.0000 0.0000 13.7970
#
#
#
# Elastic Compliance Matrix: (Units=1/GPa)
#
#
# Indices 1 2 3 4 5 6 
#
# 1 0.013903 -0.000733 -0.002538 0.000000 0.000000 0.000000
# 2 -0.000733 0.008040 -0.006792 0.000000 0.000000 0.000000
# 3 -0.002538 -0.006792 0.023713 0.000000 0.000000 0.000000
# 4 0.000000 0.000000 0.000000 0.027252 0.000000 0.000000
# 5 0.000000 0.000000 0.000000 0.000000 0.085659 0.000000
# 6 0.000000 0.000000 0.000000 0.000000 0.000000 0.072480
#
#
# Mechanical properties :
#
#
# Convention : Reuss Voigt Hill
#
# Bulk Modulus (GPa) = 39.17008 51.60997 45.39003
# Shear Modulus (GPa) = 19.25421 27.11444 23.18433
#
# Velocity S-wave (km/s) = 2.80332 3.32668 3.07615
# Velocity P-wave (km/s) = 5.14446 5.98501 5.58058
#
# Compressibility (1/GPa) = 0.02552969
#
# Stress axis : x y z
#
# Youngs Moduli (GPa) = 71.92610 124.37573 42.17114
#
# Poissons Ratio (x) = 0.09113 0.10705
# Poissons Ratio (y) = 0.05270 0.28643
# Poissons Ratio (z) = 0.18258 0.84477
#
# Static dielectric constant tensor:
#      x y z
#    x 1.943620 0.000000 0.000000 
#    y 0.000000 2.000790 0.000000 
#    z 0.000000 0.000000 2.192070 
# 
# From -- ./inp_files/40872.got.cif
#   From: 2010.05.17/outbox.cif.g08.bks.cpg/sg64_21_cif.got.tgz:40872.got - 2010.06.03 16:29:19.
