data_PCOD9477873
_publ_section_title
;
Structure prediction by ZEFSAII (Michael W. Deem and Ramdas Pophale) SiO2 
 PCOD9477873
Probable space group: C M C A
;
_chemical_formula_sum "Si O2"
_cell_formula_units_Z 116
_cell_length_a 31.349306
_cell_length_b 19.010972
_cell_length_c 7.867017
_cell_angle_alpha 90.000000
_cell_angle_beta 90.000000
_cell_angle_gamma 90.000000
_cell_volume 4688.590917
_symmetry_space_group_name_H-M "C M C A"
_symmetry_group_IT_number 64
_symmetry_cell_setting 'orthorhombic'
loop_
_space_group_symop_operation_xyz
x,y,z
-x,1/2-y,1/2+z
x,-y,-z
-x,1/2+y,1/2-z
-x,-y,-z
x,1/2+y,1/2-z
-x,y,z
x,1/2-y,1/2+z
1/2+x,1/2+y,z
1/2-x,-y,1/2+z
1/2+x,1/2-y,-z
1/2-x,y,1/2-z
1/2-x,1/2-y,-z
1/2+x,y,1/2-z
1/2-x,1/2+y,z
1/2+x,-y,1/2+z
loop_
_atom_site_type_symbol
_atom_site_label
_atom_site_fract_x
_atom_site_fract_y
_atom_site_fract_z
Si Si1 0.192809 0.698908 0.111504
Si Si2 0.061773 0.406169 0.682876
Si Si3 0.500000 0.500000 0.000000
Si Si4 0.768670 0.357062 0.432006
Si Si5 0.630526 0.726502 0.675350
Si Si6 0.451016 0.676799 0.516271
Si Si7 0.091139 0.536040 0.841433
Si Si8 0.138798 0.393044 0.450594
O O1 0.215020 0.776135 0.098171
O O2 0.161694 0.708801 0.273002
O O3 0.231830 0.647026 0.073800
O O4 0.159533 0.684961 0.959715
O O5 0.035806 0.435445 0.521883
O O6 0.050889 0.343728 0.814926
O O7 0.056718 0.476600 0.795839
O O8 0.108938 0.397066 0.613642
O O9 0.750000 0.379834 0.250000
O O10 0.811015 0.399091 0.478157
O O11 0.584181 0.731811 0.586884
O O12 0.628936 0.679960 0.846939
O O13 0.500000 0.693917 0.558029
O O14 0.433541 0.606548 0.608186
O O15 0.122189 0.550364 0.685917
O O16 0.114960 0.500000 0.000000
#
# Coordination Sequence:
#
# PCOD9477873 Si02
#       8
#    16  16   4  16  16  16  16  16
#     4  10  19  38  60  90 111 148 206 249 322 376
#     4  11  21  34  58  91 130 159 208 253 301 373
#     4  12  20  32  62  96 116 172 214 256 292 364
#     4  10  19  35  63  91 116 149 195 268 312 378
#     4  10  22  37  61  86 122 156 197 267 315 368
#     4  10  22  38  58  92 124 163 209 256 313 370
#     4   9  19  33  57  84 121 167 202 247 296 368
#     4  10  19  35  54  91 125 159 193 257 325 359
#
# _framework density 24.740908999999998
#
# number of rings (size 3 to 8) (size 9 to 14) (size 15 to 20)
#    0.000    1.931    4.828    0.000    0.966    3.034 
#    0.000    0.690    0.000    1.655    0.000    0.000 
#    0.000    0.000    0.000    0.000    0.000    0.000 
#
# Total GULP energy -322958.720517 kJ/mol
# GULP energy per Si atom -5568.253802 kJ/mol
# Density = 2.468460 g / cm^3
# Si number density = 24.740909 Si / 1000 Ang^3
#
#
#
# Elastic Constant Matrix: (Units=GPa)
#
#
# Indices 1 2 3 4 5 6 
#
# 1 236.1069 29.9966 65.4845 0.0000 0.0000 0.0000
# 2 29.9966 33.5555 17.5139 0.0000 0.0000 0.0000
# 3 65.4845 17.5139 89.2291 0.0000 0.0000 0.0000
# 4 0.0000 0.0000 0.0000 34.6010 0.0000 0.0000
# 5 0.0000 0.0000 0.0000 0.0000 136.4198 0.0000
# 6 0.0000 0.0000 0.0000 0.0000 0.0000 37.8312
#
#
#
# Elastic Compliance Matrix: (Units=1/GPa)
#
#
# Indices 1 2 3 4 5 6 
#
# 1 0.005609 -0.003193 -0.003490 0.000000 0.000000 0.000000
# 2 -0.003193 0.035020 -0.004531 0.000000 0.000000 0.000000
# 3 -0.003490 -0.004531 0.014657 0.000000 0.000000 0.000000
# 4 0.000000 0.000000 0.000000 0.028901 0.000000 0.000000
# 5 0.000000 0.000000 0.000000 0.000000 0.007330 0.000000
# 6 0.000000 0.000000 0.000000 0.000000 0.000000 0.026433
#
#
# Mechanical properties :
#
#
# Convention : Reuss Voigt Hill
#
# Bulk Modulus (GPa) = 30.43174 64.98682 47.70928
# Shear Modulus (GPa) = 33.04036 58.16349 45.60193
#
# Velocity S-wave (km/s) = 3.65835 4.85387 4.29788
# Velocity P-wave (km/s) = 5.49287 7.59851 6.62982
#
# Compressibility (1/GPa) = 0.03286043
#
# Stress axis : x y z
#
# Youngs Moduli (GPa) = 178.29022 28.55507 68.22482
#
# Poissons Ratio (x) = 0.09116 0.23808
# Poissons Ratio (y) = 0.56920 0.30911
# Poissons Ratio (z) = 0.62217 0.12938
#
# Static dielectric constant tensor:
#      x y z
#    x 1.953710 0.000000 0.000000 
#    y 0.000000 2.001810 0.000000 
#    z 0.000000 0.000000 2.152650 
# 
# From -- ./inp_files/10646.got.cif
#   From: 2010.05.17/outbox.cif.g08.bks.cpg/sg64_6_cif.got.tgz:10646.got - 2010.06.03 16:29:19.
