data_PCOD9477835
_publ_section_title
;
Structure prediction by ZEFSAII (Michael W. Deem and Ramdas Pophale) SiO2 
 PCOD9477835
Probable space group: C M C A
;
_chemical_formula_sum "Si O2"
_cell_formula_units_Z 112
_cell_length_a 17.110209
_cell_length_b 29.423532
_cell_length_c 12.097191
_cell_angle_alpha 90.000000
_cell_angle_beta 90.000000
_cell_angle_gamma 90.000000
_cell_volume 6090.243492
_symmetry_space_group_name_H-M "C M C A"
_symmetry_group_IT_number 64
_symmetry_cell_setting 'orthorhombic'
loop_
_space_group_symop_operation_xyz
x,y,z
-x,1/2-y,1/2+z
x,-y,-z
-x,1/2+y,1/2-z
-x,-y,-z
x,1/2+y,1/2-z
-x,y,z
x,1/2-y,1/2+z
1/2+x,1/2+y,z
1/2-x,-y,1/2+z
1/2+x,1/2-y,-z
1/2-x,y,1/2-z
1/2-x,1/2-y,-z
1/2+x,y,1/2-z
1/2-x,1/2+y,z
1/2+x,-y,1/2+z
loop_
_atom_site_type_symbol
_atom_site_label
_atom_site_fract_x
_atom_site_fract_y
_atom_site_fract_z
Si Si1 0.156235 0.921448 0.757230
Si Si2 0.661874 0.158827 0.099678
Si Si3 0.405999 0.491713 0.127247
Si Si4 0.846786 0.651628 0.439931
Si Si5 0.905496 0.387837 0.334877
Si Si6 0.593924 0.322917 0.359905
Si Si7 0.092210 0.775932 0.784253
O O1 0.250000 0.924786 0.750000
O O2 0.135080 0.889926 0.651491
O O3 0.130398 0.890884 0.862037
O O4 0.123637 0.970994 0.785156
O O5 0.755153 0.158661 0.083906
O O6 0.637445 0.197009 0.188548
O O7 0.624991 0.169527 0.982184
O O8 0.500000 0.494608 0.125875
O O9 0.383446 0.440643 0.160045
O O10 0.378878 0.500000 0.000000
O O11 0.866135 0.638946 0.564410
O O12 0.893033 0.695205 0.395600
O O13 0.883729 0.363995 0.220555
O O14 0.000000 0.384852 0.348341
O O15 0.500000 0.320809 0.365064
O O16 0.619892 0.275228 0.306005
O O17 0.000000 0.775719 0.757596
#
# Coordination Sequence:
#
# PCOD9477835 Si02
#       7
#    16  16  16  16  16  16  16
#     4   9  19  37  57  83 118 150 187 235 286 347
#     4  10  22  40  57  83 120 155 190 236 291 354
#     4  10  19  34  60  89 112 142 191 241 282 327
#     4  10  20  37  59  85 116 148 189 242 289 338
#     4  10  21  38  58  85 119 148 190 245 288 337
#     4  10  23  40  57  81 116 153 194 238 285 349
#     4  10  21  37  61  84 109 152 196 235 286 339
#
# _framework density 18.390069
#
# number of rings (size 3 to 8) (size 9 to 14) (size 15 to 20)
#    0.000    2.143    1.429    2.143    2.000    4.000 
#    5.143    0.714    0.000    2.571    0.000    0.000 
#    0.000    0.000    0.000    0.000    0.000    0.000 
#
# Total GULP energy -312437.285099 kJ/mol
# GULP energy per Si atom -5579.237234 kJ/mol
# Density = 1.834821 g / cm^3
# Si number density = 18.390069 Si / 1000 Ang^3
#
#
#
# Elastic Constant Matrix: (Units=GPa)
#
#
# Indices 1 2 3 4 5 6 
#
# 1 16.2051 31.7532 22.9193 0.0000 0.0000 0.0000
# 2 31.7532 156.0554 77.2929 0.0000 0.0000 0.0000
# 3 22.9193 77.2929 120.1712 0.0000 0.0000 0.0000
# 4 0.0000 0.0000 0.0000 22.4386 0.0000 0.0000
# 5 0.0000 0.0000 0.0000 0.0000 20.6185 0.0000
# 6 0.0000 0.0000 0.0000 0.0000 0.0000 5.1373
#
#
#
# Elastic Compliance Matrix: (Units=1/GPa)
#
#
# Indices 1 2 3 4 5 6 
#
# 1 0.109739 -0.017555 -0.009638 0.000000 0.000000 0.000000
# 2 -0.017555 0.012212 -0.004506 0.000000 0.000000 0.000000
# 3 -0.009638 -0.004506 0.013058 0.000000 0.000000 0.000000
# 4 0.000000 0.000000 0.000000 0.044566 0.000000 0.000000
# 5 0.000000 0.000000 0.000000 0.000000 0.048500 0.000000
# 6 0.000000 0.000000 0.000000 0.000000 0.000000 0.194656
#
#
# Mechanical properties :
#
#
# Convention : Reuss Voigt Hill
#
# Bulk Modulus (GPa) = 13.96463 61.81807 37.89135
# Shear Modulus (GPa) = 9.80389 20.33661 15.07025
#
# Velocity S-wave (km/s) = 2.31142 3.32904 2.86576
# Velocity P-wave (km/s) = 3.83844 6.96165 5.62130
#
# Compressibility (1/GPa) = 0.07160947
#
# Stress axis : x y z
#
# Youngs Moduli (GPa) = 9.11250 81.88615 76.58016
#
# Poissons Ratio (x) = 1.43754 0.73810
# Poissons Ratio (y) = 0.15997 0.34511
# Poissons Ratio (z) = 0.08783 0.36902
#
# Static dielectric constant tensor:
#      x y z
#    x 1.633160 0.000000 0.000000 
#    y 0.000000 1.648550 0.000000 
#    z 0.000000 0.000000 1.606650 
# 
# From -- ./inp_files/14999.got.cif
#   From: 2010.05.17/outbox.cif.g08.bks.cpg/sg64_8_cif.got.tgz:14999.got - 2010.06.03 16:29:19.
