data_PCOD9477493
_publ_section_title
;
Structure prediction by ZEFSAII (Michael W. Deem and Ramdas Pophale) SiO2 
 PCOD9477493
Probable space group: C M C A
;
_chemical_formula_sum "Si O2"
_cell_formula_units_Z 96
_cell_length_a 9.150458
_cell_length_b 30.216127
_cell_length_c 20.999462
_cell_angle_alpha 90.000000
_cell_angle_beta 90.000000
_cell_angle_gamma 90.000000
_cell_volume 5806.170669
_symmetry_space_group_name_H-M "C M C A"
_symmetry_group_IT_number 64
_symmetry_cell_setting 'orthorhombic'
loop_
_space_group_symop_operation_xyz
x,y,z
-x,1/2-y,1/2+z
x,-y,-z
-x,1/2+y,1/2-z
-x,-y,-z
x,1/2+y,1/2-z
-x,y,z
x,1/2-y,1/2+z
1/2+x,1/2+y,z
1/2-x,-y,1/2+z
1/2+x,1/2-y,-z
1/2-x,y,1/2-z
1/2-x,1/2-y,-z
1/2+x,y,1/2-z
1/2-x,1/2+y,z
1/2+x,-y,1/2+z
loop_
_atom_site_type_symbol
_atom_site_label
_atom_site_fract_x
_atom_site_fract_y
_atom_site_fract_z
Si Si1 0.827342 0.119417 0.982432
Si Si2 0.170711 0.998195 0.686170
Si Si3 0.674708 0.467363 0.941979
Si Si4 0.672295 0.695249 0.686029
Si Si5 0.330819 0.403460 0.357479
Si Si6 0.823760 0.788422 0.458958
O O1 0.779621 0.096405 0.916360
O O2 0.735407 0.164473 0.984403
O O3 0.000000 0.129335 0.981877
O O4 0.797625 0.083063 0.036398
O O5 0.250000 0.982769 0.750000
O O6 0.243368 0.979448 0.622419
O O7 0.000000 0.987214 0.688010
O O8 0.183824 0.051612 0.681316
O O9 0.500000 0.472996 0.933544
O O10 0.719152 0.500000 0.000000
O O11 0.500000 0.703104 0.692408
O O12 0.750000 0.711482 0.750000
O O13 0.694989 0.642157 0.679754
O O14 0.717677 0.713818 0.616515
O O15 0.500000 0.401226 0.381078
O O16 0.750000 0.750000 0.500000
O O17 0.000000 0.786862 0.462659
#
# Coordination Sequence:
#
# PCOD9477493 Si02
#       6
#    16  16  16  16  16  16
#     4  10  19  32  54  79 104 138 175 217 266 313
#     4  11  22  33  49  72 104 144 184 227 273 318
#     4  10  20  35  53  76 106 140 182 223 261 314
#     4   9  18  31  48  73 105 136 167 206 252 310
#     4   9  18  31  46  71 105 139 174 213 256 310
#     4  10  21  37  56  80 109 137 175 220 266 319
#
# _framework density 16.534133000000001
#
# number of rings (size 3 to 8) (size 9 to 14) (size 15 to 20)
#    0.000    2.167    1.667    3.000    0.000    5.667 
#    0.000    0.000    0.000    1.000    0.000    4.667 
#    0.000    0.000    0.000    0.000    0.000    0.000 
#
# Total GULP energy -267655.427266 kJ/mol
# GULP energy per Si atom -5576.154735 kJ/mol
# Density = 1.649650 g / cm^3
# Si number density = 16.534133 Si / 1000 Ang^3
#
#
#
# Elastic Constant Matrix: (Units=GPa)
#
#
# Indices 1 2 3 4 5 6 
#
# 1 70.0580 45.9110 79.2761 0.0000 0.0000 0.0000
# 2 45.9110 60.8743 57.4757 0.0000 0.0000 0.0000
# 3 79.2761 57.4757 148.2325 0.0000 0.0000 0.0000
# 4 0.0000 0.0000 0.0000 13.5454 0.0000 0.0000
# 5 0.0000 0.0000 0.0000 0.0000 32.7620 0.0000
# 6 0.0000 0.0000 0.0000 0.0000 0.0000 23.6707
#
#
#
# Elastic Compliance Matrix: (Units=1/GPa)
#
#
# Indices 1 2 3 4 5 6 
#
# 1 0.046094 -0.018123 -0.017624 0.000000 0.000000 0.000000
# 2 -0.018123 0.033040 -0.003118 0.000000 0.000000 0.000000
# 3 -0.017624 -0.003118 0.017381 0.000000 0.000000 0.000000
# 4 0.000000 0.000000 0.000000 0.073826 0.000000 0.000000
# 5 0.000000 0.000000 0.000000 0.000000 0.030523 0.000000
# 6 0.000000 0.000000 0.000000 0.000000 0.000000 0.042246
#
#
# Mechanical properties :
#
#
# Convention : Reuss Voigt Hill
#
# Bulk Modulus (GPa) = 53.24026 71.61003 62.42514
# Shear Modulus (GPa) = 15.28569 20.42909 17.85739
#
# Velocity S-wave (km/s) = 3.04385 3.51888 3.28995
# Velocity P-wave (km/s) = 6.68008 7.74044 7.22973
#
# Compressibility (1/GPa) = 0.01878278
#
# Stress axis : x y z
#
# Youngs Moduli (GPa) = 21.69490 30.26616 57.53441
#
# Poissons Ratio (x) = 0.54852 1.01400
# Poissons Ratio (y) = 0.39318 0.17942
# Poissons Ratio (z) = 0.38236 0.09438
#
# Static dielectric constant tensor:
#      x y z
#    x 1.554390 0.000000 0.000000 
#    y 0.000000 1.555820 0.000000 
#    z 0.000000 0.000000 1.550210 
# 
# From -- ./inp_files/36940.got.cif
#   From: 2010.05.17/outbox.cif.g08.bks.cpg/sg64_19_cif.got.tgz:36940.got - 2010.06.03 16:29:19.
