data_PCOD9477160
_publ_section_title
;
Structure prediction by ZEFSAII (Michael W. Deem and Ramdas Pophale) SiO2 
 PCOD9477160
Probable space group: C M C A
;
_chemical_formula_sum "Si O2"
_cell_formula_units_Z 116
_cell_length_a 25.482879
_cell_length_b 13.762985
_cell_length_c 16.145957
_cell_angle_alpha 90.000000
_cell_angle_beta 90.000000
_cell_angle_gamma 90.000000
_cell_volume 5662.717812
_symmetry_space_group_name_H-M "C M C A"
_symmetry_group_IT_number 64
_symmetry_cell_setting 'orthorhombic'
loop_
_space_group_symop_operation_xyz
x,y,z
-x,1/2-y,1/2+z
x,-y,-z
-x,1/2+y,1/2-z
-x,-y,-z
x,1/2+y,1/2-z
-x,y,z
x,1/2-y,1/2+z
1/2+x,1/2+y,z
1/2-x,-y,1/2+z
1/2+x,1/2-y,-z
1/2-x,y,1/2-z
1/2-x,1/2-y,-z
1/2+x,y,1/2-z
1/2-x,1/2+y,z
1/2+x,-y,1/2+z
loop_
_atom_site_type_symbol
_atom_site_label
_atom_site_fract_x
_atom_site_fract_y
_atom_site_fract_z
Si Si1 0.218557 0.014931 0.820503
Si Si2 0.415183 0.900688 0.122119
Si Si3 0.709504 0.859189 0.540501
Si Si4 0.000000 0.000000 0.500000
Si Si5 0.897944 0.392386 0.461491
Si Si6 0.702697 0.149858 0.909942
Si Si7 0.439538 0.821105 0.626060
Si Si8 0.900176 0.018260 0.795002
O O1 0.250000 0.956637 0.750000
O O2 0.257646 0.101635 0.844886
O O3 0.161562 0.040945 0.787695
O O4 0.208228 0.953021 0.902516
O O5 0.453984 0.938855 0.051690
O O6 0.354105 0.899614 0.093334
O O7 0.425944 0.788900 0.148366
O O8 0.423662 0.964416 0.205017
O O9 0.662716 0.859826 0.472559
O O10 0.698419 0.765950 0.597791
O O11 0.766057 0.858109 0.497104
O O12 0.900658 0.500000 0.500000
O O13 0.929733 0.328405 0.526821
O O14 0.917803 0.407675 0.368291
O O15 0.500000 0.841241 0.643663
O O16 0.408277 0.908256 0.671518
#
# Coordination Sequence:
#
# PCOD9477160 Si02
#       8
#    16  16  16   4  16  16  16  16
#     4  12  22  38  60 101 141 178 221 287 348 431
#     4  12  26  51  69 102 143 187 240 298 349 431
#     4  11  21  39  65  99 137 184 229 279 352 443
#     4  12  32  52  72  92 140 204 238 286 358 428
#     4  10  18  39  70  97 132 173 230 290 355 419
#     4  11  23  38  70  97 137 186 229 277 358 425
#     4  11  24  47  73  97 138 182 234 298 353 415
#     4  11  24  43  72 105 138 179 236 299 362 416
#
# _framework density 20.484864000000002
#
# number of rings (size 3 to 8) (size 9 to 14) (size 15 to 20)
#    0.000    0.828    7.586    0.414    2.897    3.034 
#    4.966    0.000    0.000    0.000    0.000    0.000 
#    0.000    0.000    0.000    0.000    0.000    0.000 
#
# Total GULP energy -323028.901044 kJ/mol
# GULP energy per Si atom -5569.463811 kJ/mol
# Density = 2.043824 g / cm^3
# Si number density = 20.484864 Si / 1000 Ang^3
#
#
#
# Elastic Constant Matrix: (Units=GPa)
#
#
# Indices 1 2 3 4 5 6 
#
# 1 99.8157 15.6648 19.4888 0.0000 0.0000 0.0000
# 2 15.6648 80.0531 29.0583 0.0000 0.0000 0.0000
# 3 19.4888 29.0583 59.7306 0.0000 0.0000 0.0000
# 4 0.0000 0.0000 0.0000 23.7181 0.0000 0.0000
# 5 0.0000 0.0000 0.0000 0.0000 14.7753 0.0000
# 6 0.0000 0.0000 0.0000 0.0000 0.0000 19.9728
#
#
#
# Elastic Compliance Matrix: (Units=1/GPa)
#
#
# Indices 1 2 3 4 5 6 
#
# 1 0.010767 -0.001010 -0.003022 0.000000 0.000000 0.000000
# 2 -0.001010 0.015265 -0.007097 0.000000 0.000000 0.000000
# 3 -0.003022 -0.007097 0.021180 0.000000 0.000000 0.000000
# 4 0.000000 0.000000 0.000000 0.042162 0.000000 0.000000
# 5 0.000000 0.000000 0.000000 0.000000 0.067680 0.000000
# 6 0.000000 0.000000 0.000000 0.000000 0.000000 0.050068
#
#
# Mechanical properties :
#
#
# Convention : Reuss Voigt Hill
#
# Bulk Modulus (GPa) = 40.07138 40.89148 40.48143
# Shear Modulus (GPa) = 21.03501 23.38574 22.21037
#
# Velocity S-wave (km/s) = 3.20794 3.38244 3.29634
# Velocity P-wave (km/s) = 5.77279 5.93798 5.85597
#
# Compressibility (1/GPa) = 0.02495547
#
# Stress axis : x y z
#
# Youngs Moduli (GPa) = 92.87685 65.50743 47.21368
#
# Poissons Ratio (x) = 0.06617 0.14266
# Poissons Ratio (y) = 0.09381 0.33507
# Poissons Ratio (z) = 0.28064 0.46490
#
# Static dielectric constant tensor:
#      x y z
#    x 1.750700 0.000000 0.000000 
#    y 0.000000 1.746410 0.000000 
#    z 0.000000 0.000000 1.797150 
# 
# From -- ./inp_files/35095.got.cif
#   From: 2010.05.17/outbox.cif.g08.bks.cpg/sg64_18_cif.got.tgz:35095.got - 2010.06.03 16:29:19.
