data_PCOD9477772
_publ_section_title
;
Structure prediction by ZEFSAII (Michael W. Deem and Ramdas Pophale) SiO2 
 PCOD9477772
Probable space group: C M C A
;
_chemical_formula_sum "Si O2"
_cell_formula_units_Z 96
_cell_length_a 19.125261
_cell_length_b 11.930181
_cell_length_c 19.069233
_cell_angle_alpha 90.000000
_cell_angle_beta 90.000000
_cell_angle_gamma 90.000000
_cell_volume 4350.985426
_symmetry_space_group_name_H-M "C M C A"
_symmetry_group_IT_number 64
_symmetry_cell_setting 'orthorhombic'
loop_
_space_group_symop_operation_xyz
x,y,z
-x,1/2-y,1/2+z
x,-y,-z
-x,1/2+y,1/2-z
-x,-y,-z
x,1/2+y,1/2-z
-x,y,z
x,1/2-y,1/2+z
1/2+x,1/2+y,z
1/2-x,-y,1/2+z
1/2+x,1/2-y,-z
1/2-x,y,1/2-z
1/2-x,1/2-y,-z
1/2+x,y,1/2-z
1/2-x,1/2+y,z
1/2+x,-y,1/2+z
loop_
_atom_site_type_symbol
_atom_site_label
_atom_site_fract_x
_atom_site_fract_y
_atom_site_fract_z
Si Si1 0.122030 0.794617 0.671221
Si Si2 0.792028 0.632948 0.581290
Si Si3 0.581141 0.287524 0.319768
Si Si4 0.920380 0.382158 0.974045
Si Si5 0.666505 0.702357 0.059942
Si Si6 0.200047 0.018551 0.685502
O O1 0.149503 0.680335 0.634422
O O2 0.082477 0.759713 0.741077
O O3 0.083014 0.859490 0.608423
O O4 0.178199 0.889459 0.693661
O O5 0.738933 0.739269 0.580395
O O6 0.817543 0.615430 0.502037
O O7 0.748158 0.534026 0.616669
O O8 0.500000 0.310987 0.339324
O O9 0.618179 0.195260 0.371124
O O10 0.633083 0.396948 0.321066
O O11 0.000000 0.375096 0.997248
O O12 0.891747 0.500000 0.000000
O O13 0.875817 0.292017 0.013985
O O14 0.250000 0.054011 0.750000
#
# Coordination Sequence:
#
# PCOD9477772 Si02
#       6
#    16  16  16  16  16  16
#     4  11  23  37  62  91 125 163 211 263 317 373
#     4   9  19  39  57  88 121 156 209 260 311 364
#     4  11  23  40  62  95 134 169 206 257 321 388
#     4  10  19  34  56  86 118 158 206 258 312 371
#     4   9  19  33  58  82 121 162 200 250 311 376
#     4  11  23  38  65  90 126 167 211 267 314 374
#
# _framework density 22.063967999999999
#
# number of rings (size 3 to 8) (size 9 to 14) (size 15 to 20)
#    0.000    1.833    1.667    3.000    4.667    2.667 
#    0.000    0.000    0.000    0.000    0.000    1.167 
#    0.000    0.000    0.000    0.000    0.000    0.000 
#
# Total GULP energy -267773.109349 kJ/mol
# GULP energy per Si atom -5578.606445 kJ/mol
# Density = 2.201375 g / cm^3
# Si number density = 22.063968 Si / 1000 Ang^3
#
#
#
# Elastic Constant Matrix: (Units=GPa)
#
#
# Indices 1 2 3 4 5 6 
#
# 1 78.9465 4.9094 34.8740 0.0000 0.0000 0.0000
# 2 4.9094 56.1984 0.8905 0.0000 0.0000 0.0000
# 3 34.8740 0.8905 147.6952 0.0000 0.0000 0.0000
# 4 0.0000 0.0000 0.0000 18.8158 0.0000 0.0000
# 5 0.0000 0.0000 0.0000 0.0000 21.6059 0.0000
# 6 0.0000 0.0000 0.0000 0.0000 0.0000 15.7093
#
#
#
# Elastic Compliance Matrix: (Units=1/GPa)
#
#
# Indices 1 2 3 4 5 6 
#
# 1 0.014221 -0.001189 -0.003351 0.000000 0.000000 0.000000
# 2 -0.001189 0.017895 0.000173 0.000000 0.000000 0.000000
# 3 -0.003351 0.000173 0.007561 0.000000 0.000000 0.000000
# 4 0.000000 0.000000 0.000000 0.053147 0.000000 0.000000
# 5 0.000000 0.000000 0.000000 0.000000 0.046284 0.000000
# 6 0.000000 0.000000 0.000000 0.000000 0.000000 0.063657
#
#
# Mechanical properties :
#
#
# Convention : Reuss Voigt Hill
#
# Bulk Modulus (GPa) = 32.31752 40.46530 36.39141
# Shear Modulus (GPa) = 22.54157 27.37061 24.95609
#
# Velocity S-wave (km/s) = 3.19979 3.52591 3.36680
# Velocity P-wave (km/s) = 5.32264 5.91235 5.62523
#
# Compressibility (1/GPa) = 0.03094297
#
# Stress axis : x y z
#
# Youngs Moduli (GPa) = 70.31901 55.88077 132.26064
#
# Poissons Ratio (x) = 0.06645 0.44316
# Poissons Ratio (y) = 0.08363 -0.02287
# Poissons Ratio (z) = 0.23562 -0.00966
#
# Static dielectric constant tensor:
#      x y z
#    x 1.845920 0.000000 0.000000 
#    y 0.000000 1.840350 0.000000 
#    z 0.000000 0.000000 1.867780 
# 
# From -- ./inp_files/40842.got.cif
#   From: 2010.05.17/outbox.cif.g08.bks.cpg/sg64_21_cif.got.tgz:40842.got - 2010.06.03 16:29:19.
