data_PCOD9477038
_publ_section_title
;
Structure prediction by ZEFSAII (Michael W. Deem and Ramdas Pophale) SiO2 
 PCOD9477038
Probable space group: C M C A
;
_chemical_formula_sum "Si O2"
_cell_formula_units_Z 112
_cell_length_a 14.565618
_cell_length_b 27.857431
_cell_length_c 14.187211
_cell_angle_alpha 90.000000
_cell_angle_beta 90.000000
_cell_angle_gamma 90.000000
_cell_volume 5756.612644
_symmetry_space_group_name_H-M "C M C A"
_symmetry_group_IT_number 64
_symmetry_cell_setting 'orthorhombic'
loop_
_space_group_symop_operation_xyz
x,y,z
-x,1/2-y,1/2+z
x,-y,-z
-x,1/2+y,1/2-z
-x,-y,-z
x,1/2+y,1/2-z
-x,y,z
x,1/2-y,1/2+z
1/2+x,1/2+y,z
1/2-x,-y,1/2+z
1/2+x,1/2-y,-z
1/2-x,y,1/2-z
1/2-x,1/2-y,-z
1/2+x,y,1/2-z
1/2-x,1/2+y,z
1/2+x,-y,1/2+z
loop_
_atom_site_type_symbol
_atom_site_label
_atom_site_fract_x
_atom_site_fract_y
_atom_site_fract_z
Si Si1 0.356860 0.739953 0.278734
Si Si2 0.604000 0.453987 0.242649
Si Si3 0.260563 0.964909 0.088917
Si Si4 0.898759 0.182296 0.107480
Si Si5 0.645291 0.345300 0.213955
Si Si6 0.265244 0.857767 0.476362
Si Si7 0.893655 0.217628 0.496932
O O1 0.250000 0.741701 0.250000
O O2 0.397587 0.697829 0.215737
O O3 0.393669 0.793720 0.256458
O O4 0.372461 0.729004 0.387813
O O5 0.500000 0.471619 0.235085
O O6 0.656150 0.471173 0.336941
O O7 0.668449 0.467473 0.153536
O O8 0.601964 0.395433 0.244237
O O9 0.265187 0.911041 0.048194
O O10 0.260581 0.000000 0.000000
O O11 0.000000 0.164123 0.081542
O O12 0.816675 0.148073 0.075702
O O13 0.881779 0.233024 0.054237
O O14 0.750000 0.348514 0.250000
O O15 0.657368 0.344242 0.101083
O O16 0.180101 0.821460 0.469620
O O17 0.000000 0.202456 0.506848
#
# Coordination Sequence:
#
# PCOD9477038 Si02
#       7
#    16  16  16  16  16  16  16
#     4  11  20  34  56  77 120 165 201 242 288 341
#     4  10  21  39  66  98 123 149 197 255 312 368
#     4  10  23  44  66  92 124 158 200 255 316 368
#     4  11  23  35  53  83 118 156 197 237 288 352
#     4  10  18  34  58  87 116 154 192 244 304 345
#     4  11  20  39  58  81 118 155 196 243 295 349
#     4  11  22  35  53  83 119 157 197 237 287 353
#
# _framework density 19.455887000000001
#
# number of rings (size 3 to 8) (size 9 to 14) (size 15 to 20)
#    0.000    1.429    5.714    2.571    0.000    4.571 
#    0.000    2.857    0.000    0.000    0.000    0.000 
#    0.000    0.000    0.000    0.000    0.000    0.000 
#
# Total GULP energy -312686.925702 kJ/mol
# GULP energy per Si atom -5583.695102 kJ/mol
# Density = 1.941160 g / cm^3
# Si number density = 19.455887 Si / 1000 Ang^3
#
#
#
# Elastic Constant Matrix: (Units=GPa)
#
#
# Indices 1 2 3 4 5 6 
#
# 1 121.2432 20.0541 18.0468 0.0000 0.0000 0.0000
# 2 20.0541 41.1183 27.8761 0.0000 0.0000 0.0000
# 3 18.0468 27.8761 92.9251 0.0000 0.0000 0.0000
# 4 0.0000 0.0000 0.0000 34.5139 0.0000 0.0000
# 5 0.0000 0.0000 0.0000 0.0000 6.9358 0.0000
# 6 0.0000 0.0000 0.0000 0.0000 0.0000 -2.5932
#
#
#
# Elastic Compliance Matrix: (Units=1/GPa)
#
#
# Indices 1 2 3 4 5 6 
#
# 1 0.008993 -0.004020 -0.000541 0.000000 0.000000 0.000000
# 2 -0.004020 0.032325 -0.008916 0.000000 0.000000 0.000000
# 3 -0.000541 -0.008916 0.013541 0.000000 0.000000 0.000000
# 4 0.000000 0.000000 0.000000 0.028974 0.000000 0.000000
# 5 0.000000 0.000000 0.000000 0.000000 0.144179 0.000000
# 6 0.000000 0.000000 0.000000 0.000000 0.000000 -0.385624
#
#
# Mechanical properties :
#
#
# Convention : Reuss Voigt Hill
#
# Bulk Modulus (GPa) = 35.83428 43.02671 39.43049
# Shear Modulus (GPa) = -41.20118 20.39194 -10.40462
#
# Velocity S-wave (km/s) = -4.60681 3.24097 -2.31504
# Velocity P-wave (km/s) = 3.13667 6.01400 3.62832
#
# Compressibility (1/GPa) = 0.02790624
#
# Stress axis : x y z
#
# Youngs Moduli (GPa) = 111.19486 30.93541 73.84883
#
# Poissons Ratio (x) = 0.12435 0.03993
# Poissons Ratio (y) = 0.44695 0.65847
# Poissons Ratio (z) = 0.06013 0.27584
#
# Static dielectric constant tensor:
#      x y z
#    x 1.722740 0.000000 0.000000 
#    y 0.000000 1.658130 0.000000 
#    z 0.000000 0.000000 1.754440 
# 
# From -- ./inp_files/24432.got.cif
#   From: 2010.05.17/outbox.cif.g08.bks.cpg/sg64_13_cif.got.tgz:24432.got - 2010.06.03 16:29:19.
