data_PCOD9477040
_publ_section_title
;
Structure prediction by ZEFSAII (Michael W. Deem and Ramdas Pophale) SiO2 
 PCOD9477040
Probable space group: C M C A
;
_chemical_formula_sum "Si O2"
_cell_formula_units_Z 64
_cell_length_a 9.697016
_cell_length_b 28.151465
_cell_length_c 10.690118
_cell_angle_alpha 90.000000
_cell_angle_beta 90.000000
_cell_angle_gamma 90.000000
_cell_volume 2918.244070
_symmetry_space_group_name_H-M "C M C A"
_symmetry_group_IT_number 64
_symmetry_cell_setting 'orthorhombic'
loop_
_space_group_symop_operation_xyz
x,y,z
-x,1/2-y,1/2+z
x,-y,-z
-x,1/2+y,1/2-z
-x,-y,-z
x,1/2+y,1/2-z
-x,y,z
x,1/2-y,1/2+z
1/2+x,1/2+y,z
1/2-x,-y,1/2+z
1/2+x,1/2-y,-z
1/2-x,y,1/2-z
1/2-x,1/2-y,-z
1/2+x,y,1/2-z
1/2-x,1/2+y,z
1/2+x,-y,1/2+z
loop_
_atom_site_type_symbol
_atom_site_label
_atom_site_fract_x
_atom_site_fract_y
_atom_site_fract_z
Si Si1 0.221937 0.705492 0.408299
Si Si2 0.000000 0.732684 0.795227
Si Si3 0.000000 0.545483 0.665559
Si Si4 0.258707 0.000000 0.500000
Si Si5 0.000000 0.940572 0.463885
Si Si6 0.500000 0.333887 0.537199
Si Si7 0.500000 0.155332 0.572633
O O1 0.250000 0.750000 0.500000
O O2 0.361702 0.676540 0.387662
O O3 0.129197 0.668054 0.485794
O O4 0.129268 0.732440 0.305941
O O5 0.000000 0.695604 0.681925
O O6 0.000000 0.701998 0.920803
O O7 0.135990 0.519551 0.606779
O O8 0.000000 0.544655 0.816707
O O9 0.000000 0.601320 0.623029
O O10 0.143166 0.959226 0.525762
O O11 0.000000 0.884968 0.477088
#
# Coordination Sequence:
#
# PCOD9477040 Si02
#       7
#    16   8   8   8   8   8   8
#     4   9  20  34  53  89 131 164 193 258 314 355
#     4   9  19  36  54  92 123 164 203 259 309 354
#     4  11  22  41  66 103 126 162 228 267 324 393
#     4  10  24  38  60 102 134 166 198 288 344 378
#     4  11  21  40  65  99 128 167 218 269 333 386
#     4  10  18  34  58  90 124 160 208 255 304 374
#     4  11  20  37  65  94 117 162 221 269 293 370
#
# _framework density 21.930996
#
# number of rings (size 3 to 8) (size 9 to 14) (size 15 to 20)
#    0.000    2.000    1.250    3.000    0.000    4.000 
#    0.000    1.250    0.000    0.000  357.500    0.000 
#    0.000    0.000    0.000    0.000    0.000    0.000 
#
# Total GULP energy -178389.104143 kJ/mol
# GULP energy per Si atom -5574.659504 kJ/mol
# Density = 2.188108 g / cm^3
# Si number density = 21.930996 Si / 1000 Ang^3
#
#
#
# Elastic Constant Matrix: (Units=GPa)
#
#
# Indices 1 2 3 4 5 6 
#
# 1 214.2722 76.2452 40.6901 0.0000 0.0000 0.0000
# 2 76.2452 111.8843 70.0708 0.0000 0.0000 0.0000
# 3 40.6901 70.0708 70.8401 0.0000 0.0000 0.0000
# 4 0.0000 0.0000 0.0000 46.0260 0.0000 0.0000
# 5 0.0000 0.0000 0.0000 0.0000 12.1653 0.0000
# 6 0.0000 0.0000 0.0000 0.0000 0.0000 37.0549
#
#
#
# Elastic Compliance Matrix: (Units=1/GPa)
#
#
# Indices 1 2 3 4 5 6 
#
# 1 0.006232 -0.005269 0.001632 0.000000 0.000000 0.000000
# 2 -0.005269 0.027943 -0.024613 0.000000 0.000000 0.000000
# 3 0.001632 -0.024613 0.037525 0.000000 0.000000 0.000000
# 4 0.000000 0.000000 0.000000 0.021727 0.000000 0.000000
# 5 0.000000 0.000000 0.000000 0.000000 0.082201 0.000000
# 6 0.000000 0.000000 0.000000 0.000000 0.000000 0.026987
#
#
# Mechanical properties :
#
#
# Convention : Reuss Voigt Hill
#
# Bulk Modulus (GPa) = 65.79063 85.66766 75.72914
# Shear Modulus (GPa) = 18.92637 33.04861 25.98749
#
# Velocity S-wave (km/s) = 2.94087 3.88614 3.44607
# Velocity P-wave (km/s) = 6.44947 7.69956 7.10207
#
# Compressibility (1/GPa) = 0.01519973
#
# Stress axis : x y z
#
# Youngs Moduli (GPa) = 160.46429 35.78665 26.64908
#
# Poissons Ratio (x) = 0.18856 -0.04350
# Poissons Ratio (y) = 0.84551 0.65592
# Poissons Ratio (z) = -0.26193 0.88083
#
# Static dielectric constant tensor:
#      x y z
#    x 1.848230 0.000000 0.000000 
#    y 0.000000 1.755050 0.000000 
#    z 0.000000 0.000000 1.900840 
# 
# From -- ./inp_files/12214.got.cif
#   From: 2010.05.17/outbox.cif.g08.bks.cpg/sg64_7_cif.got.tgz:12214.got - 2010.06.03 16:29:19.
