data_PCOD9477818
_publ_section_title
;
Structure prediction by ZEFSAII (Michael W. Deem and Ramdas Pophale) SiO2 
 PCOD9477818
Probable space group: C M C A
;
_chemical_formula_sum "Si O2"
_cell_formula_units_Z 112
_cell_length_a 15.707249
_cell_length_b 22.495010
_cell_length_c 17.297147
_cell_angle_alpha 90.000000
_cell_angle_beta 90.000000
_cell_angle_gamma 90.000000
_cell_volume 6111.682650
_symmetry_space_group_name_H-M "C M C A"
_symmetry_group_IT_number 64
_symmetry_cell_setting 'orthorhombic'
loop_
_space_group_symop_operation_xyz
x,y,z
-x,1/2-y,1/2+z
x,-y,-z
-x,1/2+y,1/2-z
-x,-y,-z
x,1/2+y,1/2-z
-x,y,z
x,1/2-y,1/2+z
1/2+x,1/2+y,z
1/2-x,-y,1/2+z
1/2+x,1/2-y,-z
1/2-x,y,1/2-z
1/2-x,1/2-y,-z
1/2+x,y,1/2-z
1/2-x,1/2+y,z
1/2+x,-y,1/2+z
loop_
_atom_site_type_symbol
_atom_site_label
_atom_site_fract_x
_atom_site_fract_y
_atom_site_fract_z
Si Si1 0.784155 0.164243 0.420762
Si Si2 0.095637 0.981201 0.794079
Si Si3 0.096450 0.151476 0.273265
Si Si4 0.596252 0.980810 0.122586
Si Si5 0.228767 0.964290 0.924283
Si Si6 0.099205 0.344894 0.069934
Si Si7 0.686530 0.245392 0.820663
O O1 0.842567 0.149682 0.346658
O O2 0.723150 0.106955 0.432099
O O3 0.842682 0.169920 0.496006
O O4 0.735775 0.223081 0.392059
O O5 0.099789 0.912469 0.767225
O O6 0.171388 0.988145 0.854274
O O7 0.000000 0.992040 0.825540
O O8 0.105008 0.018890 0.715584
O O9 0.128251 0.202880 0.216170
O O10 0.000000 0.162972 0.297795
O O11 0.500000 0.003340 0.105632
O O12 0.605118 0.915079 0.088255
O O13 0.671818 0.020939 0.090189
O O14 0.202369 0.000000 0.000000
O O15 0.133701 0.308391 0.143518
O O16 0.000000 0.330731 0.055753
O O17 0.750000 0.228178 0.750000
#
# Coordination Sequence:
#
# PCOD9477818 Si02
#       7
#    16  16  16  16  16  16  16
#     4  11  21  36  56  90 115 148 192 244 291 346
#     4  10  21  37  59  84 115 153 197 242 282 345
#     4  10  19  34  59  86 110 145 193 245 286 331
#     4  10  22  36  58  89 118 152 192 235 292 355
#     4  12  22  36  58  87 121 153 189 241 299 349
#     4  11  23  40  58  83 121 158 189 237 295 350
#     4  10  22  38  60  83 113 150 201 238 280 344
#
# _framework density 18.325558999999998
#
# number of rings (size 3 to 8) (size 9 to 14) (size 15 to 20)
#    0.000    1.429    4.286    1.714    0.000    2.286 
#    0.000    0.000    0.000    0.000    0.000    0.000 
#    0.000    0.000    0.000    0.000    0.000    0.000 
#
# Total GULP energy -312661.328882 kJ/mol
# GULP energy per Si atom -5583.238016 kJ/mol
# Density = 1.828385 g / cm^3
# Si number density = 18.325559 Si / 1000 Ang^3
#
#
#
# Elastic Constant Matrix: (Units=GPa)
#
#
# Indices 1 2 3 4 5 6 
#
# 1 40.6371 9.3104 5.0032 0.0000 0.0000 0.0000
# 2 9.3104 35.6611 12.0185 0.0000 0.0000 0.0000
# 3 5.0032 12.0185 55.0643 0.0000 0.0000 0.0000
# 4 0.0000 0.0000 0.0000 13.9311 0.0000 0.0000
# 5 0.0000 0.0000 0.0000 0.0000 -54.6717 0.0000
# 6 0.0000 0.0000 0.0000 0.0000 0.0000 23.4994
#
#
#
# Elastic Compliance Matrix: (Units=1/GPa)
#
#
# Indices 1 2 3 4 5 6 
#
# 1 0.026221 -0.006523 -0.000959 0.000000 0.000000 0.000000
# 2 -0.006523 0.031891 -0.006368 0.000000 0.000000 0.000000
# 3 -0.000959 -0.006368 0.019638 0.000000 0.000000 0.000000
# 4 0.000000 0.000000 0.000000 0.071782 0.000000 0.000000
# 5 0.000000 0.000000 0.000000 0.000000 -0.018291 0.000000
# 6 0.000000 0.000000 0.000000 0.000000 0.000000 0.042554
#
#
# Mechanical properties :
#
#
# Convention : Reuss Voigt Hill
#
# Bulk Modulus (GPa) = 19.97988 20.44741 20.21365
# Shear Modulus (GPa) = 22.91728 3.55378 13.23553
#
# Velocity S-wave (km/s) = 3.54017 1.39408 2.69038
# Velocity P-wave (km/s) = 5.25707 3.71125 4.55028
#
# Compressibility (1/GPa) = 0.05005034
#
# Stress axis : x y z
#
# Youngs Moduli (GPa) = 38.13809 31.35699 50.92268
#
# Poissons Ratio (x) = 0.20453 0.04882
# Poissons Ratio (y) = 0.24876 0.32427
# Poissons Ratio (z) = 0.03657 0.19968
#
# Static dielectric constant tensor:
#      x y z
#    x 1.646170 0.000000 0.000000 
#    y 0.000000 1.619610 0.000000 
#    z 0.000000 0.000000 1.619640 
# 
# From -- ./inp_files/24205.got.cif
#   From: 2010.05.17/outbox.cif.g08.bks.cpg/sg64_13_cif.got.tgz:24205.got - 2010.06.03 16:29:19.
