data_PCOD9477247
_publ_section_title
;
Structure prediction by ZEFSAII (Michael W. Deem and Ramdas Pophale) SiO2 
 PCOD9477247
Probable space group: C M C A
;
_chemical_formula_sum "Si O2"
_cell_formula_units_Z 96
_cell_length_a 7.860726
_cell_length_b 26.563151
_cell_length_c 24.015634
_cell_angle_alpha 90.000000
_cell_angle_beta 90.000000
_cell_angle_gamma 90.000000
_cell_volume 5014.600109
_symmetry_space_group_name_H-M "C M C A"
_symmetry_group_IT_number 64
_symmetry_cell_setting 'orthorhombic'
loop_
_space_group_symop_operation_xyz
x,y,z
-x,1/2-y,1/2+z
x,-y,-z
-x,1/2+y,1/2-z
-x,-y,-z
x,1/2+y,1/2-z
-x,y,z
x,1/2-y,1/2+z
1/2+x,1/2+y,z
1/2-x,-y,1/2+z
1/2+x,1/2-y,-z
1/2-x,y,1/2-z
1/2-x,1/2-y,-z
1/2+x,y,1/2-z
1/2-x,1/2+y,z
1/2+x,-y,1/2+z
loop_
_atom_site_type_symbol
_atom_site_label
_atom_site_fract_x
_atom_site_fract_y
_atom_site_fract_z
Si Si1 0.803560 0.405606 0.880571
Si Si2 0.796503 0.307544 0.932982
Si Si3 0.804569 0.097973 0.616697
Si Si4 0.305181 0.440372 0.998918
Si Si5 0.705894 0.002568 0.814641
Si Si6 0.700375 0.195054 0.559705
O O1 0.727005 0.349735 0.890324
O O2 0.728482 0.450694 0.843123
O O3 0.000000 0.399734 0.862732
O O4 0.793323 0.425881 0.943509
O O5 0.729486 0.250644 0.926215
O O6 0.000000 0.307234 0.924571
O O7 0.768826 0.320540 0.998489
O O8 0.787711 0.075818 0.554729
O O9 0.729319 0.153552 0.607299
O O10 0.000000 0.104763 0.632855
O O11 0.729353 0.054108 0.656069
O O12 0.500000 0.419752 0.998204
O O13 0.318065 0.500000 0.000000
O O14 0.500000 0.002616 0.822113
O O15 0.750000 0.002840 0.750000
O O16 0.500000 0.200627 0.551760
#
# Coordination Sequence:
#
# PCOD9477247 Si02
#       6
#    16  16  16  16  16  16
#     4  10  19  34  54  75 103 140 173 206 256 317
#     4   9  18  31  49  74 108 145 174 206 252 310
#     4  11  21  34  52  75 105 142 175 208 259 320
#     4  11  21  30  46  78 110 136 167 208 257 310
#     4  10  23  39  56  76  99 132 177 221 266 316
#     4  10  19  30  47  77 110 141 177 212 250 299
#
# _framework density 19.144099000000001
#
# number of rings (size 3 to 8) (size 9 to 14) (size 15 to 20)
#    0.000    1.833    3.333    1.500    0.000    3.333 
#    0.000    0.000    0.000    1.000    0.000    4.667 
#    0.000    0.000    0.000    0.000    0.000    0.000 
#
# Total GULP energy -267417.596537 kJ/mol
# GULP energy per Si atom -5571.199928 kJ/mol
# Density = 1.910053 g / cm^3
# Si number density = 19.144099 Si / 1000 Ang^3
#
#
#
# Elastic Constant Matrix: (Units=GPa)
#
#
# Indices 1 2 3 4 5 6 
#
# 1 25.2347 0.0621 -12.8341 0.0000 0.0000 0.0000
# 2 0.0621 170.3137 62.0546 0.0000 0.0000 0.0000
# 3 -12.8341 62.0546 92.1291 0.0000 0.0000 0.0000
# 4 0.0000 0.0000 0.0000 13.2337 0.0000 0.0000
# 5 0.0000 0.0000 0.0000 0.0000 10.8196 0.0000
# 6 0.0000 0.0000 0.0000 0.0000 0.0000 17.4911
#
#
#
# Elastic Compliance Matrix: (Units=1/GPa)
#
#
# Indices 1 2 3 4 5 6 
#
# 1 0.043750 -0.002964 0.008091 0.000000 0.000000 0.000000
# 2 -0.002964 0.007982 -0.005789 0.000000 0.000000 0.000000
# 3 0.008091 -0.005789 0.015881 0.000000 0.000000 0.000000
# 4 0.000000 0.000000 0.000000 0.075564 0.000000 0.000000
# 5 0.000000 0.000000 0.000000 0.000000 0.092425 0.000000
# 6 0.000000 0.000000 0.000000 0.000000 0.000000 0.057172
#
#
# Mechanical properties :
#
#
# Convention : Reuss Voigt Hill
#
# Bulk Modulus (GPa) = 15.08548 42.91585 29.00067
# Shear Modulus (GPa) = 15.81302 24.20188 20.00745
#
# Velocity S-wave (km/s) = 2.87714 3.55941 3.23630
# Velocity P-wave (km/s) = 4.35136 6.27363 5.39874
#
# Compressibility (1/GPa) = 0.06628891
#
# Stress axis : x y z
#
# Youngs Moduli (GPa) = 22.85697 125.28306 62.96888
#
# Poissons Ratio (x) = 0.37134 -0.50949
# Poissons Ratio (y) = 0.06775 0.36454
# Poissons Ratio (z) = -0.18494 0.72529
#
# Static dielectric constant tensor:
#      x y z
#    x 1.728140 0.000000 0.000000 
#    y 0.000000 1.779500 0.000000 
#    z 0.000000 0.000000 1.603690 
# 
# From -- ./inp_files/37071.got.cif
#   From: 2010.05.17/outbox.cif.g08.bks.cpg/sg64_19_cif.got.tgz:37071.got - 2010.06.03 16:29:19.
