data_PCOD9477236
_publ_section_title
;
Structure prediction by ZEFSAII (Michael W. Deem and Ramdas Pophale) SiO2 
 PCOD9477236
Probable space group: C M C A
;
_chemical_formula_sum "Si O2"
_cell_formula_units_Z 96
_cell_length_a 8.765181
_cell_length_b 28.092131
_cell_length_c 24.455270
_cell_angle_alpha 90.000000
_cell_angle_beta 90.000000
_cell_angle_gamma 90.000000
_cell_volume 6021.685031
_symmetry_space_group_name_H-M "C M C A"
_symmetry_group_IT_number 64
_symmetry_cell_setting 'orthorhombic'
loop_
_space_group_symop_operation_xyz
x,y,z
-x,1/2-y,1/2+z
x,-y,-z
-x,1/2+y,1/2-z
-x,-y,-z
x,1/2+y,1/2-z
-x,y,z
x,1/2-y,1/2+z
1/2+x,1/2+y,z
1/2-x,-y,1/2+z
1/2+x,1/2-y,-z
1/2-x,y,1/2-z
1/2-x,1/2-y,-z
1/2+x,y,1/2-z
1/2-x,1/2+y,z
1/2+x,-y,1/2+z
loop_
_atom_site_type_symbol
_atom_site_label
_atom_site_fract_x
_atom_site_fract_y
_atom_site_fract_z
Si Si1 0.816729 0.574161 0.474963
Si Si2 0.182225 0.323502 0.976511
Si Si3 0.317731 0.570856 0.691544
Si Si4 0.315805 0.521587 0.913364
Si Si5 0.683706 0.772685 0.418946
Si Si6 0.683508 0.823537 0.308067
O O1 0.745332 0.624854 0.462109
O O2 0.774453 0.556463 0.536094
O O3 0.775143 0.531464 0.433742
O O4 0.000000 0.578065 0.474225
O O5 0.228555 0.281096 0.935042
O O6 0.000000 0.325038 0.978396
O O7 0.244922 0.307148 0.035506
O O8 0.500000 0.573218 0.694721
O O9 0.250000 0.554999 0.750000
O O10 0.263711 0.537914 0.641890
O O11 0.250559 0.623800 0.681701
O O12 0.500000 0.523795 0.907053
O O13 0.500000 0.776057 0.423636
O O14 0.725707 0.789644 0.358488
O O15 0.500000 0.826886 0.304793
O O16 0.750000 0.807188 0.250000
#
# Coordination Sequence:
#
# PCOD9477236 Si02
#       6
#    16  16  16  16  16  16
#     4   9  18  32  50  70  95 127 156 187 233 283
#     4  10  19  30  47  71  96 122 156 195 230 272
#     4  11  21  32  48  71  97 124 155 192 234 277
#     4   9  18  33  50  69  95 126 158 190 229 279
#     4   9  19  33  47  66  95 128 155 186 233 280
#     4  10  19  32  49  68  93 123 155 190 229 275
#
# _framework density 15.942380999999999
#
# number of rings (size 3 to 8) (size 9 to 14) (size 15 to 20)
#    0.000    2.333    0.000    5.500    0.000    7.333 
#    0.000    1.667    0.000    1.000    0.000    4.667 
#    0.000    0.000    0.000    0.000    0.000    0.000 
#
# Total GULP energy -267782.953096 kJ/mol
# GULP energy per Si atom -5578.811523 kJ/mol
# Density = 1.590610 g / cm^3
# Si number density = 15.942381 Si / 1000 Ang^3
#
#
#
# Elastic Constant Matrix: (Units=GPa)
#
#
# Indices 1 2 3 4 5 6 
#
# 1 50.2810 38.1430 52.3034 0.0000 0.0000 0.0000
# 2 38.1430 102.4539 77.6693 0.0000 0.0000 0.0000
# 3 52.3034 77.6693 150.0349 0.0000 0.0000 0.0000
# 4 0.0000 0.0000 0.0000 19.0955 0.0000 0.0000
# 5 0.0000 0.0000 0.0000 0.0000 27.4448 0.0000
# 6 0.0000 0.0000 0.0000 0.0000 0.0000 28.3558
#
#
#
# Elastic Compliance Matrix: (Units=1/GPa)
#
#
# Indices 1 2 3 4 5 6 
#
# 1 0.033245 -0.005911 -0.008530 0.000000 0.000000 0.000000
# 2 -0.005911 0.017116 -0.006800 0.000000 0.000000 0.000000
# 3 -0.008530 -0.006800 0.013159 0.000000 0.000000 0.000000
# 4 0.000000 0.000000 0.000000 0.052368 0.000000 0.000000
# 5 0.000000 0.000000 0.000000 0.000000 0.036437 0.000000
# 6 0.000000 0.000000 0.000000 0.000000 0.000000 0.035266
#
#
# Mechanical properties :
#
#
# Convention : Reuss Voigt Hill
#
# Bulk Modulus (GPa) = 47.53073 71.00011 59.26542
# Shear Modulus (GPa) = 21.08954 23.95615 22.52284
#
# Velocity S-wave (km/s) = 3.64106 3.88063 3.76275
# Velocity P-wave (km/s) = 6.89603 8.04433 7.49221
#
# Compressibility (1/GPa) = 0.02103902
#
# Stress axis : x y z
#
# Youngs Moduli (GPa) = 30.07998 58.42475 75.99470
#
# Poissons Ratio (x) = 0.34533 0.64820
# Poissons Ratio (y) = 0.17779 0.51677
# Poissons Ratio (z) = 0.25657 0.39729
#
# Static dielectric constant tensor:
#      x y z
#    x 1.535190 0.000000 0.000000 
#    y 0.000000 1.523530 0.000000 
#    z 0.000000 0.000000 1.521790 
# 
# From -- ./inp_files/37064.got.cif
#   From: 2010.05.17/outbox.cif.g08.bks.cpg/sg64_19_cif.got.tgz:37064.got - 2010.06.03 16:29:19.
