data_PCOD9477427
_publ_section_title
;
Structure prediction by ZEFSAII (Michael W. Deem and Ramdas Pophale) SiO2 
 PCOD9477427
Probable space group: C M C A
;
_chemical_formula_sum "Si O2"
_cell_formula_units_Z 96
_cell_length_a 11.304494
_cell_length_b 18.462541
_cell_length_c 20.177964
_cell_angle_alpha 90.000000
_cell_angle_beta 90.000000
_cell_angle_gamma 90.000000
_cell_volume 4211.336489
_symmetry_space_group_name_H-M "C M C A"
_symmetry_group_IT_number 64
_symmetry_cell_setting 'orthorhombic'
loop_
_space_group_symop_operation_xyz
x,y,z
-x,1/2-y,1/2+z
x,-y,-z
-x,1/2+y,1/2-z
-x,-y,-z
x,1/2+y,1/2-z
-x,y,z
x,1/2-y,1/2+z
1/2+x,1/2+y,z
1/2-x,-y,1/2+z
1/2+x,1/2-y,-z
1/2-x,y,1/2-z
1/2-x,1/2-y,-z
1/2+x,y,1/2-z
1/2-x,1/2+y,z
1/2+x,-y,1/2+z
loop_
_atom_site_type_symbol
_atom_site_label
_atom_site_fract_x
_atom_site_fract_y
_atom_site_fract_z
Si Si1 0.632498 0.546172 0.068338
Si Si2 0.629103 0.970432 0.095074
Si Si3 0.712619 0.354076 0.496849
Si Si4 0.372476 0.798112 0.761548
Si Si5 0.373301 0.862190 0.217056
Si Si6 0.626184 0.265507 0.090361
O O1 0.500000 0.545840 0.098059
O O2 0.748690 0.514688 0.105581
O O3 0.624306 0.500000 0.000000
O O4 0.677035 0.624637 0.044088
O O5 0.500000 0.008407 0.097149
O O6 0.645875 0.925716 0.026661
O O7 0.622551 0.908176 0.150633
O O8 0.633598 0.299245 0.537552
O O9 0.769040 0.317331 0.432118
O O10 0.500000 0.834819 0.752234
O O11 0.250000 0.839813 0.750000
O O12 0.370278 0.725816 0.715247
O O13 0.367697 0.767065 0.836372
O O14 0.500000 0.877635 0.252714
O O15 0.250000 0.883102 0.250000
O O16 0.500000 0.304479 0.084716
#
# Coordination Sequence:
#
# PCOD9477427 Si02
#       6
#    16  16  16  16  16  16
#     4   9  19  34  52  75 103 136 172 209 254 309
#     4  10  20  33  52  78 106 137 175 219 267 316
#     4  10  19  32  51  76 110 145 177 211 256 316
#     4   9  17  31  49  71 100 132 169 212 258 304
#     4   9  17  29  47  72  99 128 164 210 260 306
#     4  10  20  32  50  78 110 145 179 214 260 314
#
# _framework density 22.795614
#
# number of rings (size 3 to 8) (size 9 to 14) (size 15 to 20)
#    0.000    2.500    0.000    3.000    0.000    5.000 
#    0.000    4.167    0.000    1.000    0.000    0.000 
#    0.000    0.000    0.000    0.000    0.000    0.000 
#
# Total GULP energy -267374.165523 kJ/mol
# GULP energy per Si atom -5570.295115 kJ/mol
# Density = 2.274373 g / cm^3
# Si number density = 22.795614 Si / 1000 Ang^3
#
#
#
# Elastic Constant Matrix: (Units=GPa)
#
#
# Indices 1 2 3 4 5 6 
#
# 1 250.7391 13.7163 30.0319 0.0000 0.0000 0.0000
# 2 13.7163 15.4946 -1.7169 0.0000 0.0000 0.0000
# 3 30.0319 -1.7169 18.0818 0.0000 0.0000 0.0000
# 4 0.0000 0.0000 0.0000 11.0856 0.0000 0.0000
# 5 0.0000 0.0000 0.0000 0.0000 7.4378 0.0000
# 6 0.0000 0.0000 0.0000 0.0000 0.0000 13.9612
#
#
#
# Elastic Compliance Matrix: (Units=1/GPa)
#
#
# Indices 1 2 3 4 5 6 
#
# 1 0.005466 -0.005907 -0.009639 0.000000 0.000000 0.000000
# 2 -0.005907 0.071607 0.016609 0.000000 0.000000 0.000000
# 3 -0.009639 0.016609 0.072891 0.000000 0.000000 0.000000
# 4 0.000000 0.000000 0.000000 0.090207 0.000000 0.000000
# 5 0.000000 0.000000 0.000000 0.000000 0.134448 0.000000
# 6 0.000000 0.000000 0.000000 0.000000 0.000000 0.071627
#
#
# Mechanical properties :
#
#
# Convention : Reuss Voigt Hill
#
# Bulk Modulus (GPa) = 6.57499 40.93091 23.75295
# Shear Modulus (GPa) = 10.10477 22.64920 16.37699
#
# Velocity S-wave (km/s) = 2.10770 3.15553 2.68326
# Velocity P-wave (km/s) = 2.96880 5.59205 4.47687
#
# Compressibility (1/GPa) = 0.15209143
#
# Stress axis : x y z
#
# Youngs Moduli (GPa) = 182.95556 13.96503 13.71918
#
# Poissons Ratio (x) = 0.08248 0.13224
# Poissons Ratio (y) = 1.08063 -0.22786
# Poissons Ratio (z) = 1.76350 -0.23195
#
# Static dielectric constant tensor:
#      x y z
#    x 1.584390 0.000000 0.000000 
#    y 0.000000 1.828330 0.000000 
#    z 0.000000 0.000000 1.858890 
# 
# From -- ./inp_files/38274.got.cif
#   From: 2010.05.17/outbox.cif.g08.bks.cpg/sg64_20_cif.got.tgz:38274.got - 2010.06.03 16:29:19.
