data_PCOD9477677
_publ_section_title
;
Structure prediction by ZEFSAII (Michael W. Deem and Ramdas Pophale) SiO2 
 PCOD9477677
Probable space group: C M C A
;
_chemical_formula_sum "Si O2"
_cell_formula_units_Z 80
_cell_length_a 25.706265
_cell_length_b 14.468904
_cell_length_c 10.882994
_cell_angle_alpha 90.000000
_cell_angle_beta 90.000000
_cell_angle_gamma 90.000000
_cell_volume 4047.836900
_symmetry_space_group_name_H-M "C M C A"
_symmetry_group_IT_number 64
_symmetry_cell_setting 'orthorhombic'
loop_
_space_group_symop_operation_xyz
x,y,z
-x,1/2-y,1/2+z
x,-y,-z
-x,1/2+y,1/2-z
-x,-y,-z
x,1/2+y,1/2-z
-x,y,z
x,1/2-y,1/2+z
1/2+x,1/2+y,z
1/2-x,-y,1/2+z
1/2+x,1/2-y,-z
1/2-x,y,1/2-z
1/2-x,1/2-y,-z
1/2+x,y,1/2-z
1/2-x,1/2+y,z
1/2+x,-y,1/2+z
loop_
_atom_site_type_symbol
_atom_site_label
_atom_site_fract_x
_atom_site_fract_y
_atom_site_fract_z
Si Si1 0.059392 0.655634 0.168377
Si Si2 0.128851 0.185631 0.864245
Si Si3 0.335202 0.628628 0.430227
Si Si4 0.806786 0.443135 0.194483
Si Si5 0.558182 0.100755 0.440322
O O1 0.081324 0.758434 0.199820
O O2 0.101555 0.620220 0.070427
O O3 0.064268 0.598667 0.294207
O O4 0.000000 0.655931 0.128277
O O5 0.171675 0.266133 0.885363
O O6 0.151675 0.101729 0.787377
O O7 0.104198 0.155703 0.993700
O O8 0.315626 0.551091 0.336037
O O9 0.312820 0.607826 0.563436
O O10 0.750000 0.430159 0.250000
O O11 0.500000 0.141033 0.463420
O O12 0.558760 0.000000 0.500000
#
# Coordination Sequence:
#
# PCOD9477677 Si02
#       5
#    16  16  16  16  16
#     4   9  19  37  61  89 129 163 197 253 315 378
#     4  10  21  38  64  91 125 163 213 258 310 380
#     4   9  23  42  62  94 125 158 220 254 313 391
#     4  11  23  44  62  86 125 165 212 275 318 363
#     4  10  19  33  57  93 130 168 207 249 309 378
#
# _framework density 19.763642000000001
#
# number of rings (size 3 to 8) (size 9 to 14) (size 15 to 20)
#    1.200    1.000    0.000    3.000    0.000    1.600 
#   10.800    4.000    0.000    0.000    0.000    0.000 
#    0.000    0.000    0.000    0.000    0.000    0.000 
#
# Total GULP energy -222736.344494 kJ/mol
# GULP energy per Si atom -5568.408612 kJ/mol
# Density = 1.971866 g / cm^3
# Si number density = 19.763642 Si / 1000 Ang^3
#
#
#
# Elastic Constant Matrix: (Units=GPa)
#
#
# Indices 1 2 3 4 5 6 
#
# 1 111.0437 21.9978 50.5205 0.0000 0.0000 0.0000
# 2 21.9978 63.0404 28.6172 0.0000 0.0000 0.0000
# 3 50.5205 28.6172 68.6816 0.0000 0.0000 0.0000
# 4 0.0000 0.0000 0.0000 21.3881 0.0000 0.0000
# 5 0.0000 0.0000 0.0000 0.0000 37.8904 0.0000
# 6 0.0000 0.0000 0.0000 0.0000 0.0000 9.1989
#
#
#
# Elastic Compliance Matrix: (Units=1/GPa)
#
#
# Indices 1 2 3 4 5 6 
#
# 1 0.013538 -0.000251 -0.009854 0.000000 0.000000 0.000000
# 2 -0.000251 0.019568 -0.007969 0.000000 0.000000 0.000000
# 3 -0.009854 -0.007969 0.025128 0.000000 0.000000 0.000000
# 4 0.000000 0.000000 0.000000 0.046755 0.000000 0.000000
# 5 0.000000 0.000000 0.000000 0.000000 0.026392 0.000000
# 6 0.000000 0.000000 0.000000 0.000000 0.000000 0.108709
#
#
# Mechanical properties :
#
#
# Convention : Reuss Voigt Hill
#
# Bulk Modulus (GPa) = 45.27418 49.44850 47.36134
# Shear Modulus (GPa) = 17.63048 23.13750 20.38399
#
# Velocity S-wave (km/s) = 2.98999 3.42528 3.21501
# Velocity P-wave (km/s) = 5.90572 6.38103 6.14797
#
# Compressibility (1/GPa) = 0.02208764
#
# Stress axis : x y z
#
# Youngs Moduli (GPa) = 73.86457 51.10451 39.79559
#
# Poissons Ratio (x) = 0.01283 0.39214
# Poissons Ratio (y) = 0.01854 0.31711
# Poissons Ratio (z) = 0.72785 0.40723
#
# Static dielectric constant tensor:
#      x y z
#    x 1.697050 0.000000 0.000000 
#    y 0.000000 1.752160 0.000000 
#    z 0.000000 0.000000 1.675160 
# 
# From -- ./inp_files/19000.got.cif
#   From: 2010.05.17/outbox.cif.g08.bks.cpg/sg64_10_cif.got.tgz:19000.got - 2010.06.03 16:29:19.
