data_PCOD9477370
_publ_section_title
;
Structure prediction by ZEFSAII (Michael W. Deem and Ramdas Pophale) SiO2 
 PCOD9477370
Probable space group: C M C A
;
_chemical_formula_sum "Si O2"
_cell_formula_units_Z 116
_cell_length_a 7.463074
_cell_length_b 25.440385
_cell_length_c 26.921794
_cell_angle_alpha 90.000000
_cell_angle_beta 90.000000
_cell_angle_gamma 90.000000
_cell_volume 5111.465385
_symmetry_space_group_name_H-M "C M C A"
_symmetry_group_IT_number 64
_symmetry_cell_setting 'orthorhombic'
loop_
_space_group_symop_operation_xyz
x,y,z
-x,1/2-y,1/2+z
x,-y,-z
-x,1/2+y,1/2-z
-x,-y,-z
x,1/2+y,1/2-z
-x,y,z
x,1/2-y,1/2+z
1/2+x,1/2+y,z
1/2-x,-y,1/2+z
1/2+x,1/2-y,-z
1/2-x,y,1/2-z
1/2-x,1/2-y,-z
1/2+x,y,1/2-z
1/2-x,1/2+y,z
1/2+x,-y,1/2+z
loop_
_atom_site_type_symbol
_atom_site_label
_atom_site_fract_x
_atom_site_fract_y
_atom_site_fract_z
Si Si1 0.284959 0.636746 0.460796
Si Si2 0.303990 0.501090 0.305226
Si Si3 0.704175 0.113915 0.677968
Si Si4 0.786645 0.230020 0.803706
Si Si5 0.000000 0.000000 0.000000
Si Si6 0.217912 0.256751 0.911309
Si Si7 0.793353 0.862972 0.431872
Si Si8 0.217851 0.973117 0.585905
O O1 0.500000 0.642345 0.467198
O O2 0.218467 0.692742 0.441454
O O3 0.213543 0.621383 0.515131
O O4 0.256482 0.589186 0.423549
O O5 0.500000 0.523836 0.311960
O O6 0.250000 0.518197 0.250000
O O7 0.303591 0.437715 0.304730
O O8 0.216208 0.514059 0.358242
O O9 0.500000 0.109479 0.695737
O O10 0.784171 0.169987 0.694385
O O11 0.703242 0.116951 0.618067
O O12 0.750000 0.253792 0.750000
O O13 0.726291 0.259347 0.853354
O O14 0.000000 0.224895 0.808742
O O15 0.159321 0.999557 0.956001
O O16 0.284132 0.200678 0.930951
O O17 0.000000 0.255477 0.913554
O O18 0.000000 0.879962 0.428285
O O19 0.000000 0.984718 0.580391
#
# Coordination Sequence:
#
# PCOD9477370 Si02
#       8
#    16  16  16  16   4  16  16  16
#     4   9  19  38  59  78 114 157 196 241 301 369
#     4  11  24  41  64  89 125 166 210 265 318 383
#     4  10  21  35  55  82 115 153 199 243 301 376
#     4   9  18  31  49  75 105 141 185 236 290 350
#     4  12  26  44  72  98 132 164 206 278 324 390
#     4   9  18  35  54  76 109 152 191 232 289 358
#     4  10  19  31  53  85 116 150 188 239 298 361
#     4  10  25  45  66  97 128 169 215 264 327 388
#
# _framework density 22.694078999999999
#
# number of rings (size 3 to 8) (size 9 to 14) (size 15 to 20)
#    0.000    2.207    0.000    3.103    3.862    3.862 
#    2.483    0.690    0.000    0.000    0.000    0.000 
#    0.000    0.000    0.000    0.000    0.000    0.000 
#
# Total GULP energy -323322.579129 kJ/mol
# GULP energy per Si atom -5574.527226 kJ/mol
# Density = 2.264243 g / cm^3
# Si number density = 22.694079 Si / 1000 Ang^3
#
#
#
# Elastic Constant Matrix: (Units=GPa)
#
#
# Indices 1 2 3 4 5 6 
#
# 1 94.6964 -4.5916 21.8028 0.0000 0.0000 0.0000
# 2 -4.5916 47.8797 24.1159 0.0000 0.0000 0.0000
# 3 21.8028 24.1159 189.9242 0.0000 0.0000 0.0000
# 4 0.0000 0.0000 0.0000 17.6006 0.0000 0.0000
# 5 0.0000 0.0000 0.0000 0.0000 24.4919 0.0000
# 6 0.0000 0.0000 0.0000 0.0000 0.0000 -48.7066
#
#
#
# Elastic Compliance Matrix: (Units=1/GPa)
#
#
# Indices 1 2 3 4 5 6 
#
# 1 0.010991 0.001805 -0.001491 0.000000 0.000000 0.000000
# 2 0.001805 0.022609 -0.003078 0.000000 0.000000 0.000000
# 3 -0.001491 -0.003078 0.005827 0.000000 0.000000 0.000000
# 4 0.000000 0.000000 0.000000 0.056816 0.000000 0.000000
# 5 0.000000 0.000000 0.000000 0.000000 0.040830 0.000000
# 6 0.000000 0.000000 0.000000 0.000000 0.000000 -0.020531
#
#
# Mechanical properties :
#
#
# Convention : Reuss Voigt Hill
#
# Bulk Modulus (GPa) = 29.49923 46.12830 37.81377
# Shear Modulus (GPa) = 37.48979 18.08875 27.78927
#
# Velocity S-wave (km/s) = 4.06884 2.82630 3.50311
# Velocity P-wave (km/s) = 5.92460 5.56964 5.74986
#
# Compressibility (1/GPa) = 0.03389919
#
# Stress axis : x y z
#
# Youngs Moduli (GPa) = 90.98481 44.23000 171.60762
#
# Poissons Ratio (x) = -0.07983 0.25585
# Poissons Ratio (y) = -0.16422 0.52821
# Poissons Ratio (z) = 0.13565 0.13614
#
# Static dielectric constant tensor:
#      x y z
#    x 1.850010 0.000000 0.000000 
#    y 0.000000 1.818320 0.000000 
#    z 0.000000 0.000000 1.897290 
# 
# From -- ./inp_files/43547.got.cif
#   From: 2010.05.17/outbox.cif.g08.bks.cpg/sg64_22_cif.got.tgz:43547.got - 2010.06.03 16:29:19.
