data_PCOD9477702
_publ_section_title
;
Structure prediction by ZEFSAII (Michael W. Deem and Ramdas Pophale) SiO2 
 PCOD9477702
Probable space group: C M C A
;
_chemical_formula_sum "Si O2"
_cell_formula_units_Z 88
_cell_length_a 23.680155
_cell_length_b 14.821101
_cell_length_c 14.143595
_cell_angle_alpha 90.000000
_cell_angle_beta 90.000000
_cell_angle_gamma 90.000000
_cell_volume 4963.920524
_symmetry_space_group_name_H-M "C M C A"
_symmetry_group_IT_number 64
_symmetry_cell_setting 'orthorhombic'
loop_
_space_group_symop_operation_xyz
x,y,z
-x,1/2-y,1/2+z
x,-y,-z
-x,1/2+y,1/2-z
-x,-y,-z
x,1/2+y,1/2-z
-x,y,z
x,1/2-y,1/2+z
1/2+x,1/2+y,z
1/2-x,-y,1/2+z
1/2+x,1/2-y,-z
1/2-x,y,1/2-z
1/2-x,1/2-y,-z
1/2+x,y,1/2-z
1/2-x,1/2+y,z
1/2+x,-y,1/2+z
loop_
_atom_site_type_symbol
_atom_site_label
_atom_site_fract_x
_atom_site_fract_y
_atom_site_fract_z
Si Si1 0.750000 0.910763 0.750000
Si Si2 0.779186 0.948985 0.088349
Si Si3 0.640742 0.301354 0.805601
Si Si4 0.065292 0.897944 0.961260
Si Si5 0.629438 0.207362 0.620408
Si Si6 0.695273 0.190976 0.974124
O O1 0.694124 0.849477 0.744947
O O2 0.760150 0.977222 0.837259
O O3 0.820950 0.870260 0.127184
O O4 0.722308 0.904062 0.048328
O O5 0.807622 0.000000 0.000000
O O6 0.603747 0.370072 0.870160
O O7 0.611138 0.243989 0.722418
O O8 0.666715 0.232423 0.881677
O O9 0.000000 0.881832 0.936225
O O10 0.083909 0.836540 0.050398
O O11 0.069899 0.000000 0.000000
O O12 0.654018 0.292076 0.561098
O O13 0.750000 0.250000 0.000000
#
# Coordination Sequence:
#
# PCOD9477702 Si02
#       6
#     8  16  16  16  16  16
#     4  12  20  28  48  78 110 138 172 210 260 320
#     4  11  19  29  47  74 109 144 176 209 254 314
#     4  11  21  34  53  78 108 142 177 217 266 321
#     4  10  22  40  59  78 102 135 180 231 275 316
#     4  10  19  34  52  73 103 137 177 220 266 316
#     4   9  18  31  45  68 105 143 172 204 251 310
#
# _framework density 17.727922
#
# number of rings (size 3 to 8) (size 9 to 14) (size 15 to 20)
#    0.000    1.636    0.000    9.273    0.000    0.727 
#    0.000    0.000    0.000    0.000    0.000    0.000 
#    0.000   16.727    0.000    0.000    0.000    0.000 
#
# Total GULP energy -245206.315873 kJ/mol
# GULP energy per Si atom -5572.870815 kJ/mol
# Density = 1.768757 g / cm^3
# Si number density = 17.727922 Si / 1000 Ang^3
#
#
#
# Elastic Constant Matrix: (Units=GPa)
#
#
# Indices 1 2 3 4 5 6 
#
# 1 82.8103 21.1932 25.5058 0.0000 0.0000 0.0000
# 2 21.1932 64.1124 34.0691 0.0000 0.0000 0.0000
# 3 25.5058 34.0691 119.2324 0.0000 0.0000 0.0000
# 4 0.0000 0.0000 0.0000 38.1145 0.0000 0.0000
# 5 0.0000 0.0000 0.0000 0.0000 4.1458 0.0000
# 6 0.0000 0.0000 0.0000 0.0000 0.0000 20.8229
#
#
#
# Elastic Compliance Matrix: (Units=1/GPa)
#
#
# Indices 1 2 3 4 5 6 
#
# 1 0.013550 -0.003465 -0.001909 0.000000 0.000000 0.000000
# 2 -0.003465 0.019276 -0.004767 0.000000 0.000000 0.000000
# 3 -0.001909 -0.004767 0.010157 0.000000 0.000000 0.000000
# 4 0.000000 0.000000 0.000000 0.026237 0.000000 0.000000
# 5 0.000000 0.000000 0.000000 0.000000 0.241208 0.000000
# 6 0.000000 0.000000 0.000000 0.000000 0.000000 0.048024
#
#
# Mechanical properties :
#
#
# Convention : Reuss Voigt Hill
#
# Bulk Modulus (GPa) = 44.04674 47.52126 45.78400
# Shear Modulus (GPa) = 12.94328 24.97577 18.95952
#
# Velocity S-wave (km/s) = 2.70498 3.75752 3.27383
# Velocity P-wave (km/s) = 5.88692 6.75939 6.33818
#
# Compressibility (1/GPa) = 0.02270316
#
# Stress axis : x y z
#
# Youngs Moduli (GPa) = 73.79839 51.87801 98.45175
#
# Poissons Ratio (x) = 0.17976 0.18790
# Poissons Ratio (y) = 0.25572 0.46928
# Poissons Ratio (z) = 0.14085 0.24728
#
# Static dielectric constant tensor:
#      x y z
#    x 1.611500 0.000000 0.000000 
#    y 0.000000 1.525760 0.000000 
#    z 0.000000 0.000000 1.623280 
# 
# From -- ./inp_files/18209.got.cif
#   From: 2010.05.17/outbox.cif.g08.bks.cpg/sg64_10_cif.got.tgz:18209.got - 2010.06.03 16:29:19.
