data_PCOD9477836
_publ_section_title
;
Structure prediction by ZEFSAII (Michael W. Deem and Ramdas Pophale) SiO2 
 PCOD9477836
Probable space group: C M C A
;
_chemical_formula_sum "Si O2"
_cell_formula_units_Z 112
_cell_length_a 15.295860
_cell_length_b 17.532910
_cell_length_c 15.783102
_cell_angle_alpha 90.000000
_cell_angle_beta 90.000000
_cell_angle_gamma 90.000000
_cell_volume 4232.727079
_symmetry_space_group_name_H-M "C M C A"
_symmetry_group_IT_number 64
_symmetry_cell_setting 'orthorhombic'
loop_
_space_group_symop_operation_xyz
x,y,z
-x,1/2-y,1/2+z
x,-y,-z
-x,1/2+y,1/2-z
-x,-y,-z
x,1/2+y,1/2-z
-x,y,z
x,1/2-y,1/2+z
1/2+x,1/2+y,z
1/2-x,-y,1/2+z
1/2+x,1/2-y,-z
1/2-x,y,1/2-z
1/2-x,1/2-y,-z
1/2+x,y,1/2-z
1/2-x,1/2+y,z
1/2+x,-y,1/2+z
loop_
_atom_site_type_symbol
_atom_site_label
_atom_site_fract_x
_atom_site_fract_y
_atom_site_fract_z
Si Si1 0.402085 0.837960 0.983525
Si Si2 0.596395 0.694530 0.089261
Si Si3 0.594870 0.042853 0.589564
Si Si4 0.402710 0.786651 0.267062
Si Si5 0.097999 0.467666 0.229767
Si Si6 0.722623 0.666576 0.340677
Si Si7 0.784605 0.943967 0.419506
O O1 0.500000 0.865649 0.986973
O O2 0.357861 0.861815 0.896285
O O3 0.400486 0.748621 0.006848
O O4 0.348294 0.875933 0.058377
O O5 0.500000 0.654891 0.087280
O O6 0.595518 0.745136 0.175382
O O7 0.692099 0.657986 0.099656
O O8 0.500000 0.081574 0.595053
O O9 0.601886 0.994126 0.676874
O O10 0.686398 0.085665 0.589859
O O11 0.594266 0.000000 0.500000
O O12 0.500000 0.769039 0.304955
O O13 0.396903 0.876974 0.252130
O O14 0.320113 0.749678 0.315670
O O15 0.175989 0.481774 0.164914
O O16 0.000000 0.482440 0.194855
O O17 0.750000 0.633852 0.250000
O O18 0.787123 0.000000 0.500000
#
# Coordination Sequence:
#
# PCOD9477836 Si02
#       7
#    16  16  16  16  16  16  16
#     4  11  22  38  57  82 119 152 189 248 307 352
#     4   9  18  33  53  80 116 151 189 239 292 351
#     4   9  20  38  58  84 118 156 199 250 304 354
#     4   9  17  31  54  87 116 148 196 242 296 358
#     4  10  19  34  60  90 120 154 197 253 303 357
#     4  10  21  35  56  83 113 159 192 237 294 366
#     4  11  23  38  62  92 120 158 206 254 304 364
#
# _framework density 26.460481999999999
#
# number of rings (size 3 to 8) (size 9 to 14) (size 15 to 20)
#    0.000    2.143    1.429    1.714    2.000    2.857 
#    0.000    3.571    0.000    1.714    0.000    0.000 
#    0.000    0.000    0.000    0.000    0.000    0.000 
#
# Total GULP energy -312809.968133 kJ/mol
# GULP energy per Si atom -5585.892288 kJ/mol
# Density = 2.640026 g / cm^3
# Si number density = 26.460482 Si / 1000 Ang^3
#
#
#
# Elastic Constant Matrix: (Units=GPa)
#
#
# Indices 1 2 3 4 5 6 
#
# 1 267.0543 31.5160 67.4454 0.0000 0.0000 0.0000
# 2 31.5160 40.4269 11.6678 0.0000 0.0000 0.0000
# 3 67.4454 11.6678 146.2889 0.0000 0.0000 0.0000
# 4 0.0000 0.0000 0.0000 36.5242 0.0000 0.0000
# 5 0.0000 0.0000 0.0000 0.0000 42.8233 0.0000
# 6 0.0000 0.0000 0.0000 0.0000 0.0000 -27.6024
#
#
#
# Elastic Compliance Matrix: (Units=1/GPa)
#
#
# Indices 1 2 3 4 5 6 
#
# 1 0.004573 -0.003026 -0.001867 0.000000 0.000000 0.000000
# 2 -0.003026 0.027322 -0.000784 0.000000 0.000000 0.000000
# 3 -0.001867 -0.000784 0.007759 0.000000 0.000000 0.000000
# 4 0.000000 0.000000 0.000000 0.027379 0.000000 0.000000
# 5 0.000000 0.000000 0.000000 0.000000 0.023352 0.000000
# 6 0.000000 0.000000 0.000000 0.000000 0.000000 -0.036229
#
#
# Mechanical properties :
#
#
# Convention : Reuss Voigt Hill
#
# Bulk Modulus (GPa) = 35.33654 75.00318 55.16986
# Shear Modulus (GPa) = 66.71663 33.22506 49.97084
#
# Velocity S-wave (km/s) = 5.02677 3.54736 4.35041
# Velocity P-wave (km/s) = 6.86110 6.72199 6.79190
#
# Compressibility (1/GPa) = 0.02829932
#
# Stress axis : x y z
#
# Youngs Moduli (GPa) = 218.66318 36.60115 128.88079
#
# Poissons Ratio (x) = 0.11077 0.24063
# Poissons Ratio (y) = 0.66175 0.10102
# Poissons Ratio (z) = 0.40826 0.02869
#
# Static dielectric constant tensor:
#      x y z
#    x 2.042460 0.000000 0.000000 
#    y 0.000000 2.278800 0.000000 
#    z 0.000000 0.000000 2.088000 
# 
# From -- ./inp_files/24277.got.cif
#   From: 2010.05.17/outbox.cif.g08.bks.cpg/sg64_13_cif.got.tgz:24277.got - 2010.06.03 16:29:19.
