data_PCOD9477361
_publ_section_title
;
Structure prediction by ZEFSAII (Michael W. Deem and Ramdas Pophale) SiO2 
 PCOD9477361
Probable space group: C M C A
;
_chemical_formula_sum "Si O2"
_cell_formula_units_Z 88
_cell_length_a 13.691831
_cell_length_b 13.579593
_cell_length_c 27.546395
_cell_angle_alpha 90.000000
_cell_angle_beta 90.000000
_cell_angle_gamma 90.000000
_cell_volume 5121.687240
_symmetry_space_group_name_H-M "C M C A"
_symmetry_group_IT_number 64
_symmetry_cell_setting 'orthorhombic'
loop_
_space_group_symop_operation_xyz
x,y,z
-x,1/2-y,1/2+z
x,-y,-z
-x,1/2+y,1/2-z
-x,-y,-z
x,1/2+y,1/2-z
-x,y,z
x,1/2-y,1/2+z
1/2+x,1/2+y,z
1/2-x,-y,1/2+z
1/2+x,1/2-y,-z
1/2-x,y,1/2-z
1/2-x,1/2-y,-z
1/2+x,y,1/2-z
1/2-x,1/2+y,z
1/2+x,-y,1/2+z
loop_
_atom_site_type_symbol
_atom_site_label
_atom_site_fract_x
_atom_site_fract_y
_atom_site_fract_z
Si Si1 0.750000 0.667879 0.250000
Si Si2 0.612640 0.774167 0.972368
Si Si3 0.298682 0.808894 0.072727
Si Si4 0.388206 0.532175 0.314169
Si Si5 0.383427 0.298089 0.320527
Si Si6 0.111497 0.983467 0.573082
O O1 0.685982 0.598019 0.284523
O O2 0.677471 0.734582 0.217757
O O3 0.500000 0.749293 0.964300
O O4 0.686649 0.718623 0.936744
O O5 0.624817 0.890758 0.961508
O O6 0.643771 0.757760 0.028120
O O7 0.341008 0.780803 0.125227
O O8 0.316525 0.925647 0.067406
O O9 0.500000 0.551894 0.298953
O O10 0.370847 0.414786 0.309540
O O11 0.380855 0.553739 0.371612
O O12 0.500000 0.277965 0.319706
O O13 0.000000 0.022159 0.566939
#
# Coordination Sequence:
#
# PCOD9477361 Si02
#       6
#     8  16  16  16  16  16
#     4  12  20  32  54  76  98 128 168 210 258 306
#     4  10  19  31  52  80 104 132 172 209 242 290
#     4  10  19  32  53  76 105 136 166 205 252 299
#     4   9  19  34  50  71  99 129 166 211 252 297
#     4  10  21  36  53  75 103 134 167 206 256 306
#     4   9  17  32  53  73  95 129 173 212 245 288
#
# _framework density 17.181839
#
# number of rings (size 3 to 8) (size 9 to 14) (size 15 to 20)
#    0.000    2.182    0.000    5.455    0.000    1.455 
#    0.000    0.909    0.000   24.000    0.000    0.000 
#    0.000    0.000    0.000    0.000    0.000    0.000 
#
# Total GULP energy -245491.084750 kJ/mol
# GULP energy per Si atom -5579.342835 kJ/mol
# Density = 1.714273 g / cm^3
# Si number density = 17.181839 Si / 1000 Ang^3
#
#
#
# Elastic Constant Matrix: (Units=GPa)
#
#
# Indices 1 2 3 4 5 6 
#
# 1 144.6455 55.5014 71.5958 0.0000 0.0000 0.0000
# 2 55.5014 42.5700 42.7708 0.0000 0.0000 0.0000
# 3 71.5958 42.7708 105.1294 0.0000 0.0000 0.0000
# 4 0.0000 0.0000 0.0000 22.4569 0.0000 0.0000
# 5 0.0000 0.0000 0.0000 0.0000 19.7455 0.0000
# 6 0.0000 0.0000 0.0000 0.0000 0.0000 31.2645
#
#
#
# Elastic Compliance Matrix: (Units=1/GPa)
#
#
# Indices 1 2 3 4 5 6 
#
# 1 0.014652 -0.015353 -0.003732 0.000000 0.000000 0.000000
# 2 -0.015353 0.055818 -0.012254 0.000000 0.000000 0.000000
# 3 -0.003732 -0.012254 0.017039 0.000000 0.000000 0.000000
# 4 0.000000 0.000000 0.000000 0.044530 0.000000 0.000000
# 5 0.000000 0.000000 0.000000 0.000000 0.050644 0.000000
# 6 0.000000 0.000000 0.000000 0.000000 0.000000 0.031985
#
#
# Mechanical properties :
#
#
# Convention : Reuss Voigt Hill
#
# Bulk Modulus (GPa) = 40.27003 70.23121 55.25062
# Shear Modulus (GPa) = 17.50563 22.85852 20.18207
#
# Velocity S-wave (km/s) = 3.19540 3.65141 3.43099
# Velocity P-wave (km/s) = 6.09118 7.66427 6.92256
#
# Compressibility (1/GPa) = 0.02483236
#
# Stress axis : x y z
#
# Youngs Moduli (GPa) = 68.25175 17.91524 58.68895
#
# Poissons Ratio (x) = 0.27505 0.21903
# Poissons Ratio (y) = 1.04785 0.71915
# Poissons Ratio (z) = 0.25472 0.21953
#
# Static dielectric constant tensor:
#      x y z
#    x 1.570170 0.000000 0.000000 
#    y 0.000000 1.563630 0.000000 
#    z 0.000000 0.000000 1.606100 
# 
# From -- ./inp_files/49219.got.cif
#   From: 2010.05.17/outbox.cif.g08.bks.cpg/sg64_25_cif.got.tgz:49219.got - 2010.06.03 16:29:19.
