data_PCOD9477260
_publ_section_title
;
Structure prediction by ZEFSAII (Michael W. Deem and Ramdas Pophale) SiO2 
 PCOD9477260
Probable space group: C M C A
;
_chemical_formula_sum "Si O2"
_cell_formula_units_Z 96
_cell_length_a 7.292576
_cell_length_b 21.300993
_cell_length_c 25.436935
_cell_angle_alpha 90.000000
_cell_angle_beta 90.000000
_cell_angle_gamma 90.000000
_cell_volume 3951.350852
_symmetry_space_group_name_H-M "C M C A"
_symmetry_group_IT_number 64
_symmetry_cell_setting 'orthorhombic'
loop_
_space_group_symop_operation_xyz
x,y,z
-x,1/2-y,1/2+z
x,-y,-z
-x,1/2+y,1/2-z
-x,-y,-z
x,1/2+y,1/2-z
-x,y,z
x,1/2-y,1/2+z
1/2+x,1/2+y,z
1/2-x,-y,1/2+z
1/2+x,1/2-y,-z
1/2-x,y,1/2-z
1/2-x,1/2-y,-z
1/2+x,y,1/2-z
1/2-x,1/2+y,z
1/2+x,-y,1/2+z
loop_
_atom_site_type_symbol
_atom_site_label
_atom_site_fract_x
_atom_site_fract_y
_atom_site_fract_z
Si Si1 0.780082 0.282907 0.608853
Si Si2 0.781541 0.114362 0.192243
Si Si3 0.221273 0.541817 0.453018
Si Si4 0.721904 0.827022 0.501024
Si Si5 0.279551 0.482679 0.158831
Si Si6 0.215985 0.145732 0.883243
O O1 0.713005 0.339923 0.645661
O O2 0.719061 0.276024 0.546557
O O3 0.737140 0.216750 0.636536
O O4 0.000000 0.288950 0.605546
O O5 0.750000 0.141770 0.250000
O O6 0.000000 0.110128 0.183187
O O7 0.710396 0.042215 0.192375
O O8 0.291156 0.500000 0.500000
O O9 0.274077 0.612624 0.462970
O O10 0.264761 0.509706 0.398726
O O11 0.000000 0.541793 0.454936
O O12 0.500000 0.824753 0.497701
O O13 0.791420 0.848031 0.443167
O O14 0.500000 0.479331 0.168109
O O15 0.213868 0.410422 0.154078
O O16 0.000000 0.131963 0.889918
#
# Coordination Sequence:
#
# PCOD9477260 Si02
#       6
#    16  16  16  16  16  16
#     4  10  20  34  51  74 107 143 173 204 251 308
#     4  10  21  38  59  78  96 126 172 222 265 305
#     4   9  12  19  41  73 103 129 163 204 240 282
#     4   9  15  25  45  75 107 139 172 204 241 292
#     4   9  16  29  50  76 102 128 165 212 255 294
#     4  10  19  30  50  81 112 138 167 205 248 300
#
# _framework density 24.295487999999999
#
# number of rings (size 3 to 8) (size 9 to 14) (size 15 to 20)
#    0.000    2.500    3.333    0.500    0.000    0.667 
#    0.000    1.667    0.000    4.000    0.000    1.167 
#    0.000    0.000    0.000    0.000    0.000    0.000 
#
# Total GULP energy -267359.337690 kJ/mol
# GULP energy per Si atom -5569.986202 kJ/mol
# Density = 2.424019 g / cm^3
# Si number density = 24.295488 Si / 1000 Ang^3
#
#
#
# Elastic Constant Matrix: (Units=GPa)
#
#
# Indices 1 2 3 4 5 6 
#
# 1 99.0824 19.8511 4.0155 0.0000 0.0000 0.0000
# 2 19.8511 59.0862 5.8912 0.0000 0.0000 0.0000
# 3 4.0155 5.8912 88.9385 0.0000 0.0000 0.0000
# 4 0.0000 0.0000 0.0000 24.2384 0.0000 0.0000
# 5 0.0000 0.0000 0.0000 0.0000 17.0911 0.0000
# 6 0.0000 0.0000 0.0000 0.0000 0.0000 0.2385
#
#
#
# Elastic Compliance Matrix: (Units=1/GPa)
#
#
# Indices 1 2 3 4 5 6 
#
# 1 0.010826 -0.003612 -0.000250 0.000000 0.000000 0.000000
# 2 -0.003612 0.018242 -0.001045 0.000000 0.000000 0.000000
# 3 -0.000250 -0.001045 0.011324 0.000000 0.000000 0.000000
# 4 0.000000 0.000000 0.000000 0.041257 0.000000 0.000000
# 5 0.000000 0.000000 0.000000 0.000000 0.058510 0.000000
# 6 0.000000 0.000000 0.000000 0.000000 0.000000 4.192664
#
#
# Mechanical properties :
#
#
# Convention : Reuss Voigt Hill
#
# Bulk Modulus (GPa) = 32.70269 34.06918 33.38594
# Shear Modulus (GPa) = 1.14868 22.80356 11.97612
#
# Velocity S-wave (km/s) = 0.68835 3.06697 2.22262
# Velocity P-wave (km/s) = 3.75784 5.15704 4.51201
#
# Compressibility (1/GPa) = 0.03057853
#
# Stress axis : x y z
#
# Youngs Moduli (GPa) = 92.36618 54.81762 88.30622
#
# Poissons Ratio (x) = 0.19803 0.02203
# Poissons Ratio (y) = 0.33367 0.09230
# Poissons Ratio (z) = 0.02305 0.05730
#
# Static dielectric constant tensor:
#      x y z
#    x 1.979990 0.000000 0.000000 
#    y 0.000000 2.093370 0.000000 
#    z 0.000000 0.000000 1.973070 
# 
# From -- ./inp_files/44341.got.cif
#   From: 2010.05.17/outbox.cif.g08.bks.cpg/sg64_23_cif.got.tgz:44341.got - 2010.06.03 16:29:19.
