data_PCOD9477089
_publ_section_title
;
Structure prediction by ZEFSAII (Michael W. Deem and Ramdas Pophale) SiO2 
 PCOD9477089
Probable space group: C M C A
;
_chemical_formula_sum "Si O2"
_cell_formula_units_Z 80
_cell_length_a 29.405466
_cell_length_b 14.898985
_cell_length_c 9.141008
_cell_angle_alpha 90.000000
_cell_angle_beta 90.000000
_cell_angle_gamma 90.000000
_cell_volume 4004.781612
_symmetry_space_group_name_H-M "C M C A"
_symmetry_group_IT_number 64
_symmetry_cell_setting 'orthorhombic'
loop_
_space_group_symop_operation_xyz
x,y,z
-x,1/2-y,1/2+z
x,-y,-z
-x,1/2+y,1/2-z
-x,-y,-z
x,1/2+y,1/2-z
-x,y,z
x,1/2-y,1/2+z
1/2+x,1/2+y,z
1/2-x,-y,1/2+z
1/2+x,1/2-y,-z
1/2-x,y,1/2-z
1/2-x,1/2-y,-z
1/2+x,y,1/2-z
1/2-x,1/2+y,z
1/2+x,-y,1/2+z
loop_
_atom_site_type_symbol
_atom_site_label
_atom_site_fract_x
_atom_site_fract_y
_atom_site_fract_z
Si Si1 0.389727 0.944372 0.763755
Si Si2 0.833397 0.000000 0.000000
Si Si3 0.098912 0.844326 0.282021
Si Si4 0.321342 0.000000 0.000000
Si Si5 0.946028 0.296145 0.911129
Si Si6 0.298392 0.370044 0.248569
O O1 0.405293 0.048057 0.773523
O O2 0.428052 0.872644 0.798856
O O3 0.364511 0.939898 0.608392
O O4 0.352978 0.938692 0.895525
O O5 0.806047 0.067003 0.893998
O O6 0.077540 0.813424 0.433922
O O7 0.071542 0.796992 0.153791
O O8 0.152918 0.821335 0.268465
O O9 0.295427 0.062788 0.887327
O O10 0.000000 0.299119 0.924800
O O11 0.250000 0.319679 0.250000
#
# Coordination Sequence:
#
# PCOD9477089 Si02
#       6
#    16   8  16   8  16  16
#     4  10  19  41  63  87 122 168 193 255 311 357
#     4   8  19  32  61  92 123 157 199 252 297 352
#     4  10  24  41  60  92 125 156 203 262 303 368
#     4   8  15  34  59  86 119 161 199 242 293 362
#     4  12  24  41  66  88 119 166 207 257 315 367
#     4  10  18  35  61  91 125 164 203 249 303 366
#
# _framework density 19.976120999999999
#
# number of rings (size 3 to 8) (size 9 to 14) (size 15 to 20)
#    0.000    2.400    4.000    1.200    5.600    2.400 
#    0.000    1.500    0.000    0.000    0.000    0.000 
#    0.000    0.000    0.000    0.000    0.000    0.000 
#
# Total GULP energy -223046.207055 kJ/mol
# GULP energy per Si atom -5576.155176 kJ/mol
# Density = 1.993065 g / cm^3
# Si number density = 19.976121 Si / 1000 Ang^3
#
#
#
# Elastic Constant Matrix: (Units=GPa)
#
#
# Indices 1 2 3 4 5 6 
#
# 1 171.7455 18.6775 46.8870 0.0000 0.0000 0.0000
# 2 18.6775 36.4397 22.1973 0.0000 0.0000 0.0000
# 3 46.8870 22.1973 123.6044 0.0000 0.0000 0.0000
# 4 0.0000 0.0000 0.0000 29.8096 0.0000 0.0000
# 5 0.0000 0.0000 0.0000 0.0000 196.1299 0.0000
# 6 0.0000 0.0000 0.0000 0.0000 0.0000 20.9443
#
#
#
# Elastic Compliance Matrix: (Units=1/GPa)
#
#
# Indices 1 2 3 4 5 6 
#
# 1 0.006635 -0.002097 -0.002140 0.000000 0.000000 0.000000
# 2 -0.002097 0.031476 -0.004857 0.000000 0.000000 0.000000
# 3 -0.002140 -0.004857 0.009774 0.000000 0.000000 0.000000
# 4 0.000000 0.000000 0.000000 0.033546 0.000000 0.000000
# 5 0.000000 0.000000 0.000000 0.000000 0.005099 0.000000
# 6 0.000000 0.000000 0.000000 0.000000 0.000000 0.047746
#
#
# Mechanical properties :
#
#
# Convention : Reuss Voigt Hill
#
# Bulk Modulus (GPa) = 33.67377 56.36812 45.02094
# Shear Modulus (GPa) = 30.79504 65.64527 48.22016
#
# Velocity S-wave (km/s) = 3.93057 5.73875 4.91847
# Velocity P-wave (km/s) = 6.12314 8.49647 7.40550
#
# Compressibility (1/GPa) = 0.02969670
#
# Stress axis : x y z
#
# Youngs Moduli (GPa) = 150.71780 31.77010 102.30765
#
# Poissons Ratio (x) = 0.06662 0.21896
# Poissons Ratio (y) = 0.31606 0.49692
# Poissons Ratio (z) = 0.32257 0.15431
#
# Static dielectric constant tensor:
#      x y z
#    x 1.726900 0.000000 0.000000 
#    y 0.000000 1.714690 0.000000 
#    z 0.000000 0.000000 1.726520 
# 
# From -- ./inp_files/9294.got.cif
#   From: 2010.05.17/outbox.cif.g08.bks.cpg/sg64_5_cif.got.tgz:9294.got - 2010.06.03 16:29:19.
