data_PCOD9477501
_publ_section_title
;
Structure prediction by ZEFSAII (Michael W. Deem and Ramdas Pophale) SiO2 
 PCOD9477501
Probable space group: C M C A
;
_chemical_formula_sum "Si O2"
_cell_formula_units_Z 88
_cell_length_a 11.887192
_cell_length_b 19.043329
_cell_length_c 18.639243
_cell_angle_alpha 90.000000
_cell_angle_beta 90.000000
_cell_angle_gamma 90.000000
_cell_volume 4219.397276
_symmetry_space_group_name_H-M "C M C A"
_symmetry_group_IT_number 64
_symmetry_cell_setting 'orthorhombic'
loop_
_space_group_symop_operation_xyz
x,y,z
-x,1/2-y,1/2+z
x,-y,-z
-x,1/2+y,1/2-z
-x,-y,-z
x,1/2+y,1/2-z
-x,y,z
x,1/2-y,1/2+z
1/2+x,1/2+y,z
1/2-x,-y,1/2+z
1/2+x,1/2-y,-z
1/2-x,y,1/2-z
1/2-x,1/2-y,-z
1/2+x,y,1/2-z
1/2-x,1/2+y,z
1/2+x,-y,1/2+z
loop_
_atom_site_type_symbol
_atom_site_label
_atom_site_fract_x
_atom_site_fract_y
_atom_site_fract_z
Si Si1 0.373515 0.798816 0.386534
Si Si2 0.872378 0.344438 0.947862
Si Si3 0.874498 0.537519 0.824081
Si Si4 0.627709 0.116288 0.219937
Si Si5 0.209644 0.936235 0.046515
Si Si6 0.250000 0.659108 0.750000
O O1 0.500000 0.782968 0.362557
O O2 0.343399 0.738078 0.442793
O O3 0.368700 0.876301 0.420108
O O4 0.292989 0.798025 0.317916
O O5 0.870400 0.368296 0.864987
O O6 0.000000 0.351459 0.974949
O O7 0.792180 0.392096 0.994894
O O8 0.870752 0.468488 0.774941
O O9 0.783481 0.533974 0.887507
O O10 0.846906 0.606417 0.777842
O O11 0.000000 0.541396 0.855107
O O12 0.500000 0.139102 0.246093
O O13 0.750000 0.141122 0.250000
O O14 0.160142 0.000000 0.000000
#
# Coordination Sequence:
#
# PCOD9477501 Si02
#       6
#    16  16  16  16  16   8
#     4  10  23  40  58  83 116 156 191 234 294 355
#     4  10  21  38  60  83 116 153 192 241 293 352
#     4  10  19  32  54  84 113 144 193 245 289 341
#     4  10  20  35  57  86 118 153 196 249 302 352
#     4  11  21  36  59  85 113 148 192 240 290 343
#     4  10  20  36  56  80 110 154 188 238 290 352
#
# _framework density 20.856059999999999
#
# number of rings (size 3 to 8) (size 9 to 14) (size 15 to 20)
#    0.000    1.818    2.727    1.636    1.273    1.091 
#    0.000    0.909    0.000    2.182    0.000    0.000 
#    0.000    0.000    0.000    0.000    0.000    0.000 
#
# Total GULP energy -245405.395725 kJ/mol
# GULP energy per Si atom -5577.395357 kJ/mol
# Density = 2.080859 g / cm^3
# Si number density = 20.856060 Si / 1000 Ang^3
#
#
#
# Elastic Constant Matrix: (Units=GPa)
#
#
# Indices 1 2 3 4 5 6 
#
# 1 97.4579 18.9658 23.5269 0.0000 0.0000 0.0000
# 2 18.9658 81.7395 4.6891 0.0000 0.0000 0.0000
# 3 23.5269 4.6891 40.5776 0.0000 0.0000 0.0000
# 4 0.0000 0.0000 0.0000 22.6914 0.0000 0.0000
# 5 0.0000 0.0000 0.0000 0.0000 2.8132 0.0000
# 6 0.0000 0.0000 0.0000 0.0000 0.0000 15.3682
#
#
#
# Elastic Compliance Matrix: (Units=1/GPa)
#
#
# Indices 1 2 3 4 5 6 
#
# 1 0.012412 -0.002484 -0.006910 0.000000 0.000000 0.000000
# 2 -0.002484 0.012813 -0.000041 0.000000 0.000000 0.000000
# 3 -0.006910 -0.000041 0.028655 0.000000 0.000000 0.000000
# 4 0.000000 0.000000 0.000000 0.044070 0.000000 0.000000
# 5 0.000000 0.000000 0.000000 0.000000 0.355467 0.000000
# 6 0.000000 0.000000 0.000000 0.000000 0.000000 0.065069
#
#
# Mechanical properties :
#
#
# Convention : Reuss Voigt Hill
#
# Bulk Modulus (GPa) = 28.56150 34.90430 31.73290
# Shear Modulus (GPa) = 9.10706 19.68078 14.39392
#
# Velocity S-wave (km/s) = 2.09191 3.07522 2.62993
# Velocity P-wave (km/s) = 4.42257 5.42046 4.94674
#
# Compressibility (1/GPa) = 0.03501217
#
# Stress axis : x y z
#
# Youngs Moduli (GPa) = 80.56611 78.04828 34.89792
#
# Poissons Ratio (x) = 0.19384 0.24113
# Poissons Ratio (y) = 0.20009 0.00142
# Poissons Ratio (z) = 0.55668 0.00317
#
# Static dielectric constant tensor:
#      x y z
#    x 1.745670 0.000000 0.000000 
#    y 0.000000 1.810460 0.000000 
#    z 0.000000 0.000000 1.718640 
# 
# From -- ./inp_files/30934.got.cif
#   From: 2010.05.17/outbox.cif.g08.bks.cpg/sg64_16_cif.got.tgz:30934.got - 2010.06.03 16:29:19.
