data_PCOD9477683
_publ_section_title
;
Structure prediction by ZEFSAII (Michael W. Deem and Ramdas Pophale) SiO2 
 PCOD9477683
Probable space group: C M C A
;
_chemical_formula_sum "Si O2"
_cell_formula_units_Z 64
_cell_length_a 18.311578
_cell_length_b 11.107494
_cell_length_c 13.035770
_cell_angle_alpha 90.000000
_cell_angle_beta 90.000000
_cell_angle_gamma 90.000000
_cell_volume 2651.420122
_symmetry_space_group_name_H-M "C M C A"
_symmetry_group_IT_number 64
_symmetry_cell_setting 'orthorhombic'
loop_
_space_group_symop_operation_xyz
x,y,z
-x,1/2-y,1/2+z
x,-y,-z
-x,1/2+y,1/2-z
-x,-y,-z
x,1/2+y,1/2-z
-x,y,z
x,1/2-y,1/2+z
1/2+x,1/2+y,z
1/2-x,-y,1/2+z
1/2+x,1/2-y,-z
1/2-x,y,1/2-z
1/2-x,1/2-y,-z
1/2+x,y,1/2-z
1/2-x,1/2+y,z
1/2+x,-y,1/2+z
loop_
_atom_site_type_symbol
_atom_site_label
_atom_site_fract_x
_atom_site_fract_y
_atom_site_fract_z
Si Si1 0.170366 0.841024 0.555341
Si Si2 0.413645 0.407111 0.740686
Si Si3 0.084229 0.902470 0.090466
Si Si4 0.199381 0.227686 0.660395
O O1 0.114747 0.915314 0.624796
O O2 0.136457 0.706559 0.564007
O O3 0.182120 0.859058 0.434853
O O4 0.248318 0.832181 0.611617
O O5 0.500000 0.387053 0.746666
O O6 0.397581 0.527011 0.805408
O O7 0.370396 0.295413 0.792452
O O8 0.000000 0.859532 0.096831
O O9 0.087530 0.000000 0.000000
O O10 0.250000 0.173668 0.750000
#
# Coordination Sequence:
#
# PCOD9477683 Si02
#       4
#    16  16  16  16
#     4  10  19  35  58  83 124 166 200 263 319 377
#     4  10  20  34  57  89 122 158 207 263 316 374
#     4  10  19  33  58  91 118 158 219 269 314 377
#     4   9  19  35  55  82 119 157 204 253 315 377
#
# _framework density 24.138007000000002
#
# number of rings (size 3 to 8) (size 9 to 14) (size 15 to 20)
#    0.000    2.250    2.500    0.750    0.000    1.000 
#    0.000   11.250    0.000    0.000    0.000   15.750 
#    0.000    0.000    0.000    0.000    0.000    0.000 
#
# Total GULP energy -179093.684339 kJ/mol
# GULP energy per Si atom -5596.677636 kJ/mol
# Density = 2.408307 g / cm^3
# Si number density = 24.138007 Si / 1000 Ang^3
#
#
#
# Elastic Constant Matrix: (Units=GPa)
#
#
# Indices 1 2 3 4 5 6 
#
# 1 146.1458 34.4107 57.7560 0.0000 0.0000 0.0000
# 2 34.4107 44.8346 32.2714 0.0000 0.0000 0.0000
# 3 57.7560 32.2714 190.1548 0.0000 0.0000 0.0000
# 4 0.0000 0.0000 0.0000 37.7527 0.0000 0.0000
# 5 0.0000 0.0000 0.0000 0.0000 45.0965 0.0000
# 6 0.0000 0.0000 0.0000 0.0000 0.0000 26.9137
#
#
#
# Elastic Compliance Matrix: (Units=1/GPa)
#
#
# Indices 1 2 3 4 5 6 
#
# 1 0.008833 -0.005523 -0.001745 0.000000 0.000000 0.000000
# 2 -0.005523 0.028861 -0.003221 0.000000 0.000000 0.000000
# 3 -0.001745 -0.003221 0.006336 0.000000 0.000000 0.000000
# 4 0.000000 0.000000 0.000000 0.026488 0.000000 0.000000
# 5 0.000000 0.000000 0.000000 0.000000 0.022175 0.000000
# 6 0.000000 0.000000 0.000000 0.000000 0.000000 0.037156
#
#
# Mechanical properties :
#
#
# Convention : Reuss Voigt Hill
#
# Bulk Modulus (GPa) = 43.38082 70.00127 56.69105
# Shear Modulus (GPa) = 31.54385 39.06570 35.30478
#
# Velocity S-wave (km/s) = 3.61891 4.02734 3.82857
# Velocity P-wave (km/s) = 5.95592 7.11964 6.56362
#
# Compressibility (1/GPa) = 0.02305166
#
# Stress axis : x y z
#
# Youngs Moduli (GPa) = 113.21653 34.64879 157.83803
#
# Poissons Ratio (x) = 0.19135 0.27550
# Poissons Ratio (y) = 0.62526 0.50834
# Poissons Ratio (z) = 0.19762 0.11159
#
# Static dielectric constant tensor:
#      x y z
#    x 1.876280 0.000000 0.000000 
#    y 0.000000 1.935920 0.000000 
#    z 0.000000 0.000000 1.982850 
# 
# From -- ./inp_files/24893.got.cif
#   From: 2010.05.17/outbox.cif.g08.bks.cpg/sg64_13_cif.got.tgz:24893.got - 2010.06.03 16:29:19.
