data_PCOD9477617
_publ_section_title
;
Structure prediction by ZEFSAII (Michael W. Deem and Ramdas Pophale) SiO2 
 PCOD9477617
Probable space group: C M C A
;
_chemical_formula_sum "Si O2"
_cell_formula_units_Z 80
_cell_length_a 14.587333
_cell_length_b 25.210072
_cell_length_c 10.400060
_cell_angle_alpha 90.000000
_cell_angle_beta 90.000000
_cell_angle_gamma 90.000000
_cell_volume 3824.598303
_symmetry_space_group_name_H-M "C M C A"
_symmetry_group_IT_number 64
_symmetry_cell_setting 'orthorhombic'
loop_
_space_group_symop_operation_xyz
x,y,z
-x,1/2-y,1/2+z
x,-y,-z
-x,1/2+y,1/2-z
-x,-y,-z
x,1/2+y,1/2-z
-x,y,z
x,1/2-y,1/2+z
1/2+x,1/2+y,z
1/2-x,-y,1/2+z
1/2+x,1/2-y,-z
1/2-x,y,1/2-z
1/2-x,1/2-y,-z
1/2+x,y,1/2-z
1/2-x,1/2+y,z
1/2+x,-y,1/2+z
loop_
_atom_site_type_symbol
_atom_site_label
_atom_site_fract_x
_atom_site_fract_y
_atom_site_fract_z
Si Si1 0.602109 0.028214 0.860701
Si Si2 0.144058 0.915298 0.715758
Si Si3 0.199336 0.626137 0.940837
Si Si4 0.901175 0.654135 0.452936
Si Si5 0.812080 0.758045 0.374592
O O1 0.500000 0.050980 0.847994
O O2 0.676182 0.074603 0.856294
O O3 0.611461 0.976006 0.774817
O O4 0.610578 0.000000 0.000000
O O5 0.250000 0.916913 0.750000
O O6 0.145290 0.887338 0.574947
O O7 0.097689 0.881060 0.824888
O O8 0.162508 0.680051 0.876339
O O9 0.307884 0.636341 0.971358
O O10 0.888363 0.713977 0.399503
O O11 0.000000 0.649105 0.521058
O O12 0.750000 0.745822 0.250000
O O13 0.750000 0.750000 0.500000
#
# Coordination Sequence:
#
# PCOD9477617 Si02
#       5
#    16  16  16  16  16
#     4   9  17  30  51  78 106 143 191 236 279 335
#     4   9  17  32  54  77 106 146 187 231 283 341
#     4   9  19  34  52  79 114 144 182 237 291 335
#     4  10  19  33  55  82 111 147 189 230 281 348
#     4  10  20  37  57  79 111 150 191 237 287 339
#
# _framework density 20.917228999999999
#
# number of rings (size 3 to 8) (size 9 to 14) (size 15 to 20)
#    0.000    2.600    0.000    3.600    0.000    2.400 
#    0.000    8.000    0.000   21.000    0.000    0.000 
#    0.000    0.000    0.000    0.000    0.000    0.000 
#
# Total GULP energy -222756.999873 kJ/mol
# GULP energy per Si atom -5568.924997 kJ/mol
# Density = 2.086962 g / cm^3
# Si number density = 20.917229 Si / 1000 Ang^3
#
#
#
# Elastic Constant Matrix: (Units=GPa)
#
#
# Indices 1 2 3 4 5 6 
#
# 1 123.2381 69.7749 12.0111 0.0000 0.0000 0.0000
# 2 69.7749 146.5151 14.5811 0.0000 0.0000 0.0000
# 3 12.0111 14.5811 42.3887 0.0000 0.0000 0.0000
# 4 0.0000 0.0000 0.0000 22.7715 0.0000 0.0000
# 5 0.0000 0.0000 0.0000 0.0000 -91.2846 0.0000
# 6 0.0000 0.0000 0.0000 0.0000 0.0000 -63.7330
#
#
#
# Elastic Compliance Matrix: (Units=1/GPa)
#
#
# Indices 1 2 3 4 5 6 
#
# 1 0.011188 -0.005190 -0.001385 0.000000 0.000000 0.000000
# 2 -0.005190 0.009475 -0.001789 0.000000 0.000000 0.000000
# 3 -0.001385 -0.001789 0.024599 0.000000 0.000000 0.000000
# 4 0.000000 0.000000 0.000000 0.043915 0.000000 0.000000
# 5 0.000000 0.000000 0.000000 0.000000 -0.010955 0.000000
# 6 0.000000 0.000000 0.000000 0.000000 0.000000 -0.015690
#
#
# Mechanical properties :
#
#
# Convention : Reuss Voigt Hill
#
# Bulk Modulus (GPa) = 35.04522 56.09733 45.57127
# Shear Modulus (GPa) = 56.32544 -12.06423 22.13060
#
# Velocity S-wave (km/s) = 5.19483 -2.40419 3.25623
# Velocity P-wave (km/s) = 7.26445 4.37837 5.99760
#
# Compressibility (1/GPa) = 0.02853456
#
# Stress axis : x y z
#
# Youngs Moduli (GPa) = 89.38200 105.54121 40.65230
#
# Poissons Ratio (x) = 0.54778 0.05630
# Poissons Ratio (y) = 0.46391 0.07271
# Poissons Ratio (z) = 0.12378 0.18877
#
# Static dielectric constant tensor:
#      x y z
#    x 1.772460 0.000000 0.000000 
#    y 0.000000 1.806180 0.000000 
#    z 0.000000 0.000000 1.793680 
# 
# From -- ./inp_files/14418.got.cif
#   From: 2010.05.17/outbox.cif.g08.bks.cpg/sg64_8_cif.got.tgz:14418.got - 2010.06.03 16:29:19.
