data_PCOD9477719
_publ_section_title
;
Structure prediction by ZEFSAII (Michael W. Deem and Ramdas Pophale) SiO2 
 PCOD9477719
Probable space group: C M C A
;
_chemical_formula_sum "Si O2"
_cell_formula_units_Z 72
_cell_length_a 30.886930
_cell_length_b 5.199212
_cell_length_c 25.032864
_cell_angle_alpha 90.000000
_cell_angle_beta 90.000000
_cell_angle_gamma 90.000000
_cell_volume 4019.969982
_symmetry_space_group_name_H-M "C M C A"
_symmetry_group_IT_number 64
_symmetry_cell_setting 'orthorhombic'
loop_
_space_group_symop_operation_xyz
x,y,z
-x,1/2-y,1/2+z
x,-y,-z
-x,1/2+y,1/2-z
-x,-y,-z
x,1/2+y,1/2-z
-x,y,z
x,1/2-y,1/2+z
1/2+x,1/2+y,z
1/2-x,-y,1/2+z
1/2+x,1/2-y,-z
1/2-x,y,1/2-z
1/2-x,1/2-y,-z
1/2+x,y,1/2-z
1/2-x,1/2+y,z
1/2+x,-y,1/2+z
loop_
_atom_site_type_symbol
_atom_site_label
_atom_site_fract_x
_atom_site_fract_y
_atom_site_fract_z
Si Si1 0.230969 0.230841 0.439455
Si Si2 0.948301 0.016669 0.783921
Si Si3 0.086586 0.368865 0.601725
Si Si4 0.000000 0.248881 0.037415
Si Si5 0.629435 0.612668 0.441723
O O1 0.250000 0.250000 0.500000
O O2 0.242883 0.499406 0.413198
O O3 0.180364 0.175870 0.441634
O O4 0.938869 0.796432 0.740240
O O5 0.923522 0.953965 0.838171
O O6 0.000000 0.005010 0.795078
O O7 0.042444 0.269524 0.574153
O O8 0.104492 0.622877 0.571437
O O9 0.118386 0.124095 0.597420
O O10 0.000000 0.500000 0.000000
O O11 0.000000 0.000000 0.000000
O O12 0.617769 0.500000 0.500000
#
# Coordination Sequence:
#
# PCOD9477719 Si02
#       5
#    16  16  16   8  16
#     4  10  19  34  54  76 111 155 190 231 274 324
#     4  10  21  40  64  81 104 146 199 262 306 325
#     4  12  24  38  56  85 117 151 210 235 278 354
#     4  12  24  40  50  74 120 170 192 218 259 330
#     4  12  23  35  56  85 122 162 189 231 279 337
#
# _framework density 17.910582999999999
#
# number of rings (size 3 to 8) (size 9 to 14) (size 15 to 20)
#    0.000    0.889    3.333    6.667    3.111    0.000 
#    0.000    0.000    0.000    0.000    0.000    0.000 
#    0.000   62.222    0.000    0.000    0.000    0.000 
#
# Total GULP energy -201093.061673 kJ/mol
# GULP energy per Si atom -5585.918380 kJ/mol
# Density = 1.786982 g / cm^3
# Si number density = 17.910583 Si / 1000 Ang^3
#
#
#
# Elastic Constant Matrix: (Units=GPa)
#
#
# Indices 1 2 3 4 5 6 
#
# 1 104.0887 38.3225 29.7409 0.0000 0.0000 0.0000
# 2 38.3225 133.0593 2.4412 0.0000 0.0000 0.0000
# 3 29.7409 2.4412 40.8155 0.0000 0.0000 0.0000
# 4 0.0000 0.0000 0.0000 19.3409 0.0000 0.0000
# 5 0.0000 0.0000 0.0000 0.0000 11.2475 0.0000
# 6 0.0000 0.0000 0.0000 0.0000 0.0000 29.0045
#
#
#
# Elastic Compliance Matrix: (Units=1/GPa)
#
#
# Indices 1 2 3 4 5 6 
#
# 1 0.013818 -0.003799 -0.009841 0.000000 0.000000 0.000000
# 2 -0.003799 0.008568 0.002256 0.000000 0.000000 0.000000
# 3 -0.009841 0.002256 0.031537 0.000000 0.000000 0.000000
# 4 0.000000 0.000000 0.000000 0.051704 0.000000 0.000000
# 5 0.000000 0.000000 0.000000 0.000000 0.088909 0.000000
# 6 0.000000 0.000000 0.000000 0.000000 0.000000 0.034477
#
#
# Mechanical properties :
#
#
# Convention : Reuss Voigt Hill
#
# Bulk Modulus (GPa) = 32.09926 46.55252 39.32589
# Shear Modulus (GPa) = 19.07183 25.74917 22.41050
#
# Velocity S-wave (km/s) = 3.26672 3.79575 3.54113
# Velocity P-wave (km/s) = 5.67358 6.72743 6.22285
#
# Compressibility (1/GPa) = 0.03115337
#
# Stress axis : x y z
#
# Youngs Moduli (GPa) = 72.37009 116.70996 31.70917
#
# Poissons Ratio (x) = 0.44340 0.31206
# Poissons Ratio (y) = 0.27494 -0.07153
# Poissons Ratio (z) = 0.71222 -0.26328
#
# Static dielectric constant tensor:
#      x y z
#    x 1.620810 0.000000 0.000000 
#    y 0.000000 1.677420 0.000000 
#    z 0.000000 0.000000 1.570720 
# 
# From -- ./inp_files/46823.got.cif
#   From: 2010.05.17/outbox.cif.g08.bks.cpg/sg64_24_cif.got.tgz:46823.got - 2010.06.03 16:29:19.
