data_PCOD9477336
_publ_section_title
;
Structure prediction by ZEFSAII (Michael W. Deem and Ramdas Pophale) SiO2 
 PCOD9477336
Probable space group: C M C A
;
_chemical_formula_sum "Si O2"
_cell_formula_units_Z 128
_cell_length_a 8.585644
_cell_length_b 29.078494
_cell_length_c 28.508584
_cell_angle_alpha 90.000000
_cell_angle_beta 90.000000
_cell_angle_gamma 90.000000
_cell_volume 7117.384591
_symmetry_space_group_name_H-M "C M C A"
_symmetry_group_IT_number 64
_symmetry_cell_setting 'orthorhombic'
loop_
_space_group_symop_operation_xyz
x,y,z
-x,1/2-y,1/2+z
x,-y,-z
-x,1/2+y,1/2-z
-x,-y,-z
x,1/2+y,1/2-z
-x,y,z
x,1/2-y,1/2+z
1/2+x,1/2+y,z
1/2-x,-y,1/2+z
1/2+x,1/2-y,-z
1/2-x,y,1/2-z
1/2-x,1/2-y,-z
1/2+x,y,1/2-z
1/2-x,1/2+y,z
1/2+x,-y,1/2+z
loop_
_atom_site_type_symbol
_atom_site_label
_atom_site_fract_x
_atom_site_fract_y
_atom_site_fract_z
Si Si1 0.311671 0.713296 0.392923
Si Si2 0.689650 0.145582 0.026020
Si Si3 0.812128 0.593525 0.884479
Si Si4 0.186336 0.437945 0.803108
Si Si5 0.312480 0.836134 0.802487
Si Si6 0.310002 0.949693 0.015962
Si Si7 0.315667 0.966727 0.302853
Si Si8 0.812434 0.310349 0.072504
O O1 0.500000 0.712993 0.393178
O O2 0.258427 0.672775 0.428068
O O3 0.259086 0.701007 0.340349
O O4 0.255927 0.762364 0.411012
O O5 0.500000 0.144446 0.026887
O O6 0.739974 0.092938 0.017220
O O7 0.735056 0.175091 0.980138
O O8 0.766340 0.564340 0.930897
O O9 0.739982 0.572774 0.837784
O O10 0.768327 0.646330 0.894883
O O11 0.000000 0.591283 0.881185
O O12 0.250000 0.437354 0.750000
O O13 0.228849 0.387397 0.821503
O O14 0.255830 0.484486 0.823804
O O15 0.000000 0.442045 0.803157
O O16 0.500000 0.835057 0.799639
O O17 0.250000 0.830152 0.750000
O O18 0.500000 0.950290 0.014973
O O19 0.255813 0.000000 0.000000
O O20 0.250000 0.961418 0.250000
O O21 0.000000 0.031811 0.799486
O O22 0.000000 0.307295 0.072724
#
# Coordination Sequence:
#
# PCOD9477336 Si02
#       8
#    16  16  16  16  16  16  16  16
#     4  10  19  31  50  75  99 125 164 210 249 288
#     4   8  15  28  46  71 101 127 157 200 243 288
#     4   9  18  33  51  72 100 132 166 205 248 294
#     4   9  16  29  48  69  95 126 159 196 239 284
#     4   9  19  33  49  71  99 131 163 198 241 288
#     4   8  14  26  48  76 102 130 163 199 242 293
#     4  11  21  33  51  75 101 130 168 208 246 291
#     4   9  18  33  51  71  97 129 162 199 249 299
#
# _framework density 17.984133
#
# number of rings (size 3 to 8) (size 9 to 14) (size 15 to 20)
#    0.000    2.875    0.000    4.125    0.000    2.500 
#    0.000    4.375    0.000    2.625    0.000    0.000 
#    0.000    0.000    0.000    0.000    0.000    0.000 
#
# Total GULP energy -356602.027656 kJ/mol
# GULP energy per Si atom -5571.906682 kJ/mol
# Density = 1.794320 g / cm^3
# Si number density = 17.984133 Si / 1000 Ang^3
#
#
#
# Elastic Constant Matrix: (Units=GPa)
#
#
# Indices 1 2 3 4 5 6 
#
# 1 26.2287 24.9551 21.5277 0.0000 0.0000 0.0000
# 2 24.9551 137.3660 83.2773 0.0000 0.0000 0.0000
# 3 21.5277 83.2773 93.3221 0.0000 0.0000 0.0000
# 4 0.0000 0.0000 0.0000 25.3379 0.0000 0.0000
# 5 0.0000 0.0000 0.0000 0.0000 14.2557 0.0000
# 6 0.0000 0.0000 0.0000 0.0000 0.0000 19.4282
#
#
#
# Elastic Compliance Matrix: (Units=1/GPa)
#
#
# Indices 1 2 3 4 5 6 
#
# 1 0.048218 -0.004393 -0.007203 0.000000 0.000000 0.000000
# 2 -0.004393 0.016260 -0.013497 0.000000 0.000000 0.000000
# 3 -0.007203 -0.013497 0.024421 0.000000 0.000000 0.000000
# 4 0.000000 0.000000 0.000000 0.039467 0.000000 0.000000
# 5 0.000000 0.000000 0.000000 0.000000 0.070147 0.000000
# 6 0.000000 0.000000 0.000000 0.000000 0.000000 0.051471
#
#
# Mechanical properties :
#
#
# Convention : Reuss Voigt Hill
#
# Bulk Modulus (GPa) = 25.83040 57.38190 41.60615
# Shear Modulus (GPa) = 15.97069 20.28148 18.12609
#
# Velocity S-wave (km/s) = 2.98324 3.36183 3.17818
# Velocity P-wave (km/s) = 5.12449 6.85897 6.05416
#
# Compressibility (1/GPa) = 0.03871408
#
# Stress axis : x y z
#
# Youngs Moduli (GPa) = 20.73927 61.50030 40.94840
#
# Poissons Ratio (x) = 0.27017 0.29494
# Poissons Ratio (y) = 0.09111 0.55266
# Poissons Ratio (z) = 0.14938 0.83004
#
# Static dielectric constant tensor:
#      x y z
#    x 1.618230 0.000000 0.000000 
#    y 0.000000 1.631180 0.000000 
#    z 0.000000 0.000000 1.606250 
# 
# From -- ./inp_files/44678.got.cif
#   From: 2010.05.17/outbox.cif.g08.bks.cpg/sg64_23_cif.got.tgz:44678.got - 2010.06.03 16:29:19.
