data_PCOD9477293
_publ_section_title
;
Structure prediction by ZEFSAII (Michael W. Deem and Ramdas Pophale) SiO2 
 PCOD9477293
Probable space group: C M C A
;
_chemical_formula_sum "Si O2"
_cell_formula_units_Z 80
_cell_length_a 8.484520
_cell_length_b 26.855801
_cell_length_c 19.982924
_cell_angle_alpha 90.000000
_cell_angle_beta 90.000000
_cell_angle_gamma 90.000000
_cell_volume 4553.280701
_symmetry_space_group_name_H-M "C M C A"
_symmetry_group_IT_number 64
_symmetry_cell_setting 'orthorhombic'
loop_
_space_group_symop_operation_xyz
x,y,z
-x,1/2-y,1/2+z
x,-y,-z
-x,1/2+y,1/2-z
-x,-y,-z
x,1/2+y,1/2-z
-x,y,z
x,1/2-y,1/2+z
1/2+x,1/2+y,z
1/2-x,-y,1/2+z
1/2+x,1/2-y,-z
1/2-x,y,1/2-z
1/2-x,1/2-y,-z
1/2+x,y,1/2-z
1/2-x,1/2+y,z
1/2+x,-y,1/2+z
loop_
_atom_site_type_symbol
_atom_site_label
_atom_site_fract_x
_atom_site_fract_y
_atom_site_fract_z
Si Si1 0.809521 0.107018 0.674030
Si Si2 0.311221 0.002639 0.173629
Si Si3 0.809570 0.306091 0.575240
Si Si4 0.309472 0.192975 0.925854
Si Si5 0.311388 0.892949 0.673987
O O1 0.750000 0.112412 0.750000
O O2 0.753833 0.151537 0.626555
O O3 0.000000 0.108132 0.676122
O O4 0.764240 0.051909 0.646956
O O5 0.500000 0.006070 0.173311
O O6 0.250000 0.002094 0.250000
O O7 0.243162 0.053721 0.144608
O O8 0.749508 0.317345 0.500735
O O9 0.759620 0.249447 0.592037
O O10 0.755528 0.347173 0.628365
O O11 0.000000 0.306844 0.574400
O O12 0.500000 0.192028 0.926337
O O13 0.500000 0.892711 0.676437
O O14 0.250000 0.888370 0.750000
#
# Coordination Sequence:
#
# PCOD9477293 Si02
#       5
#    16  16  16  16  16
#     4   9  18  31  49  73  97 122 154 193 233 275
#     4   9  16  28  46  68  94 123 154 187 229 276
#     4   9  19  34  50  69  94 124 157 193 233 277
#     4   9  18  34  52  69  93 124 157 193 233 277
#     4  10  19  31  48  71  97 123 155 193 231 274
#
# _framework density 17.569749999999999
#
# number of rings (size 3 to 8) (size 9 to 14) (size 15 to 20)
#    0.000    2.800    0.000    2.400    0.000    4.000 
#    0.000    1.000    0.000    6.000    0.000    0.000 
#    0.000    0.000    0.000    0.000    0.000    0.000 
#
# Total GULP energy -222816.538326 kJ/mol
# GULP energy per Si atom -5570.413458 kJ/mol
# Density = 1.752976 g / cm^3
# Si number density = 17.569750 Si / 1000 Ang^3
#
#
#
# Elastic Constant Matrix: (Units=GPa)
#
#
# Indices 1 2 3 4 5 6 
#
# 1 18.8929 29.7073 14.1853 0.0000 0.0000 0.0000
# 2 29.7073 194.2540 101.6654 0.0000 0.0000 0.0000
# 3 14.1853 101.6654 75.9943 0.0000 0.0000 0.0000
# 4 0.0000 0.0000 0.0000 -5.0424 0.0000 0.0000
# 5 0.0000 0.0000 0.0000 0.0000 22.5979 0.0000
# 6 0.0000 0.0000 0.0000 0.0000 0.0000 20.5659
#
#
#
# Elastic Compliance Matrix: (Units=1/GPa)
#
#
# Indices 1 2 3 4 5 6 
#
# 1 0.070085 -0.012911 0.004190 0.000000 0.000000 0.000000
# 2 -0.012911 0.019547 -0.023740 0.000000 0.000000 0.000000
# 3 0.004190 -0.023740 0.044136 0.000000 0.000000 0.000000
# 4 0.000000 0.000000 0.000000 -0.198320 0.000000 0.000000
# 5 0.000000 0.000000 0.000000 0.000000 0.044252 0.000000
# 6 0.000000 0.000000 0.000000 0.000000 0.000000 0.048624
#
#
# Mechanical properties :
#
#
# Convention : Reuss Voigt Hill
#
# Bulk Modulus (GPa) = 14.52504 64.47303 39.49904
# Shear Modulus (GPa) = 43.03071 17.19651 30.11361
#
# Velocity S-wave (km/s) = 4.95424 3.13190 4.14448
# Velocity P-wave (km/s) = 6.40399 7.06071 6.74035
#
# Compressibility (1/GPa) = 0.06884661
#
# Stress axis : x y z
#
# Youngs Moduli (GPa) = 14.26834 51.15843 22.65709
#
# Poissons Ratio (x) = 0.66052 -0.09494
# Poissons Ratio (y) = 0.18422 0.53788
# Poissons Ratio (z) = -0.05979 1.21451
#
# Static dielectric constant tensor:
#      x y z
#    x 1.605480 0.000000 0.000000 
#    y 0.000000 1.652440 0.000000 
#    z 0.000000 0.000000 1.551110 
# 
# From -- ./inp_files/29768.got.cif
#   From: 2010.05.17/outbox.cif.g08.bks.cpg/sg64_15_cif.got.tgz:29768.got - 2010.06.03 16:29:19.
