data_PCOD9477908
_publ_section_title
;
Structure prediction by ZEFSAII (Michael W. Deem and Ramdas Pophale) SiO2 
 PCOD9477908
Probable space group: C M C A
;
_chemical_formula_sum "Si O2"
_cell_formula_units_Z 88
_cell_length_a 13.912720
_cell_length_b 11.823566
_cell_length_c 27.683403
_cell_angle_alpha 90.000000
_cell_angle_beta 90.000000
_cell_angle_gamma 90.000000
_cell_volume 4553.863407
_symmetry_space_group_name_H-M "C M C A"
_symmetry_group_IT_number 64
_symmetry_cell_setting 'orthorhombic'
loop_
_space_group_symop_operation_xyz
x,y,z
-x,1/2-y,1/2+z
x,-y,-z
-x,1/2+y,1/2-z
-x,-y,-z
x,1/2+y,1/2-z
-x,y,z
x,1/2-y,1/2+z
1/2+x,1/2+y,z
1/2-x,-y,1/2+z
1/2+x,1/2-y,-z
1/2-x,y,1/2-z
1/2-x,1/2-y,-z
1/2+x,y,1/2-z
1/2-x,1/2+y,z
1/2+x,-y,1/2+z
loop_
_atom_site_type_symbol
_atom_site_label
_atom_site_fract_x
_atom_site_fract_y
_atom_site_fract_z
Si Si1 0.887608 0.525517 0.325615
Si Si2 0.608697 0.705641 0.675282
Si Si3 0.820795 0.975031 0.069803
Si Si4 0.250000 0.088016 0.750000
Si Si5 0.896439 0.907075 0.430574
Si Si6 0.646691 0.304602 0.991001
O O1 0.879967 0.660489 0.331556
O O2 0.845883 0.469896 0.374217
O O3 0.824744 0.486282 0.280528
O O4 0.000000 0.496879 0.319953
O O5 0.500000 0.684889 0.694043
O O6 0.687993 0.660795 0.712172
O O7 0.614442 0.645187 0.623197
O O8 0.705062 0.969677 0.060725
O O9 0.854777 0.094453 0.048054
O O10 0.872238 0.873070 0.040551
O O11 0.904054 0.803444 0.468136
O O12 0.000000 0.969906 0.432680
O O13 0.750000 0.250000 0.000000
#
# Coordination Sequence:
#
# PCOD9477908 Si02
#       6
#    16  16  16   8  16  16
#     4  11  23  38  59  86 113 148 193 238 285 341
#     4  10  21  37  58  84 112 147 189 231 284 343
#     4  10  19  36  57  85 115 148 189 235 283 334
#     4  12  22  40  60  82 114 150 190 240 288 334
#     4  10  19  35  58  83 113 152 189 225 280 343
#     4   9  19  34  57  83 114 150 186 230 278 336
#
# _framework density 19.324251
#
# number of rings (size 3 to 8) (size 9 to 14) (size 15 to 20)
#    0.000    1.818    3.636    1.091    0.000    0.727 
#    0.000    9.091    0.000    6.545    0.000    0.000 
#    0.000    0.000    0.000    0.000    0.000    0.000 
#
# Total GULP energy -245291.900120 kJ/mol
# GULP energy per Si atom -5574.815912 kJ/mol
# Density = 1.928027 g / cm^3
# Si number density = 19.324251 Si / 1000 Ang^3
#
#
#
# Elastic Constant Matrix: (Units=GPa)
#
#
# Indices 1 2 3 4 5 6 
#
# 1 93.0248 -4.9424 16.9056 0.0000 0.0000 0.0000
# 2 -4.9424 17.3758 -4.6483 0.0000 0.0000 0.0000
# 3 16.9056 -4.6483 82.3407 0.0000 0.0000 0.0000
# 4 0.0000 0.0000 0.0000 23.2063 0.0000 0.0000
# 5 0.0000 0.0000 0.0000 0.0000 -34.0225 0.0000
# 6 0.0000 0.0000 0.0000 0.0000 0.0000 21.0578
#
#
#
# Elastic Compliance Matrix: (Units=1/GPa)
#
#
# Indices 1 2 3 4 5 6 
#
# 1 0.011284 0.002629 -0.002168 0.000000 0.000000 0.000000
# 2 0.002629 0.059046 0.002793 0.000000 0.000000 0.000000
# 3 -0.002168 0.002793 0.012748 0.000000 0.000000 0.000000
# 4 0.000000 0.000000 0.000000 0.043092 0.000000 0.000000
# 5 0.000000 0.000000 0.000000 0.000000 -0.029392 0.000000
# 6 0.000000 0.000000 0.000000 0.000000 0.000000 0.047488
#
#
# Mechanical properties :
#
#
# Convention : Reuss Voigt Hill
#
# Bulk Modulus (GPa) = 11.16236 23.04123 17.10179
# Shear Modulus (GPa) = 29.82969 14.41007 22.11988
#
# Velocity S-wave (km/s) = 3.93318 2.73371 3.38697
# Velocity P-wave (km/s) = 5.13959 4.68120 4.91574
#
# Compressibility (1/GPa) = 0.08958683
#
# Stress axis : x y z
#
# Youngs Moduli (GPa) = 88.62452 16.93583 78.44660
#
# Poissons Ratio (x) = -0.04453 0.17009
# Poissons Ratio (y) = -0.23303 -0.21913
# Poissons Ratio (z) = 0.19216 -0.04731
#
# Static dielectric constant tensor:
#      x y z
#    x 1.703510 0.000000 0.000000 
#    y 0.000000 1.662130 0.000000 
#    z 0.000000 0.000000 1.752760 
# 
# From -- ./inp_files/52671.got.cif
#   From: 2010.05.17/outbox.cif.g08.bks.cpg/sg64_27_cif.got.tgz:52671.got - 2010.06.03 16:29:19.
