data_PCOD9477299
_publ_section_title
;
Structure prediction by ZEFSAII (Michael W. Deem and Ramdas Pophale) SiO2 
 PCOD9477299
Probable space group: C M C A
;
_chemical_formula_sum "Si O2"
_cell_formula_units_Z 96
_cell_length_a 8.966089
_cell_length_b 30.605163
_cell_length_c 20.905556
_cell_angle_alpha 90.000000
_cell_angle_beta 90.000000
_cell_angle_gamma 90.000000
_cell_volume 5736.664674
_symmetry_space_group_name_H-M "C M C A"
_symmetry_group_IT_number 64
_symmetry_cell_setting 'orthorhombic'
loop_
_space_group_symop_operation_xyz
x,y,z
-x,1/2-y,1/2+z
x,-y,-z
-x,1/2+y,1/2-z
-x,-y,-z
x,1/2+y,1/2-z
-x,y,z
x,1/2-y,1/2+z
1/2+x,1/2+y,z
1/2-x,-y,1/2+z
1/2+x,1/2-y,-z
1/2-x,y,1/2-z
1/2-x,1/2-y,-z
1/2+x,y,1/2-z
1/2-x,1/2+y,z
1/2+x,-y,1/2+z
loop_
_atom_site_type_symbol
_atom_site_label
_atom_site_fract_x
_atom_site_fract_y
_atom_site_fract_z
Si Si1 0.671517 0.119981 0.991176
Si Si2 0.677936 0.006166 0.686324
Si Si3 0.678944 0.537446 0.051010
Si Si4 0.821483 0.690869 0.685394
Si Si5 0.327738 0.401630 0.342377
Si Si6 0.178648 0.711199 0.540748
O O1 0.500000 0.128744 0.008833
O O2 0.672880 0.100481 0.919334
O O3 0.761361 0.165131 0.986393
O O4 0.743926 0.083151 0.035293
O O5 0.500000 0.009186 0.692626
O O6 0.750000 0.986395 0.750000
O O7 0.712549 0.979603 0.621963
O O8 0.746647 0.054423 0.678416
O O9 0.500000 0.542498 0.044616
O O10 0.724984 0.500000 0.000000
O O11 0.750000 0.710337 0.750000
O O12 0.758304 0.641591 0.679779
O O13 0.782029 0.712686 0.616838
O O14 0.000000 0.690191 0.691055
O O15 0.500000 0.400713 0.320332
O O16 0.250000 0.750000 0.500000
O O17 0.000000 0.712492 0.536298
#
# Coordination Sequence:
#
# PCOD9477299 Si02
#       6
#    16  16  16  16  16  16
#     4  10  20  33  54  81 107 137 176 221 265 313
#     4  11  22  34  49  70 102 141 179 222 267 314
#     4  10  20  35  54  75 103 140 181 220 262 312
#     4  10  20  33  51  76 107 141 173 211 260 317
#     4  10  19  31  48  73 105 139 174 212 258 313
#     4  10  21  37  58  82 110 141 177 219 268 321
#
# _framework density 16.734462000000001
#
# number of rings (size 3 to 8) (size 9 to 14) (size 15 to 20)
#    0.000    1.833    1.667    3.000    0.000    5.000 
#    0.000    0.000    0.000    1.000    0.000    7.000 
#    0.000    0.000    0.000    0.000    0.000    0.000 
#
# Total GULP energy -267949.121961 kJ/mol
# GULP energy per Si atom -5582.273374 kJ/mol
# Density = 1.669637 g / cm^3
# Si number density = 16.734462 Si / 1000 Ang^3
#
#
#
# Elastic Constant Matrix: (Units=GPa)
#
#
# Indices 1 2 3 4 5 6 
#
# 1 81.2459 49.2862 70.3237 0.0000 0.0000 0.0000
# 2 49.2862 87.6967 68.8639 0.0000 0.0000 0.0000
# 3 70.3237 68.8639 135.0386 0.0000 0.0000 0.0000
# 4 0.0000 0.0000 0.0000 18.0757 0.0000 0.0000
# 5 0.0000 0.0000 0.0000 0.0000 29.7028 0.0000
# 6 0.0000 0.0000 0.0000 0.0000 0.0000 29.2420
#
#
#
# Elastic Compliance Matrix: (Units=1/GPa)
#
#
# Indices 1 2 3 4 5 6 
#
# 1 0.024274 -0.006197 -0.009481 0.000000 0.000000 0.000000
# 2 -0.006197 0.020601 -0.007278 0.000000 0.000000 0.000000
# 3 -0.009481 -0.007278 0.016054 0.000000 0.000000 0.000000
# 4 0.000000 0.000000 0.000000 0.055323 0.000000 0.000000
# 5 0.000000 0.000000 0.000000 0.000000 0.033667 0.000000
# 6 0.000000 0.000000 0.000000 0.000000 0.000000 0.034197
#
#
# Mechanical properties :
#
#
# Convention : Reuss Voigt Hill
#
# Bulk Modulus (GPa) = 66.59342 75.65877 71.12610
# Shear Modulus (GPa) = 21.27344 23.10461 22.18902
#
# Velocity S-wave (km/s) = 3.56931 3.71975 3.64531
# Velocity P-wave (km/s) = 7.54103 7.98488 7.76613
#
# Compressibility (1/GPa) = 0.01501650
#
# Stress axis : x y z
#
# Youngs Moduli (GPa) = 41.19631 48.54065 62.28924
#
# Poissons Ratio (x) = 0.30083 0.59054
# Poissons Ratio (y) = 0.25531 0.45336
# Poissons Ratio (z) = 0.39057 0.35329
#
# Static dielectric constant tensor:
#      x y z
#    x 1.564500 0.000000 0.000000 
#    y 0.000000 1.520620 0.000000 
#    z 0.000000 0.000000 1.599770 
# 
# From -- ./inp_files/37031.got.cif
#   From: 2010.05.17/outbox.cif.g08.bks.cpg/sg64_19_cif.got.tgz:37031.got - 2010.06.03 16:29:19.
