data_PCOD9477841
_publ_section_title
;
Structure prediction by ZEFSAII (Michael W. Deem and Ramdas Pophale) SiO2 
 PCOD9477841
Probable space group: C M C A
;
_chemical_formula_sum "Si O2"
_cell_formula_units_Z 96
_cell_length_a 18.566798
_cell_length_b 16.178512
_cell_length_c 14.144740
_cell_angle_alpha 90.000000
_cell_angle_beta 90.000000
_cell_angle_gamma 90.000000
_cell_volume 4248.841759
_symmetry_space_group_name_H-M "C M C A"
_symmetry_group_IT_number 64
_symmetry_cell_setting 'orthorhombic'
loop_
_space_group_symop_operation_xyz
x,y,z
-x,1/2-y,1/2+z
x,-y,-z
-x,1/2+y,1/2-z
-x,-y,-z
x,1/2+y,1/2-z
-x,y,z
x,1/2-y,1/2+z
1/2+x,1/2+y,z
1/2-x,-y,1/2+z
1/2+x,1/2-y,-z
1/2-x,y,1/2-z
1/2-x,1/2-y,-z
1/2+x,y,1/2-z
1/2-x,1/2+y,z
1/2+x,-y,1/2+z
loop_
_atom_site_type_symbol
_atom_site_label
_atom_site_fract_x
_atom_site_fract_y
_atom_site_fract_z
Si Si1 0.281807 0.479214 0.109802
Si Si2 0.415113 0.763413 0.579155
Si Si3 0.583514 0.705666 0.300353
Si Si4 0.135197 0.978355 0.713928
Si Si5 0.416965 0.921571 0.057528
Si Si6 0.808927 0.800228 0.060477
O O1 0.211602 0.519247 0.158515
O O2 0.347534 0.506752 0.176594
O O3 0.275543 0.379695 0.111630
O O4 0.287529 0.500000 0.000000
O O5 0.500000 0.772603 0.560920
O O6 0.404814 0.770804 0.690865
O O7 0.390342 0.671398 0.546117
O O8 0.367604 0.826197 0.519011
O O9 0.500000 0.725362 0.326158
O O10 0.595428 0.607229 0.305961
O O11 0.644104 0.749387 0.363518
O O12 0.090934 0.052465 0.666387
O O13 0.500000 0.916804 0.029533
O O14 0.385745 0.000000 0.000000
O O15 0.750000 0.750000 0.000000
#
# Coordination Sequence:
#
# PCOD9477841 Si02
#       6
#    16  16  16  16  16  16
#     4  11  24  41  61  92 131 170 213 265 328 399
#     4  10  22  40  61  92 132 173 221 275 331 392
#     4  11  24  43  68  96 130 175 225 277 332 395
#     4  11  22  40  63  90 127 167 216 269 325 391
#     4  10  19  34  60  91 124 164 213 267 319 375
#     4  12  24  40  67  98 134 176 222 275 334 402
#
# _framework density 22.594393
#
# number of rings (size 3 to 8) (size 9 to 14) (size 15 to 20)
#    0.000    1.167    0.000    6.500    0.000    4.667 
#    0.000    2.500    0.000    6.000    0.000    0.000 
#    0.000    0.000    0.000    0.000    0.000    0.000 
#
# Total GULP energy -268295.896157 kJ/mol
# GULP energy per Si atom -5589.497837 kJ/mol
# Density = 2.254297 g / cm^3
# Si number density = 22.594393 Si / 1000 Ang^3
#
#
#
# Elastic Constant Matrix: (Units=GPa)
#
#
# Indices 1 2 3 4 5 6 
#
# 1 78.4304 5.6564 30.7944 0.0000 0.0000 0.0000
# 2 5.6564 46.8427 -7.9463 0.0000 0.0000 0.0000
# 3 30.7944 -7.9463 117.6052 0.0000 0.0000 0.0000
# 4 0.0000 0.0000 0.0000 38.3265 0.0000 0.0000
# 5 0.0000 0.0000 0.0000 0.0000 38.4743 0.0000
# 6 0.0000 0.0000 0.0000 0.0000 0.0000 22.8113
#
#
#
# Elastic Compliance Matrix: (Units=1/GPa)
#
#
# Indices 1 2 3 4 5 6 
#
# 1 0.014477 -0.002419 -0.003954 0.000000 0.000000 0.000000
# 2 -0.002419 0.022000 0.002120 0.000000 0.000000 0.000000
# 3 -0.003954 0.002120 0.009682 0.000000 0.000000 0.000000
# 4 0.000000 0.000000 0.000000 0.026092 0.000000 0.000000
# 5 0.000000 0.000000 0.000000 0.000000 0.025991 0.000000
# 6 0.000000 0.000000 0.000000 0.000000 0.000000 0.043838
#
#
# Mechanical properties :
#
#
# Convention : Reuss Voigt Hill
#
# Bulk Modulus (GPa) = 26.55904 33.32079 29.93991
# Shear Modulus (GPa) = 30.64913 34.21400 32.43157
#
# Velocity S-wave (km/s) = 3.68706 3.89558 3.79275
# Velocity P-wave (km/s) = 5.46864 5.91722 5.69735
#
# Compressibility (1/GPa) = 0.03765197
#
# Stress axis : x y z
#
# Youngs Moduli (GPa) = 69.07429 45.45510 103.28810
#
# Poissons Ratio (x) = 0.10995 0.40842
# Poissons Ratio (y) = 0.16709 -0.21896
# Poissons Ratio (z) = 0.27314 -0.09636
#
# Static dielectric constant tensor:
#      x y z
#    x 1.863710 0.000000 0.000000 
#    y 0.000000 1.839050 0.000000 
#    z 0.000000 0.000000 1.875250 
# 
# From -- ./inp_files/26340.got.cif
#   From: 2010.05.17/outbox.cif.g08.bks.cpg/sg64_14_cif.got.tgz:26340.got - 2010.06.03 16:29:19.
