data_PCOD9477172
_publ_section_title
;
Structure prediction by ZEFSAII (Michael W. Deem and Ramdas Pophale) SiO2 
 PCOD9477172
Probable space group: C M C A
;
_chemical_formula_sum "Si O2"
_cell_formula_units_Z 96
_cell_length_a 22.102234
_cell_length_b 13.462399
_cell_length_c 13.738574
_cell_angle_alpha 90.000000
_cell_angle_beta 90.000000
_cell_angle_gamma 90.000000
_cell_volume 4087.900231
_symmetry_space_group_name_H-M "C M C A"
_symmetry_group_IT_number 64
_symmetry_cell_setting 'orthorhombic'
loop_
_space_group_symop_operation_xyz
x,y,z
-x,1/2-y,1/2+z
x,-y,-z
-x,1/2+y,1/2-z
-x,-y,-z
x,1/2+y,1/2-z
-x,y,z
x,1/2-y,1/2+z
1/2+x,1/2+y,z
1/2-x,-y,1/2+z
1/2+x,1/2-y,-z
1/2-x,y,1/2-z
1/2-x,1/2-y,-z
1/2+x,y,1/2-z
1/2-x,1/2+y,z
1/2+x,-y,1/2+z
loop_
_atom_site_type_symbol
_atom_site_label
_atom_site_fract_x
_atom_site_fract_y
_atom_site_fract_z
Si Si1 0.409469 0.098500 0.601396
Si Si2 0.761389 0.690256 0.400394
Si Si3 0.614638 0.295205 0.395841
Si Si4 0.000000 0.835683 0.933730
Si Si5 0.299852 0.500000 0.000000
Si Si6 0.371413 0.307846 0.630144
Si Si7 0.569147 0.007967 0.798106
O O1 0.448380 0.111904 0.505018
O O2 0.406735 0.206307 0.652164
O O3 0.432445 0.021886 0.681469
O O4 0.343089 0.068033 0.566298
O O5 0.750000 0.750000 0.500000
O O6 0.825715 0.733206 0.365632
O O7 0.764902 0.574571 0.430057
O O8 0.699099 0.702841 0.342950
O O9 0.554149 0.230528 0.382232
O O10 0.621732 0.316018 0.512238
O O11 0.606634 0.401343 0.344233
O O12 0.400974 0.403998 0.676174
O O13 0.500000 0.011108 0.834651
#
# Coordination Sequence:
#
# PCOD9477172 Si02
#       7
#    16  16  16   8   8  16  16
#     4  11  25  45  65 101 142 182 231 286 350 428
#     4  10  21  42  71  99 129 183 235 288 335 427
#     4  10  21  41  70 102 134 179 233 288 355 423
#     4  10  18  43  65  96 137 177 227 286 336 425
#     4  12  22  43  74  96 131 186 238 276 356 418
#     4  10  24  44  68 100 139 180 233 293 343 421
#     4  12  26  41  70 107 142 183 231 296 367 416
#
# _framework density 23.483937999999998
#
# number of rings (size 3 to 8) (size 9 to 14) (size 15 to 20)
#    0.000    1.333    6.667    0.500    9.333    2.333 
#    0.000    5.000    0.000    0.000    0.000    0.000 
#    0.000    0.000    0.000    0.000    0.000    0.000 
#
# Total GULP energy -267596.969718 kJ/mol
# GULP energy per Si atom -5574.936869 kJ/mol
# Density = 2.343049 g / cm^3
# Si number density = 23.483938 Si / 1000 Ang^3
#
#
#
# Elastic Constant Matrix: (Units=GPa)
#
#
# Indices 1 2 3 4 5 6 
#
# 1 110.9658 20.2273 20.9668 0.0000 0.0000 0.0000
# 2 20.2273 130.4161 38.9599 0.0000 0.0000 0.0000
# 3 20.9668 38.9599 90.4998 0.0000 0.0000 0.0000
# 4 0.0000 0.0000 0.0000 34.2924 0.0000 0.0000
# 5 0.0000 0.0000 0.0000 0.0000 -3.9366 0.0000
# 6 0.0000 0.0000 0.0000 0.0000 0.0000 54.1312
#
#
#
# Elastic Compliance Matrix: (Units=1/GPa)
#
#
# Indices 1 2 3 4 5 6 
#
# 1 0.009523 -0.000939 -0.001802 0.000000 0.000000 0.000000
# 2 -0.000939 0.008892 -0.003610 0.000000 0.000000 0.000000
# 3 -0.001802 -0.003610 0.013022 0.000000 0.000000 0.000000
# 4 0.000000 0.000000 0.000000 0.029161 0.000000 0.000000
# 5 0.000000 0.000000 0.000000 0.000000 -0.254023 0.000000
# 6 0.000000 0.000000 0.000000 0.000000 0.000000 0.018474
#
#
# Mechanical properties :
#
#
# Convention : Reuss Voigt Hill
#
# Bulk Modulus (GPa) = 53.37858 54.68776 54.03317
# Shear Modulus (GPa) = -32.05046 33.67922 0.81438
#
# Velocity S-wave (km/s) = -3.69830 3.79111 0.58952
# Velocity P-wave (km/s) = 2.13133 6.51930 4.84994
#
# Compressibility (1/GPa) = 0.01873411
#
# Stress axis : x y z
#
# Youngs Moduli (GPa) = 105.00424 112.46146 76.79543
#
# Poissons Ratio (x) = 0.10556 0.13841
# Poissons Ratio (y) = 0.09856 0.27727
# Poissons Ratio (z) = 0.18925 0.40604
#
# Static dielectric constant tensor:
#      x y z
#    x 1.874850 0.000000 0.000000 
#    y 0.000000 1.952760 0.000000 
#    z 0.000000 0.000000 1.931230 
# 
# From -- ./inp_files/26387.got.cif
#   From: 2010.05.17/outbox.cif.g08.bks.cpg/sg64_14_cif.got.tgz:26387.got - 2010.06.03 16:29:19.
