data_PCOD9477287
_publ_section_title
;
Structure prediction by ZEFSAII (Michael W. Deem and Ramdas Pophale) SiO2 
 PCOD9477287
Probable space group: C M C A
;
_chemical_formula_sum "Si O2"
_cell_formula_units_Z 96
_cell_length_a 8.872869
_cell_length_b 32.602723
_cell_length_c 19.121125
_cell_angle_alpha 90.000000
_cell_angle_beta 90.000000
_cell_angle_gamma 90.000000
_cell_volume 5531.353117
_symmetry_space_group_name_H-M "C M C A"
_symmetry_group_IT_number 64
_symmetry_cell_setting 'orthorhombic'
loop_
_space_group_symop_operation_xyz
x,y,z
-x,1/2-y,1/2+z
x,-y,-z
-x,1/2+y,1/2-z
-x,-y,-z
x,1/2+y,1/2-z
-x,y,z
x,1/2-y,1/2+z
1/2+x,1/2+y,z
1/2-x,-y,1/2+z
1/2+x,1/2-y,-z
1/2-x,y,1/2-z
1/2-x,1/2-y,-z
1/2+x,y,1/2-z
1/2-x,1/2+y,z
1/2+x,-y,1/2+z
loop_
_atom_site_type_symbol
_atom_site_label
_atom_site_fract_x
_atom_site_fract_y
_atom_site_fract_z
Si Si1 0.174992 0.500707 0.915082
Si Si2 0.318942 0.084307 0.417337
Si Si3 0.181574 0.337391 0.327385
Si Si4 0.181599 0.414180 0.420065
Si Si5 0.681205 0.163850 0.327697
Si Si6 0.819154 0.253153 0.828198
O O1 0.249235 0.458316 0.890712
O O2 0.254567 0.542701 0.892443
O O3 0.000000 0.501684 0.896598
O O4 0.188144 0.500000 0.000000
O O5 0.500000 0.080419 0.415772
O O6 0.273595 0.090235 0.498497
O O7 0.276935 0.123943 0.372389
O O8 0.250000 0.340870 0.250000
O O9 0.231954 0.374980 0.375579
O O10 0.217265 0.292014 0.357768
O O11 0.000000 0.339098 0.321349
O O12 0.000000 0.415966 0.417990
O O13 0.500000 0.166669 0.323355
O O14 0.750000 0.159885 0.250000
O O15 0.746130 0.206064 0.360182
O O16 0.750000 0.251856 0.750000
O O17 0.000000 0.257722 0.824991
#
# Coordination Sequence:
#
# PCOD9477287 Si02
#       6
#    16  16  16  16  16  16
#     4   9  17  29  47  71  95 119 151 190 230 272
#     4   9  18  32  50  69  91 122 157 189 225 274
#     4   9  18  31  49  71  94 122 155 190 227 270
#     4   9  17  32  51  69  92 123 156 188 225 272
#     4  10  19  31  48  70  93 120 155 192 230 272
#     4   9  16  28  46  67  91 121 155 187 224 271
#
# _framework density 17.355608
#
# number of rings (size 3 to 8) (size 9 to 14) (size 15 to 20)
#    0.000    2.833    0.000    2.500    0.000    4.667 
#    0.000    1.667    0.000    0.000    0.000    0.000 
#    0.000    0.000    0.000    0.000    0.000    0.000 
#
# Total GULP energy -267347.302710 kJ/mol
# GULP energy per Si atom -5569.735473 kJ/mol
# Density = 1.731611 g / cm^3
# Si number density = 17.355608 Si / 1000 Ang^3
#
#
#
# Elastic Constant Matrix: (Units=GPa)
#
#
# Indices 1 2 3 4 5 6 
#
# 1 36.1153 57.0647 18.3228 0.0000 0.0000 0.0000
# 2 57.0647 224.5676 61.9828 0.0000 0.0000 0.0000
# 3 18.3228 61.9828 36.0859 0.0000 0.0000 0.0000
# 4 0.0000 0.0000 0.0000 33.1218 0.0000 0.0000
# 5 0.0000 0.0000 0.0000 0.0000 14.1307 0.0000
# 6 0.0000 0.0000 0.0000 0.0000 0.0000 20.2043
#
#
#
# Elastic Compliance Matrix: (Units=1/GPa)
#
#
# Indices 1 2 3 4 5 6 
#
# 1 0.047023 -0.010190 -0.006374 0.000000 0.000000 0.000000
# 2 -0.010190 0.010675 -0.013162 0.000000 0.000000 0.000000
# 3 -0.006374 -0.013162 0.053556 0.000000 0.000000 0.000000
# 4 0.000000 0.000000 0.000000 0.030192 0.000000 0.000000
# 5 0.000000 0.000000 0.000000 0.000000 0.070768 0.000000
# 6 0.000000 0.000000 0.000000 0.000000 0.000000 0.049494
#
#
# Mechanical properties :
#
#
# Convention : Reuss Voigt Hill
#
# Bulk Modulus (GPa) = 19.30395 63.50104 41.40250
# Shear Modulus (GPa) = 14.77416 24.11793 19.44605
#
# Velocity S-wave (km/s) = 2.92080 3.73182 3.35094
# Velocity P-wave (km/s) = 4.74569 7.43211 6.23530
#
# Compressibility (1/GPa) = 0.05180286
#
# Stress axis : x y z
#
# Youngs Moduli (GPa) = 21.26598 93.67439 18.67196
#
# Poissons Ratio (x) = 0.95453 0.11901
# Poissons Ratio (y) = 0.21670 0.24577
# Poissons Ratio (z) = 0.13555 1.23298
#
# Static dielectric constant tensor:
#      x y z
#    x 1.582490 0.000000 0.000000 
#    y 0.000000 1.624130 0.000000 
#    z 0.000000 0.000000 1.573500 
# 
# From -- ./inp_files/43210.got.cif
#   From: 2010.05.17/outbox.cif.g08.bks.cpg/sg64_22_cif.got.tgz:43210.got - 2010.06.03 16:29:19.
