data_PCOD9477583
_publ_section_title
;
Structure prediction by ZEFSAII (Michael W. Deem and Ramdas Pophale) SiO2 
 PCOD9477583
Probable space group: C M C A
;
_chemical_formula_sum "Si O2"
_cell_formula_units_Z 80
_cell_length_a 25.528235
_cell_length_b 33.157902
_cell_length_c 5.052987
_cell_angle_alpha 90.000000
_cell_angle_beta 90.000000
_cell_angle_gamma 90.000000
_cell_volume 4277.165092
_symmetry_space_group_name_H-M "C M C A"
_symmetry_group_IT_number 64
_symmetry_cell_setting 'orthorhombic'
loop_
_space_group_symop_operation_xyz
x,y,z
-x,1/2-y,1/2+z
x,-y,-z
-x,1/2+y,1/2-z
-x,-y,-z
x,1/2+y,1/2-z
-x,y,z
x,1/2-y,1/2+z
1/2+x,1/2+y,z
1/2-x,-y,1/2+z
1/2+x,1/2-y,-z
1/2-x,y,1/2-z
1/2-x,1/2-y,-z
1/2+x,y,1/2-z
1/2-x,1/2+y,z
1/2+x,-y,1/2+z
loop_
_atom_site_type_symbol
_atom_site_label
_atom_site_fract_x
_atom_site_fract_y
_atom_site_fract_z
Si Si1 0.286096 0.452072 0.998520
Si Si2 0.500000 0.340571 0.377461
Si Si3 0.687406 0.225293 0.752852
Si Si4 0.500000 0.104580 0.373496
Si Si5 0.887453 0.397058 0.509630
Si Si6 0.112344 0.841178 0.486891
O O1 0.250000 0.442149 0.250000
O O2 0.297081 0.500000 0.000000
O O3 0.250000 0.442602 0.750000
O O4 0.339387 0.427340 0.978901
O O5 0.500000 0.379170 0.574966
O O6 0.555217 0.320090 0.449958
O O7 0.500000 0.356721 0.076183
O O8 0.674317 0.237788 0.453109
O O9 0.750000 0.218597 0.750000
O O10 0.657302 0.187850 0.878850
O O11 0.444484 0.083937 0.428460
O O12 0.889321 0.378326 0.217969
O O13 0.880988 0.360480 0.722962
#
# Coordination Sequence:
#
# PCOD9477583 Si02
#       6
#    16   8  16   8  16  16
#     4  10  21  36  52  74 108 141 166 204 257 300
#     4   8  16  30  48  73 101 126 155 204 261 296
#     4  10  21  36  50  68  99 134 164 203 256 300
#     4   8  16  30  49  73 102 130 159 206 259 294
#     4  10  19  33  54  78 101 131 172 211 248 299
#     4  10  19  33  54  76  99 129 169 210 248 300
#
# _framework density 18.703977999999999
#
# number of rings (size 3 to 8) (size 9 to 14) (size 15 to 20)
#    0.000    2.400    0.000    2.400    0.000    2.400 
#    0.000    1.500    0.000    0.000    0.000   12.600 
#    0.000    0.000    0.000    0.000    0.000    0.000 
#
# Total GULP energy -222900.532463 kJ/mol
# GULP energy per Si atom -5572.513312 kJ/mol
# Density = 1.866141 g / cm^3
# Si number density = 18.703978 Si / 1000 Ang^3
#
#
#
# Elastic Constant Matrix: (Units=GPa)
#
#
# Indices 1 2 3 4 5 6 
#
# 1 127.8860 47.9905 20.3232 0.0000 0.0000 0.0000
# 2 47.9905 25.6948 7.1548 0.0000 0.0000 0.0000
# 3 20.3232 7.1548 99.0824 0.0000 0.0000 0.0000
# 4 0.0000 0.0000 0.0000 27.7415 0.0000 0.0000
# 5 0.0000 0.0000 0.0000 0.0000 31.5119 0.0000
# 6 0.0000 0.0000 0.0000 0.0000 0.0000 -31.2662
#
#
#
# Elastic Compliance Matrix: (Units=1/GPa)
#
#
# Indices 1 2 3 4 5 6 
#
# 1 0.026487 -0.048941 -0.001899 0.000000 0.000000 0.000000
# 2 -0.048941 0.130147 0.000640 0.000000 0.000000 0.000000
# 3 -0.001899 0.000640 0.010436 0.000000 0.000000 0.000000
# 4 0.000000 0.000000 0.000000 0.036047 0.000000 0.000000
# 5 0.000000 0.000000 0.000000 0.000000 0.031734 0.000000
# 6 0.000000 0.000000 0.000000 0.000000 0.000000 -0.031983
#
#
# Mechanical properties :
#
#
# Convention : Reuss Voigt Hill
#
# Bulk Modulus (GPa) = 14.99893 44.84447 29.92170
# Shear Modulus (GPa) = 15.36151 17.41043 16.38597
#
# Velocity S-wave (km/s) = 2.86894 3.05428 2.96306
# Velocity P-wave (km/s) = 4.36015 6.03872 5.26674
#
# Compressibility (1/GPa) = 0.06667142
#
# Stress axis : x y z
#
# Youngs Moduli (GPa) = 37.75484 7.68362 95.82375
#
# Poissons Ratio (x) = 0.37604 0.18195
# Poissons Ratio (y) = 1.84775 -0.06137
# Poissons Ratio (z) = 0.07169 -0.00492
#
# Static dielectric constant tensor:
#      x y z
#    x 1.690930 0.000000 0.000000 
#    y 0.000000 1.608930 0.000000 
#    z 0.000000 0.000000 1.636320 
# 
# From -- ./inp_files/2371.got.cif
#   From: 2010.05.17/outbox.cif.g08.bks.cpg/sg64_2_cif.got.tgz:2371.got - 2010.06.03 16:29:19.
