data_PCOD9477787
_publ_section_title
;
Structure prediction by ZEFSAII (Michael W. Deem and Ramdas Pophale) SiO2 
 PCOD9477787
Probable space group: C M C A
;
_chemical_formula_sum "Si O2"
_cell_formula_units_Z 80
_cell_length_a 7.671789
_cell_length_b 15.770144
_cell_length_c 29.063510
_cell_angle_alpha 90.000000
_cell_angle_beta 90.000000
_cell_angle_gamma 90.000000
_cell_volume 3516.255072
_symmetry_space_group_name_H-M "C M C A"
_symmetry_group_IT_number 64
_symmetry_cell_setting 'orthorhombic'
loop_
_space_group_symop_operation_xyz
x,y,z
-x,1/2-y,1/2+z
x,-y,-z
-x,1/2+y,1/2-z
-x,-y,-z
x,1/2+y,1/2-z
-x,y,z
x,1/2-y,1/2+z
1/2+x,1/2+y,z
1/2-x,-y,1/2+z
1/2+x,1/2-y,-z
1/2-x,y,1/2-z
1/2-x,1/2-y,-z
1/2+x,y,1/2-z
1/2-x,1/2+y,z
1/2+x,-y,1/2+z
loop_
_atom_site_type_symbol
_atom_site_label
_atom_site_fract_x
_atom_site_fract_y
_atom_site_fract_z
Si Si1 0.792408 0.063085 0.800573
Si Si2 0.799866 0.386221 0.102288
Si Si3 0.291407 0.133090 0.300746
Si Si4 0.785420 0.701528 0.398590
Si Si5 0.299650 0.458160 0.954603
O O1 0.750000 0.096598 0.750000
O O2 0.708546 0.112729 0.842509
O O3 0.000000 0.063680 0.807000
O O4 0.728776 0.964957 0.802267
O O5 0.730241 0.295264 0.086519
O O6 0.702225 0.468194 0.083573
O O7 0.000000 0.394968 0.087562
O O8 0.500000 0.130028 0.303975
O O9 0.250000 0.168049 0.250000
O O10 0.227871 0.180758 0.346323
O O11 0.724291 0.626628 0.432133
O O12 0.000000 0.701447 0.398211
O O13 0.500000 0.436740 0.966512
O O14 0.218221 0.500000 0.000000
#
# Coordination Sequence:
#
# PCOD9477787 Si02
#       5
#    16  16  16  16  16
#     4  10  19  34  57  83 116 155 196 233 276 335
#     4  11  22  36  58  86 119 151 186 235 289 339
#     4   9  17  32  54  77 109 148 187 225 269 326
#     4   9  19  37  57  82 115 151 185 231 287 339
#     4  10  21  41  65  83 108 150 194 237 291 350
#
# _framework density 22.751480000000001
#
# number of rings (size 3 to 8) (size 9 to 14) (size 15 to 20)
#    0.000    2.200    2.000    1.200    0.000    2.800 
#    0.000    6.000    0.000    0.000    0.000    0.000 
#    0.000    0.000    0.000    0.000    0.000    0.000 
#
# Total GULP energy -223433.361007 kJ/mol
# GULP energy per Si atom -5585.834025 kJ/mol
# Density = 2.269970 g / cm^3
# Si number density = 22.751480 Si / 1000 Ang^3
#
#
#
# Elastic Constant Matrix: (Units=GPa)
#
#
# Indices 1 2 3 4 5 6 
#
# 1 48.4309 -1.1948 -8.5785 0.0000 0.0000 0.0000
# 2 -1.1948 75.0796 -16.2552 0.0000 0.0000 0.0000
# 3 -8.5785 -16.2552 44.1153 0.0000 0.0000 0.0000
# 4 0.0000 0.0000 0.0000 -9.5150 0.0000 0.0000
# 5 0.0000 0.0000 0.0000 0.0000 14.5629 0.0000
# 6 0.0000 0.0000 0.0000 0.0000 0.0000 -3.9851
#
#
#
# Elastic Compliance Matrix: (Units=1/GPa)
#
#
# Indices 1 2 3 4 5 6 
#
# 1 0.021511 0.001356 0.004683 0.000000 0.000000 0.000000
# 2 0.001356 0.014559 0.005628 0.000000 0.000000 0.000000
# 3 0.004683 0.005628 0.025652 0.000000 0.000000 0.000000
# 4 0.000000 0.000000 0.000000 -0.105097 0.000000 0.000000
# 5 0.000000 0.000000 0.000000 0.000000 0.068668 0.000000
# 6 0.000000 0.000000 0.000000 0.000000 0.000000 -0.250937
#
#
# Mechanical properties :
#
#
# Convention : Reuss Voigt Hill
#
# Bulk Modulus (GPa) = 11.75685 12.84099 12.29892
# Shear Modulus (GPa) = -22.66278 13.12285 -4.76996
#
# Velocity S-wave (km/s) = -3.15953 2.40425 -1.44952
# Velocity P-wave (km/s) = 2.85157 3.65561 1.61742
#
# Compressibility (1/GPa) = 0.08505683
#
# Stress axis : x y z
#
# Youngs Moduli (GPa) = 46.48820 68.68431 38.98279
#
# Poissons Ratio (x) = -0.09314 -0.18254
# Poissons Ratio (y) = -0.06304 -0.21941
# Poissons Ratio (z) = -0.21769 -0.38658
#
# Static dielectric constant tensor:
#      x y z
#    x 1.875710 0.000000 0.000000 
#    y 0.000000 1.849330 0.000000 
#    z 0.000000 0.000000 1.859280 
# 
# From -- ./inp_files/47853.got.cif
#   From: 2010.05.17/outbox.cif.g08.bks.cpg/sg64_24_cif.got.tgz:47853.got - 2010.06.03 16:29:19.
