data_PCOD9477142
_publ_section_title
;
Structure prediction by ZEFSAII (Michael W. Deem and Ramdas Pophale) SiO2 
 PCOD9477142
Probable space group: C M C A
;
_chemical_formula_sum "Si O2"
_cell_formula_units_Z 88
_cell_length_a 24.686402
_cell_length_b 8.977769
_cell_length_c 20.015569
_cell_angle_alpha 90.000000
_cell_angle_beta 90.000000
_cell_angle_gamma 90.000000
_cell_volume 4436.026831
_symmetry_space_group_name_H-M "C M C A"
_symmetry_group_IT_number 64
_symmetry_cell_setting 'orthorhombic'
loop_
_space_group_symop_operation_xyz
x,y,z
-x,1/2-y,1/2+z
x,-y,-z
-x,1/2+y,1/2-z
-x,-y,-z
x,1/2+y,1/2-z
-x,y,z
x,1/2-y,1/2+z
1/2+x,1/2+y,z
1/2-x,-y,1/2+z
1/2+x,1/2-y,-z
1/2-x,y,1/2-z
1/2-x,1/2-y,-z
1/2+x,y,1/2-z
1/2-x,1/2+y,z
1/2+x,-y,1/2+z
loop_
_atom_site_type_symbol
_atom_site_label
_atom_site_fract_x
_atom_site_fract_y
_atom_site_fract_z
Si Si1 0.000000 0.894227 0.745744
Si Si2 0.311402 0.121316 0.770554
Si Si3 0.618178 0.836988 0.814778
Si Si4 0.693741 0.217937 0.919935
Si Si5 0.000000 0.836556 0.338203
Si Si6 0.225967 0.500000 0.500000
Si Si7 0.909792 0.022833 0.570692
O O1 0.057209 0.836842 0.715017
O O2 0.000000 0.835779 0.821006
O O3 0.000000 0.069345 0.730750
O O4 0.250000 0.083405 0.750000
O O5 0.345342 0.202759 0.712233
O O6 0.306022 0.218361 0.839015
O O7 0.347410 0.979661 0.790188
O O8 0.610250 0.871150 0.893394
O O9 0.696366 0.381393 0.951978
O O10 0.640108 0.131265 0.941456
O O11 0.740083 0.109926 0.950721
O O12 0.051437 0.893651 0.377984
O O13 0.937295 0.000000 0.500000
#
# Coordination Sequence:
#
# PCOD9477142 Si02
#       7
#     8  16  16  16   8   8  16
#     4  10  18  38  60  88 117 148 201 244 290 356
#     4  11  24  37  57  90 125 156 198 251 304 362
#     4  10  22  37  59  89 116 159 197 247 306 345
#     4  10  22  38  59  84 118 158 203 242 298 356
#     4  10  21  36  66  89 117 153 192 246 302 346
#     4  10  22  38  60  84 114 168 198 242 300 354
#     4  10  20  38  61  87 116 154 200 244 292 363
#
# _framework density 19.837572000000002
#
# number of rings (size 3 to 8) (size 9 to 14) (size 15 to 20)
#    0.000    1.818    0.909    4.091    7.636    0.000 
#    0.000    0.000    4.000    0.545    0.000    0.000 
#    0.000    0.000    0.000    0.000    0.000    0.000 
#
# Total GULP energy -245257.811947 kJ/mol
# GULP energy per Si atom -5574.041181 kJ/mol
# Density = 1.979242 g / cm^3
# Si number density = 19.837572 Si / 1000 Ang^3
#
#
#
# Elastic Constant Matrix: (Units=GPa)
#
#
# Indices 1 2 3 4 5 6 
#
# 1 103.1132 -2.9353 11.8303 0.0000 0.0000 0.0000
# 2 -2.9353 28.3715 18.2188 0.0000 0.0000 0.0000
# 3 11.8303 18.2188 94.2833 0.0000 0.0000 0.0000
# 4 0.0000 0.0000 0.0000 26.8629 0.0000 0.0000
# 5 0.0000 0.0000 0.0000 0.0000 15.9153 0.0000
# 6 0.0000 0.0000 0.0000 0.0000 0.0000 20.4739
#
#
#
# Elastic Compliance Matrix: (Units=1/GPa)
#
#
# Indices 1 2 3 4 5 6 
#
# 1 0.009947 0.002090 -0.001652 0.000000 0.000000 0.000000
# 2 0.002090 0.040679 -0.008123 0.000000 0.000000 0.000000
# 3 -0.001652 -0.008123 0.012383 0.000000 0.000000 0.000000
# 4 0.000000 0.000000 0.000000 0.037226 0.000000 0.000000
# 5 0.000000 0.000000 0.000000 0.000000 0.062833 0.000000
# 6 0.000000 0.000000 0.000000 0.000000 0.000000 0.048843
#
#
# Mechanical properties :
#
#
# Convention : Reuss Voigt Hill
#
# Bulk Modulus (GPa) = 20.99096 31.11064 26.05080
# Shear Modulus (GPa) = 20.56258 25.89403 23.22831
#
# Velocity S-wave (km/s) = 3.22304 3.61682 3.42559
# Velocity P-wave (km/s) = 4.94520 5.75835 5.36719
#
# Compressibility (1/GPa) = 0.04763956
#
# Stress axis : x y z
#
# Youngs Moduli (GPa) = 100.53180 24.58275 80.75445
#
# Poissons Ratio (x) = -0.05138 0.13340
# Poissons Ratio (y) = -0.21010 0.65595
# Poissons Ratio (z) = 0.16608 0.19968
#
# Static dielectric constant tensor:
#      x y z
#    x 1.710170 0.000000 0.000000 
#    y 0.000000 1.705860 0.000000 
#    z 0.000000 0.000000 1.762480 
# 
# From -- ./inp_files/41398.got.cif
#   From: 2010.05.17/outbox.cif.g08.bks.cpg/sg64_21_cif.got.tgz:41398.got - 2010.06.03 16:29:19.
