data_PCOD9477113
_publ_section_title
;
Structure prediction by ZEFSAII (Michael W. Deem and Ramdas Pophale) SiO2 
 PCOD9477113
Probable space group: C M C A
;
_chemical_formula_sum "Si O2"
_cell_formula_units_Z 72
_cell_length_a 17.150834
_cell_length_b 23.810722
_cell_length_c 9.333538
_cell_angle_alpha 90.000000
_cell_angle_beta 90.000000
_cell_angle_gamma 90.000000
_cell_volume 3811.571825
_symmetry_space_group_name_H-M "C M C A"
_symmetry_group_IT_number 64
_symmetry_cell_setting 'orthorhombic'
loop_
_space_group_symop_operation_xyz
x,y,z
-x,1/2-y,1/2+z
x,-y,-z
-x,1/2+y,1/2-z
-x,-y,-z
x,1/2+y,1/2-z
-x,y,z
x,1/2-y,1/2+z
1/2+x,1/2+y,z
1/2-x,-y,1/2+z
1/2+x,1/2-y,-z
1/2-x,y,1/2-z
1/2-x,1/2-y,-z
1/2+x,y,1/2-z
1/2-x,1/2+y,z
1/2+x,-y,1/2+z
loop_
_atom_site_type_symbol
_atom_site_label
_atom_site_fract_x
_atom_site_fract_y
_atom_site_fract_z
Si Si1 0.359338 0.654712 0.640208
Si Si2 0.000000 0.993977 0.747611
Si Si3 0.125838 0.000000 0.000000
Si Si4 0.500000 0.407958 0.492851
Si Si5 0.316740 0.120875 0.553228
Si Si6 0.307235 0.775589 0.619864
O O1 0.424182 0.629931 0.536315
O O2 0.364455 0.630076 0.800251
O O3 0.273498 0.635810 0.586410
O O4 0.361566 0.722383 0.654306
O O5 0.072752 0.997164 0.856838
O O6 0.000000 0.938804 0.646296
O O7 0.000000 0.044641 0.632717
O O8 0.174708 0.057181 0.994948
O O9 0.344483 0.167658 0.439722
O O10 0.250000 0.789150 0.750000
O O11 0.250000 0.750000 0.500000
#
# Coordination Sequence:
#
# PCOD9477113 Si02
#       6
#    16   8   8   8  16  16
#     4  10  20  40  62  91 121 162 203 256 315 362
#     4  10  24  40  60  86 129 167 199 245 323 373
#     4  11  22  42  62  91 122 166 208 257 308 372
#     4  11  22  42  62  86 125 168 199 252 316 374
#     4  10  21  38  65  90 122 159 210 256 305 364
#     4  10  18  36  63  88 118 154 197 253 310 355
#
# _framework density 18.889845000000001
#
# number of rings (size 3 to 8) (size 9 to 14) (size 15 to 20)
#    0.000    1.778    6.667    0.000    0.000    5.333 
#    4.000    3.333    0.000    0.000    0.000    0.000 
#    0.000    0.000    0.000    0.000    0.000    0.000 
#
# Total GULP energy -200712.019318 kJ/mol
# GULP energy per Si atom -5575.333870 kJ/mol
# Density = 1.884685 g / cm^3
# Si number density = 18.889845 Si / 1000 Ang^3
#
#
#
# Elastic Constant Matrix: (Units=GPa)
#
#
# Indices 1 2 3 4 5 6 
#
# 1 42.9355 28.3746 13.5057 0.0000 0.0000 0.0000
# 2 28.3746 181.5348 38.7058 0.0000 0.0000 0.0000
# 3 13.5057 38.7058 89.9750 0.0000 0.0000 0.0000
# 4 0.0000 0.0000 0.0000 36.6034 0.0000 0.0000
# 5 0.0000 0.0000 0.0000 0.0000 8.6577 0.0000
# 6 0.0000 0.0000 0.0000 0.0000 0.0000 11.4086
#
#
#
# Elastic Compliance Matrix: (Units=1/GPa)
#
#
# Indices 1 2 3 4 5 6 
#
# 1 0.026441 -0.003618 -0.002412 0.000000 0.000000 0.000000
# 2 -0.003618 0.006560 -0.002279 0.000000 0.000000 0.000000
# 3 -0.002412 -0.002279 0.012457 0.000000 0.000000 0.000000
# 4 0.000000 0.000000 0.000000 0.027320 0.000000 0.000000
# 5 0.000000 0.000000 0.000000 0.000000 0.115504 0.000000
# 6 0.000000 0.000000 0.000000 0.000000 0.000000 0.087654
#
#
# Mechanical properties :
#
#
# Convention : Reuss Voigt Hill
#
# Bulk Modulus (GPa) = 34.67616 52.84638 43.76127
# Shear Modulus (GPa) = 16.54714 26.92456 21.73585
#
# Velocity S-wave (km/s) = 2.96291 3.77947 3.39582
# Velocity P-wave (km/s) = 5.48653 6.86168 6.21227
#
# Compressibility (1/GPa) = 0.02883826
#
# Stress axis : x y z
#
# Youngs Moduli (GPa) = 37.82022 152.43775 80.27856
#
# Poissons Ratio (x) = 0.55159 0.19366
# Poissons Ratio (y) = 0.13685 0.18294
# Poissons Ratio (z) = 0.09123 0.34739
#
# Static dielectric constant tensor:
#      x y z
#    x 1.634660 0.000000 0.000000 
#    y 0.000000 1.684550 0.000000 
#    z 0.000000 0.000000 1.668450 
# 
# From -- ./inp_files/6918.got.cif
#   From: 2010.05.17/outbox.cif.g08.bks.cpg/sg64_4_cif.got.tgz:6918.got - 2010.06.03 16:29:19.
