data_PCOD9477198
_publ_section_title
;
Structure prediction by ZEFSAII (Michael W. Deem and Ramdas Pophale) SiO2 
 PCOD9477198
Probable space group: C M C A
;
_chemical_formula_sum "Si O2"
_cell_formula_units_Z 96
_cell_length_a 7.678419
_cell_length_b 26.150425
_cell_length_c 24.516526
_cell_angle_alpha 90.000000
_cell_angle_beta 90.000000
_cell_angle_gamma 90.000000
_cell_volume 4922.769365
_symmetry_space_group_name_H-M "C M C A"
_symmetry_group_IT_number 64
_symmetry_cell_setting 'orthorhombic'
loop_
_space_group_symop_operation_xyz
x,y,z
-x,1/2-y,1/2+z
x,-y,-z
-x,1/2+y,1/2-z
-x,-y,-z
x,1/2+y,1/2-z
-x,y,z
x,1/2-y,1/2+z
1/2+x,1/2+y,z
1/2-x,-y,1/2+z
1/2+x,1/2-y,-z
1/2-x,y,1/2-z
1/2-x,1/2-y,-z
1/2+x,y,1/2-z
1/2-x,1/2+y,z
1/2+x,-y,1/2+z
loop_
_atom_site_type_symbol
_atom_site_label
_atom_site_fract_x
_atom_site_fract_y
_atom_site_fract_z
Si Si1 0.713463 0.901204 0.881353
Si Si2 0.209205 0.000113 0.313585
Si Si3 0.787170 0.940253 0.501288
Si Si4 0.790565 0.805931 0.687840
Si Si5 0.793331 0.190439 0.811868
Si Si6 0.207489 0.905025 0.384387
O O1 0.500000 0.900654 0.881231
O O2 0.770255 0.948276 0.843115
O O3 0.769540 0.913118 0.942983
O O4 0.772998 0.847997 0.854952
O O5 0.250000 0.998865 0.250000
O O6 0.000000 0.999961 0.318548
O O7 0.276803 0.950233 0.345437
O O8 0.726948 0.912776 0.445924
O O9 0.000000 0.939949 0.502170
O O10 0.735777 0.000000 0.500000
O O11 0.750000 0.821727 0.750000
O O12 0.722091 0.748061 0.680286
O O13 0.000000 0.804031 0.683071
O O14 0.750000 0.173793 0.750000
O O15 0.736174 0.149195 0.855998
O O16 0.000000 0.193601 0.815226
O O17 0.000000 0.912329 0.387699
#
# Coordination Sequence:
#
# PCOD9477198 Si02
#       6
#    16  16  16  16  16  16
#     4   9  16  29  49  72  97 124 160 204 244 284
#     4  10  19  29  45  71  99 123 152 196 247 293
#     4   9  15  28  50  74  98 128 166 204 238 283
#     4   9  18  32  51  73  97 128 163 201 247 293
#     4  10  20  34  51  71  98 131 165 201 243 292
#     4  10  19  31  50  75  99 127 164 202 243 288
#
# _framework density 19.501217
#
# number of rings (size 3 to 8) (size 9 to 14) (size 15 to 20)
#    0.000    2.500    1.667    1.500    0.000    2.667 
#    0.000    0.833    0.000    2.500    0.000    0.000 
#    0.000    0.000    0.000    0.000    0.000    0.000 
#
# Total GULP energy -267880.156515 kJ/mol
# GULP energy per Si atom -5580.836594 kJ/mol
# Density = 1.945683 g / cm^3
# Si number density = 19.501217 Si / 1000 Ang^3
#
#
#
# Elastic Constant Matrix: (Units=GPa)
#
#
# Indices 1 2 3 4 5 6 
#
# 1 31.1534 1.3805 1.0365 0.0000 0.0000 0.0000
# 2 1.3805 131.3391 116.6962 0.0000 0.0000 0.0000
# 3 1.0365 116.6962 212.0948 0.0000 0.0000 0.0000
# 4 0.0000 0.0000 0.0000 27.3729 0.0000 0.0000
# 5 0.0000 0.0000 0.0000 0.0000 15.3884 0.0000
# 6 0.0000 0.0000 0.0000 0.0000 0.0000 -0.0148
#
#
#
# Elastic Compliance Matrix: (Units=1/GPa)
#
#
# Indices 1 2 3 4 5 6 
#
# 1 0.032115 -0.000388 0.000056 0.000000 0.000000 0.000000
# 2 -0.000388 0.014901 -0.008197 0.000000 0.000000 0.000000
# 3 0.000056 -0.008197 0.009224 0.000000 0.000000 0.000000
# 4 0.000000 0.000000 0.000000 0.036532 0.000000 0.000000
# 5 0.000000 0.000000 0.000000 0.000000 0.064984 0.000000
# 6 0.000000 0.000000 0.000000 0.000000 0.000000-67.509222
#
#
# Mechanical properties :
#
#
# Convention : Reuss Voigt Hill
#
# Bulk Modulus (GPa) = 25.52065 68.09043 46.80554
# Shear Modulus (GPa) = -0.07427 25.58091 12.75332
#
# Velocity S-wave (km/s) = -0.19537 3.62575 2.56007
# Velocity P-wave (km/s) = 3.61445 7.24706 5.72643
#
# Compressibility (1/GPa) = 0.03918396
#
# Stress axis : x y z
#
# Youngs Moduli (GPa) = 31.13852 67.11086 108.40778
#
# Poissons Ratio (x) = 0.02601 -0.00610
# Poissons Ratio (y) = 0.01207 0.88858
# Poissons Ratio (z) = -0.00175 0.55008
#
# Static dielectric constant tensor:
#      x y z
#    x 1.733500 0.000000 0.000000 
#    y 0.000000 1.688980 0.000000 
#    z 0.000000 0.000000 1.648490 
# 
# From -- ./inp_files/36952.got.cif
#   From: 2010.05.17/outbox.cif.g08.bks.cpg/sg64_19_cif.got.tgz:36952.got - 2010.06.03 16:29:19.
