data_PCOD9477365
_publ_section_title
;
Structure prediction by ZEFSAII (Michael W. Deem and Ramdas Pophale) SiO2 
 PCOD9477365
Probable space group: C M C A
;
_chemical_formula_sum "Si O2"
_cell_formula_units_Z 128
_cell_length_a 25.947520
_cell_length_b 22.264571
_cell_length_c 12.765788
_cell_angle_alpha 90.000000
_cell_angle_beta 90.000000
_cell_angle_gamma 90.000000
_cell_volume 7374.928509
_symmetry_space_group_name_H-M "C M C A"
_symmetry_group_IT_number 64
_symmetry_cell_setting 'orthorhombic'
loop_
_space_group_symop_operation_xyz
x,y,z
-x,1/2-y,1/2+z
x,-y,-z
-x,1/2+y,1/2-z
-x,-y,-z
x,1/2+y,1/2-z
-x,y,z
x,1/2-y,1/2+z
1/2+x,1/2+y,z
1/2-x,-y,1/2+z
1/2+x,1/2-y,-z
1/2-x,y,1/2-z
1/2-x,1/2-y,-z
1/2+x,y,1/2-z
1/2-x,1/2+y,z
1/2+x,-y,1/2+z
loop_
_atom_site_type_symbol
_atom_site_label
_atom_site_fract_x
_atom_site_fract_y
_atom_site_fract_z
Si Si1 0.637288 0.673689 0.692598
Si Si2 0.691061 0.933445 0.718131
Si Si3 0.195391 0.573599 0.691860
Si Si4 0.292281 0.177373 0.994499
Si Si5 0.820690 0.352554 0.519528
Si Si6 0.146234 0.564984 0.053442
Si Si7 0.439552 0.156357 0.993716
Si Si8 0.623568 0.254368 0.096706
O O1 0.653036 0.608401 0.737991
O O2 0.685313 0.694893 0.619650
O O3 0.588348 0.670529 0.616628
O O4 0.626314 0.717042 0.789303
O O5 0.750000 0.918128 0.750000
O O6 0.673321 0.888286 0.627294
O O7 0.657638 0.934427 0.823434
O O8 0.690520 0.002437 0.680673
O O9 0.250000 0.585534 0.750000
O O10 0.189727 0.602816 0.577811
O O11 0.232775 0.184719 0.018743
O O12 0.309015 0.107268 0.004195
O O13 0.327593 0.210677 0.079282
O O14 0.866748 0.308306 0.486318
O O15 0.148118 0.500000 0.000000
O O16 0.092228 0.598336 0.032877
O O17 0.500000 0.147322 0.986454
O O18 0.424674 0.212779 0.068020
#
# Coordination Sequence:
#
# PCOD9477365 Si02
#       8
#    16  16  16  16  16  16  16  16
#     4   9  18  36  55  79 105 145 189 230 278 335
#     4  11  21  30  50  81 115 156 184 222 270 330
#     4  10  19  31  53  77 114 157 189 218 261 332
#     4  10  19  33  50  76 112 152 186 222 265 332
#     4  11  20  33  47  80 114 153 197 216 262 331
#     4  10  21  36  56  81 117 146 185 233 280 338
#     4  10  23  42  61  81 104 139 193 252 299 333
#     4   9  21  34  53  77 108 140 183 239 283 335
#
# _framework density 17.356100000000001
#
# number of rings (size 3 to 8) (size 9 to 14) (size 15 to 20)
#    0.000    2.250    2.500    2.250    1.750    4.750 
#    0.000    0.000    0.000    0.000    0.000    0.000 
#    0.000    7.000    0.000    0.000    0.000    0.000 
#
# Total GULP energy -356961.420764 kJ/mol
# GULP energy per Si atom -5577.522199 kJ/mol
# Density = 1.731660 g / cm^3
# Si number density = 17.356100 Si / 1000 Ang^3
#
#
#
# Elastic Constant Matrix: (Units=GPa)
#
#
# Indices 1 2 3 4 5 6 
#
# 1 70.4857 22.2575 24.3459 0.0000 0.0000 0.0000
# 2 22.2575 88.1464 45.6603 0.0000 0.0000 0.0000
# 3 24.3459 45.6603 106.6024 0.0000 0.0000 0.0000
# 4 0.0000 0.0000 0.0000 26.4381 0.0000 0.0000
# 5 0.0000 0.0000 0.0000 0.0000 10.1217 0.0000
# 6 0.0000 0.0000 0.0000 0.0000 0.0000 14.8967
#
#
#
# Elastic Compliance Matrix: (Units=1/GPa)
#
#
# Indices 1 2 3 4 5 6 
#
# 1 0.015902 -0.002743 -0.002457 0.000000 0.000000 0.000000
# 2 -0.002743 0.015053 -0.005821 0.000000 0.000000 0.000000
# 3 -0.002457 -0.005821 0.012435 0.000000 0.000000 0.000000
# 4 0.000000 0.000000 0.000000 0.037824 0.000000 0.000000
# 5 0.000000 0.000000 0.000000 0.000000 0.098797 0.000000
# 6 0.000000 0.000000 0.000000 0.000000 0.000000 0.067129
#
#
# Mechanical properties :
#
#
# Convention : Reuss Voigt Hill
#
# Bulk Modulus (GPa) = 46.84191 49.97354 48.40773
# Shear Modulus (GPa) = 18.09645 21.82270 19.95957
#
# Velocity S-wave (km/s) = 3.23252 3.54976 3.39485
# Velocity P-wave (km/s) = 6.40153 6.75697 6.58165
#
# Compressibility (1/GPa) = 0.02134840
#
# Stress axis : x y z
#
# Youngs Moduli (GPa) = 62.88532 66.43361 80.41782
#
# Poissons Ratio (x) = 0.18220 0.19758
# Poissons Ratio (y) = 0.17247 0.46811
# Poissons Ratio (z) = 0.15451 0.38671
#
# Static dielectric constant tensor:
#      x y z
#    x 1.562110 0.000000 0.000000 
#    y 0.000000 1.638810 0.000000 
#    z 0.000000 0.000000 1.616190 
# 
# From -- ./inp_files/19416.got.cif
#   From: 2010.05.17/outbox.cif.g08.bks.cpg/sg64_10_cif.got.tgz:19416.got - 2010.06.03 16:29:19.
