data_PCOD9477020
_publ_section_title
;
Structure prediction by ZEFSAII (Michael W. Deem and Ramdas Pophale) SiO2 
 PCOD9477020
Probable space group: C M C A
;
_chemical_formula_sum "Si O2"
_cell_formula_units_Z 112
_cell_length_a 15.065099
_cell_length_b 23.735154
_cell_length_c 14.195875
_cell_angle_alpha 90.000000
_cell_angle_beta 90.000000
_cell_angle_gamma 90.000000
_cell_volume 5076.053730
_symmetry_space_group_name_H-M "C M C A"
_symmetry_group_IT_number 64
_symmetry_cell_setting 'orthorhombic'
loop_
_space_group_symop_operation_xyz
x,y,z
-x,1/2-y,1/2+z
x,-y,-z
-x,1/2+y,1/2-z
-x,-y,-z
x,1/2+y,1/2-z
-x,y,z
x,1/2-y,1/2+z
1/2+x,1/2+y,z
1/2-x,-y,1/2+z
1/2+x,1/2-y,-z
1/2-x,y,1/2-z
1/2-x,1/2-y,-z
1/2+x,y,1/2-z
1/2-x,1/2+y,z
1/2+x,-y,1/2+z
loop_
_atom_site_type_symbol
_atom_site_label
_atom_site_fract_x
_atom_site_fract_y
_atom_site_fract_z
Si Si1 0.146053 0.054686 0.736735
Si Si2 0.396766 0.433045 0.700329
Si Si3 0.097542 0.416197 0.447899
Si Si4 0.099576 0.322896 0.172253
Si Si5 0.713757 0.400657 0.887992
Si Si6 0.267702 0.227720 0.362986
Si Si7 0.094772 0.713193 0.607667
O O1 0.250000 0.043947 0.750000
O O2 0.107721 0.061596 0.842058
O O3 0.133459 0.113052 0.680609
O O4 0.103047 0.000525 0.689625
O O5 0.500000 0.412667 0.694090
O O6 0.350312 0.420082 0.801874
O O7 0.318444 0.410534 0.631538
O O8 0.176037 0.430599 0.519135
O O9 0.099937 0.348396 0.437356
O O10 0.000000 0.431977 0.485277
O O11 0.164132 0.278854 0.123311
O O12 0.096550 0.300993 0.280556
O O13 0.000000 0.322221 0.134546
O O14 0.701950 0.333383 0.894130
O O15 0.250000 0.222583 0.250000
O O16 0.176605 0.246800 0.410517
O O17 0.000000 0.739220 0.583689
#
# Coordination Sequence:
#
# PCOD9477020 Si02
#       7
#    16  16  16  16  16  16  16
#     4  11  20  40  67  92 123 158 209 271 319 371
#     4  11  23  42  63  88 124 169 217 262 311 377
#     4  10  21  38  64  96 127 157 205 266 322 374
#     4   9  17  29  54  88 115 152 201 249 305 358
#     4  11  23  40  58  95 129 170 208 255 321 383
#     4  10  18  34  55  84 127 164 205 249 305 379
#     4   8  16  31  52  83 114 152 196 247 306 359
#
# _framework density 22.064384
#
# number of rings (size 3 to 8) (size 9 to 14) (size 15 to 20)
#    0.000    2.000    2.857    4.714    0.000    2.857 
#    0.000    1.429    0.000    6.000    0.000    0.000 
#    0.000    0.000    0.000    0.000    0.000    0.000 
#
# Total GULP energy -312747.548045 kJ/mol
# GULP energy per Si atom -5584.777644 kJ/mol
# Density = 2.201416 g / cm^3
# Si number density = 22.064384 Si / 1000 Ang^3
#
#
#
# Elastic Constant Matrix: (Units=GPa)
#
#
# Indices 1 2 3 4 5 6 
#
# 1 167.4561 26.3466 31.8423 0.0000 0.0000 0.0000
# 2 26.3466 85.6318 7.9472 0.0000 0.0000 0.0000
# 3 31.8423 7.9472 44.3676 0.0000 0.0000 0.0000
# 4 0.0000 0.0000 0.0000 -3.6965 0.0000 0.0000
# 5 0.0000 0.0000 0.0000 0.0000 9.0629 0.0000
# 6 0.0000 0.0000 0.0000 0.0000 0.0000 66.0502
#
#
#
# Elastic Compliance Matrix: (Units=1/GPa)
#
#
# Indices 1 2 3 4 5 6 
#
# 1 0.007166 -0.001757 -0.004829 0.000000 0.000000 0.000000
# 2 -0.001757 0.012306 -0.000943 0.000000 0.000000 0.000000
# 3 -0.004829 -0.000943 0.026173 0.000000 0.000000 0.000000
# 4 0.000000 0.000000 0.000000 -0.270529 0.000000 0.000000
# 5 0.000000 0.000000 0.000000 0.000000 0.110340 0.000000
# 6 0.000000 0.000000 0.000000 0.000000 0.000000 0.015140
#
#
# Mechanical properties :
#
#
# Convention : Reuss Voigt Hill
#
# Bulk Modulus (GPa) = 32.69239 47.74752 40.21995
# Shear Modulus (GPa) = -67.43134 29.70461 -18.86337
#
# Velocity S-wave (km/s) = -5.53421 3.67314 -2.92708
# Velocity P-wave (km/s) = 5.09781 6.29891 2.61616
#
# Compressibility (1/GPa) = 0.03058816
#
# Stress axis : x y z
#
# Youngs Moduli (GPa) = 139.54257 81.26134 38.20678
#
# Poissons Ratio (x) = 0.14276 0.18448
# Poissons Ratio (y) = 0.24514 0.03605
# Poissons Ratio (z) = 0.67378 0.07667
#
# Static dielectric constant tensor:
#      x y z
#    x 1.843130 0.000000 0.000000 
#    y 0.000000 1.797350 0.000000 
#    z 0.000000 0.000000 1.857330 
# 
# From -- ./inp_files/24195.got.cif
#   From: 2010.05.17/outbox.cif.g08.bks.cpg/sg64_13_cif.got.tgz:24195.got - 2010.06.03 16:29:19.
