data_PCOD9477015
_publ_section_title
;
Structure prediction by ZEFSAII (Michael W. Deem and Ramdas Pophale) SiO2 
 PCOD9477015
Probable space group: C M C A
;
_chemical_formula_sum "Si O2"
_cell_formula_units_Z 112
_cell_length_a 27.193180
_cell_length_b 13.870475
_cell_length_c 13.660997
_cell_angle_alpha 90.000000
_cell_angle_beta 90.000000
_cell_angle_gamma 90.000000
_cell_volume 5152.686588
_symmetry_space_group_name_H-M "C M C A"
_symmetry_group_IT_number 64
_symmetry_cell_setting 'orthorhombic'
loop_
_space_group_symop_operation_xyz
x,y,z
-x,1/2-y,1/2+z
x,-y,-z
-x,1/2+y,1/2-z
-x,-y,-z
x,1/2+y,1/2-z
-x,y,z
x,1/2-y,1/2+z
1/2+x,1/2+y,z
1/2-x,-y,1/2+z
1/2+x,1/2-y,-z
1/2-x,y,1/2-z
1/2-x,1/2-y,-z
1/2+x,y,1/2-z
1/2-x,1/2+y,z
1/2+x,-y,1/2+z
loop_
_atom_site_type_symbol
_atom_site_label
_atom_site_fract_x
_atom_site_fract_y
_atom_site_fract_z
Si Si1 0.753268 0.766790 0.133137
Si Si2 0.154482 0.876124 0.378126
Si Si3 0.396571 0.790494 0.522641
Si Si4 0.055839 0.453429 0.606510
Si Si5 0.359359 0.550918 0.262030
Si Si6 0.198690 0.081344 0.080424
Si Si7 0.138595 0.727230 0.673726
O O1 0.750000 0.755037 0.250000
O O2 0.710762 0.842614 0.106176
O O3 0.739760 0.663534 0.087959
O O4 0.809745 0.791925 0.117357
O O5 0.119925 0.817797 0.452022
O O6 0.139408 0.834263 0.271404
O O7 0.147842 0.988543 0.359890
O O8 0.440094 0.838556 0.583596
O O9 0.351351 0.859025 0.557931
O O10 0.402256 0.797056 0.406212
O O11 0.069423 0.500000 0.500000
O O12 0.093111 0.475588 0.695287
O O13 0.000000 0.481217 0.628888
O O14 0.313008 0.537538 0.187957
O O15 0.362314 0.662320 0.292404
O O16 0.206947 0.000000 0.000000
#
# Coordination Sequence:
#
# PCOD9477015 Si02
#       7
#    16  16  16  16  16  16  16
#     4   9  18  37  47  77 118 152 203 249 277 331
#     4  10  20  36  56  82 117 164 199 242 289 351
#     4  10  20  37  57  80 119 154 187 238 304 344
#     4  10  20  39  67  94 112 137 199 253 291 361
#     4  11  20  37  60  82 119 160 189 241 309 340
#     4  10  18  34  54  78 107 154 205 246 284 329
#     4  11  20  38  56  79 122 160 197 247 284 351
#
# _framework density 21.736234
#
# number of rings (size 3 to 8) (size 9 to 14) (size 15 to 20)
#    0.000    1.857    5.714    3.429    0.000    2.857 
#   12.857    1.429    0.000    0.000    0.000    2.000 
#    0.000    0.000    0.000    0.000    0.000    0.000 
#
# Total GULP energy -312799.839841 kJ/mol
# GULP energy per Si atom -5585.711426 kJ/mol
# Density = 2.168676 g / cm^3
# Si number density = 21.736234 Si / 1000 Ang^3
#
#
#
# Elastic Constant Matrix: (Units=GPa)
#
#
# Indices 1 2 3 4 5 6 
#
# 1 51.6794 3.2518 13.2531 0.0000 0.0000 0.0000
# 2 3.2518 64.9218 -5.6786 0.0000 0.0000 0.0000
# 3 13.2531 -5.6786 57.8103 0.0000 0.0000 0.0000
# 4 0.0000 0.0000 0.0000 35.5591 0.0000 0.0000
# 5 0.0000 0.0000 0.0000 0.0000 6.1085 0.0000
# 6 0.0000 0.0000 0.0000 0.0000 0.0000 10.8281
#
#
#
# Elastic Compliance Matrix: (Units=1/GPa)
#
#
# Indices 1 2 3 4 5 6 
#
# 1 0.020696 -0.001464 -0.004888 0.000000 0.000000 0.000000
# 2 -0.001464 0.015640 0.001872 0.000000 0.000000 0.000000
# 3 -0.004888 0.001872 0.018602 0.000000 0.000000 0.000000
# 4 0.000000 0.000000 0.000000 0.028122 0.000000 0.000000
# 5 0.000000 0.000000 0.000000 0.000000 0.163707 0.000000
# 6 0.000000 0.000000 0.000000 0.000000 0.000000 0.092353
#
#
# Mechanical properties :
#
#
# Convention : Reuss Voigt Hill
#
# Bulk Modulus (GPa) = 21.74982 21.78489 21.76735
# Shear Modulus (GPa) = 13.75867 21.40481 17.58174
#
# Velocity S-wave (km/s) = 2.51864 3.14148 2.84715
# Velocity P-wave (km/s) = 4.29954 4.81692 4.56556
#
# Compressibility (1/GPa) = 0.04597739
#
# Stress axis : x y z
#
# Youngs Moduli (GPa) = 48.31893 63.93777 53.75623
#
# Poissons Ratio (x) = 0.09362 0.26278
# Poissons Ratio (y) = 0.07075 -0.10063
# Poissons Ratio (z) = 0.23620 -0.11969
#
# Static dielectric constant tensor:
#      x y z
#    x 1.808000 0.000000 0.000000 
#    y 0.000000 1.853770 0.000000 
#    z 0.000000 0.000000 1.849620 
# 
# From -- ./inp_files/28469.got.cif
#   From: 2010.05.17/outbox.cif.g08.bks.cpg/sg64_15_cif.got.tgz:28469.got - 2010.06.03 16:29:19.
