data_PCOD9477942
_publ_section_title
;
Structure prediction by ZEFSAII (Michael W. Deem and Ramdas Pophale) SiO2 
 PCOD9477942
Probable space group: C M C A
;
_chemical_formula_sum "Si O2"
_cell_formula_units_Z 112
_cell_length_a 14.852465
_cell_length_b 15.059282
_cell_length_c 26.782059
_cell_angle_alpha 90.000000
_cell_angle_beta 90.000000
_cell_angle_gamma 90.000000
_cell_volume 5990.275079
_symmetry_space_group_name_H-M "C M C A"
_symmetry_group_IT_number 64
_symmetry_cell_setting 'orthorhombic'
loop_
_space_group_symop_operation_xyz
x,y,z
-x,1/2-y,1/2+z
x,-y,-z
-x,1/2+y,1/2-z
-x,-y,-z
x,1/2+y,1/2-z
-x,y,z
x,1/2-y,1/2+z
1/2+x,1/2+y,z
1/2-x,-y,1/2+z
1/2+x,1/2-y,-z
1/2-x,y,1/2-z
1/2-x,1/2-y,-z
1/2+x,y,1/2-z
1/2-x,1/2+y,z
1/2+x,-y,1/2+z
loop_
_atom_site_type_symbol
_atom_site_label
_atom_site_fract_x
_atom_site_fract_y
_atom_site_fract_z
Si Si1 0.736463 0.081414 0.638819
Si Si2 0.356408 0.783392 0.753965
Si Si3 0.891065 0.234566 0.474410
Si Si4 0.838588 0.541499 0.285733
Si Si5 0.103100 0.744965 0.641407
Si Si6 0.594245 0.099113 0.789078
Si Si7 0.745858 0.399186 0.021556
O O1 0.688362 0.993483 0.660172
O O2 0.670312 0.163507 0.649453
O O3 0.824226 0.091871 0.672701
O O4 0.756318 0.084860 0.580675
O O5 0.250000 0.765604 0.750000
O O6 0.380081 0.808118 0.811086
O O7 0.402690 0.694168 0.737002
O O8 0.381014 0.862323 0.716864
O O9 0.882211 0.219131 0.414404
O O10 0.832399 0.156589 0.500813
O O11 0.839332 0.329523 0.485236
O O12 0.000000 0.236561 0.485593
O O13 0.750000 0.548911 0.250000
O O14 0.895658 0.469937 0.255925
O O15 0.000000 0.714388 0.643451
O O16 0.500000 0.084467 0.815757
O O17 0.735224 0.500000 0.000000
#
# Coordination Sequence:
#
# PCOD9477942 Si02
#       7
#    16  16  16  16  16  16  16
#     4  10  20  40  57  81 120 157 195 240 299 349
#     4  11  19  33  55  82 115 155 195 239 286 342
#     4   9  21  41  64  93 124 156 202 259 311 366
#     4   9  20  34  52  78 110 155 192 234 280 342
#     4  10  19  35  61  84 113 158 199 239 294 355
#     4  11  21  35  54  81 119 156 194 237 285 342
#     4  10  22  40  65  92 119 160 206 253 309 371
#
# _framework density 18.69697
#
# number of rings (size 3 to 8) (size 9 to 14) (size 15 to 20)
#    0.000    2.000    2.857    0.857    0.000    5.714 
#    2.571    1.429    0.000    0.000    0.000    0.000 
#    0.000    0.000    0.000    0.000    0.000    0.000 
#
# Total GULP energy -311976.935443 kJ/mol
# GULP energy per Si atom -5571.016704 kJ/mol
# Density = 1.865441 g / cm^3
# Si number density = 18.696970 Si / 1000 Ang^3
#
#
#
# Elastic Constant Matrix: (Units=GPa)
#
#
# Indices 1 2 3 4 5 6 
#
# 1 123.8036 29.9244 40.9968 0.0000 0.0000 0.0000
# 2 29.9244 93.2570 25.8890 0.0000 0.0000 0.0000
# 3 40.9968 25.8890 97.7107 0.0000 0.0000 0.0000
# 4 0.0000 0.0000 0.0000 27.0928 0.0000 0.0000
# 5 0.0000 0.0000 0.0000 0.0000 23.7741 0.0000
# 6 0.0000 0.0000 0.0000 0.0000 0.0000 5.1032
#
#
#
# Elastic Compliance Matrix: (Units=1/GPa)
#
#
# Indices 1 2 3 4 5 6 
#
# 1 0.009766 -0.002155 -0.003527 0.000000 0.000000 0.000000
# 2 -0.002155 0.012050 -0.002289 0.000000 0.000000 0.000000
# 3 -0.003527 -0.002289 0.012320 0.000000 0.000000 0.000000
# 4 0.000000 0.000000 0.000000 0.036910 0.000000 0.000000
# 5 0.000000 0.000000 0.000000 0.000000 0.042063 0.000000
# 6 0.000000 0.000000 0.000000 0.000000 0.000000 0.195956
#
#
# Mechanical properties :
#
#
# Convention : Reuss Voigt Hill
#
# Bulk Modulus (GPa) = 54.95641 56.48795 55.72218
# Shear Modulus (GPa) = 15.10254 25.72477 20.41365
#
# Velocity S-wave (km/s) = 2.84518 3.71331 3.30785
# Velocity P-wave (km/s) = 6.34432 6.97587 6.66758
#
# Compressibility (1/GPa) = 0.01819624
#
# Stress axis : x y z
#
# Youngs Moduli (GPa) = 102.39682 82.98903 81.16649
#
# Poissons Ratio (x) = 0.17881 0.28624
# Poissons Ratio (y) = 0.22063 0.18576
# Poissons Ratio (z) = 0.36112 0.18993
#
# Static dielectric constant tensor:
#      x y z
#    x 1.646430 0.000000 0.000000 
#    y 0.000000 1.682720 0.000000 
#    z 0.000000 0.000000 1.640200 
# 
# From -- ./inp_files/50063.got.cif
#   From: 2010.05.17/outbox.cif.g08.bks.cpg/sg64_26_cif.got.tgz:50063.got - 2010.06.03 16:29:19.
