data_PCOD9477907
_publ_section_title
;
Structure prediction by ZEFSAII (Michael W. Deem and Ramdas Pophale) SiO2 
 PCOD9477907
Probable space group: C M C A
;
_chemical_formula_sum "Si O2"
_cell_formula_units_Z 112
_cell_length_a 29.692525
_cell_length_b 13.745633
_cell_length_c 14.303966
_cell_angle_alpha 90.000000
_cell_angle_beta 90.000000
_cell_angle_gamma 90.000000
_cell_volume 5838.057180
_symmetry_space_group_name_H-M "C M C A"
_symmetry_group_IT_number 64
_symmetry_cell_setting 'orthorhombic'
loop_
_space_group_symop_operation_xyz
x,y,z
-x,1/2-y,1/2+z
x,-y,-z
-x,1/2+y,1/2-z
-x,-y,-z
x,1/2+y,1/2-z
-x,y,z
x,1/2-y,1/2+z
1/2+x,1/2+y,z
1/2-x,-y,1/2+z
1/2+x,1/2-y,-z
1/2-x,y,1/2-z
1/2-x,1/2-y,-z
1/2+x,y,1/2-z
1/2-x,1/2+y,z
1/2+x,-y,1/2+z
loop_
_atom_site_type_symbol
_atom_site_label
_atom_site_fract_x
_atom_site_fract_y
_atom_site_fract_z
Si Si1 0.800478 0.170935 0.094455
Si Si2 0.202451 0.484196 0.292723
Si Si3 0.106971 0.926578 0.256384
Si Si4 0.395969 0.260342 0.401167
Si Si5 0.946538 0.879950 0.766994
Si Si6 0.611228 0.742013 0.376244
Si Si7 0.709487 0.773525 0.377243
O O1 0.844951 0.228654 0.125349
O O2 0.754864 0.214162 0.137231
O O3 0.806458 0.059038 0.122722
O O4 0.794883 0.190697 0.984612
O O5 0.250000 0.516890 0.250000
O O6 0.156169 0.477235 0.234069
O O7 0.210231 0.373147 0.321445
O O8 0.095967 0.862142 0.347901
O O9 0.108030 0.849757 0.169902
O O10 0.071352 0.010198 0.234824
O O11 0.428577 0.179252 0.357143
O O12 0.398248 0.261980 0.513268
O O13 0.922643 0.825633 0.680224
O O14 0.000000 0.875143 0.761152
O O15 0.663683 0.714142 0.358873
#
# Coordination Sequence:
#
# PCOD9477907 Si02
#       7
#    16  16  16  16  16  16  16
#     4  10  19  35  58  82 120 157 197 237 288 347
#     4  11  21  31  55  84 117 157 199 236 286 355
#     4  10  22  39  59  89 124 155 203 250 306 357
#     4  10  21  42  65  89 122 161 200 252 304 365
#     4  11  24  42  63  90 120 152 201 258 314 365
#     4   9  22  41  65  89 122 162 203 246 305 364
#     4   9  20  36  54  86 119 157 195 240 284 348
#
# _framework density 19.184464999999999
#
# number of rings (size 3 to 8) (size 9 to 14) (size 15 to 20)
#    0.000    2.000    1.429    1.286    2.000    5.714 
#    0.000    1.429    0.000    0.000    0.000    0.000 
#    0.000    0.000    0.000    0.000    0.000    0.000 
#
# Total GULP energy -312542.124902 kJ/mol
# GULP energy per Si atom -5581.109373 kJ/mol
# Density = 1.914080 g / cm^3
# Si number density = 19.184465 Si / 1000 Ang^3
#
#
#
# Elastic Constant Matrix: (Units=GPa)
#
#
# Indices 1 2 3 4 5 6 
#
# 1 111.8146 33.5727 -4.1761 0.0000 0.0000 0.0000
# 2 33.5727 74.9192 10.6841 0.0000 0.0000 0.0000
# 3 -4.1761 10.6841 56.6326 0.0000 0.0000 0.0000
# 4 0.0000 0.0000 0.0000 16.1283 0.0000 0.0000
# 5 0.0000 0.0000 0.0000 0.0000 18.8676 0.0000
# 6 0.0000 0.0000 0.0000 0.0000 0.0000 -23.3198
#
#
#
# Elastic Compliance Matrix: (Units=1/GPa)
#
#
# Indices 1 2 3 4 5 6 
#
# 1 0.010492 -0.004945 0.001707 0.000000 0.000000 0.000000
# 2 -0.004945 0.016047 -0.003392 0.000000 0.000000 0.000000
# 3 0.001707 -0.003392 0.018423 0.000000 0.000000 0.000000
# 4 0.000000 0.000000 0.000000 0.062003 0.000000 0.000000
# 5 0.000000 0.000000 0.000000 0.000000 0.053001 0.000000
# 6 0.000000 0.000000 0.000000 0.000000 0.000000 -0.042882
#
#
# Mechanical properties :
#
#
# Convention : Reuss Voigt Hill
#
# Bulk Modulus (GPa) = 31.54401 35.94753 33.74577
# Shear Modulus (GPa) = 35.48299 15.88761 25.68530
#
# Velocity S-wave (km/s) = 4.30533 2.88088 3.66301
# Velocity P-wave (km/s) = 6.41815 5.46301 5.95974
#
# Compressibility (1/GPa) = 0.03170174
#
# Stress axis : x y z
#
# Youngs Moduli (GPa) = 95.31201 62.31545 54.27865
#
# Poissons Ratio (x) = 0.30815 -0.09263
# Poissons Ratio (y) = 0.47132 0.18412
# Poissons Ratio (z) = -0.16266 0.21138
#
# Static dielectric constant tensor:
#      x y z
#    x 1.673960 0.000000 0.000000 
#    y 0.000000 1.640810 0.000000 
#    z 0.000000 0.000000 1.686770 
# 
# From -- ./inp_files/28374.got.cif
#   From: 2010.05.17/outbox.cif.g08.bks.cpg/sg64_15_cif.got.tgz:28374.got - 2010.06.03 16:29:19.
