data_PCOD9477564
_publ_section_title
;
Structure prediction by ZEFSAII (Michael W. Deem and Ramdas Pophale) SiO2 
 PCOD9477564
Probable space group: C M C A
;
_chemical_formula_sum "Si O2"
_cell_formula_units_Z 96
_cell_length_a 7.565603
_cell_length_b 21.191105
_cell_length_c 29.308410
_cell_angle_alpha 90.000000
_cell_angle_beta 90.000000
_cell_angle_gamma 90.000000
_cell_volume 4698.826506
_symmetry_space_group_name_H-M "C M C A"
_symmetry_group_IT_number 64
_symmetry_cell_setting 'orthorhombic'
loop_
_space_group_symop_operation_xyz
x,y,z
-x,1/2-y,1/2+z
x,-y,-z
-x,1/2+y,1/2-z
-x,-y,-z
x,1/2+y,1/2-z
-x,y,z
x,1/2-y,1/2+z
1/2+x,1/2+y,z
1/2-x,-y,1/2+z
1/2+x,1/2-y,-z
1/2-x,y,1/2-z
1/2-x,1/2-y,-z
1/2+x,y,1/2-z
1/2-x,1/2+y,z
1/2+x,-y,1/2+z
loop_
_atom_site_type_symbol
_atom_site_label
_atom_site_fract_x
_atom_site_fract_y
_atom_site_fract_z
Si Si1 0.711448 0.316557 0.698992
Si Si2 0.214385 0.617388 0.604143
Si Si3 0.288777 0.756833 0.446867
Si Si4 0.291659 0.009922 0.050947
Si Si5 0.216848 0.868646 0.605407
Si Si6 0.288325 0.328185 0.198675
O O1 0.500000 0.312433 0.694650
O O2 0.750000 0.338921 0.750000
O O3 0.774307 0.360380 0.657815
O O4 0.779361 0.244219 0.694446
O O5 0.276370 0.677780 0.574683
O O6 0.273413 0.553032 0.580749
O O7 0.273833 0.629728 0.656267
O O8 0.000000 0.616462 0.603660
O O9 0.500000 0.757815 0.440863
O O10 0.250000 0.750000 0.500000
O O11 0.225620 0.694970 0.420326
O O12 0.500000 0.023063 0.044793
O O13 0.219153 0.069844 0.078624
O O14 0.216645 0.000000 0.000000
O O15 0.000000 0.870345 0.605182
O O16 0.500000 0.324841 0.194487
O O17 0.250000 0.350556 0.250000
#
# Coordination Sequence:
#
# PCOD9477564 Si02
#       6
#    16  16  16  16  16  16
#     4   9  16  30  52  76 101 131 166 208 258 307
#     4  10  20  35  54  77 106 138 171 212 266 315
#     4  10  19  33  53  76 101 131 170 215 258 303
#     4  10  21  36  54  76 103 140 182 217 253 307
#     4   9  17  33  54  73 100 137 171 206 256 308
#     4   9  17  31  52  78 104 133 168 209 259 311
#
# _framework density 20.430633
#
# number of rings (size 3 to 8) (size 9 to 14) (size 15 to 20)
#    0.000    2.500    1.667    1.000    0.000    3.000 
#    0.000    3.333    0.000    4.000    0.000    0.000 
#    0.000    0.000    0.000    0.000    0.000    0.000 
#
# Total GULP energy -267894.626034 kJ/mol
# GULP energy per Si atom -5581.138042 kJ/mol
# Density = 2.038413 g / cm^3
# Si number density = 20.430633 Si / 1000 Ang^3
#
#
#
# Elastic Constant Matrix: (Units=GPa)
#
#
# Indices 1 2 3 4 5 6 
#
# 1 41.2163 -7.7398 -7.9925 0.0000 0.0000 0.0000
# 2 -7.7398 108.9164 61.7598 0.0000 0.0000 0.0000
# 3 -7.9925 61.7598 179.4033 0.0000 0.0000 0.0000
# 4 0.0000 0.0000 0.0000 30.9158 0.0000 0.0000
# 5 0.0000 0.0000 0.0000 0.0000 22.4635 0.0000
# 6 0.0000 0.0000 0.0000 0.0000 0.0000 3.5646
#
#
#
# Elastic Compliance Matrix: (Units=1/GPa)
#
#
# Indices 1 2 3 4 5 6 
#
# 1 0.024645 0.001403 0.000615 0.000000 0.000000 0.000000
# 2 0.001403 0.011488 -0.003892 0.000000 0.000000 0.000000
# 3 0.000615 -0.003892 0.006941 0.000000 0.000000 0.000000
# 4 0.000000 0.000000 0.000000 0.032346 0.000000 0.000000
# 5 0.000000 0.000000 0.000000 0.000000 0.044517 0.000000
# 6 0.000000 0.000000 0.000000 0.000000 0.000000 0.280538
#
#
# Mechanical properties :
#
#
# Convention : Reuss Voigt Hill
#
# Bulk Modulus (GPa) = 25.42907 46.84342 36.13625
# Shear Modulus (GPa) = 11.98087 30.28936 21.13511
#
# Velocity S-wave (km/s) = 2.42423 3.85456 3.21983
# Velocity P-wave (km/s) = 4.50660 6.54125 5.61682
#
# Compressibility (1/GPa) = 0.03932507
#
# Stress axis : x y z
#
# Youngs Moduli (GPa) = 40.57633 87.04650 144.06378
#
# Poissons Ratio (x) = -0.12208 -0.08862
# Poissons Ratio (y) = -0.05691 0.56074
# Poissons Ratio (z) = -0.02496 0.33881
#
# Static dielectric constant tensor:
#      x y z
#    x 1.686730 0.000000 0.000000 
#    y 0.000000 1.691030 0.000000 
#    z 0.000000 0.000000 1.699310 
# 
# From -- ./inp_files/44207.got.cif
#   From: 2010.05.17/outbox.cif.g08.bks.cpg/sg64_23_cif.got.tgz:44207.got - 2010.06.03 16:29:19.
