data_PCOD9477780
_publ_section_title
;
Structure prediction by ZEFSAII (Michael W. Deem and Ramdas Pophale) SiO2 
 PCOD9477780
Probable space group: C M C A
;
_chemical_formula_sum "Si O2"
_cell_formula_units_Z 56
_cell_length_a 22.692660
_cell_length_b 25.031914
_cell_length_c 5.184460
_cell_angle_alpha 90.000000
_cell_angle_beta 90.000000
_cell_angle_gamma 90.000000
_cell_volume 2944.984358
_symmetry_space_group_name_H-M "C M C A"
_symmetry_group_IT_number 64
_symmetry_cell_setting 'orthorhombic'
loop_
_space_group_symop_operation_xyz
x,y,z
-x,1/2-y,1/2+z
x,-y,-z
-x,1/2+y,1/2-z
-x,-y,-z
x,1/2+y,1/2-z
-x,y,z
x,1/2-y,1/2+z
1/2+x,1/2+y,z
1/2-x,-y,1/2+z
1/2+x,1/2-y,-z
1/2-x,y,1/2-z
1/2-x,1/2-y,-z
1/2+x,y,1/2-z
1/2-x,1/2+y,z
1/2+x,-y,1/2+z
loop_
_atom_site_type_symbol
_atom_site_label
_atom_site_fract_x
_atom_site_fract_y
_atom_site_fract_z
Si Si1 0.813189 0.398618 0.368653
Si Si2 0.000000 0.962287 0.749519
Si Si3 0.183512 0.726048 0.508610
Si Si4 0.127921 0.059434 0.376765
O O1 0.750000 0.414583 0.250000
O O2 0.811564 0.336859 0.453989
O O3 0.831206 0.431357 0.625215
O O4 0.856446 0.404459 0.123479
O O5 0.938319 0.931630 0.728402
O O6 0.000000 0.000000 0.500000
O O7 0.000000 0.000000 0.000000
O O8 0.153906 0.744144 0.246204
O O9 0.250000 0.750000 0.500000
O O10 0.133112 0.000000 0.500000
#
# Coordination Sequence:
#
# PCOD9477780 Si02
#       4
#    16   8  16  16
#     4  12  23  36  60  90 127 154 194 235 303 366
#     4  10  20  42  66  78 106 156 220 254 266 332
#     4  10  19  34  57  81 113 150 202 238 272 342
#     4  11  24  40  59  87 118 162 200 241 292 344
#
# _framework density 19.015381000000001
#
# number of rings (size 3 to 8) (size 9 to 14) (size 15 to 20)
#    0.000    1.143    2.857    6.857    4.000    2.286 
#    0.000    1.429    0.000    0.000    0.000   20.000 
#    0.000    0.000    0.000    0.000    0.000    0.000 
#
# Total GULP energy -156147.974259 kJ/mol
# GULP energy per Si atom -5576.713366 kJ/mol
# Density = 1.897210 g / cm^3
# Si number density = 19.015381 Si / 1000 Ang^3
#
#
#
# Elastic Constant Matrix: (Units=GPa)
#
#
# Indices 1 2 3 4 5 6 
#
# 1 80.4413 47.9506 51.1103 0.0000 0.0000 0.0000
# 2 47.9506 74.5736 43.0783 0.0000 0.0000 0.0000
# 3 51.1103 43.0783 195.8417 0.0000 0.0000 0.0000
# 4 0.0000 0.0000 0.0000 40.4543 0.0000 0.0000
# 5 0.0000 0.0000 0.0000 0.0000 30.3487 0.0000
# 6 0.0000 0.0000 0.0000 0.0000 0.0000 -7.1774
#
#
#
# Elastic Compliance Matrix: (Units=1/GPa)
#
#
# Indices 1 2 3 4 5 6 
#
# 1 0.021550 -0.012152 -0.002951 0.000000 0.000000 0.000000
# 2 -0.012152 0.022214 -0.001715 0.000000 0.000000 0.000000
# 3 -0.002951 -0.001715 0.006254 0.000000 0.000000 0.000000
# 4 0.000000 0.000000 0.000000 0.024719 0.000000 0.000000
# 5 0.000000 0.000000 0.000000 0.000000 0.032950 0.000000
# 6 0.000000 0.000000 0.000000 0.000000 0.000000 -0.139327
#
#
# Mechanical properties :
#
#
# Convention : Reuss Voigt Hill
#
# Bulk Modulus (GPa) = 61.04373 70.57055 65.80714
# Shear Modulus (GPa) = 670.54739 26.63963 348.59351
#
# Velocity S-wave (km/s) = 18.79893 3.74699 13.55433
# Velocity P-wave (km/s) = 22.43595 7.47749 16.72251
#
# Compressibility (1/GPa) = 0.01638170
#
# Stress axis : x y z
#
# Youngs Moduli (GPa) = 46.40322 45.01691 159.90912
#
# Poissons Ratio (x) = 0.54704 0.47191
# Poissons Ratio (y) = 0.56389 0.27423
# Poissons Ratio (z) = 0.13694 0.07720
#
# Static dielectric constant tensor:
#      x y z
#    x 1.684680 0.000000 0.000000 
#    y 0.000000 1.667540 0.000000 
#    z 0.000000 0.000000 1.528310 
# 
# From -- ./inp_files/1741.got.cif
#   From: 2010.05.17/outbox.cif.g08.bks.cpg/sg64_1_cif.got.tgz:1741.got - 2010.06.03 16:29:19.
