data_PCOD9477940
_publ_section_title
;
Structure prediction by ZEFSAII (Michael W. Deem and Ramdas Pophale) SiO2 
 PCOD9477940
Probable space group: C M C A
;
_chemical_formula_sum "Si O2"
_cell_formula_units_Z 128
_cell_length_a 22.801598
_cell_length_b 11.400828
_cell_length_c 23.602332
_cell_angle_alpha 90.000000
_cell_angle_beta 90.000000
_cell_angle_gamma 90.000000
_cell_volume 6135.593707
_symmetry_space_group_name_H-M "C M C A"
_symmetry_group_IT_number 64
_symmetry_cell_setting 'orthorhombic'
loop_
_space_group_symop_operation_xyz
x,y,z
-x,1/2-y,1/2+z
x,-y,-z
-x,1/2+y,1/2-z
-x,-y,-z
x,1/2+y,1/2-z
-x,y,z
x,1/2-y,1/2+z
1/2+x,1/2+y,z
1/2-x,-y,1/2+z
1/2+x,1/2-y,-z
1/2-x,y,1/2-z
1/2-x,1/2-y,-z
1/2+x,y,1/2-z
1/2-x,1/2+y,z
1/2+x,-y,1/2+z
loop_
_atom_site_type_symbol
_atom_site_label
_atom_site_fract_x
_atom_site_fract_y
_atom_site_fract_z
Si Si1 0.372739 0.384540 0.848660
Si Si2 0.828942 0.753738 0.629096
Si Si3 0.788262 0.796400 0.304441
Si Si4 0.293013 0.464123 0.064428
Si Si5 0.430460 0.699254 0.567051
Si Si6 0.836735 0.476857 0.111117
Si Si7 0.434271 0.382859 0.160251
Si Si8 0.066974 0.123586 0.976472
O O1 0.335022 0.309533 0.803953
O O2 0.327047 0.449170 0.891968
O O3 0.412463 0.296568 0.885794
O O4 0.413337 0.486845 0.823728
O O5 0.763715 0.748886 0.654401
O O6 0.821712 0.663037 0.576659
O O7 0.878601 0.700855 0.671155
O O8 0.846539 0.885430 0.616315
O O9 0.750000 0.827350 0.250000
O O10 0.822297 0.908091 0.330178
O O11 0.224575 0.460321 0.078870
O O12 0.295784 0.500000 0.000000
O O13 0.500000 0.672888 0.568461
O O14 0.390470 0.587773 0.580969
O O15 0.410985 0.760018 0.507912
O O16 0.500000 0.354823 0.181099
O O17 0.437023 0.378729 0.091193
O O18 0.000000 0.123441 0.998268
O O19 0.090850 0.000000 0.000000
#
# Coordination Sequence:
#
# PCOD9477940 Si02
#       8
#    16  16  16  16  16  16  16  16
#     4  10  19  35  60  95 117 148 210 264 301 365
#     4  10  22  39  58  90 124 154 211 249 302 389
#     4  10  22  43  67  90 115 151 205 269 320 367
#     4  10  22  37  59  89 126 168 201 249 308 360
#     4  10  20  33  56  86 122 164 210 252 297 360
#     4  10  22  41  55  89 127 161 205 246 313 386
#     4  10  20  33  56  86 125 164 200 250 302 356
#     4   9  16  29  51  81 114 163 216 248 280 336
#
# _framework density 20.861877
#
# number of rings (size 3 to 8) (size 9 to 14) (size 15 to 20)
#    0.000    2.125    2.500    0.375    3.500    2.500 
#    0.000    0.000    0.000    6.375    0.000    0.000 
#    0.000    0.000    0.000    0.000    0.000    0.000 
#
# Total GULP energy -356828.695588 kJ/mol
# GULP energy per Si atom -5575.448369 kJ/mol
# Density = 2.081439 g / cm^3
# Si number density = 20.861877 Si / 1000 Ang^3
#
#
#
# Elastic Constant Matrix: (Units=GPa)
#
#
# Indices 1 2 3 4 5 6 
#
# 1 106.7965 12.5589 -14.4061 0.0000 0.0000 0.0000
# 2 12.5589 119.2596 2.0455 0.0000 0.0000 0.0000
# 3 -14.4061 2.0455 33.3342 0.0000 0.0000 0.0000
# 4 0.0000 0.0000 0.0000 7.7324 0.0000 0.0000
# 5 0.0000 0.0000 0.0000 0.0000 10.6226 0.0000
# 6 0.0000 0.0000 0.0000 0.0000 0.0000 24.3636
#
#
#
# Elastic Compliance Matrix: (Units=1/GPa)
#
#
# Indices 1 2 3 4 5 6 
#
# 1 0.010096 -0.001139 0.004433 0.000000 0.000000 0.000000
# 2 -0.001139 0.008522 -0.001015 0.000000 0.000000 0.000000
# 3 0.004433 -0.001015 0.031977 0.000000 0.000000 0.000000
# 4 0.000000 0.000000 0.000000 0.129326 0.000000 0.000000
# 5 0.000000 0.000000 0.000000 0.000000 0.094139 0.000000
# 6 0.000000 0.000000 0.000000 0.000000 0.000000 0.041045
#
#
# Mechanical properties :
#
#
# Convention : Reuss Voigt Hill
#
# Bulk Modulus (GPa) = 18.13162 28.86519 23.49841
# Shear Modulus (GPa) = 15.20069 25.82317 20.51193
#
# Velocity S-wave (km/s) = 2.70225 3.52208 3.13904
# Velocity P-wave (km/s) = 4.29492 5.51420 4.94231
#
# Compressibility (1/GPa) = 0.05515226
#
# Stress axis : x y z
#
# Youngs Moduli (GPa) = 99.05371 117.33720 31.27214
#
# Poissons Ratio (x) = 0.13367 -0.13863
# Poissons Ratio (y) = 0.11284 0.03175
# Poissons Ratio (z) = -0.43910 0.11913
#
# Static dielectric constant tensor:
#      x y z
#    x 1.812490 0.000000 0.000000 
#    y 0.000000 1.757540 0.000000 
#    z 0.000000 0.000000 1.803890 
# 
# From -- ./inp_files/51155.got.cif
#   From: 2010.05.17/outbox.cif.g08.bks.cpg/sg64_26_cif.got.tgz:51155.got - 2010.06.03 16:29:19.
