data_PCOD9477535
_publ_section_title
;
Structure prediction by ZEFSAII (Michael W. Deem and Ramdas Pophale) SiO2 
 PCOD9477535
Probable space group: C M C A
;
_chemical_formula_sum "Si O2"
_cell_formula_units_Z 80
_cell_length_a 15.366557
_cell_length_b 7.096096
_cell_length_c 27.504349
_cell_angle_alpha 90.000000
_cell_angle_beta 90.000000
_cell_angle_gamma 90.000000
_cell_volume 2999.144727
_symmetry_space_group_name_H-M "C M C A"
_symmetry_group_IT_number 64
_symmetry_cell_setting 'orthorhombic'
loop_
_space_group_symop_operation_xyz
x,y,z
-x,1/2-y,1/2+z
x,-y,-z
-x,1/2+y,1/2-z
-x,-y,-z
x,1/2+y,1/2-z
-x,y,z
x,1/2-y,1/2+z
1/2+x,1/2+y,z
1/2-x,-y,1/2+z
1/2+x,1/2-y,-z
1/2-x,y,1/2-z
1/2-x,1/2-y,-z
1/2+x,y,1/2-z
1/2-x,1/2+y,z
1/2+x,-y,1/2+z
loop_
_atom_site_type_symbol
_atom_site_label
_atom_site_fract_x
_atom_site_fract_y
_atom_site_fract_z
Si Si1 0.396580 0.629039 0.118681
Si Si2 0.895080 0.219173 0.015299
Si Si3 0.102638 0.313245 0.914037
Si Si4 0.836557 0.975555 0.780411
Si Si5 0.401311 0.358789 0.686373
O O1 0.500000 0.669208 0.124473
O O2 0.362079 0.737140 0.070575
O O3 0.389728 0.406991 0.102578
O O4 0.354905 0.650889 0.172222
O O5 0.000000 0.252078 0.018526
O O6 0.859002 0.330381 0.968200
O O7 0.885937 0.000000 0.000000
O O8 0.130417 0.430533 0.866220
O O9 0.000000 0.353529 0.920847
O O10 0.750000 0.947088 0.750000
O O11 0.904178 0.975262 0.735766
O O12 0.841389 0.183088 0.801345
O O13 0.500000 0.291222 0.677971
#
# Coordination Sequence:
#
# PCOD9477535 Si02
#       5
#    16  16  16  16  16
#     4   8  13  23  40  62  88 117 151 189 227 270
#     4   7   9  16  34  61  87 107 137 189 238 262
#     4   7  11  20  38  64  88 109 142 192 235 262
#     4  11  21  32  46  69  99 127 155 191 235 276
#     4  10  19  33  51  70  94 125 161 194 227 276
#
# _framework density 26.674271000000001
#
# number of rings (size 3 to 8) (size 9 to 14) (size 15 to 20)
#    0.000    3.400    0.000    6.000    0.000    0.000 
#    0.000    0.000    0.000    1.200    0.000    4.200 
#    0.000    8.000    0.000    0.000    0.000    5.000 
#
# Total GULP energy -223048.981494 kJ/mol
# GULP energy per Si atom -5576.224537 kJ/mol
# Density = 2.661356 g / cm^3
# Si number density = 26.674271 Si / 1000 Ang^3
#
#
#
# Elastic Constant Matrix: (Units=GPa)
#
#
# Indices 1 2 3 4 5 6 
#
# 1 58.2245 7.4825 53.7913 0.0000 0.0000 0.0000
# 2 7.4825 55.1045 72.6969 0.0000 0.0000 0.0000
# 3 53.7913 72.6969 369.9099 0.0000 0.0000 0.0000
# 4 0.0000 0.0000 0.0000 48.9040 0.0000 0.0000
# 5 0.0000 0.0000 0.0000 0.0000 9.1400 0.0000
# 6 0.0000 0.0000 0.0000 0.0000 0.0000 -25.3507
#
#
#
# Elastic Compliance Matrix: (Units=1/GPa)
#
#
# Indices 1 2 3 4 5 6 
#
# 1 0.019933 0.001508 -0.003195 0.000000 0.000000 0.000000
# 2 0.001508 0.024613 -0.005057 0.000000 0.000000 0.000000
# 3 -0.003195 -0.005057 0.004162 0.000000 0.000000 0.000000
# 4 0.000000 0.000000 0.000000 0.020448 0.000000 0.000000
# 5 0.000000 0.000000 0.000000 0.000000 0.109409 0.000000
# 6 0.000000 0.000000 0.000000 0.000000 0.000000 -0.039447
#
#
# Mechanical properties :
#
#
# Convention : Reuss Voigt Hill
#
# Bulk Modulus (GPa) = 28.39164 83.46448 55.92806
# Shear Modulus (GPa) = 30.42381 29.82322 30.12352
#
# Velocity S-wave (km/s) = 3.38089 3.34736 3.36417
# Velocity P-wave (km/s) = 5.08994 6.80426 6.00855
#
# Compressibility (1/GPa) = 0.03522163
#
# Stress axis : x y z
#
# Youngs Moduli (GPa) = 50.16859 40.62839 240.28601
#
# Poissons Ratio (x) = -0.06129 0.76772
# Poissons Ratio (y) = -0.07568 1.21501
# Poissons Ratio (z) = 0.16029 0.20544
#
# Static dielectric constant tensor:
#      x y z
#    x 2.281190 0.000000 0.000000 
#    y 0.000000 2.138000 0.000000 
#    z 0.000000 0.000000 2.292270 
# 
# From -- ./inp_files/44977.got.cif
#   From: 2010.05.17/outbox.cif.g08.bks.cpg/sg64_23_cif.got.tgz:44977.got - 2010.06.03 16:29:19.
