data_PCOD9477026
_publ_section_title
;
Structure prediction by ZEFSAII (Michael W. Deem and Ramdas Pophale) SiO2 
 PCOD9477026
Probable space group: C M C A
;
_chemical_formula_sum "Si O2"
_cell_formula_units_Z 72
_cell_length_a 11.547808
_cell_length_b 14.760100
_cell_length_c 19.031817
_cell_angle_alpha 90.000000
_cell_angle_beta 90.000000
_cell_angle_gamma 90.000000
_cell_volume 3243.912322
_symmetry_space_group_name_H-M "C M C A"
_symmetry_group_IT_number 64
_symmetry_cell_setting 'orthorhombic'
loop_
_space_group_symop_operation_xyz
x,y,z
-x,1/2-y,1/2+z
x,-y,-z
-x,1/2+y,1/2-z
-x,-y,-z
x,1/2+y,1/2-z
-x,y,z
x,1/2-y,1/2+z
1/2+x,1/2+y,z
1/2-x,-y,1/2+z
1/2+x,1/2-y,-z
1/2-x,y,1/2-z
1/2-x,1/2-y,-z
1/2+x,y,1/2-z
1/2-x,1/2+y,z
1/2+x,-y,1/2+z
loop_
_atom_site_type_symbol
_atom_site_label
_atom_site_fract_x
_atom_site_fract_y
_atom_site_fract_z
Si Si1 0.374203 0.929070 0.857040
Si Si2 0.130125 0.849412 0.035471
Si Si3 0.199715 0.000000 0.500000
Si Si4 0.627531 0.371415 0.289145
Si Si5 0.792605 0.716024 0.386237
O O1 0.500000 0.889506 0.837639
O O2 0.264407 0.865284 0.841734
O O3 0.367962 0.028387 0.822931
O O4 0.369699 0.944953 0.941674
O O5 0.139156 0.822253 0.953395
O O6 0.000000 0.872382 0.054429
O O7 0.181828 0.768419 0.081069
O O8 0.216846 0.933088 0.042862
O O9 0.500000 0.365207 0.252870
O O10 0.750000 0.360513 0.250000
O O11 0.633664 0.289868 0.345205
#
# Coordination Sequence:
#
# PCOD9477026 Si02
#       5
#    16  16   8  16  16
#     4  10  21  38  62  91 125 163 211 259 313 377
#     4  10  19  32  55  91 129 161 199 255 315 379
#     4  10  18  34  56  90 126 164 204 248 320 376
#     4  11  25  46  66  90 124 169 216 262 312 372
#     4  10  21  38  60  90 123 163 209 254 316 377
#
# _framework density 22.195421
#
# number of rings (size 3 to 8) (size 9 to 14) (size 15 to 20)
#    0.000    1.778    2.222    2.000    0.000    2.667 
#    0.000    4.444    0.000    0.000    0.000    0.000 
#    0.000    0.000    0.000    0.000    0.000    0.000 
#
# Total GULP energy -200951.169037 kJ/mol
# GULP energy per Si atom -5581.976918 kJ/mol
# Density = 2.214490 g / cm^3
# Si number density = 22.195421 Si / 1000 Ang^3
#
#
#
# Elastic Constant Matrix: (Units=GPa)
#
#
# Indices 1 2 3 4 5 6 
#
# 1 145.9826 22.7777 22.4045 0.0000 0.0000 0.0000
# 2 22.7777 92.3465 -2.3686 0.0000 0.0000 0.0000
# 3 22.4045 -2.3686 22.6150 0.0000 0.0000 0.0000
# 4 0.0000 0.0000 0.0000 17.3253 0.0000 0.0000
# 5 0.0000 0.0000 0.0000 0.0000 3.5568 0.0000
# 6 0.0000 0.0000 0.0000 0.0000 0.0000 14.0064
#
#
#
# Elastic Compliance Matrix: (Units=1/GPa)
#
#
# Indices 1 2 3 4 5 6 
#
# 1 0.008552 -0.002333 -0.008717 0.000000 0.000000 0.000000
# 2 -0.002333 0.011494 0.003515 0.000000 0.000000 0.000000
# 3 -0.008717 0.003515 0.053222 0.000000 0.000000 0.000000
# 4 0.000000 0.000000 0.000000 0.057719 0.000000 0.000000
# 5 0.000000 0.000000 0.000000 0.000000 0.281151 0.000000
# 6 0.000000 0.000000 0.000000 0.000000 0.000000 0.071396
#
#
# Mechanical properties :
#
#
# Convention : Reuss Voigt Hill
#
# Bulk Modulus (GPa) = 17.18232 38.50793 27.84512
# Shear Modulus (GPa) = 9.65245 21.51972 15.58609
#
# Velocity S-wave (km/s) = 2.08765 3.11715 2.65282
# Velocity P-wave (km/s) = 3.68364 5.50842 4.68572
#
# Compressibility (1/GPa) = 0.05819937
#
# Stress axis : x y z
#
# Youngs Moduli (GPa) = 116.93276 86.99903 18.78921
#
# Poissons Ratio (x) = 0.20296 0.16378
# Poissons Ratio (y) = 0.27280 -0.06605
# Poissons Ratio (z) = 1.01926 -0.30581
#
# Static dielectric constant tensor:
#      x y z
#    x 1.806320 0.000000 0.000000 
#    y 0.000000 1.864190 0.000000 
#    z 0.000000 0.000000 1.835010 
# 
# From -- ./inp_files/43845.got.cif
#   From: 2010.05.17/outbox.cif.g08.bks.cpg/sg64_22_cif.got.tgz:43845.got - 2010.06.03 16:29:19.
