data_PCOD9477126
_publ_section_title
;
Structure prediction by ZEFSAII (Michael W. Deem and Ramdas Pophale) SiO2 
 PCOD9477126
Probable space group: C M C A
;
_chemical_formula_sum "Si O2"
_cell_formula_units_Z 80
_cell_length_a 12.624683
_cell_length_b 13.360174
_cell_length_c 21.406975
_cell_angle_alpha 90.000000
_cell_angle_beta 90.000000
_cell_angle_gamma 90.000000
_cell_volume 3610.670837
_symmetry_space_group_name_H-M "C M C A"
_symmetry_group_IT_number 64
_symmetry_cell_setting 'orthorhombic'
loop_
_space_group_symop_operation_xyz
x,y,z
-x,1/2-y,1/2+z
x,-y,-z
-x,1/2+y,1/2-z
-x,-y,-z
x,1/2+y,1/2-z
-x,y,z
x,1/2-y,1/2+z
1/2+x,1/2+y,z
1/2-x,-y,1/2+z
1/2+x,1/2-y,-z
1/2-x,y,1/2-z
1/2-x,1/2-y,-z
1/2+x,y,1/2-z
1/2-x,1/2+y,z
1/2+x,-y,1/2+z
loop_
_atom_site_type_symbol
_atom_site_label
_atom_site_fract_x
_atom_site_fract_y
_atom_site_fract_z
Si Si1 0.884228 0.199438 0.361268
Si Si2 0.827549 0.702463 0.872153
Si Si3 0.119988 0.418669 0.594176
Si Si4 0.798318 0.005434 0.682187
Si Si5 0.308946 0.886955 0.991231
O O1 0.790318 0.275120 0.346718
O O2 0.867026 0.166965 0.433744
O O3 0.000000 0.240435 0.350734
O O4 0.865102 0.096321 0.324184
O O5 0.881930 0.810785 0.870392
O O6 0.864119 0.603676 0.836608
O O7 0.821942 0.671216 0.944733
O O8 0.200495 0.489131 0.633017
O O9 0.186181 0.397229 0.530760
O O10 0.000000 0.454157 0.585962
O O11 0.750000 0.014738 0.750000
O O12 0.349831 0.000000 0.000000
#
# Coordination Sequence:
#
# PCOD9477126 Si02
#       5
#    16  16  16  16  16
#     4  10  22  37  59  87 115 147 187 233 281 337
#     4  10  20  38  58  86 117 150 186 226 285 339
#     4  10  22  37  59  87 115 147 187 233 281 337
#     4  10  22  42  60  77 113 153 191 239 282 327
#     4  10  18  37  58  86 119 150 182 224 282 343
#
# _framework density 22.156547
#
# number of rings (size 3 to 8) (size 9 to 14) (size 15 to 20)
#    0.000    2.400    4.000    2.400    0.000    9.600 
#    0.000    0.000    0.000    0.000    0.000    0.000 
#    0.000    0.000    0.000    0.000    0.000    0.000 
#
# Total GULP energy -223298.451682 kJ/mol
# GULP energy per Si atom -5582.461292 kJ/mol
# Density = 2.210612 g / cm^3
# Si number density = 22.156547 Si / 1000 Ang^3
#
#
#
# Elastic Constant Matrix: (Units=GPa)
#
#
# Indices 1 2 3 4 5 6 
#
# 1 80.5999 -26.4363 -21.0914 0.0000 0.0000 0.0000
# 2 -26.4363 98.1565 -5.8671 0.0000 0.0000 0.0000
# 3 -21.0914 -5.8671 53.3914 0.0000 0.0000 0.0000
# 4 0.0000 0.0000 0.0000 6.4341 0.0000 0.0000
# 5 0.0000 0.0000 0.0000 0.0000 -4.0523 0.0000
# 6 0.0000 0.0000 0.0000 0.0000 0.0000 -4.3632
#
#
#
# Elastic Compliance Matrix: (Units=1/GPa)
#
#
# Indices 1 2 3 4 5 6 
#
# 1 0.015677 0.004623 0.006701 0.000000 0.000000 0.000000
# 2 0.004623 0.011618 0.003103 0.000000 0.000000 0.000000
# 3 0.006701 0.003103 0.021718 0.000000 0.000000 0.000000
# 4 0.000000 0.000000 0.000000 0.155423 0.000000 0.000000
# 5 0.000000 0.000000 0.000000 0.000000 -0.246774 0.000000
# 6 0.000000 0.000000 0.000000 0.000000 0.000000 -0.229191
#
#
# Mechanical properties :
#
#
# Convention : Reuss Voigt Hill
#
# Bulk Modulus (GPa) = 12.84269 13.92867 13.38568
# Shear Modulus (GPa) = -18.21974 18.63989 0.21008
#
# Velocity S-wave (km/s) = -2.87072 2.90363 0.30826
# Velocity P-wave (km/s) = 2.27577 4.18826 2.48621
#
# Compressibility (1/GPa) = 0.07786529
#
# Stress axis : x y z
#
# Youngs Moduli (GPa) = 63.78910 86.07109 46.04552
#
# Poissons Ratio (x) = -0.39788 -0.30854
# Poissons Ratio (y) = -0.29488 -0.14287
# Poissons Ratio (z) = -0.42744 -0.26707
#
# Static dielectric constant tensor:
#      x y z
#    x 1.831310 0.000000 0.000000 
#    y 0.000000 1.833820 0.000000 
#    z 0.000000 0.000000 1.813400 
# 
# From -- ./inp_files/38960.got.cif
#   From: 2010.05.17/outbox.cif.g08.bks.cpg/sg64_20_cif.got.tgz:38960.got - 2010.06.03 16:29:19.
