data_PCOD9477506
_publ_section_title
;
Structure prediction by ZEFSAII (Michael W. Deem and Ramdas Pophale) SiO2 
 PCOD9477506
Probable space group: C M C A
;
_chemical_formula_sum "Si O2"
_cell_formula_units_Z 96
_cell_length_a 8.516697
_cell_length_b 19.979296
_cell_length_c 31.459685
_cell_angle_alpha 90.000000
_cell_angle_beta 90.000000
_cell_angle_gamma 90.000000
_cell_volume 5353.104821
_symmetry_space_group_name_H-M "C M C A"
_symmetry_group_IT_number 64
_symmetry_cell_setting 'orthorhombic'
loop_
_space_group_symop_operation_xyz
x,y,z
-x,1/2-y,1/2+z
x,-y,-z
-x,1/2+y,1/2-z
-x,-y,-z
x,1/2+y,1/2-z
-x,y,z
x,1/2-y,1/2+z
1/2+x,1/2+y,z
1/2-x,-y,1/2+z
1/2+x,1/2-y,-z
1/2-x,y,1/2-z
1/2-x,1/2-y,-z
1/2+x,y,1/2-z
1/2-x,1/2+y,z
1/2+x,-y,1/2+z
loop_
_atom_site_type_symbol
_atom_site_label
_atom_site_fract_x
_atom_site_fract_y
_atom_site_fract_z
Si Si1 0.309016 0.003235 0.369855
Si Si2 0.811430 0.599620 0.702510
Si Si3 0.688289 0.390570 0.065518
Si Si4 0.311179 0.293593 0.361062
Si Si5 0.313537 0.822007 0.984589
Si Si6 0.810390 0.650387 0.390496
O O1 0.500000 0.003996 0.369195
O O2 0.253150 0.079257 0.372735
O O3 0.259199 0.961194 0.328472
O O4 0.264257 0.959569 0.411278
O O5 0.750000 0.592264 0.750000
O O6 0.748886 0.666871 0.680025
O O7 0.000000 0.601274 0.702399
O O8 0.500000 0.389153 0.061763
O O9 0.741309 0.332438 0.098161
O O10 0.762821 0.375573 0.020150
O O11 0.500000 0.297617 0.363077
O O12 0.262518 0.216170 0.364192
O O13 0.500000 0.818235 0.981959
O O14 0.244322 0.839708 0.938787
O O15 0.250000 0.750000 0.000000
O O16 0.000000 0.648885 0.390444
#
# Coordination Sequence:
#
# PCOD9477506 Si02
#       6
#    16  16  16  16  16  16
#     4   8  18  36  57  80 108 146 181 218 272 330
#     4  10  20  37  61  84 108 139 179 222 269 329
#     4  10  19  34  55  77 107 146 189 228 265 317
#     4  10  19  32  55  82 109 140 178 223 269 320
#     4  12  23  34  51  77 109 146 191 235 277 319
#     4  10  20  36  56  79 110 146 184 223 273 327
#
# _framework density 17.933516999999998
#
# number of rings (size 3 to 8) (size 9 to 14) (size 15 to 20)
#    0.000    2.000    1.667    4.000    0.000    1.333 
#    0.000    9.167    0.000    2.000    0.000    0.000 
#    0.000    0.000    0.000    0.000    0.000    0.000 
#
# Total GULP energy -267938.715666 kJ/mol
# GULP energy per Si atom -5582.056576 kJ/mol
# Density = 1.789270 g / cm^3
# Si number density = 17.933517 Si / 1000 Ang^3
#
#
#
# Elastic Constant Matrix: (Units=GPa)
#
#
# Indices 1 2 3 4 5 6 
#
# 1 19.2388 20.9119 1.4342 0.0000 0.0000 0.0000
# 2 20.9119 167.3318 66.4472 0.0000 0.0000 0.0000
# 3 1.4342 66.4472 108.5854 0.0000 0.0000 0.0000
# 4 0.0000 0.0000 0.0000 15.8673 0.0000 0.0000
# 5 0.0000 0.0000 0.0000 0.0000 30.4865 0.0000
# 6 0.0000 0.0000 0.0000 0.0000 0.0000 19.8226
#
#
#
# Elastic Compliance Matrix: (Units=1/GPa)
#
#
# Indices 1 2 3 4 5 6 
#
# 1 0.062300 -0.009853 0.005207 0.000000 0.000000 0.000000
# 2 -0.009853 0.009453 -0.005654 0.000000 0.000000 0.000000
# 3 0.005207 -0.005654 0.012601 0.000000 0.000000 0.000000
# 4 0.000000 0.000000 0.000000 0.063023 0.000000 0.000000
# 5 0.000000 0.000000 0.000000 0.000000 0.032801 0.000000
# 6 0.000000 0.000000 0.000000 0.000000 0.000000 0.050448
#
#
# Mechanical properties :
#
#
# Convention : Reuss Voigt Hill
#
# Bulk Modulus (GPa) = 15.68581 52.52693 34.10637
# Shear Modulus (GPa) = 18.35007 26.99279 22.67143
#
# Velocity S-wave (km/s) = 3.20226 3.88385 3.55941
# Velocity P-wave (km/s) = 4.73691 7.03319 5.99600
#
# Compressibility (1/GPa) = 0.06375189
#
# Stress axis : x y z
#
# Youngs Moduli (GPa) = 16.05127 105.78733 79.36054
#
# Poissons Ratio (x) = 1.04237 -0.41322
# Poissons Ratio (y) = 0.15816 0.44874
# Poissons Ratio (z) = -0.08358 0.59817
#
# Static dielectric constant tensor:
#      x y z
#    x 1.610600 0.000000 0.000000 
#    y 0.000000 1.634630 0.000000 
#    z 0.000000 0.000000 1.589050 
# 
# From -- ./inp_files/48104.got.cif
#   From: 2010.05.17/outbox.cif.g08.bks.cpg/sg64_25_cif.got.tgz:48104.got - 2010.06.03 16:29:19.
