data_PCOD9477955
_publ_section_title
;
Structure prediction by ZEFSAII (Michael W. Deem and Ramdas Pophale) SiO2 
 PCOD9477955
Probable space group: C M C A
;
_chemical_formula_sum "Si O2"
_cell_formula_units_Z 72
_cell_length_a 18.129788
_cell_length_b 10.213955
_cell_length_c 15.196746
_cell_angle_alpha 90.000000
_cell_angle_beta 90.000000
_cell_angle_gamma 90.000000
_cell_volume 2814.085384
_symmetry_space_group_name_H-M "C M C A"
_symmetry_group_IT_number 64
_symmetry_cell_setting 'orthorhombic'
loop_
_space_group_symop_operation_xyz
x,y,z
-x,1/2-y,1/2+z
x,-y,-z
-x,1/2+y,1/2-z
-x,-y,-z
x,1/2+y,1/2-z
-x,y,z
x,1/2-y,1/2+z
1/2+x,1/2+y,z
1/2-x,-y,1/2+z
1/2+x,1/2-y,-z
1/2-x,y,1/2-z
1/2-x,1/2-y,-z
1/2+x,y,1/2-z
1/2-x,1/2+y,z
1/2+x,-y,1/2+z
loop_
_atom_site_type_symbol
_atom_site_label
_atom_site_fract_x
_atom_site_fract_y
_atom_site_fract_z
Si Si1 0.500000 0.802541 0.590948
Si Si2 0.755273 0.965825 0.857050
Si Si3 0.838491 0.717790 0.643499
Si Si4 0.500000 0.998431 0.253808
Si Si5 0.125662 0.869051 0.338075
Si Si6 0.500000 0.287922 0.098061
O O1 0.573584 0.717680 0.602184
O O2 0.500000 0.860468 0.494745
O O3 0.500000 0.888034 0.677575
O O4 0.750000 0.968722 0.750000
O O5 0.728433 0.818500 0.880524
O O6 0.824916 0.061422 0.880498
O O7 0.690542 0.061454 0.888514
O O8 0.846600 0.709806 0.750939
O O9 0.916364 0.767746 0.604156
O O10 0.426902 0.984651 0.197996
O O11 0.500000 0.869788 0.313130
#
# Coordination Sequence:
#
# PCOD9477955 Si02
#       6
#     8  16  16   8  16   8
#     4  11  20  36  60  91 128 167 206 254 309 372
#     4  10  19  35  62  92 119 158 209 264 316 367
#     4  10  21  39  63  92 126 162 207 259 313 372
#     4   9  18  33  56  88 122 159 206 257 307 367
#     4   9  19  33  59  92 117 155 209 264 314 365
#     4  10  23  39  58  89 128 170 208 249 305 373
#
# _framework density 25.585577000000001
#
# number of rings (size 3 to 8) (size 9 to 14) (size 15 to 20)
#    0.000    2.222    0.000    4.333    0.000    5.333 
#    0.000    4.444    0.000   14.667    0.000    0.000 
#    0.000    0.000    0.000    0.000    0.000    0.000 
#
# Total GULP energy -200570.247076 kJ/mol
# GULP energy per Si atom -5571.395752 kJ/mol
# Density = 2.552734 g / cm^3
# Si number density = 25.585577 Si / 1000 Ang^3
#
#
#
# Elastic Constant Matrix: (Units=GPa)
#
#
# Indices 1 2 3 4 5 6 
#
# 1 108.9915 39.7409 10.5998 0.0000 0.0000 0.0000
# 2 39.7409 141.9642 32.1220 0.0000 0.0000 0.0000
# 3 10.5998 32.1220 56.4117 0.0000 0.0000 0.0000
# 4 0.0000 0.0000 0.0000 -63.7739 0.0000 0.0000
# 5 0.0000 0.0000 0.0000 0.0000 17.2185 0.0000
# 6 0.0000 0.0000 0.0000 0.0000 0.0000 48.5590
#
#
#
# Elastic Compliance Matrix: (Units=1/GPa)
#
#
# Indices 1 2 3 4 5 6 
#
# 1 0.010223 -0.002786 -0.000334 0.000000 0.000000 0.000000
# 2 -0.002786 0.008845 -0.004513 0.000000 0.000000 0.000000
# 3 -0.000334 -0.004513 0.020360 0.000000 0.000000 0.000000
# 4 0.000000 0.000000 0.000000 -0.015680 0.000000 0.000000
# 5 0.000000 0.000000 0.000000 0.000000 0.058077 0.000000
# 6 0.000000 0.000000 0.000000 0.000000 0.000000 0.020593
#
#
# Mechanical properties :
#
#
# Convention : Reuss Voigt Hill
#
# Bulk Modulus (GPa) = 41.38972 52.47698 46.93335
# Shear Modulus (GPa) = 39.76475 15.39438 27.57956
#
# Velocity S-wave (km/s) = 3.94659 2.45558 3.28675
# Velocity P-wave (km/s) = 6.08108 5.34741 5.72601
#
# Compressibility (1/GPa) = 0.02416059
#
# Stress axis : x y z
#
# Youngs Moduli (GPa) = 97.81401 113.05606 49.11711
#
# Poissons Ratio (x) = 0.31500 0.01643
# Poissons Ratio (y) = 0.27253 0.22167
# Poissons Ratio (z) = 0.03271 0.51023
#
# Static dielectric constant tensor:
#      x y z
#    x 2.187790 0.000000 0.000000 
#    y 0.000000 2.141570 0.000000 
#    z 0.000000 0.000000 1.940170 
# 
# From -- ./inp_files/32893.got.cif
#   From: 2010.05.17/outbox.cif.g08.bks.cpg/sg64_17_cif.got.tgz:32893.got - 2010.06.03 16:29:19.
