data_PCOD9477634
_publ_section_title
;
Structure prediction by ZEFSAII (Michael W. Deem and Ramdas Pophale) SiO2 
 PCOD9477634
Probable space group: C M C A
;
_chemical_formula_sum "Si O2"
_cell_formula_units_Z 112
_cell_length_a 14.170210
_cell_length_b 25.318729
_cell_length_c 13.407154
_cell_angle_alpha 90.000000
_cell_angle_beta 90.000000
_cell_angle_gamma 90.000000
_cell_volume 4810.107525
_symmetry_space_group_name_H-M "C M C A"
_symmetry_group_IT_number 64
_symmetry_cell_setting 'orthorhombic'
loop_
_space_group_symop_operation_xyz
x,y,z
-x,1/2-y,1/2+z
x,-y,-z
-x,1/2+y,1/2-z
-x,-y,-z
x,1/2+y,1/2-z
-x,y,z
x,1/2-y,1/2+z
1/2+x,1/2+y,z
1/2-x,-y,1/2+z
1/2+x,1/2-y,-z
1/2-x,y,1/2-z
1/2-x,1/2-y,-z
1/2+x,y,1/2-z
1/2-x,1/2+y,z
1/2+x,-y,1/2+z
loop_
_atom_site_type_symbol
_atom_site_label
_atom_site_fract_x
_atom_site_fract_y
_atom_site_fract_z
Si Si1 0.862647 0.331973 0.238698
Si Si2 0.654784 0.941990 0.315363
Si Si3 0.884144 0.053918 0.445694
Si Si4 0.883692 0.111829 0.017834
Si Si5 0.391451 0.668208 0.510513
Si Si6 0.606902 0.559360 0.220273
Si Si7 0.107601 0.775955 0.061669
O O1 0.750000 0.333375 0.250000
O O2 0.895402 0.391384 0.264651
O O3 0.888791 0.318444 0.127132
O O4 0.895355 0.291556 0.322512
O O5 0.750000 0.948040 0.250000
O O6 0.659049 0.924590 0.430571
O O7 0.605647 0.998189 0.310974
O O8 0.854397 0.108782 0.497121
O O9 0.850891 0.058423 0.331122
O O10 0.000000 0.050596 0.446492
O O11 0.851734 0.000000 0.500000
O O12 0.855109 0.092862 0.127555
O O13 0.000000 0.108413 0.009809
O O14 0.853728 0.171813 0.992673
O O15 0.500000 0.664010 0.474923
O O16 0.347410 0.718799 0.455509
O O17 0.500000 0.579167 0.233709
O O18 0.000000 0.771580 0.024041
#
# Coordination Sequence:
#
# PCOD9477634 Si02
#       7
#    16  16  16  16  16  16  16
#     4  10  21  36  54  77 106 145 185 222 271 327
#     4  10  20  34  51  78 112 147 185 222 268 326
#     4   9  18  32  52  81 113 142 175 218 273 336
#     4   9  18  34  57  84 112 142 182 233 283 330
#     4  10  20  35  57  82 108 141 181 227 276 326
#     4  10  19  33  56  82 109 143 182 229 283 332
#     4   9  19  35  56  82 108 136 177 228 274 322
#
# _framework density 23.284303000000001
#
# number of rings (size 3 to 8) (size 9 to 14) (size 15 to 20)
#    0.000    2.429    0.000    2.143    0.000    5.714 
#    0.000   12.857    0.000    1.714    0.000    0.000 
#    0.000    0.000    0.000    0.000    0.000    0.000 
#
# Total GULP energy -312747.283754 kJ/mol
# GULP energy per Si atom -5584.772924 kJ/mol
# Density = 2.323131 g / cm^3
# Si number density = 23.284303 Si / 1000 Ang^3
#
#
#
# Elastic Constant Matrix: (Units=GPa)
#
#
# Indices 1 2 3 4 5 6 
#
# 1 85.1740 14.3580 6.6440 0.0000 0.0000 0.0000
# 2 14.3580 168.8182 94.9408 0.0000 0.0000 0.0000
# 3 6.6440 94.9408 168.5556 0.0000 0.0000 0.0000
# 4 0.0000 0.0000 0.0000 29.6702 0.0000 0.0000
# 5 0.0000 0.0000 0.0000 0.0000 5.9766 0.0000
# 6 0.0000 0.0000 0.0000 0.0000 0.0000 17.4681
#
#
#
# Elastic Compliance Matrix: (Units=1/GPa)
#
#
# Indices 1 2 3 4 5 6 
#
# 1 0.011914 -0.001097 0.000148 0.000000 0.000000 0.000000
# 2 -0.001097 0.008771 -0.004897 0.000000 0.000000 0.000000
# 3 0.000148 -0.004897 0.008685 0.000000 0.000000 0.000000
# 4 0.000000 0.000000 0.000000 0.033704 0.000000 0.000000
# 5 0.000000 0.000000 0.000000 0.000000 0.167321 0.000000
# 6 0.000000 0.000000 0.000000 0.000000 0.000000 0.057247
#
#
# Mechanical properties :
#
#
# Convention : Reuss Voigt Hill
#
# Bulk Modulus (GPa) = 56.56453 72.71482 64.63968
# Shear Modulus (GPa) = 16.38133 31.06332 23.72232
#
# Velocity S-wave (km/s) = 2.65530 3.65648 3.19535
# Velocity P-wave (km/s) = 5.80918 7.00881 6.43700
#
# Compressibility (1/GPa) = 0.01767892
#
# Stress axis : x y z
#
# Youngs Moduli (GPa) = 83.93512 114.01460 115.13799
#
# Poissons Ratio (x) = 0.12502 -0.01704
# Poissons Ratio (y) = 0.09204 0.56383
# Poissons Ratio (z) = -0.01242 0.55833
#
# Static dielectric constant tensor:
#      x y z
#    x 1.966160 0.000000 0.000000 
#    y 0.000000 1.858190 0.000000 
#    z 0.000000 0.000000 1.840180 
# 
# From -- ./inp_files/17664.got.cif
#   From: 2010.05.17/outbox.cif.g08.bks.cpg/sg64_9_cif.got.tgz:17664.got - 2010.06.03 16:29:19.
