data_PCOD9477663
_publ_section_title
;
Structure prediction by ZEFSAII (Michael W. Deem and Ramdas Pophale) SiO2 
 PCOD9477663
Probable space group: C M C A
;
_chemical_formula_sum "Si O2"
_cell_formula_units_Z 96
_cell_length_a 18.619782
_cell_length_b 8.727899
_cell_length_c 31.246205
_cell_angle_alpha 90.000000
_cell_angle_beta 90.000000
_cell_angle_gamma 90.000000
_cell_volume 5077.870040
_symmetry_space_group_name_H-M "C M C A"
_symmetry_group_IT_number 64
_symmetry_cell_setting 'orthorhombic'
loop_
_space_group_symop_operation_xyz
x,y,z
-x,1/2-y,1/2+z
x,-y,-z
-x,1/2+y,1/2-z
-x,-y,-z
x,1/2+y,1/2-z
-x,y,z
x,1/2-y,1/2+z
1/2+x,1/2+y,z
1/2-x,-y,1/2+z
1/2+x,1/2-y,-z
1/2-x,y,1/2-z
1/2-x,1/2-y,-z
1/2+x,y,1/2-z
1/2-x,1/2+y,z
1/2+x,-y,1/2+z
loop_
_atom_site_type_symbol
_atom_site_label
_atom_site_fract_x
_atom_site_fract_y
_atom_site_fract_z
Si Si1 0.347034 0.567493 0.541425
Si Si2 0.679054 0.634310 0.779406
Si Si3 0.713761 0.135973 0.430768
Si Si4 0.585283 0.937036 0.780205
Si Si5 0.916423 0.938966 0.624827
Si Si6 0.816101 0.852720 0.123351
O O1 0.386724 0.500000 0.500000
O O2 0.328305 0.747230 0.538616
O O3 0.276481 0.458329 0.545489
O O4 0.386259 0.539423 0.586335
O O5 0.750000 0.628821 0.750000
O O6 0.641940 0.799208 0.780839
O O7 0.615185 0.536018 0.758590
O O8 0.698566 0.593594 0.828211
O O9 0.751022 0.252970 0.396849
O O10 0.671694 0.002720 0.405632
O O11 0.500000 0.898806 0.775621
O O12 0.594162 0.009473 0.827699
O O13 0.879566 0.771699 0.623744
O O14 0.000000 0.917843 0.618821
#
# Coordination Sequence:
#
# PCOD9477663 Si02
#       6
#    16  16  16  16  16  16
#     4  10  19  33  57  82 106 136 174 225 272 329
#     4  11  23  32  56  84 109 139 191 240 269 308
#     4   9  19  34  54  80 109 138 173 213 281 335
#     4  10  22  39  53  74 111 154 186 219 277 337
#     4   9  20  38  54  73 106 147 180 218 271 326
#     4   9  20  34  55  75 110 141 174 220 272 324
#
# _framework density 18.905564999999999
#
# number of rings (size 3 to 8) (size 9 to 14) (size 15 to 20)
#    0.000    2.333    0.000    1.500   11.667    1.000 
#    0.000    0.833    0.000    1.000    0.000    0.000 
#    0.000    0.000    0.000    0.000    0.000    0.000 
#
# Total GULP energy -267368.415418 kJ/mol
# GULP energy per Si atom -5570.175321 kJ/mol
# Density = 1.886254 g / cm^3
# Si number density = 18.905565 Si / 1000 Ang^3
#
#
#
# Elastic Constant Matrix: (Units=GPa)
#
#
# Indices 1 2 3 4 5 6 
#
# 1 48.9853 -5.4624 -8.2685 0.0000 0.0000 0.0000
# 2 -5.4624 44.8437 3.7507 0.0000 0.0000 0.0000
# 3 -8.2685 3.7507 44.4932 0.0000 0.0000 0.0000
# 4 0.0000 0.0000 0.0000 28.9054 0.0000 0.0000
# 5 0.0000 0.0000 0.0000 0.0000 11.2804 0.0000
# 6 0.0000 0.0000 0.0000 0.0000 0.0000 12.0524
#
#
#
# Elastic Compliance Matrix: (Units=1/GPa)
#
#
# Indices 1 2 3 4 5 6 
#
# 1 0.021304 0.002280 0.003767 0.000000 0.000000 0.000000
# 2 0.002280 0.022702 -0.001490 0.000000 0.000000 0.000000
# 3 0.003767 -0.001490 0.023301 0.000000 0.000000 0.000000
# 4 0.000000 0.000000 0.000000 0.034596 0.000000 0.000000
# 5 0.000000 0.000000 0.000000 0.000000 0.088649 0.000000
# 6 0.000000 0.000000 0.000000 0.000000 0.000000 0.082971
#
#
# Mechanical properties :
#
#
# Convention : Reuss Voigt Hill
#
# Bulk Modulus (GPa) = 13.08538 13.15133 13.11835
# Shear Modulus (GPa) = 17.24831 20.33447 18.79139
#
# Velocity S-wave (km/s) = 3.02377 3.28316 3.15613
# Velocity P-wave (km/s) = 4.37349 4.61992 4.49839
#
# Compressibility (1/GPa) = 0.07642119
#
# Stress axis : x y z
#
# Youngs Moduli (GPa) = 46.93870 44.04896 42.91667
#
# Poissons Ratio (x) = -0.10043 -0.16166
# Poissons Ratio (y) = -0.10702 0.06395
# Poissons Ratio (z) = -0.17682 0.06564
#
# Static dielectric constant tensor:
#      x y z
#    x 1.662450 0.000000 0.000000 
#    y 0.000000 1.698990 0.000000 
#    z 0.000000 0.000000 1.771060 
# 
# From -- ./inp_files/50644.got.cif
#   From: 2010.05.17/outbox.cif.g08.bks.cpg/sg64_26_cif.got.tgz:50644.got - 2010.06.03 16:29:19.
