data_PCOD9477248
_publ_section_title
;
Structure prediction by ZEFSAII (Michael W. Deem and Ramdas Pophale) SiO2 
 PCOD9477248
Probable space group: C M C A
;
_chemical_formula_sum "Si O2"
_cell_formula_units_Z 96
_cell_length_a 8.245353
_cell_length_b 24.267920
_cell_length_c 26.321358
_cell_angle_alpha 90.000000
_cell_angle_beta 90.000000
_cell_angle_gamma 90.000000
_cell_volume 5266.839695
_symmetry_space_group_name_H-M "C M C A"
_symmetry_group_IT_number 64
_symmetry_cell_setting 'orthorhombic'
loop_
_space_group_symop_operation_xyz
x,y,z
-x,1/2-y,1/2+z
x,-y,-z
-x,1/2+y,1/2-z
-x,-y,-z
x,1/2+y,1/2-z
-x,y,z
x,1/2-y,1/2+z
1/2+x,1/2+y,z
1/2-x,-y,1/2+z
1/2+x,1/2-y,-z
1/2-x,y,1/2-z
1/2-x,1/2-y,-z
1/2+x,y,1/2-z
1/2-x,1/2+y,z
1/2+x,-y,1/2+z
loop_
_atom_site_type_symbol
_atom_site_label
_atom_site_fract_x
_atom_site_fract_y
_atom_site_fract_z
Si Si1 0.814374 0.504451 0.559969
Si Si2 0.687400 0.383031 0.404904
Si Si3 0.806381 0.885616 0.905817
Si Si4 0.693804 0.433106 0.692700
Si Si5 0.196395 0.939797 0.307267
Si Si6 0.193974 0.187164 0.499800
O O1 0.827001 0.500000 0.500000
O O2 0.701834 0.555316 0.573266
O O3 0.746995 0.446099 0.577514
O O4 0.000000 0.513263 0.579445
O O5 0.500000 0.366268 0.398552
O O6 0.756589 0.394681 0.348354
O O7 0.759170 0.344226 0.449290
O O8 0.757011 0.887312 0.846810
O O9 0.000000 0.884881 0.909327
O O10 0.744419 0.842281 0.947169
O O11 0.500000 0.433679 0.690495
O O12 0.750000 0.421855 0.750000
O O13 0.750679 0.496704 0.681058
O O14 0.250000 0.927754 0.250000
O O15 0.000000 0.940103 0.309611
O O16 0.250000 0.250000 0.500000
O O17 0.000000 0.184530 0.502266
#
# Coordination Sequence:
#
# PCOD9477248 Si02
#       6
#    16  16  16  16  16  16
#     4  10  19  30  47  77 111 141 172 212 264 324
#     4  10  20  34  53  77 107 142 177 218 267 324
#     4  11  21  34  54  80 112 145 180 221 270 325
#     4  10  19  32  51  78 114 150 183 217 261 319
#     4   9  18  31  48  75 110 144 177 211 255 314
#     4  11  24  40  58  78 104 140 184 232 281 330
#
# _framework density 18.227249
#
# number of rings (size 3 to 8) (size 9 to 14) (size 15 to 20)
#    0.000    1.833    3.333    1.500    0.000    3.000 
#    0.000    0.000    0.000    1.000    0.000    4.667 
#    0.000    0.000    0.000    0.000    0.000    0.000 
#
# Total GULP energy -267385.486758 kJ/mol
# GULP energy per Si atom -5570.530974 kJ/mol
# Density = 1.818576 g / cm^3
# Si number density = 18.227249 Si / 1000 Ang^3
#
#
#
# Elastic Constant Matrix: (Units=GPa)
#
#
# Indices 1 2 3 4 5 6 
#
# 1 22.2449 12.8685 17.2645 0.0000 0.0000 0.0000
# 2 12.8685 97.0527 71.2386 0.0000 0.0000 0.0000
# 3 17.2645 71.2386 161.6276 0.0000 0.0000 0.0000
# 4 0.0000 0.0000 0.0000 11.5103 0.0000 0.0000
# 5 0.0000 0.0000 0.0000 0.0000 24.9220 0.0000
# 6 0.0000 0.0000 0.0000 0.0000 0.0000 25.9348
#
#
#
# Elastic Compliance Matrix: (Units=1/GPa)
#
#
# Indices 1 2 3 4 5 6 
#
# 1 0.050051 -0.004009 -0.003579 0.000000 0.000000 0.000000
# 2 -0.004009 0.015553 -0.006427 0.000000 0.000000 0.000000
# 3 -0.003579 -0.006427 0.009402 0.000000 0.000000 0.000000
# 4 0.000000 0.000000 0.000000 0.086879 0.000000 0.000000
# 5 0.000000 0.000000 0.000000 0.000000 0.040125 0.000000
# 6 0.000000 0.000000 0.000000 0.000000 0.000000 0.038558
#
#
# Mechanical properties :
#
#
# Convention : Reuss Voigt Hill
#
# Bulk Modulus (GPa) = 21.28762 53.74091 37.51427
# Shear Modulus (GPa) = 17.58971 24.44365 21.01668
#
# Velocity S-wave (km/s) = 3.10985 3.66601 3.39932
# Velocity P-wave (km/s) = 4.95977 6.88965 6.00277
#
# Compressibility (1/GPa) = 0.04697566
#
# Stress axis : x y z
#
# Youngs Moduli (GPa) = 19.97951 64.29805 106.36054
#
# Poissons Ratio (x) = 0.25779 0.38069
# Poissons Ratio (y) = 0.08010 0.68354
# Poissons Ratio (z) = 0.07151 0.41322
#
# Static dielectric constant tensor:
#      x y z
#    x 1.667390 0.000000 0.000000 
#    y 0.000000 1.608980 0.000000 
#    z 0.000000 0.000000 1.724040 
# 
# From -- ./inp_files/42953.got.cif
#   From: 2010.05.17/outbox.cif.g08.bks.cpg/sg64_22_cif.got.tgz:42953.got - 2010.06.03 16:29:19.
