data_PCOD9477759
_publ_section_title
;
Structure prediction by ZEFSAII (Michael W. Deem and Ramdas Pophale) SiO2 
 PCOD9477759
Probable space group: C M C A
;
_chemical_formula_sum "Si O2"
_cell_formula_units_Z 80
_cell_length_a 8.272004
_cell_length_b 18.829772
_cell_length_c 26.570705
_cell_angle_alpha 90.000000
_cell_angle_beta 90.000000
_cell_angle_gamma 90.000000
_cell_volume 4138.651664
_symmetry_space_group_name_H-M "C M C A"
_symmetry_group_IT_number 64
_symmetry_cell_setting 'orthorhombic'
loop_
_space_group_symop_operation_xyz
x,y,z
-x,1/2-y,1/2+z
x,-y,-z
-x,1/2+y,1/2-z
-x,-y,-z
x,1/2+y,1/2-z
-x,y,z
x,1/2-y,1/2+z
1/2+x,1/2+y,z
1/2-x,-y,1/2+z
1/2+x,1/2-y,-z
1/2-x,y,1/2-z
1/2-x,1/2-y,-z
1/2+x,y,1/2-z
1/2-x,1/2+y,z
1/2+x,-y,1/2+z
loop_
_atom_site_type_symbol
_atom_site_label
_atom_site_fract_x
_atom_site_fract_y
_atom_site_fract_z
Si Si1 0.695434 0.418399 0.500228
Si Si2 0.304457 0.167548 0.402062
Si Si3 0.193382 0.581869 0.805378
Si Si4 0.306630 0.580077 0.194610
Si Si5 0.302275 0.169375 0.902278
O O1 0.752027 0.500000 0.500000
O O2 0.500000 0.419429 0.499454
O O3 0.749600 0.377535 0.550047
O O4 0.750373 0.376083 0.450582
O O5 0.500000 0.168138 0.401306
O O6 0.248110 0.129886 0.350641
O O7 0.249008 0.249058 0.405551
O O8 0.250000 0.604787 0.750000
O O9 0.249725 0.500867 0.813387
O O10 0.250989 0.631688 0.850722
O O11 0.000000 0.581865 0.805603
O O12 0.500000 0.580142 0.194472
O O13 0.250000 0.602989 0.250000
O O14 0.500000 0.169269 0.902188
#
# Coordination Sequence:
#
# PCOD9477759 Si02
#       5
#    16  16  16  16  16
#     4  10  20  35  56  79 102 134 175 212 253 309
#     4  10  21  36  53  76 106 137 170 212 260 304
#     4  10  19  34  56  78 104 137 173 214 256 301
#     4  10  20  34  53  76 103 135 172 212 254 302
#     4   9  19  35  53  75 106 139 169 208 258 307
#
# _framework density 19.329967
#
# number of rings (size 3 to 8) (size 9 to 14) (size 15 to 20)
#    0.000    2.200    0.000    4.200    0.000    4.400 
#    0.000    4.000    0.000    0.000    0.000    0.000 
#    0.000    0.000    0.000    0.000    0.000    0.000 
#
# Total GULP energy -223395.860933 kJ/mol
# GULP energy per Si atom -5584.896523 kJ/mol
# Density = 1.928597 g / cm^3
# Si number density = 19.329967 Si / 1000 Ang^3
#
#
#
# Elastic Constant Matrix: (Units=GPa)
#
#
# Indices 1 2 3 4 5 6 
#
# 1 20.0407 16.9918 19.3355 0.0000 0.0000 0.0000
# 2 16.9918 179.6021 147.8751 0.0000 0.0000 0.0000
# 3 19.3355 147.8751 217.3166 0.0000 0.0000 0.0000
# 4 0.0000 0.0000 0.0000 12.2244 0.0000 0.0000
# 5 0.0000 0.0000 0.0000 0.0000 -19.9325 0.0000
# 6 0.0000 0.0000 0.0000 0.0000 0.0000 -0.0449
#
#
#
# Elastic Compliance Matrix: (Units=1/GPa)
#
#
# Indices 1 2 3 4 5 6 
#
# 1 0.055144 -0.002678 -0.003084 0.000000 0.000000 0.000000
# 2 -0.002678 0.012792 -0.008466 0.000000 0.000000 0.000000
# 3 -0.003084 -0.008466 0.010637 0.000000 0.000000 0.000000
# 4 0.000000 0.000000 0.000000 0.081804 0.000000 0.000000
# 5 0.000000 0.000000 0.000000 0.000000 -0.050169 0.000000
# 6 0.000000 0.000000 0.000000 0.000000 0.000000-22.286750
#
#
# Mechanical properties :
#
#
# Convention : Reuss Voigt Hill
#
# Bulk Modulus (GPa) = 19.95334 87.26269 53.60801
# Shear Modulus (GPa) = -0.22592 13.96654 6.87031
#
# Velocity S-wave (km/s) = -0.34224 2.69091 1.88731
# Velocity P-wave (km/s) = 3.19198 7.40921 5.70461
#
# Compressibility (1/GPa) = 0.05011693
#
# Stress axis : x y z
#
# Youngs Moduli (GPa) = 18.13420 78.17644 94.01386
#
# Poissons Ratio (x) = 0.20932 0.28998
# Poissons Ratio (y) = 0.04855 0.79591
# Poissons Ratio (z) = 0.05593 0.66184
#
# Static dielectric constant tensor:
#      x y z
#    x 1.673640 0.000000 0.000000 
#    y 0.000000 1.650960 0.000000 
#    z 0.000000 0.000000 1.656100 
# 
# From -- ./inp_files/47823.got.cif
#   From: 2010.05.17/outbox.cif.g08.bks.cpg/sg64_24_cif.got.tgz:47823.got - 2010.06.03 16:29:19.
