data_PCOD9477946
_publ_section_title
;
Structure prediction by ZEFSAII (Michael W. Deem and Ramdas Pophale) SiO2 
 PCOD9477946
Probable space group: C M C A
;
_chemical_formula_sum "Si O2"
_cell_formula_units_Z 88
_cell_length_a 11.566647
_cell_length_b 22.127339
_cell_length_c 15.378793
_cell_angle_alpha 90.000000
_cell_angle_beta 90.000000
_cell_angle_gamma 90.000000
_cell_volume 3936.034736
_symmetry_space_group_name_H-M "C M C A"
_symmetry_group_IT_number 64
_symmetry_cell_setting 'orthorhombic'
loop_
_space_group_symop_operation_xyz
x,y,z
-x,1/2-y,1/2+z
x,-y,-z
-x,1/2+y,1/2-z
-x,-y,-z
x,1/2+y,1/2-z
-x,y,z
x,1/2-y,1/2+z
1/2+x,1/2+y,z
1/2-x,-y,1/2+z
1/2+x,1/2-y,-z
1/2-x,y,1/2-z
1/2-x,1/2-y,-z
1/2+x,y,1/2-z
1/2-x,1/2+y,z
1/2+x,-y,1/2+z
loop_
_atom_site_type_symbol
_atom_site_label
_atom_site_fract_x
_atom_site_fract_y
_atom_site_fract_z
Si Si1 0.127140 0.649448 0.226598
Si Si2 0.750000 0.658042 0.750000
Si Si3 0.871299 0.518943 0.296662
Si Si4 0.787348 0.154072 0.456254
Si Si5 0.632715 0.586285 0.911028
Si Si6 0.871932 0.265244 0.105469
O O1 0.250000 0.680272 0.250000
O O2 0.124871 0.591352 0.289943
O O3 0.144668 0.628940 0.126616
O O4 0.000000 0.679010 0.229387
O O5 0.680629 0.619343 0.822889
O O6 0.834239 0.699762 0.807644
O O7 0.750000 0.503050 0.250000
O O8 0.864459 0.484677 0.388061
O O9 0.000000 0.499606 0.260576
O O10 0.709035 0.106899 0.508181
O O11 0.866253 0.185253 0.528915
O O12 0.710278 0.210212 0.421828
O O13 0.500000 0.604790 0.924856
O O14 0.000000 0.240853 0.111057
#
# Coordination Sequence:
#
# PCOD9477946 Si02
#       6
#    16   8  16  16  16  16
#     4  10  22  41  64  91 124 164 207 257 312 370
#     4  10  20  34  58  90 116 158 208 256 304 366
#     4   9  18  36  61  88 117 153 203 253 302 363
#     4  10  22  38  58  89 124 162 206 253 311 368
#     4  10  19  35  61  90 120 159 206 257 309 368
#     4  10  21  38  58  86 124 162 203 253 305 365
#
# _framework density 22.357526
#
# number of rings (size 3 to 8) (size 9 to 14) (size 15 to 20)
#    0.000    2.182    0.909    1.636    1.273    1.455 
#    0.000    6.364    0.000   15.273    0.000    0.000 
#    0.000    0.000    0.000    0.000    0.000    0.000 
#
# Total GULP energy -245287.500155 kJ/mol
# GULP energy per Si atom -5574.715913 kJ/mol
# Density = 2.230664 g / cm^3
# Si number density = 22.357526 Si / 1000 Ang^3
#
#
#
# Elastic Constant Matrix: (Units=GPa)
#
#
# Indices 1 2 3 4 5 6 
#
# 1 167.6072 4.5791 33.8928 0.0000 0.0000 0.0000
# 2 4.5791 64.9838 28.7472 0.0000 0.0000 0.0000
# 3 33.8928 28.7472 118.8872 0.0000 0.0000 0.0000
# 4 0.0000 0.0000 0.0000 31.4535 0.0000 0.0000
# 5 0.0000 0.0000 0.0000 0.0000 11.3581 0.0000
# 6 0.0000 0.0000 0.0000 0.0000 0.0000 30.4859
#
#
#
# Elastic Compliance Matrix: (Units=1/GPa)
#
#
# Indices 1 2 3 4 5 6 
#
# 1 0.006340 0.000395 -0.001903 0.000000 0.000000 0.000000
# 2 0.000395 0.017256 -0.004285 0.000000 0.000000 0.000000
# 3 -0.001903 -0.004285 0.009990 0.000000 0.000000 0.000000
# 4 0.000000 0.000000 0.000000 0.031793 0.000000 0.000000
# 5 0.000000 0.000000 0.000000 0.000000 0.088043 0.000000
# 6 0.000000 0.000000 0.000000 0.000000 0.000000 0.032802
#
#
# Mechanical properties :
#
#
# Convention : Reuss Voigt Hill
#
# Bulk Modulus (GPa) = 45.45399 53.99071 49.72235
# Shear Modulus (GPa) = 24.37304 33.61011 28.99157
#
# Velocity S-wave (km/s) = 3.30532 3.88145 3.60491
# Velocity P-wave (km/s) = 5.91114 6.65498 6.29406
#
# Compressibility (1/GPa) = 0.02200027
#
# Stress axis : x y z
#
# Youngs Moduli (GPa) = 157.71954 57.94992 100.09956
#
# Poissons Ratio (x) = -0.02290 0.19050
# Poissons Ratio (y) = -0.06231 0.42895
# Poissons Ratio (z) = 0.30015 0.24833
#
# Static dielectric constant tensor:
#      x y z
#    x 1.854910 0.000000 0.000000 
#    y 0.000000 1.837330 0.000000 
#    z 0.000000 0.000000 1.848380 
# 
# From -- ./inp_files/22441.got.cif
#   From: 2010.05.17/outbox.cif.g08.bks.cpg/sg64_12_cif.got.tgz:22441.got - 2010.06.03 16:29:19.
