data_PCOD9477062
_publ_section_title
;
Structure prediction by ZEFSAII (Michael W. Deem and Ramdas Pophale) SiO2 
 PCOD9477062
Probable space group: C M C A
;
_chemical_formula_sum "Si O2"
_cell_formula_units_Z 68
_cell_length_a 14.260035
_cell_length_b 8.827089
_cell_length_c 22.030559
_cell_angle_alpha 90.000000
_cell_angle_beta 90.000000
_cell_angle_gamma 90.000000
_cell_volume 2773.087760
_symmetry_space_group_name_H-M "C M C A"
_symmetry_group_IT_number 64
_symmetry_cell_setting 'orthorhombic'
loop_
_space_group_symop_operation_xyz
x,y,z
-x,1/2-y,1/2+z
x,-y,-z
-x,1/2+y,1/2-z
-x,-y,-z
x,1/2+y,1/2-z
-x,y,z
x,1/2-y,1/2+z
1/2+x,1/2+y,z
1/2-x,-y,1/2+z
1/2+x,1/2-y,-z
1/2-x,y,1/2-z
1/2-x,1/2-y,-z
1/2+x,y,1/2-z
1/2-x,1/2+y,z
1/2+x,-y,1/2+z
loop_
_atom_site_type_symbol
_atom_site_label
_atom_site_fract_x
_atom_site_fract_y
_atom_site_fract_z
Si Si1 0.000000 0.690458 0.940444
Si Si2 0.500000 0.175524 0.305428
Si Si3 0.340070 0.000000 0.000000
Si Si4 0.321457 0.345197 0.303332
Si Si5 0.500000 0.500000 0.000000
Si Si6 0.680796 0.148282 0.121151
Si Si7 0.500000 0.633359 0.868462
O O1 0.091477 0.595626 0.957130
O O2 0.000000 0.742896 0.871547
O O3 0.000000 0.820195 0.989957
O O4 0.407113 0.246846 0.276597
O O5 0.500000 0.994025 0.314393
O O6 0.290871 0.102356 0.051427
O O7 0.250000 0.383799 0.250000
O O8 0.342494 0.500553 0.338520
O O9 0.231188 0.233718 0.150062
O O10 0.500000 0.524806 0.926593
O O11 0.592057 0.261175 0.125777
#
# Coordination Sequence:
#
# PCOD9477062 Si02
#       7
#     8   8   8  16   4  16   8
#     4  10  18  38  70 111 150 204 239 300 380 467
#     4  11  24  49  78 112 147 205 254 320 399 450
#     4  11  20  40  73 112 162 200 242 311 385 462
#     4  12  28  51  78 110 154 202 275 324 381 464
#     4  10  18  34  70 114 158 200 248 294 378 466
#     4  12  25  47  74 117 159 207 257 320 389 458
#     4  11  23  42  80 111 160 197 253 315 385 473
#
# _framework density 24.521402999999999
#
# number of rings (size 3 to 8) (size 9 to 14) (size 15 to 20)
#    0.000    0.706    4.706    3.529    0.000    1.882 
#    0.000    7.059    0.000    0.000    0.000    0.000 
#    0.000    0.000    0.000    0.000    0.000    0.000 
#
# Total GULP energy -189845.738251 kJ/mol
# GULP energy per Si atom -5583.698184 kJ/mol
# Density = 2.446559 g / cm^3
# Si number density = 24.521403 Si / 1000 Ang^3
#
#
#
# Elastic Constant Matrix: (Units=GPa)
#
#
# Indices 1 2 3 4 5 6 
#
# 1 101.3286 43.2055 14.8418 0.0000 0.0000 0.0000
# 2 43.2055 139.3889 35.6827 0.0000 0.0000 0.0000
# 3 14.8418 35.6827 119.3378 0.0000 0.0000 0.0000
# 4 0.0000 0.0000 0.0000 51.0989 0.0000 0.0000
# 5 0.0000 0.0000 0.0000 0.0000 39.9470 0.0000
# 6 0.0000 0.0000 0.0000 0.0000 0.0000 -59.9633
#
#
#
# Elastic Compliance Matrix: (Units=1/GPa)
#
#
# Indices 1 2 3 4 5 6 
#
# 1 0.011389 -0.003430 -0.000391 0.000000 0.000000 0.000000
# 2 -0.003430 0.008802 -0.002205 0.000000 0.000000 0.000000
# 3 -0.000391 -0.002205 0.009088 0.000000 0.000000 0.000000
# 4 0.000000 0.000000 0.000000 0.019570 0.000000 0.000000
# 5 0.000000 0.000000 0.000000 0.000000 0.025033 0.000000
# 6 0.000000 0.000000 0.000000 0.000000 0.000000 -0.016677
#
#
# Mechanical properties :
#
#
# Convention : Reuss Voigt Hill
#
# Bulk Modulus (GPa) = 58.05178 60.83502 59.44340
# Shear Modulus (GPa) = 66.66813 23.97154 45.31983
#
# Velocity S-wave (km/s) = 5.21984 3.13001 4.30370
# Velocity P-wave (km/s) = 7.74947 6.15836 6.99928
#
# Compressibility (1/GPa) = 0.01722600
#
# Stress axis : x y z
#
# Youngs Moduli (GPa) = 87.80672 113.61211 110.04062
#
# Poissons Ratio (x) = 0.38969 0.04300
# Poissons Ratio (y) = 0.30118 0.24266
# Poissons Ratio (z) = 0.03431 0.25054
#
# Static dielectric constant tensor:
#      x y z
#    x 1.970640 0.000000 0.000000 
#    y 0.000000 1.937290 0.000000 
#    z 0.000000 0.000000 1.990940 
# 
# From -- ./inp_files/39894.got.cif
#   From: 2010.05.17/outbox.cif.g08.bks.cpg/sg64_20_cif.got.tgz:39894.got - 2010.06.03 16:29:19.
