data_PCOD9477194
_publ_section_title
;
Structure prediction by ZEFSAII (Michael W. Deem and Ramdas Pophale) SiO2 
 PCOD9477194
Probable space group: C M C A
;
_chemical_formula_sum "Si O2"
_cell_formula_units_Z 96
_cell_length_a 9.414806
_cell_length_b 14.511918
_cell_length_c 32.348962
_cell_angle_alpha 90.000000
_cell_angle_beta 90.000000
_cell_angle_gamma 90.000000
_cell_volume 4419.738159
_symmetry_space_group_name_H-M "C M C A"
_symmetry_group_IT_number 64
_symmetry_cell_setting 'orthorhombic'
loop_
_space_group_symop_operation_xyz
x,y,z
-x,1/2-y,1/2+z
x,-y,-z
-x,1/2+y,1/2-z
-x,-y,-z
x,1/2+y,1/2-z
-x,y,z
x,1/2-y,1/2+z
1/2+x,1/2+y,z
1/2-x,-y,1/2+z
1/2+x,1/2-y,-z
1/2-x,y,1/2-z
1/2-x,1/2-y,-z
1/2+x,y,1/2-z
1/2-x,1/2+y,z
1/2+x,-y,1/2+z
loop_
_atom_site_type_symbol
_atom_site_label
_atom_site_fract_x
_atom_site_fract_y
_atom_site_fract_z
Si Si1 0.341029 0.625884 0.131334
Si Si2 0.836203 0.601130 0.048816
Si Si3 0.838099 0.623358 0.209577
Si Si4 0.161993 0.651109 0.709384
Si Si5 0.161028 0.156530 0.630743
Si Si6 0.662910 0.619744 0.540821
O O1 0.500000 0.585893 0.131025
O O2 0.263294 0.617586 0.087587
O O3 0.242331 0.591555 0.168401
O O4 0.354668 0.735105 0.138850
O O5 0.842566 0.490889 0.043508
O O6 0.000000 0.632388 0.055566
O O7 0.780064 0.641053 0.005008
O O8 0.750000 0.596814 0.250000
O O9 0.842529 0.736080 0.209128
O O10 0.000000 0.590685 0.211008
O O11 0.250000 0.624622 0.750000
O O12 0.241523 0.620954 0.667628
O O13 0.000000 0.618439 0.711092
O O14 0.227060 0.148701 0.584710
O O15 0.000000 0.115843 0.630530
O O16 0.500000 0.655263 0.541170
#
# Coordination Sequence:
#
# PCOD9477194 Si02
#       6
#    16  16  16  16  16  16
#     4  10  19  29  44  70 100 125 151 188 234 278
#     4   9  17  32  52  69  88 120 161 197 231 277
#     4   9  16  27  44  66  93 124 156 189 226 271
#     4   9  16  26  42  66  94 123 154 187 226 272
#     4   9  17  30  47  68  95 124 154 190 231 274
#     4   8  16  32  52  69  87 120 162 196 230 277
#
# _framework density 21.720742999999999
#
# number of rings (size 3 to 8) (size 9 to 14) (size 15 to 20)
#    0.000    3.000    0.000    2.500    0.000    5.333 
#    0.000    3.333    0.000    1.000    0.000    4.667 
#    0.000    0.000    0.000    0.000    0.000    0.000 
#
# Total GULP energy -267734.175102 kJ/mol
# GULP energy per Si atom -5577.795315 kJ/mol
# Density = 2.167131 g / cm^3
# Si number density = 21.720743 Si / 1000 Ang^3
#
#
#
# Elastic Constant Matrix: (Units=GPa)
#
#
# Indices 1 2 3 4 5 6 
#
# 1 164.1630 6.9184 131.8037 0.0000 0.0000 0.0000
# 2 6.9184 38.4725 -6.8999 0.0000 0.0000 0.0000
# 3 131.8037 -6.8999 247.4174 0.0000 0.0000 0.0000
# 4 0.0000 0.0000 0.0000 39.1542 0.0000 0.0000
# 5 0.0000 0.0000 0.0000 0.0000 27.1102 0.0000
# 6 0.0000 0.0000 0.0000 0.0000 0.0000 -2.5092
#
#
#
# Elastic Compliance Matrix: (Units=1/GPa)
#
#
# Indices 1 2 3 4 5 6 
#
# 1 0.010987 -0.003041 -0.005938 0.000000 0.000000 0.000000
# 2 -0.003041 0.026965 0.002372 0.000000 0.000000 0.000000
# 3 -0.005938 0.002372 0.007271 0.000000 0.000000 0.000000
# 4 0.000000 0.000000 0.000000 0.025540 0.000000 0.000000
# 5 0.000000 0.000000 0.000000 0.000000 0.036886 0.000000
# 6 0.000000 0.000000 0.000000 0.000000 0.000000 -0.398530
#
#
# Mechanical properties :
#
#
# Convention : Reuss Voigt Hill
#
# Bulk Modulus (GPa) = 31.24066 79.29970 55.27018
# Shear Modulus (GPa) = -18.72677 33.96642 7.61982
#
# Velocity S-wave (km/s) = -2.93944 3.95875 1.87502
# Velocity P-wave (km/s) = 1.70108 7.58180 5.49442
#
# Compressibility (1/GPa) = 0.03200956
#
# Stress axis : x y z
#
# Youngs Moduli (GPa) = 91.01690 37.08539 137.53181
#
# Poissons Ratio (x) = 0.11276 0.81663
# Poissons Ratio (y) = 0.27675 -0.32620
# Poissons Ratio (z) = 0.54044 -0.08796
#
# Static dielectric constant tensor:
#      x y z
#    x 1.778780 0.000000 0.000000 
#    y 0.000000 1.835050 0.000000 
#    z 0.000000 0.000000 1.798410 
# 
# From -- ./inp_files/43019.got.cif
#   From: 2010.05.17/outbox.cif.g08.bks.cpg/sg64_22_cif.got.tgz:43019.got - 2010.06.03 16:29:19.
