data_PCOD9477736
_publ_section_title
;
Structure prediction by ZEFSAII (Michael W. Deem and Ramdas Pophale) SiO2 
 PCOD9477736
Probable space group: C M C A
;
_chemical_formula_sum "Si O2"
_cell_formula_units_Z 96
_cell_length_a 8.978358
_cell_length_b 19.711738
_cell_length_c 31.206497
_cell_angle_alpha 90.000000
_cell_angle_beta 90.000000
_cell_angle_gamma 90.000000
_cell_volume 5522.895898
_symmetry_space_group_name_H-M "C M C A"
_symmetry_group_IT_number 64
_symmetry_cell_setting 'orthorhombic'
loop_
_space_group_symop_operation_xyz
x,y,z
-x,1/2-y,1/2+z
x,-y,-z
-x,1/2+y,1/2-z
-x,-y,-z
x,1/2+y,1/2-z
-x,y,z
x,1/2-y,1/2+z
1/2+x,1/2+y,z
1/2-x,-y,1/2+z
1/2+x,1/2-y,-z
1/2-x,y,1/2-z
1/2-x,1/2-y,-z
1/2+x,y,1/2-z
1/2-x,1/2+y,z
1/2+x,-y,1/2+z
loop_
_atom_site_type_symbol
_atom_site_label
_atom_site_fract_x
_atom_site_fract_y
_atom_site_fract_z
Si Si1 0.677807 0.344034 0.296152
Si Si2 0.822610 0.077811 0.489009
Si Si3 0.177085 0.396273 0.888543
Si Si4 0.822522 0.353712 0.432824
Si Si5 0.678082 0.745134 0.126573
Si Si6 0.679052 0.453974 0.364230
O O1 0.500000 0.341298 0.291389
O O2 0.750000 0.337678 0.250000
O O3 0.721059 0.285428 0.330037
O O4 0.714815 0.414461 0.320483
O O5 0.795758 0.092197 0.439157
O O6 0.736008 0.128601 0.520030
O O7 0.000000 0.084145 0.497221
O O8 0.780947 0.000000 0.500000
O O9 0.267177 0.331636 0.872760
O O10 0.215817 0.466897 0.865366
O O11 0.000000 0.384307 0.883062
O O12 0.753979 0.285464 0.412658
O O13 0.761217 0.413943 0.402197
O O14 0.000000 0.350867 0.431620
O O15 0.500000 0.749699 0.122166
O O16 0.500000 0.447512 0.371761
#
# Coordination Sequence:
#
# PCOD9477736 Si02
#       6
#    16  16  16  16  16  16
#     4   9  19  36  60  83 105 137 176 218 268 327
#     4  10  19  34  55  77 107 150 188 224 273 320
#     4  10  20  35  57  81 108 145 185 222 268 323
#     4  11  21  33  53  80 108 143 189 232 265 310
#     4  10  22  39  56  77 111 148 181 223 277 327
#     4   9  18  36  57  79 109 143 176 216 271 326
#
# _framework density 17.382185
#
# number of rings (size 3 to 8) (size 9 to 14) (size 15 to 20)
#    0.000    2.167    1.667    3.000    0.000    5.667 
#    0.000    0.833    0.000    4.000    0.000    0.000 
#    0.000    0.000    0.000    0.000    0.000    0.000 
#
# Total GULP energy -267929.144177 kJ/mol
# GULP energy per Si atom -5581.857170 kJ/mol
# Density = 1.734262 g / cm^3
# Si number density = 17.382185 Si / 1000 Ang^3
#
#
#
# Elastic Constant Matrix: (Units=GPa)
#
#
# Indices 1 2 3 4 5 6 
#
# 1 47.6763 48.2786 37.6183 0.0000 0.0000 0.0000
# 2 48.2786 129.9839 44.5922 0.0000 0.0000 0.0000
# 3 37.6183 44.5922 79.6313 0.0000 0.0000 0.0000
# 4 0.0000 0.0000 0.0000 13.4897 0.0000 0.0000
# 5 0.0000 0.0000 0.0000 0.0000 28.9325 0.0000
# 6 0.0000 0.0000 0.0000 0.0000 0.0000 22.9856
#
#
#
# Elastic Compliance Matrix: (Units=1/GPa)
#
#
# Indices 1 2 3 4 5 6 
#
# 1 0.043757 -0.011339 -0.014321 0.000000 0.000000 0.000000
# 2 -0.011339 0.012461 -0.001621 0.000000 0.000000 0.000000
# 3 -0.014321 -0.001621 0.020231 0.000000 0.000000 0.000000
# 4 0.000000 0.000000 0.000000 0.074131 0.000000 0.000000
# 5 0.000000 0.000000 0.000000 0.000000 0.034563 0.000000
# 6 0.000000 0.000000 0.000000 0.000000 0.000000 0.043505
#
#
# Mechanical properties :
#
#
# Convention : Reuss Voigt Hill
#
# Bulk Modulus (GPa) = 45.69164 57.58552 51.63858
# Shear Modulus (GPa) = 17.21120 21.53506 19.37313
#
# Velocity S-wave (km/s) = 3.15010 3.52364 3.34209
# Velocity P-wave (km/s) = 6.29082 7.05377 6.68319
#
# Compressibility (1/GPa) = 0.02188584
#
# Stress axis : x y z
#
# Youngs Moduli (GPa) = 22.85324 80.24992 49.42829
#
# Poissons Ratio (x) = 0.90997 0.70789
# Poissons Ratio (y) = 0.25914 0.08014
# Poissons Ratio (z) = 0.32729 0.13011
#
# Static dielectric constant tensor:
#      x y z
#    x 1.581430 0.000000 0.000000 
#    y 0.000000 1.591480 0.000000 
#    z 0.000000 0.000000 1.570540 
# 
# From -- ./inp_files/48110.got.cif
#   From: 2010.05.17/outbox.cif.g08.bks.cpg/sg64_25_cif.got.tgz:48110.got - 2010.06.03 16:29:19.
