data_PCOD9477748
_publ_section_title
;
Structure prediction by ZEFSAII (Michael W. Deem and Ramdas Pophale) SiO2 
 PCOD9477748
Probable space group: C M C A
;
_chemical_formula_sum "Si O2"
_cell_formula_units_Z 80
_cell_length_a 8.588974
_cell_length_b 27.358557
_cell_length_c 18.434320
_cell_angle_alpha 90.000000
_cell_angle_beta 90.000000
_cell_angle_gamma 90.000000
_cell_volume 4331.732179
_symmetry_space_group_name_H-M "C M C A"
_symmetry_group_IT_number 64
_symmetry_cell_setting 'orthorhombic'
loop_
_space_group_symop_operation_xyz
x,y,z
-x,1/2-y,1/2+z
x,-y,-z
-x,1/2+y,1/2-z
-x,-y,-z
x,1/2+y,1/2-z
-x,y,z
x,1/2-y,1/2+z
1/2+x,1/2+y,z
1/2-x,-y,1/2+z
1/2+x,1/2-y,-z
1/2-x,y,1/2-z
1/2-x,1/2-y,-z
1/2+x,y,1/2-z
1/2-x,1/2+y,z
1/2+x,-y,1/2+z
loop_
_atom_site_type_symbol
_atom_site_label
_atom_site_fract_x
_atom_site_fract_y
_atom_site_fract_z
Si Si1 0.812283 0.157384 0.332457
Si Si2 0.812579 0.949713 0.667717
Si Si3 0.312622 0.944639 0.167136
Si Si4 0.685777 0.750095 0.081180
Si Si5 0.185658 0.157171 0.832212
O O1 0.750000 0.160731 0.250000
O O2 0.766927 0.103355 0.362692
O O3 0.742788 0.201356 0.378297
O O4 0.000000 0.160882 0.331566
O O5 0.750000 0.949682 0.750000
O O6 0.000000 0.950085 0.670517
O O7 0.766740 0.002331 0.634501
O O8 0.500000 0.940798 0.167881
O O9 0.250000 0.945799 0.250000
O O10 0.242948 0.894837 0.135688
O O11 0.500000 0.751838 0.081075
O O12 0.750997 0.797291 0.122955
O O13 0.750000 0.750000 0.000000
O O14 0.250000 0.160759 0.750000
O O15 0.000000 0.157838 0.829724
#
# Coordination Sequence:
#
# PCOD9477748 Si02
#       5
#    16  16  16  16  16
#     4  10  19  34  55  82 111 142 177 217 259 308
#     4   8  15  26  45  73 107 139 170 207 254 303
#     4   9  15  26  45  74 107 139 171 210 255 303
#     4  12  25  41  57  76 102 137 176 220 269 320
#     4  11  21  35  55  81 109 141 177 218 261 308
#
# _framework density 18.468364000000001
#
# number of rings (size 3 to 8) (size 9 to 14) (size 15 to 20)
#    0.000    2.000    0.000    6.600    0.000    1.600 
#    0.000    0.000    0.000    1.200    0.000    8.400 
#    0.000    0.000    0.000    0.000    0.000    0.000 
#
# Total GULP energy -223022.871309 kJ/mol
# GULP energy per Si atom -5575.571783 kJ/mol
# Density = 1.842633 g / cm^3
# Si number density = 18.468364 Si / 1000 Ang^3
#
#
#
# Elastic Constant Matrix: (Units=GPa)
#
#
# Indices 1 2 3 4 5 6 
#
# 1 126.0904 79.1728 31.0786 0.0000 0.0000 0.0000
# 2 79.1728 251.5804 68.1743 0.0000 0.0000 0.0000
# 3 31.0786 68.1743 54.1503 0.0000 0.0000 0.0000
# 4 0.0000 0.0000 0.0000 -7.8607 0.0000 0.0000
# 5 0.0000 0.0000 0.0000 0.0000 22.1811 0.0000
# 6 0.0000 0.0000 0.0000 0.0000 0.0000 30.8497
#
#
#
# Elastic Compliance Matrix: (Units=1/GPa)
#
#
# Indices 1 2 3 4 5 6 
#
# 1 0.010144 -0.002451 -0.002736 0.000000 0.000000 0.000000
# 2 -0.002451 0.006625 -0.006935 0.000000 0.000000 0.000000
# 3 -0.002736 -0.006935 0.028768 0.000000 0.000000 0.000000
# 4 0.000000 0.000000 0.000000 -0.127215 0.000000 0.000000
# 5 0.000000 0.000000 0.000000 0.000000 0.045083 0.000000
# 6 0.000000 0.000000 0.000000 0.000000 0.000000 0.032415
#
#
# Mechanical properties :
#
#
# Convention : Reuss Voigt Hill
#
# Bulk Modulus (GPa) = 46.96177 87.63027 67.29602
# Shear Modulus (GPa) = 184.07101 25.92703 104.99902
#
# Velocity S-wave (km/s) = 9.99423 3.75088 7.54830
# Velocity P-wave (km/s) = 12.59615 8.14314 10.60598
#
# Compressibility (1/GPa) = 0.02129391
#
# Stress axis : x y z
#
# Youngs Moduli (GPa) = 98.57842 150.93625 34.76062
#
# Poissons Ratio (x) = 0.36992 0.09512
# Poissons Ratio (y) = 0.24160 0.24105
# Poissons Ratio (z) = 0.26976 1.04667
#
# Static dielectric constant tensor:
#      x y z
#    x 1.629260 0.000000 0.000000 
#    y 0.000000 1.710000 0.000000 
#    z 0.000000 0.000000 1.583110 
# 
# From -- ./inp_files/29795.got.cif
#   From: 2010.05.17/outbox.cif.g08.bks.cpg/sg64_15_cif.got.tgz:29795.got - 2010.06.03 16:29:19.
