data_PCOD9477130
_publ_section_title
;
Structure prediction by ZEFSAII (Michael W. Deem and Ramdas Pophale) SiO2 
 PCOD9477130
Probable space group: C M C A
;
_chemical_formula_sum "Si O2"
_cell_formula_units_Z 80
_cell_length_a 17.979045
_cell_length_b 9.318536
_cell_length_c 21.427692
_cell_angle_alpha 90.000000
_cell_angle_beta 90.000000
_cell_angle_gamma 90.000000
_cell_volume 3589.960764
_symmetry_space_group_name_H-M "C M C A"
_symmetry_group_IT_number 64
_symmetry_cell_setting 'orthorhombic'
loop_
_space_group_symop_operation_xyz
x,y,z
-x,1/2-y,1/2+z
x,-y,-z
-x,1/2+y,1/2-z
-x,-y,-z
x,1/2+y,1/2-z
-x,y,z
x,1/2-y,1/2+z
1/2+x,1/2+y,z
1/2-x,-y,1/2+z
1/2+x,1/2-y,-z
1/2-x,y,1/2-z
1/2-x,1/2-y,-z
1/2+x,y,1/2-z
1/2-x,1/2+y,z
1/2+x,-y,1/2+z
loop_
_atom_site_type_symbol
_atom_site_label
_atom_site_fract_x
_atom_site_fract_y
_atom_site_fract_z
Si Si1 0.500000 0.042911 0.829607
Si Si2 0.000000 0.756314 0.502103
Si Si3 0.500000 0.205628 0.252625
Si Si4 0.121646 0.631962 0.671740
Si Si5 0.250000 0.508501 0.250000
Si Si6 0.000000 0.505047 0.401324
Si Si7 0.156689 0.412738 0.872409
Si Si8 0.872013 0.000000 0.500000
O O1 0.500000 0.212539 0.818080
O O2 0.500000 0.962296 0.762130
O O3 0.575268 0.986542 0.861024
O O4 0.000000 0.639891 0.446580
O O5 0.000000 0.649838 0.562064
O O6 0.071571 0.862352 0.499063
O O7 0.430034 0.268756 0.215265
O O8 0.186012 0.578337 0.715738
O O9 0.149680 0.742029 0.619471
O O10 0.073855 0.506157 0.640821
O O11 0.207621 0.576384 0.189716
O O12 0.177874 0.485512 0.937715
#
# Coordination Sequence:
#
# PCOD9477130 Si02
#       8
#     8   8   8  16   8   8  16   8
#     4  10  18  37  61  93 122 158 219 282 334 382
#     4  10  20  40  74 102 131 171 223 283 354 396
#     4   9  18  34  61  86 123 161 211 287 332 370
#     4  10  21  42  62  93 134 173 225 287 338 395
#     4  12  24  42  64  96 138 190 226 270 344 412
#     4  10  20  42  70 102 131 169 226 290 338 400
#     4  11  23  42  67  95 132 178 224 284 341 403
#     4  11  22  44  66 104 136 173 228 284 340 413
#
# _framework density 22.284365999999999
#
# number of rings (size 3 to 8) (size 9 to 14) (size 15 to 20)
#    0.000    1.600    4.000    2.400    0.000    0.000 
#   14.400    3.000    0.000    0.000    0.000    0.000 
#    0.000    0.000    0.000    0.000    0.000    0.000 
#
# Total GULP energy -223104.572999 kJ/mol
# GULP energy per Si atom -5577.614325 kJ/mol
# Density = 2.223365 g / cm^3
# Si number density = 22.284366 Si / 1000 Ang^3
#
#
#
# Elastic Constant Matrix: (Units=GPa)
#
#
# Indices 1 2 3 4 5 6 
#
# 1 84.4065 20.1202 38.7244 0.0000 0.0000 0.0000
# 2 20.1202 96.1486 40.0001 0.0000 0.0000 0.0000
# 3 38.7244 40.0001 122.3440 0.0000 0.0000 0.0000
# 4 0.0000 0.0000 0.0000 33.9105 0.0000 0.0000
# 5 0.0000 0.0000 0.0000 0.0000 28.3169 0.0000
# 6 0.0000 0.0000 0.0000 0.0000 0.0000 9.6912
#
#
#
# Elastic Compliance Matrix: (Units=1/GPa)
#
#
# Indices 1 2 3 4 5 6 
#
# 1 0.013990 -0.001256 -0.004017 0.000000 0.000000 0.000000
# 2 -0.001256 0.012151 -0.003575 0.000000 0.000000 0.000000
# 3 -0.004017 -0.003575 0.010614 0.000000 0.000000 0.000000
# 4 0.000000 0.000000 0.000000 0.029489 0.000000 0.000000
# 5 0.000000 0.000000 0.000000 0.000000 0.035315 0.000000
# 6 0.000000 0.000000 0.000000 0.000000 0.000000 0.103187
#
#
# Mechanical properties :
#
#
# Convention : Reuss Voigt Hill
#
# Bulk Modulus (GPa) = 52.47269 55.62091 54.04680
# Shear Modulus (GPa) = 21.85360 27.98735 24.92048
#
# Velocity S-wave (km/s) = 3.13496 3.54774 3.34772
# Velocity P-wave (km/s) = 6.05821 6.46496 6.26489
#
# Compressibility (1/GPa) = 0.01905753
#
# Stress axis : x y z
#
# Youngs Moduli (GPa) = 71.47959 82.29944 94.21419
#
# Poissons Ratio (x) = 0.10339 0.37850
# Poissons Ratio (y) = 0.08980 0.33682
# Poissons Ratio (z) = 0.28716 0.29422
#
# Static dielectric constant tensor:
#      x y z
#    x 1.876780 0.000000 0.000000 
#    y 0.000000 1.855800 0.000000 
#    z 0.000000 0.000000 1.905770 
# 
# From -- ./inp_files/46174.got.cif
#   From: 2010.05.17/outbox.cif.g08.bks.cpg/sg64_24_cif.got.tgz:46174.got - 2010.06.03 16:29:19.
