data_PCOD9477159
_publ_section_title
;
Structure prediction by ZEFSAII (Michael W. Deem and Ramdas Pophale) SiO2 
 PCOD9477159
Probable space group: C M C A
;
_chemical_formula_sum "Si O2"
_cell_formula_units_Z 112
_cell_length_a 18.574069
_cell_length_b 24.929697
_cell_length_c 9.955894
_cell_angle_alpha 90.000000
_cell_angle_beta 90.000000
_cell_angle_gamma 90.000000
_cell_volume 4610.036019
_symmetry_space_group_name_H-M "C M C A"
_symmetry_group_IT_number 64
_symmetry_cell_setting 'orthorhombic'
loop_
_space_group_symop_operation_xyz
x,y,z
-x,1/2-y,1/2+z
x,-y,-z
-x,1/2+y,1/2-z
-x,-y,-z
x,1/2+y,1/2-z
-x,y,z
x,1/2-y,1/2+z
1/2+x,1/2+y,z
1/2-x,-y,1/2+z
1/2+x,1/2-y,-z
1/2-x,y,1/2-z
1/2-x,1/2-y,-z
1/2+x,y,1/2-z
1/2-x,1/2+y,z
1/2+x,-y,1/2+z
loop_
_atom_site_type_symbol
_atom_site_label
_atom_site_fract_x
_atom_site_fract_y
_atom_site_fract_z
Si Si1 0.179982 0.989477 0.339063
Si Si2 0.765698 0.152372 0.907105
Si Si3 0.919309 0.336976 0.534143
Si Si4 0.119161 0.610165 0.914077
Si Si5 0.195904 0.213380 0.361807
Si Si6 0.118086 0.104320 0.293527
Si Si7 0.916429 0.771510 0.295906
O O1 0.250000 0.974946 0.250000
O O2 0.153041 0.046377 0.280369
O O3 0.190824 0.000000 0.500000
O O4 0.116849 0.943791 0.327133
O O5 0.848457 0.145061 0.949334
O O6 0.733219 0.200528 0.996987
O O7 0.706114 0.107936 0.942976
O O8 0.899038 0.168615 0.648178
O O9 0.922489 0.377577 0.660624
O O10 0.905660 0.277591 0.599096
O O11 0.000000 0.337510 0.471789
O O12 0.250000 0.658176 0.750000
O O13 0.081657 0.605247 0.058466
O O14 0.250000 0.232886 0.250000
O O15 0.172191 0.154601 0.310176
O O16 0.129030 0.252966 0.334243
O O17 0.000000 0.769693 0.264305
#
# Coordination Sequence:
#
# PCOD9477159 Si02
#       7
#    16  16  16  16  16  16  16
#     4  10  21  37  66 107 146 190 247 314 372 439
#     4  11  23  43  69 105 148 193 243 317 372 429
#     4  10  22  44  72 106 146 201 257 298 370 456
#     4  10  23  40  64 107 148 194 247 310 378 434
#     4  10  18  39  70 102 140 193 245 302 365 444
#     4   9  19  38  70 102 145 191 247 307 367 431
#     4  10  22  43  69 101 148 199 249 305 371 449
#
# _framework density 24.294823000000001
#
# number of rings (size 3 to 8) (size 9 to 14) (size 15 to 20)
#    0.000    2.000    2.857    0.857    4.000    2.286 
#    7.714    4.286    0.000    2.571    0.000    3.000 
#    0.000    0.000    0.000    0.143    0.000    0.000 
#
# Total GULP energy -312205.808050 kJ/mol
# GULP energy per Si atom -5575.103715 kJ/mol
# Density = 2.423953 g / cm^3
# Si number density = 24.294823 Si / 1000 Ang^3
#
#
#
# Elastic Constant Matrix: (Units=GPa)
#
#
# Indices 1 2 3 4 5 6 
#
# 1 163.7883 22.8910 74.9391 0.0000 0.0000 0.0000
# 2 22.8910 146.8660 28.9592 0.0000 0.0000 0.0000
# 3 74.9391 28.9592 165.2013 0.0000 0.0000 0.0000
# 4 0.0000 0.0000 0.0000 32.9856 0.0000 0.0000
# 5 0.0000 0.0000 0.0000 0.0000 9.9000 0.0000
# 6 0.0000 0.0000 0.0000 0.0000 0.0000 21.5441
#
#
#
# Elastic Compliance Matrix: (Units=1/GPa)
#
#
# Indices 1 2 3 4 5 6 
#
# 1 0.007745 -0.000533 -0.003420 0.000000 0.000000 0.000000
# 2 -0.000533 0.007089 -0.001001 0.000000 0.000000 0.000000
# 3 -0.003420 -0.001001 0.007780 0.000000 0.000000 0.000000
# 4 0.000000 0.000000 0.000000 0.030316 0.000000 0.000000
# 5 0.000000 0.000000 0.000000 0.000000 0.101010 0.000000
# 6 0.000000 0.000000 0.000000 0.000000 0.000000 0.046416
#
#
# Mechanical properties :
#
#
# Convention : Reuss Voigt Hill
#
# Bulk Modulus (GPa) = 78.69824 81.04824 79.87324
# Shear Modulus (GPa) = 23.31013 36.15704 29.73359
#
# Velocity S-wave (km/s) = 3.10089 3.86198 3.50217
# Velocity P-wave (km/s) = 6.72934 7.30201 7.02151
#
# Compressibility (1/GPa) = 0.01270676
#
# Stress axis : x y z
#
# Youngs Moduli (GPa) = 129.12315 141.05651 128.53535
#
# Poissons Ratio (x) = 0.07515 0.43955
# Poissons Ratio (y) = 0.06880 0.12867
# Poissons Ratio (z) = 0.44156 0.14120
#
# Static dielectric constant tensor:
#      x y z
#    x 1.994370 0.000000 0.000000 
#    y 0.000000 2.010220 0.000000 
#    z 0.000000 0.000000 2.015770 
# 
# From -- ./inp_files/17682.got.cif
#   From: 2010.05.17/outbox.cif.g08.bks.cpg/sg64_9_cif.got.tgz:17682.got - 2010.06.03 16:29:19.
