data_PCOD9477350
_publ_section_title
;
Structure prediction by ZEFSAII (Michael W. Deem and Ramdas Pophale) SiO2 
 PCOD9477350
Probable space group: C M C A
;
_chemical_formula_sum "Si O2"
_cell_formula_units_Z 56
_cell_length_a 34.246364
_cell_length_b 14.228426
_cell_length_c 5.121019
_cell_angle_alpha 90.000000
_cell_angle_beta 90.000000
_cell_angle_gamma 90.000000
_cell_volume 2495.328432
_symmetry_space_group_name_H-M "C M C A"
_symmetry_group_IT_number 64
_symmetry_cell_setting 'orthorhombic'
loop_
_space_group_symop_operation_xyz
x,y,z
-x,1/2-y,1/2+z
x,-y,-z
-x,1/2+y,1/2-z
-x,-y,-z
x,1/2+y,1/2-z
-x,y,z
x,1/2-y,1/2+z
1/2+x,1/2+y,z
1/2-x,-y,1/2+z
1/2+x,1/2-y,-z
1/2-x,y,1/2-z
1/2-x,1/2-y,-z
1/2+x,y,1/2-z
1/2-x,1/2+y,z
1/2+x,-y,1/2+z
loop_
_atom_site_type_symbol
_atom_site_label
_atom_site_fract_x
_atom_site_fract_y
_atom_site_fract_z
Si Si1 0.750000 0.318042 0.750000
Si Si2 0.956160 0.614583 0.527014
Si Si3 0.165596 0.685692 0.247973
Si Si4 0.413881 0.888902 0.970667
O O1 0.750000 0.250000 0.500000
O O2 0.792329 0.366675 0.767073
O O3 0.955171 0.500000 0.500000
O O4 0.944943 0.648217 0.239172
O O5 0.000000 0.639865 0.606575
O O6 0.924227 0.646352 0.740068
O O7 0.164370 0.728194 0.539039
O O8 0.128316 0.627615 0.156457
O O9 0.418879 0.000000 0.000000
#
# Coordination Sequence:
#
# PCOD9477350 Si02
#       4
#     8  16  16  16
#     4   8  16  30  50  72  92 124 164 194 224 284
#     4   9  17  30  49  72  97 129 168 204 240 291
#     4  10  19  33  53  74  99 131 167 202 243 296
#     4  10  19  31  51  76 100 126 163 210 251 288
#
# _framework density 22.441936999999999
#
# number of rings (size 3 to 8) (size 9 to 14) (size 15 to 20)
#    0.000    2.571    0.000    2.571    0.000    3.429 
#    0.000    0.000    0.000   32.571    0.000    0.000 
#    0.000    0.000    0.000    0.000    0.000    0.000 
#
# Total GULP energy -156087.589851 kJ/mol
# GULP energy per Si atom -5574.556780 kJ/mol
# Density = 2.239086 g / cm^3
# Si number density = 22.441937 Si / 1000 Ang^3
#
#
#
# Elastic Constant Matrix: (Units=GPa)
#
#
# Indices 1 2 3 4 5 6 
#
# 1 141.5596 -8.3490 43.2734 0.0000 0.0000 0.0000
# 2 -8.3490 43.4112 -6.3605 0.0000 0.0000 0.0000
# 3 43.2734 -6.3605 96.5435 0.0000 0.0000 0.0000
# 4 0.0000 0.0000 0.0000 6.0671 0.0000 0.0000
# 5 0.0000 0.0000 0.0000 0.0000 33.4405 0.0000
# 6 0.0000 0.0000 0.0000 0.0000 0.0000 -73.4030
#
#
#
# Elastic Compliance Matrix: (Units=1/GPa)
#
#
# Indices 1 2 3 4 5 6 
#
# 1 0.008233 0.001053 -0.003621 0.000000 0.000000 0.000000
# 2 0.001053 0.023395 0.001069 0.000000 0.000000 0.000000
# 3 -0.003621 0.001069 0.012051 0.000000 0.000000 0.000000
# 4 0.000000 0.000000 0.000000 0.164824 0.000000 0.000000
# 5 0.000000 0.000000 0.000000 0.000000 0.029904 0.000000
# 6 0.000000 0.000000 0.000000 0.000000 0.000000 -0.013623
#
#
# Mechanical properties :
#
#
# Convention : Reuss Voigt Hill
#
# Bulk Modulus (GPa) = 24.58089 37.62688 31.10389
# Shear Modulus (GPa) = 20.71752 10.08429 15.40090
#
# Velocity S-wave (km/s) = 3.04165 2.12209 2.62249
# Velocity P-wave (km/s) = 4.82829 4.77567 4.80206
#
# Compressibility (1/GPa) = 0.04068201
#
# Stress axis : x y z
#
# Youngs Moduli (GPa) = 121.46015 42.74466 82.97734
#
# Poissons Ratio (x) = -0.04501 0.30046
# Poissons Ratio (y) = -0.12789 -0.08873
# Poissons Ratio (z) = 0.43980 -0.04571
#
# Static dielectric constant tensor:
#      x y z
#    x 1.890140 0.000000 0.000000 
#    y 0.000000 1.836820 0.000000 
#    z 0.000000 0.000000 1.803910 
# 
# From -- ./inp_files/2632.got.cif
#   From: 2010.05.17/outbox.cif.g08.bks.cpg/sg64_2_cif.got.tgz:2632.got - 2010.06.03 16:29:19.
