data_PCOD9477822
_publ_section_title
;
Structure prediction by ZEFSAII (Michael W. Deem and Ramdas Pophale) SiO2 
 PCOD9477822
Probable space group: C M C A
;
_chemical_formula_sum "Si O2"
_cell_formula_units_Z 96
_cell_length_a 18.596429
_cell_length_b 26.814150
_cell_length_c 10.142379
_cell_angle_alpha 90.000000
_cell_angle_beta 90.000000
_cell_angle_gamma 90.000000
_cell_volume 5057.471290
_symmetry_space_group_name_H-M "C M C A"
_symmetry_group_IT_number 64
_symmetry_cell_setting 'orthorhombic'
loop_
_space_group_symop_operation_xyz
x,y,z
-x,1/2-y,1/2+z
x,-y,-z
-x,1/2+y,1/2-z
-x,-y,-z
x,1/2+y,1/2-z
-x,y,z
x,1/2-y,1/2+z
1/2+x,1/2+y,z
1/2-x,-y,1/2+z
1/2+x,1/2-y,-z
1/2-x,y,1/2-z
1/2-x,1/2-y,-z
1/2+x,y,1/2-z
1/2-x,1/2+y,z
1/2+x,-y,1/2+z
loop_
_atom_site_type_symbol
_atom_site_label
_atom_site_fract_x
_atom_site_fract_y
_atom_site_fract_z
Si Si1 0.133371 0.436914 0.173560
Si Si2 0.220088 0.945865 0.051857
Si Si3 0.862555 0.352774 0.521130
Si Si4 0.500000 0.081251 0.457203
Si Si5 0.302746 0.746137 0.126135
Si Si6 0.086092 0.827332 0.275085
Si Si7 0.500000 0.515496 0.777754
O O1 0.178139 0.439039 0.310438
O O2 0.194366 0.446728 0.067235
O O3 0.098871 0.382184 0.163685
O O4 0.070138 0.476355 0.190047
O O5 0.199125 0.895035 0.978405
O O6 0.195568 0.000000 0.000000
O O7 0.931671 0.384227 0.561601
O O8 0.842011 0.306821 0.611929
O O9 0.881758 0.331670 0.374267
O O10 0.500000 0.058412 0.606543
O O11 0.500000 0.035507 0.357286
O O12 0.250000 0.749152 0.250000
O O13 0.364449 0.788078 0.145576
O O14 0.250000 0.750000 0.000000
O O15 0.000000 0.816424 0.271553
#
# Coordination Sequence:
#
# PCOD9477822 Si02
#       7
#    16  16  16   8  16  16   8
#     4  10  19  34  59  87 115 153 206 256 306 372
#     4  10  20  35  58  86 119 158 202 253 308 375
#     4  11  21  40  63  94 126 160 213 265 324 382
#     4  11  20  34  63  91 123 157 203 261 319 368
#     4  12  26  44  66  92 130 173 215 268 325 388
#     4  11  21  39  69  93 120 161 218 269 319 385
#     4  11  18  34  60  89 119 153 206 261 306 364
#
# _framework density 18.981818000000001
#
# number of rings (size 3 to 8) (size 9 to 14) (size 15 to 20)
#    0.000    1.167    6.667    2.000    3.500    0.000 
#    6.000    0.417    0.000    0.000    0.000    0.000 
#    0.000    0.000    0.000    0.000    0.000    0.000 
#
# Total GULP energy -267795.280857 kJ/mol
# GULP energy per Si atom -5579.068351 kJ/mol
# Density = 1.893861 g / cm^3
# Si number density = 18.981818 Si / 1000 Ang^3
#
#
#
# Elastic Constant Matrix: (Units=GPa)
#
#
# Indices 1 2 3 4 5 6 
#
# 1 145.9986 58.2936 38.1744 0.0000 0.0000 0.0000
# 2 58.2936 131.6905 34.4614 0.0000 0.0000 0.0000
# 3 38.1744 34.4614 42.8600 0.0000 0.0000 0.0000
# 4 0.0000 0.0000 0.0000 26.7152 0.0000 0.0000
# 5 0.0000 0.0000 0.0000 0.0000 100.9226 0.0000
# 6 0.0000 0.0000 0.0000 0.0000 0.0000 36.6573
#
#
#
# Elastic Compliance Matrix: (Units=1/GPa)
#
#
# Indices 1 2 3 4 5 6 
#
# 1 0.009554 -0.002536 -0.006470 0.000000 0.000000 0.000000
# 2 -0.002536 0.010290 -0.006015 0.000000 0.000000 0.000000
# 3 -0.006470 -0.006015 0.033931 0.000000 0.000000 0.000000
# 4 0.000000 0.000000 0.000000 0.037432 0.000000 0.000000
# 5 0.000000 0.000000 0.000000 0.000000 0.009909 0.000000
# 6 0.000000 0.000000 0.000000 0.000000 0.000000 0.027280
#
#
# Mechanical properties :
#
#
# Convention : Reuss Voigt Hill
#
# Bulk Modulus (GPa) = 42.13640 64.71196 53.42418
# Shear Modulus (GPa) = 30.05738 45.50033 37.77885
#
# Velocity S-wave (km/s) = 3.98362 4.90128 4.46608
# Velocity P-wave (km/s) = 6.58828 8.13607 7.40274
#
# Compressibility (1/GPa) = 0.02373245
#
# Stress axis : x y z
#
# Youngs Moduli (GPa) = 104.67185 97.18056 29.47141
#
# Poissons Ratio (x) = 0.24643 0.19069
# Poissons Ratio (y) = 0.26543 0.17727
# Poissons Ratio (z) = 0.67726 0.58455
#
# Static dielectric constant tensor:
#      x y z
#    x 1.698350 0.000000 0.000000 
#    y 0.000000 1.659950 0.000000 
#    z 0.000000 0.000000 1.671960 
# 
# From -- ./inp_files/16272.got.cif
#   From: 2010.05.17/outbox.cif.g08.bks.cpg/sg64_9_cif.got.tgz:16272.got - 2010.06.03 16:29:19.
