data_PCOD9477337
_publ_section_title
;
Structure prediction by ZEFSAII (Michael W. Deem and Ramdas Pophale) SiO2 
 PCOD9477337
Probable space group: C M C A
;
_chemical_formula_sum "Si O2"
_cell_formula_units_Z 80
_cell_length_a 8.061612
_cell_length_b 27.147453
_cell_length_c 17.813179
_cell_angle_alpha 90.000000
_cell_angle_beta 90.000000
_cell_angle_gamma 90.000000
_cell_volume 3898.453999
_symmetry_space_group_name_H-M "C M C A"
_symmetry_group_IT_number 64
_symmetry_cell_setting 'orthorhombic'
loop_
_space_group_symop_operation_xyz
x,y,z
-x,1/2-y,1/2+z
x,-y,-z
-x,1/2+y,1/2-z
-x,-y,-z
x,1/2+y,1/2-z
-x,y,z
x,1/2-y,1/2+z
1/2+x,1/2+y,z
1/2-x,-y,1/2+z
1/2+x,1/2-y,-z
1/2-x,y,1/2-z
1/2-x,1/2-y,-z
1/2+x,y,1/2-z
1/2-x,1/2+y,z
1/2+x,-y,1/2+z
loop_
_atom_site_type_symbol
_atom_site_label
_atom_site_fract_x
_atom_site_fract_y
_atom_site_fract_z
Si Si1 0.200646 0.914848 0.947140
Si Si2 0.304085 0.901825 0.118936
Si Si3 0.304411 0.295932 0.395997
Si Si4 0.195185 0.993633 0.831013
Si Si5 0.201201 0.193222 0.069074
O O1 0.265072 0.960658 0.898887
O O2 0.237857 0.862553 0.906776
O O3 0.000000 0.918197 0.955802
O O4 0.271832 0.912048 0.030752
O O5 0.500000 0.900574 0.132171
O O6 0.233411 0.847043 0.136822
O O7 0.234269 0.948834 0.161176
O O8 0.500000 0.295933 0.378787
O O9 0.279406 0.301696 0.486028
O O10 0.241543 0.240276 0.381978
O O11 0.250000 0.975311 0.750000
O O12 0.000000 0.987984 0.835957
O O13 0.000000 0.196898 0.060953
#
# Coordination Sequence:
#
# PCOD9477337 Si02
#       5
#    16  16  16  16  16
#     4   9  18  32  51  74  98 126 160 198 239 283
#     4  10  19  31  50  76 102 128 159 195 235 281
#     4   8  14  24  41  68  98 124 151 186 228 274
#     4  11  23  37  51  68  93 126 164 203 244 288
#     4   8  13  24  43  67  95 124 152 186 230 276
#
# _framework density 20.520954
#
# number of rings (size 3 to 8) (size 9 to 14) (size 15 to 20)
#    0.000    2.800    0.000    1.800    0.000    4.800 
#    0.000    0.000    0.000    1.200    0.000    2.800 
#    0.000    0.000    0.000    0.000    0.000    0.000 
#
# Total GULP energy -222712.442737 kJ/mol
# GULP energy per Si atom -5567.811068 kJ/mol
# Density = 2.047425 g / cm^3
# Si number density = 20.520954 Si / 1000 Ang^3
#
#
#
# Elastic Constant Matrix: (Units=GPa)
#
#
# Indices 1 2 3 4 5 6 
#
# 1 19.2374 -0.5992 -3.3062 0.0000 0.0000 0.0000
# 2 -0.5992 72.0585 -0.4773 0.0000 0.0000 0.0000
# 3 -3.3062 -0.4773 16.9581 0.0000 0.0000 0.0000
# 4 0.0000 0.0000 0.0000 7.9375 0.0000 0.0000
# 5 0.0000 0.0000 0.0000 0.0000 17.2771 0.0000
# 6 0.0000 0.0000 0.0000 0.0000 0.0000 20.5327
#
#
#
# Elastic Compliance Matrix: (Units=1/GPa)
#
#
# Indices 1 2 3 4 5 6 
#
# 1 0.053804 0.000517 0.010504 0.000000 0.000000 0.000000
# 2 0.000517 0.013885 0.000492 0.000000 0.000000 0.000000
# 3 0.010504 0.000492 0.061031 0.000000 0.000000 0.000000
# 4 0.000000 0.000000 0.000000 0.125984 0.000000 0.000000
# 5 0.000000 0.000000 0.000000 0.000000 0.057880 0.000000
# 6 0.000000 0.000000 0.000000 0.000000 0.000000 0.048703
#
#
# Mechanical properties :
#
#
# Convention : Reuss Voigt Hill
#
# Bulk Modulus (GPa) = 6.59001 11.05427 8.82214
# Shear Modulus (GPa) = 12.85868 16.65857 14.75862
#
# Velocity S-wave (km/s) = 2.50594 2.85227 2.68470
# Velocity P-wave (km/s) = 3.40460 4.03061 3.73076
#
# Compressibility (1/GPa) = 0.15174491
#
# Stress axis : x y z
#
# Youngs Moduli (GPa) = 18.58613 72.01928 16.38523
#
# Poissons Ratio (x) = -0.03724 -0.17211
# Poissons Ratio (y) = -0.00961 -0.00806
# Poissons Ratio (z) = -0.19523 -0.03541
#
# Static dielectric constant tensor:
#      x y z
#    x 1.738540 0.000000 0.000000 
#    y 0.000000 1.852050 0.000000 
#    z 0.000000 0.000000 1.694570 
# 
# From -- ./inp_files/29717.got.cif
#   From: 2010.05.17/outbox.cif.g08.bks.cpg/sg64_15_cif.got.tgz:29717.got - 2010.06.03 16:29:19.
