data_PCOD9477586
_publ_section_title
;
Structure prediction by ZEFSAII (Michael W. Deem and Ramdas Pophale) SiO2 
 PCOD9477586
Probable space group: C M C A
;
_chemical_formula_sum "Si O2"
_cell_formula_units_Z 96
_cell_length_a 9.072684
_cell_length_b 19.738158
_cell_length_c 31.037196
_cell_angle_alpha 90.000000
_cell_angle_beta 90.000000
_cell_angle_gamma 90.000000
_cell_volume 5558.081166
_symmetry_space_group_name_H-M "C M C A"
_symmetry_group_IT_number 64
_symmetry_cell_setting 'orthorhombic'
loop_
_space_group_symop_operation_xyz
x,y,z
-x,1/2-y,1/2+z
x,-y,-z
-x,1/2+y,1/2-z
-x,-y,-z
x,1/2+y,1/2-z
-x,y,z
x,1/2-y,1/2+z
1/2+x,1/2+y,z
1/2-x,-y,1/2+z
1/2+x,1/2-y,-z
1/2-x,y,1/2-z
1/2-x,1/2-y,-z
1/2+x,y,1/2-z
1/2-x,1/2+y,z
1/2+x,-y,1/2+z
loop_
_atom_site_type_symbol
_atom_site_label
_atom_site_fract_x
_atom_site_fract_y
_atom_site_fract_z
Si Si1 0.177027 0.404778 0.106691
Si Si2 0.675766 0.922529 0.485931
Si Si3 0.175934 0.846720 0.796032
Si Si4 0.676208 0.752656 0.126330
Si Si5 0.174673 0.453416 0.855300
Si Si6 0.174198 0.351348 0.934991
O O1 0.255304 0.410122 0.060718
O O2 0.210687 0.332013 0.127241
O O3 0.218691 0.469350 0.135669
O O4 0.000000 0.409126 0.100110
O O5 0.500000 0.914005 0.484827
O O6 0.746090 0.873125 0.521385
O O7 0.708157 0.000000 0.500000
O O8 0.250000 0.836717 0.750000
O O9 0.214882 0.786846 0.829782
O O10 0.235410 0.915018 0.818554
O O11 0.000000 0.849144 0.791789
O O12 0.500000 0.744875 0.120009
O O13 0.758409 0.715122 0.087274
O O14 0.196835 0.411236 0.899658
O O15 0.000000 0.450422 0.845306
O O16 0.000000 0.343740 0.942005
#
# Coordination Sequence:
#
# PCOD9477586 Si02
#       6
#    16  16  16  16  16  16
#     4  10  20  36  56  78 108 144 180 221 269 320
#     4  11  22  33  50  77 109 144 185 231 271 312
#     4  10  20  36  59  83 106 135 172 213 261 320
#     4   9  20  37  56  79 109 143 176 218 270 319
#     4   9  18  33  55  80 105 135 174 218 263 313
#     4  10  19  33  54  77 104 143 186 225 263 311
#
# _framework density 17.272148999999999
#
# number of rings (size 3 to 8) (size 9 to 14) (size 15 to 20)
#    0.000    2.167    1.667    1.500    0.000    4.000 
#    0.000    0.833    0.000    2.000    0.000    0.000 
#    0.000    0.000    0.000    0.000    0.000    0.000 
#
# Total GULP energy -267943.186081 kJ/mol
# GULP energy per Si atom -5582.149710 kJ/mol
# Density = 1.723284 g / cm^3
# Si number density = 17.272149 Si / 1000 Ang^3
#
#
#
# Elastic Constant Matrix: (Units=GPa)
#
#
# Indices 1 2 3 4 5 6 
#
# 1 40.4492 47.8137 49.1980 0.0000 0.0000 0.0000
# 2 47.8137 136.6653 53.4342 0.0000 0.0000 0.0000
# 3 49.1980 53.4342 106.3347 0.0000 0.0000 0.0000
# 4 0.0000 0.0000 0.0000 14.1969 0.0000 0.0000
# 5 0.0000 0.0000 0.0000 0.0000 27.8409 0.0000
# 6 0.0000 0.0000 0.0000 0.0000 0.0000 22.1499
#
#
#
# Elastic Compliance Matrix: (Units=1/GPa)
#
#
# Indices 1 2 3 4 5 6 
#
# 1 0.077935 -0.016388 -0.027823 0.000000 0.000000 0.000000
# 2 -0.016388 0.012552 0.001275 0.000000 0.000000 0.000000
# 3 -0.027823 0.001275 0.021637 0.000000 0.000000 0.000000
# 4 0.000000 0.000000 0.000000 0.070438 0.000000 0.000000
# 5 0.000000 0.000000 0.000000 0.000000 0.035918 0.000000
# 6 0.000000 0.000000 0.000000 0.000000 0.000000 0.045147
#
#
# Mechanical properties :
#
#
# Convention : Reuss Voigt Hill
#
# Bulk Modulus (GPa) = 38.09366 64.92677 51.51021
# Shear Modulus (GPa) = 13.95668 21.70442 17.83055
#
# Velocity S-wave (km/s) = 2.84570 3.54872 3.21647
# Velocity P-wave (km/s) = 5.73587 7.37992 6.60921
#
# Compressibility (1/GPa) = 0.02625109
#
# Stress axis : x y z
#
# Youngs Moduli (GPa) = 12.83116 79.66681 46.21750
#
# Poissons Ratio (x) = 1.30557 1.28592
# Poissons Ratio (y) = 0.21028 -0.05891
# Poissons Ratio (z) = 0.35701 -0.10154
#
# Static dielectric constant tensor:
#      x y z
#    x 1.571090 0.000000 0.000000 
#    y 0.000000 1.591170 0.000000 
#    z 0.000000 0.000000 1.547040 
# 
# From -- ./inp_files/48086.got.cif
#   From: 2010.05.17/outbox.cif.g08.bks.cpg/sg64_25_cif.got.tgz:48086.got - 2010.06.03 16:29:19.
