data_PCOD9477753
_publ_section_title
;
Structure prediction by ZEFSAII (Michael W. Deem and Ramdas Pophale) SiO2 
 PCOD9477753
Probable space group: C M C A
;
_chemical_formula_sum "Si O2"
_cell_formula_units_Z 96
_cell_length_a 23.256506
_cell_length_b 23.349911
_cell_length_c 9.351366
_cell_angle_alpha 90.000000
_cell_angle_beta 90.000000
_cell_angle_gamma 90.000000
_cell_volume 5078.140967
_symmetry_space_group_name_H-M "C M C A"
_symmetry_group_IT_number 64
_symmetry_cell_setting 'orthorhombic'
loop_
_space_group_symop_operation_xyz
x,y,z
-x,1/2-y,1/2+z
x,-y,-z
-x,1/2+y,1/2-z
-x,-y,-z
x,1/2+y,1/2-z
-x,y,z
x,1/2-y,1/2+z
1/2+x,1/2+y,z
1/2-x,-y,1/2+z
1/2+x,1/2-y,-z
1/2-x,y,1/2-z
1/2-x,1/2-y,-z
1/2+x,y,1/2-z
1/2-x,1/2+y,z
1/2+x,-y,1/2+z
loop_
_atom_site_type_symbol
_atom_site_label
_atom_site_fract_x
_atom_site_fract_y
_atom_site_fract_z
Si Si1 0.066628 0.345957 0.486037
Si Si2 0.567220 0.083058 0.245275
Si Si3 0.707983 0.181004 0.952715
Si Si4 0.564913 0.954168 0.279751
Si Si5 0.329406 0.722757 0.856930
Si Si6 0.651164 0.563353 0.520470
O O1 0.080665 0.365083 0.647656
O O2 0.070028 0.405599 0.398600
O O3 0.111046 0.301824 0.416914
O O4 0.000000 0.326435 0.479869
O O5 0.500000 0.088697 0.202179
O O6 0.571779 0.020697 0.322695
O O7 0.609739 0.078750 0.112210
O O8 0.678822 0.209696 0.811200
O O9 0.775806 0.191200 0.935095
O O10 0.695334 0.114199 0.957450
O O11 0.681882 0.212431 0.091658
O O12 0.500000 0.949940 0.219933
O O13 0.610564 0.940817 0.158137
O O14 0.676831 0.500000 0.500000
#
# Coordination Sequence:
#
# PCOD9477753 Si02
#       6
#    16  16  16  16  16  16
#     4  10  19  34  55  83 115 146 185 236 286 330
#     4   9  18  30  50  82 118 154 189 227 275 344
#     4  10  22  41  64  82 109 152 194 234 278 340
#     4   9  16  30  52  78 113 156 191 224 281 343
#     4  10  22  41  63  82 109 149 195 231 281 342
#     4  10  19  34  57  85 116 145 189 240 286 329
#
# _framework density 18.904555999999999
#
# number of rings (size 3 to 8) (size 9 to 14) (size 15 to 20)
#    0.000    2.333    1.667    1.000    2.333    4.000 
#    0.000    4.167    0.000    0.000    0.000    0.000 
#    0.000    0.000    0.000    0.000    0.000    0.000 
#
# Total GULP energy -267659.087106 kJ/mol
# GULP energy per Si atom -5576.230981 kJ/mol
# Density = 1.886153 g / cm^3
# Si number density = 18.904556 Si / 1000 Ang^3
#
#
#
# Elastic Constant Matrix: (Units=GPa)
#
#
# Indices 1 2 3 4 5 6 
#
# 1 59.6509 26.9856 12.3951 0.0000 0.0000 0.0000
# 2 26.9856 69.8052 15.3344 0.0000 0.0000 0.0000
# 3 12.3951 15.3344 47.9262 0.0000 0.0000 0.0000
# 4 0.0000 0.0000 0.0000 19.9314 0.0000 0.0000
# 5 0.0000 0.0000 0.0000 0.0000 12.3067 0.0000
# 6 0.0000 0.0000 0.0000 0.0000 0.0000 24.7761
#
#
#
# Elastic Compliance Matrix: (Units=1/GPa)
#
#
# Indices 1 2 3 4 5 6 
#
# 1 0.020712 -0.007347 -0.003006 0.000000 0.000000 0.000000
# 2 -0.007347 0.018014 -0.003864 0.000000 0.000000 0.000000
# 3 -0.003006 -0.003864 0.022879 0.000000 0.000000 0.000000
# 4 0.000000 0.000000 0.000000 0.050172 0.000000 0.000000
# 5 0.000000 0.000000 0.000000 0.000000 0.081256 0.000000
# 6 0.000000 0.000000 0.000000 0.000000 0.000000 0.040362
#
#
# Mechanical properties :
#
#
# Convention : Reuss Voigt Hill
#
# Bulk Modulus (GPa) = 30.14531 31.86805 31.00668
# Shear Modulus (GPa) = 18.32260 19.58065 18.95163
#
# Velocity S-wave (km/s) = 3.11660 3.22182 3.16965
# Velocity P-wave (km/s) = 5.37881 5.54383 5.46195
#
# Compressibility (1/GPa) = 0.03317265
#
# Stress axis : x y z
#
# Youngs Moduli (GPa) = 48.28004 55.51084 43.70789
#
# Poissons Ratio (x) = 0.40782 0.13139
# Poissons Ratio (y) = 0.35470 0.16888
# Poissons Ratio (z) = 0.14514 0.21448
#
# Static dielectric constant tensor:
#      x y z
#    x 1.623270 0.000000 0.000000 
#    y 0.000000 1.657610 0.000000 
#    z 0.000000 0.000000 1.665330 
# 
# From -- ./inp_files/9474.got.cif
#   From: 2010.05.17/outbox.cif.g08.bks.cpg/sg64_5_cif.got.tgz:9474.got - 2010.06.03 16:29:19.
