data_PCOD9477607
_publ_section_title
;
Structure prediction by ZEFSAII (Michael W. Deem and Ramdas Pophale) SiO2 
 PCOD9477607
Probable space group: C M C A
;
_chemical_formula_sum "Si O2"
_cell_formula_units_Z 96
_cell_length_a 25.192401
_cell_length_b 21.980795
_cell_length_c 9.071235
_cell_angle_alpha 90.000000
_cell_angle_beta 90.000000
_cell_angle_gamma 90.000000
_cell_volume 5023.187328
_symmetry_space_group_name_H-M "C M C A"
_symmetry_group_IT_number 64
_symmetry_cell_setting 'orthorhombic'
loop_
_space_group_symop_operation_xyz
x,y,z
-x,1/2-y,1/2+z
x,-y,-z
-x,1/2+y,1/2-z
-x,-y,-z
x,1/2+y,1/2-z
-x,y,z
x,1/2-y,1/2+z
1/2+x,1/2+y,z
1/2-x,-y,1/2+z
1/2+x,1/2-y,-z
1/2-x,y,1/2-z
1/2-x,1/2-y,-z
1/2+x,y,1/2-z
1/2-x,1/2+y,z
1/2+x,-y,1/2+z
loop_
_atom_site_type_symbol
_atom_site_label
_atom_site_fract_x
_atom_site_fract_y
_atom_site_fract_z
Si Si1 0.135006 0.749204 0.937267
Si Si2 0.636606 0.055343 0.091582
Si Si3 0.060032 0.460683 0.646716
Si Si4 0.559428 0.346841 0.053903
Si Si5 0.807786 0.679579 0.177720
Si Si6 0.938071 0.367338 0.118321
O O1 0.154573 0.786895 0.796577
O O2 0.092727 0.696560 0.899236
O O3 0.104289 0.796789 0.040268
O O4 0.182862 0.717152 0.026524
O O5 0.604707 0.030602 0.232304
O O6 0.674244 0.110459 0.143263
O O7 0.592496 0.085575 0.984673
O O8 0.662292 0.000000 0.000000
O O9 0.067633 0.500000 0.500000
O O10 0.062378 0.391677 0.585129
O O11 0.000000 0.472253 0.703128
O O12 0.500000 0.319442 0.056768
O O13 0.564915 0.382710 0.207890
O O14 0.750000 0.680793 0.250000
O O15 0.000000 0.362557 0.077982
#
# Coordination Sequence:
#
# PCOD9477607 Si02
#       6
#    16  16  16  16  16  16
#     4  11  20  39  61  89 120 157 195 250 308 361
#     4  11  23  40  62  85 122 160 205 251 305 358
#     4  10  20  34  56  85 120 162 201 238 291 360
#     4  10  19  33  54  85 123 158 195 236 292 364
#     4  11  24  42  66  88 116 154 210 264 314 357
#     4  10  21  35  58  91 128 162 197 236 290 369
#
# _framework density 19.111370999999998
#
# number of rings (size 3 to 8) (size 9 to 14) (size 15 to 20)
#    0.000    1.500    3.333    2.500    0.000    2.667 
#    0.000    0.833    0.000    0.000    0.000    0.000 
#    0.000    0.000    0.000    0.000    0.000    0.000 
#
# Total GULP energy -267946.442355 kJ/mol
# GULP energy per Si atom -5582.217549 kJ/mol
# Density = 1.906787 g / cm^3
# Si number density = 19.111371 Si / 1000 Ang^3
#
#
#
# Elastic Constant Matrix: (Units=GPa)
#
#
# Indices 1 2 3 4 5 6 
#
# 1 58.1557 29.7708 11.1507 0.0000 0.0000 0.0000
# 2 29.7708 88.5424 16.5078 0.0000 0.0000 0.0000
# 3 11.1507 16.5078 53.1944 0.0000 0.0000 0.0000
# 4 0.0000 0.0000 0.0000 35.3478 0.0000 0.0000
# 5 0.0000 0.0000 0.0000 0.0000 20.7527 0.0000
# 6 0.0000 0.0000 0.0000 0.0000 0.0000 13.1692
#
#
#
# Elastic Compliance Matrix: (Units=1/GPa)
#
#
# Indices 1 2 3 4 5 6 
#
# 1 0.021044 -0.006637 -0.002352 0.000000 0.000000 0.000000
# 2 -0.006637 0.014081 -0.002978 0.000000 0.000000 0.000000
# 3 -0.002352 -0.002978 0.020216 0.000000 0.000000 0.000000
# 4 0.000000 0.000000 0.000000 0.028290 0.000000 0.000000
# 5 0.000000 0.000000 0.000000 0.000000 0.048186 0.000000
# 6 0.000000 0.000000 0.000000 0.000000 0.000000 0.075935
#
#
# Mechanical properties :
#
#
# Convention : Reuss Voigt Hill
#
# Bulk Modulus (GPa) = 31.84039 34.97235 33.40637
# Shear Modulus (GPa) = 20.64789 23.35149 21.99969
#
# Velocity S-wave (km/s) = 3.29051 3.49931 3.39651
# Velocity P-wave (km/s) = 5.57971 5.88777 5.73581
#
# Compressibility (1/GPa) = 0.03140665
#
# Stress axis : x y z
#
# Youngs Moduli (GPa) = 47.52002 71.01794 49.46527
#
# Poissons Ratio (x) = 0.47136 0.11632
# Poissons Ratio (y) = 0.31540 0.14733
# Poissons Ratio (z) = 0.11174 0.21152
#
# Static dielectric constant tensor:
#      x y z
#    x 1.631530 0.000000 0.000000 
#    y 0.000000 1.697390 0.000000 
#    z 0.000000 0.000000 1.680340 
# 
# From -- ./inp_files/9479.got.cif
#   From: 2010.05.17/outbox.cif.g08.bks.cpg/sg64_5_cif.got.tgz:9479.got - 2010.06.03 16:29:19.
