data_PCOD9477430
_publ_section_title
;
Structure prediction by ZEFSAII (Michael W. Deem and Ramdas Pophale) SiO2 
 PCOD9477430
Probable space group: C M C A
;
_chemical_formula_sum "Si O2"
_cell_formula_units_Z 72
_cell_length_a 23.197420
_cell_length_b 13.138911
_cell_length_c 8.677693
_cell_angle_alpha 90.000000
_cell_angle_beta 90.000000
_cell_angle_gamma 90.000000
_cell_volume 2644.863956
_symmetry_space_group_name_H-M "C M C A"
_symmetry_group_IT_number 64
_symmetry_cell_setting 'orthorhombic'
loop_
_space_group_symop_operation_xyz
x,y,z
-x,1/2-y,1/2+z
x,-y,-z
-x,1/2+y,1/2-z
-x,-y,-z
x,1/2+y,1/2-z
-x,y,z
x,1/2-y,1/2+z
1/2+x,1/2+y,z
1/2-x,-y,1/2+z
1/2+x,1/2-y,-z
1/2-x,y,1/2-z
1/2-x,1/2-y,-z
1/2+x,y,1/2-z
1/2-x,1/2+y,z
1/2+x,-y,1/2+z
loop_
_atom_site_type_symbol
_atom_site_label
_atom_site_fract_x
_atom_site_fract_y
_atom_site_fract_z
Si Si1 0.568065 0.114924 0.146414
Si Si2 0.616426 0.271079 0.932844
Si Si3 0.780596 0.617004 0.487553
Si Si4 0.564681 0.929855 0.348613
Si Si5 0.750000 0.225385 0.250000
O O1 0.500000 0.109807 0.111828
O O2 0.599700 0.162882 0.999493
O O3 0.576786 0.189246 0.294796
O O4 0.585529 0.005268 0.214869
O O5 0.605521 0.344026 0.081483
O O6 0.681288 0.300958 0.879437
O O7 0.798572 0.500000 0.500000
O O8 0.776558 0.681488 0.638577
O O9 0.726662 0.631685 0.377841
O O10 0.500000 0.891327 0.312146
O O11 0.558513 0.000000 0.500000
#
# Coordination Sequence:
#
# PCOD9477430 Si02
#       5
#    16  16  16  16   8
#     4  10  19  32  51  77 111 148 185 228 276 327
#     4  11  20  33  55  81 107 144 192 234 279 339
#     4  11  22  40  64  89 120 155 197 251 308 367
#     4   8  15  29  48  71 103 143 182 217 262 322
#     4  10  24  42  62  90 120 154 196 246 316 382
#
# _framework density 27.222570999999999
#
# number of rings (size 3 to 8) (size 9 to 14) (size 15 to 20)
#    0.000    2.000    0.000    7.333    0.000    0.000 
#    0.000    1.111    0.000    9.333    0.000    0.000 
#    0.000    0.000    0.000    0.000    0.000    0.000 
#
# Total GULP energy -200472.199875 kJ/mol
# GULP energy per Si atom -5568.672219 kJ/mol
# Density = 2.716061 g / cm^3
# Si number density = 27.222571 Si / 1000 Ang^3
#
#
#
# Elastic Constant Matrix: (Units=GPa)
#
#
# Indices 1 2 3 4 5 6 
#
# 1 82.4990 44.7916 38.1981 0.0000 0.0000 0.0000
# 2 44.7916 190.2887 102.2970 0.0000 0.0000 0.0000
# 3 38.1981 102.2970 129.3554 0.0000 0.0000 0.0000
# 4 0.0000 0.0000 0.0000 72.4086 0.0000 0.0000
# 5 0.0000 0.0000 0.0000 0.0000 21.7174 0.0000
# 6 0.0000 0.0000 0.0000 0.0000 0.0000 35.4271
#
#
#
# Elastic Compliance Matrix: (Units=1/GPa)
#
#
# Indices 1 2 3 4 5 6 
#
# 1 0.014435 -0.001924 -0.002741 0.000000 0.000000 0.000000
# 2 -0.001924 0.009398 -0.006864 0.000000 0.000000 0.000000
# 3 -0.002741 -0.006864 0.013968 0.000000 0.000000 0.000000
# 4 0.000000 0.000000 0.000000 0.013811 0.000000 0.000000
# 5 0.000000 0.000000 0.000000 0.000000 0.046046 0.000000
# 6 0.000000 0.000000 0.000000 0.000000 0.000000 0.028227
#
#
# Mechanical properties :
#
#
# Convention : Reuss Voigt Hill
#
# Bulk Modulus (GPa) = 67.82814 85.85737 76.84275
# Shear Modulus (GPa) = 32.49753 40.36772 36.43262
#
# Velocity S-wave (km/s) = 3.45885 3.85499 3.66228
# Velocity P-wave (km/s) = 6.39701 7.17092 6.79499
#
# Compressibility (1/GPa) = 0.01474314
#
# Stress axis : x y z
#
# Youngs Moduli (GPa) = 69.27497 106.40379 71.59152
#
# Poissons Ratio (x) = 0.20477 0.19621
# Poissons Ratio (y) = 0.13332 0.49140
# Poissons Ratio (z) = 0.18986 0.73035
#
# Static dielectric constant tensor:
#      x y z
#    x 2.811310 0.000000 0.000000 
#    y 0.000000 2.138700 0.000000 
#    z 0.000000 0.000000 2.595010 
# 
# From -- ./inp_files/9992.got.cif
#   From: 2010.05.17/outbox.cif.g08.bks.cpg/sg64_5_cif.got.tgz:9992.got - 2010.06.03 16:29:19.
