data_PCOD9477984
_publ_section_title
;
Structure prediction by ZEFSAII (Michael W. Deem and Ramdas Pophale) SiO2 
 PCOD9477984
Probable space group: C M C A
;
_chemical_formula_sum "Si O2"
_cell_formula_units_Z 96
_cell_length_a 14.749104
_cell_length_b 15.501754
_cell_length_c 20.118983
_cell_angle_alpha 90.000000
_cell_angle_beta 90.000000
_cell_angle_gamma 90.000000
_cell_volume 4599.943553
_symmetry_space_group_name_H-M "C M C A"
_symmetry_group_IT_number 64
_symmetry_cell_setting 'orthorhombic'
loop_
_space_group_symop_operation_xyz
x,y,z
-x,1/2-y,1/2+z
x,-y,-z
-x,1/2+y,1/2-z
-x,-y,-z
x,1/2+y,1/2-z
-x,y,z
x,1/2-y,1/2+z
1/2+x,1/2+y,z
1/2-x,-y,1/2+z
1/2+x,1/2-y,-z
1/2-x,y,1/2-z
1/2-x,1/2-y,-z
1/2+x,y,1/2-z
1/2-x,1/2+y,z
1/2+x,-y,1/2+z
loop_
_atom_site_type_symbol
_atom_site_label
_atom_site_fract_x
_atom_site_fract_y
_atom_site_fract_z
Si Si1 0.834041 0.821529 0.199918
Si Si2 0.250169 0.898883 0.616902
Si Si3 0.100608 0.368603 0.777777
Si Si4 0.600759 0.397332 0.503519
Si Si5 0.217573 0.223750 0.574114
Si Si6 0.401790 0.500575 0.843201
O O1 0.750000 0.832659 0.250000
O O2 0.885681 0.734948 0.223199
O O3 0.795443 0.806756 0.125004
O O4 0.889528 0.909749 0.195598
O O5 0.188876 0.901142 0.682555
O O6 0.172676 0.886773 0.562145
O O7 0.311886 0.813318 0.608534
O O8 0.314973 0.980990 0.610967
O O9 0.100974 0.421935 0.709548
O O10 0.000000 0.385422 0.808080
O O11 0.593680 0.500000 0.500000
O O12 0.500000 0.361859 0.516785
O O13 0.642828 0.349597 0.439150
O O14 0.250000 0.250000 0.500000
O O15 0.500000 0.500663 0.876900
#
# Coordination Sequence:
#
# PCOD9477984 Si02
#       6
#    16  16  16  16  16  16
#     4  11  21  37  61  87 119 164 207 253 315 380
#     4  10  19  36  57  78 111 154 195 244 303 358
#     4  10  20  35  56  84 117 153 198 251 307 370
#     4  10  20  34  55  83 112 146 191 241 294 356
#     4   9  20  37  59  84 116 158 199 245 303 364
#     4  11  23  37  57  87 122 162 210 261 315 378
#
# _framework density 20.869821000000002
#
# number of rings (size 3 to 8) (size 9 to 14) (size 15 to 20)
#    0.000    1.833    0.000    5.500    0.000    0.667 
#    0.000    4.167    0.000   10.500    0.000    0.000 
#    0.000    0.000    0.000    0.000    0.000    0.000 
#
# Total GULP energy -267348.215104 kJ/mol
# GULP energy per Si atom -5569.754481 kJ/mol
# Density = 2.082232 g / cm^3
# Si number density = 20.869821 Si / 1000 Ang^3
#
#
#
# Elastic Constant Matrix: (Units=GPa)
#
#
# Indices 1 2 3 4 5 6 
#
# 1 112.3235 28.1481 23.1632 0.0000 0.0000 0.0000
# 2 28.1481 95.1901 12.3231 0.0000 0.0000 0.0000
# 3 23.1632 12.3231 65.1850 0.0000 0.0000 0.0000
# 4 0.0000 0.0000 0.0000 17.3206 0.0000 0.0000
# 5 0.0000 0.0000 0.0000 0.0000 -4.0442 0.0000
# 6 0.0000 0.0000 0.0000 0.0000 0.0000 26.2176
#
#
#
# Elastic Compliance Matrix: (Units=1/GPa)
#
#
# Indices 1 2 3 4 5 6 
#
# 1 0.010203 -0.002612 -0.003132 0.000000 0.000000 0.000000
# 2 -0.002612 0.011437 -0.001234 0.000000 0.000000 0.000000
# 3 -0.003132 -0.001234 0.016687 0.000000 0.000000 0.000000
# 4 0.000000 0.000000 0.000000 0.057735 0.000000 0.000000
# 5 0.000000 0.000000 0.000000 0.000000 -0.247270 0.000000
# 6 0.000000 0.000000 0.000000 0.000000 0.000000 0.038142
#
#
# Mechanical properties :
#
#
# Convention : Reuss Voigt Hill
#
# Bulk Modulus (GPa) = 41.03037 44.44084 42.73561
# Shear Modulus (GPa) = -54.95386 21.83641 -16.55872
#
# Velocity S-wave (km/s) = -5.13701 3.23819 -2.81984
# Velocity P-wave (km/s) = 3.93476 5.94321 3.14955
#
# Compressibility (1/GPa) = 0.02437219
#
# Stress axis : x y z
#
# Youngs Moduli (GPa) = 98.00845 87.43281 59.92626
#
# Poissons Ratio (x) = 0.22835 0.18768
# Poissons Ratio (y) = 0.25597 0.07396
# Poissons Ratio (z) = 0.30696 0.10791
#
# Static dielectric constant tensor:
#      x y z
#    x 1.823150 0.000000 0.000000 
#    y 0.000000 1.892720 0.000000 
#    z 0.000000 0.000000 1.664300 
# 
# From -- ./inp_files/39234.got.cif
#   From: 2010.05.17/outbox.cif.g08.bks.cpg/sg64_20_cif.got.tgz:39234.got - 2010.06.03 16:29:19.
