data_PCOD9477046
_publ_section_title
;
Structure prediction by ZEFSAII (Michael W. Deem and Ramdas Pophale) SiO2 
 PCOD9477046
Probable space group: C M C A
;
_chemical_formula_sum "Si O2"
_cell_formula_units_Z 112
_cell_length_a 16.024907
_cell_length_b 23.745078
_cell_length_c 14.628658
_cell_angle_alpha 90.000000
_cell_angle_beta 90.000000
_cell_angle_gamma 90.000000
_cell_volume 5566.389665
_symmetry_space_group_name_H-M "C M C A"
_symmetry_group_IT_number 64
_symmetry_cell_setting 'orthorhombic'
loop_
_space_group_symop_operation_xyz
x,y,z
-x,1/2-y,1/2+z
x,-y,-z
-x,1/2+y,1/2-z
-x,-y,-z
x,1/2+y,1/2-z
-x,y,z
x,1/2-y,1/2+z
1/2+x,1/2+y,z
1/2-x,-y,1/2+z
1/2+x,1/2-y,-z
1/2-x,y,1/2-z
1/2-x,1/2-y,-z
1/2+x,y,1/2-z
1/2-x,1/2+y,z
1/2+x,-y,1/2+z
loop_
_atom_site_type_symbol
_atom_site_label
_atom_site_fract_x
_atom_site_fract_y
_atom_site_fract_z
Si Si1 0.634727 0.438868 0.495078
Si Si2 0.733184 0.817452 0.652102
Si Si3 0.343284 0.395023 0.289086
Si Si4 0.905883 0.223973 0.651757
Si Si5 0.908975 0.816973 0.557444
Si Si6 0.182285 0.425969 0.555964
Si Si7 0.903006 0.530412 0.626126
O O1 0.593185 0.500000 0.500000
O O2 0.654426 0.421330 0.390602
O O3 0.592412 0.384480 0.540432
O O4 0.722182 0.444931 0.547803
O O5 0.750000 0.845835 0.750000
O O6 0.670085 0.766273 0.669525
O O7 0.823828 0.801844 0.610491
O O8 0.687012 0.861552 0.586097
O O9 0.250000 0.387629 0.250000
O O10 0.387933 0.334654 0.296746
O O11 0.388115 0.436867 0.219415
O O12 0.903668 0.210190 0.543304
O O13 0.000000 0.244299 0.673237
O O14 0.000000 0.801522 0.597818
O O15 0.140329 0.436140 0.457528
O O16 0.136182 0.468085 0.624702
O O17 0.000000 0.526058 0.606226
#
# Coordination Sequence:
#
# PCOD9477046 Si02
#       7
#    16  16  16  16  16  16  16
#     4  10  18  34  59  88 123 163 203 246 305 367
#     4  11  24  41  64  89 123 166 203 253 314 367
#     4  11  20  36  62  89 122 160 205 257 308 366
#     4  10  22  41  63  89 121 157 207 260 308 364
#     4   9  21  40  61  87 120 162 207 253 306 370
#     4  10  20  39  58  87 124 163 199 244 301 375
#     4  11  22  38  62  93 125 159 205 257 305 363
#
# _framework density 20.120761000000002
#
# number of rings (size 3 to 8) (size 9 to 14) (size 15 to 20)
#    0.000    1.714    2.857    2.143    0.000    5.429 
#    2.571    1.429    0.000    0.000    0.000    0.000 
#    0.000    0.000    0.000    0.000    0.000    0.000 
#
# Total GULP energy -312586.751918 kJ/mol
# GULP energy per Si atom -5581.906284 kJ/mol
# Density = 2.007496 g / cm^3
# Si number density = 20.120761 Si / 1000 Ang^3
#
#
#
# Elastic Constant Matrix: (Units=GPa)
#
#
# Indices 1 2 3 4 5 6 
#
# 1 150.2785 26.2940 26.3834 0.0000 0.0000 0.0000
# 2 26.2940 63.0810 2.0761 0.0000 0.0000 0.0000
# 3 26.3834 2.0761 33.8629 0.0000 0.0000 0.0000
# 4 0.0000 0.0000 0.0000 24.1498 0.0000 0.0000
# 5 0.0000 0.0000 0.0000 0.0000 -14.0021 0.0000
# 6 0.0000 0.0000 0.0000 0.0000 0.0000 -8.8035
#
#
#
# Elastic Compliance Matrix: (Units=1/GPa)
#
#
# Indices 1 2 3 4 5 6 
#
# 1 0.008330 -0.003265 -0.006290 0.000000 0.000000 0.000000
# 2 -0.003265 0.017165 0.001492 0.000000 0.000000 0.000000
# 3 -0.006290 0.001492 0.034340 0.000000 0.000000 0.000000
# 4 0.000000 0.000000 0.000000 0.041408 0.000000 0.000000
# 5 0.000000 0.000000 0.000000 0.000000 -0.071418 0.000000
# 6 0.000000 0.000000 0.000000 0.000000 0.000000 -0.113591
#
#
# Mechanical properties :
#
#
# Convention : Reuss Voigt Hill
#
# Bulk Modulus (GPa) = 22.87928 39.63660 31.25794
# Shear Modulus (GPa) = -94.21531 13.10009 -40.55761
#
# Velocity S-wave (km/s) = -6.85030 2.55438 -4.49454
# Velocity P-wave (km/s) = 7.15354 5.33310 3.37129
#
# Compressibility (1/GPa) = 0.04370767
#
# Stress axis : x y z
#
# Youngs Moduli (GPa) = 120.04999 58.25967 29.12061
#
# Poissons Ratio (x) = 0.19022 0.18316
# Poissons Ratio (y) = 0.39198 -0.04344
# Poissons Ratio (z) = 0.75509 -0.08690
#
# Static dielectric constant tensor:
#      x y z
#    x 1.713760 0.000000 0.000000 
#    y 0.000000 1.719530 0.000000 
#    z 0.000000 0.000000 1.698710 
# 
# From -- ./inp_files/24203.got.cif
#   From: 2010.05.17/outbox.cif.g08.bks.cpg/sg64_13_cif.got.tgz:24203.got - 2010.06.03 16:29:19.
