data_PCOD9477265
_publ_section_title
;
Structure prediction by ZEFSAII (Michael W. Deem and Ramdas Pophale) SiO2 
 PCOD9477265
Probable space group: C M C A
;
_chemical_formula_sum "Si O2"
_cell_formula_units_Z 88
_cell_length_a 18.980331
_cell_length_b 23.881668
_cell_length_c 8.037223
_cell_angle_alpha 90.000000
_cell_angle_beta 90.000000
_cell_angle_gamma 90.000000
_cell_volume 3643.128222
_symmetry_space_group_name_H-M "C M C A"
_symmetry_group_IT_number 64
_symmetry_cell_setting 'orthorhombic'
loop_
_space_group_symop_operation_xyz
x,y,z
-x,1/2-y,1/2+z
x,-y,-z
-x,1/2+y,1/2-z
-x,-y,-z
x,1/2+y,1/2-z
-x,y,z
x,1/2-y,1/2+z
1/2+x,1/2+y,z
1/2-x,-y,1/2+z
1/2+x,1/2-y,-z
1/2-x,y,1/2-z
1/2-x,1/2-y,-z
1/2+x,y,1/2-z
1/2-x,1/2+y,z
1/2+x,-y,1/2+z
loop_
_atom_site_type_symbol
_atom_site_label
_atom_site_fract_x
_atom_site_fract_y
_atom_site_fract_z
Si Si1 0.105722 0.263342 0.159570
Si Si2 0.424249 0.840873 0.473211
Si Si3 0.332650 0.418058 0.210328
Si Si4 0.863458 0.143664 0.447060
Si Si5 0.750000 0.212027 0.250000
Si Si6 0.328271 0.531875 0.318605
O O1 0.080707 0.297374 0.318805
O O2 0.189923 0.252080 0.173755
O O3 0.079750 0.200199 0.130312
O O4 0.090245 0.302751 0.999982
O O5 0.500000 0.869757 0.467071
O O6 0.359463 0.882713 0.445928
O O7 0.250000 0.419652 0.250000
O O8 0.359975 0.385865 0.372535
O O9 0.357810 0.481971 0.205347
O O10 0.791735 0.172263 0.378484
O O11 0.873478 0.088551 0.333647
O O12 0.321305 0.500000 0.500000
O O13 0.250000 0.545740 0.250000
#
# Coordination Sequence:
#
# PCOD9477265 Si02
#       6
#    16  16  16  16   8  16
#     4  11  23  36  55  84 119 152 189 238 287 349
#     4  11  23  39  58  81 115 157 195 234 293 358
#     4   9  19  34  57  82 111 141 190 243 285 334
#     4  10  19  30  52  82 118 144 182 231 291 342
#     4  12  20  32  56  88 120 148 184 236 296 342
#     4   9  17  32  50  78 112 145 180 233 287 340
#
# _framework density 24.155063999999999
#
# number of rings (size 3 to 8) (size 9 to 14) (size 15 to 20)
#    0.000    1.818    2.727    2.182    5.091    0.000 
#    0.000    0.000    0.000   14.727    0.000    1.273 
#    0.000    0.000    0.000    0.000    0.000    0.000 
#
# Total GULP energy -245285.228990 kJ/mol
# GULP energy per Si atom -5574.664295 kJ/mol
# Density = 2.410009 g / cm^3
# Si number density = 24.155064 Si / 1000 Ang^3
#
#
#
# Elastic Constant Matrix: (Units=GPa)
#
#
# Indices 1 2 3 4 5 6 
#
# 1 58.0006 16.2975 -9.8435 0.0000 0.0000 0.0000
# 2 16.2975 138.5593 13.9951 0.0000 0.0000 0.0000
# 3 -9.8435 13.9951 69.0629 0.0000 0.0000 0.0000
# 4 0.0000 0.0000 0.0000 27.6221 0.0000 0.0000
# 5 0.0000 0.0000 0.0000 0.0000 -20.0049 0.0000
# 6 0.0000 0.0000 0.0000 0.0000 0.0000 0.1239
#
#
#
# Elastic Compliance Matrix: (Units=1/GPa)
#
#
# Indices 1 2 3 4 5 6 
#
# 1 0.018473 -0.002490 0.003138 0.000000 0.000000 0.000000
# 2 -0.002490 0.007703 -0.001916 0.000000 0.000000 0.000000
# 3 0.003138 -0.001916 0.015315 0.000000 0.000000 0.000000
# 4 0.000000 0.000000 0.000000 0.036203 0.000000 0.000000
# 5 0.000000 0.000000 0.000000 0.000000 -0.049988 0.000000
# 6 0.000000 0.000000 0.000000 0.000000 0.000000 8.072281
#
#
# Mechanical properties :
#
#
# Convention : Reuss Voigt Hill
#
# Bulk Modulus (GPa) = 25.67033 34.05787 29.86410
# Shear Modulus (GPa) = 0.61610 17.89314 9.25462
#
# Velocity S-wave (km/s) = 0.50558 2.72465 1.95950
# Velocity P-wave (km/s) = 3.31530 4.90189 4.18448
#
# Compressibility (1/GPa) = 0.03895548
#
# Stress axis : x y z
#
# Youngs Moduli (GPa) = 54.13229 129.81132 65.29544
#
# Poissons Ratio (x) = 0.32320 -0.20487
# Poissons Ratio (y) = 0.13478 0.12510
# Poissons Ratio (z) = -0.16984 0.24871
#
# Static dielectric constant tensor:
#      x y z
#    x 1.247360 0.000000 0.000000 
#    y 0.000000 1.973230 0.000000 
#    z 0.000000 0.000000 2.043260 
# 
# From -- ./inp_files/8225.got.cif
#   From: 2010.05.17/outbox.cif.g08.bks.cpg/sg64_5_cif.got.tgz:8225.got - 2010.06.03 16:29:19.
