data_PCOD9477796
_publ_section_title
;
Structure prediction by ZEFSAII (Michael W. Deem and Ramdas Pophale) SiO2 
 PCOD9477796
Probable space group: C M C A
;
_chemical_formula_sum "Si O2"
_cell_formula_units_Z 96
_cell_length_a 15.640495
_cell_length_b 22.481686
_cell_length_c 13.893555
_cell_angle_alpha 90.000000
_cell_angle_beta 90.000000
_cell_angle_gamma 90.000000
_cell_volume 4885.317074
_symmetry_space_group_name_H-M "C M C A"
_symmetry_group_IT_number 64
_symmetry_cell_setting 'orthorhombic'
loop_
_space_group_symop_operation_xyz
x,y,z
-x,1/2-y,1/2+z
x,-y,-z
-x,1/2+y,1/2-z
-x,-y,-z
x,1/2+y,1/2-z
-x,y,z
x,1/2-y,1/2+z
1/2+x,1/2+y,z
1/2-x,-y,1/2+z
1/2+x,1/2-y,-z
1/2-x,y,1/2-z
1/2-x,1/2-y,-z
1/2+x,y,1/2-z
1/2-x,1/2+y,z
1/2+x,-y,1/2+z
loop_
_atom_site_type_symbol
_atom_site_label
_atom_site_fract_x
_atom_site_fract_y
_atom_site_fract_z
Si Si1 0.595387 0.405414 0.582455
Si Si2 0.092961 0.263842 0.237702
Si Si3 0.710034 0.067658 0.478510
Si Si4 0.846987 0.129435 0.216255
Si Si5 0.372651 0.212010 0.970850
Si Si6 0.178415 0.181938 0.916635
O O1 0.500000 0.429294 0.556881
O O2 0.685699 0.429547 0.538443
O O3 0.606750 0.405935 0.697838
O O4 0.597074 0.336716 0.547005
O O5 0.114227 0.195406 0.213308
O O6 0.089419 0.295140 0.134451
O O7 0.158630 0.295009 0.310041
O O8 0.000000 0.266925 0.284455
O O9 0.663728 0.094344 0.383454
O O10 0.678557 0.111924 0.563076
O O11 0.687681 0.000000 0.500000
O O12 0.750000 0.139410 0.250000
O O13 0.273067 0.199867 0.950095
O O14 0.381651 0.277831 0.014498
#
# Coordination Sequence:
#
# PCOD9477796 Si02
#       6
#    16  16  16  16  16  16
#     4  10  20  36  61  94 122 150 198 261 316 355
#     4  12  22  32  55  91 125 153 195 259 319 360
#     4  10  22  41  63  86 121 172 214 242 286 367
#     4  10  19  35  58  86 118 156 205 247 297 366
#     4  10  19  34  57  86 121 153 189 253 317 367
#     4  10  20  36  58  85 119 157 201 246 300 366
#
# _framework density 19.650721000000001
#
# number of rings (size 3 to 8) (size 9 to 14) (size 15 to 20)
#    0.000    1.667    3.333    2.500    0.000    1.000 
#    0.000   10.000    0.000    8.500    0.000    0.000 
#    0.000    0.000    0.000    0.000    0.000    0.000 
#
# Total GULP energy -267449.912230 kJ/mol
# GULP energy per Si atom -5571.873171 kJ/mol
# Density = 1.960599 g / cm^3
# Si number density = 19.650721 Si / 1000 Ang^3
#
#
#
# Elastic Constant Matrix: (Units=GPa)
#
#
# Indices 1 2 3 4 5 6 
#
# 1 52.4847 15.1767 19.6898 0.0000 0.0000 0.0000
# 2 15.1767 124.6131 36.2881 0.0000 0.0000 0.0000
# 3 19.6898 36.2881 85.3305 0.0000 0.0000 0.0000
# 4 0.0000 0.0000 0.0000 16.7702 0.0000 0.0000
# 5 0.0000 0.0000 0.0000 0.0000 18.8820 0.0000
# 6 0.0000 0.0000 0.0000 0.0000 0.0000 -22.3278
#
#
#
# Elastic Compliance Matrix: (Units=1/GPa)
#
#
# Indices 1 2 3 4 5 6 
#
# 1 0.021045 -0.001311 -0.004298 0.000000 0.000000 0.000000
# 2 -0.001311 0.009241 -0.003627 0.000000 0.000000 0.000000
# 3 -0.004298 -0.003627 0.014254 0.000000 0.000000 0.000000
# 4 0.000000 0.000000 0.000000 0.059630 0.000000 0.000000
# 5 0.000000 0.000000 0.000000 0.000000 0.052960 0.000000
# 6 0.000000 0.000000 0.000000 0.000000 0.000000 -0.044787
#
#
# Mechanical properties :
#
#
# Convention : Reuss Voigt Hill
#
# Bulk Modulus (GPa) = 38.36512 44.97084 41.66798
# Shear Modulus (GPa) = 35.84110 15.41645 25.62878
#
# Velocity S-wave (km/s) = 4.27536 2.80397 3.61531
# Velocity P-wave (km/s) = 6.62853 5.78081 6.21913
#
# Compressibility (1/GPa) = 0.02606534
#
# Stress axis : x y z
#
# Youngs Moduli (GPa) = 47.51738 108.21562 70.15819
#
# Poissons Ratio (x) = 0.14191 0.30157
# Poissons Ratio (y) = 0.06231 0.25448
# Poissons Ratio (z) = 0.20425 0.39252
#
# Static dielectric constant tensor:
#      x y z
#    x 1.756600 0.000000 0.000000 
#    y 0.000000 1.662740 0.000000 
#    z 0.000000 0.000000 1.729380 
# 
# From -- ./inp_files/23898.got.cif
#   From: 2010.05.17/outbox.cif.g08.bks.cpg/sg64_12_cif.got.tgz:23898.got - 2010.06.03 16:29:19.
