data_PCOD9477033
_publ_section_title
;
Structure prediction by ZEFSAII (Michael W. Deem and Ramdas Pophale) SiO2 
 PCOD9477033
Probable space group: C M C A
;
_chemical_formula_sum "Si O2"
_cell_formula_units_Z 112
_cell_length_a 19.320730
_cell_length_b 11.989443
_cell_length_c 27.820434
_cell_angle_alpha 90.000000
_cell_angle_beta 90.000000
_cell_angle_gamma 90.000000
_cell_volume 6444.458621
_symmetry_space_group_name_H-M "C M C A"
_symmetry_group_IT_number 64
_symmetry_cell_setting 'orthorhombic'
loop_
_space_group_symop_operation_xyz
x,y,z
-x,1/2-y,1/2+z
x,-y,-z
-x,1/2+y,1/2-z
-x,-y,-z
x,1/2+y,1/2-z
-x,y,z
x,1/2-y,1/2+z
1/2+x,1/2+y,z
1/2-x,-y,1/2+z
1/2+x,1/2-y,-z
1/2-x,y,1/2-z
1/2-x,1/2-y,-z
1/2+x,y,1/2-z
1/2-x,1/2+y,z
1/2+x,-y,1/2+z
loop_
_atom_site_type_symbol
_atom_site_label
_atom_site_fract_x
_atom_site_fract_y
_atom_site_fract_z
Si Si1 0.161186 0.317179 0.212782
Si Si2 0.310657 0.869493 0.321350
Si Si3 0.080006 0.462188 0.149292
Si Si4 0.671263 0.845535 0.883022
Si Si5 0.417795 0.234511 0.922587
Si Si6 0.918236 0.375176 0.978321
Si Si7 0.327679 0.888166 0.643340
O O1 0.227965 0.378639 0.188806
O O2 0.164241 0.323440 0.269843
O O3 0.094668 0.383657 0.194566
O O4 0.166543 0.194987 0.189268
O O5 0.326903 0.778493 0.361722
O O6 0.340330 0.987783 0.337672
O O7 0.125926 0.571932 0.149869
O O8 0.100927 0.380854 0.105049
O O9 0.000000 0.490692 0.143984
O O10 0.633743 0.854601 0.934472
O O11 0.750806 0.884312 0.879433
O O12 0.500000 0.248941 0.916169
O O13 0.378080 0.334608 0.896554
O O14 0.404322 0.211717 0.978494
O O15 0.000000 0.365733 0.964194
O O16 0.910171 0.500000 0.000000
#
# Coordination Sequence:
#
# PCOD9477033 Si02
#       7
#    16  16  16  16  16  16  16
#     4   9  20  35  58  81 106 153 196 224 278 343
#     4  10  21  35  57  83 114 148 187 235 285 340
#     4  10  18  34  57  82 112 142 186 241 279 324
#     4  11  21  33  56  88 117 143 189 242 286 326
#     4   9  19  37  60  81 108 153 193 229 281 342
#     4  10  19  35  60  85 111 150 195 236 281 334
#     4  10  21  37  56  84 119 148 188 234 287 345
#
# _framework density 17.379273000000001
#
# number of rings (size 3 to 8) (size 9 to 14) (size 15 to 20)
#    0.000    2.143    2.857    0.429    2.000    1.714 
#    0.000    4.286    0.000    1.714    0.000    0.000 
#    0.000    0.000    0.000    0.000    0.000    0.000 
#
# Total GULP energy -312093.882850 kJ/mol
# GULP energy per Si atom -5573.105051 kJ/mol
# Density = 1.733972 g / cm^3
# Si number density = 17.379273 Si / 1000 Ang^3
#
#
#
# Elastic Constant Matrix: (Units=GPa)
#
#
# Indices 1 2 3 4 5 6 
#
# 1 44.8998 25.6680 37.1633 0.0000 0.0000 0.0000
# 2 25.6680 80.0408 38.4462 0.0000 0.0000 0.0000
# 3 37.1633 38.4462 106.2877 0.0000 0.0000 0.0000
# 4 0.0000 0.0000 0.0000 16.3189 0.0000 0.0000
# 5 0.0000 0.0000 0.0000 0.0000 17.6829 0.0000
# 6 0.0000 0.0000 0.0000 0.0000 0.0000 26.0402
#
#
#
# Elastic Compliance Matrix: (Units=1/GPa)
#
#
# Indices 1 2 3 4 5 6 
#
# 1 0.033732 -0.006236 -0.009539 0.000000 0.000000 0.000000
# 2 -0.006236 0.016273 -0.003706 0.000000 0.000000 0.000000
# 3 -0.009539 -0.003706 0.014084 0.000000 0.000000 0.000000
# 4 0.000000 0.000000 0.000000 0.061278 0.000000 0.000000
# 5 0.000000 0.000000 0.000000 0.000000 0.056552 0.000000
# 6 0.000000 0.000000 0.000000 0.000000 0.000000 0.038402
#
#
# Mechanical properties :
#
#
# Convention : Reuss Voigt Hill
#
# Bulk Modulus (GPa) = 39.79544 48.19814 43.99679
# Shear Modulus (GPa) = 18.68053 20.67181 19.67617
#
# Velocity S-wave (km/s) = 3.28208 3.45258 3.36841
# Velocity P-wave (km/s) = 6.10825 6.60962 6.36387
#
# Compressibility (1/GPa) = 0.02512851
#
# Stress axis : x y z
#
# Youngs Moduli (GPa) = 29.64581 61.44966 71.00159
#
# Poissons Ratio (x) = 0.38317 0.67726
# Poissons Ratio (y) = 0.18486 0.26314
# Poissons Ratio (z) = 0.28278 0.22774
#
# Static dielectric constant tensor:
#      x y z
#    x 1.602530 0.000000 0.000000 
#    y 0.000000 1.582000 0.000000 
#    z 0.000000 0.000000 1.610640 
# 
# From -- ./inp_files/50854.got.cif
#   From: 2010.05.17/outbox.cif.g08.bks.cpg/sg64_26_cif.got.tgz:50854.got - 2010.06.03 16:29:19.
