data_PCOD9477696
_publ_section_title
;
Structure prediction by ZEFSAII (Michael W. Deem and Ramdas Pophale) SiO2 
 PCOD9477696
Probable space group: C M C A
;
_chemical_formula_sum "Si O2"
_cell_formula_units_Z 80
_cell_length_a 18.725136
_cell_length_b 22.618108
_cell_length_c 9.039479
_cell_angle_alpha 90.000000
_cell_angle_beta 90.000000
_cell_angle_gamma 90.000000
_cell_volume 3828.464764
_symmetry_space_group_name_H-M "C M C A"
_symmetry_group_IT_number 64
_symmetry_cell_setting 'orthorhombic'
loop_
_space_group_symop_operation_xyz
x,y,z
-x,1/2-y,1/2+z
x,-y,-z
-x,1/2+y,1/2-z
-x,-y,-z
x,1/2+y,1/2-z
-x,y,z
x,1/2-y,1/2+z
1/2+x,1/2+y,z
1/2-x,-y,1/2+z
1/2+x,1/2-y,-z
1/2-x,y,1/2-z
1/2-x,1/2-y,-z
1/2+x,y,1/2-z
1/2-x,1/2+y,z
1/2+x,-y,1/2+z
loop_
_atom_site_type_symbol
_atom_site_label
_atom_site_fract_x
_atom_site_fract_y
_atom_site_fract_z
Si Si1 0.500000 0.315785 0.124741
Si Si2 0.842708 0.329969 0.805202
Si Si3 0.157083 0.931419 0.482670
Si Si4 0.156680 0.789817 0.017507
Si Si5 0.000000 0.110800 0.592142
Si Si6 0.000000 0.815288 0.678644
Si Si7 0.750000 0.636809 0.750000
O O1 0.500000 0.370282 0.237303
O O2 0.500000 0.253687 0.214138
O O3 0.574800 0.311471 0.038459
O O4 0.815944 0.303802 0.648676
O O5 0.841709 0.278902 0.931902
O O6 0.926264 0.342161 0.770210
O O7 0.817768 0.390964 0.878185
O O8 0.196362 0.903486 0.342583
O O9 0.072230 0.922290 0.454805
O O10 0.173361 0.000000 0.500000
O O11 0.204835 0.823731 0.136262
O O12 0.000000 0.171723 0.497300
#
# Coordination Sequence:
#
# PCOD9477696 Si02
#       7
#     8  16  16  16   8   8   8
#     4  10  19  33  64  94 129 161 200 265 316 381
#     4  10  22  39  63  95 128 167 208 265 322 389
#     4  11  25  45  68  92 127 173 222 262 316 384
#     4  11  23  38  65  96 131 161 209 266 334 387
#     4  10  19  42  65  95 124 172 214 263 316 378
#     4   8  19  29  61  95 128 157 203 251 328 377
#     4  12  26  42  62  94 126 170 212 270 330 382
#
# _framework density 20.896104000000001
#
# number of rings (size 3 to 8) (size 9 to 14) (size 15 to 20)
#    0.000    1.600    2.000    2.100   14.000    5.600 
#    0.000    0.000    0.000    1.200    0.000    0.000 
#    0.000    0.000    0.000    0.000    0.000    0.000 
#
# Total GULP energy -223406.012314 kJ/mol
# GULP energy per Si atom -5585.150308 kJ/mol
# Density = 2.084854 g / cm^3
# Si number density = 20.896104 Si / 1000 Ang^3
#
#
#
# Elastic Constant Matrix: (Units=GPa)
#
#
# Indices 1 2 3 4 5 6 
#
# 1 104.0234 25.2659 30.9194 0.0000 0.0000 0.0000
# 2 25.2659 139.8082 65.5416 0.0000 0.0000 0.0000
# 3 30.9194 65.5416 142.9248 0.0000 0.0000 0.0000
# 4 0.0000 0.0000 0.0000 20.4440 0.0000 0.0000
# 5 0.0000 0.0000 0.0000 0.0000 17.6579 0.0000
# 6 0.0000 0.0000 0.0000 0.0000 0.0000 13.7883
#
#
#
# Elastic Compliance Matrix: (Units=1/GPa)
#
#
# Indices 1 2 3 4 5 6 
#
# 1 0.010393 -0.001050 -0.001767 0.000000 0.000000 0.000000
# 2 -0.001050 0.009217 -0.004000 0.000000 0.000000 0.000000
# 3 -0.001767 -0.004000 0.009213 0.000000 0.000000 0.000000
# 4 0.000000 0.000000 0.000000 0.048914 0.000000 0.000000
# 5 0.000000 0.000000 0.000000 0.000000 0.056632 0.000000
# 6 0.000000 0.000000 0.000000 0.000000 0.000000 0.072525
#
#
# Mechanical properties :
#
#
# Convention : Reuss Voigt Hill
#
# Bulk Modulus (GPa) = 65.82971 70.02335 67.92653
# Shear Modulus (GPa) = 22.16388 28.04668 25.10528
#
# Velocity S-wave (km/s) = 3.26033 3.66757 3.46993
# Velocity P-wave (km/s) = 6.76348 7.17759 6.97361
#
# Compressibility (1/GPa) = 0.01519071
#
# Stress axis : x y z
#
# Youngs Moduli (GPa) = 96.21453 108.48969 108.54083
#
# Poissons Ratio (x) = 0.11391 0.19179
# Poissons Ratio (y) = 0.10102 0.43414
# Poissons Ratio (z) = 0.17001 0.43393
#
# Static dielectric constant tensor:
#      x y z
#    x 1.836770 0.000000 0.000000 
#    y 0.000000 1.695160 0.000000 
#    z 0.000000 0.000000 1.781930 
# 
# From -- ./inp_files/7212.got.cif
#   From: 2010.05.17/outbox.cif.g08.bks.cpg/sg64_4_cif.got.tgz:7212.got - 2010.06.03 16:29:19.
