data_PCOD9477262
_publ_section_title
;
Structure prediction by ZEFSAII (Michael W. Deem and Ramdas Pophale) SiO2 
 PCOD9477262
Probable space group: C M C A
;
_chemical_formula_sum "Si O2"
_cell_formula_units_Z 64
_cell_length_a 17.291208
_cell_length_b 11.262411
_cell_length_c 13.078969
_cell_angle_alpha 90.000000
_cell_angle_beta 90.000000
_cell_angle_gamma 90.000000
_cell_volume 2547.007463
_symmetry_space_group_name_H-M "C M C A"
_symmetry_group_IT_number 64
_symmetry_cell_setting 'orthorhombic'
loop_
_space_group_symop_operation_xyz
x,y,z
-x,1/2-y,1/2+z
x,-y,-z
-x,1/2+y,1/2-z
-x,-y,-z
x,1/2+y,1/2-z
-x,y,z
x,1/2-y,1/2+z
1/2+x,1/2+y,z
1/2-x,-y,1/2+z
1/2+x,1/2-y,-z
1/2-x,y,1/2-z
1/2-x,1/2-y,-z
1/2+x,y,1/2-z
1/2-x,1/2+y,z
1/2+x,-y,1/2+z
loop_
_atom_site_type_symbol
_atom_site_label
_atom_site_fract_x
_atom_site_fract_y
_atom_site_fract_z
Si Si1 0.583649 0.192202 0.286884
Si Si2 0.716490 0.049536 0.362224
Si Si3 0.586439 0.862256 0.391780
Si Si4 0.884682 0.896968 0.573372
O O1 0.500000 0.183419 0.337124
O O2 0.659426 0.161258 0.348439
O O3 0.586084 0.098508 0.190922
O O4 0.589758 0.315161 0.225771
O O5 0.750000 0.014873 0.250000
O O6 0.659417 0.947297 0.403093
O O7 0.792195 0.089112 0.422451
O O8 0.500000 0.911789 0.408225
O O9 0.594002 0.738491 0.453898
O O10 0.914114 0.000000 0.500000
#
# Coordination Sequence:
#
# PCOD9477262 Si02
#       4
#    16  16  16  16
#     4   8  17  32  50  73  98 130 166 206 247 289
#     4  10  19  30  52  77 101 129 165 212 250 295
#     4   9  19  32  51  72  97 132 164 202 251 294
#     4   9  19  33  49  77 103 132 166 205 247 298
#
# _framework density 25.127527000000001
#
# number of rings (size 3 to 8) (size 9 to 14) (size 15 to 20)
#    1.500    1.500    0.000    0.750    3.500    3.000 
#    0.000    0.000    0.000    3.000    0.000    0.000 
#    0.000    0.000    0.000    0.000    0.000    0.000 
#
# Total GULP energy -178526.653229 kJ/mol
# GULP energy per Si atom -5578.957913 kJ/mol
# Density = 2.507034 g / cm^3
# Si number density = 25.127527 Si / 1000 Ang^3
#
#
#
# Elastic Constant Matrix: (Units=GPa)
#
#
# Indices 1 2 3 4 5 6 
#
# 1 242.1515 53.6314 21.7704 0.0000 0.0000 0.0000
# 2 53.6314 81.9204 25.1696 0.0000 0.0000 0.0000
# 3 21.7704 25.1696 50.5924 0.0000 0.0000 0.0000
# 4 0.0000 0.0000 0.0000 48.6384 0.0000 0.0000
# 5 0.0000 0.0000 0.0000 0.0000 11.2813 0.0000
# 6 0.0000 0.0000 0.0000 0.0000 0.0000 65.1492
#
#
#
# Elastic Compliance Matrix: (Units=1/GPa)
#
#
# Indices 1 2 3 4 5 6 
#
# 1 0.004845 -0.002988 -0.000598 0.000000 0.000000 0.000000
# 2 -0.002988 0.016252 -0.006800 0.000000 0.000000 0.000000
# 3 -0.000598 -0.006800 0.023406 0.000000 0.000000 0.000000
# 4 0.000000 0.000000 0.000000 0.020560 0.000000 0.000000
# 5 0.000000 0.000000 0.000000 0.000000 0.088642 0.000000
# 6 0.000000 0.000000 0.000000 0.000000 0.000000 0.015349
#
#
# Mechanical properties :
#
#
# Convention : Reuss Voigt Hill
#
# Bulk Modulus (GPa) = 42.13837 63.97856 53.05847
# Shear Modulus (GPa) = 25.28593 43.28663 34.28628
#
# Velocity S-wave (km/s) = 3.17567 4.15502 3.69791
# Velocity P-wave (km/s) = 5.50025 6.96676 6.27648
#
# Compressibility (1/GPa) = 0.02373134
#
# Stress axis : x y z
#
# Youngs Moduli (GPa) = 206.38675 61.52904 42.72385
#
# Poissons Ratio (x) = 0.18386 0.02556
# Poissons Ratio (y) = 0.61674 0.29051
# Poissons Ratio (z) = 0.12348 0.41838
#
# Static dielectric constant tensor:
#      x y z
#    x 1.922270 0.000000 0.000000 
#    y 0.000000 1.975420 0.000000 
#    z 0.000000 0.000000 2.105310 
# 
# From -- ./inp_files/25014.got.cif
#   From: 2010.05.17/outbox.cif.g08.bks.cpg/sg64_13_cif.got.tgz:25014.got - 2010.06.03 16:29:19.
