data_PCOD9477263
_publ_section_title
;
Structure prediction by ZEFSAII (Michael W. Deem and Ramdas Pophale) SiO2 
 PCOD9477263
Probable space group: C M C A
;
_chemical_formula_sum "Si O2"
_cell_formula_units_Z 128
_cell_length_a 17.724715
_cell_length_b 20.266419
_cell_length_c 20.482913
_cell_angle_alpha 90.000000
_cell_angle_beta 90.000000
_cell_angle_gamma 90.000000
_cell_volume 7357.800335
_symmetry_space_group_name_H-M "C M C A"
_symmetry_group_IT_number 64
_symmetry_cell_setting 'orthorhombic'
loop_
_space_group_symop_operation_xyz
x,y,z
-x,1/2-y,1/2+z
x,-y,-z
-x,1/2+y,1/2-z
-x,-y,-z
x,1/2+y,1/2-z
-x,y,z
x,1/2-y,1/2+z
1/2+x,1/2+y,z
1/2-x,-y,1/2+z
1/2+x,1/2-y,-z
1/2-x,y,1/2-z
1/2-x,1/2-y,-z
1/2+x,y,1/2-z
1/2-x,1/2+y,z
1/2+x,-y,1/2+z
loop_
_atom_site_type_symbol
_atom_site_label
_atom_site_fract_x
_atom_site_fract_y
_atom_site_fract_z
Si Si1 0.337932 0.000920 0.265390
Si Si2 0.082426 0.507319 0.608000
Si Si3 0.843046 0.260426 0.353091
Si Si4 0.090295 0.639958 0.749363
Si Si5 0.340698 0.239629 0.853937
Si Si6 0.918084 0.609261 0.495929
Si Si7 0.838102 0.263467 0.502150
Si Si8 0.841252 0.849806 0.751728
O O1 0.250000 0.995063 0.250000
O O2 0.366990 0.074265 0.245739
O O3 0.350219 0.999241 0.342808
O O4 0.381399 0.935266 0.242524
O O5 0.082963 0.446802 0.558345
O O6 0.086874 0.572344 0.564576
O O7 0.000000 0.507430 0.641976
O O8 0.877017 0.324522 0.316318
O O9 0.751126 0.265748 0.351801
O O10 0.867817 0.250431 0.428523
O O11 0.864552 0.197804 0.307880
O O12 0.123476 0.683864 0.808290
O O13 0.000000 0.642758 0.747632
O O14 0.360979 0.309804 0.818518
O O15 0.366601 0.233190 0.929262
O O16 0.851575 0.659350 0.487465
O O17 0.000000 0.643705 0.492238
O O18 0.750000 0.250000 0.500000
O O19 0.750000 0.852852 0.750000
#
# Coordination Sequence:
#
# PCOD9477263 Si02
#       8
#    16  16  16  16  16  16  16  16
#     4  11  20  31  51  75 101 136 173 211 255 302
#     4   9  18  33  52  78 107 131 157 201 262 324
#     4   9  18  35  55  76 103 133 167 211 255 302
#     4  11  22  35  51  74 102 136 175 213 252 301
#     4   9  18  35  54  76 104 133 165 210 260 305
#     4   9  18  32  52  78 108 133 156 198 264 325
#     4  10  19  30  52  79 104 133 168 206 251 304
#     4   8  16  31  51  72  99 131 165 206 253 299
#
# _framework density 17.396504
#
# number of rings (size 3 to 8) (size 9 to 14) (size 15 to 20)
#    0.000    2.500    0.000    4.500    0.000    4.000 
#    0.000    6.250    0.000    0.750    0.000    0.875 
#    0.000    0.000    0.000    0.000    0.000    0.000 
#
# Total GULP energy -356299.049331 kJ/mol
# GULP energy per Si atom -5567.172646 kJ/mol
# Density = 1.735691 g / cm^3
# Si number density = 17.396504 Si / 1000 Ang^3
#
#
#
# Elastic Constant Matrix: (Units=GPa)
#
#
# Indices 1 2 3 4 5 6 
#
# 1 57.6163 32.4019 28.5068 0.0000 0.0000 0.0000
# 2 32.4019 114.9286 35.5722 0.0000 0.0000 0.0000
# 3 28.5068 35.5722 134.8400 0.0000 0.0000 0.0000
# 4 0.0000 0.0000 0.0000 16.0589 0.0000 0.0000
# 5 0.0000 0.0000 0.0000 0.0000 19.1450 0.0000
# 6 0.0000 0.0000 0.0000 0.0000 0.0000 12.2517
#
#
#
# Elastic Compliance Matrix: (Units=1/GPa)
#
#
# Indices 1 2 3 4 5 6 
#
# 1 0.021870 -0.005156 -0.003264 0.000000 0.000000 0.000000
# 2 -0.005156 0.010690 -0.001730 0.000000 0.000000 0.000000
# 3 -0.003264 -0.001730 0.008563 0.000000 0.000000 0.000000
# 4 0.000000 0.000000 0.000000 0.062271 0.000000 0.000000
# 5 0.000000 0.000000 0.000000 0.000000 0.052233 0.000000
# 6 0.000000 0.000000 0.000000 0.000000 0.000000 0.081621
#
#
# Mechanical properties :
#
#
# Convention : Reuss Voigt Hill
#
# Bulk Modulus (GPa) = 48.02123 55.59407 51.80765
# Shear Modulus (GPa) = 18.90442 23.55140 21.22791
#
# Velocity S-wave (km/s) = 3.30006 3.68339 3.49698
# Velocity P-wave (km/s) = 6.49495 7.07928 6.79340
#
# Compressibility (1/GPa) = 0.02082412
#
# Stress axis : x y z
#
# Youngs Moduli (GPa) = 45.72389 93.54401 116.78723
#
# Poissons Ratio (x) = 0.48230 0.38114
# Poissons Ratio (y) = 0.23574 0.20206
# Poissons Ratio (z) = 0.14922 0.16185
#
# Static dielectric constant tensor:
#      x y z
#    x 1.547170 0.000000 0.000000 
#    y 0.000000 1.604840 0.000000 
#    z 0.000000 0.000000 1.630240 
# 
# From -- ./inp_files/40581.got.cif
#   From: 2010.05.17/outbox.cif.g08.bks.cpg/sg64_21_cif.got.tgz:40581.got - 2010.06.03 16:29:19.
