data_PCOD9477917
_publ_section_title
;
Structure prediction by ZEFSAII (Michael W. Deem and Ramdas Pophale) SiO2 
 PCOD9477917
Probable space group: C M C A
;
_chemical_formula_sum "Si O2"
_cell_formula_units_Z 96
_cell_length_a 8.645650
_cell_length_b 30.514670
_cell_length_c 19.326661
_cell_angle_alpha 90.000000
_cell_angle_beta 90.000000
_cell_angle_gamma 90.000000
_cell_volume 5098.743407
_symmetry_space_group_name_H-M "C M C A"
_symmetry_group_IT_number 64
_symmetry_cell_setting 'orthorhombic'
loop_
_space_group_symop_operation_xyz
x,y,z
-x,1/2-y,1/2+z
x,-y,-z
-x,1/2+y,1/2-z
-x,-y,-z
x,1/2+y,1/2-z
-x,y,z
x,1/2-y,1/2+z
1/2+x,1/2+y,z
1/2-x,-y,1/2+z
1/2+x,1/2-y,-z
1/2-x,y,1/2-z
1/2-x,1/2-y,-z
1/2+x,y,1/2-z
1/2-x,1/2+y,z
1/2+x,-y,1/2+z
loop_
_atom_site_type_symbol
_atom_site_label
_atom_site_fract_x
_atom_site_fract_y
_atom_site_fract_z
Si Si1 0.812931 0.092626 0.075380
Si Si2 0.687057 0.484191 0.826854
Si Si3 0.315050 0.357861 0.176297
Si Si4 0.184978 0.811073 0.554960
Si Si5 0.315076 0.278269 0.401352
Si Si6 0.812042 0.064028 0.924361
O O1 0.766916 0.062342 0.139800
O O2 0.748594 0.141661 0.075678
O O3 0.000000 0.094916 0.074115
O O4 0.762414 0.068958 0.003760
O O5 0.500000 0.485831 0.824220
O O6 0.750000 0.490804 0.750000
O O7 0.739132 0.522018 0.880416
O O8 0.500000 0.356981 0.178359
O O9 0.250000 0.372200 0.250000
O O10 0.251310 0.310301 0.156442
O O11 0.266121 0.392528 0.117696
O O12 0.250193 0.770844 0.599761
O O13 0.231799 0.799396 0.475708
O O14 0.000000 0.811109 0.558035
O O15 0.500000 0.277280 0.398180
O O16 0.000000 0.062262 0.925670
#
# Coordination Sequence:
#
# PCOD9477917 Si02
#       6
#    16  16  16  16  16  16
#     4  10  19  35  59  84 110 145 192 237 278 332
#     4  10  21  37  57  81 112 150 188 231 281 336
#     4  11  21  34  54  81 116 152 188 232 285 338
#     4  10  20  34  56  84 112 141 180 232 284 331
#     4  10  20  35  55  80 111 146 185 226 277 337
#     4   9  18  34  57  83 109 145 190 234 278 331
#
# _framework density 18.828168000000002
#
# number of rings (size 3 to 8) (size 9 to 14) (size 15 to 20)
#    0.000    2.000    1.667    2.500    0.000    4.000 
#    0.000    2.500    0.000    4.000    0.000    0.000 
#    0.000    0.000    0.000    0.000    0.000    0.000 
#
# Total GULP energy -267999.834949 kJ/mol
# GULP energy per Si atom -5583.329895 kJ/mol
# Density = 1.878531 g / cm^3
# Si number density = 18.828168 Si / 1000 Ang^3
#
#
#
# Elastic Constant Matrix: (Units=GPa)
#
#
# Indices 1 2 3 4 5 6 
#
# 1 19.1855 21.0088 9.0617 0.0000 0.0000 0.0000
# 2 21.0088 123.5999 19.6059 0.0000 0.0000 0.0000
# 3 9.0617 19.6059 40.7720 0.0000 0.0000 0.0000
# 4 0.0000 0.0000 0.0000 37.3153 0.0000 0.0000
# 5 0.0000 0.0000 0.0000 0.0000 26.5102 0.0000
# 6 0.0000 0.0000 0.0000 0.0000 0.0000 24.5435
#
#
#
# Elastic Compliance Matrix: (Units=1/GPa)
#
#
# Indices 1 2 3 4 5 6 
#
# 1 0.067829 -0.009892 -0.010318 0.000000 0.000000 0.000000
# 2 -0.009892 0.010201 -0.002707 0.000000 0.000000 0.000000
# 3 -0.010318 -0.002707 0.028122 0.000000 0.000000 0.000000
# 4 0.000000 0.000000 0.000000 0.026799 0.000000 0.000000
# 5 0.000000 0.000000 0.000000 0.000000 0.037721 0.000000
# 6 0.000000 0.000000 0.000000 0.000000 0.000000 0.040744
#
#
# Mechanical properties :
#
#
# Convention : Reuss Voigt Hill
#
# Bulk Modulus (GPa) = 16.57915 31.43446 24.00680
# Shear Modulus (GPa) = 18.02735 26.59919 22.31327
#
# Velocity S-wave (km/s) = 3.09765 3.76271 3.44626
# Velocity P-wave (km/s) = 4.64958 5.96733 5.34919
#
# Compressibility (1/GPa) = 0.06031674
#
# Stress axis : x y z
#
# Youngs Moduli (GPa) = 14.74302 98.02523 35.55995
#
# Poissons Ratio (x) = 0.96970 0.36691
# Poissons Ratio (y) = 0.14584 0.09626
# Poissons Ratio (z) = 0.15212 0.26535
#
# Static dielectric constant tensor:
#      x y z
#    x 1.637620 0.000000 0.000000 
#    y 0.000000 1.645730 0.000000 
#    z 0.000000 0.000000 1.644240 
# 
# From -- ./inp_files/37035.got.cif
#   From: 2010.05.17/outbox.cif.g08.bks.cpg/sg64_19_cif.got.tgz:37035.got - 2010.06.03 16:29:19.
