data_PCOD9477947
_publ_section_title
;
Structure prediction by ZEFSAII (Michael W. Deem and Ramdas Pophale) SiO2 
 PCOD9477947
Probable space group: C M C A
;
_chemical_formula_sum "Si O2"
_cell_formula_units_Z 120
_cell_length_a 19.807718
_cell_length_b 19.419868
_cell_length_c 14.350694
_cell_angle_alpha 90.000000
_cell_angle_beta 90.000000
_cell_angle_gamma 90.000000
_cell_volume 5520.184866
_symmetry_space_group_name_H-M "C M C A"
_symmetry_group_IT_number 64
_symmetry_cell_setting 'orthorhombic'
loop_
_space_group_symop_operation_xyz
x,y,z
-x,1/2-y,1/2+z
x,-y,-z
-x,1/2+y,1/2-z
-x,-y,-z
x,1/2+y,1/2-z
-x,y,z
x,1/2-y,1/2+z
1/2+x,1/2+y,z
1/2-x,-y,1/2+z
1/2+x,1/2-y,-z
1/2-x,y,1/2-z
1/2-x,1/2-y,-z
1/2+x,y,1/2-z
1/2-x,1/2+y,z
1/2+x,-y,1/2+z
loop_
_atom_site_type_symbol
_atom_site_label
_atom_site_fract_x
_atom_site_fract_y
_atom_site_fract_z
Si Si1 0.687929 0.373584 0.706911
Si Si2 0.076544 0.813909 0.044755
Si Si3 0.220928 0.491612 0.109261
Si Si4 0.387430 0.808813 0.239238
Si Si5 0.073828 0.341182 0.935381
Si Si6 0.427806 0.933545 0.115174
Si Si7 0.080667 0.156767 0.156103
Si Si8 0.250000 0.121148 0.750000
O O1 0.750000 0.329824 0.750000
O O2 0.728119 0.435914 0.659636
O O3 0.640412 0.342994 0.626592
O O4 0.630347 0.390320 0.783030
O O5 0.105085 0.814786 0.148920
O O6 0.073998 0.733261 0.017114
O O7 0.000000 0.839426 0.054750
O O8 0.104867 0.848030 0.951464
O O9 0.141029 0.475140 0.125399
O O10 0.261316 0.431398 0.162953
O O11 0.234598 0.500000 0.000000
O O12 0.426986 0.869759 0.186942
O O13 0.407761 0.733889 0.199973
O O14 0.310828 0.830261 0.220388
O O15 0.000000 0.345447 0.885714
O O16 0.075906 0.399973 0.012595
O O17 0.500000 0.970869 0.124552
O O18 0.000000 0.142932 0.159607
#
# Coordination Sequence:
#
# PCOD9477947 Si02
#       8
#    16  16  16  16  16  16  16   8
#     4  12  25  40  60  89 128 166 204 246 313 372
#     4  10  20  36  60  91 125 163 197 237 307 374
#     4  11  23  43  64  84 118 166 211 260 308 359
#     4  11  21  38  62  89 126 161 201 252 305 366
#     4  10  19  35  61  94 124 157 202 256 309 365
#     4  10  20  35  62  94 118 153 210 267 313 361
#     4  11  23  39  63  96 130 162 198 251 311 372
#     4  10  26  44  60  88 120 164 214 254 304 370
#
# _framework density 21.738402000000001
#
# number of rings (size 3 to 8) (size 9 to 14) (size 15 to 20)
#    0.000    1.333    4.667    1.600    0.933    2.400 
#    0.000    1.333    0.000    0.000    0.000    4.667 
#    0.000    0.000    0.000    0.000    0.000    0.000 
#
# Total GULP energy -334533.500904 kJ/mol
# GULP energy per Si atom -5575.558348 kJ/mol
# Density = 2.168892 g / cm^3
# Si number density = 21.738402 Si / 1000 Ang^3
#
#
#
# Elastic Constant Matrix: (Units=GPa)
#
#
# Indices 1 2 3 4 5 6 
#
# 1 90.6602 3.6723 0.1955 0.0000 0.0000 0.0000
# 2 3.6723 36.2154 11.4704 0.0000 0.0000 0.0000
# 3 0.1955 11.4704 120.4144 0.0000 0.0000 0.0000
# 4 0.0000 0.0000 0.0000 24.6192 0.0000 0.0000
# 5 0.0000 0.0000 0.0000 0.0000 30.8378 0.0000
# 6 0.0000 0.0000 0.0000 0.0000 0.0000 6.7300
#
#
#
# Elastic Compliance Matrix: (Units=1/GPa)
#
#
# Indices 1 2 3 4 5 6 
#
# 1 0.011077 -0.001152 0.000092 0.000000 0.000000 0.000000
# 2 -0.001152 0.028591 -0.002722 0.000000 0.000000 0.000000
# 3 0.000092 -0.002722 0.008564 0.000000 0.000000 0.000000
# 4 0.000000 0.000000 0.000000 0.040619 0.000000 0.000000
# 5 0.000000 0.000000 0.000000 0.000000 0.032428 0.000000
# 6 0.000000 0.000000 0.000000 0.000000 0.000000 0.148588
#
#
# Mechanical properties :
#
#
# Convention : Reuss Voigt Hill
#
# Bulk Modulus (GPa) = 24.58967 30.88519 27.73743
# Shear Modulus (GPa) = 17.18290 27.90085 22.54187
#
# Velocity S-wave (km/s) = 2.81453 3.58646 3.22368
# Velocity P-wave (km/s) = 4.67956 5.60257 5.16173
#
# Compressibility (1/GPa) = 0.04066748
#
# Stress axis : x y z
#
# Youngs Moduli (GPa) = 90.27981 34.97554 116.77107
#
# Poissons Ratio (x) = 0.04030 -0.01072
# Poissons Ratio (y) = 0.10403 0.31781
# Poissons Ratio (z) = -0.00829 0.09519
#
# Static dielectric constant tensor:
#      x y z
#    x 1.851400 0.000000 0.000000 
#    y 0.000000 1.788050 0.000000 
#    z 0.000000 0.000000 1.857360 
# 
# From -- ./inp_files/26749.got.cif
#   From: 2010.05.17/outbox.cif.g08.bks.cpg/sg64_14_cif.got.tgz:26749.got - 2010.06.03 16:29:19.
