data_PCOD9477234
_publ_section_title
;
Structure prediction by ZEFSAII (Michael W. Deem and Ramdas Pophale) SiO2 
 PCOD9477234
Probable space group: C M C A
;
_chemical_formula_sum "Si O2"
_cell_formula_units_Z 112
_cell_length_a 35.177265
_cell_length_b 33.984421
_cell_length_c 5.087369
_cell_angle_alpha 90.000000
_cell_angle_beta 90.000000
_cell_angle_gamma 90.000000
_cell_volume 6081.842720
_symmetry_space_group_name_H-M "C M C A"
_symmetry_group_IT_number 64
_symmetry_cell_setting 'orthorhombic'
loop_
_space_group_symop_operation_xyz
x,y,z
-x,1/2-y,1/2+z
x,-y,-z
-x,1/2+y,1/2-z
-x,-y,-z
x,1/2+y,1/2-z
-x,y,z
x,1/2-y,1/2+z
1/2+x,1/2+y,z
1/2-x,-y,1/2+z
1/2+x,1/2-y,-z
1/2-x,y,1/2-z
1/2-x,1/2-y,-z
1/2+x,y,1/2-z
1/2-x,1/2+y,z
1/2+x,-y,1/2+z
loop_
_atom_site_type_symbol
_atom_site_label
_atom_site_fract_x
_atom_site_fract_y
_atom_site_fract_z
Si Si1 0.900144 0.456261 0.912305
Si Si2 0.140636 0.925422 0.080330
Si Si3 0.626427 0.722536 0.773295
Si Si4 0.044819 0.115497 0.453264
Si Si5 0.723577 0.453410 0.000528
Si Si6 0.789867 0.276669 0.195791
Si Si7 0.414912 0.646189 0.958662
O O1 0.880817 0.453458 0.628266
O O2 0.936171 0.427233 0.911305
O O3 0.909969 0.500000 0.000000
O O4 0.870243 0.439205 0.126563
O O5 0.121633 0.882772 0.037892
O O6 0.185064 0.928728 0.021884
O O7 0.622435 0.743211 0.491180
O O8 0.669531 0.704938 0.764704
O O9 0.597975 0.688432 0.855789
O O10 0.055921 0.128397 0.746537
O O11 0.000000 0.115334 0.412949
O O12 0.065817 0.143919 0.243870
O O13 0.750000 0.445652 0.750000
O O14 0.712778 0.500000 0.000000
O O15 0.750000 0.446521 0.250000
O O16 0.789247 0.239360 0.398076
O O17 0.750000 0.298357 0.250000
#
# Coordination Sequence:
#
# PCOD9477234 Si02
#       7
#    16  16  16  16  16  16  16
#     4  10  19  32  54  80 104 135 173 214 257 304
#     4  10  20  34  51  74 107 141 178 217 259 309
#     4  10  19  33  56  80 103 133 173 218 257 304
#     4  10  21  37  57  79 106 139 168 205 260 318
#     4  10  19  30  47  71 101 140 182 221 255 288
#     4   8  14  25  43  69  98 125 155 196 246 294
#     4  10  21  37  57  79 104 137 173 210 262 323
#
# _framework density 18.415471
#
# number of rings (size 3 to 8) (size 9 to 14) (size 15 to 20)
#    0.000    2.286    0.000    3.429    0.000    1.429 
#    0.000    0.714    0.000   20.571    0.000    0.000 
#    0.000    0.000    0.000    0.000    0.000    0.000 
#
# Total GULP energy -312278.515246 kJ/mol
# GULP energy per Si atom -5576.402058 kJ/mol
# Density = 1.837356 g / cm^3
# Si number density = 18.415471 Si / 1000 Ang^3
#
#
#
# Elastic Constant Matrix: (Units=GPa)
#
#
# Indices 1 2 3 4 5 6 
#
# 1 108.2536 25.0044 4.8582 0.0000 0.0000 0.0000
# 2 25.0044 36.8853 -7.0108 0.0000 0.0000 0.0000
# 3 4.8582 -7.0108 80.5995 0.0000 0.0000 0.0000
# 4 0.0000 0.0000 0.0000 17.6132 0.0000 0.0000
# 5 0.0000 0.0000 0.0000 0.0000 -24.0139 0.0000
# 6 0.0000 0.0000 0.0000 0.0000 0.0000 9.2251
#
#
#
# Elastic Compliance Matrix: (Units=1/GPa)
#
#
# Indices 1 2 3 4 5 6 
#
# 1 0.011094 -0.007776 -0.001345 0.000000 0.000000 0.000000
# 2 -0.007776 0.033018 0.003341 0.000000 0.000000 0.000000
# 3 -0.001345 0.003341 0.012779 0.000000 0.000000 0.000000
# 4 0.000000 0.000000 0.000000 0.056776 0.000000 0.000000
# 5 0.000000 0.000000 0.000000 0.000000 -0.041643 0.000000
# 6 0.000000 0.000000 0.000000 0.000000 0.000000 0.108399
#
#
# Mechanical properties :
#
#
# Convention : Reuss Voigt Hill
#
# Bulk Modulus (GPa) = 22.06102 30.16023 26.11063
# Shear Modulus (GPa) = 24.14366 14.09067 19.11717
#
# Velocity S-wave (km/s) = 3.62477 2.76914 3.22546
# Velocity P-wave (km/s) = 5.43362 5.16114 5.29914
#
# Compressibility (1/GPa) = 0.04532882
#
# Stress axis : x y z
#
# Youngs Moduli (GPa) = 90.13799 30.28696 78.25533
#
# Poissons Ratio (x) = 0.23552 0.10526
# Poissons Ratio (y) = 0.70094 -0.26143
# Poissons Ratio (z) = 0.12125 -0.10118
#
# Static dielectric constant tensor:
#      x y z
#    x 1.626080 0.000000 0.000000 
#    y 0.000000 2.077450 0.000000 
#    z 0.000000 0.000000 1.621730 
# 
# From -- ./inp_files/3497.got.cif
#   From: 2010.05.17/outbox.cif.g08.bks.cpg/sg64_2_cif.got.tgz:3497.got - 2010.06.03 16:29:19.
