data_PCOD9477666
_publ_section_title
;
Structure prediction by ZEFSAII (Michael W. Deem and Ramdas Pophale) SiO2 
 PCOD9477666
Probable space group: C M C A
;
_chemical_formula_sum "Si O2"
_cell_formula_units_Z 104
_cell_length_a 16.040100
_cell_length_b 22.849005
_cell_length_c 14.914366
_cell_angle_alpha 90.000000
_cell_angle_beta 90.000000
_cell_angle_gamma 90.000000
_cell_volume 5466.119988
_symmetry_space_group_name_H-M "C M C A"
_symmetry_group_IT_number 64
_symmetry_cell_setting 'orthorhombic'
loop_
_space_group_symop_operation_xyz
x,y,z
-x,1/2-y,1/2+z
x,-y,-z
-x,1/2+y,1/2-z
-x,-y,-z
x,1/2+y,1/2-z
-x,y,z
x,1/2-y,1/2+z
1/2+x,1/2+y,z
1/2-x,-y,1/2+z
1/2+x,1/2-y,-z
1/2-x,y,1/2-z
1/2-x,1/2-y,-z
1/2+x,y,1/2-z
1/2-x,1/2+y,z
1/2+x,-y,1/2+z
loop_
_atom_site_type_symbol
_atom_site_label
_atom_site_fract_x
_atom_site_fract_y
_atom_site_fract_z
Si Si1 0.831861 0.177216 0.960680
Si Si2 0.750000 0.968546 0.750000
Si Si3 0.271257 0.061840 0.446165
Si Si4 0.860071 0.284517 0.075063
Si Si5 0.590849 0.041947 0.810038
Si Si6 0.411807 0.905412 0.995127
Si Si7 0.850771 0.665321 0.740434
O O1 0.736885 0.198985 0.942984
O O2 0.871020 0.179852 0.861852
O O3 0.822152 0.112155 0.001075
O O4 0.874099 0.222251 0.029294
O O5 0.711778 0.938922 0.660418
O O6 0.672605 0.006128 0.786364
O O7 0.173895 0.080233 0.447581
O O8 0.281258 0.000000 0.500000
O O9 0.873767 0.288452 0.181881
O O10 0.907813 0.338229 0.028566
O O11 0.500000 0.018069 0.783457
O O12 0.604319 0.105230 0.765398
O O13 0.589925 0.054837 0.915897
O O14 0.500000 0.915538 0.947218
O O15 0.750000 0.655969 0.750000
#
# Coordination Sequence:
#
# PCOD9477666 Si02
#       7
#    16   8  16  16  16  16  16
#     4   9  17  32  49  78 109 143 190 229 274 349
#     4  12  22  36  54  82 118 158 192 238 292 344
#     4  11  21  34  54  83 115 154 190 232 286 350
#     4   8  16  30  50  80 104 138 185 232 284 335
#     4  10  19  33  57  85 111 145 196 242 283 337
#     4   9  18  34  57  85 112 139 185 250 300 337
#     4   9  15  29  55  77 103 144 183 236 284 334
#
# _framework density 19.026292999999999
#
# number of rings (size 3 to 8) (size 9 to 14) (size 15 to 20)
#    0.000    2.462    2.308    1.846    0.000    0.923 
#    9.692    0.769    0.000    5.077    0.000    0.000 
#    0.000    0.000    0.000    0.000    0.000    0.000 
#
# Total GULP energy -289683.778191 kJ/mol
# GULP energy per Si atom -5570.841888 kJ/mol
# Density = 1.898299 g / cm^3
# Si number density = 19.026293 Si / 1000 Ang^3
#
#
#
# Elastic Constant Matrix: (Units=GPa)
#
#
# Indices 1 2 3 4 5 6 
#
# 1 50.0210 12.1081 3.1848 0.0000 0.0000 0.0000
# 2 12.1081 101.3088 63.9031 0.0000 0.0000 0.0000
# 3 3.1848 63.9031 131.4813 0.0000 0.0000 0.0000
# 4 0.0000 0.0000 0.0000 23.2684 0.0000 0.0000
# 5 0.0000 0.0000 0.0000 0.0000 9.1628 0.0000
# 6 0.0000 0.0000 0.0000 0.0000 0.0000 -13.3778
#
#
#
# Elastic Compliance Matrix: (Units=1/GPa)
#
#
# Indices 1 2 3 4 5 6 
#
# 1 0.020680 -0.003109 0.001010 0.000000 0.000000 0.000000
# 2 -0.003109 0.014702 -0.007070 0.000000 0.000000 0.000000
# 3 0.001010 -0.007070 0.011018 0.000000 0.000000 0.000000
# 4 0.000000 0.000000 0.000000 0.042977 0.000000 0.000000
# 5 0.000000 0.000000 0.000000 0.000000 0.109136 0.000000
# 6 0.000000 0.000000 0.000000 0.000000 0.000000 -0.074751
#
#
# Mechanical properties :
#
#
# Convention : Reuss Voigt Hill
#
# Bulk Modulus (GPa) = 35.63604 49.02257 42.32930
# Shear Modulus (GPa) = 33.01338 17.38502 25.19920
#
# Velocity S-wave (km/s) = 4.17003 3.02609 3.64323
# Velocity P-wave (km/s) = 6.47735 6.16695 6.32405
#
# Compressibility (1/GPa) = 0.02806148
#
# Stress axis : x y z
#
# Youngs Moduli (GPa) = 48.35641 68.01742 90.76457
#
# Poissons Ratio (x) = 0.21144 -0.09167
# Poissons Ratio (y) = 0.15032 0.64173
# Poissons Ratio (z) = -0.04884 0.48090
#
# Static dielectric constant tensor:
#      x y z
#    x 1.685710 0.000000 0.000000 
#    y 0.000000 1.670320 0.000000 
#    z 0.000000 0.000000 1.712760 
# 
# From -- ./inp_files/25715.got.cif
#   From: 2010.05.17/outbox.cif.g08.bks.cpg/sg64_13_cif.got.tgz:25715.got - 2010.06.03 16:29:19.
