data_PCOD9477097
_publ_section_title
;
Structure prediction by ZEFSAII (Michael W. Deem and Ramdas Pophale) SiO2 
 PCOD9477097
Probable space group: C M C A
;
_chemical_formula_sum "Si O2"
_cell_formula_units_Z 104
_cell_length_a 17.257348
_cell_length_b 25.245203
_cell_length_c 13.085808
_cell_angle_alpha 90.000000
_cell_angle_beta 90.000000
_cell_angle_gamma 90.000000
_cell_volume 5701.031860
_symmetry_space_group_name_H-M "C M C A"
_symmetry_group_IT_number 64
_symmetry_cell_setting 'orthorhombic'
loop_
_space_group_symop_operation_xyz
x,y,z
-x,1/2-y,1/2+z
x,-y,-z
-x,1/2+y,1/2-z
-x,-y,-z
x,1/2+y,1/2-z
-x,y,z
x,1/2-y,1/2+z
1/2+x,1/2+y,z
1/2-x,-y,1/2+z
1/2+x,1/2-y,-z
1/2-x,y,1/2-z
1/2-x,1/2-y,-z
1/2+x,y,1/2-z
1/2-x,1/2+y,z
1/2+x,-y,1/2+z
loop_
_atom_site_type_symbol
_atom_site_label
_atom_site_fract_x
_atom_site_fract_y
_atom_site_fract_z
Si Si1 0.411966 0.410277 0.908081
Si Si2 0.777001 0.087063 0.633003
Si Si3 0.318278 0.177929 0.516749
Si Si4 0.409899 0.063894 0.000660
Si Si5 0.704711 0.728690 0.348912
Si Si6 0.163109 0.113774 0.298125
Si Si7 0.196237 0.000000 0.000000
O O1 0.500000 0.422721 0.930932
O O2 0.396833 0.402935 0.788350
O O3 0.385082 0.357047 0.966242
O O4 0.356744 0.457126 0.944496
O O5 0.750000 0.088141 0.750000
O O6 0.737063 0.136725 0.576358
O O7 0.867558 0.085688 0.601659
O O8 0.745420 0.033135 0.581377
O O9 0.340483 0.224826 0.593913
O O10 0.268787 0.205026 0.426653
O O11 0.500000 0.080818 0.009879
O O12 0.357781 0.084523 0.096269
O O13 0.409642 0.000000 0.000000
O O14 0.750000 0.749933 0.250000
O O15 0.657588 0.676779 0.316510
O O16 0.250000 0.104323 0.250000
#
# Coordination Sequence:
#
# PCOD9477097 Si02
#       7
#    16  16  16  16  16  16   8
#     4  11  22  38  58  88 122 157 196 247 306 359
#     4  11  22  38  61  87 116 159 208 244 295 371
#     4  10  20  37  60  85 116 151 200 251 295 352
#     4  11  24  39  56  89 129 157 193 258 315 355
#     4  10  18  35  65  88 111 146 204 252 290 345
#     4  11  20  39  64  90 115 159 209 245 291 369
#     4  10  23  38  59  88 118 160 202 250 289 358
#
# _framework density 18.242311999999998
#
# number of rings (size 3 to 8) (size 9 to 14) (size 15 to 20)
#    0.000    1.385    5.385    2.077    2.154    0.000 
#    0.000    4.615    0.000    0.000    0.000    0.000 
#    0.000    0.000    0.000    0.000    0.000    0.000 
#
# Total GULP energy -290137.257633 kJ/mol
# GULP energy per Si atom -5579.562647 kJ/mol
# Density = 1.820079 g / cm^3
# Si number density = 18.242312 Si / 1000 Ang^3
#
#
#
# Elastic Constant Matrix: (Units=GPa)
#
#
# Indices 1 2 3 4 5 6 
#
# 1 80.0562 14.7935 23.9216 0.0000 0.0000 0.0000
# 2 14.7935 62.9144 25.1417 0.0000 0.0000 0.0000
# 3 23.9216 25.1417 116.0204 0.0000 0.0000 0.0000
# 4 0.0000 0.0000 0.0000 27.7497 0.0000 0.0000
# 5 0.0000 0.0000 0.0000 0.0000 18.8470 0.0000
# 6 0.0000 0.0000 0.0000 0.0000 0.0000 -13.0833
#
#
#
# Elastic Compliance Matrix: (Units=1/GPa)
#
#
# Indices 1 2 3 4 5 6 
#
# 1 0.013602 -0.002275 -0.002312 0.000000 0.000000 0.000000
# 2 -0.002275 0.017782 -0.003384 0.000000 0.000000 0.000000
# 3 -0.002312 -0.003384 0.009829 0.000000 0.000000 0.000000
# 4 0.000000 0.000000 0.000000 0.036036 0.000000 0.000000
# 5 0.000000 0.000000 0.000000 0.000000 0.053059 0.000000
# 6 0.000000 0.000000 0.000000 0.000000 0.000000 -0.076433
#
#
# Mechanical properties :
#
#
# Convention : Reuss Voigt Hill
#
# Bulk Modulus (GPa) = 39.56933 42.96719 41.26826
# Shear Modulus (GPa) = 63.90556 19.71164 41.80860
#
# Velocity S-wave (km/s) = 5.92516 3.29073 4.79252
# Velocity P-wave (km/s) = 8.27938 6.16792 7.30039
#
# Compressibility (1/GPa) = 0.02527210
#
# Stress axis : x y z
#
# Youngs Moduli (GPa) = 73.51699 56.23696 101.73772
#
# Poissons Ratio (x) = 0.12792 0.23518
# Poissons Ratio (y) = 0.16722 0.34432
# Poissons Ratio (z) = 0.16995 0.19033
#
# Static dielectric constant tensor:
#      x y z
#    x 1.624410 0.000000 0.000000 
#    y 0.000000 1.631440 0.000000 
#    z 0.000000 0.000000 1.647220 
# 
# From -- ./inp_files/16396.got.cif
#   From: 2010.05.17/outbox.cif.g08.bks.cpg/sg64_9_cif.got.tgz:16396.got - 2010.06.03 16:29:19.
