data_PCOD9477137
_publ_section_title
;
Structure prediction by ZEFSAII (Michael W. Deem and Ramdas Pophale) SiO2 
 PCOD9477137
Probable space group: C M C A
;
_chemical_formula_sum "Si O2"
_cell_formula_units_Z 96
_cell_length_a 22.988472
_cell_length_b 16.294632
_cell_length_c 10.471318
_cell_angle_alpha 90.000000
_cell_angle_beta 90.000000
_cell_angle_gamma 90.000000
_cell_volume 3922.437308
_symmetry_space_group_name_H-M "C M C A"
_symmetry_group_IT_number 64
_symmetry_cell_setting 'orthorhombic'
loop_
_space_group_symop_operation_xyz
x,y,z
-x,1/2-y,1/2+z
x,-y,-z
-x,1/2+y,1/2-z
-x,-y,-z
x,1/2+y,1/2-z
-x,y,z
x,1/2-y,1/2+z
1/2+x,1/2+y,z
1/2-x,-y,1/2+z
1/2+x,1/2-y,-z
1/2-x,y,1/2-z
1/2-x,1/2-y,-z
1/2+x,y,1/2-z
1/2-x,1/2+y,z
1/2+x,-y,1/2+z
loop_
_atom_site_type_symbol
_atom_site_label
_atom_site_fract_x
_atom_site_fract_y
_atom_site_fract_z
Si Si1 0.933781 0.766503 0.061475
Si Si2 0.210745 0.122904 0.013475
Si Si3 0.437049 0.015241 0.849632
Si Si4 0.591760 0.575643 0.103364
Si Si5 0.652906 0.632511 0.768346
Si Si6 0.176961 0.689693 0.986857
O O1 0.899367 0.811589 0.175763
O O2 0.000000 0.743048 0.087227
O O3 0.932513 0.839457 0.955142
O O4 0.891273 0.691998 0.020386
O O5 0.191635 0.088215 0.875606
O O6 0.278486 0.124157 0.047007
O O7 0.161418 0.091614 0.108167
O O8 0.195884 0.218020 0.980603
O O9 0.500000 0.056920 0.823476
O O10 0.433348 0.943916 0.741996
O O11 0.380427 0.065582 0.813711
O O12 0.435866 0.000000 0.000000
O O13 0.580840 0.500000 0.000000
O O14 0.687270 0.683877 0.664606
#
# Coordination Sequence:
#
# PCOD9477137 Si02
#       6
#    16  16  16  16  16  16
#     4  10  21  35  61  96 126 170 220 262 315 394
#     4   9  19  37  65  91 115 167 214 270 324 389
#     4  11  23  38  59  91 136 178 212 264 335 395
#     4  10  18  37  65  95 127 165 224 270 316 390
#     4  10  19  36  61  86 126 166 216 263 329 386
#     4   9  19  37  59  91 125 154 208 268 328 371
#
# _framework density 24.474578999999999
#
# number of rings (size 3 to 8) (size 9 to 14) (size 15 to 20)
#    0.000    2.500    3.333    1.500    0.000    2.000 
#   12.000    0.833    0.000    0.000    0.000    0.000 
#    0.000    0.000    0.000    0.000    0.000    0.833 
#
# Total GULP energy -267535.163937 kJ/mol
# GULP energy per Si atom -5573.649249 kJ/mol
# Density = 2.441887 g / cm^3
# Si number density = 24.474579 Si / 1000 Ang^3
#
#
#
# Elastic Constant Matrix: (Units=GPa)
#
#
# Indices 1 2 3 4 5 6 
#
# 1 169.0995 34.3482 26.0398 0.0000 0.0000 0.0000
# 2 34.3482 26.6651 1.0140 0.0000 0.0000 0.0000
# 3 26.0398 1.0140 76.7389 0.0000 0.0000 0.0000
# 4 0.0000 0.0000 0.0000 15.8986 0.0000 0.0000
# 5 0.0000 0.0000 0.0000 0.0000 17.9664 0.0000
# 6 0.0000 0.0000 0.0000 0.0000 0.0000 11.3059
#
#
#
# Elastic Compliance Matrix: (Units=1/GPa)
#
#
# Indices 1 2 3 4 5 6 
#
# 1 0.008556 -0.010916 -0.002759 0.000000 0.000000 0.000000
# 2 -0.010916 0.051449 0.003024 0.000000 0.000000 0.000000
# 3 -0.002759 0.003024 0.013927 0.000000 0.000000 0.000000
# 4 0.000000 0.000000 0.000000 0.062899 0.000000 0.000000
# 5 0.000000 0.000000 0.000000 0.000000 0.055659 0.000000
# 6 0.000000 0.000000 0.000000 0.000000 0.000000 0.088449
#
#
# Mechanical properties :
#
#
# Convention : Reuss Voigt Hill
#
# Bulk Modulus (GPa) = 19.00041 43.92305 31.46173
# Shear Modulus (GPa) = 15.63551 23.10761 19.37156
#
# Velocity S-wave (km/s) = 2.53028 3.07603 2.81641
# Velocity P-wave (km/s) = 4.03938 5.53185 4.84345
#
# Compressibility (1/GPa) = 0.05263045
#
# Stress axis : x y z
#
# Youngs Moduli (GPa) = 116.87846 19.43679 71.80054
#
# Poissons Ratio (x) = 0.21218 0.19810
# Poissons Ratio (y) = 1.27587 -0.21715
# Poissons Ratio (z) = 0.32247 -0.05878
#
# Static dielectric constant tensor:
#      x y z
#    x 2.058800 0.000000 0.000000 
#    y 0.000000 2.060940 0.000000 
#    z 0.000000 0.000000 2.070770 
# 
# From -- ./inp_files/19123.got.cif
#   From: 2010.05.17/outbox.cif.g08.bks.cpg/sg64_10_cif.got.tgz:19123.got - 2010.06.03 16:29:19.
