data_PCOD9477750
_publ_section_title
;
Structure prediction by ZEFSAII (Michael W. Deem and Ramdas Pophale) SiO2 
 PCOD9477750
Probable space group: C M C A
;
_chemical_formula_sum "Si O2"
_cell_formula_units_Z 88
_cell_length_a 17.042099
_cell_length_b 22.581534
_cell_length_c 13.334786
_cell_angle_alpha 90.000000
_cell_angle_beta 90.000000
_cell_angle_gamma 90.000000
_cell_volume 5131.715546
_symmetry_space_group_name_H-M "C M C A"
_symmetry_group_IT_number 64
_symmetry_cell_setting 'orthorhombic'
loop_
_space_group_symop_operation_xyz
x,y,z
-x,1/2-y,1/2+z
x,-y,-z
-x,1/2+y,1/2-z
-x,-y,-z
x,1/2+y,1/2-z
-x,y,z
x,1/2-y,1/2+z
1/2+x,1/2+y,z
1/2-x,-y,1/2+z
1/2+x,1/2-y,-z
1/2-x,y,1/2-z
1/2-x,1/2-y,-z
1/2+x,y,1/2-z
1/2-x,1/2+y,z
1/2+x,-y,1/2+z
loop_
_atom_site_type_symbol
_atom_site_label
_atom_site_fract_x
_atom_site_fract_y
_atom_site_fract_z
Si Si1 0.085824 0.502045 0.618754
Si Si2 0.092372 0.882768 0.407602
Si Si3 0.253695 0.818974 0.022406
Si Si4 0.778082 0.916382 0.861704
Si Si5 0.667785 0.000000 0.000000
Si Si6 0.829322 0.114922 0.800760
O O1 0.078670 0.500000 0.500000
O O2 0.137866 0.446946 0.650342
O O3 0.130544 0.562316 0.640611
O O4 0.000000 0.502122 0.666579
O O5 0.156213 0.840849 0.462549
O O6 0.112515 0.870482 0.290546
O O7 0.000000 0.873704 0.427693
O O8 0.117581 0.949811 0.441044
O O9 0.203278 0.835953 0.122149
O O10 0.250000 0.750000 0.000000
O O11 0.220561 0.858871 0.931916
O O12 0.750000 0.903040 0.750000
O O13 0.722692 0.963997 0.921168
O O14 0.750000 0.090584 0.750000
#
# Coordination Sequence:
#
# PCOD9477750 Si02
#       6
#    16  16  16  16   8  16
#     4  11  19  30  51  83 116 140 169 217 276 335
#     4  10  20  35  58  87 111 140 183 231 277 331
#     4  10  22  40  57  75 107 150 194 234 273 320
#     4  11  20  34  55  79 107 149 189 222 271 339
#     4  10  19  34  55  82 118 146 174 222 285 342
#     4  10  19  35  57  79 109 145 184 221 273 342
#
# _framework density 17.148261999999999
#
# number of rings (size 3 to 8) (size 9 to 14) (size 15 to 20)
#    0.000    1.636    2.727    4.636    0.000    2.182 
#    0.000    6.364    0.000    0.000    0.000    0.000 
#    0.000    0.000    0.000    0.000    0.000    0.000 
#
# Total GULP energy -245283.710447 kJ/mol
# GULP energy per Si atom -5574.629783 kJ/mol
# Density = 1.710923 g / cm^3
# Si number density = 17.148262 Si / 1000 Ang^3
#
#
#
# Elastic Constant Matrix: (Units=GPa)
#
#
# Indices 1 2 3 4 5 6 
#
# 1 107.5401 62.6584 22.3295 0.0000 0.0000 0.0000
# 2 62.6584 131.0482 32.6339 0.0000 0.0000 0.0000
# 3 22.3295 32.6339 73.0398 0.0000 0.0000 0.0000
# 4 0.0000 0.0000 0.0000 3.8104 0.0000 0.0000
# 5 0.0000 0.0000 0.0000 0.0000 13.8245 0.0000
# 6 0.0000 0.0000 0.0000 0.0000 0.0000 6.8790
#
#
#
# Elastic Compliance Matrix: (Units=1/GPa)
#
#
# Indices 1 2 3 4 5 6 
#
# 1 0.013007 -0.005883 -0.001348 0.000000 0.000000 0.000000
# 2 -0.005883 0.011247 -0.003227 0.000000 0.000000 0.000000
# 3 -0.001348 -0.003227 0.015545 0.000000 0.000000 0.000000
# 4 0.000000 0.000000 0.000000 0.262438 0.000000 0.000000
# 5 0.000000 0.000000 0.000000 0.000000 0.072336 0.000000
# 6 0.000000 0.000000 0.000000 0.000000 0.000000 0.145370
#
#
# Mechanical properties :
#
#
# Convention : Reuss Voigt Hill
#
# Bulk Modulus (GPa) = 52.95632 60.76351 56.85991
# Shear Modulus (GPa) = 9.13823 17.83653 13.48738
#
# Velocity S-wave (km/s) = 2.31096 3.22861 2.80753
# Velocity P-wave (km/s) = 6.17002 7.02920 6.61358
#
# Compressibility (1/GPa) = 0.01888349
#
# Stress axis : x y z
#
# Youngs Moduli (GPa) = 76.88405 88.91052 64.33010
#
# Poissons Ratio (x) = 0.52308 0.08670
# Poissons Ratio (y) = 0.45233 0.20757
# Poissons Ratio (z) = 0.10362 0.28688
#
# Static dielectric constant tensor:
#      x y z
#    x 1.614370 0.000000 0.000000 
#    y 0.000000 1.527120 0.000000 
#    z 0.000000 0.000000 1.663120 
# 
# From -- ./inp_files/23744.got.cif
#   From: 2010.05.17/outbox.cif.g08.bks.cpg/sg64_12_cif.got.tgz:23744.got - 2010.06.03 16:29:19.
