data_PCOD9477652
_publ_section_title
;
Structure prediction by ZEFSAII (Michael W. Deem and Ramdas Pophale) SiO2 
 PCOD9477652
Probable space group: C M C A
;
_chemical_formula_sum "Si O2"
_cell_formula_units_Z 112
_cell_length_a 14.571995
_cell_length_b 14.584765
_cell_length_c 24.885009
_cell_angle_alpha 90.000000
_cell_angle_beta 90.000000
_cell_angle_gamma 90.000000
_cell_volume 5288.789130
_symmetry_space_group_name_H-M "C M C A"
_symmetry_group_IT_number 64
_symmetry_cell_setting 'orthorhombic'
loop_
_space_group_symop_operation_xyz
x,y,z
-x,1/2-y,1/2+z
x,-y,-z
-x,1/2+y,1/2-z
-x,-y,-z
x,1/2+y,1/2-z
-x,y,z
x,1/2-y,1/2+z
1/2+x,1/2+y,z
1/2-x,-y,1/2+z
1/2+x,1/2-y,-z
1/2-x,y,1/2-z
1/2-x,1/2-y,-z
1/2+x,y,1/2-z
1/2-x,1/2+y,z
1/2+x,-y,1/2+z
loop_
_atom_site_type_symbol
_atom_site_label
_atom_site_fract_x
_atom_site_fract_y
_atom_site_fract_z
Si Si1 0.791376 0.478125 0.872074
Si Si2 0.606030 0.775254 0.507631
Si Si3 0.398805 0.020493 0.665593
Si Si4 0.816561 0.209683 0.798810
Si Si5 0.103261 0.066864 0.543666
Si Si6 0.228426 0.283102 0.913077
Si Si7 0.604057 0.408668 0.725300
O O1 0.683697 0.494791 0.873243
O O2 0.841451 0.560050 0.901878
O O3 0.816241 0.382202 0.900650
O O4 0.826559 0.466049 0.811601
O O5 0.500000 0.810634 0.506730
O O6 0.599068 0.667089 0.519976
O O7 0.677208 0.804255 0.554726
O O8 0.662312 0.778066 0.451400
O O9 0.500000 0.015627 0.641678
O O10 0.379945 0.122773 0.687849
O O11 0.393131 0.948350 0.714824
O O12 0.750000 0.184191 0.750000
O O13 0.764381 0.237454 0.854193
O O14 0.868735 0.302103 0.779838
O O15 0.000000 0.033097 0.554216
O O16 0.147615 0.000000 0.500000
O O17 0.500000 0.420583 0.704929
#
# Coordination Sequence:
#
# PCOD9477652 Si02
#       7
#    16  16  16  16  16  16  16
#     4  11  20  36  60  83 119 155 197 246 303 357
#     4  10  21  38  58  84 120 157 199 248 296 351
#     4  11  24  40  59  87 123 161 203 249 297 360
#     4  11  22  40  64  88 120 161 202 250 309 368
#     4  10  19  33  56  86 112 144 191 247 302 347
#     4  10  22  37  59  88 117 157 201 243 299 363
#     4  10  21  37  59  89 120 154 198 246 302 367
#
# _framework density 21.176869
#
# number of rings (size 3 to 8) (size 9 to 14) (size 15 to 20)
#    0.000    1.571    1.429    4.714    0.000    3.429 
#    0.000    2.857    0.000    0.429    0.000    0.000 
#    0.000    0.000    0.000    0.000    0.000    0.000 
#
# Total GULP energy -312578.175848 kJ/mol
# GULP energy per Si atom -5581.753140 kJ/mol
# Density = 2.112867 g / cm^3
# Si number density = 21.176869 Si / 1000 Ang^3
#
#
#
# Elastic Constant Matrix: (Units=GPa)
#
#
# Indices 1 2 3 4 5 6 
#
# 1 110.4796 -14.9204 21.8794 0.0000 0.0000 0.0000
# 2 -14.9204 53.1204 4.7824 0.0000 0.0000 0.0000
# 3 21.8794 4.7824 57.0777 0.0000 0.0000 0.0000
# 4 0.0000 0.0000 0.0000 19.0131 0.0000 0.0000
# 5 0.0000 0.0000 0.0000 0.0000 -43.3728 0.0000
# 6 0.0000 0.0000 0.0000 0.0000 0.0000 30.7429
#
#
#
# Elastic Compliance Matrix: (Units=1/GPa)
#
#
# Indices 1 2 3 4 5 6 
#
# 1 0.010334 0.003284 -0.004236 0.000000 0.000000 0.000000
# 2 0.003284 0.020012 -0.002936 0.000000 0.000000 0.000000
# 3 -0.004236 -0.002936 0.019390 0.000000 0.000000 0.000000
# 4 0.000000 0.000000 0.000000 0.052595 0.000000 0.000000
# 5 0.000000 0.000000 0.000000 0.000000 -0.023056 0.000000
# 6 0.000000 0.000000 0.000000 0.000000 0.000000 0.032528
#
#
# Mechanical properties :
#
#
# Convention : Reuss Voigt Hill
#
# Bulk Modulus (GPa) = 23.83245 27.12894 25.48070
# Shear Modulus (GPa) = 37.43486 15.20574 26.32030
#
# Velocity S-wave (km/s) = 4.20899 2.68253 3.52927
# Velocity P-wave (km/s) = 5.90756 4.73635 5.35408
#
# Compressibility (1/GPa) = 0.04195960
#
# Stress axis : x y z
#
# Youngs Moduli (GPa) = 96.76866 49.97044 51.57328
#
# Poissons Ratio (x) = -0.16410 0.21849
# Poissons Ratio (y) = -0.31779 0.15140
# Poissons Ratio (z) = 0.40995 0.14669
#
# Static dielectric constant tensor:
#      x y z
#    x 1.802810 0.000000 0.000000 
#    y 0.000000 1.777280 0.000000 
#    z 0.000000 0.000000 1.782260 
# 
# From -- ./inp_files/45242.got.cif
#   From: 2010.05.17/outbox.cif.g08.bks.cpg/sg64_23_cif.got.tgz:45242.got - 2010.06.03 16:29:19.
