data_PCOD9477978
_publ_section_title
;
Structure prediction by ZEFSAII (Michael W. Deem and Ramdas Pophale) SiO2 
 PCOD9477978
Probable space group: C M C A
;
_chemical_formula_sum "Si O2"
_cell_formula_units_Z 80
_cell_length_a 25.278177
_cell_length_b 10.105193
_cell_length_c 16.169917
_cell_angle_alpha 90.000000
_cell_angle_beta 90.000000
_cell_angle_gamma 90.000000
_cell_volume 4130.457461
_symmetry_space_group_name_H-M "C M C A"
_symmetry_group_IT_number 64
_symmetry_cell_setting 'orthorhombic'
loop_
_space_group_symop_operation_xyz
x,y,z
-x,1/2-y,1/2+z
x,-y,-z
-x,1/2+y,1/2-z
-x,-y,-z
x,1/2+y,1/2-z
-x,y,z
x,1/2-y,1/2+z
1/2+x,1/2+y,z
1/2-x,-y,1/2+z
1/2+x,1/2-y,-z
1/2-x,y,1/2-z
1/2-x,1/2-y,-z
1/2+x,y,1/2-z
1/2-x,1/2+y,z
1/2+x,-y,1/2+z
loop_
_atom_site_type_symbol
_atom_site_label
_atom_site_fract_x
_atom_site_fract_y
_atom_site_fract_z
Si Si1 0.360738 0.186399 0.542534
Si Si2 0.119632 0.000656 0.719004
Si Si3 0.822055 0.916760 0.879068
Si Si4 0.797335 0.057099 0.408747
Si Si5 0.937671 0.232447 0.822384
O O1 0.352326 0.177016 0.444440
O O2 0.331392 0.312920 0.576892
O O3 0.418133 0.189987 0.585267
O O4 0.331062 0.061185 0.581155
O O5 0.151220 0.923582 0.790882
O O6 0.164755 0.030844 0.650039
O O7 0.078474 0.887158 0.689256
O O8 0.092398 0.130775 0.759192
O O9 0.759287 0.900290 0.872962
O O10 0.787550 0.000000 0.500000
O O11 0.000000 0.216783 0.812264
#
# Coordination Sequence:
#
# PCOD9477978 Si02
#       5
#    16  16  16  16  16
#     4   9  20  35  54  82 110 146 191 232 274 342
#     4  10  23  36  59  87 113 147 195 233 279 346
#     4  10  19  36  56  82 115 151 186 224 279 344
#     4  11  21  33  56  84 120 153 176 229 287 338
#     4  10  21  41  60  80 113 148 192 247 288 322
#
# _framework density 19.368316
#
# number of rings (size 3 to 8) (size 9 to 14) (size 15 to 20)
#    0.000    2.000    2.000    1.800    2.800    0.000 
#    0.000   15.000    0.000    3.000    0.000    0.000 
#    0.000    0.000    0.000    0.000    0.000    0.000 
#
# Total GULP energy -222866.424259 kJ/mol
# GULP energy per Si atom -5571.660606 kJ/mol
# Density = 1.932423 g / cm^3
# Si number density = 19.368316 Si / 1000 Ang^3
#
#
#
# Elastic Constant Matrix: (Units=GPa)
#
#
# Indices 1 2 3 4 5 6 
#
# 1 92.0336 -5.4576 44.8594 0.0000 0.0000 0.0000
# 2 -5.4576 32.3807 -3.7235 0.0000 0.0000 0.0000
# 3 44.8594 -3.7235 62.9788 0.0000 0.0000 0.0000
# 4 0.0000 0.0000 0.0000 18.2824 0.0000 0.0000
# 5 0.0000 0.0000 0.0000 0.0000 12.6528 0.0000
# 6 0.0000 0.0000 0.0000 0.0000 0.0000 17.2712
#
#
#
# Elastic Compliance Matrix: (Units=1/GPa)
#
#
# Indices 1 2 3 4 5 6 
#
# 1 0.016712 0.001458 -0.011818 0.000000 0.000000 0.000000
# 2 0.001458 0.031221 0.000807 0.000000 0.000000 0.000000
# 3 -0.011818 0.000807 0.024344 0.000000 0.000000 0.000000
# 4 0.000000 0.000000 0.000000 0.054697 0.000000 0.000000
# 5 0.000000 0.000000 0.000000 0.000000 0.079034 0.000000
# 6 0.000000 0.000000 0.000000 0.000000 0.000000 0.057900
#
#
# Mechanical properties :
#
#
# Convention : Reuss Voigt Hill
#
# Bulk Modulus (GPa) = 18.80681 28.74998 23.77840
# Shear Modulus (GPa) = 16.62575 19.75559 18.19067
#
# Velocity S-wave (km/s) = 2.93302 3.19720 3.06796
# Velocity P-wave (km/s) = 4.60449 5.33905 4.98532
#
# Compressibility (1/GPa) = 0.05317222
#
# Stress axis : x y z
#
# Youngs Moduli (GPa) = 59.83585 32.02957 41.07802
#
# Poissons Ratio (x) = -0.04669 0.48546
# Poissons Ratio (y) = -0.08723 -0.03317
# Poissons Ratio (z) = 0.70714 -0.02586
#
# Static dielectric constant tensor:
#      x y z
#    x 1.707690 0.000000 0.000000 
#    y 0.000000 1.701300 0.000000 
#    z 0.000000 0.000000 1.745920 
# 
# From -- ./inp_files/27047.got.cif
#   From: 2010.05.17/outbox.cif.g08.bks.cpg/sg64_14_cif.got.tgz:27047.got - 2010.06.03 16:29:19.
