data_PCOD9477278
_publ_section_title
;
Structure prediction by ZEFSAII (Michael W. Deem and Ramdas Pophale) SiO2 
 PCOD9477278
Probable space group: C M C A
;
_chemical_formula_sum "Si O2"
_cell_formula_units_Z 80
_cell_length_a 14.480760
_cell_length_b 25.860115
_cell_length_c 9.660049
_cell_angle_alpha 90.000000
_cell_angle_beta 90.000000
_cell_angle_gamma 90.000000
_cell_volume 3617.438338
_symmetry_space_group_name_H-M "C M C A"
_symmetry_group_IT_number 64
_symmetry_cell_setting 'orthorhombic'
loop_
_space_group_symop_operation_xyz
x,y,z
-x,1/2-y,1/2+z
x,-y,-z
-x,1/2+y,1/2-z
-x,-y,-z
x,1/2+y,1/2-z
-x,y,z
x,1/2-y,1/2+z
1/2+x,1/2+y,z
1/2-x,-y,1/2+z
1/2+x,1/2-y,-z
1/2-x,y,1/2-z
1/2-x,1/2-y,-z
1/2+x,y,1/2-z
1/2-x,1/2+y,z
1/2+x,-y,1/2+z
loop_
_atom_site_type_symbol
_atom_site_label
_atom_site_fract_x
_atom_site_fract_y
_atom_site_fract_z
Si Si1 0.833890 0.783403 0.358206
Si Si2 0.393633 0.120294 0.683788
Si Si3 0.391788 0.951797 0.082464
Si Si4 0.108174 0.848778 0.596337
Si Si5 0.889669 0.834105 0.902339
O O1 0.750000 0.777494 0.250000
O O2 0.892352 0.827353 0.276797
O O3 0.828195 0.809013 0.510856
O O4 0.872985 0.727137 0.390305
O O5 0.500000 0.106440 0.661221
O O6 0.353593 0.073421 0.775368
O O7 0.350419 0.136539 0.537143
O O8 0.500000 0.965392 0.110650
O O9 0.391232 0.903397 0.978971
O O10 0.349113 0.000000 0.000000
O O11 0.138697 0.855391 0.753626
O O12 0.000000 0.829675 0.594524
O O13 0.000000 0.840358 0.913104
#
# Coordination Sequence:
#
# PCOD9477278 Si02
#       5
#    16  16  16  16  16
#     4  11  21  31  46  70  99 135 177 214 252 302
#     4   9  18  32  49  71  99 131 167 207 255 311
#     4   8  14  28  50  72  93 119 155 199 245 296
#     4   9  18  32  49  71  99 132 168 206 257 315
#     4  10  19  31  47  68  99 136 169 205 253 310
#
# _framework density 22.115096999999999
#
# number of rings (size 3 to 8) (size 9 to 14) (size 15 to 20)
#    0.000    2.600    0.000    4.200    0.000    6.400 
#    0.000    1.000    0.000    6.000    0.000   28.000 
#    0.000    0.000    0.000    0.000    0.000    3.200 
#
# Total GULP energy -222975.221491 kJ/mol
# GULP energy per Si atom -5574.380537 kJ/mol
# Density = 2.206476 g / cm^3
# Si number density = 22.115097 Si / 1000 Ang^3
#
#
#
# Elastic Constant Matrix: (Units=GPa)
#
#
# Indices 1 2 3 4 5 6 
#
# 1 55.6141 15.7374 26.0993 0.0000 0.0000 0.0000
# 2 15.7374 36.1113 56.4483 0.0000 0.0000 0.0000
# 3 26.0993 56.4483 209.9745 0.0000 0.0000 0.0000
# 4 0.0000 0.0000 0.0000 20.3528 0.0000 0.0000
# 5 0.0000 0.0000 0.0000 0.0000 13.6361 0.0000
# 6 0.0000 0.0000 0.0000 0.0000 0.0000 -10.0904
#
#
#
# Elastic Compliance Matrix: (Units=1/GPa)
#
#
# Indices 1 2 3 4 5 6 
#
# 1 0.020518 -0.008547 -0.000253 0.000000 0.000000 0.000000
# 2 -0.008547 0.051325 -0.012735 0.000000 0.000000 0.000000
# 3 -0.000253 -0.012735 0.008218 0.000000 0.000000 0.000000
# 4 0.000000 0.000000 0.000000 0.049133 0.000000 0.000000
# 5 0.000000 0.000000 0.000000 0.000000 0.073335 0.000000
# 6 0.000000 0.000000 0.000000 0.000000 0.000000 -0.099104
#
#
# Mechanical properties :
#
#
# Convention : Reuss Voigt Hill
#
# Bulk Modulus (GPa) = 27.03405 55.36332 41.19868
# Shear Modulus (GPa) = 31.48132 18.34070 24.91101
#
# Velocity S-wave (km/s) = 3.77705 2.88293 3.35987
# Velocity P-wave (km/s) = 5.59216 6.01417 5.80700
#
# Compressibility (1/GPa) = 0.03699039
#
# Stress axis : x y z
#
# Youngs Moduli (GPa) = 48.73725 19.48384 121.68991
#
# Poissons Ratio (x) = 0.16653 0.03075
# Poissons Ratio (y) = 0.41655 1.54977
# Poissons Ratio (z) = 0.01231 0.24814
#
# Static dielectric constant tensor:
#      x y z
#    x 1.896860 0.000000 0.000000 
#    y 0.000000 1.774660 0.000000 
#    z 0.000000 0.000000 1.882610 
# 
# From -- ./inp_files/7018.got.cif
#   From: 2010.05.17/outbox.cif.g08.bks.cpg/sg64_4_cif.got.tgz:7018.got - 2010.06.03 16:29:19.
