data_PCOD9477276
_publ_section_title
;
Structure prediction by ZEFSAII (Michael W. Deem and Ramdas Pophale) SiO2 
 PCOD9477276
Probable space group: C M C A
;
_chemical_formula_sum "Si O2"
_cell_formula_units_Z 80
_cell_length_a 8.095093
_cell_length_b 31.297117
_cell_length_c 19.204119
_cell_angle_alpha 90.000000
_cell_angle_beta 90.000000
_cell_angle_gamma 90.000000
_cell_volume 4865.422558
_symmetry_space_group_name_H-M "C M C A"
_symmetry_group_IT_number 64
_symmetry_cell_setting 'orthorhombic'
loop_
_space_group_symop_operation_xyz
x,y,z
-x,1/2-y,1/2+z
x,-y,-z
-x,1/2+y,1/2-z
-x,-y,-z
x,1/2+y,1/2-z
-x,y,z
x,1/2-y,1/2+z
1/2+x,1/2+y,z
1/2-x,-y,1/2+z
1/2+x,1/2-y,-z
1/2-x,y,1/2-z
1/2-x,1/2-y,-z
1/2+x,y,1/2-z
1/2-x,1/2+y,z
1/2+x,-y,1/2+z
loop_
_atom_site_type_symbol
_atom_site_label
_atom_site_fract_x
_atom_site_fract_y
_atom_site_fract_z
Si Si1 0.500000 0.969737 0.106683
Si Si2 0.803019 0.671578 0.822605
Si Si3 0.500000 0.936448 0.945241
Si Si4 0.682472 0.919031 0.367107
Si Si5 0.183309 0.885319 0.973218
Si Si6 0.802331 0.796199 0.473615
O O1 0.665133 0.951074 0.141871
O O2 0.500000 0.020593 0.099755
O O3 0.500000 0.951614 0.026755
O O4 0.750000 0.692198 0.750000
O O5 0.717318 0.625337 0.828042
O O6 0.757188 0.697178 0.892306
O O7 0.000000 0.665158 0.823985
O O8 0.335050 0.908461 0.935310
O O9 0.500000 0.935662 0.349443
O O10 0.681886 0.905402 0.448736
O O11 0.000000 0.891824 0.943313
O O12 0.220151 0.835219 0.984411
O O13 0.750000 0.750000 0.500000
O O14 0.000000 0.801228 0.479236
#
# Coordination Sequence:
#
# PCOD9477276 Si02
#       6
#     8  16   8  16  16  16
#     4   9  16  26  40  60  87 118 152 186 224 275
#     4  10  19  31  47  68  96 130 163 202 247 295
#     4   9  16  26  40  60  87 118 152 190 226 274
#     4   9  16  27  42  60  87 122 154 186 228 281
#     4   9  16  27  42  60  87 122 156 188 235 285
#     4  10  19  31  47  68  96 130 166 207 252 303
#
# _framework density 16.44256
#
# number of rings (size 3 to 8) (size 9 to 14) (size 15 to 20)
#    0.000    2.600    2.000    1.200    0.000    3.200 
#    0.000    4.000    0.000    0.000    0.000    0.000 
#    0.000    1.600    1.600    0.000    0.400    0.000 
#
# Total GULP energy -222891.384471 kJ/mol
# GULP energy per Si atom -5572.284612 kJ/mol
# Density = 1.640514 g / cm^3
# Si number density = 16.442560 Si / 1000 Ang^3
#
#
#
# Elastic Constant Matrix: (Units=GPa)
#
#
# Indices 1 2 3 4 5 6 
#
# 1 137.5484 65.0618 22.9341 0.0000 0.0000 0.0000
# 2 65.0618 103.5441 26.3024 0.0000 0.0000 0.0000
# 3 22.9341 26.3024 35.5181 0.0000 0.0000 0.0000
# 4 0.0000 0.0000 0.0000 7.9342 0.0000 0.0000
# 5 0.0000 0.0000 0.0000 0.0000 11.8596 0.0000
# 6 0.0000 0.0000 0.0000 0.0000 0.0000 20.1019
#
#
#
# Elastic Compliance Matrix: (Units=1/GPa)
#
#
# Indices 1 2 3 4 5 6 
#
# 1 0.010499 -0.006005 -0.002333 0.000000 0.000000 0.000000
# 2 -0.006005 0.015330 -0.007475 0.000000 0.000000 0.000000
# 3 -0.002333 -0.007475 0.035196 0.000000 0.000000 0.000000
# 4 0.000000 0.000000 0.000000 0.126036 0.000000 0.000000
# 5 0.000000 0.000000 0.000000 0.000000 0.084320 0.000000
# 6 0.000000 0.000000 0.000000 0.000000 0.000000 0.049747
#
#
# Mechanical properties :
#
#
# Convention : Reuss Voigt Hill
#
# Bulk Modulus (GPa) = 34.01291 56.13416 45.07353
# Shear Modulus (GPa) = 13.79110 18.79996 16.29553
#
# Velocity S-wave (km/s) = 2.89925 3.38505 3.15152
# Velocity P-wave (km/s) = 5.65140 7.03503 6.38083
#
# Compressibility (1/GPa) = 0.02940060
#
# Stress axis : x y z
#
# Youngs Moduli (GPa) = 95.24338 65.23351 28.41210
#
# Poissons Ratio (x) = 0.39171 0.06628
# Poissons Ratio (y) = 0.57191 0.21238
# Poissons Ratio (z) = 0.22218 0.48761
#
# Static dielectric constant tensor:
#      x y z
#    x 1.588840 0.000000 0.000000 
#    y 0.000000 1.524470 0.000000 
#    z 0.000000 0.000000 1.564620 
# 
# From -- ./inp_files/29853.got.cif
#   From: 2010.05.17/outbox.cif.g08.bks.cpg/sg64_15_cif.got.tgz:29853.got - 2010.06.03 16:29:19.
