data_PCOD9477389
_publ_section_title
;
Structure prediction by ZEFSAII (Michael W. Deem and Ramdas Pophale) SiO2 
 PCOD9477389
Probable space group: C M C A
;
_chemical_formula_sum "Si O2"
_cell_formula_units_Z 72
_cell_length_a 14.564559
_cell_length_b 23.946974
_cell_length_c 10.215246
_cell_angle_alpha 90.000000
_cell_angle_beta 90.000000
_cell_angle_gamma 90.000000
_cell_volume 3562.844036
_symmetry_space_group_name_H-M "C M C A"
_symmetry_group_IT_number 64
_symmetry_cell_setting 'orthorhombic'
loop_
_space_group_symop_operation_xyz
x,y,z
-x,1/2-y,1/2+z
x,-y,-z
-x,1/2+y,1/2-z
-x,-y,-z
x,1/2+y,1/2-z
-x,y,z
x,1/2-y,1/2+z
1/2+x,1/2+y,z
1/2-x,-y,1/2+z
1/2+x,1/2-y,-z
1/2-x,y,1/2-z
1/2-x,1/2-y,-z
1/2+x,y,1/2-z
1/2-x,1/2+y,z
1/2+x,-y,1/2+z
loop_
_atom_site_type_symbol
_atom_site_label
_atom_site_fract_x
_atom_site_fract_y
_atom_site_fract_z
Si Si1 0.262794 0.000000 0.500000
Si Si2 0.650475 0.919422 0.701326
Si Si3 0.388591 0.789838 0.950062
Si Si4 0.396328 0.082357 0.003899
Si Si5 0.607699 0.298806 0.845020
O O1 0.327246 0.971637 0.608917
O O2 0.189198 0.953428 0.450194
O O3 0.750000 0.900583 0.750000
O O4 0.600299 0.930399 0.838808
O O5 0.612207 0.865134 0.628889
O O6 0.500000 0.785772 0.941882
O O7 0.373171 0.852027 0.006063
O O8 0.354557 0.788000 0.800765
O O9 0.353326 0.740675 0.042619
O O10 0.500000 0.071563 0.952285
O O11 0.500000 0.284627 0.838021
#
# Coordination Sequence:
#
# PCOD9477389 Si02
#       5
#     8  16  16  16  16
#     4  10  19  32  49  70  98 128 170 216 251 292
#     4   9  18  32  49  70 101 134 164 208 262 306
#     4   8  15  28  51  76  99 127 168 212 251 298
#     4   9  17  33  53  71  94 135 176 207 250 310
#     4   9  16  31  51  73 100 133 167 206 253 309
#
# _framework density 20.208573999999999
#
# number of rings (size 3 to 8) (size 9 to 14) (size 15 to 20)
#    0.000    3.111    0.000    2.333    0.000    0.000 
#    0.000   18.889    0.000    2.667    0.000    0.000 
#    0.000    0.000    0.000    0.000    0.000    0.889 
#
# Total GULP energy -200401.635434 kJ/mol
# GULP energy per Si atom -5566.712095 kJ/mol
# Density = 2.016258 g / cm^3
# Si number density = 20.208574 Si / 1000 Ang^3
#
#
#
# Elastic Constant Matrix: (Units=GPa)
#
#
# Indices 1 2 3 4 5 6 
#
# 1 24.0229 5.3851 5.0484 0.0000 0.0000 0.0000
# 2 5.3851 112.0462 66.7354 0.0000 0.0000 0.0000
# 3 5.0484 66.7354 54.6538 0.0000 0.0000 0.0000
# 4 0.0000 0.0000 0.0000 42.3713 0.0000 0.0000
# 5 0.0000 0.0000 0.0000 0.0000 21.9172 0.0000
# 6 0.0000 0.0000 0.0000 0.0000 0.0000 30.7015
#
#
#
# Elastic Compliance Matrix: (Units=1/GPa)
#
#
# Indices 1 2 3 4 5 6 
#
# 1 0.042487 0.001083 -0.005247 0.000000 0.000000 0.000000
# 2 0.001083 0.032752 -0.040092 0.000000 0.000000 0.000000
# 3 -0.005247 -0.040092 0.067736 0.000000 0.000000 0.000000
# 4 0.000000 0.000000 0.000000 0.023601 0.000000 0.000000
# 5 0.000000 0.000000 0.000000 0.000000 0.045626 0.000000
# 6 0.000000 0.000000 0.000000 0.000000 0.000000 0.032572
#
#
# Mechanical properties :
#
#
# Convention : Reuss Voigt Hill
#
# Bulk Modulus (GPa) = 18.36107 38.34007 28.35057
# Shear Modulus (GPa) = 14.22718 26.56825 20.39772
#
# Velocity S-wave (km/s) = 2.65621 3.62982 3.18049
# Velocity P-wave (km/s) = 4.30265 6.04820 5.24850
#
# Compressibility (1/GPa) = 0.05446307
#
# Stress axis : x y z
#
# Youngs Moduli (GPa) = 23.53669 30.53267 14.76316
#
# Poissons Ratio (x) = -0.03308 0.07747
# Poissons Ratio (y) = -0.02550 0.59188
# Poissons Ratio (z) = 0.12351 1.22411
#
# Static dielectric constant tensor:
#      x y z
#    x 1.766690 0.000000 0.000000 
#    y 0.000000 1.744150 0.000000 
#    z 0.000000 0.000000 1.739890 
# 
# From -- ./inp_files/15726.got.cif
#   From: 2010.05.17/outbox.cif.g08.bks.cpg/sg64_8_cif.got.tgz:15726.got - 2010.06.03 16:29:19.
