data_PCOD9477202
_publ_section_title
;
Structure prediction by ZEFSAII (Michael W. Deem and Ramdas Pophale) SiO2 
 PCOD9477202
Probable space group: C M C A
;
_chemical_formula_sum "Si O2"
_cell_formula_units_Z 96
_cell_length_a 9.164222
_cell_length_b 20.339942
_cell_length_c 30.331310
_cell_angle_alpha 90.000000
_cell_angle_beta 90.000000
_cell_angle_gamma 90.000000
_cell_volume 5653.748418
_symmetry_space_group_name_H-M "C M C A"
_symmetry_group_IT_number 64
_symmetry_cell_setting 'orthorhombic'
loop_
_space_group_symop_operation_xyz
x,y,z
-x,1/2-y,1/2+z
x,-y,-z
-x,1/2+y,1/2-z
-x,-y,-z
x,1/2+y,1/2-z
-x,y,z
x,1/2-y,1/2+z
1/2+x,1/2+y,z
1/2-x,-y,1/2+z
1/2+x,1/2-y,-z
1/2-x,y,1/2-z
1/2-x,1/2-y,-z
1/2+x,y,1/2-z
1/2-x,1/2+y,z
1/2+x,-y,1/2+z
loop_
_atom_site_type_symbol
_atom_site_label
_atom_site_fract_x
_atom_site_fract_y
_atom_site_fract_z
Si Si1 0.831016 0.143637 0.705322
Si Si2 0.167359 0.016416 0.293876
Si Si3 0.171411 0.439513 0.968706
Si Si4 0.672806 0.808295 0.026421
Si Si5 0.674585 0.640886 0.886094
Si Si6 0.327350 0.983889 0.616398
O O1 0.750000 0.165760 0.750000
O O2 0.744963 0.161297 0.660693
O O3 0.000000 0.164839 0.704053
O O4 0.831684 0.063617 0.706724
O O5 0.250000 0.038711 0.250000
O O6 0.249430 0.035880 0.338337
O O7 0.000000 0.037880 0.294054
O O8 0.264135 0.443882 0.924514
O O9 0.000000 0.447947 0.957546
O O10 0.214818 0.500000 0.000000
O O11 0.188347 0.373370 0.996405
O O12 0.500000 0.795985 0.032638
O O13 0.749877 0.822550 0.073119
O O14 0.750000 0.750000 0.000000
O O15 0.500000 0.650817 0.885857
O O16 0.701773 0.562088 0.891179
O O17 0.500000 0.976029 0.620441
#
# Coordination Sequence:
#
# PCOD9477202 Si02
#       6
#    16  16  16  16  16  16
#     4   9  16  26  42  66  97 132 168 208 255 305
#     4   9  16  26  41  63  97 134 168 206 254 308
#     4  10  20  35  54  75 101 134 173 213 257 306
#     4  11  23  38  55  75 103 138 175 217 263 313
#     4  10  19  31  48  72 102 135 171 211 258 308
#     4  10  19  29  47  74 102 132 170 214 258 305
#
# _framework density 16.979883999999998
#
# number of rings (size 3 to 8) (size 9 to 14) (size 15 to 20)
#    0.000    2.167    1.667    2.500    0.000    7.000 
#    0.000    0.000    0.000    0.000    0.000    1.167 
#    0.000    8.000    0.000    0.000    0.000    0.000 
#
# Total GULP energy -267795.021432 kJ/mol
# GULP energy per Si atom -5579.062947 kJ/mol
# Density = 1.694124 g / cm^3
# Si number density = 16.979884 Si / 1000 Ang^3
#
#
#
# Elastic Constant Matrix: (Units=GPa)
#
#
# Indices 1 2 3 4 5 6 
#
# 1 121.9522 27.2583 99.4111 0.0000 0.0000 0.0000
# 2 27.2583 25.2451 22.6377 0.0000 0.0000 0.0000
# 3 99.4111 22.6377 170.1490 0.0000 0.0000 0.0000
# 4 0.0000 0.0000 0.0000 13.0775 0.0000 0.0000
# 5 0.0000 0.0000 0.0000 0.0000 40.1476 0.0000
# 6 0.0000 0.0000 0.0000 0.0000 0.0000 14.8748
#
#
#
# Elastic Compliance Matrix: (Units=1/GPa)
#
#
# Indices 1 2 3 4 5 6 
#
# 1 0.018177 -0.011472 -0.009094 0.000000 0.000000 0.000000
# 2 -0.011472 0.052218 -0.000245 0.000000 0.000000 0.000000
# 3 -0.009094 -0.000245 0.011223 0.000000 0.000000 0.000000
# 4 0.000000 0.000000 0.000000 0.076467 0.000000 0.000000
# 5 0.000000 0.000000 0.000000 0.000000 0.024908 0.000000
# 6 0.000000 0.000000 0.000000 0.000000 0.000000 0.067228
#
#
# Mechanical properties :
#
#
# Convention : Reuss Voigt Hill
#
# Bulk Modulus (GPa) = 25.00202 68.44006 46.72104
# Shear Modulus (GPa) = 16.38406 24.82259 20.60332
#
# Velocity S-wave (km/s) = 3.10967 3.82760 3.48716
# Velocity P-wave (km/s) = 5.25831 7.74133 6.61733
#
# Compressibility (1/GPa) = 0.03999677
#
# Stress axis : x y z
#
# Youngs Moduli (GPa) = 55.01442 19.15046 89.10354
#
# Poissons Ratio (x) = 0.21970 0.81029
# Poissons Ratio (y) = 0.63113 0.02181
# Poissons Ratio (z) = 0.50029 0.00469
#
# Static dielectric constant tensor:
#      x y z
#    x 1.568940 0.000000 0.000000 
#    y 0.000000 1.549980 0.000000 
#    z 0.000000 0.000000 1.559290 
# 
# From -- ./inp_files/48037.got.cif
#   From: 2010.05.17/outbox.cif.g08.bks.cpg/sg64_25_cif.got.tgz:48037.got - 2010.06.03 16:29:19.
