data_PCOD9477083
_publ_section_title
;
Structure prediction by ZEFSAII (Michael W. Deem and Ramdas Pophale) SiO2 
 PCOD9477083
Probable space group: C M C A
;
_chemical_formula_sum "Si O2"
_cell_formula_units_Z 112
_cell_length_a 13.995320
_cell_length_b 15.411728
_cell_length_c 23.991396
_cell_angle_alpha 90.000000
_cell_angle_beta 90.000000
_cell_angle_gamma 90.000000
_cell_volume 5174.753748
_symmetry_space_group_name_H-M "C M C A"
_symmetry_group_IT_number 64
_symmetry_cell_setting 'orthorhombic'
loop_
_space_group_symop_operation_xyz
x,y,z
-x,1/2-y,1/2+z
x,-y,-z
-x,1/2+y,1/2-z
-x,-y,-z
x,1/2+y,1/2-z
-x,y,z
x,1/2-y,1/2+z
1/2+x,1/2+y,z
1/2-x,-y,1/2+z
1/2+x,1/2-y,-z
1/2-x,y,1/2-z
1/2-x,1/2-y,-z
1/2+x,y,1/2-z
1/2-x,1/2+y,z
1/2+x,-y,1/2+z
loop_
_atom_site_type_symbol
_atom_site_label
_atom_site_fract_x
_atom_site_fract_y
_atom_site_fract_z
Si Si1 0.610690 0.801886 0.010153
Si Si2 0.386439 0.421346 0.174494
Si Si3 0.114429 0.700450 0.780158
Si Si4 0.684853 0.946881 0.947128
Si Si5 0.893208 0.614471 0.445320
Si Si6 0.294579 0.106804 0.885580
Si Si7 0.889494 0.383367 0.686734
O O1 0.500000 0.824490 0.020398
O O2 0.616490 0.698745 0.015681
O O3 0.674883 0.840033 0.060009
O O4 0.644336 0.850153 0.953845
O O5 0.500000 0.424729 0.161719
O O6 0.369824 0.352531 0.223625
O O7 0.319138 0.395973 0.123271
O O8 0.352576 0.518395 0.192402
O O9 0.160266 0.649604 0.831441
O O10 0.150194 0.799922 0.781374
O O11 0.000000 0.703126 0.789333
O O12 0.799093 0.941352 0.953487
O O13 0.667385 0.008325 0.894666
O O14 0.644520 0.000000 0.000000
O O15 0.887843 0.639513 0.379427
O O16 0.000000 0.576985 0.453024
O O17 0.000000 0.390840 0.704084
#
# Coordination Sequence:
#
# PCOD9477083 Si02
#       7
#    16  16  16  16  16  16  16
#     4  10  21  37  58  82 111 150 193 240 286 338
#     4  10  21  37  58  85 118 149 190 244 291 342
#     4  10  20  36  59  86 112 147 198 243 285 347
#     4  10  22  34  53  85 117 149 186 237 290 343
#     4  10  18  35  60  82 110 150 196 236 279 344
#     4  11  20  34  54  82 114 147 191 232 285 341
#     4   9  17  34  60  83 108 152 197 235 286 340
#
# _framework density 21.643543000000001
#
# number of rings (size 3 to 8) (size 9 to 14) (size 15 to 20)
#    0.000    2.000    2.857    1.286    0.000    3.429 
#    0.000    6.429    0.000    0.857    0.000    1.000 
#    0.000    0.000    0.000    0.000    0.000    0.000 
#
# Total GULP energy -312349.995222 kJ/mol
# GULP energy per Si atom -5577.678486 kJ/mol
# Density = 2.159428 g / cm^3
# Si number density = 21.643543 Si / 1000 Ang^3
#
#
#
# Elastic Constant Matrix: (Units=GPa)
#
#
# Indices 1 2 3 4 5 6 
#
# 1 64.2116 33.7732 31.6076 0.0000 0.0000 0.0000
# 2 33.7732 80.4362 17.0645 0.0000 0.0000 0.0000
# 3 31.6076 17.0645 29.1029 0.0000 0.0000 0.0000
# 4 0.0000 0.0000 0.0000 31.6909 0.0000 0.0000
# 5 0.0000 0.0000 0.0000 0.0000 24.8176 0.0000
# 6 0.0000 0.0000 0.0000 0.0000 0.0000 21.0900
#
#
#
# Elastic Compliance Matrix: (Units=1/GPa)
#
#
# Indices 1 2 3 4 5 6 
#
# 1 0.037614 -0.008139 -0.036079 0.000000 0.000000 0.000000
# 2 -0.008139 0.015960 -0.000518 0.000000 0.000000 0.000000
# 3 -0.036079 -0.000518 0.073849 0.000000 0.000000 0.000000
# 4 0.000000 0.000000 0.000000 0.031555 0.000000 0.000000
# 5 0.000000 0.000000 0.000000 0.000000 0.040294 0.000000
# 6 0.000000 0.000000 0.000000 0.000000 0.000000 0.047416
#
#
# Mechanical properties :
#
#
# Convention : Reuss Voigt Hill
#
# Bulk Modulus (GPa) = 26.35061 37.62681 31.98871
# Shear Modulus (GPa) = 14.33448 21.60673 17.97060
#
# Velocity S-wave (km/s) = 2.57631 3.16301 2.88462
# Velocity P-wave (km/s) = 4.58814 5.54636 5.08985
#
# Compressibility (1/GPa) = 0.03794979
#
# Stress axis : x y z
#
# Youngs Moduli (GPa) = 26.58593 62.65832 13.54117
#
# Poissons Ratio (x) = 0.50998 0.48855
# Poissons Ratio (y) = 0.21638 0.00702
# Poissons Ratio (z) = 0.95919 0.03248
#
# Static dielectric constant tensor:
#      x y z
#    x 1.793800 0.000000 0.000000 
#    y 0.000000 1.847570 0.000000 
#    z 0.000000 0.000000 1.772300 
# 
# From -- ./inp_files/50075.got.cif
#   From: 2010.05.17/outbox.cif.g08.bks.cpg/sg64_26_cif.got.tgz:50075.got - 2010.06.03 16:29:19.
