data_PCOD9477828
_publ_section_title
;
Structure prediction by ZEFSAII (Michael W. Deem and Ramdas Pophale) SiO2 
 PCOD9477828
Probable space group: C M C A
;
_chemical_formula_sum "Si O2"
_cell_formula_units_Z 96
_cell_length_a 13.729835
_cell_length_b 19.645266
_cell_length_c 16.266901
_cell_angle_alpha 90.000000
_cell_angle_beta 90.000000
_cell_angle_gamma 90.000000
_cell_volume 4387.610380
_symmetry_space_group_name_H-M "C M C A"
_symmetry_group_IT_number 64
_symmetry_cell_setting 'orthorhombic'
loop_
_space_group_symop_operation_xyz
x,y,z
-x,1/2-y,1/2+z
x,-y,-z
-x,1/2+y,1/2-z
-x,-y,-z
x,1/2+y,1/2-z
-x,y,z
x,1/2-y,1/2+z
1/2+x,1/2+y,z
1/2-x,-y,1/2+z
1/2+x,1/2-y,-z
1/2-x,y,1/2-z
1/2-x,1/2-y,-z
1/2+x,y,1/2-z
1/2-x,1/2+y,z
1/2+x,-y,1/2+z
loop_
_atom_site_type_symbol
_atom_site_label
_atom_site_fract_x
_atom_site_fract_y
_atom_site_fract_z
Si Si1 0.791993 0.068732 0.332092
Si Si2 0.385357 0.210011 0.529626
Si Si3 0.394402 0.996292 0.401811
Si Si4 0.616471 0.074365 0.850599
Si Si5 0.886527 0.351928 0.308462
Si Si6 0.189206 0.643920 0.011371
O O1 0.750000 0.102588 0.250000
O O2 0.694952 0.039777 0.373245
O O3 0.841671 0.114657 0.400604
O O4 0.855241 0.000486 0.317560
O O5 0.500000 0.190520 0.521745
O O6 0.354612 0.205286 0.626620
O O7 0.304027 0.162987 0.486946
O O8 0.368226 0.285855 0.496841
O O9 0.500000 0.021282 0.372143
O O10 0.395482 0.000000 0.500000
O O11 0.382262 0.920956 0.363487
O O12 0.500000 0.077970 0.859279
O O13 0.651879 0.128606 0.781741
O O14 0.665240 0.091795 0.937865
O O15 0.000000 0.336968 0.293106
#
# Coordination Sequence:
#
# PCOD9477828 Si02
#       6
#    16  16  16  16  16  16
#     4  12  24  39  61  93 133 169 206 261 322 391
#     4  10  22  44  66  89 126 167 217 271 319 381
#     4  10  19  34  59  89 121 156 205 264 315 369
#     4  11  23  41  66  95 130 172 216 264 326 396
#     4   9  18  35  62  91 116 160 211 257 312 378
#     4  11  25  41  63  98 125 170 221 267 327 381
#
# _framework density 21.879791000000001
#
# number of rings (size 3 to 8) (size 9 to 14) (size 15 to 20)
#    0.000    1.500    1.667    4.000    0.000    4.000 
#    6.000    0.000    0.000    0.000    0.000    0.000 
#    0.000    0.000    0.000    0.000    0.000    0.000 
#
# Total GULP energy -267922.793943 kJ/mol
# GULP energy per Si atom -5581.724874 kJ/mol
# Density = 2.182999 g / cm^3
# Si number density = 21.879791 Si / 1000 Ang^3
#
#
#
# Elastic Constant Matrix: (Units=GPa)
#
#
# Indices 1 2 3 4 5 6 
#
# 1 94.0811 0.8798 -7.5979 0.0000 0.0000 0.0000
# 2 0.8798 30.7436 7.2292 0.0000 0.0000 0.0000
# 3 -7.5979 7.2292 100.0534 0.0000 0.0000 0.0000
# 4 0.0000 0.0000 0.0000 31.9341 0.0000 0.0000
# 5 0.0000 0.0000 0.0000 0.0000 25.4853 0.0000
# 6 0.0000 0.0000 0.0000 0.0000 0.0000 -5.2100
#
#
#
# Elastic Compliance Matrix: (Units=1/GPa)
#
#
# Indices 1 2 3 4 5 6 
#
# 1 0.010702 -0.000506 0.000849 0.000000 0.000000 0.000000
# 2 -0.000506 0.033113 -0.002431 0.000000 0.000000 0.000000
# 3 0.000849 -0.002431 0.010235 0.000000 0.000000 0.000000
# 4 0.000000 0.000000 0.000000 0.031314 0.000000 0.000000
# 5 0.000000 0.000000 0.000000 0.000000 0.039238 0.000000
# 6 0.000000 0.000000 0.000000 0.000000 0.000000 -0.191938
#
#
# Mechanical properties :
#
#
# Convention : Reuss Voigt Hill
#
# Bulk Modulus (GPa) = 20.05008 25.10004 22.57506
# Shear Modulus (GPa) = -107.44806 25.39967 -41.02419
#
# Velocity S-wave (km/s) = -7.01534 3.41086 -4.33480
# Velocity P-wave (km/s) = 7.51241 5.19698 3.83586
#
# Compressibility (1/GPa) = 0.04987511
#
# Stress axis : x y z
#
# Youngs Moduli (GPa) = 93.43655 30.19943 97.70583
#
# Poissons Ratio (x) = 0.01528 -0.08298
# Poissons Ratio (y) = 0.04728 0.23752
# Poissons Ratio (z) = -0.07935 0.07341
#
# Static dielectric constant tensor:
#      x y z
#    x 1.817040 0.000000 0.000000 
#    y 0.000000 1.812660 0.000000 
#    z 0.000000 0.000000 1.850770 
# 
# From -- ./inp_files/23861.got.cif
#   From: 2010.05.17/outbox.cif.g08.bks.cpg/sg64_12_cif.got.tgz:23861.got - 2010.06.03 16:29:19.
