data_PCOD9477861
_publ_section_title
;
Structure prediction by ZEFSAII (Michael W. Deem and Ramdas Pophale) SiO2 
 PCOD9477861
Probable space group: C M C A
;
_chemical_formula_sum "Si O2"
_cell_formula_units_Z 56
_cell_length_a 19.412031
_cell_length_b 25.422263
_cell_length_c 5.658319
_cell_angle_alpha 90.000000
_cell_angle_beta 90.000000
_cell_angle_gamma 90.000000
_cell_volume 2792.367737
_symmetry_space_group_name_H-M "C M C A"
_symmetry_group_IT_number 64
_symmetry_cell_setting 'orthorhombic'
loop_
_space_group_symop_operation_xyz
x,y,z
-x,1/2-y,1/2+z
x,-y,-z
-x,1/2+y,1/2-z
-x,-y,-z
x,1/2+y,1/2-z
-x,y,z
x,1/2-y,1/2+z
1/2+x,1/2+y,z
1/2-x,-y,1/2+z
1/2+x,1/2-y,-z
1/2-x,y,1/2-z
1/2-x,1/2-y,-z
1/2+x,y,1/2-z
1/2-x,1/2+y,z
1/2+x,-y,1/2+z
loop_
_atom_site_type_symbol
_atom_site_label
_atom_site_fract_x
_atom_site_fract_y
_atom_site_fract_z
Si Si1 0.250000 0.122030 0.750000
Si Si2 0.362959 0.851743 0.900049
Si Si3 0.500000 0.216333 0.051945
Si Si4 0.820373 0.048203 0.133511
Si Si5 0.750000 0.280014 0.750000
O O1 0.186579 0.150953 0.627613
O O2 0.287651 0.086586 0.558040
O O3 0.434054 0.822389 0.941039
O O4 0.362378 0.912597 0.808060
O O5 0.317486 0.816525 0.724123
O O6 0.500000 0.250729 0.300626
O O7 0.750000 0.025675 0.250000
O O8 0.857394 0.000000 0.000000
O O9 0.750000 0.250000 0.500000
#
# Coordination Sequence:
#
# PCOD9477861 Si02
#       5
#     8  16   8  16   8
#     4  10  19  37  68  94 136 164 223 275 338 394
#     4  11  24  41  65  98 131 180 223 289 337 408
#     4  12  30  50  69  95 139 189 232 280 352 412
#     4  10  19  34  64 102 134 171 220 280 347 403
#     4  12  23  35  62  92 122 162 223 279 330 386
#
# _framework density 20.054663999999999
#
# number of rings (size 3 to 8) (size 9 to 14) (size 15 to 20)
#    0.000    1.143    5.714    2.571    4.000    0.000 
#    0.000    0.714    0.000    1.714    0.000    0.000 
#    0.000    0.000    0.000    0.000    0.000    0.000 
#
# Total GULP energy -155879.673212 kJ/mol
# GULP energy per Si atom -5567.131186 kJ/mol
# Density = 2.000902 g / cm^3
# Si number density = 20.054664 Si / 1000 Ang^3
#
#
#
# Elastic Constant Matrix: (Units=GPa)
#
#
# Indices 1 2 3 4 5 6 
#
# 1 144.3661 71.2059 39.9797 0.0000 0.0000 0.0000
# 2 71.2059 122.6542 57.7749 0.0000 0.0000 0.0000
# 3 39.9797 57.7749 115.2980 0.0000 0.0000 0.0000
# 4 0.0000 0.0000 0.0000 -21.4798 0.0000 0.0000
# 5 0.0000 0.0000 0.0000 0.0000 23.0960 0.0000
# 6 0.0000 0.0000 0.0000 0.0000 0.0000 26.5258
#
#
#
# Elastic Compliance Matrix: (Units=1/GPa)
#
#
# Indices 1 2 3 4 5 6 
#
# 1 0.009751 -0.005325 -0.000713 0.000000 0.000000 0.000000
# 2 -0.005325 0.013580 -0.004958 0.000000 0.000000 0.000000
# 3 -0.000713 -0.004958 0.011405 0.000000 0.000000 0.000000
# 4 0.000000 0.000000 0.000000 -0.046555 0.000000 0.000000
# 5 0.000000 0.000000 0.000000 0.000000 0.043298 0.000000
# 6 0.000000 0.000000 0.000000 0.000000 0.000000 0.037699
#
#
# Mechanical properties :
#
#
# Convention : Reuss Voigt Hill
#
# Bulk Modulus (GPa) = 78.47212 80.02660 79.24936
# Shear Modulus (GPa) = 52.40171 19.85224 36.12698
#
# Velocity S-wave (km/s) = 5.11724 3.14969 4.24892
# Velocity P-wave (km/s) = 8.60982 7.29509 7.97957
#
# Compressibility (1/GPa) = 0.01274338
#
# Stress axis : x y z
#
# Youngs Moduli (GPa) = 102.55733 73.63809 87.68129
#
# Poissons Ratio (x) = 0.39212 0.06250
# Poissons Ratio (y) = 0.54611 0.43476
# Poissons Ratio (z) = 0.07310 0.36513
#
# Static dielectric constant tensor:
#      x y z
#    x 1.730440 0.000000 0.000000 
#    y 0.000000 1.860120 0.000000 
#    z 0.000000 0.000000 1.911660 
# 
# From -- ./inp_files/1204.got.cif
#   From: 2010.05.17/outbox.cif.g08.bks.cpg/sg64_1_cif.got.tgz:1204.got - 2010.06.03 16:29:19.
