data_PCOD9477994
_publ_section_title
;
Structure prediction by ZEFSAII (Michael W. Deem and Ramdas Pophale) SiO2 
 PCOD9477994
Probable space group: C M C A
;
_chemical_formula_sum "Si O2"
_cell_formula_units_Z 64
_cell_length_a 18.638004
_cell_length_b 28.264369
_cell_length_c 5.582704
_cell_angle_alpha 90.000000
_cell_angle_beta 90.000000
_cell_angle_gamma 90.000000
_cell_volume 2940.920581
_symmetry_space_group_name_H-M "C M C A"
_symmetry_group_IT_number 64
_symmetry_cell_setting 'orthorhombic'
loop_
_space_group_symop_operation_xyz
x,y,z
-x,1/2-y,1/2+z
x,-y,-z
-x,1/2+y,1/2-z
-x,-y,-z
x,1/2+y,1/2-z
-x,y,z
x,1/2-y,1/2+z
1/2+x,1/2+y,z
1/2-x,-y,1/2+z
1/2+x,1/2-y,-z
1/2-x,y,1/2-z
1/2-x,1/2-y,-z
1/2+x,y,1/2-z
1/2-x,1/2+y,z
1/2+x,-y,1/2+z
loop_
_atom_site_type_symbol
_atom_site_label
_atom_site_fract_x
_atom_site_fract_y
_atom_site_fract_z
Si Si1 0.625462 0.645062 0.140883
Si Si2 0.250000 0.971782 0.250000
Si Si3 0.000000 0.278680 0.664821
Si Si4 0.000000 0.067031 0.128346
Si Si5 0.153142 0.616182 0.857443
Si Si6 0.500000 0.926420 0.130636
O O1 0.571295 0.688890 0.157819
O O2 0.571869 0.599528 0.127960
O O3 0.670379 0.638791 0.385179
O O4 0.667912 0.644178 0.888951
O O5 0.186675 0.935798 0.323899
O O6 0.266268 0.000000 0.500000
O O7 0.000000 0.248631 0.418614
O O8 0.000000 0.045104 0.387304
O O9 0.000000 0.043614 0.871233
O O10 0.067764 0.608441 0.867740
#
# Coordination Sequence:
#
# PCOD9477994 Si02
#       6
#    16   8   8   8  16   8
#     4   9  17  31  52  79 112 154 193 220 273 356
#     4  12  26  42  58  86 118 146 194 264 316 342
#     4  11  20  31  54  97 136 153 180 249 308 331
#     4   7  12  22  42  70  96 123 166 219 248 294
#     4  10  19  36  58  79 110 154 197 238 284 360
#     4   8  14  27  50  73  94 128 176 222 266 323
#
# _framework density 21.761893000000001
#
# number of rings (size 3 to 8) (size 9 to 14) (size 15 to 20)
#    0.000    2.500    0.000    4.500    0.000    2.000 
#    0.000    1.250    0.000    0.000    0.000   17.500 
#    0.000    0.000    0.000    0.000    0.000    0.000 
#
# Total GULP energy -178270.154717 kJ/mol
# GULP energy per Si atom -5570.942335 kJ/mol
# Density = 2.171236 g / cm^3
# Si number density = 21.761893 Si / 1000 Ang^3
#
#
#
# Elastic Constant Matrix: (Units=GPa)
#
#
# Indices 1 2 3 4 5 6 
#
# 1 52.3884 8.9687 17.5782 0.0000 0.0000 0.0000
# 2 8.9687 76.5292 75.2094 0.0000 0.0000 0.0000
# 3 17.5782 75.2094 324.7274 0.0000 0.0000 0.0000
# 4 0.0000 0.0000 0.0000 36.9081 0.0000 0.0000
# 5 0.0000 0.0000 0.0000 0.0000 26.3655 0.0000
# 6 0.0000 0.0000 0.0000 0.0000 0.0000 -20.8841
#
#
#
# Elastic Compliance Matrix: (Units=1/GPa)
#
#
# Indices 1 2 3 4 5 6 
#
# 1 0.019596 -0.001624 -0.000685 0.000000 0.000000 0.000000
# 2 -0.001624 0.017052 -0.003862 0.000000 0.000000 0.000000
# 3 -0.000685 -0.003862 0.004011 0.000000 0.000000 0.000000
# 4 0.000000 0.000000 0.000000 0.027094 0.000000 0.000000
# 5 0.000000 0.000000 0.000000 0.000000 0.037928 0.000000
# 6 0.000000 0.000000 0.000000 0.000000 0.000000 -0.047883
#
#
# Mechanical properties :
#
#
# Convention : Reuss Voigt Hill
#
# Bulk Modulus (GPa) = 35.31163 73.01750 54.16456
# Shear Modulus (GPa) = 62.83170 31.93714 47.38442
#
# Velocity S-wave (km/s) = 5.37913 3.83505 4.67133
# Velocity P-wave (km/s) = 7.40551 7.29629 7.35111
#
# Compressibility (1/GPa) = 0.02831928
#
# Stress axis : x y z
#
# Youngs Moduli (GPa) = 51.03113 58.64379 249.31884
#
# Poissons Ratio (x) = 0.09521 0.17072
# Poissons Ratio (y) = 0.08285 0.96275
# Poissons Ratio (z) = 0.03494 0.22645
#
# Static dielectric constant tensor:
#      x y z
#    x 1.820750 0.000000 0.000000 
#    y 0.000000 1.745530 0.000000 
#    z 0.000000 0.000000 1.960920 
# 
# From -- ./inp_files/1817.got.cif
#   From: 2010.05.17/outbox.cif.g08.bks.cpg/sg64_1_cif.got.tgz:1817.got - 2010.06.03 16:29:19.
