data_PCOD9477102
_publ_section_title
;
Structure prediction by ZEFSAII (Michael W. Deem and Ramdas Pophale) SiO2 
 PCOD9477102
Probable space group: C M C A
;
_chemical_formula_sum "Si O2"
_cell_formula_units_Z 80
_cell_length_a 14.064310
_cell_length_b 19.471717
_cell_length_c 14.460512
_cell_angle_alpha 90.000000
_cell_angle_beta 90.000000
_cell_angle_gamma 90.000000
_cell_volume 3960.101794
_symmetry_space_group_name_H-M "C M C A"
_symmetry_group_IT_number 64
_symmetry_cell_setting 'orthorhombic'
loop_
_space_group_symop_operation_xyz
x,y,z
-x,1/2-y,1/2+z
x,-y,-z
-x,1/2+y,1/2-z
-x,-y,-z
x,1/2+y,1/2-z
-x,y,z
x,1/2-y,1/2+z
1/2+x,1/2+y,z
1/2-x,-y,1/2+z
1/2+x,1/2-y,-z
1/2-x,y,1/2-z
1/2-x,1/2-y,-z
1/2+x,y,1/2-z
1/2-x,1/2+y,z
1/2+x,-y,1/2+z
loop_
_atom_site_type_symbol
_atom_site_label
_atom_site_fract_x
_atom_site_fract_y
_atom_site_fract_z
Si Si1 0.719493 0.487168 0.604192
Si Si2 0.392053 0.224264 0.929972
Si Si3 0.352921 0.113170 0.780015
Si Si4 0.106168 0.079879 0.920257
Si Si5 0.742162 0.840929 0.565142
O O1 0.680351 0.500000 0.500000
O O2 0.666208 0.538019 0.674199
O O3 0.829709 0.512112 0.598138
O O4 0.720981 0.406289 0.622469
O O5 0.500000 0.245104 0.952784
O O6 0.394362 0.162317 0.857198
O O7 0.331507 0.197128 0.017848
O O8 0.328195 0.286104 0.889298
O O9 0.250000 0.140523 0.750000
O O10 0.403676 0.109791 0.682474
O O11 0.175719 0.126329 0.983235
O O12 0.000000 0.071534 0.958932
#
# Coordination Sequence:
#
# PCOD9477102 Si02
#       5
#    16  16  16  16  16
#     4   9  17  34  56  77 111 144 184 228 279 324
#     4  11  21  35  58  84 114 150 188 228 286 347
#     4  10  18  36  56  81 113 149 186 230 286 336
#     4  10  19  33  59  83 109 147 193 235 278 334
#     4  10  21  37  56  83 114 147 189 242 279 330
#
# _framework density 20.201502000000001
#
# number of rings (size 3 to 8) (size 9 to 14) (size 15 to 20)
#    0.000    2.000    6.000    1.200    0.000    4.400 
#    0.000    6.000    0.000    0.000    0.000    0.000 
#    0.000    0.000    0.000    0.000    0.000    0.000 
#
# Total GULP energy -222840.887030 kJ/mol
# GULP energy per Si atom -5571.022176 kJ/mol
# Density = 2.015552 g / cm^3
# Si number density = 20.201502 Si / 1000 Ang^3
#
#
#
# Elastic Constant Matrix: (Units=GPa)
#
#
# Indices 1 2 3 4 5 6 
#
# 1 85.4785 10.3282 5.9464 0.0000 0.0000 0.0000
# 2 10.3282 110.8739 2.8141 0.0000 0.0000 0.0000
# 3 5.9464 2.8141 48.2219 0.0000 0.0000 0.0000
# 4 0.0000 0.0000 0.0000 16.0400 0.0000 0.0000
# 5 0.0000 0.0000 0.0000 0.0000 6.3490 0.0000
# 6 0.0000 0.0000 0.0000 0.0000 0.0000 -5.1548
#
#
#
# Elastic Compliance Matrix: (Units=1/GPa)
#
#
# Indices 1 2 3 4 5 6 
#
# 1 0.011927 -0.001075 -0.001408 0.000000 0.000000 0.000000
# 2 -0.001075 0.009130 -0.000400 0.000000 0.000000 0.000000
# 3 -0.001408 -0.000400 0.020934 0.000000 0.000000 0.000000
# 4 0.000000 0.000000 0.000000 0.062344 0.000000 0.000000
# 5 0.000000 0.000000 0.000000 0.000000 0.157504 0.000000
# 6 0.000000 0.000000 0.000000 0.000000 0.000000 -0.193994
#
#
# Mechanical properties :
#
#
# Convention : Reuss Voigt Hill
#
# Bulk Modulus (GPa) = 27.60608 31.41683 29.51146
# Shear Modulus (GPa) = 58.35181 18.47923 38.41552
#
# Velocity S-wave (km/s) = 5.38030 3.02776 4.36548
# Velocity P-wave (km/s) = 7.23131 5.27338 6.32852
#
# Compressibility (1/GPa) = 0.03622390
#
# Stress axis : x y z
#
# Youngs Moduli (GPa) = 83.84535 109.53415 47.76822
#
# Poissons Ratio (x) = 0.11778 0.06726
# Poissons Ratio (y) = 0.09016 0.01912
# Poissons Ratio (z) = 0.11805 0.04383
#
# Static dielectric constant tensor:
#      x y z
#    x 1.774840 0.000000 0.000000 
#    y 0.000000 1.790000 0.000000 
#    z 0.000000 0.000000 1.760920 
# 
# From -- ./inp_files/23675.got.cif
#   From: 2010.05.17/outbox.cif.g08.bks.cpg/sg64_12_cif.got.tgz:23675.got - 2010.06.03 16:29:19.
