data_PCOD9477067
_publ_section_title
;
Structure prediction by ZEFSAII (Michael W. Deem and Ramdas Pophale) SiO2 
 PCOD9477067
Probable space group: C M C A
;
_chemical_formula_sum "Si O2"
_cell_formula_units_Z 128
_cell_length_a 24.045597
_cell_length_b 25.882530
_cell_length_c 11.549377
_cell_angle_alpha 90.000000
_cell_angle_beta 90.000000
_cell_angle_gamma 90.000000
_cell_volume 7187.880499
_symmetry_space_group_name_H-M "C M C A"
_symmetry_group_IT_number 64
_symmetry_cell_setting 'orthorhombic'
loop_
_space_group_symop_operation_xyz
x,y,z
-x,1/2-y,1/2+z
x,-y,-z
-x,1/2+y,1/2-z
-x,-y,-z
x,1/2+y,1/2-z
-x,y,z
x,1/2-y,1/2+z
1/2+x,1/2+y,z
1/2-x,-y,1/2+z
1/2+x,1/2-y,-z
1/2-x,y,1/2-z
1/2-x,1/2-y,-z
1/2+x,y,1/2-z
1/2-x,1/2+y,z
1/2+x,-y,1/2+z
loop_
_atom_site_type_symbol
_atom_site_label
_atom_site_fract_x
_atom_site_fract_y
_atom_site_fract_z
Si Si1 0.437998 0.171390 0.855053
Si Si2 0.143316 0.763801 0.219038
Si Si3 0.761281 0.302757 0.432917
Si Si4 0.146482 0.667710 0.394088
Si Si5 0.185252 0.407606 0.788941
Si Si6 0.562331 0.767910 0.476080
Si Si7 0.663329 0.377379 0.456093
Si Si8 0.713591 0.983544 0.131609
O O1 0.500000 0.153631 0.825697
O O2 0.396887 0.188576 0.753378
O O3 0.443038 0.225131 0.924433
O O4 0.400971 0.132850 0.930269
O O5 0.200626 0.785997 0.173214
O O6 0.153178 0.718628 0.311943
O O7 0.106561 0.742771 0.112076
O O8 0.750000 0.250000 0.500000
O O9 0.801844 0.335549 0.517476
O O10 0.704465 0.332724 0.409362
O O11 0.148604 0.617759 0.312177
O O12 0.091560 0.681726 0.468015
O O13 0.250000 0.402944 0.750000
O O14 0.177360 0.467270 0.826021
O O15 0.174797 0.377272 0.907166
O O16 0.500000 0.776891 0.428725
O O17 0.682005 0.431037 0.398661
O O18 0.750000 0.974222 0.250000
O O19 0.737521 0.000000 0.000000
#
# Coordination Sequence:
#
# PCOD9477067 Si02
#       8
#    16  16  16  16  16  16  16  16
#     4  10  21  35  50  71 103 145 187 220 262 323
#     4  10  20  31  48  74 110 148 176 218 272 330
#     4  11  21  30  47  80 115 141 174 222 276 341
#     4  10  19  31  49  75 105 145 179 216 278 338
#     4  10  18  35  55  76 106 142 174 222 285 349
#     4   9  18  33  49  71 104 144 193 229 256 318
#     4  11  21  34  54  80 108 140 181 228 278 336
#     4   9  21  37  58  82 113 144 186 236 293 359
#
# _framework density 17.807753000000002
#
# number of rings (size 3 to 8) (size 9 to 14) (size 15 to 20)
#    0.000    2.000    1.250    4.125    1.750    1.500 
#    0.000    0.625    0.000    4.125    0.000    0.000 
#    0.000    3.750    0.000    0.000    0.000    0.000 
#
# Total GULP energy -356306.164208 kJ/mol
# GULP energy per Si atom -5567.283816 kJ/mol
# Density = 1.776722 g / cm^3
# Si number density = 17.807753 Si / 1000 Ang^3
#
#
#
# Elastic Constant Matrix: (Units=GPa)
#
#
# Indices 1 2 3 4 5 6 
#
# 1 109.6533 25.6386 25.9125 0.0000 0.0000 0.0000
# 2 25.6386 56.9494 12.8723 0.0000 0.0000 0.0000
# 3 25.9125 12.8723 67.1597 0.0000 0.0000 0.0000
# 4 0.0000 0.0000 0.0000 26.7201 0.0000 0.0000
# 5 0.0000 0.0000 0.0000 0.0000 18.4091 0.0000
# 6 0.0000 0.0000 0.0000 0.0000 0.0000 -0.7572
#
#
#
# Elastic Compliance Matrix: (Units=1/GPa)
#
#
# Indices 1 2 3 4 5 6 
#
# 1 0.010892 -0.004133 -0.003410 0.000000 0.000000 0.000000
# 2 -0.004133 0.019923 -0.002224 0.000000 0.000000 0.000000
# 3 -0.003410 -0.002224 0.016632 0.000000 0.000000 0.000000
# 4 0.000000 0.000000 0.000000 0.037425 0.000000 0.000000
# 5 0.000000 0.000000 0.000000 0.000000 0.054321 0.000000
# 6 0.000000 0.000000 0.000000 0.000000 0.000000 -1.320725
#
#
# Mechanical properties :
#
#
# Convention : Reuss Voigt Hill
#
# Bulk Modulus (GPa) = 35.82627 40.28992 38.05810
# Shear Modulus (GPa) = -4.33766 20.16367 7.91300
#
# Velocity S-wave (km/s) = -1.56241 3.36861 2.11027
# Velocity P-wave (km/s) = 4.11184 6.14851 5.23026
#
# Compressibility (1/GPa) = 0.02791248
#
# Stress axis : x y z
#
# Youngs Moduli (GPa) = 91.81177 50.19405 60.12514
#
# Poissons Ratio (x) = 0.20744 0.20505
# Poissons Ratio (y) = 0.37943 0.13372
# Poissons Ratio (z) = 0.31311 0.11163
#
# Static dielectric constant tensor:
#      x y z
#    x 1.632600 0.000000 0.000000 
#    y 0.000000 1.613080 0.000000 
#    z 0.000000 0.000000 1.732680 
# 
# From -- ./inp_files/18749.got.cif
#   From: 2010.05.17/outbox.cif.g08.bks.cpg/sg64_10_cif.got.tgz:18749.got - 2010.06.03 16:29:19.
