data_PCOD9477423
_publ_section_title
;
Structure prediction by ZEFSAII (Michael W. Deem and Ramdas Pophale) SiO2 
 PCOD9477423
Probable space group: C M C A
;
_chemical_formula_sum "Si O2"
_cell_formula_units_Z 80
_cell_length_a 8.721369
_cell_length_b 28.347792
_cell_length_c 18.546343
_cell_angle_alpha 90.000000
_cell_angle_beta 90.000000
_cell_angle_gamma 90.000000
_cell_volume 4585.241208
_symmetry_space_group_name_H-M "C M C A"
_symmetry_group_IT_number 64
_symmetry_cell_setting 'orthorhombic'
loop_
_space_group_symop_operation_xyz
x,y,z
-x,1/2-y,1/2+z
x,-y,-z
-x,1/2+y,1/2-z
-x,-y,-z
x,1/2+y,1/2-z
-x,y,z
x,1/2-y,1/2+z
1/2+x,1/2+y,z
1/2-x,-y,1/2+z
1/2+x,1/2-y,-z
1/2-x,y,1/2-z
1/2-x,1/2-y,-z
1/2+x,y,1/2-z
1/2-x,1/2+y,z
1/2+x,-y,1/2+z
loop_
_atom_site_type_symbol
_atom_site_label
_atom_site_fract_x
_atom_site_fract_y
_atom_site_fract_z
Si Si1 0.815729 0.289354 0.670607
Si Si2 0.815650 0.146170 0.038692
Si Si3 0.815375 0.051692 0.523156
Si Si4 0.315926 0.808957 0.386726
Si Si5 0.183628 0.095565 0.675096
O O1 0.750000 0.297715 0.750000
O O2 0.767235 0.328885 0.612513
O O3 0.756656 0.239199 0.641107
O O4 0.000000 0.288397 0.673592
O O5 0.000000 0.142845 0.038343
O O6 0.748477 0.094492 0.024662
O O7 0.772862 0.178594 0.969543
O O8 0.774817 0.063903 0.605877
O O9 0.000000 0.052571 0.517939
O O10 0.761044 0.000000 0.500000
O O11 0.500000 0.806396 0.381558
O O12 0.254905 0.853006 0.340428
O O13 0.250000 0.077153 0.750000
O O14 0.000000 0.099373 0.678835
#
# Coordination Sequence:
#
# PCOD9477423 Si02
#       5
#    16  16  16  16  16
#     4  11  22  35  50  73 105 139 174 207 245 294
#     4   9  20  36  54  76 101 131 169 211 252 299
#     4   9  19  36  57  78 100 130 168 209 255 305
#     4  10  19  33  53  76 102 133 169 208 252 298
#     4  10  19  32  51  76 105 133 164 206 254 301
#
# _framework density 17.447282000000001
#
# number of rings (size 3 to 8) (size 9 to 14) (size 15 to 20)
#    0.000    2.200    0.000    3.000    0.000    3.600 
#    0.000    1.000    0.000    4.800    0.000    0.000 
#    0.000    0.000    0.000    0.000    0.000    0.000 
#
# Total GULP energy -223299.296615 kJ/mol
# GULP energy per Si atom -5582.482415 kJ/mol
# Density = 1.740757 g / cm^3
# Si number density = 17.447282 Si / 1000 Ang^3
#
#
#
# Elastic Constant Matrix: (Units=GPa)
#
#
# Indices 1 2 3 4 5 6 
#
# 1 40.1728 35.2068 44.6055 0.0000 0.0000 0.0000
# 2 35.2068 122.9060 101.1103 0.0000 0.0000 0.0000
# 3 44.6055 101.1103 151.6918 0.0000 0.0000 0.0000
# 4 0.0000 0.0000 0.0000 13.4619 0.0000 0.0000
# 5 0.0000 0.0000 0.0000 0.0000 21.7099 0.0000
# 6 0.0000 0.0000 0.0000 0.0000 0.0000 20.1221
#
#
#
# Elastic Compliance Matrix: (Units=1/GPa)
#
#
# Indices 1 2 3 4 5 6 
#
# 1 0.037712 -0.003720 -0.008610 0.000000 0.000000 0.000000
# 2 -0.003720 0.018381 -0.011158 0.000000 0.000000 0.000000
# 3 -0.008610 -0.011158 0.016562 0.000000 0.000000 0.000000
# 4 0.000000 0.000000 0.000000 0.074284 0.000000 0.000000
# 5 0.000000 0.000000 0.000000 0.000000 0.046062 0.000000
# 6 0.000000 0.000000 0.000000 0.000000 0.000000 0.049697
#
#
# Mechanical properties :
#
#
# Convention : Reuss Voigt Hill
#
# Bulk Modulus (GPa) = 38.94177 75.17956 57.06066
# Shear Modulus (GPa) = 16.76535 19.98197 18.37366
#
# Velocity S-wave (km/s) = 3.10323 3.38787 3.24866
# Velocity P-wave (km/s) = 5.93364 7.64765 6.84451
#
# Compressibility (1/GPa) = 0.02567937
#
# Stress axis : x y z
#
# Youngs Moduli (GPa) = 26.51643 54.40295 60.37994
#
# Poissons Ratio (x) = 0.20235 0.51988
# Poissons Ratio (y) = 0.09863 0.67374
# Poissons Ratio (z) = 0.22831 0.60705
#
# Static dielectric constant tensor:
#      x y z
#    x 1.585690 0.000000 0.000000 
#    y 0.000000 1.558200 0.000000 
#    z 0.000000 0.000000 1.605260 
# 
# From -- ./inp_files/29764.got.cif
#   From: 2010.05.17/outbox.cif.g08.bks.cpg/sg64_15_cif.got.tgz:29764.got - 2010.06.03 16:29:19.
