data_PCOD9477399
_publ_section_title
;
Structure prediction by ZEFSAII (Michael W. Deem and Ramdas Pophale) SiO2 
 PCOD9477399
Probable space group: C M C A
;
_chemical_formula_sum "Si O2"
_cell_formula_units_Z 96
_cell_length_a 27.301614
_cell_length_b 23.697819
_cell_length_c 8.300190
_cell_angle_alpha 90.000000
_cell_angle_beta 90.000000
_cell_angle_gamma 90.000000
_cell_volume 5370.129196
_symmetry_space_group_name_H-M "C M C A"
_symmetry_group_IT_number 64
_symmetry_cell_setting 'orthorhombic'
loop_
_space_group_symop_operation_xyz
x,y,z
-x,1/2-y,1/2+z
x,-y,-z
-x,1/2+y,1/2-z
-x,-y,-z
x,1/2+y,1/2-z
-x,y,z
x,1/2-y,1/2+z
1/2+x,1/2+y,z
1/2-x,-y,1/2+z
1/2+x,1/2-y,-z
1/2-x,y,1/2-z
1/2-x,1/2-y,-z
1/2+x,y,1/2-z
1/2-x,1/2+y,z
1/2+x,-y,1/2+z
loop_
_atom_site_type_symbol
_atom_site_label
_atom_site_fract_x
_atom_site_fract_y
_atom_site_fract_z
Si Si1 0.796171 0.976262 0.673164
Si Si2 0.305403 0.698815 0.312972
Si Si3 0.128063 0.898137 0.799087
Si Si4 0.643916 0.070200 0.672341
Si Si5 0.054388 0.509727 0.307215
Si Si6 0.195855 0.675148 0.807164
O O1 0.750000 0.946240 0.750000
O O2 0.812187 0.027295 0.788538
O O3 0.785417 0.000000 0.500000
O O4 0.840236 0.933038 0.670291
O O5 0.250000 0.686067 0.250000
O O6 0.349670 0.664051 0.227248
O O7 0.304884 0.685881 0.502488
O O8 0.312896 0.765214 0.280795
O O9 0.074418 0.926421 0.777281
O O10 0.140693 0.917910 0.981554
O O11 0.656289 0.128525 0.758450
O O12 0.595804 0.036786 0.737185
O O13 0.051327 0.500000 0.500000
O O14 0.000000 0.501289 0.239242
O O15 0.250000 0.655554 0.750000
#
# Coordination Sequence:
#
# PCOD9477399 Si02
#       6
#    16  16  16  16  16  16
#     4  11  20  30  44  66  97 130 164 200 243 292
#     4  11  21  34  51  73 103 137 173 206 243 290
#     4  10  19  32  50  73 100 129 164 204 249 298
#     4  10  19  32  50  73 100 129 164 204 249 298
#     4   8  16  32  55  79 100 126 162 206 256 305
#     4  11  21  34  51  73 103 137 173 206 243 290
#
# _framework density 17.876666
#
# number of rings (size 3 to 8) (size 9 to 14) (size 15 to 20)
#    0.000    1.833    0.000    8.500    0.000    0.000 
#    0.000    0.000    0.000   19.000    0.000    0.000 
#    0.000    0.000    0.000    0.000    0.000    0.000 
#
# Total GULP energy -267440.022149 kJ/mol
# GULP energy per Si atom -5571.667128 kJ/mol
# Density = 1.783598 g / cm^3
# Si number density = 17.876666 Si / 1000 Ang^3
#
#
#
# Elastic Constant Matrix: (Units=GPa)
#
#
# Indices 1 2 3 4 5 6 
#
# 1 102.4035 46.6252 15.6983 0.0000 0.0000 0.0000
# 2 46.6252 103.1162 9.7572 0.0000 0.0000 0.0000
# 3 15.6983 9.7572 65.1502 0.0000 0.0000 0.0000
# 4 0.0000 0.0000 0.0000 23.3359 0.0000 0.0000
# 5 0.0000 0.0000 0.0000 0.0000 9.6092 0.0000
# 6 0.0000 0.0000 0.0000 0.0000 0.0000 17.7977
#
#
#
# Elastic Compliance Matrix: (Units=1/GPa)
#
#
# Indices 1 2 3 4 5 6 
#
# 1 0.012604 -0.005490 -0.002215 0.000000 0.000000 0.000000
# 2 -0.005490 0.012228 -0.000509 0.000000 0.000000 0.000000
# 3 -0.002215 -0.000509 0.015959 0.000000 0.000000 0.000000
# 4 0.000000 0.000000 0.000000 0.042852 0.000000 0.000000
# 5 0.000000 0.000000 0.000000 0.000000 0.104067 0.000000
# 6 0.000000 0.000000 0.000000 0.000000 0.000000 0.056187
#
#
# Mechanical properties :
#
#
# Convention : Reuss Voigt Hill
#
# Bulk Modulus (GPa) = 41.04216 46.09236 43.56726
# Shear Modulus (GPa) = 18.62574 23.38784 21.00679
#
# Velocity S-wave (km/s) = 3.23135 3.62095 3.43169
# Velocity P-wave (km/s) = 6.07705 6.58189 6.33450
#
# Compressibility (1/GPa) = 0.02436519
#
# Stress axis : x y z
#
# Youngs Moduli (GPa) = 79.33799 81.77879 62.66049
#
# Poissons Ratio (x) = 0.44893 0.13879
# Poissons Ratio (y) = 0.43553 0.03187
# Poissons Ratio (z) = 0.17573 0.04159
#
# Static dielectric constant tensor:
#      x y z
#    x 1.778280 0.000000 0.000000 
#    y 0.000000 1.650330 0.000000 
#    z 0.000000 0.000000 1.634220 
# 
# From -- ./inp_files/10531.got.cif
#   From: 2010.05.17/outbox.cif.g08.bks.cpg/sg64_6_cif.got.tgz:10531.got - 2010.06.03 16:29:19.
