data_PCOD9477859
_publ_section_title
;
Structure prediction by ZEFSAII (Michael W. Deem and Ramdas Pophale) SiO2 
 PCOD9477859
Probable space group: C M C A
;
_chemical_formula_sum "Si O2"
_cell_formula_units_Z 80
_cell_length_a 17.185172
_cell_length_b 7.829323
_cell_length_c 23.931477
_cell_angle_alpha 90.000000
_cell_angle_beta 90.000000
_cell_angle_gamma 90.000000
_cell_volume 3219.938647
_symmetry_space_group_name_H-M "C M C A"
_symmetry_group_IT_number 64
_symmetry_cell_setting 'orthorhombic'
loop_
_space_group_symop_operation_xyz
x,y,z
-x,1/2-y,1/2+z
x,-y,-z
-x,1/2+y,1/2-z
-x,-y,-z
x,1/2+y,1/2-z
-x,y,z
x,1/2-y,1/2+z
1/2+x,1/2+y,z
1/2-x,-y,1/2+z
1/2+x,1/2-y,-z
1/2-x,y,1/2-z
1/2-x,1/2-y,-z
1/2+x,y,1/2-z
1/2-x,1/2+y,z
1/2+x,-y,1/2+z
loop_
_atom_site_type_symbol
_atom_site_label
_atom_site_fract_x
_atom_site_fract_y
_atom_site_fract_z
Si Si1 0.085178 0.852157 0.325409
Si Si2 0.789744 0.082861 0.082914
Si Si3 0.410117 0.046150 0.661502
Si Si4 0.698914 0.659164 0.304844
Si Si5 0.866437 0.605031 0.951075
O O1 0.135855 0.810571 0.195427
O O2 0.000000 0.906913 0.303794
O O3 0.152623 0.980626 0.307250
O O4 0.087390 0.874061 0.393205
O O5 0.858736 0.963038 0.105111
O O6 0.755006 0.171811 0.140193
O O7 0.831492 0.207171 0.039073
O O8 0.712491 0.999269 0.060558
O O9 0.500000 0.091692 0.653021
O O10 0.408320 0.851630 0.684900
O O11 0.750000 0.664636 0.250000
O O12 0.907027 0.500000 0.000000
#
# Coordination Sequence:
#
# PCOD9477859 Si02
#       5
#    16  16  16  16  16
#     4   9  21  41  66  99 140 177 223 287 346 406
#     4  10  20  39  58  93 132 169 222 284 337 394
#     4  10  21  42  67  92 132 175 218 278 341 399
#     4  11  23  40  68  96 127 178 232 282 337 409
#     4  10  19  34  63  95 129 177 227 280 336 405
#
# _framework density 24.845195
#
# number of rings (size 3 to 8) (size 9 to 14) (size 15 to 20)
#    0.000    2.000    2.000    1.200    0.000    2.000 
#    0.000    2.000    0.000    0.600    0.000    0.000 
#    0.000    0.000    0.000    0.000    0.000    0.000 
#
# Total GULP energy -223766.448008 kJ/mol
# GULP energy per Si atom -5594.161200 kJ/mol
# Density = 2.478865 g / cm^3
# Si number density = 24.845195 Si / 1000 Ang^3
#
#
#
# Elastic Constant Matrix: (Units=GPa)
#
#
# Indices 1 2 3 4 5 6 
#
# 1 174.1371 42.7898 21.5521 0.0000 0.0000 0.0000
# 2 42.7898 80.9999 20.7474 0.0000 0.0000 0.0000
# 3 21.5521 20.7474 68.0839 0.0000 0.0000 0.0000
# 4 0.0000 0.0000 0.0000 30.0732 0.0000 0.0000
# 5 0.0000 0.0000 0.0000 0.0000 12.7157 0.0000
# 6 0.0000 0.0000 0.0000 0.0000 0.0000 33.9134
#
#
#
# Elastic Compliance Matrix: (Units=1/GPa)
#
#
# Indices 1 2 3 4 5 6 
#
# 1 0.006678 -0.003239 -0.001127 0.000000 0.000000 0.000000
# 2 -0.003239 0.014962 -0.003534 0.000000 0.000000 0.000000
# 3 -0.001127 -0.003534 0.016121 0.000000 0.000000 0.000000
# 4 0.000000 0.000000 0.000000 0.033252 0.000000 0.000000
# 5 0.000000 0.000000 0.000000 0.000000 0.078643 0.000000
# 6 0.000000 0.000000 0.000000 0.000000 0.000000 0.029487
#
#
# Mechanical properties :
#
#
# Convention : Reuss Voigt Hill
#
# Bulk Modulus (GPa) = 45.53462 54.82217 50.17840
# Shear Modulus (GPa) = 24.72014 31.21590 27.96802
#
# Velocity S-wave (km/s) = 3.15773 3.54844 3.35877
# Velocity P-wave (km/s) = 5.62691 6.23715 5.93987
#
# Compressibility (1/GPa) = 0.02196131
#
# Stress axis : x y z
#
# Youngs Moduli (GPa) = 149.74526 66.83566 62.02926
#
# Poissons Ratio (x) = 0.21649 0.06990
# Poissons Ratio (y) = 0.48505 0.21922
# Poissons Ratio (z) = 0.16874 0.23620
#
# Static dielectric constant tensor:
#      x y z
#    x 1.929300 0.000000 0.000000 
#    y 0.000000 2.010460 0.000000 
#    z 0.000000 0.000000 2.056840 
# 
# From -- ./inp_files/44976.got.cif
#   From: 2010.05.17/outbox.cif.g08.bks.cpg/sg64_23_cif.got.tgz:44976.got - 2010.06.03 16:29:19.
