data_PCOD9477906
_publ_section_title
;
Structure prediction by ZEFSAII (Michael W. Deem and Ramdas Pophale) SiO2 
 PCOD9477906
Probable space group: C M C A
;
_chemical_formula_sum "Si O2"
_cell_formula_units_Z 96
_cell_length_a 15.062003
_cell_length_b 31.871452
_cell_length_c 8.883670
_cell_angle_alpha 90.000000
_cell_angle_beta 90.000000
_cell_angle_gamma 90.000000
_cell_volume 4264.587178
_symmetry_space_group_name_H-M "C M C A"
_symmetry_group_IT_number 64
_symmetry_cell_setting 'orthorhombic'
loop_
_space_group_symop_operation_xyz
x,y,z
-x,1/2-y,1/2+z
x,-y,-z
-x,1/2+y,1/2-z
-x,-y,-z
x,1/2+y,1/2-z
-x,y,z
x,1/2-y,1/2+z
1/2+x,1/2+y,z
1/2-x,-y,1/2+z
1/2+x,1/2-y,-z
1/2-x,y,1/2-z
1/2-x,1/2-y,-z
1/2+x,y,1/2-z
1/2-x,1/2+y,z
1/2+x,-y,1/2+z
loop_
_atom_site_type_symbol
_atom_site_label
_atom_site_fract_x
_atom_site_fract_y
_atom_site_fract_z
Si Si1 0.664120 0.621883 0.357766
Si Si2 0.105469 0.453388 0.063246
Si Si3 0.392008 0.711373 0.891848
Si Si4 0.400911 0.872258 0.546161
Si Si5 0.891193 0.458543 0.410766
Si Si6 0.891854 0.798436 0.457824
O O1 0.750000 0.622306 0.250000
O O2 0.652036 0.580462 0.457028
O O3 0.592512 0.625969 0.224908
O O4 0.652078 0.661452 0.465743
O O5 0.134965 0.455206 0.236675
O O6 0.000000 0.442782 0.062211
O O7 0.115623 0.500000 0.000000
O O8 0.500000 0.712861 0.902057
O O9 0.368905 0.705369 0.717863
O O10 0.360365 0.671188 0.987513
O O11 0.363155 0.755849 0.958435
O O12 0.500000 0.872480 0.478931
O O13 0.360054 0.915778 0.489834
O O14 0.859979 0.500000 0.500000
O O15 0.000000 0.460486 0.415055
O O16 0.000000 0.802540 0.468446
#
# Coordination Sequence:
#
# PCOD9477906 Si02
#       6
#    16  16  16  16  16  16
#     4  12  25  39  54  83 123 163 199 240 297 364
#     4  10  20  38  65  91 114 147 195 247 298 356
#     4   9  18  33  60  92 114 145 200 262 313 356
#     4  10  19  35  58  82 111 149 196 248 298 353
#     4   9  17  31  57  92 119 141 182 243 304 359
#     4  10  19  36  60  85 115 151 198 253 307 363
#
# _framework density 22.510971000000001
#
# number of rings (size 3 to 8) (size 9 to 14) (size 15 to 20)
#    0.000    2.000    0.000    4.500    0.000    8.000 
#    0.000    9.167    0.000    0.000    0.000    0.000 
#    0.000    0.000    0.000    0.000    0.000    0.667 
#
# Total GULP energy -268268.712473 kJ/mol
# GULP energy per Si atom -5588.931510 kJ/mol
# Density = 2.245974 g / cm^3
# Si number density = 22.510971 Si / 1000 Ang^3
#
#
#
# Elastic Constant Matrix: (Units=GPa)
#
#
# Indices 1 2 3 4 5 6 
#
# 1 79.3206 35.2718 27.5413 0.0000 0.0000 0.0000
# 2 35.2718 158.3656 81.2790 0.0000 0.0000 0.0000
# 3 27.5413 81.2790 161.2073 0.0000 0.0000 0.0000
# 4 0.0000 0.0000 0.0000 54.6870 0.0000 0.0000
# 5 0.0000 0.0000 0.0000 0.0000 22.3529 0.0000
# 6 0.0000 0.0000 0.0000 0.0000 0.0000 -1.7091
#
#
#
# Elastic Compliance Matrix: (Units=1/GPa)
#
#
# Indices 1 2 3 4 5 6 
#
# 1 0.014140 -0.002576 -0.001117 0.000000 0.000000 0.000000
# 2 -0.002576 0.008988 -0.004092 0.000000 0.000000 0.000000
# 3 -0.001117 -0.004092 0.008457 0.000000 0.000000 0.000000
# 4 0.000000 0.000000 0.000000 0.018286 0.000000 0.000000
# 5 0.000000 0.000000 0.000000 0.000000 0.044737 0.000000
# 6 0.000000 0.000000 0.000000 0.000000 0.000000 -0.585095
#
#
# Mechanical properties :
#
#
# Convention : Reuss Voigt Hill
#
# Bulk Modulus (GPa) = 62.43694 76.34198 69.38946
# Shear Modulus (GPa) = -10.64785 32.05291 10.70253
#
# Velocity S-wave (km/s) = -2.17723 3.77753 2.18282
# Velocity P-wave (km/s) = 4.63422 7.28101 6.10283
#
# Compressibility (1/GPa) = 0.01601616
#
# Stress axis : x y z
#
# Youngs Moduli (GPa) = 70.71919 111.25611 118.24538
#
# Poissons Ratio (x) = 0.28661 0.13207
# Poissons Ratio (y) = 0.18218 0.48382
# Poissons Ratio (z) = 0.07899 0.45522
#
# Static dielectric constant tensor:
#      x y z
#    x 2.030770 0.000000 0.000000 
#    y 0.000000 1.788480 0.000000 
#    z 0.000000 0.000000 1.775000 
# 
# From -- ./inp_files/8372.got.cif
#   From: 2010.05.17/outbox.cif.g08.bks.cpg/sg64_5_cif.got.tgz:8372.got - 2010.06.03 16:29:19.
