data_PCOD9477035
_publ_section_title
;
Structure prediction by ZEFSAII (Michael W. Deem and Ramdas Pophale) SiO2 
 PCOD9477035
Probable space group: C M C A
;
_chemical_formula_sum "Si O2"
_cell_formula_units_Z 80
_cell_length_a 23.803589
_cell_length_b 17.799694
_cell_length_c 10.033125
_cell_angle_alpha 90.000000
_cell_angle_beta 90.000000
_cell_angle_gamma 90.000000
_cell_volume 4251.000953
_symmetry_space_group_name_H-M "C M C A"
_symmetry_group_IT_number 64
_symmetry_cell_setting 'orthorhombic'
loop_
_space_group_symop_operation_xyz
x,y,z
-x,1/2-y,1/2+z
x,-y,-z
-x,1/2+y,1/2-z
-x,-y,-z
x,1/2+y,1/2-z
-x,y,z
x,1/2-y,1/2+z
1/2+x,1/2+y,z
1/2-x,-y,1/2+z
1/2+x,1/2-y,-z
1/2-x,y,1/2-z
1/2-x,1/2-y,-z
1/2+x,y,1/2-z
1/2-x,1/2+y,z
1/2+x,-y,1/2+z
loop_
_atom_site_type_symbol
_atom_site_label
_atom_site_fract_x
_atom_site_fract_y
_atom_site_fract_z
Si Si1 0.603360 0.454847 0.860554
Si Si2 0.190651 0.645779 0.469547
Si Si3 0.000000 0.340482 0.649457
Si Si4 0.887642 0.387568 0.272392
Si Si5 0.792149 0.315615 0.121883
Si Si6 0.000000 0.700983 0.657588
O O1 0.554734 0.393787 0.844427
O O2 0.602885 0.523693 0.759170
O O3 0.593413 0.500000 0.000000
O O4 0.663187 0.411980 0.865904
O O5 0.150434 0.631495 0.596835
O O6 0.190473 0.732270 0.424198
O O7 0.254883 0.638109 0.515938
O O8 0.000000 0.281157 0.769473
O O9 0.000000 0.299892 0.504089
O O10 0.849223 0.357166 0.155201
O O11 0.945328 0.344169 0.293677
O O12 0.750000 0.307880 0.250000
#
# Coordination Sequence:
#
# PCOD9477035 Si02
#       6
#    16  16   8  16  16   8
#     4  10  18  34  57  84 113 151 202 241 287 353
#     4   9  17  32  54  79 112 147 191 240 289 351
#     4  12  22  37  60  93 115 153 205 247 295 357
#     4  10  20  33  57  86 113 150 196 247 286 353
#     4   9  18  33  52  83 112 149 188 242 297 340
#     4  12  23  36  61  94 113 157 197 251 293 354
#
# _framework density 18.819096999999999
#
# number of rings (size 3 to 8) (size 9 to 14) (size 15 to 20)
#    0.000    2.000    4.000    2.100    0.000    0.000 
#    0.000    7.000    0.000    4.800    0.000    0.000 
#    0.000    0.000    0.000    0.000    0.000    0.000 
#
# Total GULP energy -222869.451621 kJ/mol
# GULP energy per Si atom -5571.736291 kJ/mol
# Density = 1.877626 g / cm^3
# Si number density = 18.819097 Si / 1000 Ang^3
#
#
#
# Elastic Constant Matrix: (Units=GPa)
#
#
# Indices 1 2 3 4 5 6 
#
# 1 66.8588 39.0313 24.7213 0.0000 0.0000 0.0000
# 2 39.0313 104.2452 35.1600 0.0000 0.0000 0.0000
# 3 24.7213 35.1600 29.7853 0.0000 0.0000 0.0000
# 4 0.0000 0.0000 0.0000 30.9317 0.0000 0.0000
# 5 0.0000 0.0000 0.0000 0.0000 12.4145 0.0000
# 6 0.0000 0.0000 0.0000 0.0000 0.0000 48.0107
#
#
#
# Elastic Compliance Matrix: (Units=1/GPa)
#
#
# Indices 1 2 3 4 5 6 
#
# 1 0.022324 -0.003504 -0.014392 0.000000 0.000000 0.000000
# 2 -0.003504 0.016489 -0.016555 0.000000 0.000000 0.000000
# 3 -0.014392 -0.016555 0.065062 0.000000 0.000000 0.000000
# 4 0.000000 0.000000 0.000000 0.032329 0.000000 0.000000
# 5 0.000000 0.000000 0.000000 0.000000 0.080551 0.000000
# 6 0.000000 0.000000 0.000000 0.000000 0.000000 0.020829
#
#
# Mechanical properties :
#
#
# Convention : Reuss Voigt Hill
#
# Bulk Modulus (GPa) = 28.59524 44.30158 36.44841
# Shear Modulus (GPa) = 15.71614 25.06982 20.39298
#
# Velocity S-wave (km/s) = 2.89297 3.65382 3.29543
# Velocity P-wave (km/s) = 5.13681 6.43369 5.82148
#
# Compressibility (1/GPa) = 0.03497086
#
# Stress axis : x y z
#
# Youngs Moduli (GPa) = 44.79438 60.64743 15.37007
#
# Poissons Ratio (x) = 0.21254 0.22120
# Poissons Ratio (y) = 0.15698 0.25446
# Poissons Ratio (z) = 0.64468 1.00405
#
# Static dielectric constant tensor:
#      x y z
#    x 1.643080 0.000000 0.000000 
#    y 0.000000 1.646430 0.000000 
#    z 0.000000 0.000000 1.733060 
# 
# From -- ./inp_files/17082.got.cif
#   From: 2010.05.17/outbox.cif.g08.bks.cpg/sg64_9_cif.got.tgz:17082.got - 2010.06.03 16:29:19.
