data_PCOD9477883
_publ_section_title
;
Structure prediction by ZEFSAII (Michael W. Deem and Ramdas Pophale) SiO2 
 PCOD9477883
Probable space group: C M C A
;
_chemical_formula_sum "Si O2"
_cell_formula_units_Z 96
_cell_length_a 23.553327
_cell_length_b 24.588756
_cell_length_c 7.776472
_cell_angle_alpha 90.000000
_cell_angle_beta 90.000000
_cell_angle_gamma 90.000000
_cell_volume 4503.720512
_symmetry_space_group_name_H-M "C M C A"
_symmetry_group_IT_number 64
_symmetry_cell_setting 'orthorhombic'
loop_
_space_group_symop_operation_xyz
x,y,z
-x,1/2-y,1/2+z
x,-y,-z
-x,1/2+y,1/2-z
-x,-y,-z
x,1/2+y,1/2-z
-x,y,z
x,1/2-y,1/2+z
1/2+x,1/2+y,z
1/2-x,-y,1/2+z
1/2+x,1/2-y,-z
1/2-x,y,1/2-z
1/2-x,1/2-y,-z
1/2+x,y,1/2-z
1/2-x,1/2+y,z
1/2+x,-y,1/2+z
loop_
_atom_site_type_symbol
_atom_site_label
_atom_site_fract_x
_atom_site_fract_y
_atom_site_fract_z
Si Si1 0.564338 0.970159 0.685847
Si Si2 0.433448 0.788644 0.612024
Si Si3 0.375606 0.566741 0.626660
Si Si4 0.250665 0.560275 0.544972
Si Si5 0.064026 0.172751 0.505081
Si Si6 0.642481 0.615112 0.010102
O O1 0.500000 0.953178 0.733051
O O2 0.606517 0.921131 0.643580
O O3 0.560449 0.000000 0.500000
O O4 0.590489 0.012032 0.823069
O O5 0.500000 0.792044 0.547401
O O6 0.413598 0.726119 0.603607
O O7 0.388067 0.826712 0.515793
O O8 0.434800 0.809404 0.806989
O O9 0.317983 0.560429 0.515843
O O10 0.408889 0.614690 0.534213
O O11 0.364220 0.590904 0.818481
O O12 0.227671 0.500000 0.500000
O O13 0.250000 0.566688 0.750000
O O14 0.209718 0.604755 0.457983
O O15 0.000000 0.166899 0.567248
#
# Coordination Sequence:
#
# PCOD9477883 Si02
#       6
#    16  16  16  16  16  16
#     4   9  17  30  52  82 113 145 182 228 283 339
#     4  10  21  37  58  83 111 144 183 229 283 341
#     4  10  20  34  55  83 113 147 188 232 280 334
#     4  10  21  37  56  79 111 152 192 231 278 333
#     4  10  21  37  57  83 113 145 183 230 285 341
#     4  10  19  35  56  80 111 148 190 231 277 337
#
# _framework density 21.315711
#
# number of rings (size 3 to 8) (size 9 to 14) (size 15 to 20)
#    0.000    2.167    0.000    4.500    0.000    6.000 
#    0.000    0.833    0.000    4.000    0.000    0.000 
#    0.000    0.000    0.000    0.000    0.000    0.000 
#
# Total GULP energy -267811.721593 kJ/mol
# GULP energy per Si atom -5579.410867 kJ/mol
# Density = 2.126720 g / cm^3
# Si number density = 21.315711 Si / 1000 Ang^3
#
#
#
# Elastic Constant Matrix: (Units=GPa)
#
#
# Indices 1 2 3 4 5 6 
#
# 1 111.7148 33.6403 23.4830 0.0000 0.0000 0.0000
# 2 33.6403 59.8316 9.5111 0.0000 0.0000 0.0000
# 3 23.4830 9.5111 59.1662 0.0000 0.0000 0.0000
# 4 0.0000 0.0000 0.0000 36.8057 0.0000 0.0000
# 5 0.0000 0.0000 0.0000 0.0000 55.1047 0.0000
# 6 0.0000 0.0000 0.0000 0.0000 0.0000 23.8503
#
#
#
# Elastic Compliance Matrix: (Units=1/GPa)
#
#
# Indices 1 2 3 4 5 6 
#
# 1 0.011482 -0.005881 -0.003612 0.000000 0.000000 0.000000
# 2 -0.005881 0.020165 -0.000907 0.000000 0.000000 0.000000
# 3 -0.003612 -0.000907 0.018481 0.000000 0.000000 0.000000
# 4 0.000000 0.000000 0.000000 0.027170 0.000000 0.000000
# 5 0.000000 0.000000 0.000000 0.000000 0.018147 0.000000
# 6 0.000000 0.000000 0.000000 0.000000 0.000000 0.041928
#
#
# Mechanical properties :
#
#
# Convention : Reuss Voigt Hill
#
# Bulk Modulus (GPa) = 34.09867 40.44239 37.27053
# Shear Modulus (GPa) = 29.77111 34.09069 31.93090
#
# Velocity S-wave (km/s) = 3.74127 4.00349 3.87460
# Velocity P-wave (km/s) = 5.89020 6.35491 6.12696
#
# Compressibility (1/GPa) = 0.02932666
#
# Stress axis : x y z
#
# Youngs Moduli (GPa) = 87.09589 49.59180 54.11021
#
# Poissons Ratio (x) = 0.29167 0.19542
# Poissons Ratio (y) = 0.51225 0.04909
# Poissons Ratio (z) = 0.31455 0.04499
#
# Static dielectric constant tensor:
#      x y z
#    x 1.877970 0.000000 0.000000 
#    y 0.000000 1.786460 0.000000 
#    z 0.000000 0.000000 1.829080 
# 
# From -- ./inp_files/8422.got.cif
#   From: 2010.05.17/outbox.cif.g08.bks.cpg/sg64_5_cif.got.tgz:8422.got - 2010.06.03 16:29:19.
