data_PCOD9477646
_publ_section_title
;
Structure prediction by ZEFSAII (Michael W. Deem and Ramdas Pophale) SiO2 
 PCOD9477646
Probable space group: C M C A
;
_chemical_formula_sum "Si O2"
_cell_formula_units_Z 96
_cell_length_a 28.016916
_cell_length_b 9.972334
_cell_length_c 15.678195
_cell_angle_alpha 90.000000
_cell_angle_beta 90.000000
_cell_angle_gamma 90.000000
_cell_volume 4380.394304
_symmetry_space_group_name_H-M "C M C A"
_symmetry_group_IT_number 64
_symmetry_cell_setting 'orthorhombic'
loop_
_space_group_symop_operation_xyz
x,y,z
-x,1/2-y,1/2+z
x,-y,-z
-x,1/2+y,1/2-z
-x,-y,-z
x,1/2+y,1/2-z
-x,y,z
x,1/2-y,1/2+z
1/2+x,1/2+y,z
1/2-x,-y,1/2+z
1/2+x,1/2-y,-z
1/2-x,y,1/2-z
1/2-x,1/2-y,-z
1/2+x,y,1/2-z
1/2-x,1/2+y,z
1/2+x,-y,1/2+z
loop_
_atom_site_type_symbol
_atom_site_label
_atom_site_fract_x
_atom_site_fract_y
_atom_site_fract_z
Si Si1 0.620590 0.297254 0.162924
Si Si2 0.444922 0.457602 0.865045
Si Si3 0.448746 0.429739 0.658255
Si Si4 0.294892 0.922437 0.087045
Si Si5 0.773104 0.292487 0.842055
Si Si6 0.397712 0.314989 0.367731
O O1 0.590802 0.418594 0.122860
O O2 0.594561 0.163299 0.132091
O O3 0.676310 0.282212 0.146978
O O4 0.613711 0.305043 0.265858
O O5 0.500000 0.474230 0.893938
O O6 0.448141 0.439481 0.761584
O O7 0.418155 0.325932 0.898727
O O8 0.500000 0.373262 0.633140
O O9 0.439470 0.576629 0.623162
O O10 0.263135 0.789309 0.097836
O O11 0.349243 0.871439 0.092722
O O12 0.282518 0.046858 0.150741
O O13 0.286208 0.000000 0.000000
O O14 0.750000 0.269457 0.750000
#
# Coordination Sequence:
#
# PCOD9477646 Si02
#       6
#    16  16  16  16  16  16
#     4  10  19  33  56  91 120 154 203 254 311 359
#     4   9  18  30  53  89 125 155 196 257 311 360
#     4   9  16  29  51  82 120 155 196 254 310 364
#     4  12  27  44  62  92 129 169 211 264 326 384
#     4  12  25  42  68  94 122 166 216 269 315 378
#     4  10  19  33  56  84 122 158 203 247 308 376
#
# _framework density 21.915835000000001
#
# number of rings (size 3 to 8) (size 9 to 14) (size 15 to 20)
#    0.000    1.667    3.333    2.000    2.333    4.000 
#    0.000    0.000    0.000    2.000    0.000    1.167 
#    0.000    0.000    0.000    0.000    0.000    0.000 
#
# Total GULP energy -267948.178402 kJ/mol
# GULP energy per Si atom -5582.253717 kJ/mol
# Density = 2.186595 g / cm^3
# Si number density = 21.915835 Si / 1000 Ang^3
#
#
#
# Elastic Constant Matrix: (Units=GPa)
#
#
# Indices 1 2 3 4 5 6 
#
# 1 148.6756 30.0133 8.8994 0.0000 0.0000 0.0000
# 2 30.0133 90.9542 2.7710 0.0000 0.0000 0.0000
# 3 8.8994 2.7710 22.5203 0.0000 0.0000 0.0000
# 4 0.0000 0.0000 0.0000 15.9020 0.0000 0.0000
# 5 0.0000 0.0000 0.0000 0.0000 -0.3345 0.0000
# 6 0.0000 0.0000 0.0000 0.0000 0.0000 44.2036
#
#
#
# Elastic Compliance Matrix: (Units=1/GPa)
#
#
# Indices 1 2 3 4 5 6 
#
# 1 0.007357 -0.002348 -0.002618 0.000000 0.000000 0.000000
# 2 -0.002348 0.011785 -0.000522 0.000000 0.000000 0.000000
# 3 -0.002618 -0.000522 0.045503 0.000000 0.000000 0.000000
# 4 0.000000 0.000000 0.000000 0.062885 0.000000 0.000000
# 5 0.000000 0.000000 0.000000 0.000000 -2.989432 0.000000
# 6 0.000000 0.000000 0.000000 0.000000 0.000000 0.022623
#
#
# Mechanical properties :
#
#
# Convention : Reuss Voigt Hill
#
# Bulk Modulus (GPa) = 18.63291 38.39083 28.51187
# Shear Modulus (GPa) = -1.77910 26.65198 12.43644
#
# Velocity S-wave (km/s) = -0.90197 3.49105 2.38473
# Velocity P-wave (km/s) = 2.72686 5.81424 4.54099
#
# Compressibility (1/GPa) = 0.05366847
#
# Stress axis : x y z
#
# Youngs Moduli (GPa) = 135.92982 84.85219 21.97640
#
# Poissons Ratio (x) = 0.19922 0.05754
# Poissons Ratio (y) = 0.31914 0.01148
# Poissons Ratio (z) = 0.35590 0.04432
#
# Static dielectric constant tensor:
#      x y z
#    x 2.208250 0.000000 0.000000 
#    y 0.000000 1.807730 0.000000 
#    z 0.000000 0.000000 1.873740 
# 
# From -- ./inp_files/41791.got.cif
#   From: 2010.05.17/outbox.cif.g08.bks.cpg/sg64_21_cif.got.tgz:41791.got - 2010.06.03 16:29:19.
