data_PCOD9477659
_publ_section_title
;
Structure prediction by ZEFSAII (Michael W. Deem and Ramdas Pophale) SiO2 
 PCOD9477659
Probable space group: C M C A
;
_chemical_formula_sum "Si O2"
_cell_formula_units_Z 96
_cell_length_a 26.001578
_cell_length_b 20.153107
_cell_length_c 9.442002
_cell_angle_alpha 90.000000
_cell_angle_beta 90.000000
_cell_angle_gamma 90.000000
_cell_volume 4947.727862
_symmetry_space_group_name_H-M "C M C A"
_symmetry_group_IT_number 64
_symmetry_cell_setting 'orthorhombic'
loop_
_space_group_symop_operation_xyz
x,y,z
-x,1/2-y,1/2+z
x,-y,-z
-x,1/2+y,1/2-z
-x,-y,-z
x,1/2+y,1/2-z
-x,y,z
x,1/2-y,1/2+z
1/2+x,1/2+y,z
1/2-x,-y,1/2+z
1/2+x,1/2-y,-z
1/2-x,y,1/2-z
1/2-x,1/2-y,-z
1/2+x,y,1/2-z
1/2-x,1/2+y,z
1/2+x,-y,1/2+z
loop_
_atom_site_type_symbol
_atom_site_label
_atom_site_fract_x
_atom_site_fract_y
_atom_site_fract_z
Si Si1 0.137728 0.287562 0.003661
Si Si2 0.441709 0.325354 0.040926
Si Si3 0.370998 0.065775 0.407784
Si Si4 0.443839 0.139509 0.849091
Si Si5 0.691112 0.810832 0.703550
Si Si6 0.942107 0.510104 0.167191
O O1 0.108020 0.351843 0.061911
O O2 0.180941 0.252431 0.100611
O O3 0.091382 0.234937 0.016546
O O4 0.157839 0.298904 0.845987
O O5 0.500000 0.325918 0.990562
O O6 0.441156 0.315737 0.210001
O O7 0.412837 0.391990 0.995221
O O8 0.327110 0.120375 0.371237
O O9 0.356564 0.000000 0.500000
O O10 0.399439 0.045330 0.261602
O O11 0.500000 0.149496 0.921470
O O12 0.445166 0.065923 0.784960
O O13 0.750000 0.814959 0.750000
O O14 0.000000 0.539608 0.181920
O O15 0.931661 0.500000 0.000000
#
# Coordination Sequence:
#
# PCOD9477659 Si02
#       6
#    16  16  16  16  16  16
#     4  11  21  41  62  88 121 153 197 244 303 358
#     4  10  20  34  58  90 122 156 191 230 286 362
#     4  11  22  39  62  84 119 158 202 245 295 354
#     4  10  19  33  56  89 126 155 188 230 285 361
#     4  11  25  43  64  87 113 153 206 260 304 346
#     4  10  20  34  54  87 126 160 194 233 286 356
#
# _framework density 19.402844999999999
#
# number of rings (size 3 to 8) (size 9 to 14) (size 15 to 20)
#    0.000    1.500    3.333    2.500    0.000    0.667 
#    0.000    4.167    0.000    0.000    0.000    0.000 
#    0.000    0.000    0.000    0.000    0.000    0.000 
#
# Total GULP energy -267488.823112 kJ/mol
# GULP energy per Si atom -5572.683815 kJ/mol
# Density = 1.935868 g / cm^3
# Si number density = 19.402845 Si / 1000 Ang^3
#
#
#
# Elastic Constant Matrix: (Units=GPa)
#
#
# Indices 1 2 3 4 5 6 
#
# 1 92.5250 34.5445 24.1019 0.0000 0.0000 0.0000
# 2 34.5445 64.2496 11.7507 0.0000 0.0000 0.0000
# 3 24.1019 11.7507 79.5644 0.0000 0.0000 0.0000
# 4 0.0000 0.0000 0.0000 25.9246 0.0000 0.0000
# 5 0.0000 0.0000 0.0000 0.0000 12.7479 0.0000
# 6 0.0000 0.0000 0.0000 0.0000 0.0000 12.3690
#
#
#
# Elastic Compliance Matrix: (Units=1/GPa)
#
#
# Indices 1 2 3 4 5 6 
#
# 1 0.014313 -0.007094 -0.003288 0.000000 0.000000 0.000000
# 2 -0.007094 0.019513 -0.000733 0.000000 0.000000 0.000000
# 3 -0.003288 -0.000733 0.013673 0.000000 0.000000 0.000000
# 4 0.000000 0.000000 0.000000 0.038573 0.000000 0.000000
# 5 0.000000 0.000000 0.000000 0.000000 0.078444 0.000000
# 6 0.000000 0.000000 0.000000 0.000000 0.000000 0.080848
#
#
# Mechanical properties :
#
#
# Convention : Reuss Voigt Hill
#
# Bulk Modulus (GPa) = 39.57527 41.90368 40.73947
# Shear Modulus (GPa) = 18.11488 21.27110 19.69299
#
# Velocity S-wave (km/s) = 3.05883 3.31462 3.18929
# Velocity P-wave (km/s) = 5.73726 6.02432 5.88254
#
# Compressibility (1/GPa) = 0.02526831
#
# Stress axis : x y z
#
# Youngs Moduli (GPa) = 69.86646 51.24901 73.13860
#
# Poissons Ratio (x) = 0.36357 0.24048
# Poissons Ratio (y) = 0.49565 0.05359
# Poissons Ratio (z) = 0.22972 0.03755
#
# Static dielectric constant tensor:
#      x y z
#    x 1.687620 0.000000 0.000000 
#    y 0.000000 1.796850 0.000000 
#    z 0.000000 0.000000 1.717250 
# 
# From -- ./inp_files/10386.got.cif
#   From: 2010.05.17/outbox.cif.g08.bks.cpg/sg64_6_cif.got.tgz:10386.got - 2010.06.03 16:29:19.
