data_PCOD9477931
_publ_section_title
;
Structure prediction by ZEFSAII (Michael W. Deem and Ramdas Pophale) SiO2 
 PCOD9477931
Probable space group: C M C A
;
_chemical_formula_sum "Si O2"
_cell_formula_units_Z 72
_cell_length_a 23.235426
_cell_length_b 18.348001
_cell_length_c 7.327640
_cell_angle_alpha 90.000000
_cell_angle_beta 90.000000
_cell_angle_gamma 90.000000
_cell_volume 3123.946007
_symmetry_space_group_name_H-M "C M C A"
_symmetry_group_IT_number 64
_symmetry_cell_setting 'orthorhombic'
loop_
_space_group_symop_operation_xyz
x,y,z
-x,1/2-y,1/2+z
x,-y,-z
-x,1/2+y,1/2-z
-x,-y,-z
x,1/2+y,1/2-z
-x,y,z
x,1/2-y,1/2+z
1/2+x,1/2+y,z
1/2-x,-y,1/2+z
1/2+x,1/2-y,-z
1/2-x,y,1/2-z
1/2-x,1/2-y,-z
1/2+x,y,1/2-z
1/2-x,1/2+y,z
1/2+x,-y,1/2+z
loop_
_atom_site_type_symbol
_atom_site_label
_atom_site_fract_x
_atom_site_fract_y
_atom_site_fract_z
Si Si1 0.160974 0.000000 0.000000
Si Si2 0.136468 0.274711 0.085655
Si Si3 0.801374 0.653113 0.600933
Si Si4 0.563332 0.498278 0.719074
Si Si5 0.563183 0.668635 0.280789
O O1 0.196103 0.923716 0.992180
O O2 0.119186 0.979623 0.169112
O O3 0.190092 0.220965 0.040211
O O4 0.116164 0.324899 0.921041
O O5 0.146929 0.324011 0.261574
O O6 0.082457 0.222110 0.122159
O O7 0.750000 0.650364 0.750000
O O8 0.570478 0.500000 0.500000
O O9 0.500000 0.532554 0.758287
O O10 0.559879 0.414154 0.778954
O O11 0.500000 0.687018 0.355089
#
# Coordination Sequence:
#
# PCOD9477931 Si02
#       5
#     8  16  16  16  16
#     4  12  23  44  64  98 134 166 223 276 340 388
#     4  10  21  40  65  90 127 168 216 273 328 393
#     4  11  24  44  65  93 124 174 228 281 333 391
#     4  10  21  38  62  93 132 174 211 259 333 410
#     4  10  19  35  59  94 125 162 206 260 326 394
#
# _framework density 23.047775000000001
#
# number of rings (size 3 to 8) (size 9 to 14) (size 15 to 20)
#    0.000    1.556    2.222    3.000    0.000    0.000 
#    6.000    3.333    0.000    0.000    0.000    0.000 
#    0.000    0.000    0.000    0.000    0.000    0.000 
#
# Total GULP energy -200409.469480 kJ/mol
# GULP energy per Si atom -5566.929708 kJ/mol
# Density = 2.299532 g / cm^3
# Si number density = 23.047775 Si / 1000 Ang^3
#
#
#
# Elastic Constant Matrix: (Units=GPa)
#
#
# Indices 1 2 3 4 5 6 
#
# 1 44.4404 27.8440 -1.2968 0.0000 0.0000 0.0000
# 2 27.8440 106.0701 4.1699 0.0000 0.0000 0.0000
# 3 -1.2968 4.1699 53.0031 0.0000 0.0000 0.0000
# 4 0.0000 0.0000 0.0000 21.2819 0.0000 0.0000
# 5 0.0000 0.0000 0.0000 0.0000 -40.7061 0.0000
# 6 0.0000 0.0000 0.0000 0.0000 0.0000 -7.6720
#
#
#
# Elastic Compliance Matrix: (Units=1/GPa)
#
#
# Indices 1 2 3 4 5 6 
#
# 1 0.027010 -0.007138 0.001222 0.000000 0.000000 0.000000
# 2 -0.007138 0.011344 -0.001067 0.000000 0.000000 0.000000
# 3 0.001222 -0.001067 0.018981 0.000000 0.000000 0.000000
# 4 0.000000 0.000000 0.000000 0.046988 0.000000 0.000000
# 5 0.000000 0.000000 0.000000 0.000000 -0.024566 0.000000
# 6 0.000000 0.000000 0.000000 0.000000 0.000000 -0.130344
#
#
# Mechanical properties :
#
#
# Convention : Reuss Voigt Hill
#
# Bulk Modulus (GPa) = 23.05829 29.43867 26.24848
# Shear Modulus (GPa) = -225.57255 6.10054 -109.73601
#
# Velocity S-wave (km/s) = -9.90375 1.62870 -6.90766
# Velocity P-wave (km/s) = 10.98875 4.04197 7.22548
#
# Compressibility (1/GPa) = 0.04336835
#
# Stress axis : x y z
#
# Youngs Moduli (GPa) = 37.02300 88.15585 52.68518
#
# Poissons Ratio (x) = 0.62929 -0.06440
# Poissons Ratio (y) = 0.26429 0.05622
# Poissons Ratio (z) = -0.04526 0.09407
#
# Static dielectric constant tensor:
#      x y z
#    x 1.970830 0.000000 0.000000 
#    y 0.000000 1.848900 0.000000 
#    z 0.000000 0.000000 1.995800 
# 
# From -- ./inp_files/9153.got.cif
#   From: 2010.05.17/outbox.cif.g08.bks.cpg/sg64_5_cif.got.tgz:9153.got - 2010.06.03 16:29:19.
