data_PCOD9477924
_publ_section_title
;
Structure prediction by ZEFSAII (Michael W. Deem and Ramdas Pophale) SiO2 
 PCOD9477924
Probable space group: C M C A
;
_chemical_formula_sum "Si O2"
_cell_formula_units_Z 68
_cell_length_a 10.072651
_cell_length_b 13.986723
_cell_length_c 20.624539
_cell_angle_alpha 90.000000
_cell_angle_beta 90.000000
_cell_angle_gamma 90.000000
_cell_volume 2905.654753
_symmetry_space_group_name_H-M "C M C A"
_symmetry_group_IT_number 64
_symmetry_cell_setting 'orthorhombic'
loop_
_space_group_symop_operation_xyz
x,y,z
-x,1/2-y,1/2+z
x,-y,-z
-x,1/2+y,1/2-z
-x,-y,-z
x,1/2+y,1/2-z
-x,y,z
x,1/2-y,1/2+z
1/2+x,1/2+y,z
1/2-x,-y,1/2+z
1/2+x,1/2-y,-z
1/2-x,y,1/2-z
1/2-x,1/2-y,-z
1/2+x,y,1/2-z
1/2-x,1/2+y,z
1/2+x,-y,1/2+z
loop_
_atom_site_type_symbol
_atom_site_label
_atom_site_fract_x
_atom_site_fract_y
_atom_site_fract_z
Si Si1 0.500000 0.500000 0.500000
Si Si2 0.150515 0.161540 0.923625
Si Si3 0.145768 0.622029 0.303977
Si Si4 0.263985 0.117734 0.059606
Si Si5 0.346362 0.145540 0.809139
O O1 0.615062 0.449918 0.544253
O O2 0.171815 0.122211 0.995921
O O3 0.265210 0.125691 0.875114
O O4 0.000000 0.144558 0.900371
O O5 0.176419 0.275569 0.929649
O O6 0.250000 0.593299 0.250000
O O7 0.185560 0.591366 0.375856
O O8 0.144147 0.738302 0.305083
O O9 0.000000 0.587381 0.286973
O O10 0.500000 0.111060 0.808950
O O11 0.250000 0.116830 0.750000
#
# Coordination Sequence:
#
# PCOD9477924 Si02
#       5
#     4  16  16  16  16
#     4  12  24  40  58  92 120 166 194 258 296 380
#     4  10  19  35  59  87 122 158 201 253 300 358
#     4   9  18  32  54  86 120 154 199 256 301 350
#     4  10  22  35  59  88 125 157 203 244 307 358
#     4   9  17  28  49  84 123 157 200 253 307 353
#
# _framework density 23.402643000000001
#
# number of rings (size 3 to 8) (size 9 to 14) (size 15 to 20)
#    0.000    2.353    1.176    1.412    3.294    5.647 
#    0.000    2.353    0.000    1.412    0.000    0.000 
#    0.000    0.000    0.000    0.000    0.000    0.000 
#
# Total GULP energy -189707.445383 kJ/mol
# GULP energy per Si atom -5579.630747 kJ/mol
# Density = 2.334938 g / cm^3
# Si number density = 23.402643 Si / 1000 Ang^3
#
#
#
# Elastic Constant Matrix: (Units=GPa)
#
#
# Indices 1 2 3 4 5 6 
#
# 1 256.5586 30.0948 114.2442 0.0000 0.0000 0.0000
# 2 30.0948 72.0277 19.0773 0.0000 0.0000 0.0000
# 3 114.2442 19.0773 188.2777 0.0000 0.0000 0.0000
# 4 0.0000 0.0000 0.0000 -26.9953 0.0000 0.0000
# 5 0.0000 0.0000 0.0000 0.0000 36.0132 0.0000
# 6 0.0000 0.0000 0.0000 0.0000 0.0000 -9.0024
#
#
#
# Elastic Compliance Matrix: (Units=1/GPa)
#
#
# Indices 1 2 3 4 5 6 
#
# 1 0.005484 -0.001449 -0.003181 0.000000 0.000000 0.000000
# 2 -0.001449 0.014649 -0.000605 0.000000 0.000000 0.000000
# 3 -0.003181 -0.000605 0.007303 0.000000 0.000000 0.000000
# 4 0.000000 0.000000 0.000000 -0.037044 0.000000 0.000000
# 5 0.000000 0.000000 0.000000 0.000000 0.027768 0.000000
# 6 0.000000 0.000000 0.000000 0.000000 0.000000 -0.111082
#
#
# Mechanical properties :
#
#
# Convention : Reuss Voigt Hill
#
# Bulk Modulus (GPa) = 58.94075 93.74407 76.34241
# Shear Modulus (GPa) = -65.10726 23.56628 -20.77049
#
# Velocity S-wave (km/s) = -5.28023 3.17676 -2.98237
# Velocity P-wave (km/s) = 3.45461 7.32118 4.56429
#
# Compressibility (1/GPa) = 0.01696619
#
# Stress axis : x y z
#
# Youngs Moduli (GPa) = 182.34412 68.26301 136.93496
#
# Poissons Ratio (x) = 0.09891 0.43557
# Poissons Ratio (y) = 0.26420 0.08287
# Poissons Ratio (z) = 0.58002 0.04131
#
# Static dielectric constant tensor:
#      x y z
#    x 1.802900 0.000000 0.000000 
#    y 0.000000 1.908220 0.000000 
#    z 0.000000 0.000000 1.854690 
# 
# From -- ./inp_files/36378.got.cif
#   From: 2010.05.17/outbox.cif.g08.bks.cpg/sg64_19_cif.got.tgz:36378.got - 2010.06.03 16:29:19.
