data_PCOD9477101
_publ_section_title
;
Structure prediction by ZEFSAII (Michael W. Deem and Ramdas Pophale) SiO2 
 PCOD9477101
Probable space group: C M C A
;
_chemical_formula_sum "Si O2"
_cell_formula_units_Z 80
_cell_length_a 18.832027
_cell_length_b 25.402945
_cell_length_c 9.813005
_cell_angle_alpha 90.000000
_cell_angle_beta 90.000000
_cell_angle_gamma 90.000000
_cell_volume 4694.433120
_symmetry_space_group_name_H-M "C M C A"
_symmetry_group_IT_number 64
_symmetry_cell_setting 'orthorhombic'
loop_
_space_group_symop_operation_xyz
x,y,z
-x,1/2-y,1/2+z
x,-y,-z
-x,1/2+y,1/2-z
-x,-y,-z
x,1/2+y,1/2-z
-x,y,z
x,1/2-y,1/2+z
1/2+x,1/2+y,z
1/2-x,-y,1/2+z
1/2+x,1/2-y,-z
1/2-x,y,1/2-z
1/2-x,1/2-y,-z
1/2+x,y,1/2-z
1/2-x,1/2+y,z
1/2+x,-y,1/2+z
loop_
_atom_site_type_symbol
_atom_site_label
_atom_site_fract_x
_atom_site_fract_y
_atom_site_fract_z
Si Si1 0.420664 0.413132 0.988695
Si Si2 0.000000 0.287325 0.888236
Si Si3 0.000000 0.312382 0.575883
Si Si4 0.165934 0.074097 0.739217
Si Si5 0.584019 0.530839 0.295342
Si Si6 0.420224 0.378422 0.483962
O O1 0.500000 0.430395 0.036463
O O2 0.367158 0.417935 0.111628
O O3 0.434235 0.352973 0.940994
O O4 0.402453 0.447293 0.856666
O O5 0.000000 0.287113 0.725311
O O6 0.000000 0.231195 0.959454
O O7 0.066429 0.322545 0.942558
O O8 0.250000 0.072352 0.750000
O O9 0.136063 0.118250 0.636237
O O10 0.132557 0.019667 0.682514
O O11 0.500000 0.517903 0.305929
O O12 0.596496 0.577913 0.401908
O O13 0.500000 0.391057 0.427809
#
# Coordination Sequence:
#
# PCOD9477101 Si02
#       6
#    16   8   8  16  16  16
#     4   9  19  37  55  82 112 143 184 234 277 326
#     4  10  20  36  63  97 104 130 179 241 291 330
#     4  10  20  36  63  97 104 130 179 241 291 330
#     4  12  24  32  50  84 118 158 192 216 262 326
#     4  10  18  36  56  76 114 148 192 228 276 330
#     4   9  19  37  55  82 112 143 184 234 277 326
#
# _framework density 17.041461999999999
#
# number of rings (size 3 to 8) (size 9 to 14) (size 15 to 20)
#    1.200    0.800    2.000    3.000    2.800    6.400 
#    0.000    0.000    0.000    1.200    0.000    0.000 
#    0.000    0.000    0.000    0.000    0.000    0.000 
#
# Total GULP energy -222888.759250 kJ/mol
# GULP energy per Si atom -5572.218981 kJ/mol
# Density = 1.700267 g / cm^3
# Si number density = 17.041462 Si / 1000 Ang^3
#
#
#
# Elastic Constant Matrix: (Units=GPa)
#
#
# Indices 1 2 3 4 5 6 
#
# 1 63.0707 -6.4404 39.3976 0.0000 0.0000 0.0000
# 2 -6.4404 50.1234 -0.1258 0.0000 0.0000 0.0000
# 3 39.3976 -0.1258 60.5405 0.0000 0.0000 0.0000
# 4 0.0000 0.0000 0.0000 33.1056 0.0000 0.0000
# 5 0.0000 0.0000 0.0000 0.0000 -5.4281 0.0000
# 6 0.0000 0.0000 0.0000 0.0000 0.0000 -2.2496
#
#
#
# Elastic Compliance Matrix: (Units=1/GPa)
#
#
# Indices 1 2 3 4 5 6 
#
# 1 0.027303 0.003464 -0.017761 0.000000 0.000000 0.000000
# 2 0.003464 0.020390 -0.002212 0.000000 0.000000 0.000000
# 3 -0.017761 -0.002212 0.028071 0.000000 0.000000 0.000000
# 4 0.000000 0.000000 0.000000 0.030206 0.000000 0.000000
# 5 0.000000 0.000000 0.000000 0.000000 -0.184227 0.000000
# 6 0.000000 0.000000 0.000000 0.000000 0.000000 -0.444531
#
#
# Mechanical properties :
#
#
# Convention : Reuss Voigt Hill
#
# Bulk Modulus (GPa) = 23.39331 26.59973 24.99652
# Shear Modulus (GPa) = -10.51480 14.47914 1.98217
#
# Velocity S-wave (km/s) = -2.48667 2.91802 1.07966
# Velocity P-wave (km/s) = 2.34785 5.19575 4.03164
#
# Compressibility (1/GPa) = 0.04274727
#
# Stress axis : x y z
#
# Youngs Moduli (GPa) = 36.62549 49.04307 35.62339
#
# Poissons Ratio (x) = -0.16987 0.63270
# Poissons Ratio (y) = -0.12686 0.07879
# Poissons Ratio (z) = 0.65050 0.10847
#
# Static dielectric constant tensor:
#      x y z
#    x 1.550900 0.000000 0.000000 
#    y 0.000000 1.590970 0.000000 
#    z 0.000000 0.000000 1.583230 
# 
# From -- ./inp_files/7292.got.cif
#   From: 2010.05.17/outbox.cif.g08.bks.cpg/sg64_4_cif.got.tgz:7292.got - 2010.06.03 16:29:19.
