data_PCOD9477050
_publ_section_title
;
Structure prediction by ZEFSAII (Michael W. Deem and Ramdas Pophale) SiO2 
 PCOD9477050
Probable space group: C M C A
;
_chemical_formula_sum "Si O2"
_cell_formula_units_Z 112
_cell_length_a 17.294488
_cell_length_b 12.949694
_cell_length_c 22.782060
_cell_angle_alpha 90.000000
_cell_angle_beta 90.000000
_cell_angle_gamma 90.000000
_cell_volume 5102.232054
_symmetry_space_group_name_H-M "C M C A"
_symmetry_group_IT_number 64
_symmetry_cell_setting 'orthorhombic'
loop_
_space_group_symop_operation_xyz
x,y,z
-x,1/2-y,1/2+z
x,-y,-z
-x,1/2+y,1/2-z
-x,-y,-z
x,1/2+y,1/2-z
-x,y,z
x,1/2-y,1/2+z
1/2+x,1/2+y,z
1/2-x,-y,1/2+z
1/2+x,1/2-y,-z
1/2-x,y,1/2-z
1/2-x,1/2-y,-z
1/2+x,y,1/2-z
1/2-x,1/2+y,z
1/2+x,-y,1/2+z
loop_
_atom_site_type_symbol
_atom_site_label
_atom_site_fract_x
_atom_site_fract_y
_atom_site_fract_z
Si Si1 0.209195 0.171033 0.586919
Si Si2 0.282629 0.888233 0.955831
Si Si3 0.886424 0.522435 0.435294
Si Si4 0.914055 0.203085 0.150242
Si Si5 0.358234 0.862593 0.343272
Si Si6 0.590935 0.127384 0.140523
Si Si7 0.157646 0.043175 0.242840
O O1 0.252859 0.274116 0.563292
O O2 0.196477 0.111893 0.525139
O O3 0.133248 0.202595 0.622684
O O4 0.269147 0.130420 0.635412
O O5 0.205780 0.953778 0.940853
O O6 0.356064 0.906022 0.914383
O O7 0.914018 0.500000 0.500000
O O8 0.918898 0.622229 0.403632
O O9 0.901360 0.423578 0.395226
O O10 0.868284 0.136901 0.199415
O O11 0.000000 0.229189 0.171128
O O12 0.386073 0.745365 0.341233
O O13 0.365617 0.934275 0.286473
O O14 0.500000 0.122276 0.128423
O O15 0.615434 0.058944 0.195834
O O16 0.250000 0.048339 0.250000
#
# Coordination Sequence:
#
# PCOD9477050 Si02
#       7
#    16  16  16  16  16  16  16
#     4   9  17  34  59  88 122 158 209 261 305 375
#     4   9  18  35  58  87 123 163 211 258 305 366
#     4  10  18  34  60  89 121 164 216 269 306 362
#     4  10  22  36  56  89 129 164 196 262 338 381
#     4  10  21  37  65  97 119 161 226 271 316 378
#     4  11  24  40  62  93 132 174 208 260 335 401
#     4  11  23  43  65  88 120 167 225 277 314 377
#
# _framework density 21.951177999999999
#
# number of rings (size 3 to 8) (size 9 to 14) (size 15 to 20)
#    0.000    2.000    1.429    3.857    2.000    5.429 
#    0.000    0.000    0.000    6.429    0.000    0.000 
#    0.000    0.000    0.000    0.000    0.000    0.000 
#
# Total GULP energy -312835.528231 kJ/mol
# GULP energy per Si atom -5586.348718 kJ/mol
# Density = 2.190122 g / cm^3
# Si number density = 21.951178 Si / 1000 Ang^3
#
#
#
# Elastic Constant Matrix: (Units=GPa)
#
#
# Indices 1 2 3 4 5 6 
#
# 1 147.7082 15.5508 52.8275 0.0000 0.0000 0.0000
# 2 15.5508 57.2245 35.3047 0.0000 0.0000 0.0000
# 3 52.8275 35.3047 113.8607 0.0000 0.0000 0.0000
# 4 0.0000 0.0000 0.0000 21.8090 0.0000 0.0000
# 5 0.0000 0.0000 0.0000 0.0000 -0.0618 0.0000
# 6 0.0000 0.0000 0.0000 0.0000 0.0000 -7.6137
#
#
#
# Elastic Compliance Matrix: (Units=1/GPa)
#
#
# Indices 1 2 3 4 5 6 
#
# 1 0.008118 0.000145 -0.003812 0.000000 0.000000 0.000000
# 2 0.000145 0.021611 -0.006769 0.000000 0.000000 0.000000
# 3 -0.003812 -0.006769 0.012650 0.000000 0.000000 0.000000
# 4 0.000000 0.000000 0.000000 0.045853 0.000000 0.000000
# 5 0.000000 0.000000 0.000000 0.000000-16.175856 0.000000
# 6 0.000000 0.000000 0.000000 0.000000 0.000000 -0.131342
#
#
# Mechanical properties :
#
#
# Convention : Reuss Voigt Hill
#
# Bulk Modulus (GPa) = 46.49017 58.46215 52.47616
# Shear Modulus (GPa) = -0.30881 17.16738 8.42928
#
# Velocity S-wave (km/s) = -0.37548 2.79959 1.96172
# Velocity P-wave (km/s) = 4.58660 6.09433 5.39341
#
# Compressibility (1/GPa) = 0.02150992
#
# Stress axis : x y z
#
# Youngs Moduli (GPa) = 123.18320 46.27203 79.05254
#
# Poissons Ratio (x) = -0.00673 0.30132
# Poissons Ratio (y) = -0.01792 0.53507
# Poissons Ratio (z) = 0.46952 0.31319
#
# Static dielectric constant tensor:
#      x y z
#    x 1.802060 0.000000 0.000000 
#    y 0.000000 1.878460 0.000000 
#    z 0.000000 0.000000 1.791530 
# 
# From -- ./inp_files/45233.got.cif
#   From: 2010.05.17/outbox.cif.g08.bks.cpg/sg64_23_cif.got.tgz:45233.got - 2010.06.03 16:29:19.
