data_PCOD9477455
_publ_section_title
;
Structure prediction by ZEFSAII (Michael W. Deem and Ramdas Pophale) SiO2 
 PCOD9477455
Probable space group: C M C A
;
_chemical_formula_sum "Si O2"
_cell_formula_units_Z 112
_cell_length_a 15.944874
_cell_length_b 15.029155
_cell_length_c 27.443747
_cell_angle_alpha 90.000000
_cell_angle_beta 90.000000
_cell_angle_gamma 90.000000
_cell_volume 6576.564172
_symmetry_space_group_name_H-M "C M C A"
_symmetry_group_IT_number 64
_symmetry_cell_setting 'orthorhombic'
loop_
_space_group_symop_operation_xyz
x,y,z
-x,1/2-y,1/2+z
x,-y,-z
-x,1/2+y,1/2-z
-x,-y,-z
x,1/2+y,1/2-z
-x,y,z
x,1/2-y,1/2+z
1/2+x,1/2+y,z
1/2-x,-y,1/2+z
1/2+x,1/2-y,-z
1/2-x,y,1/2-z
1/2-x,1/2-y,-z
1/2+x,y,1/2-z
1/2-x,1/2+y,z
1/2+x,-y,1/2+z
loop_
_atom_site_type_symbol
_atom_site_label
_atom_site_fract_x
_atom_site_fract_y
_atom_site_fract_z
Si Si1 0.201000 0.283374 0.451426
Si Si2 0.596129 0.146471 0.319529
Si Si3 0.404864 0.152587 0.801007
Si Si4 0.665027 0.969876 0.280503
Si Si5 0.266472 0.577081 0.626402
Si Si6 0.592758 0.102818 0.484323
Si Si7 0.734423 0.618728 0.097853
O O1 0.250000 0.250000 0.500000
O O2 0.246201 0.359611 0.419219
O O3 0.117581 0.330604 0.471817
O O4 0.201340 0.196575 0.416919
O O5 0.500000 0.141305 0.339300
O O6 0.603714 0.241722 0.293872
O O7 0.672648 0.144460 0.357904
O O8 0.612524 0.059727 0.287032
O O9 0.500000 0.134132 0.815643
O O10 0.382983 0.102037 0.751500
O O11 0.343132 0.117663 0.843090
O O12 0.750000 0.990135 0.250000
O O13 0.691607 0.931873 0.333466
O O14 0.277861 0.475499 0.608713
O O15 0.500000 0.125901 0.465345
O O16 0.667301 0.108338 0.445619
O O17 0.590895 0.000000 0.500000
#
# Coordination Sequence:
#
# PCOD9477455 Si02
#       7
#    16  16  16  16  16  16  16
#     4  10  20  34  54  79 108 143 176 219 262 320
#     4  10  19  32  54  79 101 131 175 219 261 311
#     4  10  20  36  54  78 107 138 176 222 266 315
#     4   9  20  34  52  74 103 139 171 217 264 318
#     4  10  19  36  53  80 105 139 182 216 266 322
#     4  10  19  32  52  79 108 136 170 220 270 309
#     4  10  19  34  55  77 103 140 176 214 262 315
#
# _framework density 17.030169999999998
#
# number of rings (size 3 to 8) (size 9 to 14) (size 15 to 20)
#    0.000    2.143    2.857    0.857    0.000    1.714 
#    2.571    1.429    0.000    0.000    0.000    4.000 
#    0.000    0.000    0.000    0.000    0.000    0.000 
#
# Total GULP energy -311743.297348 kJ/mol
# GULP energy per Si atom -5566.844595 kJ/mol
# Density = 1.699141 g / cm^3
# Si number density = 17.030170 Si / 1000 Ang^3
#
#
#
# Elastic Constant Matrix: (Units=GPa)
#
#
# Indices 1 2 3 4 5 6 
#
# 1 57.6310 42.2825 10.7239 0.0000 0.0000 0.0000
# 2 42.2825 139.8419 48.9236 0.0000 0.0000 0.0000
# 3 10.7239 48.9236 63.0079 0.0000 0.0000 0.0000
# 4 0.0000 0.0000 0.0000 34.1945 0.0000 0.0000
# 5 0.0000 0.0000 0.0000 0.0000 -179.9853 0.0000
# 6 0.0000 0.0000 0.0000 0.0000 0.0000 6.0068
#
#
#
# Elastic Compliance Matrix: (Units=1/GPa)
#
#
# Indices 1 2 3 4 5 6 
#
# 1 0.022479 -0.007494 0.001993 0.000000 0.000000 0.000000
# 2 -0.007494 0.012316 -0.008288 0.000000 0.000000 0.000000
# 3 0.001993 -0.008288 0.021967 0.000000 0.000000 0.000000
# 4 0.000000 0.000000 0.000000 0.029245 0.000000 0.000000
# 5 0.000000 0.000000 0.000000 0.000000 -0.005556 0.000000
# 6 0.000000 0.000000 0.000000 0.000000 0.000000 0.166477
#
#
# Mechanical properties :
#
#
# Convention : Reuss Voigt Hill
#
# Bulk Modulus (GPa) = 34.26447 51.59343 42.92895
# Shear Modulus (GPa) = 17.59119 -17.38674 0.10222
#
# Velocity S-wave (km/s) = 3.21743 -3.19868 0.24527
# Velocity P-wave (km/s) = 5.82804 4.08889 5.03414
#
# Compressibility (1/GPa) = 0.02918475
#
# Stress axis : x y z
#
# Youngs Moduli (GPa) = 44.48579 81.19354 45.52291
#
# Poissons Ratio (x) = 0.60846 -0.09072
# Poissons Ratio (y) = 0.33338 0.37728
# Poissons Ratio (z) = -0.08866 0.67291
#
# Static dielectric constant tensor:
#      x y z
#    x 1.573930 0.000000 0.000000 
#    y 0.000000 1.579820 0.000000 
#    z 0.000000 0.000000 1.598270 
# 
# From -- ./inp_files/53369.got.cif
#   From: 2010.05.17/outbox.cif.g08.bks.cpg/sg64_27_cif.got.tgz:53369.got - 2010.06.03 16:29:19.
