data_PCOD9477104
_publ_section_title
;
Structure prediction by ZEFSAII (Michael W. Deem and Ramdas Pophale) SiO2 
 PCOD9477104
Probable space group: C M C A
;
_chemical_formula_sum "Si O2"
_cell_formula_units_Z 72
_cell_length_a 15.961018
_cell_length_b 24.729889
_cell_length_c 8.587780
_cell_angle_alpha 90.000000
_cell_angle_beta 90.000000
_cell_angle_gamma 90.000000
_cell_volume 3389.718742
_symmetry_space_group_name_H-M "C M C A"
_symmetry_group_IT_number 64
_symmetry_cell_setting 'orthorhombic'
loop_
_space_group_symop_operation_xyz
x,y,z
-x,1/2-y,1/2+z
x,-y,-z
-x,1/2+y,1/2-z
-x,-y,-z
x,1/2+y,1/2-z
-x,y,z
x,1/2-y,1/2+z
1/2+x,1/2+y,z
1/2-x,-y,1/2+z
1/2+x,1/2-y,-z
1/2-x,y,1/2-z
1/2-x,1/2-y,-z
1/2+x,y,1/2-z
1/2-x,1/2+y,z
1/2+x,-y,1/2+z
loop_
_atom_site_type_symbol
_atom_site_label
_atom_site_fract_x
_atom_site_fract_y
_atom_site_fract_z
Si Si1 0.193873 0.619017 0.998514
Si Si2 0.594119 0.032769 0.835462
Si Si3 0.750000 0.466840 0.750000
Si Si4 0.319525 0.705983 0.947302
Si Si5 0.598042 0.702381 0.273081
O O1 0.235521 0.571581 0.101505
O O2 0.266685 0.652663 0.916306
O O3 0.147224 0.659375 0.119445
O O4 0.127554 0.591735 0.883350
O O5 0.500000 0.033006 0.769723
O O6 0.666764 0.003430 0.737343
O O7 0.590057 0.000000 0.000000
O O8 0.378281 0.693675 0.094235
O O9 0.250000 0.750000 0.000000
O O10 0.370734 0.737108 0.815612
O O11 0.500000 0.697313 0.301110
#
# Coordination Sequence:
#
# PCOD9477104 Si02
#       5
#    16  16   8  16  16
#     4  10  18  36  58  81 113 158 195 235 302 357
#     4   9  19  34  57  86 110 143 197 248 290 346
#     4  10  18  36  58  86 112 154 194 250 298 346
#     4  10  20  37  58  83 116 156 191 235 298 359
#     4  11  21  36  59  90 119 150 196 246 291 357
#
# _framework density 21.240701000000001
#
# number of rings (size 3 to 8) (size 9 to 14) (size 15 to 20)
#    0.000    2.000    2.222    3.333    0.000    0.889 
#    8.000    0.000    0.000    7.333    0.000    0.000 
#    0.000    0.000    0.000    0.000    0.000    0.000 
#
# Total GULP energy -201127.517060 kJ/mol
# GULP energy per Si atom -5586.875474 kJ/mol
# Density = 2.119236 g / cm^3
# Si number density = 21.240701 Si / 1000 Ang^3
#
#
#
# Elastic Constant Matrix: (Units=GPa)
#
#
# Indices 1 2 3 4 5 6 
#
# 1 160.2820 53.5433 41.0536 0.0000 0.0000 0.0000
# 2 53.5433 95.8550 18.7210 0.0000 0.0000 0.0000
# 3 41.0536 18.7210 51.3955 0.0000 0.0000 0.0000
# 4 0.0000 0.0000 0.0000 28.1107 0.0000 0.0000
# 5 0.0000 0.0000 0.0000 0.0000 27.5262 0.0000
# 6 0.0000 0.0000 0.0000 0.0000 0.0000 24.6694
#
#
#
# Elastic Compliance Matrix: (Units=1/GPa)
#
#
# Indices 1 2 3 4 5 6 
#
# 1 0.009028 -0.003913 -0.005786 0.000000 0.000000 0.000000
# 2 -0.003913 0.012927 -0.001583 0.000000 0.000000 0.000000
# 3 -0.005786 -0.001583 0.024656 0.000000 0.000000 0.000000
# 4 0.000000 0.000000 0.000000 0.035574 0.000000 0.000000
# 5 0.000000 0.000000 0.000000 0.000000 0.036329 0.000000
# 6 0.000000 0.000000 0.000000 0.000000 0.000000 0.040536
#
#
# Mechanical properties :
#
#
# Convention : Reuss Voigt Hill
#
# Bulk Modulus (GPa) = 41.58650 59.35203 50.46926
# Shear Modulus (GPa) = 26.36714 29.00891 27.68802
#
# Velocity S-wave (km/s) = 3.52710 3.69958 3.61437
# Velocity P-wave (km/s) = 6.01735 6.80091 6.42109
#
# Compressibility (1/GPa) = 0.02404627
#
# Stress axis : x y z
#
# Youngs Moduli (GPa) = 110.76413 77.35532 40.55885
#
# Poissons Ratio (x) = 0.30269 0.23468
# Poissons Ratio (y) = 0.43341 0.06421
# Poissons Ratio (z) = 0.64090 0.12247
#
# Static dielectric constant tensor:
#      x y z
#    x 1.749850 0.000000 0.000000 
#    y 0.000000 1.792490 0.000000 
#    z 0.000000 0.000000 1.830300 
# 
# From -- ./inp_files/14375.got.cif
#   From: 2010.05.17/outbox.cif.g08.bks.cpg/sg64_8_cif.got.tgz:14375.got - 2010.06.03 16:29:19.
