data_PCOD9477484
_publ_section_title
;
Structure prediction by ZEFSAII (Michael W. Deem and Ramdas Pophale) SiO2 
 PCOD9477484
Probable space group: C M C A
;
_chemical_formula_sum "Si O2"
_cell_formula_units_Z 96
_cell_length_a 15.580195
_cell_length_b 22.516737
_cell_length_c 15.027738
_cell_angle_alpha 90.000000
_cell_angle_beta 90.000000
_cell_angle_gamma 90.000000
_cell_volume 5271.958209
_symmetry_space_group_name_H-M "C M C A"
_symmetry_group_IT_number 64
_symmetry_cell_setting 'orthorhombic'
loop_
_space_group_symop_operation_xyz
x,y,z
-x,1/2-y,1/2+z
x,-y,-z
-x,1/2+y,1/2-z
-x,-y,-z
x,1/2+y,1/2-z
-x,y,z
x,1/2-y,1/2+z
1/2+x,1/2+y,z
1/2-x,-y,1/2+z
1/2+x,1/2-y,-z
1/2-x,y,1/2-z
1/2-x,1/2-y,-z
1/2+x,y,1/2-z
1/2-x,1/2+y,z
1/2+x,-y,1/2+z
loop_
_atom_site_type_symbol
_atom_site_label
_atom_site_fract_x
_atom_site_fract_y
_atom_site_fract_z
Si Si1 0.102000 0.127045 0.314869
Si Si2 0.710508 0.560114 0.460845
Si Si3 0.715350 0.761371 0.848210
Si Si4 0.819076 0.332578 0.500545
Si Si5 0.670347 0.528317 0.193628
Si Si6 0.500000 0.103076 0.481941
Si Si7 0.000000 0.512806 0.643346
O O1 0.140122 0.089769 0.397399
O O2 0.139156 0.192503 0.326394
O O3 0.144671 0.092844 0.231782
O O4 0.000000 0.125152 0.309046
O O5 0.673089 0.500000 0.500000
O O6 0.752989 0.612799 0.517444
O O7 0.792411 0.536819 0.404047
O O8 0.750000 0.743421 0.750000
O O9 0.683705 0.709481 0.914000
O O10 0.783103 0.797696 0.911695
O O11 0.913848 0.357727 0.519934
O O12 0.750000 0.504939 0.250000
O O13 0.587279 0.487754 0.198330
O O14 0.500000 0.064939 0.572547
O O15 0.500000 0.051586 0.406628
#
# Coordination Sequence:
#
# PCOD9477484 Si02
#       7
#    16  16  16  16  16   8   8
#     4  10  20  34  56  84 111 139 195 248 280 333
#     4  10  19  35  56  81 113 152 184 224 291 352
#     4  10  22  40  60  83 113 155 197 242 298 346
#     4  10  21  38  59  85 117 149 195 245 289 355
#     4  10  19  32  53  82 111 142 191 240 282 337
#     4  11  22  34  55  89 117 147 189 234 300 355
#     4  11  20  34  57  85 120 145 188 245 297 349
#
# _framework density 18.209553
#
# number of rings (size 3 to 8) (size 9 to 14) (size 15 to 20)
#    0.000    1.833    2.500    3.500    1.167    0.333 
#    0.000    6.667    0.000    0.000    0.000    0.000 
#    0.000    0.000    0.000    0.000    0.000    0.000 
#
# Total GULP energy -267626.402384 kJ/mol
# GULP energy per Si atom -5575.550050 kJ/mol
# Density = 1.816811 g / cm^3
# Si number density = 18.209553 Si / 1000 Ang^3
#
#
#
# Elastic Constant Matrix: (Units=GPa)
#
#
# Indices 1 2 3 4 5 6 
#
# 1 101.6233 1.3871 17.7524 0.0000 0.0000 0.0000
# 2 1.3871 40.8837 20.9726 0.0000 0.0000 0.0000
# 3 17.7524 20.9726 64.7695 0.0000 0.0000 0.0000
# 4 0.0000 0.0000 0.0000 17.9288 0.0000 0.0000
# 5 0.0000 0.0000 0.0000 0.0000 -0.5911 0.0000
# 6 0.0000 0.0000 0.0000 0.0000 0.0000 18.3607
#
#
#
# Elastic Compliance Matrix: (Units=1/GPa)
#
#
# Indices 1 2 3 4 5 6 
#
# 1 0.010395 0.001330 -0.003280 0.000000 0.000000 0.000000
# 2 0.001330 0.029502 -0.009917 0.000000 0.000000 0.000000
# 3 -0.003280 -0.009917 0.019550 0.000000 0.000000 0.000000
# 4 0.000000 0.000000 0.000000 0.055776 0.000000 0.000000
# 5 0.000000 0.000000 0.000000 0.000000 -1.691806 0.000000
# 6 0.000000 0.000000 0.000000 0.000000 0.000000 0.054464
#
#
# Mechanical properties :
#
#
# Convention : Reuss Voigt Hill
#
# Bulk Modulus (GPa) = 28.00180 31.94450 29.97315
# Shear Modulus (GPa) = -3.36365 18.28398 7.46016
#
# Velocity S-wave (km/s) = -1.36059 3.17217 2.02626
# Velocity P-wave (km/s) = 3.59759 5.56756 4.68723
#
# Compressibility (1/GPa) = 0.03571199
#
# Stress axis : x y z
#
# Youngs Moduli (GPa) = 96.19971 33.89618 51.15212
#
# Poissons Ratio (x) = -0.04507 0.16776
# Poissons Ratio (y) = -0.12792 0.50729
# Poissons Ratio (z) = 0.31551 0.33616
#
# Static dielectric constant tensor:
#      x y z
#    x 1.632330 0.000000 0.000000 
#    y 0.000000 1.644420 0.000000 
#    z 0.000000 0.000000 1.656540 
# 
# From -- ./inp_files/24153.got.cif
#   From: 2010.05.17/outbox.cif.g08.bks.cpg/sg64_13_cif.got.tgz:24153.got - 2010.06.03 16:29:19.
