data_PCOD9477851
_publ_section_title
;
Structure prediction by ZEFSAII (Michael W. Deem and Ramdas Pophale) SiO2 
 PCOD9477851
Probable space group: C M C A
;
_chemical_formula_sum "Si O2"
_cell_formula_units_Z 112
_cell_length_a 17.602124
_cell_length_b 9.743664
_cell_length_c 25.825342
_cell_angle_alpha 90.000000
_cell_angle_beta 90.000000
_cell_angle_gamma 90.000000
_cell_volume 4429.283280
_symmetry_space_group_name_H-M "C M C A"
_symmetry_group_IT_number 64
_symmetry_cell_setting 'orthorhombic'
loop_
_space_group_symop_operation_xyz
x,y,z
-x,1/2-y,1/2+z
x,-y,-z
-x,1/2+y,1/2-z
-x,-y,-z
x,1/2+y,1/2-z
-x,y,z
x,1/2-y,1/2+z
1/2+x,1/2+y,z
1/2-x,-y,1/2+z
1/2+x,1/2-y,-z
1/2-x,y,1/2-z
1/2-x,1/2-y,-z
1/2+x,y,1/2-z
1/2-x,1/2+y,z
1/2+x,-y,1/2+z
loop_
_atom_site_type_symbol
_atom_site_label
_atom_site_fract_x
_atom_site_fract_y
_atom_site_fract_z
Si Si1 0.588699 0.659466 0.516418
Si Si2 0.330199 0.121696 0.554791
Si Si3 0.913911 0.060567 0.623524
Si Si4 0.716526 0.805988 0.798753
Si Si5 0.416727 0.631634 0.845900
Si Si6 0.262901 0.612227 0.401990
Si Si7 0.916748 0.006754 0.264388
O O1 0.611970 0.500000 0.500000
O O2 0.500000 0.666617 0.502241
O O3 0.629772 0.787523 0.489421
O O4 0.595418 0.672273 0.578687
O O5 0.395092 0.082946 0.596956
O O6 0.271773 0.237519 0.575158
O O7 0.280292 0.984001 0.557471
O O8 0.846059 0.955065 0.610492
O O9 0.911434 0.094441 0.684952
O O10 0.000000 0.006303 0.614295
O O11 0.750000 0.724989 0.750000
O O12 0.769563 0.872276 0.843115
O O13 0.661090 0.912166 0.770304
O O14 0.656598 0.719535 0.831113
O O15 0.500000 0.697658 0.850362
O O16 0.420985 0.542391 0.794069
O O17 0.000000 0.077708 0.272522
#
# Coordination Sequence:
#
# PCOD9477851 Si02
#       7
#    16  16  16  16  16  16  16
#     4  10  19  34  61  92 118 156 213 270 310 353
#     4  11  22  38  58  89 125 157 202 253 310 372
#     4   9  18  35  57  85 117 156 208 258 304 365
#     4  10  20  33  52  78 113 154 196 247 303 369
#     4  10  21  36  57  83 112 154 206 258 301 353
#     4  10  22  36  57  86 120 161 199 249 313 366
#     4   9  18  33  53  77 110 147 189 244 310 367
#
# _framework density 25.286256999999999
#
# number of rings (size 3 to 8) (size 9 to 14) (size 15 to 20)
#    0.000    2.143    1.429    1.714    0.000    9.143 
#    0.000    0.000    0.000    1.714    0.000    2.000 
#    0.000    0.000    0.000    0.000    0.000    0.000 
#
# Total GULP energy -311796.006281 kJ/mol
# GULP energy per Si atom -5567.785826 kJ/mol
# Density = 2.522870 g / cm^3
# Si number density = 25.286257 Si / 1000 Ang^3
#
#
#
# Elastic Constant Matrix: (Units=GPa)
#
#
# Indices 1 2 3 4 5 6 
#
# 1 71.7870 16.6196 22.2874 0.0000 0.0000 0.0000
# 2 16.6196 55.9507 4.4220 0.0000 0.0000 0.0000
# 3 22.2874 4.4220 66.5884 0.0000 0.0000 0.0000
# 4 0.0000 0.0000 0.0000 24.8381 0.0000 0.0000
# 5 0.0000 0.0000 0.0000 0.0000 36.4051 0.0000
# 6 0.0000 0.0000 0.0000 0.0000 0.0000 27.3356
#
#
#
# Elastic Compliance Matrix: (Units=1/GPa)
#
#
# Indices 1 2 3 4 5 6 
#
# 1 0.016609 -0.004518 -0.005259 0.000000 0.000000 0.000000
# 2 -0.004518 0.019196 0.000237 0.000000 0.000000 0.000000
# 3 -0.005259 0.000237 0.016762 0.000000 0.000000 0.000000
# 4 0.000000 0.000000 0.000000 0.040261 0.000000 0.000000
# 5 0.000000 0.000000 0.000000 0.000000 0.027469 0.000000
# 6 0.000000 0.000000 0.000000 0.000000 0.000000 0.036582
#
#
# Mechanical properties :
#
#
# Convention : Reuss Voigt Hill
#
# Bulk Modulus (GPa) = 29.86144 31.22045 30.54094
# Shear Modulus (GPa) = 26.72078 27.78223 27.25151
#
# Velocity S-wave (km/s) = 3.25427 3.31827 3.28643
# Velocity P-wave (km/s) = 5.09464 5.20143 5.14831
#
# Compressibility (1/GPa) = 0.03348801
#
# Stress axis : x y z
#
# Youngs Moduli (GPa) = 60.20917 52.09397 59.65850
#
# Poissons Ratio (x) = 0.23535 0.31374
# Poissons Ratio (y) = 0.27201 -0.01416
# Poissons Ratio (z) = 0.31664 -0.01237
#
# Static dielectric constant tensor:
#      x y z
#    x 2.056510 0.000000 0.000000 
#    y 0.000000 2.044120 0.000000 
#    z 0.000000 0.000000 2.185930 
# 
# From -- ./inp_files/46359.got.cif
#   From: 2010.05.17/outbox.cif.g08.bks.cpg/sg64_24_cif.got.tgz:46359.got - 2010.06.03 16:29:19.
