data_PCOD9477478
_publ_section_title
;
Structure prediction by ZEFSAII (Michael W. Deem and Ramdas Pophale) SiO2 
 PCOD9477478
Probable space group: C M C A
;
_chemical_formula_sum "Si O2"
_cell_formula_units_Z 80
_cell_length_a 9.010997
_cell_length_b 14.832920
_cell_length_c 31.109344
_cell_angle_alpha 90.000000
_cell_angle_beta 90.000000
_cell_angle_gamma 90.000000
_cell_volume 4158.056179
_symmetry_space_group_name_H-M "C M C A"
_symmetry_group_IT_number 64
_symmetry_cell_setting 'orthorhombic'
loop_
_space_group_symop_operation_xyz
x,y,z
-x,1/2-y,1/2+z
x,-y,-z
-x,1/2+y,1/2-z
-x,-y,-z
x,1/2+y,1/2-z
-x,y,z
x,1/2-y,1/2+z
1/2+x,1/2+y,z
1/2-x,-y,1/2+z
1/2+x,1/2-y,-z
1/2-x,y,1/2-z
1/2-x,1/2-y,-z
1/2+x,y,1/2-z
1/2-x,1/2+y,z
1/2+x,-y,1/2+z
loop_
_atom_site_type_symbol
_atom_site_label
_atom_site_fract_x
_atom_site_fract_y
_atom_site_fract_z
Si Si1 0.170672 0.364243 0.206311
Si Si2 0.168844 0.643748 0.293054
Si Si3 0.821663 0.142045 0.882378
Si Si4 0.819685 0.507449 0.451249
Si Si5 0.819310 0.337856 0.613184
O O1 0.250000 0.393797 0.250000
O O2 0.170278 0.253903 0.207014
O O3 0.258531 0.390418 0.163478
O O4 0.000000 0.393477 0.204681
O O5 0.250000 0.613807 0.250000
O O6 0.227813 0.620634 0.340517
O O7 0.000000 0.612591 0.290510
O O8 0.777272 0.075595 0.920799
O O9 0.753590 0.240368 0.890621
O O10 0.000000 0.146311 0.879944
O O11 0.764871 0.500000 0.500000
O O12 0.777085 0.597983 0.426046
O O13 0.000000 0.507479 0.452755
O O14 0.000000 0.329347 0.614838
#
# Coordination Sequence:
#
# PCOD9477478 Si02
#       5
#    16  16  16  16  16
#     4   9  16  28  48  75 107 142 176 210 254 308
#     4   8  14  24  42  68  96 128 163 198 239 292
#     4  10  19  32  53  80 107 137 176 219 263 314
#     4   9  19  36  56  76 101 137 180 224 271 322
#     4   9  18  34  54  75 103 138 174 215 265 317
#
# _framework density 19.239758999999999
#
# number of rings (size 3 to 8) (size 9 to 14) (size 15 to 20)
#    0.000    3.000    0.000    2.400    0.000    5.600 
#    0.000    3.000    0.000    6.600    0.000    0.000 
#    0.000    0.000    0.000    0.000    0.000    0.000 
#
# Total GULP energy -223108.232808 kJ/mol
# GULP energy per Si atom -5577.705820 kJ/mol
# Density = 1.919597 g / cm^3
# Si number density = 19.239759 Si / 1000 Ang^3
#
#
#
# Elastic Constant Matrix: (Units=GPa)
#
#
# Indices 1 2 3 4 5 6 
#
# 1 52.4941 30.1862 57.6972 0.0000 0.0000 0.0000
# 2 30.1862 80.0881 74.4622 0.0000 0.0000 0.0000
# 3 57.6972 74.4622 224.9590 0.0000 0.0000 0.0000
# 4 0.0000 0.0000 0.0000 36.5472 0.0000 0.0000
# 5 0.0000 0.0000 0.0000 0.0000 24.8164 0.0000
# 6 0.0000 0.0000 0.0000 0.0000 0.0000 -0.9292
#
#
#
# Elastic Compliance Matrix: (Units=1/GPa)
#
#
# Indices 1 2 3 4 5 6 
#
# 1 0.028186 -0.005637 -0.005363 0.000000 0.000000 0.000000
# 2 -0.005637 0.019165 -0.004898 0.000000 0.000000 0.000000
# 3 -0.005363 -0.004898 0.007442 0.000000 0.000000 0.000000
# 4 0.000000 0.000000 0.000000 0.027362 0.000000 0.000000
# 5 0.000000 0.000000 0.000000 0.000000 0.040296 0.000000
# 6 0.000000 0.000000 0.000000 0.000000 0.000000 -1.076246
#
#
# Mechanical properties :
#
#
# Convention : Reuss Voigt Hill
#
# Bulk Modulus (GPa) = 43.48498 75.80360 59.64429
# Shear Modulus (GPa) = -5.46847 25.09992 9.81573
#
# Velocity S-wave (km/s) = -1.68773 3.61582 2.26117
# Velocity P-wave (km/s) = 4.34198 7.54435 6.15508
#
# Compressibility (1/GPa) = 0.02299645
#
# Stress axis : x y z
#
# Youngs Moduli (GPa) = 35.47836 52.17930 134.37291
#
# Poissons Ratio (x) = 0.29415 0.72067
# Poissons Ratio (y) = 0.20000 0.65812
# Poissons Ratio (z) = 0.19028 0.25556
#
# Static dielectric constant tensor:
#      x y z
#    x 1.649740 0.000000 0.000000 
#    y 0.000000 1.696350 0.000000 
#    z 0.000000 0.000000 1.672170 
# 
# From -- ./inp_files/51750.got.cif
#   From: 2010.05.17/outbox.cif.g08.bks.cpg/sg64_26_cif.got.tgz:51750.got - 2010.06.03 16:29:19.
