data_PCOD9477523
_publ_section_title
;
Structure prediction by ZEFSAII (Michael W. Deem and Ramdas Pophale) SiO2 
 PCOD9477523
Probable space group: C M C A
;
_chemical_formula_sum "Si O2"
_cell_formula_units_Z 72
_cell_length_a 20.442269
_cell_length_b 9.581577
_cell_length_c 18.769194
_cell_angle_alpha 90.000000
_cell_angle_beta 90.000000
_cell_angle_gamma 90.000000
_cell_volume 3676.306534
_symmetry_space_group_name_H-M "C M C A"
_symmetry_group_IT_number 64
_symmetry_cell_setting 'orthorhombic'
loop_
_space_group_symop_operation_xyz
x,y,z
-x,1/2-y,1/2+z
x,-y,-z
-x,1/2+y,1/2-z
-x,-y,-z
x,1/2+y,1/2-z
-x,y,z
x,1/2-y,1/2+z
1/2+x,1/2+y,z
1/2-x,-y,1/2+z
1/2+x,1/2-y,-z
1/2-x,y,1/2-z
1/2-x,1/2-y,-z
1/2+x,y,1/2-z
1/2-x,1/2+y,z
1/2+x,-y,1/2+z
loop_
_atom_site_type_symbol
_atom_site_label
_atom_site_fract_x
_atom_site_fract_y
_atom_site_fract_z
Si Si1 0.247956 0.838892 0.910708
Si Si2 0.207820 0.416953 0.180913
Si Si3 0.388094 0.797611 0.972743
Si Si4 0.426413 0.052663 0.880032
Si Si5 0.860058 0.500000 0.500000
O O1 0.228491 0.689248 0.881188
O O2 0.310014 0.825427 0.963122
O O3 0.272240 0.929443 0.844080
O O4 0.187803 0.923566 0.943986
O O5 0.250000 0.381396 0.250000
O O6 0.128918 0.416171 0.178853
O O7 0.419164 0.895500 0.911870
O O8 0.411896 0.853565 0.049340
O O9 0.398790 0.631463 0.967298
O O10 0.500000 0.076685 0.855553
#
# Coordination Sequence:
#
# PCOD9477523 Si02
#       5
#    16  16  16  16   8
#     4  11  20  34  55  91 124 147 196 259 308 343
#     4  11  22  37  60  86 117 160 207 252 291 350
#     4  10  19  32  58  89 123 154 189 245 306 360
#     4  10  21  39  59  85 120 162 198 237 304 374
#     4  12  18  30  55  92 125 148 188 258 312 340
#
# _framework density 19.584873999999999
#
# number of rings (size 3 to 8) (size 9 to 14) (size 15 to 20)
#    0.000    1.333    4.444    5.333    0.000    0.000 
#    0.000    2.222    0.000   13.333    0.000    0.000 
#    0.000    0.000    0.000    0.000    0.000    0.000 
#
# Total GULP energy -200859.930772 kJ/mol
# GULP energy per Si atom -5579.442521 kJ/mol
# Density = 1.954030 g / cm^3
# Si number density = 19.584874 Si / 1000 Ang^3
#
#
#
# Elastic Constant Matrix: (Units=GPa)
#
#
# Indices 1 2 3 4 5 6 
#
# 1 130.9555 15.4337 39.7803 0.0000 0.0000 0.0000
# 2 15.4337 113.1411 6.8984 0.0000 0.0000 0.0000
# 3 39.7803 6.8984 69.8173 0.0000 0.0000 0.0000
# 4 0.0000 0.0000 0.0000 19.9755 0.0000 0.0000
# 5 0.0000 0.0000 0.0000 0.0000 17.3140 0.0000
# 6 0.0000 0.0000 0.0000 0.0000 0.0000 10.4963
#
#
#
# Elastic Compliance Matrix: (Units=1/GPa)
#
#
# Indices 1 2 3 4 5 6 
#
# 1 0.009336 -0.000955 -0.005225 0.000000 0.000000 0.000000
# 2 -0.000955 0.008990 -0.000344 0.000000 0.000000 0.000000
# 3 -0.005225 -0.000344 0.017334 0.000000 0.000000 0.000000
# 4 0.000000 0.000000 0.000000 0.050061 0.000000 0.000000
# 5 0.000000 0.000000 0.000000 0.000000 0.057757 0.000000
# 6 0.000000 0.000000 0.000000 0.000000 0.000000 0.095272
#
#
# Mechanical properties :
#
#
# Convention : Reuss Voigt Hill
#
# Bulk Modulus (GPa) = 44.22498 48.68208 46.45353
# Shear Modulus (GPa) = 19.28006 26.34392 22.81199
#
# Velocity S-wave (km/s) = 3.14098 3.67156 3.41658
# Velocity P-wave (km/s) = 5.98202 6.54864 6.27173
#
# Compressibility (1/GPa) = 0.02261166
#
# Stress axis : x y z
#
# Youngs Moduli (GPa) = 107.11294 111.23751 57.68934
#
# Poissons Ratio (x) = 0.10623 0.30143
# Poissons Ratio (y) = 0.10229 0.01985
# Poissons Ratio (z) = 0.55967 0.03828
#
# Static dielectric constant tensor:
#      x y z
#    x 1.718480 0.000000 0.000000 
#    y 0.000000 1.717540 0.000000 
#    z 0.000000 0.000000 1.704740 
# 
# From -- ./inp_files/40701.got.cif
#   From: 2010.05.17/outbox.cif.g08.bks.cpg/sg64_21_cif.got.tgz:40701.got - 2010.06.03 16:29:19.
