data_PCOD9477534
_publ_section_title
;
Structure prediction by ZEFSAII (Michael W. Deem and Ramdas Pophale) SiO2 
 PCOD9477534
Probable space group: C M C A
;
_chemical_formula_sum "Si O2"
_cell_formula_units_Z 80
_cell_length_a 8.442404
_cell_length_b 19.621404
_cell_length_c 27.098083
_cell_angle_alpha 90.000000
_cell_angle_beta 90.000000
_cell_angle_gamma 90.000000
_cell_volume 4488.846757
_symmetry_space_group_name_H-M "C M C A"
_symmetry_group_IT_number 64
_symmetry_cell_setting 'orthorhombic'
loop_
_space_group_symop_operation_xyz
x,y,z
-x,1/2-y,1/2+z
x,-y,-z
-x,1/2+y,1/2-z
-x,-y,-z
x,1/2+y,1/2-z
-x,y,z
x,1/2-y,1/2+z
1/2+x,1/2+y,z
1/2-x,-y,1/2+z
1/2+x,1/2-y,-z
1/2-x,y,1/2-z
1/2-x,1/2-y,-z
1/2+x,y,1/2-z
1/2-x,1/2+y,z
1/2+x,-y,1/2+z
loop_
_atom_site_type_symbol
_atom_site_label
_atom_site_fract_x
_atom_site_fract_y
_atom_site_fract_z
Si Si1 0.809698 0.076779 0.196301
Si Si2 0.306969 0.828984 0.606492
Si Si3 0.190227 0.577356 0.803654
Si Si4 0.190892 0.328942 0.105888
Si Si5 0.310359 0.672058 0.998484
O O1 0.750000 0.100010 0.250000
O O2 0.753177 0.125047 0.151930
O O3 0.000000 0.076419 0.196848
O O4 0.750661 0.999608 0.189040
O O5 0.500000 0.828458 0.607508
O O6 0.255586 0.749961 0.610915
O O7 0.260763 0.856457 0.552092
O O8 0.250000 0.600797 0.750000
O O9 0.244760 0.625688 0.848172
O O10 0.000000 0.576528 0.802926
O O11 0.245427 0.357017 0.052712
O O12 0.000000 0.328048 0.105817
O O13 0.500000 0.671584 0.996381
O O14 0.250000 0.750000 0.000000
#
# Coordination Sequence:
#
# PCOD9477534 Si02
#       5
#    16  16  16  16  16
#     4  10  19  33  51  69  94 126 159 195 236 284
#     4   8  16  31  50  71  95 124 156 193 235 278
#     4  10  20  34  51  70  96 128 160 197 240 286
#     4   9  18  33  51  72  98 126 159 199 239 280
#     4   9  16  29  49  72  98 127 159 194 238 287
#
# _framework density 17.821950000000001
#
# number of rings (size 3 to 8) (size 9 to 14) (size 15 to 20)
#    0.000    2.800    0.000    4.200    0.000    2.400 
#    0.000   11.000    0.000    6.000    0.000    0.000 
#    0.000    0.000    0.000    0.000    0.000    0.000 
#
# Total GULP energy -222839.164976 kJ/mol
# GULP energy per Si atom -5570.979124 kJ/mol
# Density = 1.778139 g / cm^3
# Si number density = 17.821950 Si / 1000 Ang^3
#
#
#
# Elastic Constant Matrix: (Units=GPa)
#
#
# Indices 1 2 3 4 5 6 
#
# 1 28.3034 13.0999 27.7833 0.0000 0.0000 0.0000
# 2 13.0999 52.0516 87.7292 0.0000 0.0000 0.0000
# 3 27.7833 87.7292 228.1929 0.0000 0.0000 0.0000
# 4 0.0000 0.0000 0.0000 89.1823 0.0000 0.0000
# 5 0.0000 0.0000 0.0000 0.0000 29.4504 0.0000
# 6 0.0000 0.0000 0.0000 0.0000 0.0000 14.4601
#
#
#
# Elastic Compliance Matrix: (Units=1/GPa)
#
#
# Indices 1 2 3 4 5 6 
#
# 1 0.040648 -0.005365 -0.002886 0.000000 0.000000 0.000000
# 2 -0.005365 0.055281 -0.020600 0.000000 0.000000 0.000000
# 3 -0.002886 -0.020600 0.012653 0.000000 0.000000 0.000000
# 4 0.000000 0.000000 0.000000 0.011213 0.000000 0.000000
# 5 0.000000 0.000000 0.000000 0.000000 0.033955 0.000000
# 6 0.000000 0.000000 0.000000 0.000000 0.000000 0.069156
#
#
# Mechanical properties :
#
#
# Convention : Reuss Voigt Hill
#
# Bulk Modulus (GPa) = 19.65405 62.86364 41.25885
# Shear Modulus (GPa) = 16.80279 38.61425 27.70852
#
# Velocity S-wave (km/s) = 3.07386 4.65980 3.94730
# Velocity P-wave (km/s) = 4.86314 8.01881 6.63142
#
# Compressibility (1/GPa) = 0.05088010
#
# Stress axis : x y z
#
# Youngs Moduli (GPa) = 24.60147 18.08927 79.03056
#
# Poissons Ratio (x) = 0.09705 0.22812
# Poissons Ratio (y) = 0.13199 1.62802
# Poissons Ratio (z) = 0.07101 0.37264
#
# Static dielectric constant tensor:
#      x y z
#    x 1.614440 0.000000 0.000000 
#    y 0.000000 1.583310 0.000000 
#    z 0.000000 0.000000 1.643810 
# 
# From -- ./inp_files/47849.got.cif
#   From: 2010.05.17/outbox.cif.g08.bks.cpg/sg64_24_cif.got.tgz:47849.got - 2010.06.03 16:29:19.
