data_PCOD9477275
_publ_section_title
;
Structure prediction by ZEFSAII (Michael W. Deem and Ramdas Pophale) SiO2 
 PCOD9477275
Probable space group: C M C A
;
_chemical_formula_sum "Si O2"
_cell_formula_units_Z 96
_cell_length_a 9.257269
_cell_length_b 33.569342
_cell_length_c 18.833102
_cell_angle_alpha 90.000000
_cell_angle_beta 90.000000
_cell_angle_gamma 90.000000
_cell_volume 5852.582858
_symmetry_space_group_name_H-M "C M C A"
_symmetry_group_IT_number 64
_symmetry_cell_setting 'orthorhombic'
loop_
_space_group_symop_operation_xyz
x,y,z
-x,1/2-y,1/2+z
x,-y,-z
-x,1/2+y,1/2-z
-x,-y,-z
x,1/2+y,1/2-z
-x,y,z
x,1/2-y,1/2+z
1/2+x,1/2+y,z
1/2-x,-y,1/2+z
1/2+x,1/2-y,-z
1/2-x,y,1/2-z
1/2-x,1/2-y,-z
1/2+x,y,1/2-z
1/2-x,1/2+y,z
1/2+x,-y,1/2+z
loop_
_atom_site_type_symbol
_atom_site_label
_atom_site_fract_x
_atom_site_fract_y
_atom_site_fract_z
Si Si1 0.172196 0.544454 0.523392
Si Si2 0.835060 0.349851 0.140848
Si Si3 0.166768 0.774211 0.103447
Si Si4 0.666783 0.802408 0.562529
Si Si5 0.335178 0.878273 0.976342
Si Si6 0.171126 0.928536 0.182608
O O1 0.211234 0.500000 0.500000
O O2 0.258035 0.579053 0.482497
O O3 0.198911 0.550043 0.607538
O O4 0.000000 0.550246 0.512094
O O5 0.757736 0.307297 0.145497
O O6 0.841167 0.361511 0.057248
O O7 0.738633 0.384551 0.174009
O O8 0.000000 0.349554 0.167565
O O9 0.243894 0.731492 0.103328
O O10 0.000000 0.772379 0.126082
O O11 0.166700 0.788751 0.020679
O O12 0.500000 0.803977 0.584973
O O13 0.743337 0.845261 0.565518
O O14 0.500000 0.881330 0.950855
O O15 0.250000 0.947677 0.250000
O O16 0.000000 0.926491 0.193866
#
# Coordination Sequence:
#
# PCOD9477275 Si02
#       6
#    16  16  16  16  16  16
#     4   9  18  32  48  65  87 117 151 187 231 283
#     4   9  16  26  39  56  80 110 143 176 212 256
#     4   9  15  22  33  51  76 106 140 175 209 245
#     4   9  15  22  33  50  75 108 142 174 209 250
#     4   9  16  25  38  57  81 109 141 178 220 265
#     4  10  19  31  47  66  89 117 149 185 225 271
#
# _framework density 16.403015
#
# number of rings (size 3 to 8) (size 9 to 14) (size 15 to 20)
#    0.000    2.833    0.000    2.500    0.000    9.000 
#    0.000    0.000    0.000    0.000    0.000    0.000 
#    0.000    1.333    0.000   11.333    0.000   17.500 
#
# Total GULP energy -267455.557485 kJ/mol
# GULP energy per Si atom -5571.990781 kJ/mol
# Density = 1.636568 g / cm^3
# Si number density = 16.403015 Si / 1000 Ang^3
#
#
#
# Elastic Constant Matrix: (Units=GPa)
#
#
# Indices 1 2 3 4 5 6 
#
# 1 130.6020 85.9664 28.4612 0.0000 0.0000 0.0000
# 2 85.9664 149.1382 29.9231 0.0000 0.0000 0.0000
# 3 28.4612 29.9231 27.4037 0.0000 0.0000 0.0000
# 4 0.0000 0.0000 0.0000 5.9576 0.0000 0.0000
# 5 0.0000 0.0000 0.0000 0.0000 13.4928 0.0000
# 6 0.0000 0.0000 0.0000 0.0000 0.0000 25.7937
#
#
#
# Elastic Compliance Matrix: (Units=1/GPa)
#
#
# Indices 1 2 3 4 5 6 
#
# 1 0.013302 -0.006269 -0.006970 0.000000 0.000000 0.000000
# 2 -0.006269 0.011541 -0.006091 0.000000 0.000000 0.000000
# 3 -0.006970 -0.006091 0.050381 0.000000 0.000000 0.000000
# 4 0.000000 0.000000 0.000000 0.167854 0.000000 0.000000
# 5 0.000000 0.000000 0.000000 0.000000 0.074113 0.000000
# 6 0.000000 0.000000 0.000000 0.000000 0.000000 0.038769
#
#
# Mechanical properties :
#
#
# Convention : Reuss Voigt Hill
#
# Bulk Modulus (GPa) = 27.34904 66.20502 46.77703
# Shear Modulus (GPa) = 12.29075 19.90171 16.09623
#
# Velocity S-wave (km/s) = 2.74030 3.48702 3.13596
# Velocity P-wave (km/s) = 5.16930 7.52738 6.45690
#
# Compressibility (1/GPa) = 0.03656435
#
# Stress axis : x y z
#
# Youngs Moduli (GPa) = 75.17406 86.64736 19.84863
#
# Poissons Ratio (x) = 0.54322 0.13835
# Poissons Ratio (y) = 0.47129 0.12089
# Poissons Ratio (z) = 0.52397 0.52775
#
# Static dielectric constant tensor:
#      x y z
#    x 1.555810 0.000000 0.000000 
#    y 0.000000 1.530910 0.000000 
#    z 0.000000 0.000000 1.569790 
# 
# From -- ./inp_files/48368.got.cif
#   From: 2010.05.17/outbox.cif.g08.bks.cpg/sg64_25_cif.got.tgz:48368.got - 2010.06.03 16:29:19.
