data_PCOD9477196
_publ_section_title
;
Structure prediction by ZEFSAII (Michael W. Deem and Ramdas Pophale) SiO2 
 PCOD9477196
Probable space group: C M C A
;
_chemical_formula_sum "Si O2"
_cell_formula_units_Z 96
_cell_length_a 7.928141
_cell_length_b 24.906151
_cell_length_c 27.119847
_cell_angle_alpha 90.000000
_cell_angle_beta 90.000000
_cell_angle_gamma 90.000000
_cell_volume 5355.070802
_symmetry_space_group_name_H-M "C M C A"
_symmetry_group_IT_number 64
_symmetry_cell_setting 'orthorhombic'
loop_
_space_group_symop_operation_xyz
x,y,z
-x,1/2-y,1/2+z
x,-y,-z
-x,1/2+y,1/2-z
-x,-y,-z
x,1/2+y,1/2-z
-x,y,z
x,1/2-y,1/2+z
1/2+x,1/2+y,z
1/2-x,-y,1/2+z
1/2+x,1/2-y,-z
1/2-x,y,1/2-z
1/2-x,1/2-y,-z
1/2+x,y,1/2-z
1/2-x,1/2+y,z
1/2+x,-y,1/2+z
loop_
_atom_site_type_symbol
_atom_site_label
_atom_site_fract_x
_atom_site_fract_y
_atom_site_fract_z
Si Si1 0.794428 0.507089 0.880975
Si Si2 0.796142 0.579683 0.039436
Si Si3 0.195857 0.331205 0.615905
Si Si4 0.704526 0.768144 0.055657
Si Si5 0.705798 0.110118 0.930178
Si Si6 0.698166 0.582152 0.306475
O O1 0.753435 0.474029 0.930833
O O2 0.736963 0.568345 0.888152
O O3 0.729279 0.469342 0.836594
O O4 0.000000 0.508571 0.877961
O O5 0.717853 0.628430 0.069980
O O6 0.000000 0.585217 0.042026
O O7 0.747479 0.584409 0.982885
O O8 0.268232 0.275179 0.595712
O O9 0.267391 0.363899 0.662246
O O10 0.000000 0.322801 0.626643
O O11 0.500000 0.768029 0.057326
O O12 0.763534 0.828281 0.068504
O O13 0.750000 0.750000 0.000000
O O14 0.500000 0.111661 0.928314
O O15 0.500000 0.574371 0.307130
O O16 0.750000 0.585614 0.250000
#
# Coordination Sequence:
#
# PCOD9477196 Si02
#       6
#    16  16  16  16  16  16
#     4   8  15  26  44  71  94 117 155 197 236 282
#     4   9  15  25  44  67  93 127 163 197 230 271
#     4  10  19  30  45  70 101 130 163 199 236 280
#     4  10  19  29  45  68  98 136 171 200 230 272
#     4   9  15  25  43  67  96 129 164 195 228 274
#     4  10  20  35  56  76  92 116 152 200 253 296
#
# _framework density 17.926935
#
# number of rings (size 3 to 8) (size 9 to 14) (size 15 to 20)
#    0.000    2.667    1.667    2.500    0.000    2.667 
#    0.000    0.000    0.000   15.000    0.000    2.333 
#    0.000    0.000    0.000    0.000    0.000    0.000 
#
# Total GULP energy -267353.948501 kJ/mol
# GULP energy per Si atom -5569.873927 kJ/mol
# Density = 1.788613 g / cm^3
# Si number density = 17.926935 Si / 1000 Ang^3
#
#
#
# Elastic Constant Matrix: (Units=GPa)
#
#
# Indices 1 2 3 4 5 6 
#
# 1 14.7879 10.2726 10.2330 0.0000 0.0000 0.0000
# 2 10.2726 154.5054 80.4365 0.0000 0.0000 0.0000
# 3 10.2330 80.4365 119.8049 0.0000 0.0000 0.0000
# 4 0.0000 0.0000 0.0000 4.3206 0.0000 0.0000
# 5 0.0000 0.0000 0.0000 0.0000 15.5692 0.0000
# 6 0.0000 0.0000 0.0000 0.0000 0.0000 12.3372
#
#
#
# Elastic Compliance Matrix: (Units=1/GPa)
#
#
# Indices 1 2 3 4 5 6 
#
# 1 0.072471 -0.002453 -0.004543 0.000000 0.000000 0.000000
# 2 -0.002453 0.010033 -0.006527 0.000000 0.000000 0.000000
# 3 -0.004543 -0.006527 0.013117 0.000000 0.000000 0.000000
# 4 0.000000 0.000000 0.000000 0.231451 0.000000 0.000000
# 5 0.000000 0.000000 0.000000 0.000000 0.064230 0.000000
# 6 0.000000 0.000000 0.000000 0.000000 0.000000 0.081055
#
#
# Mechanical properties :
#
#
# Convention : Reuss Voigt Hill
#
# Bulk Modulus (GPa) = 14.58252 54.55358 34.56805
# Shear Modulus (GPa) = 9.57375 18.98913 14.28144
#
# Velocity S-wave (km/s) = 2.31344 3.25814 2.82556
# Velocity P-wave (km/s) = 3.91000 6.68215 5.47445
#
# Compressibility (1/GPa) = 0.06857527
#
# Stress axis : x y z
#
# Youngs Moduli (GPa) = 13.79864 99.66875 76.23727
#
# Poissons Ratio (x) = 0.24452 0.34633
# Poissons Ratio (y) = 0.03385 0.49758
# Poissons Ratio (z) = 0.06268 0.65051
#
# Static dielectric constant tensor:
#      x y z
#    x 1.644980 0.000000 0.000000 
#    y 0.000000 1.663770 0.000000 
#    z 0.000000 0.000000 1.744670 
# 
# From -- ./inp_files/48358.got.cif
#   From: 2010.05.17/outbox.cif.g08.bks.cpg/sg64_25_cif.got.tgz:48358.got - 2010.06.03 16:29:19.
