data_PCOD9477944
_publ_section_title
;
Structure prediction by ZEFSAII (Michael W. Deem and Ramdas Pophale) SiO2 
 PCOD9477944
Probable space group: C M C A
;
_chemical_formula_sum "Si O2"
_cell_formula_units_Z 104
_cell_length_a 27.988355
_cell_length_b 9.475422
_cell_length_c 20.154238
_cell_angle_alpha 90.000000
_cell_angle_beta 90.000000
_cell_angle_gamma 90.000000
_cell_volume 5344.933639
_symmetry_space_group_name_H-M "C M C A"
_symmetry_group_IT_number 64
_symmetry_cell_setting 'orthorhombic'
loop_
_space_group_symop_operation_xyz
x,y,z
-x,1/2-y,1/2+z
x,-y,-z
-x,1/2+y,1/2-z
-x,-y,-z
x,1/2+y,1/2-z
-x,y,z
x,1/2-y,1/2+z
1/2+x,1/2+y,z
1/2-x,-y,1/2+z
1/2+x,1/2-y,-z
1/2-x,y,1/2-z
1/2-x,1/2-y,-z
1/2+x,y,1/2-z
1/2-x,1/2+y,z
1/2+x,-y,1/2+z
loop_
_atom_site_type_symbol
_atom_site_label
_atom_site_fract_x
_atom_site_fract_y
_atom_site_fract_z
Si Si1 0.688410 0.395038 0.695333
Si Si2 0.556459 0.286668 0.041641
Si Si3 0.592300 0.615364 0.237360
Si Si4 0.444568 0.647079 0.818605
Si Si5 0.123707 0.525932 0.071316
Si Si6 0.750000 0.848398 0.250000
Si Si7 0.556731 0.738638 0.604070
O O1 0.648001 0.362087 0.750552
O O2 0.659879 0.417655 0.626894
O O3 0.723624 0.260499 0.699715
O O4 0.714473 0.541755 0.713602
O O5 0.500000 0.264686 0.051075
O O6 0.571484 0.376868 0.105733
O O7 0.584493 0.142334 0.052114
O O8 0.562567 0.326814 0.964866
O O9 0.564645 0.692456 0.296929
O O10 0.583620 0.449067 0.232904
O O11 0.570883 0.676702 0.169557
O O12 0.500000 0.611333 0.812353
O O13 0.093299 0.392085 0.097237
O O14 0.148768 0.500000 0.000000
O O15 0.500000 0.698976 0.607536
#
# Coordination Sequence:
#
# PCOD9477944 Si02
#       7
#    16  16  16  16  16   8  16
#     4  11  22  41  62  89 112 145 192 245 310 370
#     4   9  19  34  53  80 124 171 203 229 275 334
#     4  12  23  36  59  85 117 151 202 247 287 341
#     4  11  22  35  52  83 122 162 197 240 283 327
#     4  10  19  35  61  88 119 159 199 239 281 349
#     4  10  24  42  66  84 112 144 178 250 326 378
#     4  10  20  34  53  85 126 169 205 236 273 326
#
# _framework density 19.457677
#
# number of rings (size 3 to 8) (size 9 to 14) (size 15 to 20)
#    0.000    1.538    1.538    4.615    0.000    2.462 
#    0.000    3.077    0.000    0.000    0.000    0.000 
#    0.000    0.000    0.000    0.000    0.000    0.000 
#
# Total GULP energy -290012.764673 kJ/mol
# GULP energy per Si atom -5577.168551 kJ/mol
# Density = 1.941339 g / cm^3
# Si number density = 19.457677 Si / 1000 Ang^3
#
#
#
# Elastic Constant Matrix: (Units=GPa)
#
#
# Indices 1 2 3 4 5 6 
#
# 1 44.2908 13.3753 32.5692 0.0000 0.0000 0.0000
# 2 13.3753 64.5313 28.3189 0.0000 0.0000 0.0000
# 3 32.5692 28.3189 133.0028 0.0000 0.0000 0.0000
# 4 0.0000 0.0000 0.0000 27.1677 0.0000 0.0000
# 5 0.0000 0.0000 0.0000 0.0000 27.5450 0.0000
# 6 0.0000 0.0000 0.0000 0.0000 0.0000 23.8188
#
#
#
# Elastic Compliance Matrix: (Units=1/GPa)
#
#
# Indices 1 2 3 4 5 6 
#
# 1 0.028085 -0.003092 -0.006219 0.000000 0.000000 0.000000
# 2 -0.003092 0.017434 -0.002955 0.000000 0.000000 0.000000
# 3 -0.006219 -0.002955 0.009671 0.000000 0.000000 0.000000
# 4 0.000000 0.000000 0.000000 0.036808 0.000000 0.000000
# 5 0.000000 0.000000 0.000000 0.000000 0.036304 0.000000
# 6 0.000000 0.000000 0.000000 0.000000 0.000000 0.041984
#
#
# Mechanical properties :
#
#
# Convention : Reuss Voigt Hill
#
# Bulk Modulus (GPa) = 32.61804 43.37241 37.99522
# Shear Modulus (GPa) = 24.38588 26.87708 25.63148
#
# Velocity S-wave (km/s) = 3.54401 3.72063 3.63339
# Velocity P-wave (km/s) = 5.79195 6.38721 6.09685
#
# Compressibility (1/GPa) = 0.03065788
#
# Stress axis : x y z
#
# Youngs Moduli (GPa) = 35.60629 57.35936 103.40548
#
# Poissons Ratio (x) = 0.17735 0.64308
# Poissons Ratio (y) = 0.11009 0.30555
# Poissons Ratio (z) = 0.22143 0.16949
#
# Static dielectric constant tensor:
#      x y z
#    x 1.651090 0.000000 0.000000 
#    y 0.000000 1.746560 0.000000 
#    z 0.000000 0.000000 1.740420 
# 
# From -- ./inp_files/42088.got.cif
#   From: 2010.05.17/outbox.cif.g08.bks.cpg/sg64_22_cif.got.tgz:42088.got - 2010.06.03 16:29:19.
