data_PCOD9477201
_publ_section_title
;
Structure prediction by ZEFSAII (Michael W. Deem and Ramdas Pophale) SiO2 
 PCOD9477201
Probable space group: C M C A
;
_chemical_formula_sum "Si O2"
_cell_formula_units_Z 80
_cell_length_a 11.756424
_cell_length_b 7.368421
_cell_length_c 28.936610
_cell_angle_alpha 90.000000
_cell_angle_beta 90.000000
_cell_angle_gamma 90.000000
_cell_volume 2506.670923
_symmetry_space_group_name_H-M "C M C A"
_symmetry_group_IT_number 64
_symmetry_cell_setting 'orthorhombic'
loop_
_space_group_symop_operation_xyz
x,y,z
-x,1/2-y,1/2+z
x,-y,-z
-x,1/2+y,1/2-z
-x,-y,-z
x,1/2+y,1/2-z
-x,y,z
x,1/2-y,1/2+z
1/2+x,1/2+y,z
1/2-x,-y,1/2+z
1/2+x,1/2-y,-z
1/2-x,y,1/2-z
1/2-x,1/2-y,-z
1/2+x,y,1/2-z
1/2-x,1/2+y,z
1/2+x,-y,1/2+z
loop_
_atom_site_type_symbol
_atom_site_label
_atom_site_fract_x
_atom_site_fract_y
_atom_site_fract_z
Si Si1 0.500000 0.638855 0.303275
Si Si2 0.302401 0.500000 0.000000
Si Si3 0.751872 0.085233 0.897955
Si Si4 0.000000 0.763940 0.975948
Si Si5 0.500000 0.635751 0.202565
Si Si6 0.000000 0.925245 0.105468
Si Si7 0.751179 0.864554 0.801107
Si Si8 0.000000 0.395035 0.105033
O O1 0.500000 0.541725 0.252855
O O2 0.373839 0.728681 0.302241
O O3 0.500000 0.525603 0.350770
O O4 0.246975 0.495273 0.949147
O O5 0.385139 0.322095 0.000842
O O6 0.753112 0.973054 0.849605
O O7 0.630057 0.182650 0.893845
O O8 0.878508 0.173260 0.898823
O O9 0.000000 0.571143 0.950595
O O10 0.000000 0.919074 0.934006
O O11 0.500000 0.517550 0.155985
O O12 0.375814 0.730543 0.200565
O O13 0.750000 0.958018 0.750000
#
# Coordination Sequence:
#
# PCOD9477201 Si02
#       8
#     8   8  16   8   8   8  16   8
#     4   8  14  23  36  64  94 111 138 193 236 261
#     4   9  18  33  48  64  94 132 162 194 236 290
#     4   9  17  29  47  70  96 124 159 196 239 285
#     4   9  18  32  49  68  96 124 158 202 240 276
#     4   8  12  21  41  65  83 112 156 186 212 268
#     4   8  15  30  50  69  90 128 165 190 227 285
#     4   8  13  22  38  63  89 112 145 190 227 266
#     4  10  19  29  46  74  97 118 153 203 247 277
#
# _framework density 31.914839000000001
#
# number of rings (size 3 to 8) (size 9 to 14) (size 15 to 20)
#    0.000    3.400    0.000    0.600    0.000    1.200 
#    0.000    0.000    0.000    4.800    0.000  266.000 
#    0.000    9.600    0.000    0.000    0.000    0.000 
#
# Total GULP energy -222739.646853 kJ/mol
# GULP energy per Si atom -5568.491171 kJ/mol
# Density = 3.184220 g / cm^3
# Si number density = 31.914839 Si / 1000 Ang^3
#
#
#
# Elastic Constant Matrix: (Units=GPa)
#
#
# Indices 1 2 3 4 5 6 
#
# 1 426.6831 68.3233 42.0205 0.0000 0.0000 0.0000
# 2 68.3233 52.8081 71.3005 0.0000 0.0000 0.0000
# 3 42.0205 71.3005 369.7044 0.0000 0.0000 0.0000
# 4 0.0000 0.0000 0.0000 74.7805 0.0000 0.0000
# 5 0.0000 0.0000 0.0000 0.0000 57.0877 0.0000
# 6 0.0000 0.0000 0.0000 0.0000 0.0000 44.1228
#
#
#
# Elastic Compliance Matrix: (Units=1/GPa)
#
#
# Indices 1 2 3 4 5 6 
#
# 1 0.003039 -0.004686 0.000558 0.000000 0.000000 0.000000
# 2 -0.004686 0.032828 -0.005799 0.000000 0.000000 0.000000
# 3 0.000558 -0.005799 0.003760 0.000000 0.000000 0.000000
# 4 0.000000 0.000000 0.000000 0.013372 0.000000 0.000000
# 5 0.000000 0.000000 0.000000 0.000000 0.017517 0.000000
# 6 0.000000 0.000000 0.000000 0.000000 0.000000 0.022664
#
#
# Mechanical properties :
#
#
# Convention : Reuss Voigt Hill
#
# Bulk Modulus (GPa) = 50.56965 134.72048 92.64506
# Shear Modulus (GPa) = 41.79797 79.70161 60.74979
#
# Velocity S-wave (km/s) = 3.62287 5.00274 4.36764
# Velocity P-wave (km/s) = 5.77752 8.69908 7.38423
#
# Compressibility (1/GPa) = 0.01977471
#
# Stress axis : x y z
#
# Youngs Moduli (GPa) = 329.05976 30.46208 265.97803
#
# Poissons Ratio (x) = 0.14273 -0.14848
# Poissons Ratio (y) = 1.54182 1.54228
# Poissons Ratio (z) = -0.18369 0.17664
#
# Static dielectric constant tensor:
#      x y z
#    x 2.334620 0.000000 0.000000 
#    y 0.000000 2.660270 0.000000 
#    z 0.000000 0.000000 2.440340 
# 
# From -- ./inp_files/44027.got.cif
#   From: 2010.05.17/outbox.cif.g08.bks.cpg/sg64_23_cif.got.tgz:44027.got - 2010.06.03 16:29:19.
