data_PCOD9477388
_publ_section_title
;
Structure prediction by ZEFSAII (Michael W. Deem and Ramdas Pophale) SiO2 
 PCOD9477388
Probable space group: C M C A
;
_chemical_formula_sum "Si O2"
_cell_formula_units_Z 96
_cell_length_a 22.184086
_cell_length_b 21.246776
_cell_length_c 11.746242
_cell_angle_alpha 90.000000
_cell_angle_beta 90.000000
_cell_angle_gamma 90.000000
_cell_volume 5536.477299
_symmetry_space_group_name_H-M "C M C A"
_symmetry_group_IT_number 64
_symmetry_cell_setting 'orthorhombic'
loop_
_space_group_symop_operation_xyz
x,y,z
-x,1/2-y,1/2+z
x,-y,-z
-x,1/2+y,1/2-z
-x,-y,-z
x,1/2+y,1/2-z
-x,y,z
x,1/2-y,1/2+z
1/2+x,1/2+y,z
1/2-x,-y,1/2+z
1/2+x,1/2-y,-z
1/2-x,y,1/2-z
1/2-x,1/2-y,-z
1/2+x,y,1/2-z
1/2-x,1/2+y,z
1/2+x,-y,1/2+z
loop_
_atom_site_type_symbol
_atom_site_label
_atom_site_fract_x
_atom_site_fract_y
_atom_site_fract_z
Si Si1 0.226079 0.673245 0.122796
Si Si2 0.836919 0.204079 0.972648
Si Si3 0.929337 0.523108 0.840192
Si Si4 0.111261 0.902441 0.555039
Si Si5 0.066748 0.288847 0.081164
Si Si6 0.069315 0.632782 0.683252
O O1 0.250000 0.667337 0.250000
O O2 0.193579 0.741026 0.103897
O O3 0.176540 0.621319 0.091312
O O4 0.282306 0.670579 0.036840
O O5 0.880714 0.159494 0.900782
O O6 0.879672 0.239976 0.063259
O O7 0.915884 0.449330 0.850679
O O8 0.919317 0.561024 0.724019
O O9 0.000000 0.533358 0.869852
O O10 0.890610 0.557651 0.937854
O O11 0.073780 0.840296 0.520224
O O12 0.072080 0.325761 0.200421
O O13 0.000000 0.260488 0.075256
O O14 0.000000 0.637721 0.641181
#
# Coordination Sequence:
#
# PCOD9477388 Si02
#       6
#    16  16  16  16  16  16
#     4  10  21  34  47  66  96 133 169 199 231 282
#     4  10  19  32  49  68  98 133 161 197 242 287
#     4   9  16  30  53  77  98 119 154 205 250 286
#     4   9  16  29  48  71  95 125 162 202 242 276
#     4   9  16  27  47  74  99 125 163 205 241 287
#     4   9  17  29  49  77 102 124 155 198 250 299
#
# _framework density 17.339545999999999
#
# number of rings (size 3 to 8) (size 9 to 14) (size 15 to 20)
#    0.000    2.667    0.000    4.500    0.000    1.333 
#    0.000    3.333    0.000    5.000    0.000    2.333 
#    0.000    0.000    0.000    0.000    0.000    0.000 
#
# Total GULP energy -267345.373681 kJ/mol
# GULP energy per Si atom -5569.695285 kJ/mol
# Density = 1.730008 g / cm^3
# Si number density = 17.339546 Si / 1000 Ang^3
#
#
#
# Elastic Constant Matrix: (Units=GPa)
#
#
# Indices 1 2 3 4 5 6 
#
# 1 117.1495 36.4802 48.5963 0.0000 0.0000 0.0000
# 2 36.4802 46.1528 25.9177 0.0000 0.0000 0.0000
# 3 48.5963 25.9177 52.9298 0.0000 0.0000 0.0000
# 4 0.0000 0.0000 0.0000 20.0383 0.0000 0.0000
# 5 0.0000 0.0000 0.0000 0.0000 30.6348 0.0000
# 6 0.0000 0.0000 0.0000 0.0000 0.0000 31.0748
#
#
#
# Elastic Compliance Matrix: (Units=1/GPa)
#
#
# Indices 1 2 3 4 5 6 
#
# 1 0.014766 -0.005597 -0.010816 0.000000 0.000000 0.000000
# 2 -0.005597 0.032007 -0.010533 0.000000 0.000000 0.000000
# 3 -0.010816 -0.010533 0.033981 0.000000 0.000000 0.000000
# 4 0.000000 0.000000 0.000000 0.049904 0.000000 0.000000
# 5 0.000000 0.000000 0.000000 0.000000 0.032643 0.000000
# 6 0.000000 0.000000 0.000000 0.000000 0.000000 0.032180
#
#
# Mechanical properties :
#
#
# Convention : Reuss Voigt Hill
#
# Bulk Modulus (GPa) = 37.22993 48.69119 42.96056
# Shear Modulus (GPa) = 19.35521 23.36543 21.36032
#
# Velocity S-wave (km/s) = 3.34465 3.67484 3.51363
# Velocity P-wave (km/s) = 6.03600 6.79323 6.42578
#
# Compressibility (1/GPa) = 0.02686011
#
# Stress axis : x y z
#
# Youngs Moduli (GPa) = 67.72362 31.24358 29.42789
#
# Poissons Ratio (x) = 0.17488 0.31830
# Poissons Ratio (y) = 0.37907 0.30997
# Poissons Ratio (z) = 0.73251 0.32910
#
# Static dielectric constant tensor:
#      x y z
#    x 1.574260 0.000000 0.000000 
#    y 0.000000 1.616630 0.000000 
#    z 0.000000 0.000000 1.586320 
# 
# From -- ./inp_files/17336.got.cif
#   From: 2010.05.17/outbox.cif.g08.bks.cpg/sg64_9_cif.got.tgz:17336.got - 2010.06.03 16:29:19.
