data_PCOD9477776
_publ_section_title
;
Structure prediction by ZEFSAII (Michael W. Deem and Ramdas Pophale) SiO2 
 PCOD9477776
Probable space group: C M C A
;
_chemical_formula_sum "Si O2"
_cell_formula_units_Z 104
_cell_length_a 16.978214
_cell_length_b 17.168096
_cell_length_c 14.333999
_cell_angle_alpha 90.000000
_cell_angle_beta 90.000000
_cell_angle_gamma 90.000000
_cell_volume 4178.125744
_symmetry_space_group_name_H-M "C M C A"
_symmetry_group_IT_number 64
_symmetry_cell_setting 'orthorhombic'
loop_
_space_group_symop_operation_xyz
x,y,z
-x,1/2-y,1/2+z
x,-y,-z
-x,1/2+y,1/2-z
-x,-y,-z
x,1/2+y,1/2-z
-x,y,z
x,1/2-y,1/2+z
1/2+x,1/2+y,z
1/2-x,-y,1/2+z
1/2+x,1/2-y,-z
1/2-x,y,1/2-z
1/2-x,1/2-y,-z
1/2+x,y,1/2-z
1/2-x,1/2+y,z
1/2+x,-y,1/2+z
loop_
_atom_site_type_symbol
_atom_site_label
_atom_site_fract_x
_atom_site_fract_y
_atom_site_fract_z
Si Si1 0.808865 0.874753 0.617133
Si Si2 0.123592 0.428521 0.432159
Si Si3 0.000000 0.520983 0.336518
Si Si4 0.591409 0.179377 0.793976
Si Si5 0.636419 0.651528 0.169863
Si Si6 0.290228 0.542976 0.651118
Si Si7 0.589867 0.236741 0.580021
O O1 0.714850 0.869040 0.612350
O O2 0.835056 0.853779 0.722080
O O3 0.828771 0.965936 0.606344
O O4 0.852384 0.808098 0.557831
O O5 0.101326 0.500000 0.500000
O O6 0.069012 0.452819 0.345060
O O7 0.215391 0.429957 0.409208
O O8 0.097840 0.345464 0.472681
O O9 0.068326 0.588300 0.333624
O O10 0.500000 0.159171 0.807631
O O11 0.608671 0.260547 0.846806
O O12 0.606059 0.204015 0.685547
O O13 0.650220 0.112818 0.829073
O O14 0.250000 0.519081 0.750000
O O15 0.500000 0.264756 0.576790
#
# Coordination Sequence:
#
# PCOD9477776 Si02
#       7
#    16  16   8  16  16  16  16
#     4  10  20  34  54  87 120 158 201 258 313 368
#     4  12  25  41  63  92 125 164 211 262 320 381
#     4  12  21  38  64  84 122 163 208 257 301 380
#     4  10  21  34  59  95 122 158 204 257 317 367
#     4  10  19  34  56  87 124 152 200 260 313 361
#     4  12  21  39  62  89 125 166 209 258 313 377
#     4  10  21  36  58  88 128 163 201 257 318 367
#
# _framework density 24.891544
#
# number of rings (size 3 to 8) (size 9 to 14) (size 15 to 20)
#    0.000    1.231    6.154    1.154    3.231    0.615 
#    0.000    0.769    0.000    0.462    0.000    0.000 
#    0.000    0.000    0.000    0.000    0.000    0.000 
#
# Total GULP energy -290199.846033 kJ/mol
# GULP energy per Si atom -5580.766270 kJ/mol
# Density = 2.483489 g / cm^3
# Si number density = 24.891544 Si / 1000 Ang^3
#
#
#
# Elastic Constant Matrix: (Units=GPa)
#
#
# Indices 1 2 3 4 5 6 
#
# 1 163.6475 97.6865 11.0604 0.0000 0.0000 0.0000
# 2 97.6865 180.4942 16.4879 0.0000 0.0000 0.0000
# 3 11.0604 16.4879 50.0041 0.0000 0.0000 0.0000
# 4 0.0000 0.0000 0.0000 26.7147 0.0000 0.0000
# 5 0.0000 0.0000 0.0000 0.0000 -11.2628 0.0000
# 6 0.0000 0.0000 0.0000 0.0000 0.0000 46.8352
#
#
#
# Elastic Compliance Matrix: (Units=1/GPa)
#
#
# Indices 1 2 3 4 5 6 
#
# 1 0.009035 -0.004853 -0.000398 0.000000 0.000000 0.000000
# 2 -0.004853 0.008320 -0.001670 0.000000 0.000000 0.000000
# 3 -0.000398 -0.001670 0.020637 0.000000 0.000000 0.000000
# 4 0.000000 0.000000 0.000000 0.037433 0.000000 0.000000
# 5 0.000000 0.000000 0.000000 0.000000 -0.088788 0.000000
# 6 0.000000 0.000000 0.000000 0.000000 0.000000 0.021351
#
#
# Mechanical properties :
#
#
# Convention : Reuss Voigt Hill
#
# Bulk Modulus (GPa) = 41.40968 71.62394 56.51681
# Shear Modulus (GPa) = 167.33819 30.38481 98.86150
#
# Velocity S-wave (km/s) = 8.20810 3.49763 6.30897
# Velocity P-wave (km/s) = 10.32001 6.71923 8.70778
#
# Compressibility (1/GPa) = 0.02414894
#
# Stress axis : x y z
#
# Youngs Moduli (GPa) = 110.68376 120.19800 48.45676
#
# Poissons Ratio (x) = 0.58337 0.01929
# Poissons Ratio (y) = 0.53719 0.08091
# Poissons Ratio (z) = 0.04406 0.20069
#
# Static dielectric constant tensor:
#      x y z
#    x 1.871740 0.000000 0.000000 
#    y 0.000000 1.971680 0.000000 
#    z 0.000000 0.000000 2.173060 
# 
# From -- ./inp_files/45405.got.cif
#   From: 2010.05.17/outbox.cif.g08.bks.cpg/sg64_23_cif.got.tgz:45405.got - 2010.06.03 16:29:19.
