data_PCOD9477092
_publ_section_title
;
Structure prediction by ZEFSAII (Michael W. Deem and Ramdas Pophale) SiO2 
 PCOD9477092
Probable space group: C M C A
;
_chemical_formula_sum "Si O2"
_cell_formula_units_Z 96
_cell_length_a 16.077195
_cell_length_b 11.248548
_cell_length_c 23.921323
_cell_angle_alpha 90.000000
_cell_angle_beta 90.000000
_cell_angle_gamma 90.000000
_cell_volume 4326.054042
_symmetry_space_group_name_H-M "C M C A"
_symmetry_group_IT_number 64
_symmetry_cell_setting 'orthorhombic'
loop_
_space_group_symop_operation_xyz
x,y,z
-x,1/2-y,1/2+z
x,-y,-z
-x,1/2+y,1/2-z
-x,-y,-z
x,1/2+y,1/2-z
-x,y,z
x,1/2-y,1/2+z
1/2+x,1/2+y,z
1/2-x,-y,1/2+z
1/2+x,1/2-y,-z
1/2-x,y,1/2-z
1/2-x,1/2-y,-z
1/2+x,y,1/2-z
1/2-x,1/2+y,z
1/2+x,-y,1/2+z
loop_
_atom_site_type_symbol
_atom_site_label
_atom_site_fract_x
_atom_site_fract_y
_atom_site_fract_z
Si Si1 0.157355 0.060094 0.642808
Si Si2 0.344104 0.789584 0.044013
Si Si3 0.909586 0.314910 0.833787
Si Si4 0.654387 0.184752 0.565996
Si Si5 0.338475 0.948120 0.617231
Si Si6 0.162550 0.290909 0.719715
O O1 0.117616 0.114559 0.586299
O O2 0.171535 0.170587 0.684122
O O3 0.102554 0.955924 0.668062
O O4 0.246337 0.999749 0.629376
O O5 0.247770 0.834020 0.041754
O O6 0.340680 0.663410 0.075780
O O7 0.383570 0.763856 0.983836
O O8 0.843967 0.260424 0.877179
O O9 0.897690 0.268718 0.771512
O O10 0.000000 0.283071 0.856129
O O11 0.617933 0.058571 0.585627
O O12 0.366145 0.894494 0.677095
O O13 0.250000 0.323267 0.750000
#
# Coordination Sequence:
#
# PCOD9477092 Si02
#       6
#    16  16  16  16  16  16
#     4  10  21  37  58  87 120 156 200 253 306 357
#     4   9  18  35  63  90 118 148 200 258 301 344
#     4  12  26  41  57  87 129 166 203 246 312 375
#     4  10  20  35  58  92 122 154 195 250 302 357
#     4  10  18  35  62  93 119 147 200 260 302 344
#     4  11  22  37  62  88 117 161 210 258 298 355
#
# _framework density 22.191123999999999
#
# number of rings (size 3 to 8) (size 9 to 14) (size 15 to 20)
#    0.000    1.667    3.333    2.500    4.667    1.333 
#    0.000    1.667    0.000    4.000    0.000    0.000 
#    0.000    0.000    0.000    0.000    0.000    0.000 
#
# Total GULP energy -267662.411683 kJ/mol
# GULP energy per Si atom -5576.300243 kJ/mol
# Density = 2.214062 g / cm^3
# Si number density = 22.191124 Si / 1000 Ang^3
#
#
#
# Elastic Constant Matrix: (Units=GPa)
#
#
# Indices 1 2 3 4 5 6 
#
# 1 24.4593 -13.5825 -10.3454 0.0000 0.0000 0.0000
# 2 -13.5825 71.5170 15.0299 0.0000 0.0000 0.0000
# 3 -10.3454 15.0299 106.7245 0.0000 0.0000 0.0000
# 4 0.0000 0.0000 0.0000 28.4069 0.0000 0.0000
# 5 0.0000 0.0000 0.0000 0.0000 1.7170 0.0000
# 6 0.0000 0.0000 0.0000 0.0000 0.0000 -2.9003
#
#
#
# Elastic Compliance Matrix: (Units=1/GPa)
#
#
# Indices 1 2 3 4 5 6 
#
# 1 0.046865 0.008188 0.003390 0.000000 0.000000 0.000000
# 2 0.008188 0.015840 -0.001437 0.000000 0.000000 0.000000
# 3 0.003390 -0.001437 0.009901 0.000000 0.000000 0.000000
# 4 0.000000 0.000000 0.000000 0.035203 0.000000 0.000000
# 5 0.000000 0.000000 0.000000 0.000000 0.582423 0.000000
# 6 0.000000 0.000000 0.000000 0.000000 0.000000 -0.344797
#
#
# Mechanical properties :
#
#
# Convention : Reuss Voigt Hill
#
# Bulk Modulus (GPa) = 10.76569 20.54497 15.65533
# Shear Modulus (GPa) = 14.04041 19.55132 16.79586
#
# Velocity S-wave (km/s) = 2.51809 2.97146 2.75412
# Velocity P-wave (km/s) = 3.64914 4.58814 4.14531
#
# Compressibility (1/GPa) = 0.09288771
#
# Stress axis : x y z
#
# Youngs Moduli (GPa) = 21.33787 63.13220 101.00117
#
# Poissons Ratio (x) = -0.51694 -0.34237
# Poissons Ratio (y) = -0.17472 0.14514
# Poissons Ratio (z) = -0.07233 0.09072
#
# Static dielectric constant tensor:
#      x y z
#    x 1.884310 0.000000 0.000000 
#    y 0.000000 1.824860 0.000000 
#    z 0.000000 0.000000 1.857950 
# 
# From -- ./inp_files/45746.got.cif
#   From: 2010.05.17/outbox.cif.g08.bks.cpg/sg64_23_cif.got.tgz:45746.got - 2010.06.03 16:29:19.
