data_PCOD9477344
_publ_section_title
;
Structure prediction by ZEFSAII (Michael W. Deem and Ramdas Pophale) SiO2 
 PCOD9477344
Probable space group: C M C A
;
_chemical_formula_sum "Si O2"
_cell_formula_units_Z 96
_cell_length_a 21.914720
_cell_length_b 29.097794
_cell_length_c 7.389476
_cell_angle_alpha 90.000000
_cell_angle_beta 90.000000
_cell_angle_gamma 90.000000
_cell_volume 4712.047221
_symmetry_space_group_name_H-M "C M C A"
_symmetry_group_IT_number 64
_symmetry_cell_setting 'orthorhombic'
loop_
_space_group_symop_operation_xyz
x,y,z
-x,1/2-y,1/2+z
x,-y,-z
-x,1/2+y,1/2-z
-x,-y,-z
x,1/2+y,1/2-z
-x,y,z
x,1/2-y,1/2+z
1/2+x,1/2+y,z
1/2-x,-y,1/2+z
1/2+x,1/2-y,-z
1/2-x,y,1/2-z
1/2-x,1/2-y,-z
1/2+x,y,1/2-z
1/2-x,1/2+y,z
1/2+x,-y,1/2+z
loop_
_atom_site_type_symbol
_atom_site_label
_atom_site_fract_x
_atom_site_fract_y
_atom_site_fract_z
Si Si1 0.121442 0.156951 0.232686
Si Si2 0.000000 0.206621 0.194445
Si Si3 0.250000 0.834611 0.750000
Si Si4 0.000000 0.812671 0.231786
Si Si5 0.166847 0.000000 0.500000
Si Si6 0.931520 0.481435 0.298049
Si Si7 0.192746 0.602055 0.987429
Si Si8 0.607473 0.376679 0.179182
O O1 0.183580 0.188049 0.243250
O O2 0.137485 0.116086 0.373264
O O3 0.061093 0.185137 0.278987
O O4 0.115011 0.137300 0.029984
O O5 0.000000 0.261347 0.195815
O O6 0.000000 0.191642 0.985943
O O7 0.246292 0.868325 0.576038
O O8 0.938523 0.840602 0.272733
O O9 0.121485 0.000613 0.328886
O O10 0.203547 0.952341 0.491147
O O11 0.924897 0.500000 0.500000
O O12 0.923370 0.426601 0.306142
O O13 0.000000 0.493057 0.233654
O O14 0.169821 0.618642 0.792762
#
# Coordination Sequence:
#
# PCOD9477344 Si02
#       8
#    16   8   8   8   8  16  16  16
#     4   9  20  39  57  86 113 152 197 236 303 341
#     4  10  22  36  64  89 116 153 184 255 296 363
#     4   8  20  40  56  82 114 154 198 236 292 350
#     4  10  22  36  57  93 124 143 200 234 310 359
#     4  10  19  34  48  84 108 149 208 228 280 342
#     4  10  19  31  50  78 121 160 187 236 284 341
#     4   9  20  36  59  79 117 157 194 243 284 346
#     4  10  19  35  57  84 119 155 193 243 290 355
#
# _framework density 20.373311000000001
#
# number of rings (size 3 to 8) (size 9 to 14) (size 15 to 20)
#    1.000    1.500    0.833    1.250    2.333    0.667 
#    3.000    3.333    0.000    9.000    0.000    0.000 
#    0.000    0.000    0.000    0.000    0.000    0.000 
#
# Total GULP energy -267407.553391 kJ/mol
# GULP energy per Si atom -5570.990696 kJ/mol
# Density = 2.032694 g / cm^3
# Si number density = 20.373311 Si / 1000 Ang^3
#
#
#
# Elastic Constant Matrix: (Units=GPa)
#
#
# Indices 1 2 3 4 5 6 
#
# 1 83.6640 20.5469 -5.9406 0.0000 0.0000 0.0000
# 2 20.5469 75.6405 3.1679 0.0000 0.0000 0.0000
# 3 -5.9406 3.1679 70.4510 0.0000 0.0000 0.0000
# 4 0.0000 0.0000 0.0000 15.2706 0.0000 0.0000
# 5 0.0000 0.0000 0.0000 0.0000 10.1892 0.0000
# 6 0.0000 0.0000 0.0000 0.0000 0.0000 -7.6027
#
#
#
# Elastic Compliance Matrix: (Units=1/GPa)
#
#
# Indices 1 2 3 4 5 6 
#
# 1 0.012916 -0.003561 0.001249 0.000000 0.000000 0.000000
# 2 -0.003561 0.014227 -0.000940 0.000000 0.000000 0.000000
# 3 0.001249 -0.000940 0.014342 0.000000 0.000000 0.000000
# 4 0.000000 0.000000 0.000000 0.065485 0.000000 0.000000
# 5 0.000000 0.000000 0.000000 0.000000 0.098143 0.000000
# 6 0.000000 0.000000 0.000000 0.000000 0.000000 -0.131533
#
#
# Mechanical properties :
#
#
# Convention : Reuss Voigt Hill
#
# Bulk Modulus (GPa) = 28.58644 29.47820 29.03232
# Shear Modulus (GPa) = 54.49972 17.70352 36.10162
#
# Velocity S-wave (km/s) = 5.17770 2.95100 4.21409
# Velocity P-wave (km/s) = 7.05738 5.10996 6.16110
#
# Compressibility (1/GPa) = 0.03498162
#
# Stress axis : x y z
#
# Youngs Moduli (GPa) = 77.42489 70.28875 69.72588
#
# Poissons Ratio (x) = 0.25028 -0.08710
# Poissons Ratio (y) = 0.27569 0.06554
# Poissons Ratio (z) = -0.09672 0.06607
#
# Static dielectric constant tensor:
#      x y z
#    x 1.791680 0.000000 0.000000 
#    y 0.000000 1.778290 0.000000 
#    z 0.000000 0.000000 1.735300 
# 
# From -- ./inp_files/10567.got.cif
#   From: 2010.05.17/outbox.cif.g08.bks.cpg/sg64_6_cif.got.tgz:10567.got - 2010.06.03 16:29:19.
