data_PCOD9477450
_publ_section_title
;
Structure prediction by ZEFSAII (Michael W. Deem and Ramdas Pophale) SiO2 
 PCOD9477450
Probable space group: C M C A
;
_chemical_formula_sum "Si O2"
_cell_formula_units_Z 128
_cell_length_a 18.357491
_cell_length_b 24.284703
_cell_length_c 17.139938
_cell_angle_alpha 90.000000
_cell_angle_beta 90.000000
_cell_angle_gamma 90.000000
_cell_volume 7641.090915
_symmetry_space_group_name_H-M "C M C A"
_symmetry_group_IT_number 64
_symmetry_cell_setting 'orthorhombic'
loop_
_space_group_symop_operation_xyz
x,y,z
-x,1/2-y,1/2+z
x,-y,-z
-x,1/2+y,1/2-z
-x,-y,-z
x,1/2+y,1/2-z
-x,y,z
x,1/2-y,1/2+z
1/2+x,1/2+y,z
1/2-x,-y,1/2+z
1/2+x,1/2-y,-z
1/2-x,y,1/2-z
1/2-x,1/2-y,-z
1/2+x,y,1/2-z
1/2-x,1/2+y,z
1/2+x,-y,1/2+z
loop_
_atom_site_type_symbol
_atom_site_label
_atom_site_fract_x
_atom_site_fract_y
_atom_site_fract_z
Si Si1 0.790417 0.626741 0.599007
Si Si2 0.919282 0.745787 0.709971
Si Si3 0.916606 0.140856 0.204847
Si Si4 0.733874 0.255377 0.158294
Si Si5 0.308860 0.453774 0.321038
Si Si6 0.688249 0.080081 0.182125
Si Si7 0.705981 0.149673 0.418767
Si Si8 0.085254 0.380466 0.275149
O O1 0.754452 0.680883 0.638794
O O2 0.733764 0.577176 0.610262
O O3 0.804964 0.640617 0.509697
O O4 0.864427 0.614301 0.647343
O O5 0.915173 0.794469 0.772655
O O6 0.853021 0.753857 0.650616
O O7 0.909793 0.684695 0.745414
O O8 0.000000 0.747702 0.674130
O O9 0.880709 0.109472 0.278307
O O10 0.864645 0.131798 0.130970
O O11 0.000000 0.124371 0.192037
O O12 0.750000 0.244474 0.250000
O O13 0.776561 0.212649 0.105032
O O14 0.250000 0.453247 0.250000
O O15 0.326951 0.516904 0.338547
O O16 0.377143 0.418827 0.289476
O O17 0.750000 0.080613 0.250000
O O18 0.725227 0.114528 0.112979
O O19 0.000000 0.393381 0.287198
#
# Coordination Sequence:
#
# PCOD9477450 Si02
#       8
#    16  16  16  16  16  16  16  16
#     4  10  21  31  50  80 109 138 173 214 274 327
#     4   9  16  28  49  73  99 131 170 215 261 302
#     4  10  19  32  52  78 102 136 179 221 262 311
#     4  11  17  32  52  73 104 138 184 224 254 307
#     4   9  18  34  53  74  98 136 180 217 249 303
#     4   9  18  34  53  73 100 135 180 217 250 301
#     4  11  20  32  49  79 110 139 169 218 275 326
#     4   9  18  33  54  77 103 137 177 221 262 308
#
# _framework density 16.751535000000001
#
# number of rings (size 3 to 8) (size 9 to 14) (size 15 to 20)
#    0.000    2.250    2.500    2.625    0.000    1.500 
#    0.000    0.000    0.000    1.500    0.000    8.750 
#    0.000    0.000    0.000    0.000    0.000    0.000 
#
# Total GULP energy -356567.101501 kJ/mol
# GULP energy per Si atom -5571.360961 kJ/mol
# Density = 1.671341 g / cm^3
# Si number density = 16.751535 Si / 1000 Ang^3
#
#
#
# Elastic Constant Matrix: (Units=GPa)
#
#
# Indices 1 2 3 4 5 6 
#
# 1 110.5893 30.7835 17.6486 0.0000 0.0000 0.0000
# 2 30.7835 74.0639 7.2892 0.0000 0.0000 0.0000
# 3 17.6486 7.2892 35.9140 0.0000 0.0000 0.0000
# 4 0.0000 0.0000 0.0000 11.0500 0.0000 0.0000
# 5 0.0000 0.0000 0.0000 0.0000 13.6966 0.0000
# 6 0.0000 0.0000 0.0000 0.0000 0.0000 13.5636
#
#
#
# Elastic Compliance Matrix: (Units=1/GPa)
#
#
# Indices 1 2 3 4 5 6 
#
# 1 0.010902 -0.004086 -0.004528 0.000000 0.000000 0.000000
# 2 -0.004086 0.015308 -0.001099 0.000000 0.000000 0.000000
# 3 -0.004528 -0.001099 0.030293 0.000000 0.000000 0.000000
# 4 0.000000 0.000000 0.000000 0.090498 0.000000 0.000000
# 5 0.000000 0.000000 0.000000 0.000000 0.073011 0.000000
# 6 0.000000 0.000000 0.000000 0.000000 0.000000 0.073727
#
#
# Mechanical properties :
#
#
# Convention : Reuss Voigt Hill
#
# Bulk Modulus (GPa) = 26.97111 36.88998 31.93055
# Shear Modulus (GPa) = 15.35985 18.65178 17.00582
#
# Velocity S-wave (km/s) = 3.03136 3.34044 3.18964
# Velocity P-wave (km/s) = 5.32802 6.07846 5.71557
#
# Compressibility (1/GPa) = 0.03707670
#
# Stress axis : x y z
#
# Youngs Moduli (GPa) = 91.72266 65.32445 33.01131
#
# Poissons Ratio (x) = 0.26690 0.14949
# Poissons Ratio (y) = 0.37476 0.03629
# Poissons Ratio (z) = 0.41535 0.07180
#
# Static dielectric constant tensor:
#      x y z
#    x 1.586640 0.000000 0.000000 
#    y 0.000000 1.591030 0.000000 
#    z 0.000000 0.000000 1.538670 
# 
# From -- ./inp_files/34697.got.cif
#   From: 2010.05.17/outbox.cif.g08.bks.cpg/sg64_18_cif.got.tgz:34697.got - 2010.06.03 16:29:19.
