data_PCOD9477991
_publ_section_title
;
Structure prediction by ZEFSAII (Michael W. Deem and Ramdas Pophale) SiO2 
 PCOD9477991
Probable space group: C M C A
;
_chemical_formula_sum "Si O2"
_cell_formula_units_Z 112
_cell_length_a 28.083788
_cell_length_b 20.742796
_cell_length_c 10.388595
_cell_angle_alpha 90.000000
_cell_angle_beta 90.000000
_cell_angle_gamma 90.000000
_cell_volume 6051.733542
_symmetry_space_group_name_H-M "C M C A"
_symmetry_group_IT_number 64
_symmetry_cell_setting 'orthorhombic'
loop_
_space_group_symop_operation_xyz
x,y,z
-x,1/2-y,1/2+z
x,-y,-z
-x,1/2+y,1/2-z
-x,-y,-z
x,1/2+y,1/2-z
-x,y,z
x,1/2-y,1/2+z
1/2+x,1/2+y,z
1/2-x,-y,1/2+z
1/2+x,1/2-y,-z
1/2-x,y,1/2-z
1/2-x,1/2-y,-z
1/2+x,y,1/2-z
1/2-x,1/2+y,z
1/2+x,-y,1/2+z
loop_
_atom_site_type_symbol
_atom_site_label
_atom_site_fract_x
_atom_site_fract_y
_atom_site_fract_z
Si Si1 0.375005 0.808635 0.944852
Si Si2 0.610232 0.059132 0.903350
Si Si3 0.375690 0.168101 0.463336
Si Si4 0.945507 0.280821 0.742040
Si Si5 0.303588 0.359784 0.760531
Si Si6 0.710354 0.997248 0.151596
Si Si7 0.556254 0.865524 0.300285
O O1 0.426868 0.795342 0.884686
O O2 0.338376 0.817969 0.827819
O O3 0.378118 0.874914 0.021107
O O4 0.360816 0.742444 0.012628
O O5 0.660430 0.039454 0.840227
O O6 0.571082 0.077739 0.797158
O O7 0.597587 0.000000 0.000000
O O8 0.415880 0.175581 0.354518
O O9 0.329336 0.134993 0.399749
O O10 0.404022 0.138690 0.585578
O O11 0.938663 0.203720 0.727284
O O12 0.000000 0.295462 0.726363
O O13 0.250000 0.333248 0.750000
O O14 0.300006 0.430263 0.697958
O O15 0.750000 0.970966 0.250000
O O16 0.724631 0.000000 0.000000
O O17 0.500000 0.869703 0.339889
#
# Coordination Sequence:
#
# PCOD9477991 Si02
#       7
#    16  16  16  16  16  16  16
#     4  10  19  36  57  86 118 148 192 239 294 350
#     4  11  21  38  58  82 117 155 195 246 288 349
#     4  10  20  36  61  87 119 150 187 249 301 354
#     4   9  18  33  59  86 112 149 187 236 295 351
#     4  10  21  38  61  85 119 155 195 243 301 360
#     4  10  21  39  63  86 114 157 208 254 293 361
#     4  10  21  36  57  88 119 151 197 243 293 359
#
# _framework density 18.507095
#
# number of rings (size 3 to 8) (size 9 to 14) (size 15 to 20)
#    0.000    2.000    4.286    0.429    0.000    4.286 
#    0.000    0.714    0.000    0.857    0.000    0.000 
#    0.000    0.000    0.000    0.000    0.000    0.000 
#
# Total GULP energy -311789.467032 kJ/mol
# GULP energy per Si atom -5567.669054 kJ/mol
# Density = 1.846497 g / cm^3
# Si number density = 18.507095 Si / 1000 Ang^3
#
#
#
# Elastic Constant Matrix: (Units=GPa)
#
#
# Indices 1 2 3 4 5 6 
#
# 1 106.7748 20.2225 39.5599 0.0000 0.0000 0.0000
# 2 20.2225 63.5773 30.0005 0.0000 0.0000 0.0000
# 3 39.5599 30.0005 68.4741 0.0000 0.0000 0.0000
# 4 0.0000 0.0000 0.0000 20.9907 0.0000 0.0000
# 5 0.0000 0.0000 0.0000 0.0000 23.5334 0.0000
# 6 0.0000 0.0000 0.0000 0.0000 0.0000 18.5675
#
#
#
# Elastic Compliance Matrix: (Units=1/GPa)
#
#
# Indices 1 2 3 4 5 6 
#
# 1 0.011940 -0.000684 -0.006598 0.000000 0.000000 0.000000
# 2 -0.000684 0.019867 -0.008309 0.000000 0.000000 0.000000
# 3 -0.006598 -0.008309 0.022057 0.000000 0.000000 0.000000
# 4 0.000000 0.000000 0.000000 0.047640 0.000000 0.000000
# 5 0.000000 0.000000 0.000000 0.000000 0.042493 0.000000
# 6 0.000000 0.000000 0.000000 0.000000 0.000000 0.053857
#
#
# Mechanical properties :
#
#
# Convention : Reuss Voigt Hill
#
# Bulk Modulus (GPa) = 44.09084 46.48800 45.28942
# Shear Modulus (GPa) = 21.13295 22.55457 21.84376
#
# Velocity S-wave (km/s) = 3.38284 3.49477 3.43926
# Velocity P-wave (km/s) = 6.25569 6.43880 6.34790
#
# Compressibility (1/GPa) = 0.02268045
#
# Stress axis : x y z
#
# Youngs Moduli (GPa) = 83.75405 50.33376 45.33801
#
# Poissons Ratio (x) = 0.03444 0.29915
# Poissons Ratio (y) = 0.05731 0.37672
# Poissons Ratio (z) = 0.55263 0.41823
#
# Static dielectric constant tensor:
#      x y z
#    x 1.666920 0.000000 0.000000 
#    y 0.000000 1.661350 0.000000 
#    z 0.000000 0.000000 1.709840 
# 
# From -- ./inp_files/19316.got.cif
#   From: 2010.05.17/outbox.cif.g08.bks.cpg/sg64_10_cif.got.tgz:19316.got - 2010.06.03 16:29:19.
