data_PCOD9477880
_publ_section_title
;
Structure prediction by ZEFSAII (Michael W. Deem and Ramdas Pophale) SiO2 
 PCOD9477880
Probable space group: C M C A
;
_chemical_formula_sum "Si O2"
_cell_formula_units_Z 96
_cell_length_a 8.108155
_cell_length_b 20.579450
_cell_length_c 29.802490
_cell_angle_alpha 90.000000
_cell_angle_beta 90.000000
_cell_angle_gamma 90.000000
_cell_volume 4972.884323
_symmetry_space_group_name_H-M "C M C A"
_symmetry_group_IT_number 64
_symmetry_cell_setting 'orthorhombic'
loop_
_space_group_symop_operation_xyz
x,y,z
-x,1/2-y,1/2+z
x,-y,-z
-x,1/2+y,1/2-z
-x,-y,-z
x,1/2+y,1/2-z
-x,y,z
x,1/2-y,1/2+z
1/2+x,1/2+y,z
1/2-x,-y,1/2+z
1/2+x,1/2-y,-z
1/2-x,y,1/2-z
1/2-x,1/2-y,-z
1/2+x,y,1/2-z
1/2-x,1/2+y,z
1/2+x,-y,1/2+z
loop_
_atom_site_type_symbol
_atom_site_label
_atom_site_fract_x
_atom_site_fract_y
_atom_site_fract_z
Si Si1 0.303024 0.360727 0.301146
Si Si2 0.196562 0.006101 0.198344
Si Si3 0.300192 0.567043 0.477592
Si Si4 0.301343 0.691704 0.531999
Si Si5 0.199246 0.106013 0.122571
Si Si6 0.797978 0.755819 0.372423
O O1 0.500000 0.361216 0.303289
O O2 0.250000 0.351435 0.250000
O O3 0.245754 0.432775 0.315167
O O4 0.242294 0.301584 0.331796
O O5 0.250000 0.017086 0.250000
O O6 0.260181 0.058954 0.162536
O O7 0.000000 0.009399 0.198054
O O8 0.244298 0.500000 0.500000
O O9 0.500000 0.567177 0.477536
O O10 0.240914 0.625686 0.509297
O O11 0.246430 0.579348 0.426486
O O12 0.500000 0.688209 0.533756
O O13 0.250000 0.750000 0.500000
O O14 0.243798 0.709281 0.581737
O O15 0.256755 0.180748 0.128245
O O16 0.000000 0.107092 0.124666
O O17 0.000000 0.754521 0.372085
#
# Coordination Sequence:
#
# PCOD9477880 Si02
#       6
#    16  16  16  16  16  16
#     4  10  20  36  59  82 108 142 177 220 270 319
#     4  10  21  37  57  81 108 141 178 220 270 322
#     4  10  22  36  54  82 112 142 183 226 266 319
#     4  10  19  35  56  78 107 144 180 217 264 317
#     4  10  21  38  57  79 109 143 182 223 268 322
#     4   9  19  35  56  79 106 143 179 215 267 320
#
# _framework density 19.304691999999999
#
# number of rings (size 3 to 8) (size 9 to 14) (size 15 to 20)
#    0.000    2.167    1.667    2.000    2.333    2.333 
#    0.000    3.333    0.000    0.000    0.000    0.000 
#    0.000    0.000    0.000    0.000    0.000    0.000 
#
# Total GULP energy -267891.272404 kJ/mol
# GULP energy per Si atom -5581.068175 kJ/mol
# Density = 1.926075 g / cm^3
# Si number density = 19.304692 Si / 1000 Ang^3
#
#
#
# Elastic Constant Matrix: (Units=GPa)
#
#
# Indices 1 2 3 4 5 6 
#
# 1 18.4847 14.5967 10.6155 0.0000 0.0000 0.0000
# 2 14.5967 215.9302 129.8920 0.0000 0.0000 0.0000
# 3 10.6155 129.8920 144.3410 0.0000 0.0000 0.0000
# 4 0.0000 0.0000 0.0000 45.2302 0.0000 0.0000
# 5 0.0000 0.0000 0.0000 0.0000 19.2148 0.0000
# 6 0.0000 0.0000 0.0000 0.0000 0.0000 20.4369
#
#
#
# Elastic Compliance Matrix: (Units=1/GPa)
#
#
# Indices 1 2 3 4 5 6 
#
# 1 0.057316 -0.002919 -0.001589 0.000000 0.000000 0.000000
# 2 -0.002919 0.010245 -0.009005 0.000000 0.000000 0.000000
# 3 -0.001589 -0.009005 0.015149 0.000000 0.000000 0.000000
# 4 0.000000 0.000000 0.000000 0.022109 0.000000 0.000000
# 5 0.000000 0.000000 0.000000 0.000000 0.052043 0.000000
# 6 0.000000 0.000000 0.000000 0.000000 0.000000 0.048931
#
#
# Mechanical properties :
#
#
# Convention : Reuss Voigt Hill
#
# Bulk Modulus (GPa) = 17.95821 76.55159 47.25490
# Shear Modulus (GPa) = 19.89016 31.88650 25.88833
#
# Velocity S-wave (km/s) = 3.21335 4.06858 3.66599
# Velocity P-wave (km/s) = 4.80523 7.86204 6.51544
#
# Compressibility (1/GPa) = 0.05568485
#
# Stress axis : x y z
#
# Youngs Moduli (GPa) = 17.44709 97.60385 66.01256
#
# Poissons Ratio (x) = 0.28490 0.10487
# Poissons Ratio (y) = 0.05093 0.59446
# Poissons Ratio (z) = 0.02772 0.87894
#
# Static dielectric constant tensor:
#      x y z
#    x 1.686670 0.000000 0.000000 
#    y 0.000000 1.679330 0.000000 
#    z 0.000000 0.000000 1.632710 
# 
# From -- ./inp_files/48116.got.cif
#   From: 2010.05.17/outbox.cif.g08.bks.cpg/sg64_25_cif.got.tgz:48116.got - 2010.06.03 16:29:19.
