data_PCOD9477063
_publ_section_title
;
Structure prediction by ZEFSAII (Michael W. Deem and Ramdas Pophale) SiO2 
 PCOD9477063
Probable space group: C M C A
;
_chemical_formula_sum "Si O2"
_cell_formula_units_Z 76
_cell_length_a 24.935485
_cell_length_b 12.643377
_cell_length_c 14.468934
_cell_angle_alpha 90.000000
_cell_angle_beta 90.000000
_cell_angle_gamma 90.000000
_cell_volume 4561.602556
_symmetry_space_group_name_H-M "C M C A"
_symmetry_group_IT_number 64
_symmetry_cell_setting 'orthorhombic'
loop_
_space_group_symop_operation_xyz
x,y,z
-x,1/2-y,1/2+z
x,-y,-z
-x,1/2+y,1/2-z
-x,-y,-z
x,1/2+y,1/2-z
-x,y,z
x,1/2-y,1/2+z
1/2+x,1/2+y,z
1/2-x,-y,1/2+z
1/2+x,1/2-y,-z
1/2-x,y,1/2-z
1/2-x,1/2-y,-z
1/2+x,y,1/2-z
1/2-x,1/2+y,z
1/2+x,-y,1/2+z
loop_
_atom_site_type_symbol
_atom_site_label
_atom_site_fract_x
_atom_site_fract_y
_atom_site_fract_z
Si Si1 0.894910 0.114383 0.919658
Si Si2 0.282459 0.958039 0.897233
Si Si3 0.152982 0.780609 0.699703
Si Si4 0.250000 0.869308 0.250000
Si Si5 0.160158 0.108064 0.110139
Si Si6 0.500000 0.000000 0.500000
O O1 0.892512 0.209815 0.847568
O O2 0.862744 0.011497 0.881531
O O3 0.862874 0.148187 0.012676
O O4 0.952512 0.072267 0.950570
O O5 0.328309 0.879738 0.861733
O O6 0.224524 0.899446 0.892995
O O7 0.276372 0.055384 0.826730
O O8 0.291059 0.000000 0.000000
O O9 0.204574 0.704187 0.706510
O O10 0.142082 0.823492 0.802503
#
# Coordination Sequence:
#
# PCOD9477063 Si02
#       6
#    16  16  16   8  16   4
#     4  10  21  38  60  79 107 151 193 248 289 338
#     4  12  21  32  46  79 120 155 186 223 271 345
#     4  12  21  32  54  83 115 156 188 227 288 349
#     4  12  20  32  48  76 126 156 184 222 268 352
#     4  10  18  35  51  79 113 147 189 229 275 347
#     4   8  20  44  64  76 102 132 204 258 276 322
#
# _framework density 16.660810999999999
#
# number of rings (size 3 to 8) (size 9 to 14) (size 15 to 20)
#    0.000    1.263    8.421    0.000    2.947    1.684 
#    0.000    4.211    0.000    0.000    0.000    0.737 
#    0.000    0.000    0.000    0.000    0.000    0.000 
#
# Total GULP energy -211541.630896 kJ/mol
# GULP energy per Si atom -5566.885024 kJ/mol
# Density = 1.662289 g / cm^3
# Si number density = 16.660811 Si / 1000 Ang^3
#
#
#
# Elastic Constant Matrix: (Units=GPa)
#
#
# Indices 1 2 3 4 5 6 
#
# 1 58.1554 13.1628 -0.8239 0.0000 0.0000 0.0000
# 2 13.1628 78.5140 61.1819 0.0000 0.0000 0.0000
# 3 -0.8239 61.1819 86.7900 0.0000 0.0000 0.0000
# 4 0.0000 0.0000 0.0000 41.0000 0.0000 0.0000
# 5 0.0000 0.0000 0.0000 0.0000 14.1109 0.0000
# 6 0.0000 0.0000 0.0000 0.0000 0.0000 6.5989
#
#
#
# Elastic Compliance Matrix: (Units=1/GPa)
#
#
# Indices 1 2 3 4 5 6 
#
# 1 0.018936 -0.007355 0.005365 0.000000 0.000000 0.000000
# 2 -0.007355 0.031118 -0.022006 0.000000 0.000000 0.000000
# 3 0.005365 -0.022006 0.027086 0.000000 0.000000 0.000000
# 4 0.000000 0.000000 0.000000 0.024390 0.000000 0.000000
# 5 0.000000 0.000000 0.000000 0.000000 0.070867 0.000000
# 6 0.000000 0.000000 0.000000 0.000000 0.000000 0.151541
#
#
# Mechanical properties :
#
#
# Convention : Reuss Voigt Hill
#
# Bulk Modulus (GPa) = 34.30896 41.16682 37.73789
# Shear Modulus (GPa) = 13.10112 22.33785 17.71949
#
# Velocity S-wave (km/s) = 2.80722 3.66559 3.26474
# Velocity P-wave (km/s) = 5.58074 6.53282 6.07546
#
# Compressibility (1/GPa) = 0.02914691
#
# Stress axis : x y z
#
# Youngs Moduli (GPa) = 52.80945 32.13589 36.91941
#
# Poissons Ratio (x) = 0.23636 -0.19806
# Poissons Ratio (y) = 0.38841 0.81245
# Poissons Ratio (z) = -0.28330 0.70719
#
# Static dielectric constant tensor:
#      x y z
#    x 1.524340 0.000000 0.000000 
#    y 0.000000 1.579770 0.000000 
#    z 0.000000 0.000000 1.532020 
# 
# From -- ./inp_files/27272.got.cif
#   From: 2010.05.17/outbox.cif.g08.bks.cpg/sg64_14_cif.got.tgz:27272.got - 2010.06.03 16:29:19.
