data_PCOD9477833
_publ_section_title
;
Structure prediction by ZEFSAII (Michael W. Deem and Ramdas Pophale) SiO2 
 PCOD9477833
Probable space group: C M C A
;
_chemical_formula_sum "Si O2"
_cell_formula_units_Z 128
_cell_length_a 24.365714
_cell_length_b 23.642150
_cell_length_c 9.344583
_cell_angle_alpha 90.000000
_cell_angle_beta 90.000000
_cell_angle_gamma 90.000000
_cell_volume 5383.020535
_symmetry_space_group_name_H-M "C M C A"
_symmetry_group_IT_number 64
_symmetry_cell_setting 'orthorhombic'
loop_
_space_group_symop_operation_xyz
x,y,z
-x,1/2-y,1/2+z
x,-y,-z
-x,1/2+y,1/2-z
-x,-y,-z
x,1/2+y,1/2-z
-x,y,z
x,1/2-y,1/2+z
1/2+x,1/2+y,z
1/2-x,-y,1/2+z
1/2+x,1/2-y,-z
1/2-x,y,1/2-z
1/2-x,1/2-y,-z
1/2+x,y,1/2-z
1/2-x,1/2+y,z
1/2+x,-y,1/2+z
loop_
_atom_site_type_symbol
_atom_site_label
_atom_site_fract_x
_atom_site_fract_y
_atom_site_fract_z
Si Si1 0.059638 0.778026 0.688329
Si Si2 0.307862 0.962004 0.219899
Si Si3 0.822388 0.129125 0.951739
Si Si4 0.384293 0.563959 0.331026
Si Si5 0.849137 0.806300 0.297763
Si Si6 0.939237 0.367371 0.063429
Si Si7 0.292968 0.866899 0.971016
Si Si8 0.939197 0.621263 0.414587
O O1 0.112219 0.743655 0.741592
O O2 0.063954 0.810313 0.536056
O O3 0.054710 0.827972 0.802065
O O4 0.000000 0.746723 0.687143
O O5 0.250000 0.993039 0.250000
O O6 0.320998 0.930493 0.368217
O O7 0.297127 0.915690 0.095579
O O8 0.353843 0.004840 0.170216
O O9 0.809970 0.175826 0.830557
O O10 0.771693 0.134769 0.061388
O O11 0.884763 0.137686 0.999230
O O12 0.424012 0.580548 0.461295
O O13 0.335942 0.611670 0.351883
O O14 0.418539 0.569993 0.185519
O O15 0.893595 0.857183 0.319367
O O16 0.816213 0.810754 0.447753
O O17 0.000000 0.373087 0.119399
O O18 0.000000 0.612212 0.479654
#
# Coordination Sequence:
#
# PCOD9477833 Si02
#       8
#    16  16  16  16  16  16  16  16
#     4   9  19  35  57  82 109 151 204 247 284 344
#     4   9  19  35  59  89 113 148 195 239 287 346
#     4  10  22  39  58  83 123 153 187 241 301 352
#     4  10  19  35  61  83 116 148 195 240 286 337
#     4  10  19  34  60  82 114 152 194 245 297 337
#     4   9  19  35  55  82 112 151 199 244 290 340
#     4   9  20  38  60  85 116 150 192 245 292 343
#     4  10  23  40  57  84 122 156 192 240 293 352
#
# _framework density 23.778471
#
# number of rings (size 3 to 8) (size 9 to 14) (size 15 to 20)
#    0.000    2.500    0.000    3.000    3.500    1.500 
#    0.000    2.500    8.250   21.000    0.000    0.000 
#    0.000    0.000    0.000    0.000    0.000    0.000 
#
# Total GULP energy -356859.905552 kJ/mol
# GULP energy per Si atom -5575.936024 kJ/mol
# Density = 2.372435 g / cm^3
# Si number density = 23.778471 Si / 1000 Ang^3
#
#
#
# Elastic Constant Matrix: (Units=GPa)
#
#
# Indices 1 2 3 4 5 6 
#
# 1 166.6410 7.9541 28.4595 0.0000 0.0000 0.0000
# 2 7.9541 45.6145 -7.7296 0.0000 0.0000 0.0000
# 3 28.4595 -7.7296 26.7720 0.0000 0.0000 0.0000
# 4 0.0000 0.0000 0.0000 -2.0492 0.0000 0.0000
# 5 0.0000 0.0000 0.0000 0.0000 812.8463 0.0000
# 6 0.0000 0.0000 0.0000 0.0000 0.0000 29.7676
#
#
#
# Elastic Compliance Matrix: (Units=1/GPa)
#
#
# Indices 1 2 3 4 5 6 
#
# 1 0.007671 -0.002859 -0.008980 0.000000 0.000000 0.000000
# 2 -0.002859 0.024116 0.010002 0.000000 0.000000 0.000000
# 3 -0.008980 0.010002 0.049787 0.000000 0.000000 0.000000
# 4 0.000000 0.000000 0.000000 -0.487990 0.000000 0.000000
# 5 0.000000 0.000000 0.000000 0.000000 0.001230 0.000000
# 6 0.000000 0.000000 0.000000 0.000000 0.000000 0.033594
#
#
# Mechanical properties :
#
#
# Convention : Reuss Voigt Hill
#
# Bulk Modulus (GPa) = 12.83698 32.93284 22.88491
# Shear Modulus (GPa) = -14.62198 182.13583 83.75692
#
# Velocity S-wave (km/s) = -2.48246 8.76146 5.94141
# Velocity P-wave (km/s) = 1.67526 10.78104 7.53075
#
# Compressibility (1/GPa) = 0.07789993
#
# Stress axis : x y z
#
# Youngs Moduli (GPa) = 130.36000 41.46552 20.08574
#
# Poissons Ratio (x) = 0.11857 0.18037
# Poissons Ratio (y) = 0.37275 -0.20091
# Poissons Ratio (z) = 1.17065 -0.41476
#
# Static dielectric constant tensor:
#      x y z
#    x 2.029980 0.000000 0.000000 
#    y 0.000000 1.929150 0.000000 
#    z 0.000000 0.000000 1.973370 
# 
# From -- ./inp_files/18744.got.cif
#   From: 2010.05.17/outbox.cif.g08.bks.cpg/sg64_10_cif.got.tgz:18744.got - 2010.06.03 16:29:19.
