data_PCOD9477599
_publ_section_title
;
Structure prediction by ZEFSAII (Michael W. Deem and Ramdas Pophale) SiO2 
 PCOD9477599
Probable space group: C M C A
;
_chemical_formula_sum "Si O2"
_cell_formula_units_Z 80
_cell_length_a 7.639204
_cell_length_b 25.914225
_cell_length_c 18.794353
_cell_angle_alpha 90.000000
_cell_angle_beta 90.000000
_cell_angle_gamma 90.000000
_cell_volume 3720.606261
_symmetry_space_group_name_H-M "C M C A"
_symmetry_group_IT_number 64
_symmetry_cell_setting 'orthorhombic'
loop_
_space_group_symop_operation_xyz
x,y,z
-x,1/2-y,1/2+z
x,-y,-z
-x,1/2+y,1/2-z
-x,-y,-z
x,1/2+y,1/2-z
-x,y,z
x,1/2-y,1/2+z
1/2+x,1/2+y,z
1/2-x,-y,1/2+z
1/2+x,1/2-y,-z
1/2-x,y,1/2-z
1/2-x,1/2-y,-z
1/2+x,y,1/2-z
1/2-x,1/2+y,z
1/2+x,-y,1/2+z
loop_
_atom_site_type_symbol
_atom_site_label
_atom_site_fract_x
_atom_site_fract_y
_atom_site_fract_z
Si Si1 0.786166 0.978832 0.421928
Si Si2 0.714771 0.172686 0.074530
Si Si3 0.707405 0.362309 0.421208
Si Si4 0.207438 0.267482 0.331604
Si Si5 0.209673 0.925270 0.667508
O O1 0.722996 0.920296 0.411892
O O2 0.000000 0.978036 0.419195
O O3 0.739306 0.000000 0.500000
O O4 0.724742 0.020529 0.364207
O O5 0.500000 0.174058 0.074603
O O6 0.777899 0.224179 0.114091
O O7 0.770830 0.122917 0.120258
O O8 0.774966 0.164652 0.993534
O O9 0.500000 0.368235 0.432169
O O10 0.733137 0.323958 0.355825
O O11 0.250000 0.255534 0.250000
O O12 0.000000 0.266786 0.338213
O O13 0.250000 0.918599 0.750000
O O14 0.000000 0.925764 0.659882
#
# Coordination Sequence:
#
# PCOD9477599 Si02
#       5
#    16  16  16  16  16
#     4   9  16  31  57  82 105 140 183 219 259 321
#     4   9  18  34  58  82 106 139 184 227 269 324
#     4  10  19  35  60  85 107 140 183 227 271 323
#     4  11  23  38  54  78 111 147 183 225 273 325
#     4  10  19  33  54  82 110 140 179 223 270 322
#
# _framework density 21.501873
#
# number of rings (size 3 to 8) (size 9 to 14) (size 15 to 20)
#    0.000    2.200    2.000    1.800    0.000    0.800 
#    0.000    6.000    0.000    1.200    0.000    0.000 
#    0.000    0.000    0.000    0.000    0.000    0.000 
#
# Total GULP energy -223449.955906 kJ/mol
# GULP energy per Si atom -5586.248898 kJ/mol
# Density = 2.145293 g / cm^3
# Si number density = 21.501873 Si / 1000 Ang^3
#
#
#
# Elastic Constant Matrix: (Units=GPa)
#
#
# Indices 1 2 3 4 5 6 
#
# 1 34.1801 7.7006 -6.6598 0.0000 0.0000 0.0000
# 2 7.7006 115.0464 -7.4590 0.0000 0.0000 0.0000
# 3 -6.6598 -7.4590 36.8472 0.0000 0.0000 0.0000
# 4 0.0000 0.0000 0.0000 32.5604 0.0000 0.0000
# 5 0.0000 0.0000 0.0000 0.0000 -4.3176 0.0000
# 6 0.0000 0.0000 0.0000 0.0000 0.0000 9.6853
#
#
#
# Elastic Compliance Matrix: (Units=1/GPa)
#
#
# Indices 1 2 3 4 5 6 
#
# 1 0.030655 -0.001715 0.005193 0.000000 0.000000 0.000000
# 2 -0.001715 0.008904 0.001492 0.000000 0.000000 0.000000
# 3 0.005193 0.001492 0.028380 0.000000 0.000000 0.000000
# 4 0.000000 0.000000 0.000000 0.030712 0.000000 0.000000
# 5 0.000000 0.000000 0.000000 0.000000 -0.231612 0.000000
# 6 0.000000 0.000000 0.000000 0.000000 0.000000 0.103249
#
#
# Mechanical properties :
#
#
# Convention : Reuss Voigt Hill
#
# Bulk Modulus (GPa) = 12.84025 19.24859 16.04442
# Shear Modulus (GPa) = -365.14681 20.41842 -172.36420
#
# Velocity S-wave (km/s) = -13.04567 3.08492 -8.96306
# Velocity P-wave (km/s) = 14.86388 4.65408 9.98184
#
# Compressibility (1/GPa) = 0.07788007
#
# Stress axis : x y z
#
# Youngs Moduli (GPa) = 32.62097 112.31278 35.23619
#
# Poissons Ratio (x) = 0.19264 -0.18300
# Poissons Ratio (y) = 0.05595 -0.05259
# Poissons Ratio (z) = -0.16942 -0.16761
#
# Static dielectric constant tensor:
#      x y z
#    x 1.815060 0.000000 0.000000 
#    y 0.000000 1.788220 0.000000 
#    z 0.000000 0.000000 1.731580 
# 
# From -- ./inp_files/22343.got.cif
#   From: 2010.05.17/outbox.cif.g08.bks.cpg/sg64_12_cif.got.tgz:22343.got - 2010.06.03 16:29:19.
