data_PCOD9477756
_publ_section_title
;
Structure prediction by ZEFSAII (Michael W. Deem and Ramdas Pophale) SiO2 
 PCOD9477756
Probable space group: C M C A
;
_chemical_formula_sum "Si O2"
_cell_formula_units_Z 40
_cell_length_a 19.503979
_cell_length_b 5.347933
_cell_length_c 17.196088
_cell_angle_alpha 90.000000
_cell_angle_beta 90.000000
_cell_angle_gamma 90.000000
_cell_volume 1793.654689
_symmetry_space_group_name_H-M "C M C A"
_symmetry_group_IT_number 64
_symmetry_cell_setting 'orthorhombic'
loop_
_space_group_symop_operation_xyz
x,y,z
-x,1/2-y,1/2+z
x,-y,-z
-x,1/2+y,1/2-z
-x,-y,-z
x,1/2+y,1/2-z
-x,y,z
x,1/2-y,1/2+z
1/2+x,1/2+y,z
1/2-x,-y,1/2+z
1/2+x,1/2-y,-z
1/2-x,y,1/2-z
1/2-x,1/2-y,-z
1/2+x,y,1/2-z
1/2-x,1/2+y,z
1/2+x,-y,1/2+z
loop_
_atom_site_type_symbol
_atom_site_label
_atom_site_fract_x
_atom_site_fract_y
_atom_site_fract_z
Si Si1 0.222304 0.794817 0.588734
Si Si2 0.500000 0.605271 0.202505
Si Si3 0.924760 0.837047 0.076952
O O1 0.250000 0.750000 0.500000
O O2 0.239330 0.527725 0.625606
O O3 0.140836 0.834308 0.587817
O O4 0.500000 0.888092 0.231707
O O5 0.435823 0.531035 0.147778
O O6 0.000000 0.710723 0.070777
O O7 0.913533 0.000000 0.000000
#
# Coordination Sequence:
#
# PCOD9477756 Si02
#       3
#    16   8  16
#     4  10  19  34  55  89 124 148 185 252 311 340
#     4  10  23  42  59  86 124 164 198 252 307 360
#     4   9  19  39  63  96 114 158 212 256 291 362
#
# _framework density 22.300836
#
# number of rings (size 3 to 8) (size 9 to 14) (size 15 to 20)
#    1.200    1.200    4.000    0.000    0.000    3.200 
#    0.000    6.000    0.000    7.200    0.000    0.000 
#    0.000    0.000    0.000    0.000    0.000    0.000 
#
# Total GULP energy -111413.872926 kJ/mol
# GULP energy per Si atom -5570.693646 kJ/mol
# Density = 2.225008 g / cm^3
# Si number density = 22.300836 Si / 1000 Ang^3
#
#
#
# Elastic Constant Matrix: (Units=GPa)
#
#
# Indices 1 2 3 4 5 6 
#
# 1 158.8497 15.3645 -14.3701 0.0000 0.0000 0.0000
# 2 15.3645 99.3895 0.9487 0.0000 0.0000 0.0000
# 3 -14.3701 0.9487 53.1609 0.0000 0.0000 0.0000
# 4 0.0000 0.0000 0.0000 23.2551 0.0000 0.0000
# 5 0.0000 0.0000 0.0000 0.0000 -10.1137 0.0000
# 6 0.0000 0.0000 0.0000 0.0000 0.0000 -87.1952
#
#
#
# Elastic Compliance Matrix: (Units=1/GPa)
#
#
# Indices 1 2 3 4 5 6 
#
# 1 0.006557 -0.001031 0.001791 0.000000 0.000000 0.000000
# 2 -0.001031 0.010225 -0.000461 0.000000 0.000000 0.000000
# 3 0.001791 -0.000461 0.019303 0.000000 0.000000 0.000000
# 4 0.000000 0.000000 0.000000 0.043001 0.000000 0.000000
# 5 0.000000 0.000000 0.000000 0.000000 -0.098876 0.000000
# 6 0.000000 0.000000 0.000000 0.000000 0.000000 -0.011469
#
#
# Mechanical properties :
#
#
# Convention : Reuss Voigt Hill
#
# Bulk Modulus (GPa) = 27.26038 35.03181 31.14609
# Shear Modulus (GPa) = -254.73988 5.81970 -124.46009
#
# Velocity S-wave (km/s) = -10.69938 1.61719 -7.47869
# Velocity P-wave (km/s) = 11.84843 4.38519 7.78317
#
# Compressibility (1/GPa) = 0.03668328
#
# Stress axis : x y z
#
# Youngs Moduli (GPa) = 152.50968 97.79788 51.80503
#
# Poissons Ratio (x) = 0.10080 -0.09277
# Poissons Ratio (y) = 0.15720 0.02389
# Poissons Ratio (z) = -0.27312 0.04509
#
# Static dielectric constant tensor:
#      x y z
#    x 1.834170 0.000000 0.000000 
#    y 0.000000 1.893850 0.000000 
#    z 0.000000 0.000000 1.847680 
# 
# From -- ./inp_files/32595.got.cif
#   From: 2010.05.17/outbox.cif.g08.bks.cpg/sg64_17_cif.got.tgz:32595.got - 2010.06.03 16:29:19.
