data_PCOD9477912
_publ_section_title
;
Structure prediction by ZEFSAII (Michael W. Deem and Ramdas Pophale) SiO2 
 PCOD9477912
Probable space group: C M C A
;
_chemical_formula_sum "Si O2"
_cell_formula_units_Z 96
_cell_length_a 18.361820
_cell_length_b 21.558864
_cell_length_c 12.692482
_cell_angle_alpha 90.000000
_cell_angle_beta 90.000000
_cell_angle_gamma 90.000000
_cell_volume 5024.445673
_symmetry_space_group_name_H-M "C M C A"
_symmetry_group_IT_number 64
_symmetry_cell_setting 'orthorhombic'
loop_
_space_group_symop_operation_xyz
x,y,z
-x,1/2-y,1/2+z
x,-y,-z
-x,1/2+y,1/2-z
-x,-y,-z
x,1/2+y,1/2-z
-x,y,z
x,1/2-y,1/2+z
1/2+x,1/2+y,z
1/2-x,-y,1/2+z
1/2+x,1/2-y,-z
1/2-x,y,1/2-z
1/2-x,1/2-y,-z
1/2+x,y,1/2-z
1/2-x,1/2+y,z
1/2+x,-y,1/2+z
loop_
_atom_site_type_symbol
_atom_site_label
_atom_site_fract_x
_atom_site_fract_y
_atom_site_fract_z
Si Si1 0.180499 0.771452 0.064330
Si Si2 0.804621 0.396008 0.337595
Si Si3 0.172681 0.844511 0.695789
Si Si4 0.085510 0.788199 0.869128
Si Si5 0.587147 0.641319 0.671714
Si Si6 0.689832 0.928406 0.001982
O O1 0.207640 0.823102 0.143832
O O2 0.149096 0.712406 0.122207
O O3 0.250000 0.750000 0.000000
O O4 0.123411 0.797717 0.981447
O O5 0.750000 0.422512 0.250000
O O6 0.882990 0.392161 0.279075
O O7 0.771633 0.422990 0.446844
O O8 0.250000 0.830185 0.750000
O O9 0.115687 0.840472 0.790161
O O10 0.184172 0.901055 0.615872
O O11 0.101317 0.716356 0.832065
O O12 0.000000 0.792824 0.878231
O O13 0.500000 0.632946 0.659589
O O14 0.634998 0.610660 0.577633
O O15 0.668841 0.000000 0.000000
#
# Coordination Sequence:
#
# PCOD9477912 Si02
#       6
#    16  16  16  16  16  16
#     4  12  18  33  58  86 118 152 188 242 304 362
#     4  10  19  35  58  85 111 142 191 247 290 345
#     4  12  22  35  62  89 121 156 197 249 308 355
#     4  11  23  35  54  91 125 151 194 247 304 360
#     4  10  21  37  58  85 115 153 195 239 298 357
#     4  11  24  40  60  85 119 160 204 244 286 357
#
# _framework density 19.106584999999999
#
# number of rings (size 3 to 8) (size 9 to 14) (size 15 to 20)
#    0.000    1.000    6.667    1.500    0.000    4.333 
#    0.000    0.000    0.000    0.500    0.000    0.000 
#    0.000    0.000    0.000    0.000    0.000    0.000 
#
# Total GULP energy -267269.862670 kJ/mol
# GULP energy per Si atom -5568.122139 kJ/mol
# Density = 1.906310 g / cm^3
# Si number density = 19.106585 Si / 1000 Ang^3
#
#
#
# Elastic Constant Matrix: (Units=GPa)
#
#
# Indices 1 2 3 4 5 6 
#
# 1 92.2203 -3.1060 36.0941 0.0000 0.0000 0.0000
# 2 -3.1060 51.4798 26.8790 0.0000 0.0000 0.0000
# 3 36.0941 26.8790 100.8486 0.0000 0.0000 0.0000
# 4 0.0000 0.0000 0.0000 11.1391 0.0000 0.0000
# 5 0.0000 0.0000 0.0000 0.0000 21.0491 0.0000
# 6 0.0000 0.0000 0.0000 0.0000 0.0000 6.9574
#
#
#
# Elastic Compliance Matrix: (Units=1/GPa)
#
#
# Indices 1 2 3 4 5 6 
#
# 1 0.013219 0.003796 -0.005743 0.000000 0.000000 0.000000
# 2 0.003796 0.023655 -0.007663 0.000000 0.000000 0.000000
# 3 -0.005743 -0.007663 0.014014 0.000000 0.000000 0.000000
# 4 0.000000 0.000000 0.000000 0.089774 0.000000 0.000000
# 5 0.000000 0.000000 0.000000 0.000000 0.047508 0.000000
# 6 0.000000 0.000000 0.000000 0.000000 0.000000 0.143731
#
#
# Mechanical properties :
#
#
# Convention : Reuss Voigt Hill
#
# Bulk Modulus (GPa) = 31.57782 40.47587 36.02685
# Shear Modulus (GPa) = 13.82445 20.14124 16.98284
#
# Velocity S-wave (km/s) = 2.69279 3.25029 2.98459
# Velocity P-wave (km/s) = 5.12165 5.94274 5.54740
#
# Compressibility (1/GPa) = 0.03166780
#
# Stress axis : x y z
#
# Youngs Moduli (GPa) = 75.64757 42.27352 71.35814
#
# Poissons Ratio (x) = -0.16048 0.40981
# Poissons Ratio (y) = -0.28717 0.54685
# Poissons Ratio (z) = 0.43444 0.32396
#
# Static dielectric constant tensor:
#      x y z
#    x 1.643780 0.000000 0.000000 
#    y 0.000000 1.658930 0.000000 
#    z 0.000000 0.000000 1.681750 
# 
# From -- ./inp_files/16208.got.cif
#   From: 2010.05.17/outbox.cif.g08.bks.cpg/sg64_9_cif.got.tgz:16208.got - 2010.06.03 16:29:19.
