data_PCOD9477045
_publ_section_title
;
Structure prediction by ZEFSAII (Michael W. Deem and Ramdas Pophale) SiO2 
 PCOD9477045
Probable space group: C M C A
;
_chemical_formula_sum "Si O2"
_cell_formula_units_Z 96
_cell_length_a 13.623119
_cell_length_b 23.791874
_cell_length_c 14.135671
_cell_angle_alpha 90.000000
_cell_angle_beta 90.000000
_cell_angle_gamma 90.000000
_cell_volume 4581.647051
_symmetry_space_group_name_H-M "C M C A"
_symmetry_group_IT_number 64
_symmetry_cell_setting 'orthorhombic'
loop_
_space_group_symop_operation_xyz
x,y,z
-x,1/2-y,1/2+z
x,-y,-z
-x,1/2+y,1/2-z
-x,-y,-z
x,1/2+y,1/2-z
-x,y,z
x,1/2-y,1/2+z
1/2+x,1/2+y,z
1/2-x,-y,1/2+z
1/2+x,1/2-y,-z
1/2-x,y,1/2-z
1/2-x,1/2-y,-z
1/2+x,y,1/2-z
1/2-x,1/2+y,z
1/2+x,-y,1/2+z
loop_
_atom_site_type_symbol
_atom_site_label
_atom_site_fract_x
_atom_site_fract_y
_atom_site_fract_z
Si Si1 0.798743 0.869118 0.574102
Si Si2 0.882091 0.583743 0.752708
Si Si3 0.618632 0.016636 0.109674
Si Si4 0.216503 0.253835 0.357603
Si Si5 0.389058 0.322603 0.399392
Si Si6 0.384398 0.638767 0.939216
O O1 0.826048 0.925052 0.629070
O O2 0.811215 0.810530 0.628061
O O3 0.876277 0.864003 0.487689
O O4 0.691042 0.869874 0.525442
O O5 0.849746 0.530553 0.814354
O O6 0.855973 0.639876 0.810827
O O7 0.857331 0.593689 0.643269
O O8 0.000000 0.582030 0.755317
O O9 0.500000 0.023121 0.116403
O O10 0.640459 0.000000 0.000000
O O11 0.250000 0.259878 0.250000
O O12 0.315069 0.271474 0.414582
O O13 0.137829 0.300007 0.392133
O O14 0.500000 0.303934 0.387241
O O15 0.500000 0.634322 0.962052
#
# Coordination Sequence:
#
# PCOD9477045 Si02
#       6
#    16  16  16  16  16  16
#     4  11  23  35  57  92 125 159 192 248 311 362
#     4   9  17  32  61  91 112 150 204 253 296 343
#     4  10  19  36  60  88 119 148 195 255 304 354
#     4  11  23  37  55  85 126 161 204 246 299 367
#     4  10  18  34  59  86 117 152 197 253 305 350
#     4  10  21  39  61  90 123 160 207 250 293 356
#
# _framework density 20.953163
#
# number of rings (size 3 to 8) (size 9 to 14) (size 15 to 20)
#    0.000    1.833    3.333    2.500    0.000    3.333 
#    0.000    1.667    0.000    0.500    0.000    5.833 
#    0.000    0.000    0.000    0.000    0.000    0.000 
#
# Total GULP energy -267934.817835 kJ/mol
# GULP energy per Si atom -5581.975372 kJ/mol
# Density = 2.090547 g / cm^3
# Si number density = 20.953163 Si / 1000 Ang^3
#
#
#
# Elastic Constant Matrix: (Units=GPa)
#
#
# Indices 1 2 3 4 5 6 
#
# 1 97.7894 27.9175 5.8298 0.0000 0.0000 0.0000
# 2 27.9175 139.0831 22.8132 0.0000 0.0000 0.0000
# 3 5.8298 22.8132 40.4705 0.0000 0.0000 0.0000
# 4 0.0000 0.0000 0.0000 32.5606 0.0000 0.0000
# 5 0.0000 0.0000 0.0000 0.0000 17.5927 0.0000
# 6 0.0000 0.0000 0.0000 0.0000 0.0000 18.4648
#
#
#
# Elastic Compliance Matrix: (Units=1/GPa)
#
#
# Indices 1 2 3 4 5 6 
#
# 1 0.010853 -0.002118 -0.000370 0.000000 0.000000 0.000000
# 2 -0.002118 0.008336 -0.004394 0.000000 0.000000 0.000000
# 3 -0.000370 -0.004394 0.027239 0.000000 0.000000 0.000000
# 4 0.000000 0.000000 0.000000 0.030712 0.000000 0.000000
# 5 0.000000 0.000000 0.000000 0.000000 0.056842 0.000000
# 6 0.000000 0.000000 0.000000 0.000000 0.000000 0.054157
#
#
# Mechanical properties :
#
#
# Convention : Reuss Voigt Hill
#
# Bulk Modulus (GPa) = 30.61325 43.38486 36.99905
# Shear Modulus (GPa) = 23.49740 28.44245 25.96993
#
# Velocity S-wave (km/s) = 3.35240 3.68833 3.52437
# Velocity P-wave (km/s) = 5.44305 6.23610 5.85302
#
# Compressibility (1/GPa) = 0.03266560
#
# Stress axis : x y z
#
# Youngs Moduli (GPa) = 92.14310 119.96547 36.71155
#
# Poissons Ratio (x) = 0.25406 0.01357
# Poissons Ratio (y) = 0.19514 0.16130
# Poissons Ratio (z) = 0.03405 0.52710
#
# Static dielectric constant tensor:
#      x y z
#    x 1.769490 0.000000 0.000000 
#    y 0.000000 1.769770 0.000000 
#    z 0.000000 0.000000 1.833050 
# 
# From -- ./inp_files/23892.got.cif
#   From: 2010.05.17/outbox.cif.g08.bks.cpg/sg64_12_cif.got.tgz:23892.got - 2010.06.03 16:29:19.
