data_PCOD9477992
_publ_section_title
;
Structure prediction by ZEFSAII (Michael W. Deem and Ramdas Pophale) SiO2 
 PCOD9477992
Probable space group: C M C A
;
_chemical_formula_sum "Si O2"
_cell_formula_units_Z 96
_cell_length_a 22.760382
_cell_length_b 14.350637
_cell_length_c 14.165284
_cell_angle_alpha 90.000000
_cell_angle_beta 90.000000
_cell_angle_gamma 90.000000
_cell_volume 4626.749769
_symmetry_space_group_name_H-M "C M C A"
_symmetry_group_IT_number 64
_symmetry_cell_setting 'orthorhombic'
loop_
_space_group_symop_operation_xyz
x,y,z
-x,1/2-y,1/2+z
x,-y,-z
-x,1/2+y,1/2-z
-x,-y,-z
x,1/2+y,1/2-z
-x,y,z
x,1/2-y,1/2+z
1/2+x,1/2+y,z
1/2-x,-y,1/2+z
1/2+x,1/2-y,-z
1/2-x,y,1/2-z
1/2-x,1/2-y,-z
1/2+x,y,1/2-z
1/2-x,1/2+y,z
1/2+x,-y,1/2+z
loop_
_atom_site_type_symbol
_atom_site_label
_atom_site_fract_x
_atom_site_fract_y
_atom_site_fract_z
Si Si1 0.000000 0.704021 0.165124
Si Si2 0.872035 0.272784 0.094857
Si Si3 0.890795 0.182170 0.908236
Si Si4 0.112394 0.000000 0.000000
Si Si5 0.000000 0.182796 0.649402
Si Si6 0.318690 0.909683 0.233502
Si Si7 0.000000 0.480295 0.753569
Si Si8 0.127456 0.422501 0.686796
O O1 0.058227 0.750084 0.124886
O O2 0.000000 0.734266 0.274623
O O3 0.000000 0.592959 0.159880
O O4 0.940140 0.305250 0.092008
O O5 0.836080 0.357649 0.137744
O O6 0.867736 0.187324 0.170871
O O7 0.855411 0.234243 0.991647
O O8 0.919291 0.092129 0.961643
O O9 0.854455 0.142958 0.818797
O O10 0.149980 0.035690 0.087640
O O11 0.000000 0.086018 0.708940
O O12 0.250000 0.902720 0.250000
O O13 0.338844 0.018079 0.234818
O O14 0.059479 0.455028 0.697467
#
# Coordination Sequence:
#
# PCOD9477992 Si02
#       8
#     8  16  16   8   8  16   8  16
#     4  12  21  37  60  92 130 155 196 251 309 381
#     4  11  21  38  65  87 122 159 200 250 305 363
#     4  10  21  38  59  91 121 157 206 251 301 368
#     4   8  18  31  56  84 110 144 194 255 290 332
#     4  12  19  35  60  93 118 160 196 241 313 375
#     4  11  23  39  60  85 117 159 205 256 302 349
#     4  12  20  32  61  83 122 160 187 238 307 379
#     4  10  19  36  57  87 113 149 196 246 306 356
#
# _framework density 20.748906999999999
#
# number of rings (size 3 to 8) (size 9 to 14) (size 15 to 20)
#    0.000    1.333    5.000    1.500    0.000    4.000 
#    0.000    1.667    0.000    8.000    0.000    0.000 
#    0.000    0.000    0.000    0.000    0.000    0.000 
#
# Total GULP energy -267573.959481 kJ/mol
# GULP energy per Si atom -5574.457489 kJ/mol
# Density = 2.070168 g / cm^3
# Si number density = 20.748907 Si / 1000 Ang^3
#
#
#
# Elastic Constant Matrix: (Units=GPa)
#
#
# Indices 1 2 3 4 5 6 
#
# 1 73.4979 4.2200 -2.8047 0.0000 0.0000 0.0000
# 2 4.2200 73.8782 -4.2595 0.0000 0.0000 0.0000
# 3 -2.8047 -4.2595 37.9188 0.0000 0.0000 0.0000
# 4 0.0000 0.0000 0.0000 34.1223 0.0000 0.0000
# 5 0.0000 0.0000 0.0000 0.0000 -2.1860 0.0000
# 6 0.0000 0.0000 0.0000 0.0000 0.0000 -2.0354
#
#
#
# Elastic Compliance Matrix: (Units=1/GPa)
#
#
# Indices 1 2 3 4 5 6 
#
# 1 0.013683 -0.000728 0.000930 0.000000 0.000000 0.000000
# 2 -0.000728 0.013663 0.001481 0.000000 0.000000 0.000000
# 3 0.000930 0.001481 0.026607 0.000000 0.000000 0.000000
# 4 0.000000 0.000000 0.000000 0.029306 0.000000 0.000000
# 5 0.000000 0.000000 0.000000 0.000000 -0.457464 0.000000
# 6 0.000000 0.000000 0.000000 0.000000 0.000000 -0.491302
#
#
# Mechanical properties :
#
#
# Convention : Reuss Voigt Hill
#
# Bulk Modulus (GPa) = 17.44600 19.95629 18.70114
# Shear Modulus (GPa) = -5.88397 18.52278 6.31941
#
# Velocity S-wave (km/s) = -1.68581 2.99107 1.74707
# Velocity P-wave (km/s) = 2.15340 4.64409 3.61971
#
# Compressibility (1/GPa) = 0.05731974
#
# Stress axis : x y z
#
# Youngs Moduli (GPa) = 73.08272 73.19164 37.58362
#
# Poissons Ratio (x) = 0.05328 -0.03496
# Poissons Ratio (y) = 0.05320 -0.05566
# Poissons Ratio (z) = -0.06799 -0.10839
#
# Static dielectric constant tensor:
#      x y z
#    x 1.727590 0.000000 0.000000 
#    y 0.000000 1.782520 0.000000 
#    z 0.000000 0.000000 1.810890 
# 
# From -- ./inp_files/26404.got.cif
#   From: 2010.05.17/outbox.cif.g08.bks.cpg/sg64_14_cif.got.tgz:26404.got - 2010.06.03 16:29:19.
