data_PCOD9477110
_publ_section_title
;
Structure prediction by ZEFSAII (Michael W. Deem and Ramdas Pophale) SiO2 
 PCOD9477110
Probable space group: C M C A
;
_chemical_formula_sum "Si O2"
_cell_formula_units_Z 56
_cell_length_a 9.751418
_cell_length_b 20.548540
_cell_length_c 12.644137
_cell_angle_alpha 90.000000
_cell_angle_beta 90.000000
_cell_angle_gamma 90.000000
_cell_volume 2533.599333
_symmetry_space_group_name_H-M "C M C A"
_symmetry_group_IT_number 64
_symmetry_cell_setting 'orthorhombic'
loop_
_space_group_symop_operation_xyz
x,y,z
-x,1/2-y,1/2+z
x,-y,-z
-x,1/2+y,1/2-z
-x,-y,-z
x,1/2+y,1/2-z
-x,y,z
x,1/2-y,1/2+z
1/2+x,1/2+y,z
1/2-x,-y,1/2+z
1/2+x,1/2-y,-z
1/2-x,y,1/2-z
1/2-x,1/2-y,-z
1/2+x,y,1/2-z
1/2-x,1/2+y,z
1/2+x,-y,1/2+z
loop_
_atom_site_type_symbol
_atom_site_label
_atom_site_fract_x
_atom_site_fract_y
_atom_site_fract_z
Si Si1 0.500000 0.128472 0.285935
Si Si2 0.000000 0.726955 0.856574
Si Si3 0.750000 0.043497 0.250000
Si Si4 0.000000 0.869795 0.534314
Si Si5 0.250000 0.151916 0.750000
Si Si6 0.257203 0.448200 0.422801
O O1 0.500000 0.196010 0.346658
O O2 0.636856 0.087522 0.306077
O O3 0.500000 0.139497 0.159102
O O4 0.000000 0.699365 0.975191
O O5 0.868226 0.696081 0.799080
O O6 0.677515 0.996485 0.165277
O O7 0.130460 0.909996 0.491107
O O8 0.191652 0.106033 0.845520
O O9 0.181997 0.500000 0.500000
#
# Coordination Sequence:
#
# PCOD9477110 Si02
#       6
#     8   8   8   8   8  16
#     4  12  23  42  63  90 125 162 213 246 297 366
#     4  10  22  43  59  87 119 170 208 248 291 361
#     4  11  23  36  64  98 121 155 198 264 298 361
#     4  10  20  40  69  80 121 180 204 225 317 393
#     4   9  21  38  62  86 121 157 204 254 302 355
#     4  10  18  36  62  91 117 154 201 244 308 371
#
# _framework density 22.102941999999999
#
# number of rings (size 3 to 8) (size 9 to 14) (size 15 to 20)
#    0.000    1.714    2.857    2.143    0.000    3.429 
#    5.143    5.714    0.000    0.000    0.000    0.000 
#    0.000    0.000    0.000    0.000    0.000    0.000 
#
# Total GULP energy -156174.895403 kJ/mol
# GULP energy per Si atom -5577.674836 kJ/mol
# Density = 2.205263 g / cm^3
# Si number density = 22.102942 Si / 1000 Ang^3
#
#
#
# Elastic Constant Matrix: (Units=GPa)
#
#
# Indices 1 2 3 4 5 6 
#
# 1 58.2821 14.3280 -6.9401 0.0000 0.0000 0.0000
# 2 14.3280 114.6077 13.3248 0.0000 0.0000 0.0000
# 3 -6.9401 13.3248 78.3504 0.0000 0.0000 0.0000
# 4 0.0000 0.0000 0.0000 39.8274 0.0000 0.0000
# 5 0.0000 0.0000 0.0000 0.0000 303.5199 0.0000
# 6 0.0000 0.0000 0.0000 0.0000 0.0000 31.3140
#
#
#
# Elastic Compliance Matrix: (Units=1/GPa)
#
#
# Indices 1 2 3 4 5 6 
#
# 1 0.018009 -0.002486 0.002018 0.000000 0.000000 0.000000
# 2 -0.002486 0.009245 -0.001792 0.000000 0.000000 0.000000
# 3 0.002018 -0.001792 0.013247 0.000000 0.000000 0.000000
# 4 0.000000 0.000000 0.000000 0.025108 0.000000 0.000000
# 5 0.000000 0.000000 0.000000 0.000000 0.003295 0.000000
# 6 0.000000 0.000000 0.000000 0.000000 0.000000 0.031935
#
#
# Mechanical properties :
#
#
# Convention : Reuss Voigt Hill
#
# Bulk Modulus (GPa) = 27.79338 32.51840 30.15589
# Shear Modulus (GPa) = 42.60661 90.30076 66.45369
#
# Velocity S-wave (km/s) = 4.39526 6.39870 5.48915
# Velocity P-wave (km/s) = 6.19351 8.32678 7.33808
#
# Compressibility (1/GPa) = 0.03597979
#
# Stress axis : x y z
#
# Youngs Moduli (GPa) = 55.52649 108.17095 75.49017
#
# Poissons Ratio (x) = 0.26893 -0.15234
# Poissons Ratio (y) = 0.13805 0.13531
# Poissons Ratio (z) = -0.11205 0.19389
#
# Static dielectric constant tensor:
#      x y z
#    x 1.763530 0.000000 0.000000 
#    y 0.000000 1.807480 0.000000 
#    z 0.000000 0.000000 1.838510 
# 
# From -- ./inp_files/12776.got.cif
#   From: 2010.05.17/outbox.cif.g08.bks.cpg/sg64_7_cif.got.tgz:12776.got - 2010.06.03 16:29:19.
