data_PCOD9477628
_publ_section_title
;
Structure prediction by ZEFSAII (Michael W. Deem and Ramdas Pophale) SiO2 
 PCOD9477628
Probable space group: C M C A
;
_chemical_formula_sum "Si O2"
_cell_formula_units_Z 104
_cell_length_a 22.069149
_cell_length_b 23.358885
_cell_length_c 10.317065
_cell_angle_alpha 90.000000
_cell_angle_beta 90.000000
_cell_angle_gamma 90.000000
_cell_volume 5318.557540
_symmetry_space_group_name_H-M "C M C A"
_symmetry_group_IT_number 64
_symmetry_cell_setting 'orthorhombic'
loop_
_space_group_symop_operation_xyz
x,y,z
-x,1/2-y,1/2+z
x,-y,-z
-x,1/2+y,1/2-z
-x,-y,-z
x,1/2+y,1/2-z
-x,y,z
x,1/2-y,1/2+z
1/2+x,1/2+y,z
1/2-x,-y,1/2+z
1/2+x,1/2-y,-z
1/2-x,y,1/2-z
1/2-x,1/2-y,-z
1/2+x,y,1/2-z
1/2-x,1/2+y,z
1/2+x,-y,1/2+z
loop_
_atom_site_type_symbol
_atom_site_label
_atom_site_fract_x
_atom_site_fract_y
_atom_site_fract_z
Si Si1 0.834112 0.197820 0.922083
Si Si2 0.250000 0.621621 0.750000
Si Si3 0.500000 0.455382 0.881579
Si Si4 0.821626 0.296112 0.726865
Si Si5 0.887794 0.086358 0.988751
Si Si6 0.178828 0.074711 0.232528
Si Si7 0.500000 0.965858 0.131501
Si Si8 0.870171 0.544070 0.785052
O O1 0.775643 0.163066 0.864147
O O2 0.847779 0.248468 0.822774
O O3 0.828561 0.215449 0.072757
O O4 0.884876 0.148805 0.926459
O O5 0.191479 0.582808 0.793285
O O6 0.441461 0.418059 0.909649
O O7 0.500000 0.488104 0.748112
O O8 0.500000 0.500000 0.000000
O O9 0.750000 0.295460 0.750000
O O10 0.842113 0.360523 0.763619
O O11 0.830342 0.072505 0.076880
O O12 0.888701 0.044989 0.867048
O O13 0.250000 0.069430 0.250000
O O14 0.147188 0.022419 0.308216
O O15 0.432860 0.936734 0.145204
O O16 0.500000 0.000000 0.000000
#
# Coordination Sequence:
#
# PCOD9477628 Si02
#       8
#    16   8   8  16  16  16   8  16
#     4  10  21  37  57  89 124 160 215 262 325 393
#     4  10  22  36  62  96 130 166 214 278 322 384
#     4  12  18  38  70  81 112 165 216 258 299 390
#     4  10  20  35  57  79 123 159 206 257 318 387
#     4  10  20  35  65  91 111 162 225 259 309 386
#     4  10  19  33  55  94 125 158 201 262 322 379
#     4  12  26  42  58  93 134 179 212 256 327 395
#     4  11  20  41  58  91 131 167 211 264 321 394
#
# _framework density 19.554172999999999
#
# number of rings (size 3 to 8) (size 9 to 14) (size 15 to 20)
#    0.000    1.538    4.615    0.923    0.000    0.000 
#   11.077    0.000    0.000    4.615    0.000    0.000 
#    0.000    1.231    0.000    0.000    0.000    0.000 
#
# Total GULP energy -289515.068344 kJ/mol
# GULP energy per Si atom -5567.597468 kJ/mol
# Density = 1.950967 g / cm^3
# Si number density = 19.554173 Si / 1000 Ang^3
#
#
#
# Elastic Constant Matrix: (Units=GPa)
#
#
# Indices 1 2 3 4 5 6 
#
# 1 94.4580 25.1552 24.9390 0.0000 0.0000 0.0000
# 2 25.1552 114.7618 31.1574 0.0000 0.0000 0.0000
# 3 24.9390 31.1574 72.7513 0.0000 0.0000 0.0000
# 4 0.0000 0.0000 0.0000 21.8841 0.0000 0.0000
# 5 0.0000 0.0000 0.0000 0.0000 27.5543 0.0000
# 6 0.0000 0.0000 0.0000 0.0000 0.0000 -1.2658
#
#
#
# Elastic Compliance Matrix: (Units=1/GPa)
#
#
# Indices 1 2 3 4 5 6 
#
# 1 0.011927 -0.001702 -0.003360 0.000000 0.000000 0.000000
# 2 -0.001702 0.010103 -0.003743 0.000000 0.000000 0.000000
# 3 -0.003360 -0.003743 0.016500 0.000000 0.000000 0.000000
# 4 0.000000 0.000000 0.000000 0.045695 0.000000 0.000000
# 5 0.000000 0.000000 0.000000 0.000000 0.036292 0.000000
# 6 0.000000 0.000000 0.000000 0.000000 0.000000 -0.790002
#
#
# Mechanical properties :
#
#
# Convention : Reuss Voigt Hill
#
# Bulk Modulus (GPa) = 47.80081 49.38603 48.59342
# Shear Modulus (GPa) = -7.75313 23.01581 7.63134
#
# Velocity S-wave (km/s) = -1.99338 3.43451 1.97766
# Velocity P-wave (km/s) = 4.38182 6.40614 5.48812
#
# Compressibility (1/GPa) = 0.02092015
#
# Stress axis : x y z
#
# Youngs Moduli (GPa) = 83.84320 98.97912 60.60500
#
# Poissons Ratio (x) = 0.16849 0.20360
# Poissons Ratio (y) = 0.14272 0.22687
# Poissons Ratio (z) = 0.28167 0.37052
#
# Static dielectric constant tensor:
#      x y z
#    x 1.799860 0.000000 0.000000 
#    y 0.000000 1.766140 0.000000 
#    z 0.000000 0.000000 1.694200 
# 
# From -- ./inp_files/9716.got.cif
#   From: 2010.05.17/outbox.cif.g08.bks.cpg/sg64_5_cif.got.tgz:9716.got - 2010.06.03 16:29:19.
