data_PCOD9477701
_publ_section_title
;
Structure prediction by ZEFSAII (Michael W. Deem and Ramdas Pophale) SiO2 
 PCOD9477701
Probable space group: C M C A
;
_chemical_formula_sum "Si O2"
_cell_formula_units_Z 96
_cell_length_a 7.629734
_cell_length_b 26.257930
_cell_length_c 24.373845
_cell_angle_alpha 90.000000
_cell_angle_beta 90.000000
_cell_angle_gamma 90.000000
_cell_volume 4883.081000
_symmetry_space_group_name_H-M "C M C A"
_symmetry_group_IT_number 64
_symmetry_cell_setting 'orthorhombic'
loop_
_space_group_symop_operation_xyz
x,y,z
-x,1/2-y,1/2+z
x,-y,-z
-x,1/2+y,1/2-z
-x,-y,-z
x,1/2+y,1/2-z
-x,y,z
x,1/2-y,1/2+z
1/2+x,1/2+y,z
1/2-x,-y,1/2+z
1/2+x,1/2-y,-z
1/2-x,y,1/2-z
1/2-x,1/2-y,-z
1/2+x,y,1/2-z
1/2-x,1/2+y,z
1/2+x,-y,1/2+z
loop_
_atom_site_type_symbol
_atom_site_label
_atom_site_fract_x
_atom_site_fract_y
_atom_site_fract_z
Si Si1 0.210386 0.059605 0.687000
Si Si2 0.705619 0.852846 0.885699
Si Si3 0.214849 0.155876 0.619073
Si Si4 0.288853 0.944482 0.813023
Si Si5 0.289109 0.310040 0.500026
Si Si6 0.291244 0.744492 0.185763
O O1 0.250000 0.073602 0.750000
O O2 0.275058 0.103218 0.646198
O O3 0.000000 0.057747 0.681561
O O4 0.277291 0.002106 0.677672
O O5 0.500000 0.863431 0.894740
O O6 0.780437 0.902312 0.855087
O O7 0.780568 0.836205 0.944561
O O8 0.718190 0.804813 0.845039
O O9 0.273070 0.165228 0.556779
O O10 0.270824 0.203903 0.656097
O O11 0.000000 0.155532 0.619344
O O12 0.500000 0.945725 0.817695
O O13 0.250000 0.930196 0.750000
O O14 0.500000 0.314510 0.500555
O O15 0.250000 0.250000 0.500000
O O16 0.500000 0.742319 0.179172
O O17 0.250000 0.744707 0.250000
#
# Coordination Sequence:
#
# PCOD9477701 Si02
#       6
#    16  16  16  16  16  16
#     4   9  17  32  52  72  98 129 162 201 246 295
#     4  10  20  33  50  73 100 129 165 205 243 292
#     4   9  18  32  50  72  98 128 162 203 247 291
#     4   9  18  32  50  73  98 128 163 200 245 293
#     4  10  19  34  52  71  98 132 168 203 244 293
#     4  11  21  32  48  72 101 129 161 201 249 298
#
# _framework density 19.659718999999999
#
# number of rings (size 3 to 8) (size 9 to 14) (size 15 to 20)
#    0.000    2.333    1.667    1.500    0.000    2.000 
#    0.000    2.500    0.000    5.000    0.000    0.000 
#    0.000    8.000    0.000    0.000    0.000    0.000 
#
# Total GULP energy -267958.721733 kJ/mol
# GULP energy per Si atom -5582.473369 kJ/mol
# Density = 1.961497 g / cm^3
# Si number density = 19.659719 Si / 1000 Ang^3
#
#
#
# Elastic Constant Matrix: (Units=GPa)
#
#
# Indices 1 2 3 4 5 6 
#
# 1 40.1016 0.5571 -2.9039 0.0000 0.0000 0.0000
# 2 0.5571 155.6885 123.9980 0.0000 0.0000 0.0000
# 3 -2.9039 123.9980 203.5759 0.0000 0.0000 0.0000
# 4 0.0000 0.0000 0.0000 27.4418 0.0000 0.0000
# 5 0.0000 0.0000 0.0000 0.0000 2.7848 0.0000
# 6 0.0000 0.0000 0.0000 0.0000 0.0000 14.8652
#
#
#
# Elastic Compliance Matrix: (Units=1/GPa)
#
#
# Indices 1 2 3 4 5 6 
#
# 1 0.025005 -0.000725 0.000799 0.000000 0.000000 0.000000
# 2 -0.000725 0.012496 -0.007622 0.000000 0.000000 0.000000
# 3 0.000799 -0.007622 0.009566 0.000000 0.000000 0.000000
# 4 0.000000 0.000000 0.000000 0.036441 0.000000 0.000000
# 5 0.000000 0.000000 0.000000 0.000000 0.359088 0.000000
# 6 0.000000 0.000000 0.000000 0.000000 0.000000 0.067271
#
#
# Mechanical properties :
#
#
# Convention : Reuss Voigt Hill
#
# Bulk Modulus (GPa) = 31.28000 71.40759 51.34379
# Shear Modulus (GPa) = 9.33497 27.53267 18.43382
#
# Velocity S-wave (km/s) = 2.18142 3.74633 3.06542
# Velocity P-wave (km/s) = 4.72123 7.42388 6.22109
#
# Compressibility (1/GPa) = 0.03196931
#
# Stress axis : x y z
#
# Youngs Moduli (GPa) = 39.99269 80.02632 104.53831
#
# Poissons Ratio (x) = 0.05806 -0.08348
# Poissons Ratio (y) = 0.02901 0.79675
# Poissons Ratio (z) = -0.03194 0.60993
#
# Static dielectric constant tensor:
#      x y z
#    x 1.745290 0.000000 0.000000 
#    y 0.000000 1.679890 0.000000 
#    z 0.000000 0.000000 1.669230 
# 
# From -- ./inp_files/36988.got.cif
#   From: 2010.05.17/outbox.cif.g08.bks.cpg/sg64_19_cif.got.tgz:36988.got - 2010.06.03 16:29:19.
