data_PCOD9477817
_publ_section_title
;
Structure prediction by ZEFSAII (Michael W. Deem and Ramdas Pophale) SiO2 
 PCOD9477817
Probable space group: C M C A
;
_chemical_formula_sum "Si O2"
_cell_formula_units_Z 96
_cell_length_a 28.124887
_cell_length_b 32.319762
_cell_length_c 5.128845
_cell_angle_alpha 90.000000
_cell_angle_beta 90.000000
_cell_angle_gamma 90.000000
_cell_volume 4662.067043
_symmetry_space_group_name_H-M "C M C A"
_symmetry_group_IT_number 64
_symmetry_cell_setting 'orthorhombic'
loop_
_space_group_symop_operation_xyz
x,y,z
-x,1/2-y,1/2+z
x,-y,-z
-x,1/2+y,1/2-z
-x,-y,-z
x,1/2+y,1/2-z
-x,y,z
x,1/2-y,1/2+z
1/2+x,1/2+y,z
1/2-x,-y,1/2+z
1/2+x,1/2-y,-z
1/2-x,y,1/2-z
1/2-x,1/2-y,-z
1/2+x,y,1/2-z
1/2-x,1/2+y,z
1/2+x,-y,1/2+z
loop_
_atom_site_type_symbol
_atom_site_label
_atom_site_fract_x
_atom_site_fract_y
_atom_site_fract_z
Si Si1 0.000000 0.137427 0.865024
Si Si2 0.099063 0.191793 0.251063
Si Si3 0.302132 0.724153 0.404650
Si Si4 0.697408 0.909643 0.388770
Si Si5 0.000000 0.193755 0.363026
Si Si6 0.602587 0.636277 0.743999
Si Si7 0.250000 0.648466 0.250000
Si Si8 0.783541 0.500000 0.500000
O O1 0.000000 0.175999 0.656789
O O2 0.051210 0.116255 0.817111
O O3 0.000000 0.155222 0.157305
O O4 0.141945 0.217140 0.372998
O O5 0.049201 0.215322 0.287514
O O6 0.096616 0.153316 0.452519
O O7 0.107555 0.173562 0.960871
O O8 0.291273 0.756945 0.623694
O O9 0.276852 0.679995 0.444900
O O10 0.750000 0.909227 0.250000
O O11 0.650453 0.890806 0.258201
O O12 0.709401 0.880057 0.631280
O O13 0.688575 0.957425 0.457906
O O14 0.750000 0.506869 0.250000
#
# Coordination Sequence:
#
# PCOD9477817 Si02
#       8
#     8  16  16  16   8  16   8   8
#     4   8  16  30  52  84 112 138 188 241 275 322
#     4  10  19  37  56  81 109 145 192 236 290 332
#     4  12  26  40  54  78 113 149 192 241 284 332
#     4  11  23  37  63  88 120 153 193 236 287 354
#     4   8  16  30  56  79 104 137 184 241 283 338
#     4  10  19  34  59  85 111 150 193 234 280 346
#     4  12  24  40  60  78 110 156 194 230 282 352
#     4  10  22  40  56  89 124 149 186 238 292 338
#
# _framework density 20.591723999999999
#
# number of rings (size 3 to 8) (size 9 to 14) (size 15 to 20)
#    0.000    1.667    2.500    2.500    2.333    0.000 
#    0.000    0.833    0.000    0.500    0.000    0.000 
#    0.000   12.000    0.000    0.000    0.000    1.750 
#
# Total GULP energy -267769.228805 kJ/mol
# GULP energy per Si atom -5578.525600 kJ/mol
# Density = 2.054486 g / cm^3
# Si number density = 20.591724 Si / 1000 Ang^3
#
#
#
# Elastic Constant Matrix: (Units=GPa)
#
#
# Indices 1 2 3 4 5 6 
#
# 1 139.2337 22.5299 4.2057 0.0000 0.0000 0.0000
# 2 22.5299 70.5648 11.7213 0.0000 0.0000 0.0000
# 3 4.2057 11.7213 85.4831 0.0000 0.0000 0.0000
# 4 0.0000 0.0000 0.0000 7.4089 0.0000 0.0000
# 5 0.0000 0.0000 0.0000 0.0000 29.9787 0.0000
# 6 0.0000 0.0000 0.0000 0.0000 0.0000 19.5462
#
#
#
# Elastic Compliance Matrix: (Units=1/GPa)
#
#
# Indices 1 2 3 4 5 6 
#
# 1 0.007574 -0.002411 -0.000042 0.000000 0.000000 0.000000
# 2 -0.002411 0.015269 -0.001975 0.000000 0.000000 0.000000
# 3 -0.000042 -0.001975 0.011971 0.000000 0.000000 0.000000
# 4 0.000000 0.000000 0.000000 0.134972 0.000000 0.000000
# 5 0.000000 0.000000 0.000000 0.000000 0.033357 0.000000
# 6 0.000000 0.000000 0.000000 0.000000 0.000000 0.051161
#
#
# Mechanical properties :
#
#
# Convention : Reuss Voigt Hill
#
# Bulk Modulus (GPa) = 38.52442 41.35506 39.93974
# Shear Modulus (GPa) = 18.39498 28.50840 23.45169
#
# Velocity S-wave (km/s) = 2.99209 3.72487 3.37840
# Velocity P-wave (km/s) = 5.53950 6.21502 5.88696
#
# Compressibility (1/GPa) = 0.02595756
#
# Stress axis : x y z
#
# Youngs Moduli (GPa) = 132.03775 65.49106 83.53446
#
# Poissons Ratio (x) = 0.15791 0.00351
# Poissons Ratio (y) = 0.31836 0.16499
# Poissons Ratio (z) = 0.00555 0.12935
#
# Static dielectric constant tensor:
#      x y z
#    x 1.932880 0.000000 0.000000 
#    y 0.000000 1.690360 0.000000 
#    z 0.000000 0.000000 1.754260 
# 
# From -- ./inp_files/3467.got.cif
#   From: 2010.05.17/outbox.cif.g08.bks.cpg/sg64_2_cif.got.tgz:3467.got - 2010.06.03 16:29:19.
