data_PCOD9477527
_publ_section_title
;
Structure prediction by ZEFSAII (Michael W. Deem and Ramdas Pophale) SiO2 
 PCOD9477527
Probable space group: C M C A
;
_chemical_formula_sum "Si O2"
_cell_formula_units_Z 112
_cell_length_a 18.078843
_cell_length_b 29.820296
_cell_length_c 13.095001
_cell_angle_alpha 90.000000
_cell_angle_beta 90.000000
_cell_angle_gamma 90.000000
_cell_volume 7059.730447
_symmetry_space_group_name_H-M "C M C A"
_symmetry_group_IT_number 64
_symmetry_cell_setting 'orthorhombic'
loop_
_space_group_symop_operation_xyz
x,y,z
-x,1/2-y,1/2+z
x,-y,-z
-x,1/2+y,1/2-z
-x,-y,-z
x,1/2+y,1/2-z
-x,y,z
x,1/2-y,1/2+z
1/2+x,1/2+y,z
1/2-x,-y,1/2+z
1/2+x,1/2-y,-z
1/2-x,y,1/2-z
1/2-x,1/2-y,-z
1/2+x,y,1/2-z
1/2-x,1/2+y,z
1/2+x,-y,1/2+z
loop_
_atom_site_type_symbol
_atom_site_label
_atom_site_fract_x
_atom_site_fract_y
_atom_site_fract_z
Si Si1 0.665331 0.681086 0.719580
Si Si2 0.914408 0.780160 0.079872
Si Si3 0.409907 0.996935 0.882157
Si Si4 0.820940 0.224380 0.119196
Si Si5 0.414765 0.093760 0.861613
Si Si6 0.654149 0.805855 0.846672
Si Si7 0.085555 0.600807 0.107711
O O1 0.750000 0.674478 0.750000
O O2 0.620056 0.696663 0.819752
O O3 0.666333 0.722551 0.639589
O O4 0.631546 0.635619 0.676789
O O5 0.905232 0.726969 0.101526
O O6 0.000000 0.791777 0.066274
O O7 0.866056 0.790505 0.979662
O O8 0.500000 0.997573 0.883429
O O9 0.389718 0.947126 0.845227
O O10 0.387521 0.043809 0.830386
O O11 0.384973 0.000000 0.000000
O O12 0.733975 0.212022 0.113633
O O13 0.847098 0.201924 0.224971
O O14 0.500000 0.098943 0.827780
O O15 0.415236 0.094727 0.985043
O O16 0.636895 0.857242 0.868148
O O17 0.000000 0.609700 0.138623
#
# Coordination Sequence:
#
# PCOD9477527 Si02
#       7
#    16  16  16  16  16  16  16
#     4  11  21  34  49  70  98 135 172 200 246 304
#     4  11  22  33  50  73 100 130 171 213 241 288
#     4   7  12  25  43  70 101 121 144 191 253 295
#     4  10  21  36  48  66  97 137 163 200 250 287
#     4   9  17  29  48  73 101 126 153 197 251 299
#     4  10  19  33  50  69  96 132 165 195 244 298
#     4   9  16  26  49  78  98 121 157 199 243 297
#
# _framework density 15.864629000000001
#
# number of rings (size 3 to 8) (size 9 to 14) (size 15 to 20)
#    0.000    2.429    2.857    3.857    2.000    4.571 
#    0.000    0.000    3.143    0.000    0.000    1.000 
#    0.000    4.571    0.000    0.000    0.000    0.000 
#
# Total GULP energy -311846.028957 kJ/mol
# GULP energy per Si atom -5568.679089 kJ/mol
# Density = 1.582852 g / cm^3
# Si number density = 15.864629 Si / 1000 Ang^3
#
#
#
# Elastic Constant Matrix: (Units=GPa)
#
#
# Indices 1 2 3 4 5 6 
#
# 1 64.6611 40.7218 27.2274 0.0000 0.0000 0.0000
# 2 40.7218 137.2812 23.6397 0.0000 0.0000 0.0000
# 3 27.2274 23.6397 42.1400 0.0000 0.0000 0.0000
# 4 0.0000 0.0000 0.0000 15.9369 0.0000 0.0000
# 5 0.0000 0.0000 0.0000 0.0000 7.2436 0.0000
# 6 0.0000 0.0000 0.0000 0.0000 0.0000 21.5362
#
#
#
# Elastic Compliance Matrix: (Units=1/GPa)
#
#
# Indices 1 2 3 4 5 6 
#
# 1 0.023896 -0.004903 -0.012689 0.000000 0.000000 0.000000
# 2 -0.004903 0.009069 -0.001920 0.000000 0.000000 0.000000
# 3 -0.012689 -0.001920 0.033006 0.000000 0.000000 0.000000
# 4 0.000000 0.000000 0.000000 0.062747 0.000000 0.000000
# 5 0.000000 0.000000 0.000000 0.000000 0.138053 0.000000
# 6 0.000000 0.000000 0.000000 0.000000 0.000000 0.046433
#
#
# Mechanical properties :
#
#
# Convention : Reuss Voigt Hill
#
# Bulk Modulus (GPa) = 37.10924 47.47333 42.29129
# Shear Modulus (GPa) = 13.84228 19.10957 16.47593
#
# Velocity S-wave (km/s) = 2.95706 3.47441 3.22612
# Velocity P-wave (km/s) = 5.92460 6.78855 6.37123
#
# Compressibility (1/GPa) = 0.02694746
#
# Stress axis : x y z
#
# Youngs Moduli (GPa) = 41.84739 110.26154 30.29755
#
# Poissons Ratio (x) = 0.54065 0.38445
# Poissons Ratio (y) = 0.20519 0.05816
# Poissons Ratio (z) = 0.53101 0.21166
#
# Static dielectric constant tensor:
#      x y z
#    x 1.529500 0.000000 0.000000 
#    y 0.000000 1.566430 0.000000 
#    z 0.000000 0.000000 1.530800 
# 
# From -- ./inp_files/17653.got.cif
#   From: 2010.05.17/outbox.cif.g08.bks.cpg/sg64_9_cif.got.tgz:17653.got - 2010.06.03 16:29:19.
