data_PCOD9477187
_publ_section_title
;
Structure prediction by ZEFSAII (Michael W. Deem and Ramdas Pophale) SiO2 
 PCOD9477187
Probable space group: C M C A
;
_chemical_formula_sum "Si O2"
_cell_formula_units_Z 96
_cell_length_a 8.767848
_cell_length_b 27.604421
_cell_length_c 23.495966
_cell_angle_alpha 90.000000
_cell_angle_beta 90.000000
_cell_angle_gamma 90.000000
_cell_volume 5686.760781
_symmetry_space_group_name_H-M "C M C A"
_symmetry_group_IT_number 64
_symmetry_cell_setting 'orthorhombic'
loop_
_space_group_symop_operation_xyz
x,y,z
-x,1/2-y,1/2+z
x,-y,-z
-x,1/2+y,1/2-z
-x,-y,-z
x,1/2+y,1/2-z
-x,y,z
x,1/2-y,1/2+z
1/2+x,1/2+y,z
1/2-x,-y,1/2+z
1/2+x,1/2-y,-z
1/2-x,y,1/2-z
1/2-x,1/2-y,-z
1/2+x,y,1/2-z
1/2-x,1/2+y,z
1/2+x,-y,1/2+z
loop_
_atom_site_type_symbol
_atom_site_label
_atom_site_fract_x
_atom_site_fract_y
_atom_site_fract_z
Si Si1 0.318080 0.193574 0.812896
Si Si2 0.683091 0.696906 0.186257
Si Si3 0.684226 0.943666 0.502681
Si Si4 0.326566 0.300298 0.487997
Si Si5 0.321688 0.127575 0.595377
Si Si6 0.827329 0.372222 0.906497
O O1 0.500000 0.192558 0.810886
O O2 0.250000 0.190782 0.750000
O O3 0.274109 0.248159 0.834972
O O4 0.260721 0.147476 0.848683
O O5 0.500000 0.694955 0.188449
O O6 0.750000 0.692254 0.250000
O O7 0.742810 0.653742 0.145970
O O8 0.500000 0.939328 0.504884
O O9 0.734423 0.917413 0.443570
O O10 0.749540 0.916178 0.558298
O O11 0.725626 0.000000 0.500000
O O12 0.500000 0.296954 0.464274
O O13 0.250000 0.250000 0.500000
O O14 0.212257 0.328386 0.447127
O O15 0.335350 0.330552 0.545738
O O16 0.500000 0.120873 0.607090
O O17 0.000000 0.385760 0.889987
#
# Coordination Sequence:
#
# PCOD9477187 Si02
#       6
#    16  16  16  16  16  16
#     4  10  20  33  50  73 103 138 173 205 240 287
#     4  10  20  33  50  72 101 137 172 204 239 285
#     4   9  19  36  56  76  98 127 164 208 258 306
#     4  10  19  29  43  66  97 130 162 198 241 291
#     4  10  19  31  49  72  98 128 163 203 248 297
#     4  10  20  32  48  72 100 129 163 203 247 296
#
# _framework density 16.881316000000002
#
# number of rings (size 3 to 8) (size 9 to 14) (size 15 to 20)
#    0.000    2.167    0.000    3.500    0.000    7.667 
#    0.000    0.000    0.000    1.000    0.000    4.667 
#    0.000    0.000    0.000    0.000    0.000    0.000 
#
# Total GULP energy -267344.170574 kJ/mol
# GULP energy per Si atom -5569.670220 kJ/mol
# Density = 1.684289 g / cm^3
# Si number density = 16.881316 Si / 1000 Ang^3
#
#
#
# Elastic Constant Matrix: (Units=GPa)
#
#
# Indices 1 2 3 4 5 6 
#
# 1 56.5679 34.6741 31.5773 0.0000 0.0000 0.0000
# 2 34.6741 129.1413 49.4187 0.0000 0.0000 0.0000
# 3 31.5773 49.4187 81.7171 0.0000 0.0000 0.0000
# 4 0.0000 0.0000 0.0000 20.3228 0.0000 0.0000
# 5 0.0000 0.0000 0.0000 0.0000 30.2314 0.0000
# 6 0.0000 0.0000 0.0000 0.0000 0.0000 18.2347
#
#
#
# Elastic Compliance Matrix: (Units=1/GPa)
#
#
# Indices 1 2 3 4 5 6 
#
# 1 0.023854 -0.003744 -0.006954 0.000000 0.000000 0.000000
# 2 -0.003744 0.010663 -0.005002 0.000000 0.000000 0.000000
# 3 -0.006954 -0.005002 0.017949 0.000000 0.000000 0.000000
# 4 0.000000 0.000000 0.000000 0.049206 0.000000 0.000000
# 5 0.000000 0.000000 0.000000 0.000000 0.033078 0.000000
# 6 0.000000 0.000000 0.000000 0.000000 0.000000 0.054841
#
#
# Mechanical properties :
#
#
# Convention : Reuss Voigt Hill
#
# Bulk Modulus (GPa) = 47.46566 55.41847 51.44207
# Shear Modulus (GPa) = 21.92869 23.87485 22.90177
#
# Velocity S-wave (km/s) = 3.60806 3.76477 3.68725
# Velocity P-wave (km/s) = 6.74802 7.19705 6.97615
#
# Compressibility (1/GPa) = 0.02106786
#
# Stress axis : x y z
#
# Youngs Moduli (GPa) = 41.92089 93.78558 55.71301
#
# Poissons Ratio (x) = 0.35112 0.38742
# Poissons Ratio (y) = 0.15695 0.27865
# Poissons Ratio (z) = 0.29151 0.46907
#
# Static dielectric constant tensor:
#      x y z
#    x 1.584580 0.000000 0.000000 
#    y 0.000000 1.573360 0.000000 
#    z 0.000000 0.000000 1.588680 
# 
# From -- ./inp_files/37088.got.cif
#   From: 2010.05.17/outbox.cif.g08.bks.cpg/sg64_19_cif.got.tgz:37088.got - 2010.06.03 16:29:19.
