data_PCOD9477369
_publ_section_title
;
Structure prediction by ZEFSAII (Michael W. Deem and Ramdas Pophale) SiO2 
 PCOD9477369
Probable space group: C M C A
;
_chemical_formula_sum "Si O2"
_cell_formula_units_Z 112
_cell_length_a 20.210327
_cell_length_b 17.897903
_cell_length_c 16.645190
_cell_angle_alpha 90.000000
_cell_angle_beta 90.000000
_cell_angle_gamma 90.000000
_cell_volume 6020.939278
_symmetry_space_group_name_H-M "C M C A"
_symmetry_group_IT_number 64
_symmetry_cell_setting 'orthorhombic'
loop_
_space_group_symop_operation_xyz
x,y,z
-x,1/2-y,1/2+z
x,-y,-z
-x,1/2+y,1/2-z
-x,-y,-z
x,1/2+y,1/2-z
-x,y,z
x,1/2-y,1/2+z
1/2+x,1/2+y,z
1/2-x,-y,1/2+z
1/2+x,1/2-y,-z
1/2-x,y,1/2-z
1/2-x,1/2-y,-z
1/2+x,y,1/2-z
1/2-x,1/2+y,z
1/2+x,-y,1/2+z
loop_
_atom_site_type_symbol
_atom_site_label
_atom_site_fract_x
_atom_site_fract_y
_atom_site_fract_z
Si Si1 0.696001 0.191114 0.465507
Si Si2 0.224439 0.557443 0.572800
Si Si3 0.802688 0.923085 0.821785
Si Si4 0.575961 0.849181 0.760232
Si Si5 0.628447 0.578082 0.597953
Si Si6 0.421672 0.583950 0.419921
Si Si7 0.924694 0.268453 0.126843
O O1 0.750000 0.250000 0.500000
O O2 0.686911 0.128016 0.534721
O O3 0.717728 0.140142 0.388147
O O4 0.630170 0.233554 0.433721
O O5 0.241713 0.500000 0.500000
O O6 0.190298 0.503245 0.636154
O O7 0.293596 0.583072 0.611160
O O8 0.750000 0.924826 0.750000
O O9 0.872910 0.900939 0.785767
O O10 0.500000 0.875330 0.753739
O O11 0.592057 0.852566 0.854515
O O12 0.581035 0.772011 0.712726
O O13 0.601023 0.495809 0.615864
O O14 0.616444 0.591832 0.502858
O O15 0.589706 0.644683 0.638850
O O16 0.500000 0.581395 0.437720
O O17 0.000000 0.257198 0.097025
#
# Coordination Sequence:
#
# PCOD9477369 Si02
#       7
#    16  16  16  16  16  16  16
#     4  10  20  36  56  79 111 148 179 226 284 330
#     4  10  19  33  54  80 109 142 177 230 284 322
#     4  10  21  35  58  83 110 146 193 233 277 332
#     4   9  20  37  55  77 114 155 186 223 276 336
#     4  11  18  30  57  86 113 138 180 235 285 333
#     4  10  19  31  53  85 112 143 182 231 288 335
#     4  10  20  35  55  80 111 150 187 221 271 341
#
# _framework density 18.601749000000002
#
# number of rings (size 3 to 8) (size 9 to 14) (size 15 to 20)
#    0.000    2.000    2.857    2.571    2.000    0.000 
#    0.000    1.429    9.429    4.286    0.000    0.000 
#    0.000    0.000    0.000    0.000    0.000    0.000 
#
# Total GULP energy -312180.093749 kJ/mol
# GULP energy per Si atom -5574.644531 kJ/mol
# Density = 1.855941 g / cm^3
# Si number density = 18.601749 Si / 1000 Ang^3
#
#
#
# Elastic Constant Matrix: (Units=GPa)
#
#
# Indices 1 2 3 4 5 6 
#
# 1 23.1828 6.8054 2.5512 0.0000 0.0000 0.0000
# 2 6.8054 75.8868 21.2815 0.0000 0.0000 0.0000
# 3 2.5512 21.2815 47.3999 0.0000 0.0000 0.0000
# 4 0.0000 0.0000 0.0000 15.4317 0.0000 0.0000
# 5 0.0000 0.0000 0.0000 0.0000 22.5614 0.0000
# 6 0.0000 0.0000 0.0000 0.0000 0.0000 15.2206
#
#
#
# Elastic Compliance Matrix: (Units=1/GPa)
#
#
# Indices 1 2 3 4 5 6 
#
# 1 0.044321 -0.003782 -0.000688 0.000000 0.000000 0.000000
# 2 -0.003782 0.015398 -0.006710 0.000000 0.000000 0.000000
# 3 -0.000688 -0.006710 0.024147 0.000000 0.000000 0.000000
# 4 0.000000 0.000000 0.000000 0.064802 0.000000 0.000000
# 5 0.000000 0.000000 0.000000 0.000000 0.044323 0.000000
# 6 0.000000 0.000000 0.000000 0.000000 0.000000 0.065701
#
#
# Mechanical properties :
#
#
# Convention : Reuss Voigt Hill
#
# Bulk Modulus (GPa) = 16.25815 23.08285 19.67050
# Shear Modulus (GPa) = 16.58082 18.36484 17.47283
#
# Velocity S-wave (km/s) = 2.98880 3.14548 3.06814
# Velocity P-wave (km/s) = 4.54639 5.06241 4.81132
#
# Compressibility (1/GPa) = 0.06150761
#
# Stress axis : x y z
#
# Youngs Moduli (GPa) = 22.56258 64.94187 41.41350
#
# Poissons Ratio (x) = 0.24560 0.02847
# Poissons Ratio (y) = 0.08533 0.27788
# Poissons Ratio (z) = 0.01551 0.43576
#
# Static dielectric constant tensor:
#      x y z
#    x 1.644420 0.000000 0.000000 
#    y 0.000000 1.656190 0.000000 
#    z 0.000000 0.000000 1.662100 
# 
# From -- ./inp_files/34498.got.cif
#   From: 2010.05.17/outbox.cif.g08.bks.cpg/sg64_18_cif.got.tgz:34498.got - 2010.06.03 16:29:19.
