data_PCOD9477208
_publ_section_title
;
Structure prediction by ZEFSAII (Michael W. Deem and Ramdas Pophale) SiO2 
 PCOD9477208
Probable space group: C M C A
;
_chemical_formula_sum "Si O2"
_cell_formula_units_Z 112
_cell_length_a 7.937255
_cell_length_b 26.397879
_cell_length_c 30.010561
_cell_angle_alpha 90.000000
_cell_angle_beta 90.000000
_cell_angle_gamma 90.000000
_cell_volume 6288.013724
_symmetry_space_group_name_H-M "C M C A"
_symmetry_group_IT_number 64
_symmetry_cell_setting 'orthorhombic'
loop_
_space_group_symop_operation_xyz
x,y,z
-x,1/2-y,1/2+z
x,-y,-z
-x,1/2+y,1/2-z
-x,-y,-z
x,1/2+y,1/2-z
-x,y,z
x,1/2-y,1/2+z
1/2+x,1/2+y,z
1/2-x,-y,1/2+z
1/2+x,1/2-y,-z
1/2-x,y,1/2-z
1/2-x,1/2-y,-z
1/2+x,y,1/2-z
1/2-x,1/2+y,z
1/2+x,-y,1/2+z
loop_
_atom_site_type_symbol
_atom_site_label
_atom_site_fract_x
_atom_site_fract_y
_atom_site_fract_z
Si Si1 0.206523 0.848757 0.142901
Si Si2 0.296969 0.750007 0.801688
Si Si3 0.703033 0.808592 0.951594
Si Si4 0.702370 0.153140 0.142214
Si Si5 0.200559 0.057967 0.199621
Si Si6 0.297725 0.691802 0.950719
Si Si7 0.796717 0.556414 0.699398
O O1 0.259977 0.800661 0.172751
O O2 0.262005 0.839283 0.092148
O O3 0.264268 0.900883 0.165337
O O4 0.000000 0.849260 0.143157
O O5 0.500000 0.750361 0.804403
O O6 0.250000 0.749928 0.750000
O O7 0.234518 0.800255 0.827206
O O8 0.500000 0.807305 0.950352
O O9 0.763558 0.839146 0.908419
O O10 0.763808 0.750166 0.947682
O O11 0.752653 0.828015 0.000343
O O12 0.500000 0.157556 0.141003
O O13 0.742915 0.099991 0.164808
O O14 0.250000 0.072754 0.250000
O O15 0.000000 0.055604 0.198084
O O16 0.266898 0.000877 0.191353
O O17 0.500000 0.693838 0.947928
O O18 0.750000 0.570470 0.750000
O O19 0.000000 0.555267 0.696735
#
# Coordination Sequence:
#
# PCOD9477208 Si02
#       7
#    16  16  16  16  16  16  16
#     4   9  16  30  50  69  93 124 154 187 233 283
#     4  10  19  30  44  66  95 124 152 183 226 281
#     4   9  17  30  47  69  96 124 154 191 234 280
#     4  10  19  32  49  68  95 128 157 190 235 282
#     4  10  20  33  49  70  94 123 162 200 232 271
#     4   9  16  29  49  70  93 123 155 189 231 282
#     4   9  18  32  50  70  93 123 159 197 233 274
#
# _framework density 17.811665000000001
#
# number of rings (size 3 to 8) (size 9 to 14) (size 15 to 20)
#    0.000    2.571    1.429    1.286    0.000    2.857 
#    0.000    1.429    0.000    0.857    0.000    6.000 
#    0.000    0.000    0.000    0.000    0.000    0.000 
#
# Total GULP energy -312296.336107 kJ/mol
# GULP energy per Si atom -5576.720288 kJ/mol
# Density = 1.777113 g / cm^3
# Si number density = 17.811665 Si / 1000 Ang^3
#
#
#
# Elastic Constant Matrix: (Units=GPa)
#
#
# Indices 1 2 3 4 5 6 
#
# 1 12.9964 6.8384 7.8252 0.0000 0.0000 0.0000
# 2 6.8384 105.6199 103.5672 0.0000 0.0000 0.0000
# 3 7.8252 103.5672 201.4311 0.0000 0.0000 0.0000
# 4 0.0000 0.0000 0.0000 24.5186 0.0000 0.0000
# 5 0.0000 0.0000 0.0000 0.0000 24.9098 0.0000
# 6 0.0000 0.0000 0.0000 0.0000 0.0000 12.4024
#
#
#
# Elastic Compliance Matrix: (Units=1/GPa)
#
#
# Indices 1 2 3 4 5 6 
#
# 1 0.079738 -0.004286 -0.000894 0.000000 0.000000 0.000000
# 2 -0.004286 0.019325 -0.009770 0.000000 0.000000 0.000000
# 3 -0.000894 -0.009770 0.010022 0.000000 0.000000 0.000000
# 4 0.000000 0.000000 0.000000 0.040785 0.000000 0.000000
# 5 0.000000 0.000000 0.000000 0.000000 0.040145 0.000000
# 6 0.000000 0.000000 0.000000 0.000000 0.000000 0.080630
#
#
# Mechanical properties :
#
#
# Convention : Reuss Voigt Hill
#
# Bulk Modulus (GPa) = 12.62847 61.83433 37.23140
# Shear Modulus (GPa) = 15.29330 25.82057 20.55694
#
# Velocity S-wave (km/s) = 2.93339 3.81155 3.40093
# Velocity P-wave (km/s) = 4.31027 7.35945 6.03075
#
# Compressibility (1/GPa) = 0.07918613
#
# Stress axis : x y z
#
# Youngs Moduli (GPa) = 12.54108 51.74578 99.77679
#
# Poissons Ratio (x) = 0.22178 0.08920
# Poissons Ratio (y) = 0.05375 0.97479
# Poissons Ratio (z) = 0.01121 0.50554
#
# Static dielectric constant tensor:
#      x y z
#    x 1.575160 0.000000 0.000000 
#    y 0.000000 1.610090 0.000000 
#    z 0.000000 0.000000 1.592680 
# 
# From -- ./inp_files/49611.got.cif
#   From: 2010.05.17/outbox.cif.g08.bks.cpg/sg64_25_cif.got.tgz:49611.got - 2010.06.03 16:29:19.
