data_PCOD9477210
_publ_section_title
;
Structure prediction by ZEFSAII (Michael W. Deem and Ramdas Pophale) SiO2 
 PCOD9477210
Probable space group: C M C A
;
_chemical_formula_sum "Si O2"
_cell_formula_units_Z 96
_cell_length_a 8.785889
_cell_length_b 23.559849
_cell_length_c 27.445737
_cell_angle_alpha 90.000000
_cell_angle_beta 90.000000
_cell_angle_gamma 90.000000
_cell_volume 5681.108872
_symmetry_space_group_name_H-M "C M C A"
_symmetry_group_IT_number 64
_symmetry_cell_setting 'orthorhombic'
loop_
_space_group_symop_operation_xyz
x,y,z
-x,1/2-y,1/2+z
x,-y,-z
-x,1/2+y,1/2-z
-x,-y,-z
x,1/2+y,1/2-z
-x,y,z
x,1/2-y,1/2+z
1/2+x,1/2+y,z
1/2-x,-y,1/2+z
1/2+x,1/2-y,-z
1/2-x,y,1/2-z
1/2-x,1/2-y,-z
1/2+x,y,1/2-z
1/2-x,1/2+y,z
1/2+x,-y,1/2+z
loop_
_atom_site_type_symbol
_atom_site_label
_atom_site_fract_x
_atom_site_fract_y
_atom_site_fract_z
Si Si1 0.828266 0.768216 0.951023
Si Si2 0.678774 0.652386 0.375301
Si Si3 0.816522 0.060558 0.060625
Si Si4 0.317520 0.571894 0.950603
Si Si5 0.170802 0.838102 0.379147
Si Si6 0.815822 0.254637 0.695953
O O1 0.718809 0.810506 0.922776
O O2 0.840786 0.712620 0.918062
O O3 0.000000 0.791790 0.957246
O O4 0.750000 0.750000 0.000000
O O5 0.500000 0.648955 0.365828
O O6 0.745814 0.592227 0.392849
O O7 0.758935 0.688969 0.332653
O O8 0.000000 0.065540 0.063065
O O9 0.777929 0.993770 0.059747
O O10 0.767600 0.084242 0.006823
O O11 0.500000 0.576173 0.951091
O O12 0.256602 0.612505 0.908098
O O13 0.235146 0.803012 0.332740
O O14 0.000000 0.858023 0.366829
O O15 0.750000 0.254761 0.750000
O O16 0.000000 0.254798 0.695246
#
# Coordination Sequence:
#
# PCOD9477210 Si02
#       6
#    16  16  16  16  16  16
#     4  10  19  30  44  67  99 133 165 203 248 297
#     4  11  21  32  49  74 100 132 169 206 251 303
#     4   9  18  33  49  71 104 140 175 212 248 289
#     4   9  18  31  50  73 101 139 177 208 246 292
#     4   9  19  32  47  70 100 128 159 202 251 298
#     4  10  21  38  57  77 100 128 162 209 262 311
#
# _framework density 16.898109999999999
#
# number of rings (size 3 to 8) (size 9 to 14) (size 15 to 20)
#    0.000    2.333    0.000    5.500    0.000    8.000 
#    0.000    1.667    0.000    1.000    0.000    2.333 
#    0.000    0.000    0.000    0.000    0.000    0.000 
#
# Total GULP energy -267318.188908 kJ/mol
# GULP energy per Si atom -5569.128936 kJ/mol
# Density = 1.685965 g / cm^3
# Si number density = 16.898110 Si / 1000 Ang^3
#
#
#
# Elastic Constant Matrix: (Units=GPa)
#
#
# Indices 1 2 3 4 5 6 
#
# 1 54.9184 30.8708 31.4626 0.0000 0.0000 0.0000
# 2 30.8708 88.6698 50.1520 0.0000 0.0000 0.0000
# 3 31.4626 50.1520 116.2544 0.0000 0.0000 0.0000
# 4 0.0000 0.0000 0.0000 25.2193 0.0000 0.0000
# 5 0.0000 0.0000 0.0000 0.0000 25.4669 0.0000
# 6 0.0000 0.0000 0.0000 0.0000 0.0000 25.1895
#
#
#
# Elastic Compliance Matrix: (Units=1/GPa)
#
#
# Indices 1 2 3 4 5 6 
#
# 1 0.023844 -0.006153 -0.003799 0.000000 0.000000 0.000000
# 2 -0.006153 0.016505 -0.005455 0.000000 0.000000 0.000000
# 3 -0.003799 -0.005455 0.011983 0.000000 0.000000 0.000000
# 4 0.000000 0.000000 0.000000 0.039652 0.000000 0.000000
# 5 0.000000 0.000000 0.000000 0.000000 0.039267 0.000000
# 6 0.000000 0.000000 0.000000 0.000000 0.000000 0.039699
#
#
# Mechanical properties :
#
#
# Convention : Reuss Voigt Hill
#
# Bulk Modulus (GPa) = 46.47051 53.86815 50.16933
# Shear Modulus (GPa) = 23.93070 24.99895 24.46483
#
# Velocity S-wave (km/s) = 3.76729 3.85046 3.80910
# Velocity P-wave (km/s) = 6.81788 7.19135 7.00710
#
# Compressibility (1/GPa) = 0.02151902
#
# Stress axis : x y z
#
# Youngs Moduli (GPa) = 41.93982 60.58615 83.44969
#
# Poissons Ratio (x) = 0.37277 0.31700
# Poissons Ratio (y) = 0.25805 0.45524
# Poissons Ratio (z) = 0.15931 0.33051
#
# Static dielectric constant tensor:
#      x y z
#    x 1.594760 0.000000 0.000000 
#    y 0.000000 1.591290 0.000000 
#    z 0.000000 0.000000 1.553580 
# 
# From -- ./inp_files/42963.got.cif
#   From: 2010.05.17/outbox.cif.g08.bks.cpg/sg64_22_cif.got.tgz:42963.got - 2010.06.03 16:29:19.
