data_PCOD9477229
_publ_section_title
;
Structure prediction by ZEFSAII (Michael W. Deem and Ramdas Pophale) SiO2 
 PCOD9477229
Probable space group: C M C A
;
_chemical_formula_sum "Si O2"
_cell_formula_units_Z 64
_cell_length_a 14.344684
_cell_length_b 36.039855
_cell_length_c 5.128032
_cell_angle_alpha 90.000000
_cell_angle_beta 90.000000
_cell_angle_gamma 90.000000
_cell_volume 2651.091683
_symmetry_space_group_name_H-M "C M C A"
_symmetry_group_IT_number 64
_symmetry_cell_setting 'orthorhombic'
loop_
_space_group_symop_operation_xyz
x,y,z
-x,1/2-y,1/2+z
x,-y,-z
-x,1/2+y,1/2-z
-x,-y,-z
x,1/2+y,1/2-z
-x,y,z
x,1/2-y,1/2+z
1/2+x,1/2+y,z
1/2-x,-y,1/2+z
1/2+x,1/2-y,-z
1/2-x,y,1/2-z
1/2-x,1/2-y,-z
1/2+x,y,1/2-z
1/2-x,1/2+y,z
1/2+x,-y,1/2+z
loop_
_atom_site_type_symbol
_atom_site_label
_atom_site_fract_x
_atom_site_fract_y
_atom_site_fract_z
Si Si1 0.182342 0.459681 0.501780
Si Si2 0.111468 0.268383 0.932985
Si Si3 0.862504 0.115793 0.207051
Si Si4 0.140018 0.153050 0.708928
O O1 0.133862 0.500000 0.500000
O O2 0.250000 0.453623 0.250000
O O3 0.121431 0.423695 0.568900
O O4 0.250000 0.462950 0.750000
O O5 0.148454 0.238025 0.141416
O O6 0.126619 0.307492 0.072878
O O7 0.000000 0.263831 0.906258
O O8 0.750000 0.118267 0.250000
O O9 0.896982 0.123470 0.497714
O O10 0.896174 0.146524 0.000451
O O11 0.250000 0.147577 0.750000
#
# Coordination Sequence:
#
# PCOD9477229 Si02
#       4
#    16  16  16  16
#     4   9  15  23  37  58  88 125 155 178 213 263
#     4  10  21  36  51  67  89 116 147 186 228 269
#     4   9  16  27  41  63  93 120 148 182 221 261
#     4  10  19  30  47  68  91 118 147 183 225 267
#
# _framework density 24.140996000000001
#
# number of rings (size 3 to 8) (size 9 to 14) (size 15 to 20)
#    0.000    2.500    0.000    5.250    0.000    1.000 
#    0.000    0.000    0.000    0.000    0.000    0.000 
#    0.000    6.000    0.000    0.000    0.000   42.500 
#
# Total GULP energy -178520.403966 kJ/mol
# GULP energy per Si atom -5578.762624 kJ/mol
# Density = 2.408605 g / cm^3
# Si number density = 24.140996 Si / 1000 Ang^3
#
#
#
# Elastic Constant Matrix: (Units=GPa)
#
#
# Indices 1 2 3 4 5 6 
#
# 1 75.0249 -30.5161 -7.4854 0.0000 0.0000 0.0000
# 2 -30.5161 97.2671 8.0267 0.0000 0.0000 0.0000
# 3 -7.4854 8.0267 129.3150 0.0000 0.0000 0.0000
# 4 0.0000 0.0000 0.0000 42.1331 0.0000 0.0000
# 5 0.0000 0.0000 0.0000 0.0000 -16.2539 0.0000
# 6 0.0000 0.0000 0.0000 0.0000 0.0000 1083.7629
#
#
#
# Elastic Compliance Matrix: (Units=1/GPa)
#
#
# Indices 1 2 3 4 5 6 
#
# 1 0.015324 0.004759 0.000592 0.000000 0.000000 0.000000
# 2 0.004759 0.011812 -0.000458 0.000000 0.000000 0.000000
# 3 0.000592 -0.000458 0.007796 0.000000 0.000000 0.000000
# 4 0.000000 0.000000 0.000000 0.023734 0.000000 0.000000
# 5 0.000000 0.000000 0.000000 0.000000 -0.061524 0.000000
# 6 0.000000 0.000000 0.000000 0.000000 0.000000 0.000923
#
#
# Mechanical properties :
#
#
# Convention : Reuss Voigt Hill
#
# Bulk Modulus (GPa) = 22.36327 26.85083 24.60705
# Shear Modulus (GPa) = 1570.04085 244.03385 907.03735
#
# Velocity S-wave (km/s) = 25.52988 10.06511 19.40465
# Velocity P-wave (km/s) = 29.63641 12.09222 22.63337
#
# Compressibility (1/GPa) = 0.04471617
#
# Stress axis : x y z
#
# Youngs Moduli (GPa) = 65.25918 84.66170 128.27563
#
# Poissons Ratio (x) = -0.40288 -0.07589
# Poissons Ratio (y) = -0.31055 0.05871
# Poissons Ratio (z) = -0.03861 0.03875
#
# Static dielectric constant tensor:
#      x y z
#    x 2.050940 0.000000 0.000000 
#    y 0.000000 2.038310 0.000000 
#    z 0.000000 0.000000 1.940060 
# 
# From -- ./inp_files/1906.got.cif
#   From: 2010.05.17/outbox.cif.g08.bks.cpg/sg64_1_cif.got.tgz:1906.got - 2010.06.03 16:29:19.
