data_PCOD9477135
_publ_section_title
;
Structure prediction by ZEFSAII (Michael W. Deem and Ramdas Pophale) SiO2 
 PCOD9477135
Probable space group: C M C A
;
_chemical_formula_sum "Si O2"
_cell_formula_units_Z 80
_cell_length_a 21.630036
_cell_length_b 13.218384
_cell_length_c 13.952470
_cell_angle_alpha 90.000000
_cell_angle_beta 90.000000
_cell_angle_gamma 90.000000
_cell_volume 3989.208207
_symmetry_space_group_name_H-M "C M C A"
_symmetry_group_IT_number 64
_symmetry_cell_setting 'orthorhombic'
loop_
_space_group_symop_operation_xyz
x,y,z
-x,1/2-y,1/2+z
x,-y,-z
-x,1/2+y,1/2-z
-x,-y,-z
x,1/2+y,1/2-z
-x,y,z
x,1/2-y,1/2+z
1/2+x,1/2+y,z
1/2-x,-y,1/2+z
1/2+x,1/2-y,-z
1/2-x,y,1/2-z
1/2-x,1/2-y,-z
1/2+x,y,1/2-z
1/2-x,1/2+y,z
1/2+x,-y,1/2+z
loop_
_atom_site_type_symbol
_atom_site_label
_atom_site_fract_x
_atom_site_fract_y
_atom_site_fract_z
Si Si1 0.430808 0.283014 0.927844
Si Si2 0.101464 0.948385 0.395812
Si Si3 0.929687 0.361072 0.779841
Si Si4 0.666607 0.253098 0.086339
Si Si5 0.764654 0.403643 0.054164
O O1 0.500000 0.300397 0.964405
O O2 0.425174 0.164397 0.897655
O O3 0.420687 0.348349 0.832994
O O4 0.379482 0.299732 0.007508
O O5 0.175580 0.939014 0.386628
O O6 0.089328 0.000000 0.500000
O O7 0.075870 0.024440 0.317189
O O8 0.876949 0.297104 0.834330
O O9 0.000000 0.325540 0.802239
O O10 0.715978 0.338256 0.113530
O O11 0.705289 0.166998 0.029394
O O12 0.736575 0.500000 0.000000
#
# Coordination Sequence:
#
# PCOD9477135 Si02
#       5
#    16  16  16  16  16
#     4  10  21  35  56  90 121 148 197 247 296 359
#     4  10  18  37  65  84 108 152 203 248 292 337
#     4  11  21  35  61  90 118 150 196 253 296 346
#     4  10  19  35  60  81 118 152 190 244 304 336
#     4   9  17  35  59  80 108 150 195 245 280 350
#
# _framework density 20.054106000000001
#
# number of rings (size 3 to 8) (size 9 to 14) (size 15 to 20)
#    0.000    2.000    6.000    1.200    0.000    0.800 
#    3.600    9.000    4.400    1.200    0.000    0.000 
#    0.000    0.000    0.000    0.000    0.000    0.000 
#
# Total GULP energy -223242.042609 kJ/mol
# GULP energy per Si atom -5581.051065 kJ/mol
# Density = 2.000846 g / cm^3
# Si number density = 20.054106 Si / 1000 Ang^3
#
#
#
# Elastic Constant Matrix: (Units=GPa)
#
#
# Indices 1 2 3 4 5 6 
#
# 1 60.7811 14.1345 2.8969 0.0000 0.0000 0.0000
# 2 14.1345 20.5717 1.0178 0.0000 0.0000 0.0000
# 3 2.8969 1.0178 28.7214 0.0000 0.0000 0.0000
# 4 0.0000 0.0000 0.0000 28.5166 0.0000 0.0000
# 5 0.0000 0.0000 0.0000 0.0000 33.4238 0.0000
# 6 0.0000 0.0000 0.0000 0.0000 0.0000 21.8799
#
#
#
# Elastic Compliance Matrix: (Units=1/GPa)
#
#
# Indices 1 2 3 4 5 6 
#
# 1 0.019646 -0.013424 -0.001506 0.000000 0.000000 0.000000
# 2 -0.013424 0.057868 -0.000697 0.000000 0.000000 0.000000
# 3 -0.001506 -0.000697 0.034994 0.000000 0.000000 0.000000
# 4 0.000000 0.000000 0.000000 0.035067 0.000000 0.000000
# 5 0.000000 0.000000 0.000000 0.000000 0.029919 0.000000
# 6 0.000000 0.000000 0.000000 0.000000 0.000000 0.045704
#
#
# Mechanical properties :
#
#
# Convention : Reuss Voigt Hill
#
# Bulk Modulus (GPa) = 12.30694 16.24141 14.27417
# Shear Modulus (GPa) = 17.75971 22.89907 20.32939
#
# Velocity S-wave (km/s) = 2.97911 3.38281 3.18736
# Velocity P-wave (km/s) = 4.24072 4.83470 4.54742
#
# Compressibility (1/GPa) = 0.08125499
#
# Stress axis : x y z
#
# Youngs Moduli (GPa) = 50.90107 17.28062 28.57649
#
# Poissons Ratio (x) = 0.23197 0.04303
# Poissons Ratio (y) = 0.68329 0.01991
# Poissons Ratio (z) = 0.07665 0.01204
#
# Static dielectric constant tensor:
#      x y z
#    x 1.727790 0.000000 0.000000 
#    y 0.000000 1.719030 0.000000 
#    z 0.000000 0.000000 1.683260 
# 
# From -- ./inp_files/26140.got.cif
#   From: 2010.05.17/outbox.cif.g08.bks.cpg/sg64_14_cif.got.tgz:26140.got - 2010.06.03 16:29:19.
