data_PCOD9477179
_publ_section_title
;
Structure prediction by ZEFSAII (Michael W. Deem and Ramdas Pophale) SiO2 
 PCOD9477179
Probable space group: C M C A
;
_chemical_formula_sum "Si O2"
_cell_formula_units_Z 112
_cell_length_a 18.360444
_cell_length_b 19.483729
_cell_length_c 13.432067
_cell_angle_alpha 90.000000
_cell_angle_beta 90.000000
_cell_angle_gamma 90.000000
_cell_volume 4805.052189
_symmetry_space_group_name_H-M "C M C A"
_symmetry_group_IT_number 64
_symmetry_cell_setting 'orthorhombic'
loop_
_space_group_symop_operation_xyz
x,y,z
-x,1/2-y,1/2+z
x,-y,-z
-x,1/2+y,1/2-z
-x,-y,-z
x,1/2+y,1/2-z
-x,y,z
x,1/2-y,1/2+z
1/2+x,1/2+y,z
1/2-x,-y,1/2+z
1/2+x,1/2-y,-z
1/2-x,y,1/2-z
1/2-x,1/2-y,-z
1/2+x,y,1/2-z
1/2-x,1/2+y,z
1/2+x,-y,1/2+z
loop_
_atom_site_type_symbol
_atom_site_label
_atom_site_fract_x
_atom_site_fract_y
_atom_site_fract_z
Si Si1 0.174055 0.147780 0.687199
Si Si2 0.710588 0.852876 0.859178
Si Si3 0.913264 0.520923 0.351920
Si Si4 0.087338 0.112720 0.957045
Si Si5 0.084664 0.763451 0.726802
Si Si6 0.318870 0.492603 0.677152
Si Si7 0.153217 0.275102 0.566154
O O1 0.250000 0.155434 0.750000
O O2 0.113496 0.185069 0.757123
O O3 0.169237 0.195604 0.588905
O O4 0.161296 0.070231 0.652518
O O5 0.750000 0.857413 0.750000
O O6 0.637797 0.808969 0.841433
O O7 0.699637 0.930775 0.896928
O O8 0.769738 0.811449 0.920120
O O9 0.885978 0.443463 0.377008
O O10 0.892431 0.572145 0.440265
O O11 0.881968 0.539602 0.245906
O O12 0.000000 0.519131 0.351283
O O13 0.117721 0.188866 0.971223
O O14 0.000000 0.116201 0.949724
O O15 0.099277 0.791648 0.839901
O O16 0.000000 0.766453 0.701174
O O17 0.250000 0.500787 0.750000
#
# Coordination Sequence:
#
# PCOD9477179 Si02
#       7
#    16  16  16  16  16  16  16
#     4   9  17  29  40  60  90 116 146 184 230 266
#     4   9  15  26  42  62  85 114 151 184 226 261
#     4   9  18  29  41  66  99 122 147 189 234 273
#     4   9  16  27  45  66  91 124 154 183 225 277
#     4   9  15  24  40  61  84 114 148 181 222 271
#     4  10  19  28  45  65  90 124 147 183 229 276
#     4   9  15  27  45  63  87 115 152 188 217 268
#
# _framework density 23.308800000000002
#
# number of rings (size 3 to 8) (size 9 to 14) (size 15 to 20)
#    0.857    2.000    1.429    3.857    0.000    2.286 
#    0.000    0.000    0.000    3.429    0.000    2.000 
#    0.000    1.143    0.000   17.857    0.000    0.286 
#
# Total GULP energy -312356.178530 kJ/mol
# GULP energy per Si atom -5577.788902 kJ/mol
# Density = 2.325575 g / cm^3
# Si number density = 23.308800 Si / 1000 Ang^3
#
#
#
# Elastic Constant Matrix: (Units=GPa)
#
#
# Indices 1 2 3 4 5 6 
#
# 1 121.0150 43.8687 2.9705 0.0000 0.0000 0.0000
# 2 43.8687 197.4784 13.9814 0.0000 0.0000 0.0000
# 3 2.9705 13.9814 31.3140 0.0000 0.0000 0.0000
# 4 0.0000 0.0000 0.0000 19.8458 0.0000 0.0000
# 5 0.0000 0.0000 0.0000 0.0000 15.9629 0.0000
# 6 0.0000 0.0000 0.0000 0.0000 0.0000 88.1214
#
#
#
# Elastic Compliance Matrix: (Units=1/GPa)
#
#
# Indices 1 2 3 4 5 6 
#
# 1 0.008987 -0.001999 0.000040 0.000000 0.000000 0.000000
# 2 -0.001999 0.005674 -0.002344 0.000000 0.000000 0.000000
# 3 0.000040 -0.002344 0.032977 0.000000 0.000000 0.000000
# 4 0.000000 0.000000 0.000000 0.050388 0.000000 0.000000
# 5 0.000000 0.000000 0.000000 0.000000 0.062645 0.000000
# 6 0.000000 0.000000 0.000000 0.000000 0.000000 0.011348
#
#
# Mechanical properties :
#
#
# Convention : Reuss Voigt Hill
#
# Bulk Modulus (GPa) = 25.61961 52.38317 39.00139
# Shear Modulus (GPa) = 25.82156 44.05180 34.93668
#
# Velocity S-wave (km/s) = 3.33198 4.35204 3.87571
# Velocity P-wave (km/s) = 5.08114 6.91202 6.06605
#
# Compressibility (1/GPa) = 0.03903259
#
# Stress axis : x y z
#
# Youngs Moduli (GPa) = 111.26919 176.24526 30.32401
#
# Poissons Ratio (x) = 0.35237 -0.00122
# Poissons Ratio (y) = 0.22246 0.07107
# Poissons Ratio (z) = -0.00447 0.41306
#
# Static dielectric constant tensor:
#      x y z
#    x 1.855410 0.000000 0.000000 
#    y 0.000000 1.976880 0.000000 
#    z 0.000000 0.000000 1.950330 
# 
# From -- ./inp_files/40496.got.cif
#   From: 2010.05.17/outbox.cif.g08.bks.cpg/sg64_21_cif.got.tgz:40496.got - 2010.06.03 16:29:19.
