data_PCOD9477339
_publ_section_title
;
Structure prediction by ZEFSAII (Michael W. Deem and Ramdas Pophale) SiO2 
 PCOD9477339
Probable space group: C M C A
;
_chemical_formula_sum "Si O2"
_cell_formula_units_Z 96
_cell_length_a 9.448613
_cell_length_b 19.777344
_cell_length_c 23.797540
_cell_angle_alpha 90.000000
_cell_angle_beta 90.000000
_cell_angle_gamma 90.000000
_cell_volume 4447.009881
_symmetry_space_group_name_H-M "C M C A"
_symmetry_group_IT_number 64
_symmetry_cell_setting 'orthorhombic'
loop_
_space_group_symop_operation_xyz
x,y,z
-x,1/2-y,1/2+z
x,-y,-z
-x,1/2+y,1/2-z
-x,-y,-z
x,1/2+y,1/2-z
-x,y,z
x,1/2-y,1/2+z
1/2+x,1/2+y,z
1/2-x,-y,1/2+z
1/2+x,1/2-y,-z
1/2-x,y,1/2-z
1/2-x,1/2-y,-z
1/2+x,y,1/2-z
1/2-x,1/2+y,z
1/2+x,-y,1/2+z
loop_
_atom_site_type_symbol
_atom_site_label
_atom_site_fract_x
_atom_site_fract_y
_atom_site_fract_z
Si Si1 0.661812 0.435388 0.699882
Si Si2 0.160170 0.527115 0.074720
Si Si3 0.662667 0.691751 0.159562
Si Si4 0.164705 0.655364 0.805166
Si Si5 0.665786 0.628738 0.568590
Si Si6 0.166846 0.845295 0.962953
O O1 0.500000 0.425915 0.716577
O O2 0.750000 0.467164 0.750000
O O3 0.666230 0.476744 0.642377
O O4 0.732870 0.363360 0.685188
O O5 0.174534 0.451066 0.053273
O O6 0.277850 0.580587 0.056764
O O7 0.000000 0.552547 0.061258
O O8 0.500000 0.666688 0.162414
O O9 0.669135 0.762938 0.190513
O O10 0.694910 0.699250 0.092863
O O11 0.250000 0.633944 0.750000
O O12 0.218704 0.634717 0.867286
O O13 0.000000 0.633856 0.800716
O O14 0.500000 0.648655 0.568993
O O15 0.748511 0.668324 0.520126
O O16 0.000000 0.844870 0.973991
#
# Coordination Sequence:
#
# PCOD9477339 Si02
#       6
#    16  16  16  16  16  16
#     4  10  19  31  50  76 103 134 174 218 264 311
#     4   9  19  35  53  74 104 142 177 210 257 315
#     4   9  19  36  55  77 106 136 170 216 265 309
#     4  10  22  39  57  77 104 140 178 215 256 305
#     4  10  21  37  55  76 106 142 175 209 255 312
#     4  10  20  34  55  83 109 133 169 218 264 305
#
# _framework density 21.587537999999999
#
# number of rings (size 3 to 8) (size 9 to 14) (size 15 to 20)
#    0.000    2.333    0.000    2.000    0.000    8.000 
#    0.000    0.000    0.000    0.000    0.000    0.000 
#    0.000    0.000    0.000    0.000    0.000    0.000 
#
# Total GULP energy -268140.531670 kJ/mol
# GULP energy per Si atom -5586.261076 kJ/mol
# Density = 2.153840 g / cm^3
# Si number density = 21.587538 Si / 1000 Ang^3
#
#
#
# Elastic Constant Matrix: (Units=GPa)
#
#
# Indices 1 2 3 4 5 6 
#
# 1 80.0015 8.6730 56.2388 0.0000 0.0000 0.0000
# 2 8.6730 33.3658 -0.8518 0.0000 0.0000 0.0000
# 3 56.2388 -0.8518 164.2998 0.0000 0.0000 0.0000
# 4 0.0000 0.0000 0.0000 22.1242 0.0000 0.0000
# 5 0.0000 0.0000 0.0000 0.0000 44.0026 0.0000
# 6 0.0000 0.0000 0.0000 0.0000 0.0000 7.8260
#
#
#
# Elastic Compliance Matrix: (Units=1/GPa)
#
#
# Indices 1 2 3 4 5 6 
#
# 1 0.017140 -0.004606 -0.005891 0.000000 0.000000 0.000000
# 2 -0.004606 0.031212 0.001738 0.000000 0.000000 0.000000
# 3 -0.005891 0.001738 0.008112 0.000000 0.000000 0.000000
# 4 0.000000 0.000000 0.000000 0.045199 0.000000 0.000000
# 5 0.000000 0.000000 0.000000 0.000000 0.022726 0.000000
# 6 0.000000 0.000000 0.000000 0.000000 0.000000 0.127779
#
#
# Mechanical properties :
#
#
# Convention : Reuss Voigt Hill
#
# Bulk Modulus (GPa) = 25.67535 45.08746 35.38141
# Shear Modulus (GPa) = 17.68864 29.03106 23.35985
#
# Velocity S-wave (km/s) = 2.86561 3.67114 3.29310
# Velocity P-wave (km/s) = 4.78209 6.23706 5.55739
#
# Compressibility (1/GPa) = 0.03894786
#
# Stress axis : x y z
#
# Youngs Moduli (GPa) = 58.34244 32.03861 123.27643
#
# Poissons Ratio (x) = 0.14756 0.72620
# Poissons Ratio (y) = 0.26871 -0.21430
# Poissons Ratio (z) = 0.34369 -0.05569
#
# Static dielectric constant tensor:
#      x y z
#    x 1.728430 0.000000 0.000000 
#    y 0.000000 1.795830 0.000000 
#    z 0.000000 0.000000 1.844110 
# 
# From -- ./inp_files/42956.got.cif
#   From: 2010.05.17/outbox.cif.g08.bks.cpg/sg64_22_cif.got.tgz:42956.got - 2010.06.03 16:29:19.
