data_PCOD9477986
_publ_section_title
;
Structure prediction by ZEFSAII (Michael W. Deem and Ramdas Pophale) SiO2 
 PCOD9477986
Probable space group: C M C A
;
_chemical_formula_sum "Si O2"
_cell_formula_units_Z 72
_cell_length_a 16.658862
_cell_length_b 23.921548
_cell_length_c 7.123583
_cell_angle_alpha 90.000000
_cell_angle_beta 90.000000
_cell_angle_gamma 90.000000
_cell_volume 2838.788907
_symmetry_space_group_name_H-M "C M C A"
_symmetry_group_IT_number 64
_symmetry_cell_setting 'orthorhombic'
loop_
_space_group_symop_operation_xyz
x,y,z
-x,1/2-y,1/2+z
x,-y,-z
-x,1/2+y,1/2-z
-x,-y,-z
x,1/2+y,1/2-z
-x,y,z
x,1/2-y,1/2+z
1/2+x,1/2+y,z
1/2-x,-y,1/2+z
1/2+x,1/2-y,-z
1/2-x,y,1/2-z
1/2-x,1/2-y,-z
1/2+x,y,1/2-z
1/2-x,1/2+y,z
1/2+x,-y,1/2+z
loop_
_atom_site_type_symbol
_atom_site_label
_atom_site_fract_x
_atom_site_fract_y
_atom_site_fract_z
Si Si1 0.907018 0.795232 0.917974
Si Si2 0.593653 0.585891 0.977076
Si Si3 0.590935 0.175945 0.979739
Si Si4 0.713913 0.500000 0.000000
Si Si5 0.627465 0.443464 0.586419
O O1 0.877917 0.849304 0.034388
O O2 0.909327 0.814613 0.703956
O O3 0.000000 0.787754 0.980439
O O4 0.867792 0.733794 0.915372
O O5 0.500000 0.580828 0.923803
O O6 0.653742 0.540826 0.886884
O O7 0.598664 0.569620 0.201343
O O8 0.500000 0.176875 0.905960
O O9 0.617322 0.112160 0.961777
O O10 0.778158 0.543123 0.082770
O O11 0.589865 0.500000 0.500000
#
# Coordination Sequence:
#
# PCOD9477986 Si02
#       5
#    16  16  16   8  16
#     4   8  16  30  52  77 108 141 184 230 279 321
#     4  10  19  36  57  79 109 149 186 228 277 333
#     4   9  16  32  53  80 110 145 183 231 276 334
#     4  10  21  36  53  78 112 146 186 224 279 328
#     4   9  20  34  56  78 115 144 184 222 284 328
#
# _framework density 25.362928
#
# number of rings (size 3 to 8) (size 9 to 14) (size 15 to 20)
#    0.667    2.222    0.000    3.000    0.000    1.778 
#    4.000    1.111    0.000    0.000    0.000    0.000 
#    0.000    0.000    0.000    0.000    0.000    0.000 
#
# Total GULP energy -200574.426885 kJ/mol
# GULP energy per Si atom -5571.511858 kJ/mol
# Density = 2.530520 g / cm^3
# Si number density = 25.362928 Si / 1000 Ang^3
#
#
#
# Elastic Constant Matrix: (Units=GPa)
#
#
# Indices 1 2 3 4 5 6 
#
# 1 88.7855 50.4808 1.3648 0.0000 0.0000 0.0000
# 2 50.4808 280.9105 23.0066 0.0000 0.0000 0.0000
# 3 1.3648 23.0066 54.7689 0.0000 0.0000 0.0000
# 4 0.0000 0.0000 0.0000 29.1637 0.0000 0.0000
# 5 0.0000 0.0000 0.0000 0.0000 0.3599 0.0000
# 6 0.0000 0.0000 0.0000 0.0000 0.0000 81.4226
#
#
#
# Elastic Compliance Matrix: (Units=1/GPa)
#
#
# Indices 1 2 3 4 5 6 
#
# 1 0.012568 -0.002312 0.000658 0.000000 0.000000 0.000000
# 2 -0.002312 0.004112 -0.001670 0.000000 0.000000 0.000000
# 3 0.000658 -0.001670 0.018944 0.000000 0.000000 0.000000
# 4 0.000000 0.000000 0.000000 0.034289 0.000000 0.000000
# 5 0.000000 0.000000 0.000000 0.000000 2.778290 0.000000
# 6 0.000000 0.000000 0.000000 0.000000 0.000000 0.012282
#
#
# Mechanical properties :
#
#
# Convention : Reuss Voigt Hill
#
# Bulk Modulus (GPa) = 34.51187 63.79658 49.15423
# Shear Modulus (GPa) = 1.73805 45.49676 23.61741
#
# Velocity S-wave (km/s) = 0.82871 4.23996 3.05483
# Velocity P-wave (km/s) = 3.81476 7.01268 5.64492
#
# Compressibility (1/GPa) = 0.02897553
#
# Stress axis : x y z
#
# Youngs Moduli (GPa) = 79.56880 243.18168 52.78840
#
# Poissons Ratio (x) = 0.56233 -0.03474
# Poissons Ratio (y) = 0.18399 0.08814
# Poissons Ratio (z) = -0.05237 0.40606
#
# Static dielectric constant tensor:
#      x y z
#    x 2.057690 0.000000 0.000000 
#    y 0.000000 2.090450 0.000000 
#    z 0.000000 0.000000 2.240010 
# 
# From -- ./inp_files/17031.got.cif
#   From: 2010.05.17/outbox.cif.g08.bks.cpg/sg64_9_cif.got.tgz:17031.got - 2010.06.03 16:29:19.
