data_PCOD9477850
_publ_section_title
;
Structure prediction by ZEFSAII (Michael W. Deem and Ramdas Pophale) SiO2 
 PCOD9477850
Probable space group: C M C A
;
_chemical_formula_sum "Si O2"
_cell_formula_units_Z 72
_cell_length_a 25.255133
_cell_length_b 9.529305
_cell_length_c 14.940920
_cell_angle_alpha 90.000000
_cell_angle_beta 90.000000
_cell_angle_gamma 90.000000
_cell_volume 3595.739556
_symmetry_space_group_name_H-M "C M C A"
_symmetry_group_IT_number 64
_symmetry_cell_setting 'orthorhombic'
loop_
_space_group_symop_operation_xyz
x,y,z
-x,1/2-y,1/2+z
x,-y,-z
-x,1/2+y,1/2-z
-x,-y,-z
x,1/2+y,1/2-z
-x,y,z
x,1/2-y,1/2+z
1/2+x,1/2+y,z
1/2-x,-y,1/2+z
1/2+x,1/2-y,-z
1/2-x,y,1/2-z
1/2-x,1/2-y,-z
1/2+x,y,1/2-z
1/2-x,1/2+y,z
1/2+x,-y,1/2+z
loop_
_atom_site_type_symbol
_atom_site_label
_atom_site_fract_x
_atom_site_fract_y
_atom_site_fract_z
Si Si1 0.626850 0.389375 0.717816
Si Si2 0.061418 0.118896 0.819366
Si Si3 0.771473 0.957292 0.350627
Si Si4 0.602205 0.000000 0.500000
Si Si5 0.816331 0.673602 0.403415
O O1 0.589929 0.519276 0.746814
O O2 0.592656 0.265421 0.675747
O O3 0.676084 0.448715 0.661789
O O4 0.652553 0.327393 0.808688
O O5 0.068536 0.039096 0.913533
O O6 0.000000 0.140916 0.798470
O O7 0.750000 0.917649 0.250000
O O8 0.725848 0.048989 0.394556
O O9 0.786352 0.820544 0.406983
O O10 0.640859 0.130599 0.476963
#
# Coordination Sequence:
#
# PCOD9477850 Si02
#       5
#    16  16  16   8  16
#     4  10  20  37  63  92 116 151 205 250 292 355
#     4  11  22  41  65  88 116 158 205 254 303 349
#     4  10  19  34  61  90 121 155 193 247 291 352
#     4  10  25  40  58  88 130 160 195 248 306 358
#     4  10  21  36  58  88 123 159 194 231 300 360
#
# _framework density 20.023698
#
# number of rings (size 3 to 8) (size 9 to 14) (size 15 to 20)
#    0.000    1.778    2.222    3.000    6.222    0.889 
#    0.000    0.000    0.000    1.333    0.000    0.000 
#    0.000    0.000    0.000    0.000    0.000    0.000 
#
# Total GULP energy -201256.774252 kJ/mol
# GULP energy per Si atom -5590.465951 kJ/mol
# Density = 1.997812 g / cm^3
# Si number density = 20.023698 Si / 1000 Ang^3
#
#
#
# Elastic Constant Matrix: (Units=GPa)
#
#
# Indices 1 2 3 4 5 6 
#
# 1 98.3481 17.6080 7.3121 0.0000 0.0000 0.0000
# 2 17.6080 81.1734 -1.2032 0.0000 0.0000 0.0000
# 3 7.3121 -1.2032 24.8901 0.0000 0.0000 0.0000
# 4 0.0000 0.0000 0.0000 11.2961 0.0000 0.0000
# 5 0.0000 0.0000 0.0000 0.0000 19.8405 0.0000
# 6 0.0000 0.0000 0.0000 0.0000 0.0000 24.4028
#
#
#
# Elastic Compliance Matrix: (Units=1/GPa)
#
#
# Indices 1 2 3 4 5 6 
#
# 1 0.010843 -0.002401 -0.003302 0.000000 0.000000 0.000000
# 2 -0.002401 0.012860 0.001327 0.000000 0.000000 0.000000
# 3 -0.003302 0.001327 0.041211 0.000000 0.000000 0.000000
# 4 0.000000 0.000000 0.000000 0.088526 0.000000 0.000000
# 5 0.000000 0.000000 0.000000 0.000000 0.050402 0.000000
# 6 0.000000 0.000000 0.000000 0.000000 0.000000 0.040979
#
#
# Mechanical properties :
#
#
# Convention : Reuss Voigt Hill
#
# Bulk Modulus (GPa) = 17.80544 27.98285 22.89414
# Shear Modulus (GPa) = 18.36260 23.15420 20.75840
#
# Velocity S-wave (km/s) = 3.03156 3.40419 3.22326
# Velocity P-wave (km/s) = 4.60057 5.42739 5.03099
#
# Compressibility (1/GPa) = 0.05616261
#
# Stress axis : x y z
#
# Youngs Moduli (GPa) = 92.22270 77.76165 24.26551
#
# Poissons Ratio (x) = 0.18671 0.08011
# Poissons Ratio (y) = 0.22143 -0.03220
# Poissons Ratio (z) = 0.30448 -0.10319
#
# Static dielectric constant tensor:
#      x y z
#    x 1.673830 0.000000 0.000000 
#    y 0.000000 1.702270 0.000000 
#    z 0.000000 0.000000 1.719540 
# 
# From -- ./inp_files/27794.got.cif
#   From: 2010.05.17/outbox.cif.g08.bks.cpg/sg64_14_cif.got.tgz:27794.got - 2010.06.03 16:29:19.
