data_PCOD9477432
_publ_section_title
;
Structure prediction by ZEFSAII (Michael W. Deem and Ramdas Pophale) SiO2 
 PCOD9477432
Probable space group: C M C A
;
_chemical_formula_sum "Si O2"
_cell_formula_units_Z 64
_cell_length_a 14.605733
_cell_length_b 13.559433
_cell_length_c 16.770249
_cell_angle_alpha 90.000000
_cell_angle_beta 90.000000
_cell_angle_gamma 90.000000
_cell_volume 3321.271644
_symmetry_space_group_name_H-M "C M C A"
_symmetry_group_IT_number 64
_symmetry_cell_setting 'orthorhombic'
loop_
_space_group_symop_operation_xyz
x,y,z
-x,1/2-y,1/2+z
x,-y,-z
-x,1/2+y,1/2-z
-x,-y,-z
x,1/2+y,1/2-z
-x,y,z
x,1/2-y,1/2+z
1/2+x,1/2+y,z
1/2-x,-y,1/2+z
1/2+x,1/2-y,-z
1/2-x,y,1/2-z
1/2-x,1/2-y,-z
1/2+x,y,1/2-z
1/2-x,1/2+y,z
1/2+x,-y,1/2+z
loop_
_atom_site_type_symbol
_atom_site_label
_atom_site_fract_x
_atom_site_fract_y
_atom_site_fract_z
Si Si1 0.894760 0.387266 0.106069
Si Si2 0.769453 0.642740 0.036680
Si Si3 0.607804 0.590237 0.316100
Si Si4 0.393094 0.844402 0.639497
O O1 0.822782 0.407294 0.036089
O O2 0.882123 0.472606 0.171019
O O3 0.883957 0.275020 0.135815
O O4 0.000000 0.395847 0.076009
O O5 0.835827 0.642439 0.113592
O O6 0.672396 0.608865 0.072532
O O7 0.750000 0.750000 0.000000
O O8 0.500000 0.614178 0.325107
O O9 0.635241 0.620698 0.227364
O O10 0.500000 0.868063 0.627184
#
# Coordination Sequence:
#
# PCOD9477432 Si02
#       4
#    16  16  16  16
#     4   9  18  34  57  82 105 135 179 225 265 312
#     4  10  19  32  51  78 110 139 172 215 264 312
#     4  10  19  34  57  81 106 140 182 223 264 313
#     4   9  19  35  54  79 110 140 175 221 269 317
#
# _framework density 19.269727
#
# number of rings (size 3 to 8) (size 9 to 14) (size 15 to 20)
#    0.000    2.500    0.000    2.250    0.000    3.000 
#    0.000   12.500    0.000    3.000    0.000    0.000 
#    0.000    0.000    0.000    0.000    0.000    0.000 
#
# Total GULP energy -178364.897548 kJ/mol
# GULP energy per Si atom -5573.903048 kJ/mol
# Density = 1.922587 g / cm^3
# Si number density = 19.269727 Si / 1000 Ang^3
#
#
#
# Elastic Constant Matrix: (Units=GPa)
#
#
# Indices 1 2 3 4 5 6 
#
# 1 90.5801 30.9176 63.8256 0.0000 0.0000 0.0000
# 2 30.9176 59.0655 29.3396 0.0000 0.0000 0.0000
# 3 63.8256 29.3396 113.1904 0.0000 0.0000 0.0000
# 4 0.0000 0.0000 0.0000 32.6394 0.0000 0.0000
# 5 0.0000 0.0000 0.0000 0.0000 37.1111 0.0000
# 6 0.0000 0.0000 0.0000 0.0000 0.0000 20.0674
#
#
#
# Elastic Compliance Matrix: (Units=1/GPa)
#
#
# Indices 1 2 3 4 5 6 
#
# 1 0.019772 -0.005523 -0.009718 0.000000 0.000000 0.000000
# 2 -0.005523 0.020975 -0.002323 0.000000 0.000000 0.000000
# 3 -0.009718 -0.002323 0.014916 0.000000 0.000000 0.000000
# 4 0.000000 0.000000 0.000000 0.030638 0.000000 0.000000
# 5 0.000000 0.000000 0.000000 0.000000 0.026946 0.000000
# 6 0.000000 0.000000 0.000000 0.000000 0.000000 0.049832
#
#
# Mechanical properties :
#
#
# Convention : Reuss Voigt Hill
#
# Bulk Modulus (GPa) = 48.69148 56.77796 52.73472
# Shear Modulus (GPa) = 24.38407 27.21379 25.79893
#
# Velocity S-wave (km/s) = 3.56112 3.76208 3.66298
# Velocity P-wave (km/s) = 6.49861 6.95699 6.73171
#
# Compressibility (1/GPa) = 0.02053747
#
# Stress axis : x y z
#
# Youngs Moduli (GPa) = 50.57547 47.67588 67.04056
#
# Poissons Ratio (x) = 0.26330 0.65148
# Poissons Ratio (y) = 0.27931 0.15571
# Poissons Ratio (z) = 0.49148 0.11074
#
# Static dielectric constant tensor:
#      x y z
#    x 1.710550 0.000000 0.000000 
#    y 0.000000 1.690910 0.000000 
#    z 0.000000 0.000000 1.643720 
# 
# From -- ./inp_files/38821.got.cif
#   From: 2010.05.17/outbox.cif.g08.bks.cpg/sg64_20_cif.got.tgz:38821.got - 2010.06.03 16:29:19.
