data_PCOD9477889
_publ_section_title
;
Structure prediction by ZEFSAII (Michael W. Deem and Ramdas Pophale) SiO2 
 PCOD9477889
Probable space group: C M C A
;
_chemical_formula_sum "Si O2"
_cell_formula_units_Z 96
_cell_length_a 7.440800
_cell_length_b 20.327371
_cell_length_c 27.641130
_cell_angle_alpha 90.000000
_cell_angle_beta 90.000000
_cell_angle_gamma 90.000000
_cell_volume 4180.773490
_symmetry_space_group_name_H-M "C M C A"
_symmetry_group_IT_number 64
_symmetry_cell_setting 'orthorhombic'
loop_
_space_group_symop_operation_xyz
x,y,z
-x,1/2-y,1/2+z
x,-y,-z
-x,1/2+y,1/2-z
-x,-y,-z
x,1/2+y,1/2-z
-x,y,z
x,1/2-y,1/2+z
1/2+x,1/2+y,z
1/2-x,-y,1/2+z
1/2+x,1/2-y,-z
1/2-x,y,1/2-z
1/2-x,1/2-y,-z
1/2+x,y,1/2-z
1/2-x,1/2+y,z
1/2+x,-y,1/2+z
loop_
_atom_site_type_symbol
_atom_site_label
_atom_site_fract_x
_atom_site_fract_y
_atom_site_fract_z
Si Si1 0.217420 0.447703 0.932493
Si Si2 0.206008 0.074861 0.176182
Si Si3 0.713975 0.929822 0.304466
Si Si4 0.780659 0.594789 0.963785
Si Si5 0.715909 0.716969 0.196769
Si Si6 0.794615 0.681163 0.879868
O O1 0.290617 0.422679 0.881954
O O2 0.271189 0.523780 0.941503
O O3 0.000000 0.446432 0.929903
O O4 0.272761 0.407178 0.980108
O O5 0.288108 0.142547 0.194944
O O6 0.000000 0.073089 0.193544
O O7 0.285683 0.004434 0.190528
O O8 0.500000 0.930308 0.313366
O O9 0.750000 0.907300 0.250000
O O10 0.796170 0.881472 0.343857
O O11 0.714682 0.653635 0.929768
O O12 0.000000 0.595708 0.962787
O O13 0.500000 0.714329 0.191033
O O14 0.750000 0.745388 0.250000
O O15 0.787383 0.760943 0.152619
O O16 0.000000 0.700408 0.890787
#
# Coordination Sequence:
#
# PCOD9477889 Si02
#       6
#    16  16  16  16  16  16
#     4   9  16  30  54  80 105 136 175 213 251 306
#     4  10  21  36  51  75 107 137 171 212 262 310
#     4  11  22  34  51  75 103 132 169 218 262 308
#     4   8  15  29  52  81 107 133 171 213 255 306
#     4  10  22  38  55  74 102 141 177 213 260 313
#     4  10  19  35  57  78 103 136 174 216 260 306
#
# _framework density 22.962257000000001
#
# number of rings (size 3 to 8) (size 9 to 14) (size 15 to 20)
#    0.000    2.333    1.667    2.500    0.000    3.333 
#    0.000    3.333    0.000    0.000    0.000    0.000 
#    0.000    0.000    0.000    0.000    0.000    0.000 
#
# Total GULP energy -268141.118804 kJ/mol
# GULP energy per Si atom -5586.273308 kJ/mol
# Density = 2.290999 g / cm^3
# Si number density = 22.962257 Si / 1000 Ang^3
#
#
#
# Elastic Constant Matrix: (Units=GPa)
#
#
# Indices 1 2 3 4 5 6 
#
# 1 80.9856 -1.4260 -15.8175 0.0000 0.0000 0.0000
# 2 -1.4260 67.1411 -3.5927 0.0000 0.0000 0.0000
# 3 -15.8175 -3.5927 91.0331 0.0000 0.0000 0.0000
# 4 0.0000 0.0000 0.0000 24.9606 0.0000 0.0000
# 5 0.0000 0.0000 0.0000 0.0000 18.7048 0.0000
# 6 0.0000 0.0000 0.0000 0.0000 0.0000 11.5430
#
#
#
# Elastic Compliance Matrix: (Units=1/GPa)
#
#
# Indices 1 2 3 4 5 6 
#
# 1 0.012792 0.000391 0.002238 0.000000 0.000000 0.000000
# 2 0.000391 0.014938 0.000658 0.000000 0.000000 0.000000
# 3 0.002238 0.000658 0.011400 0.000000 0.000000 0.000000
# 4 0.000000 0.000000 0.000000 0.040063 0.000000 0.000000
# 5 0.000000 0.000000 0.000000 0.000000 0.053462 0.000000
# 6 0.000000 0.000000 0.000000 0.000000 0.000000 0.086632
#
#
# Mechanical properties :
#
#
# Convention : Reuss Voigt Hill
#
# Bulk Modulus (GPa) = 21.88020 21.94305 21.91162
# Shear Modulus (GPa) = 21.93489 28.37476 25.15483
#
# Velocity S-wave (km/s) = 3.09408 3.51908 3.31340
# Velocity P-wave (km/s) = 4.72376 5.10772 4.91949
#
# Compressibility (1/GPa) = 0.04570343
#
# Stress axis : x y z
#
# Youngs Moduli (GPa) = 78.17452 66.94558 87.72047
#
# Poissons Ratio (x) = -0.02621 -0.19633
# Poissons Ratio (y) = -0.03060 -0.05768
# Poissons Ratio (z) = -0.17496 -0.04402
#
# Static dielectric constant tensor:
#      x y z
#    x 1.888800 0.000000 0.000000 
#    y 0.000000 1.866810 0.000000 
#    z 0.000000 0.000000 1.838580 
# 
# From -- ./inp_files/48031.got.cif
#   From: 2010.05.17/outbox.cif.g08.bks.cpg/sg64_25_cif.got.tgz:48031.got - 2010.06.03 16:29:19.
