data_PCOD9477741
_publ_section_title
;
Structure prediction by ZEFSAII (Michael W. Deem and Ramdas Pophale) SiO2 
 PCOD9477741
Probable space group: C M C A
;
_chemical_formula_sum "Si O2"
_cell_formula_units_Z 72
_cell_length_a 13.300074
_cell_length_b 12.945620
_cell_length_c 22.971078
_cell_angle_alpha 90.000000
_cell_angle_beta 90.000000
_cell_angle_gamma 90.000000
_cell_volume 3955.107468
_symmetry_space_group_name_H-M "C M C A"
_symmetry_group_IT_number 64
_symmetry_cell_setting 'orthorhombic'
loop_
_space_group_symop_operation_xyz
x,y,z
-x,1/2-y,1/2+z
x,-y,-z
-x,1/2+y,1/2-z
-x,-y,-z
x,1/2+y,1/2-z
-x,y,z
x,1/2-y,1/2+z
1/2+x,1/2+y,z
1/2-x,-y,1/2+z
1/2+x,1/2-y,-z
1/2-x,y,1/2-z
1/2-x,1/2-y,-z
1/2+x,y,1/2-z
1/2-x,1/2+y,z
1/2+x,-y,1/2+z
loop_
_atom_site_type_symbol
_atom_site_label
_atom_site_fract_x
_atom_site_fract_y
_atom_site_fract_z
Si Si1 0.187391 0.598319 0.036606
Si Si2 0.616496 0.852250 0.340707
Si Si3 0.617216 0.606210 0.335253
Si Si4 0.250000 0.022460 0.750000
Si Si5 0.115287 0.830223 0.023383
O O1 0.172187 0.578424 0.104542
O O2 0.129966 0.705652 0.022370
O O3 0.151320 0.500000 0.000000
O O4 0.302865 0.620336 0.018971
O O5 0.500000 0.883560 0.330677
O O6 0.623842 0.729765 0.328699
O O7 0.692549 0.910532 0.298641
O O8 0.637123 0.864389 0.409883
O O9 0.500000 0.578997 0.340571
O O10 0.668982 0.548211 0.282509
O O11 0.000000 0.855548 0.009539
#
# Coordination Sequence:
#
# PCOD9477741 Si02
#       5
#    16  16  16   8  16
#     4  10  19  34  55  79 107 138 171 212 262 313
#     4   9  19  36  54  74 105 139 170 213 264 306
#     4  10  22  37  53  78 109 137 170 217 265 305
#     4  12  20  34  58  78  98 136 186 216 248 310
#     4   9  19  35  54  77 106 139 173 211 260 315
#
# _framework density 18.20431
#
# number of rings (size 3 to 8) (size 9 to 14) (size 15 to 20)
#    0.000    2.222    0.000    4.667    0.000    2.222 
#    0.000    2.222    0.000    8.000    0.000    0.000 
#    0.000    0.000    0.000    0.000    0.000    0.000 
#
# Total GULP energy -201005.158407 kJ/mol
# GULP energy per Si atom -5583.476622 kJ/mol
# Density = 1.816288 g / cm^3
# Si number density = 18.204310 Si / 1000 Ang^3
#
#
#
# Elastic Constant Matrix: (Units=GPa)
#
#
# Indices 1 2 3 4 5 6 
#
# 1 136.2362 31.1183 80.3001 0.0000 0.0000 0.0000
# 2 31.1183 41.6454 39.3945 0.0000 0.0000 0.0000
# 3 80.3001 39.3945 100.4608 0.0000 0.0000 0.0000
# 4 0.0000 0.0000 0.0000 100.1354 0.0000 0.0000
# 5 0.0000 0.0000 0.0000 0.0000 30.4255 0.0000
# 6 0.0000 0.0000 0.0000 0.0000 0.0000 6.5925
#
#
#
# Elastic Compliance Matrix: (Units=1/GPa)
#
#
# Indices 1 2 3 4 5 6 
#
# 1 0.013880 0.000196 -0.011172 0.000000 0.000000 0.000000
# 2 0.000196 0.038175 -0.015127 0.000000 0.000000 0.000000
# 3 -0.011172 -0.015127 0.024815 0.000000 0.000000 0.000000
# 4 0.000000 0.000000 0.000000 0.009986 0.000000 0.000000
# 5 0.000000 0.000000 0.000000 0.000000 0.032867 0.000000
# 6 0.000000 0.000000 0.000000 0.000000 0.000000 0.151687
#
#
# Mechanical properties :
#
#
# Convention : Reuss Voigt Hill
#
# Bulk Modulus (GPa) = 40.54098 64.44089 52.49094
# Shear Modulus (GPa) = 15.06766 35.93266 25.50016
#
# Velocity S-wave (km/s) = 2.88009 4.44763 3.74675
# Velocity P-wave (km/s) = 5.77739 7.86452 6.90033
#
# Compressibility (1/GPa) = 0.02466640
#
# Stress axis : x y z
#
# Youngs Moduli (GPa) = 72.04569 26.19542 40.29746
#
# Poissons Ratio (x) = -0.00514 0.45019
# Poissons Ratio (y) = -0.01414 0.60956
# Poissons Ratio (z) = 0.80486 0.39625
#
# Static dielectric constant tensor:
#      x y z
#    x 1.617270 0.000000 0.000000 
#    y 0.000000 1.625290 0.000000 
#    z 0.000000 0.000000 1.601210 
# 
# From -- ./inp_files/43820.got.cif
#   From: 2010.05.17/outbox.cif.g08.bks.cpg/sg64_22_cif.got.tgz:43820.got - 2010.06.03 16:29:19.
