data_PCOD9477157
_publ_section_title
;
Structure prediction by ZEFSAII (Michael W. Deem and Ramdas Pophale) SiO2 
 PCOD9477157
Probable space group: C M C A
;
_chemical_formula_sum "Si O2"
_cell_formula_units_Z 104
_cell_length_a 21.465835
_cell_length_b 28.471802
_cell_length_c 8.141585
_cell_angle_alpha 90.000000
_cell_angle_beta 90.000000
_cell_angle_gamma 90.000000
_cell_volume 4975.900678
_symmetry_space_group_name_H-M "C M C A"
_symmetry_group_IT_number 64
_symmetry_cell_setting 'orthorhombic'
loop_
_space_group_symop_operation_xyz
x,y,z
-x,1/2-y,1/2+z
x,-y,-z
-x,1/2+y,1/2-z
-x,-y,-z
x,1/2+y,1/2-z
-x,y,z
x,1/2-y,1/2+z
1/2+x,1/2+y,z
1/2-x,-y,1/2+z
1/2+x,1/2-y,-z
1/2-x,y,1/2-z
1/2-x,1/2-y,-z
1/2+x,y,1/2-z
1/2-x,1/2+y,z
1/2+x,-y,1/2+z
loop_
_atom_site_type_symbol
_atom_site_label
_atom_site_fract_x
_atom_site_fract_y
_atom_site_fract_z
Si Si1 0.238930 0.051006 0.054410
Si Si2 0.128103 0.302049 0.143447
Si Si3 0.000000 0.814672 0.212006
Si Si4 0.500000 0.608746 0.497883
Si Si5 0.000000 0.640710 0.372942
Si Si6 0.357173 0.371459 0.886602
Si Si7 0.684330 0.726971 0.959272
Si Si8 0.637234 0.901469 0.987608
O O1 0.250000 0.049002 0.250000
O O2 0.188085 0.091606 0.023161
O O3 0.305950 0.063911 0.974666
O O4 0.216988 0.000000 0.000000
O O5 0.136048 0.269303 0.987852
O O6 0.179934 0.288408 0.273225
O O7 0.062912 0.291328 0.228844
O O8 0.135715 0.356432 0.104336
O O9 0.000000 0.862120 0.330018
O O10 0.000000 0.819324 0.014879
O O11 0.500000 0.642054 0.329701
O O12 0.434554 0.580995 0.487765
O O13 0.931232 0.619503 0.414058
O O14 0.336187 0.318881 0.936107
O O15 0.348394 0.380447 0.692966
O O16 0.750000 0.750000 0.000000
#
# Coordination Sequence:
#
# PCOD9477157 Si02
#       8
#    16  16   8   8   8  16  16  16
#     4  10  22  40  62  91 125 159 201 255 322 387
#     4  11  23  37  57  86 120 159 207 256 301 371
#     4  10  20  39  59  90 121 156 215 255 311 371
#     4   8  18  34  64  92 120 158 211 256 312 369
#     4  10  18  39  65  88 119 164 201 261 318 367
#     4  10  21  39  64  86 118 162 207 254 317 375
#     4  12  24  37  55  84 121 161 205 251 305 368
#     4   9  19  39  62  87 120 161 202 260 312 367
#
# _framework density 20.900738
#
# number of rings (size 3 to 8) (size 9 to 14) (size 15 to 20)
#    0.000    1.846    1.538    2.308    0.000    4.923 
#    0.000    2.308    0.000    0.000    0.000    0.000 
#    0.000    0.000    0.000    0.000    0.000    0.000 
#
# Total GULP energy -289677.960029 kJ/mol
# GULP energy per Si atom -5570.730001 kJ/mol
# Density = 2.085317 g / cm^3
# Si number density = 20.900738 Si / 1000 Ang^3
#
#
#
# Elastic Constant Matrix: (Units=GPa)
#
#
# Indices 1 2 3 4 5 6 
#
# 1 142.7737 34.3284 13.6523 0.0000 0.0000 0.0000
# 2 34.3284 54.8442 -7.1142 0.0000 0.0000 0.0000
# 3 13.6523 -7.1142 31.1952 0.0000 0.0000 0.0000
# 4 0.0000 0.0000 0.0000 21.4559 0.0000 0.0000
# 5 0.0000 0.0000 0.0000 0.0000 29.3245 0.0000
# 6 0.0000 0.0000 0.0000 0.0000 0.0000 12.9251
#
#
#
# Elastic Compliance Matrix: (Units=1/GPa)
#
#
# Indices 1 2 3 4 5 6 
#
# 1 0.009053 -0.006369 -0.005415 0.000000 0.000000 0.000000
# 2 -0.006369 0.023270 0.008094 0.000000 0.000000 0.000000
# 3 -0.005415 0.008094 0.036272 0.000000 0.000000 0.000000
# 4 0.000000 0.000000 0.000000 0.046607 0.000000 0.000000
# 5 0.000000 0.000000 0.000000 0.000000 0.034101 0.000000
# 6 0.000000 0.000000 0.000000 0.000000 0.000000 0.077369
#
#
# Mechanical properties :
#
#
# Convention : Reuss Voigt Hill
#
# Bulk Modulus (GPa) = 16.33558 34.50512 25.42035
# Shear Modulus (GPa) = 19.64973 25.27087 22.46030
#
# Velocity S-wave (km/s) = 3.06951 3.48097 3.28169
# Velocity P-wave (km/s) = 4.51611 5.71849 5.15249
#
# Compressibility (1/GPa) = 0.06121608
#
# Stress axis : x y z
#
# Youngs Moduli (GPa) = 110.45845 42.97402 27.56968
#
# Poissons Ratio (x) = 0.27370 0.14928
# Poissons Ratio (y) = 0.70350 -0.22315
# Poissons Ratio (z) = 0.59808 -0.34784
#
# Static dielectric constant tensor:
#      x y z
#    x 1.903370 0.000000 0.000000 
#    y 0.000000 1.735310 0.000000 
#    z 0.000000 0.000000 1.799560 
# 
# From -- ./inp_files/8577.got.cif
#   From: 2010.05.17/outbox.cif.g08.bks.cpg/sg64_5_cif.got.tgz:8577.got - 2010.06.03 16:29:19.
