data_PCOD9477510
_publ_section_title
;
Structure prediction by ZEFSAII (Michael W. Deem and Ramdas Pophale) SiO2 
 PCOD9477510
Probable space group: C M C A
;
_chemical_formula_sum "Si O2"
_cell_formula_units_Z 104
_cell_length_a 26.162264
_cell_length_b 16.405929
_cell_length_c 12.633973
_cell_angle_alpha 90.000000
_cell_angle_beta 90.000000
_cell_angle_gamma 90.000000
_cell_volume 5422.706459
_symmetry_space_group_name_H-M "C M C A"
_symmetry_group_IT_number 64
_symmetry_cell_setting 'orthorhombic'
loop_
_space_group_symop_operation_xyz
x,y,z
-x,1/2-y,1/2+z
x,-y,-z
-x,1/2+y,1/2-z
-x,-y,-z
x,1/2+y,1/2-z
-x,y,z
x,1/2-y,1/2+z
1/2+x,1/2+y,z
1/2-x,-y,1/2+z
1/2+x,1/2-y,-z
1/2-x,y,1/2-z
1/2-x,1/2-y,-z
1/2+x,y,1/2-z
1/2-x,1/2+y,z
1/2+x,-y,1/2+z
loop_
_atom_site_type_symbol
_atom_site_label
_atom_site_fract_x
_atom_site_fract_y
_atom_site_fract_z
Si Si1 0.867403 0.335527 0.221803
Si Si2 0.942049 0.834098 0.090086
Si Si3 0.356533 0.991260 0.721467
Si Si4 0.124333 0.808910 0.521715
Si Si5 0.559386 0.548770 0.389151
Si Si6 0.806698 0.323834 0.792707
Si Si7 0.593334 0.000000 0.500000
O O1 0.919547 0.335350 0.290716
O O2 0.837061 0.415830 0.263249
O O3 0.873850 0.341253 0.096662
O O4 0.840611 0.248926 0.243273
O O5 0.000000 0.803266 0.085656
O O6 0.901015 0.779800 0.026326
O O7 0.939155 0.923692 0.040286
O O8 0.407142 0.989462 0.795674
O O9 0.322679 0.915537 0.759717
O O10 0.372004 0.977231 0.600565
O O11 0.084981 0.864118 0.588706
O O12 0.178463 0.814935 0.582767
O O13 0.563767 0.500000 0.500000
O O14 0.500000 0.553867 0.360976
O O15 0.750000 0.310630 0.750000
#
# Coordination Sequence:
#
# PCOD9477510 Si02
#       7
#    16  16  16  16  16  16   8
#     4  10  21  38  59  84 114 152 191 239 286 346
#     4  10  21  34  53  84 119 158 197 231 276 339
#     4  10  21  39  60  82 119 153 192 239 292 342
#     4  10  20  38  58  81 117 150 188 239 291 335
#     4  10  19  32  55  86 114 147 186 229 276 330
#     4  10  23  40  60  86 112 143 191 244 299 351
#     4  10  21  38  56  78 118 160 196 234 279 340
#
# _framework density 19.178616000000002
#
# number of rings (size 3 to 8) (size 9 to 14) (size 15 to 20)
#    0.000    2.000    1.538    1.615    0.000    5.538 
#    0.000    1.538    0.000    0.000    0.000    0.000 
#    0.000    0.000    0.000    0.000    0.000    0.000 
#
# Total GULP energy -289875.530765 kJ/mol
# GULP energy per Si atom -5574.529438 kJ/mol
# Density = 1.913496 g / cm^3
# Si number density = 19.178616 Si / 1000 Ang^3
#
#
#
# Elastic Constant Matrix: (Units=GPa)
#
#
# Indices 1 2 3 4 5 6 
#
# 1 74.8653 15.9581 33.3856 0.0000 0.0000 0.0000
# 2 15.9581 76.2245 6.6056 0.0000 0.0000 0.0000
# 3 33.3856 6.6056 119.4252 0.0000 0.0000 0.0000
# 4 0.0000 0.0000 0.0000 28.2038 0.0000 0.0000
# 5 0.0000 0.0000 0.0000 0.0000 10.7515 0.0000
# 6 0.0000 0.0000 0.0000 0.0000 0.0000 10.1311
#
#
#
# Elastic Compliance Matrix: (Units=1/GPa)
#
#
# Indices 1 2 3 4 5 6 
#
# 1 0.015896 -0.002957 -0.004280 0.000000 0.000000 0.000000
# 2 -0.002957 0.013732 0.000067 0.000000 0.000000 0.000000
# 3 -0.004280 0.000067 0.009566 0.000000 0.000000 0.000000
# 4 0.000000 0.000000 0.000000 0.035456 0.000000 0.000000
# 5 0.000000 0.000000 0.000000 0.000000 0.093010 0.000000
# 6 0.000000 0.000000 0.000000 0.000000 0.000000 0.098706
#
#
# Mechanical properties :
#
#
# Convention : Reuss Voigt Hill
#
# Bulk Modulus (GPa) = 40.23414 42.49040 41.36227
# Shear Modulus (GPa) = 17.30145 24.12166 20.71156
#
# Velocity S-wave (km/s) = 3.00679 3.55031 3.28979
# Velocity P-wave (km/s) = 5.75140 6.24575 6.00367
#
# Compressibility (1/GPa) = 0.02485452
#
# Stress axis : x y z
#
# Youngs Moduli (GPa) = 62.90726 72.82042 104.53363
#
# Poissons Ratio (x) = 0.21534 0.44744
# Poissons Ratio (y) = 0.18602 -0.00701
# Poissons Ratio (z) = 0.26926 -0.00489
#
# Static dielectric constant tensor:
#      x y z
#    x 1.644880 0.000000 0.000000 
#    y 0.000000 1.729010 0.000000 
#    z 0.000000 0.000000 1.659060 
# 
# From -- ./inp_files/19214.got.cif
#   From: 2010.05.17/outbox.cif.g08.bks.cpg/sg64_10_cif.got.tgz:19214.got - 2010.06.03 16:29:19.
