data_PCOD9477392
_publ_section_title
;
Structure prediction by ZEFSAII (Michael W. Deem and Ramdas Pophale) SiO2 
 PCOD9477392
Probable space group: C M C A
;
_chemical_formula_sum "Si O2"
_cell_formula_units_Z 96
_cell_length_a 8.730751
_cell_length_b 24.438190
_cell_length_c 26.543130
_cell_angle_alpha 90.000000
_cell_angle_beta 90.000000
_cell_angle_gamma 90.000000
_cell_volume 5663.341801
_symmetry_space_group_name_H-M "C M C A"
_symmetry_group_IT_number 64
_symmetry_cell_setting 'orthorhombic'
loop_
_space_group_symop_operation_xyz
x,y,z
-x,1/2-y,1/2+z
x,-y,-z
-x,1/2+y,1/2-z
-x,-y,-z
x,1/2+y,1/2-z
-x,y,z
x,1/2-y,1/2+z
1/2+x,1/2+y,z
1/2-x,-y,1/2+z
1/2+x,1/2-y,-z
1/2-x,y,1/2-z
1/2-x,1/2-y,-z
1/2+x,y,1/2-z
1/2-x,1/2+y,z
1/2+x,-y,1/2+z
loop_
_atom_site_type_symbol
_atom_site_label
_atom_site_fract_x
_atom_site_fract_y
_atom_site_fract_z
Si Si1 0.322722 0.919068 0.614463
Si Si2 0.184941 0.829966 0.805981
Si Si3 0.682524 0.256499 0.116868
Si Si4 0.316781 0.858380 0.071356
Si Si5 0.321597 0.821542 0.533650
Si Si6 0.315966 0.982635 0.056084
O O1 0.500000 0.933898 0.622749
O O2 0.267281 0.884363 0.662665
O O3 0.317253 0.875364 0.568809
O O4 0.232970 0.972095 0.596417
O O5 0.250000 0.830734 0.750000
O O6 0.247212 0.777829 0.836963
O O7 0.000000 0.828224 0.806364
O O8 0.500000 0.254131 0.118529
O O9 0.740392 0.318617 0.112230
O O10 0.744003 0.225459 0.066904
O O11 0.500000 0.856055 0.076471
O O12 0.265155 0.921658 0.071193
O O13 0.267267 0.835064 0.017017
O O14 0.500000 0.808201 0.523508
O O15 0.500000 0.981268 0.053226
O O16 0.259242 0.000000 0.000000
#
# Coordination Sequence:
#
# PCOD9477392 Si02
#       6
#    16  16  16  16  16  16
#     4   9  19  33  52  78 108 139 177 221 263 313
#     4  10  21  39  61  86 108 134 172 219 275 325
#     4  11  22  35  52  76 105 139 177 221 269 318
#     4  11  21  33  49  72 107 146 182 221 263 316
#     4  10  19  32  49  73 105 142 180 219 262 315
#     4  10  20  33  50  75 107 146 187 222 261 312
#
# _framework density 16.951122000000002
#
# number of rings (size 3 to 8) (size 9 to 14) (size 15 to 20)
#    0.000    1.833    1.667    4.500    0.000    5.000 
#    0.000    0.000    0.000    1.000    0.000    2.333 
#    0.000    0.000    0.000    0.000    0.000    0.000 
#
# Total GULP energy -267932.023915 kJ/mol
# GULP energy per Si atom -5581.917165 kJ/mol
# Density = 1.691254 g / cm^3
# Si number density = 16.951122 Si / 1000 Ang^3
#
#
#
# Elastic Constant Matrix: (Units=GPa)
#
#
# Indices 1 2 3 4 5 6 
#
# 1 57.1764 41.7213 17.7525 0.0000 0.0000 0.0000
# 2 41.7213 143.3595 66.2273 0.0000 0.0000 0.0000
# 3 17.7525 66.2273 86.2351 0.0000 0.0000 0.0000
# 4 0.0000 0.0000 0.0000 6.4564 0.0000 0.0000
# 5 0.0000 0.0000 0.0000 0.0000 26.4043 0.0000
# 6 0.0000 0.0000 0.0000 0.0000 0.0000 26.2202
#
#
#
# Elastic Compliance Matrix: (Units=1/GPa)
#
#
# Indices 1 2 3 4 5 6 
#
# 1 0.022226 -0.006749 0.000608 0.000000 0.000000 0.000000
# 2 -0.006749 0.012860 -0.008487 0.000000 0.000000 0.000000
# 3 0.000608 -0.008487 0.017989 0.000000 0.000000 0.000000
# 4 0.000000 0.000000 0.000000 0.154886 0.000000 0.000000
# 5 0.000000 0.000000 0.000000 0.000000 0.037873 0.000000
# 6 0.000000 0.000000 0.000000 0.000000 0.000000 0.038138
#
#
# Mechanical properties :
#
#
# Convention : Reuss Voigt Hill
#
# Bulk Modulus (GPa) = 41.98454 59.79702 50.89078
# Shear Modulus (GPa) = 15.56812 22.55418 19.06115
#
# Velocity S-wave (km/s) = 3.03382 3.65162 3.35696
# Velocity P-wave (km/s) = 6.09047 7.28916 6.71661
#
# Compressibility (1/GPa) = 0.02381829
#
# Stress axis : x y z
#
# Youngs Moduli (GPa) = 44.99276 77.75779 55.58893
#
# Poissons Ratio (x) = 0.52479 -0.03378
# Poissons Ratio (y) = 0.30366 0.47180
# Poissons Ratio (z) = -0.02734 0.65995
#
# Static dielectric constant tensor:
#      x y z
#    x 1.572690 0.000000 0.000000 
#    y 0.000000 1.592030 0.000000 
#    z 0.000000 0.000000 1.555120 
# 
# From -- ./inp_files/48374.got.cif
#   From: 2010.05.17/outbox.cif.g08.bks.cpg/sg64_25_cif.got.tgz:48374.got - 2010.06.03 16:29:19.
