data_PCOD9477966
_publ_section_title
;
Structure prediction by ZEFSAII (Michael W. Deem and Ramdas Pophale) SiO2 
 PCOD9477966
Probable space group: C M C A
;
_chemical_formula_sum "Si O2"
_cell_formula_units_Z 32
_cell_length_a 5.633789
_cell_length_b 16.523383
_cell_length_c 13.347956
_cell_angle_alpha 90.000000
_cell_angle_beta 90.000000
_cell_angle_gamma 90.000000
_cell_volume 1242.551258
_symmetry_space_group_name_H-M "C M C A"
_symmetry_group_IT_number 64
_symmetry_cell_setting 'orthorhombic'
loop_
_space_group_symop_operation_xyz
x,y,z
-x,1/2-y,1/2+z
x,-y,-z
-x,1/2+y,1/2-z
-x,-y,-z
x,1/2+y,1/2-z
-x,y,z
x,1/2-y,1/2+z
1/2+x,1/2+y,z
1/2-x,-y,1/2+z
1/2+x,1/2-y,-z
1/2-x,y,1/2-z
1/2-x,1/2-y,-z
1/2+x,y,1/2-z
1/2-x,1/2+y,z
1/2+x,-y,1/2+z
loop_
_atom_site_type_symbol
_atom_site_label
_atom_site_fract_x
_atom_site_fract_y
_atom_site_fract_z
Si Si1 0.500000 0.545987 0.894044
Si Si2 0.500000 0.018024 0.122265
Si Si3 0.500000 0.702635 0.008911
Si Si4 0.000000 0.821122 0.763855
O O1 0.249096 0.521482 0.848754
O O2 0.500000 0.500000 0.000000
O O3 0.500000 0.639577 0.919585
O O4 0.500000 0.105772 0.180706
O O5 0.500000 0.000000 0.000000
O O6 0.500000 0.657786 0.117491
O O7 0.250000 0.750000 0.000000
O O8 0.250000 0.776686 0.750000
#
# Coordination Sequence:
#
# PCOD9477966 Si02
#       4
#     8   8   8   8
#     4  10  20  39  67 100 134 184 244 302 373 444
#     4  10  19  35  64 104 137 172 236 313 372 431
#     4  12  26  45  72 108 156 211 255 308 397 479
#     4  12  23  41  72 108 142 191 257 313 376 468
#
# _framework density 25.753468000000002
#
# number of rings (size 3 to 8) (size 9 to 14) (size 15 to 20)
#    0.000    1.000    0.000   10.500    0.000    0.000 
#    0.000    0.000    0.000   48.000    0.000    0.000 
#    0.000    0.000    0.000    0.000    0.000    0.000 
#
# Total GULP energy -89247.430567 kJ/mol
# GULP energy per Si atom -5577.964410 kJ/mol
# Density = 2.569485 g / cm^3
# Si number density = 25.753468 Si / 1000 Ang^3
#
#
#
# Elastic Constant Matrix: (Units=GPa)
#
#
# Indices 1 2 3 4 5 6 
#
# 1 365.1667 71.4824 41.4952 0.0000 0.0000 0.0000
# 2 71.4824 77.6142 22.9646 0.0000 0.0000 0.0000
# 3 41.4952 22.9646 207.6179 0.0000 0.0000 0.0000
# 4 0.0000 0.0000 0.0000 44.1554 0.0000 0.0000
# 5 0.0000 0.0000 0.0000 0.0000 -19.1133 0.0000
# 6 0.0000 0.0000 0.0000 0.0000 0.0000 39.8144
#
#
#
# Elastic Compliance Matrix: (Units=1/GPa)
#
#
# Indices 1 2 3 4 5 6 
#
# 1 0.003364 -0.002997 -0.000341 0.000000 0.000000 0.000000
# 2 -0.002997 0.015991 -0.001170 0.000000 0.000000 0.000000
# 3 -0.000341 -0.001170 0.005014 0.000000 0.000000 0.000000
# 4 0.000000 0.000000 0.000000 0.022647 0.000000 0.000000
# 5 0.000000 0.000000 0.000000 0.000000 -0.052319 0.000000
# 6 0.000000 0.000000 0.000000 0.000000 0.000000 0.025117
#
#
# Mechanical properties :
#
#
# Convention : Reuss Voigt Hill
#
# Bulk Modulus (GPa) = 65.13304 102.47592 83.80448
# Shear Modulus (GPa) = 147.29056 47.26841 97.27949
#
# Velocity S-wave (km/s) = 7.57078 4.28883 6.15267
# Velocity P-wave (km/s) = 10.08802 8.02514 9.11512
#
# Compressibility (1/GPa) = 0.01535319
#
# Stress axis : x y z
#
# Youngs Moduli (GPa) = 297.27070 62.53573 199.44027
#
# Poissons Ratio (x) = 0.18744 0.06797
# Poissons Ratio (y) = 0.89102 0.23328
# Poissons Ratio (z) = 0.10131 0.07315
#
# Static dielectric constant tensor:
#      x y z
#    x 1.801580 0.000000 0.000000 
#    y 0.000000 2.067570 0.000000 
#    z 0.000000 0.000000 2.154430 
# 
# From -- ./inp_files/20029.got.cif
#   From: 2010.05.17/outbox.cif.g08.bks.cpg/sg64_11_cif.got.tgz:20029.got - 2010.06.03 16:29:19.
