data_PCOD9477325
_publ_section_title
;
Structure prediction by ZEFSAII (Michael W. Deem and Ramdas Pophale) SiO2 
 PCOD9477325
Probable space group: C M C A
;
_chemical_formula_sum "Si O2"
_cell_formula_units_Z 96
_cell_length_a 9.001178
_cell_length_b 20.205811
_cell_length_c 30.433699
_cell_angle_alpha 90.000000
_cell_angle_beta 90.000000
_cell_angle_gamma 90.000000
_cell_volume 5535.162527
_symmetry_space_group_name_H-M "C M C A"
_symmetry_group_IT_number 64
_symmetry_cell_setting 'orthorhombic'
loop_
_space_group_symop_operation_xyz
x,y,z
-x,1/2-y,1/2+z
x,-y,-z
-x,1/2+y,1/2-z
-x,-y,-z
x,1/2+y,1/2-z
-x,y,z
x,1/2-y,1/2+z
1/2+x,1/2+y,z
1/2-x,-y,1/2+z
1/2+x,1/2-y,-z
1/2-x,y,1/2-z
1/2-x,1/2-y,-z
1/2+x,y,1/2-z
1/2-x,1/2+y,z
1/2+x,-y,1/2+z
loop_
_atom_site_type_symbol
_atom_site_label
_atom_site_fract_x
_atom_site_fract_y
_atom_site_fract_z
Si Si1 0.177234 0.309988 0.972992
Si Si2 0.676164 0.604981 0.613281
Si Si3 0.671280 0.102629 0.705005
Si Si4 0.175729 0.235768 0.114282
Si Si5 0.828695 0.263722 0.794682
Si Si6 0.326218 0.429551 0.023758
O O1 0.235494 0.301717 0.923540
O O2 0.000000 0.305960 0.975157
O O3 0.250000 0.250000 0.000000
O O4 0.235564 0.376486 0.995433
O O5 0.500000 0.592847 0.611728
O O6 0.742338 0.584565 0.660484
O O7 0.698394 0.684748 0.608599
O O8 0.758990 0.570962 0.572697
O O9 0.500000 0.081171 0.703368
O O10 0.750000 0.080286 0.750000
O O11 0.671392 0.183174 0.706222
O O12 0.237575 0.217242 0.162090
O O13 0.000000 0.223340 0.110776
O O14 0.750000 0.286288 0.750000
O O15 0.000000 0.284955 0.797004
O O16 0.500000 0.410162 0.025853
O O17 0.315573 0.500000 0.000000
#
# Coordination Sequence:
#
# PCOD9477325 Si02
#       6
#    16  16  16  16  16  16
#     4  12  23  36  56  80 107 140 179 223 267 318
#     4  10  19  31  50  74 103 139 176 217 266 318
#     4   9  16  26  42  66  99 134 171 214 261 315
#     4  10  19  31  49  75 104 137 176 220 266 317
#     4   9  16  26  41  65  99 137 172 212 262 317
#     4  11  24  40  57  78 107 143 182 225 273 324
#
# _framework density 17.343664
#
# number of rings (size 3 to 8) (size 9 to 14) (size 15 to 20)
#    0.000    1.833    1.667    4.000    0.000    6.667 
#    0.000    0.000    0.000    0.000    0.000    1.167 
#    0.000    8.000    0.000    0.000    0.000    0.000 
#
# Total GULP energy -267961.732053 kJ/mol
# GULP energy per Si atom -5582.536084 kJ/mol
# Density = 1.730419 g / cm^3
# Si number density = 17.343664 Si / 1000 Ang^3
#
#
#
# Elastic Constant Matrix: (Units=GPa)
#
#
# Indices 1 2 3 4 5 6 
#
# 1 166.2303 35.2466 92.4347 0.0000 0.0000 0.0000
# 2 35.2466 25.9207 29.2904 0.0000 0.0000 0.0000
# 3 92.4347 29.2904 176.6068 0.0000 0.0000 0.0000
# 4 0.0000 0.0000 0.0000 10.8356 0.0000 0.0000
# 5 0.0000 0.0000 0.0000 0.0000 38.8666 0.0000
# 6 0.0000 0.0000 0.0000 0.0000 0.0000 16.2091
#
#
#
# Elastic Compliance Matrix: (Units=1/GPa)
#
#
# Indices 1 2 3 4 5 6 
#
# 1 0.010099 -0.009549 -0.003702 0.000000 0.000000 0.000000
# 2 -0.009549 0.056506 -0.004374 0.000000 0.000000 0.000000
# 3 -0.003702 -0.004374 0.008325 0.000000 0.000000 0.000000
# 4 0.000000 0.000000 0.000000 0.092289 0.000000 0.000000
# 5 0.000000 0.000000 0.000000 0.000000 0.025729 0.000000
# 6 0.000000 0.000000 0.000000 0.000000 0.000000 0.061694
#
#
# Mechanical properties :
#
#
# Convention : Reuss Voigt Hill
#
# Bulk Modulus (GPa) = 25.20109 75.85570 50.52840
# Shear Modulus (GPa) = 16.49520 27.30135 21.89827
#
# Velocity S-wave (km/s) = 3.08730 3.97185 3.55718
# Velocity P-wave (km/s) = 5.22212 8.05394 6.78736
#
# Compressibility (1/GPa) = 0.03968082
#
# Stress axis : x y z
#
# Youngs Moduli (GPa) = 99.01874 17.69715 120.11605
#
# Poissons Ratio (x) = 0.16900 0.44467
# Poissons Ratio (y) = 0.94556 0.52534
# Poissons Ratio (z) = 0.36657 0.07740
#
# Static dielectric constant tensor:
#      x y z
#    x 1.578910 0.000000 0.000000 
#    y 0.000000 1.561940 0.000000 
#    z 0.000000 0.000000 1.593060 
# 
# From -- ./inp_files/48062.got.cif
#   From: 2010.05.17/outbox.cif.g08.bks.cpg/sg64_25_cif.got.tgz:48062.got - 2010.06.03 16:29:19.
