data_PCOD9477257
_publ_section_title
;
Structure prediction by ZEFSAII (Michael W. Deem and Ramdas Pophale) SiO2 
 PCOD9477257
Probable space group: C M C A
;
_chemical_formula_sum "Si O2"
_cell_formula_units_Z 128
_cell_length_a 20.692491
_cell_length_b 20.533893
_cell_length_c 18.520661
_cell_angle_alpha 90.000000
_cell_angle_beta 90.000000
_cell_angle_gamma 90.000000
_cell_volume 7869.380633
_symmetry_space_group_name_H-M "C M C A"
_symmetry_group_IT_number 64
_symmetry_cell_setting 'orthorhombic'
loop_
_space_group_symop_operation_xyz
x,y,z
-x,1/2-y,1/2+z
x,-y,-z
-x,1/2+y,1/2-z
-x,-y,-z
x,1/2+y,1/2-z
-x,y,z
x,1/2-y,1/2+z
1/2+x,1/2+y,z
1/2-x,-y,1/2+z
1/2+x,1/2-y,-z
1/2-x,y,1/2-z
1/2-x,1/2-y,-z
1/2+x,y,1/2-z
1/2-x,1/2+y,z
1/2+x,-y,1/2+z
loop_
_atom_site_type_symbol
_atom_site_label
_atom_site_fract_x
_atom_site_fract_y
_atom_site_fract_z
Si Si1 0.568377 0.394502 0.806995
Si Si2 0.307958 0.242540 0.802914
Si Si3 0.072051 0.265574 0.786781
Si Si4 0.571344 0.628636 0.025494
Si Si5 0.713201 0.073885 0.480441
Si Si6 0.575065 0.727886 0.457158
Si Si7 0.705151 0.807033 0.035074
Si Si8 0.794764 0.900190 0.815785
O O1 0.500000 0.430285 0.801304
O O2 0.569679 0.338146 0.747131
O O3 0.570621 0.363117 0.887394
O O4 0.635069 0.432129 0.803065
O O5 0.250000 0.222857 0.750000
O O6 0.374367 0.229671 0.760422
O O7 0.304207 0.210419 0.881052
O O8 0.302385 0.321254 0.813146
O O9 0.088178 0.269882 0.871306
O O10 0.000000 0.237466 0.779859
O O11 0.500000 0.600602 0.006297
O O12 0.636454 0.589111 0.008413
O O13 0.576601 0.698810 0.988478
O O14 0.755853 0.126345 0.523116
O O15 0.727969 0.083709 0.395631
O O16 0.726728 0.000000 0.500000
O O17 0.500000 0.704331 0.467311
O O18 0.634776 0.692161 0.496385
O O19 0.750000 0.750000 0.000000
O O20 0.750000 0.919219 0.750000
#
# Coordination Sequence:
#
# PCOD9477257 Si02
#       8
#    16  16  16  16  16  16  16  16
#     4   8  14  25  42  68 100 128 161 207 257 311
#     4  10  19  30  50  79 104 135 173 220 273 320
#     4   9  17  27  43  74 110 134 162 215 272 322
#     4   9  17  32  53  76 106 139 174 215 271 331
#     4  11  23  36  52  78 111 147 183 223 266 321
#     4  10  19  30  51  83 110 136 174 224 275 321
#     4  12  20  34  55  79 108 143 178 223 272 320
#     4   9  17  30  51  74  98 134 171 218 266 313
#
# _framework density 16.265574999999998
#
# number of rings (size 3 to 8) (size 9 to 14) (size 15 to 20)
#    0.000    2.250    2.500    2.250    3.500    1.750 
#    0.000    0.625    0.000    0.375    0.000    0.000 
#    0.000    0.000    0.000    0.000    0.000    0.000 
#
# Total GULP energy -356280.246310 kJ/mol
# GULP energy per Si atom -5566.878849 kJ/mol
# Density = 1.622855 g / cm^3
# Si number density = 16.265575 Si / 1000 Ang^3
#
#
#
# Elastic Constant Matrix: (Units=GPa)
#
#
# Indices 1 2 3 4 5 6 
#
# 1 125.6196 32.8270 79.9979 0.0000 0.0000 0.0000
# 2 32.8270 51.9672 21.6741 0.0000 0.0000 0.0000
# 3 79.9979 21.6741 112.8323 0.0000 0.0000 0.0000
# 4 0.0000 0.0000 0.0000 4.6975 0.0000 0.0000
# 5 0.0000 0.0000 0.0000 0.0000 29.9182 0.0000
# 6 0.0000 0.0000 0.0000 0.0000 0.0000 8.1071
#
#
#
# Elastic Compliance Matrix: (Units=1/GPa)
#
#
# Indices 1 2 3 4 5 6 
#
# 1 0.015994 -0.005842 -0.010217 0.000000 0.000000 0.000000
# 2 -0.005842 0.023052 -0.000286 0.000000 0.000000 0.000000
# 3 -0.010217 -0.000286 0.016162 0.000000 0.000000 0.000000
# 4 0.000000 0.000000 0.000000 0.212877 0.000000 0.000000
# 5 0.000000 0.000000 0.000000 0.000000 0.033424 0.000000
# 6 0.000000 0.000000 0.000000 0.000000 0.000000 0.123349
#
#
# Mechanical properties :
#
#
# Convention : Reuss Voigt Hill
#
# Bulk Modulus (GPa) = 44.41080 62.15746 53.28413
# Shear Modulus (GPa) = 10.75141 18.93925 14.84533
#
# Velocity S-wave (km/s) = 2.57376 3.41600 3.02434
# Velocity P-wave (km/s) = 6.01624 7.33865 6.71010
#
# Compressibility (1/GPa) = 0.02251704
#
# Stress axis : x y z
#
# Youngs Moduli (GPa) = 62.52406 43.37929 61.87391
#
# Poissons Ratio (x) = 0.25341 0.63219
# Poissons Ratio (y) = 0.36525 0.01772
# Poissons Ratio (z) = 0.63884 0.01243
#
# Static dielectric constant tensor:
#      x y z
#    x 1.631710 0.000000 0.000000 
#    y 0.000000 1.510790 0.000000 
#    z 0.000000 0.000000 1.535840 
# 
# From -- ./inp_files/34653.got.cif
#   From: 2010.05.17/outbox.cif.g08.bks.cpg/sg64_18_cif.got.tgz:34653.got - 2010.06.03 16:29:19.
