data_PCOD9477711
_publ_section_title
;
Structure prediction by ZEFSAII (Michael W. Deem and Ramdas Pophale) SiO2 
 PCOD9477711
Probable space group: C M C A
;
_chemical_formula_sum "Si O2"
_cell_formula_units_Z 72
_cell_length_a 14.728125
_cell_length_b 15.058873
_cell_length_c 18.720459
_cell_angle_alpha 90.000000
_cell_angle_beta 90.000000
_cell_angle_gamma 90.000000
_cell_volume 4151.991205
_symmetry_space_group_name_H-M "C M C A"
_symmetry_group_IT_number 64
_symmetry_cell_setting 'orthorhombic'
loop_
_space_group_symop_operation_xyz
x,y,z
-x,1/2-y,1/2+z
x,-y,-z
-x,1/2+y,1/2-z
-x,-y,-z
x,1/2+y,1/2-z
-x,y,z
x,1/2-y,1/2+z
1/2+x,1/2+y,z
1/2-x,-y,1/2+z
1/2+x,1/2-y,-z
1/2-x,y,1/2-z
1/2-x,1/2-y,-z
1/2+x,y,1/2-z
1/2-x,1/2+y,z
1/2+x,-y,1/2+z
loop_
_atom_site_type_symbol
_atom_site_label
_atom_site_fract_x
_atom_site_fract_y
_atom_site_fract_z
Si Si1 0.607939 0.547117 0.359720
Si Si2 0.892290 0.648897 0.824298
Si Si3 0.778586 0.500000 0.000000
Si Si4 0.391194 0.243088 0.182123
Si Si5 0.261913 0.319539 0.063245
O O1 0.500000 0.550599 0.374095
O O2 0.624662 0.456854 0.315145
O O3 0.659818 0.536694 0.434866
O O4 0.633331 0.638563 0.320599
O O5 0.867264 0.706918 0.755445
O O6 0.831070 0.676711 0.891039
O O7 0.000000 0.660316 0.837970
O O8 0.723166 0.417366 0.031090
O O9 0.500000 0.249888 0.174203
O O10 0.340373 0.289611 0.116831
O O11 0.250000 0.250000 0.000000
#
# Coordination Sequence:
#
# PCOD9477711 Si02
#       5
#    16  16   8  16  16
#     4   9  17  32  57  81 103 138 183 230 270 309
#     4   9  20  37  57  81 108 138 182 228 271 318
#     4  10  19  34  53  80 110 138 182 226 270 316
#     4  10  20  37  57  81 110 144 181 224 273 325
#     4  11  21  36  55  82 111 143 180 222 271 324
#
# _framework density 17.341076999999999
#
# number of rings (size 3 to 8) (size 9 to 14) (size 15 to 20)
#    0.000    2.222    2.222    1.000    0.000    1.778 
#    4.000    2.778    0.000    0.000    0.000    0.000 
#    0.000    0.000    0.000    0.000    0.000    0.000 
#
# Total GULP energy -200768.749127 kJ/mol
# GULP energy per Si atom -5576.909698 kJ/mol
# Density = 1.730161 g / cm^3
# Si number density = 17.341077 Si / 1000 Ang^3
#
#
#
# Elastic Constant Matrix: (Units=GPa)
#
#
# Indices 1 2 3 4 5 6 
#
# 1 34.9092 47.0923 33.0398 0.0000 0.0000 0.0000
# 2 47.0923 170.0617 88.4800 0.0000 0.0000 0.0000
# 3 33.0398 88.4800 105.6593 0.0000 0.0000 0.0000
# 4 0.0000 0.0000 0.0000 39.9457 0.0000 0.0000
# 5 0.0000 0.0000 0.0000 0.0000 21.1725 0.0000
# 6 0.0000 0.0000 0.0000 0.0000 0.0000 24.7423
#
#
#
# Elastic Compliance Matrix: (Units=1/GPa)
#
#
# Indices 1 2 3 4 5 6 
#
# 1 0.048436 -0.009804 -0.006936 0.000000 0.000000 0.000000
# 2 -0.009804 0.012404 -0.007322 0.000000 0.000000 0.000000
# 3 -0.006936 -0.007322 0.017765 0.000000 0.000000 0.000000
# 4 0.000000 0.000000 0.000000 0.025034 0.000000 0.000000
# 5 0.000000 0.000000 0.000000 0.000000 0.047231 0.000000
# 6 0.000000 0.000000 0.000000 0.000000 0.000000 0.040417
#
#
# Mechanical properties :
#
#
# Convention : Reuss Voigt Hill
#
# Bulk Modulus (GPa) = 32.80708 71.98381 52.39545
# Shear Modulus (GPa) = 20.03439 26.63998 23.33719
#
# Velocity S-wave (km/s) = 3.40268 3.92374 3.67246
# Velocity P-wave (km/s) = 5.86493 7.88215 6.94715
#
# Compressibility (1/GPa) = 0.03048123
#
# Stress axis : x y z
#
# Youngs Moduli (GPa) = 20.64594 80.61599 56.29088
#
# Poissons Ratio (x) = 0.79033 0.39045
# Poissons Ratio (y) = 0.20241 0.41216
# Poissons Ratio (z) = 0.14320 0.59027
#
# Static dielectric constant tensor:
#      x y z
#    x 1.574920 0.000000 0.000000 
#    y 0.000000 1.610760 0.000000 
#    z 0.000000 0.000000 1.557370 
# 
# From -- ./inp_files/31872.got.cif
#   From: 2010.05.17/outbox.cif.g08.bks.cpg/sg64_16_cif.got.tgz:31872.got - 2010.06.03 16:29:19.
