data_PCOD9477606
_publ_section_title
;
Structure prediction by ZEFSAII (Michael W. Deem and Ramdas Pophale) SiO2 
 PCOD9477606
Probable space group: C M C A
;
_chemical_formula_sum "Si O2"
_cell_formula_units_Z 96
_cell_length_a 19.641887
_cell_length_b 9.950676
_cell_length_c 24.762027
_cell_angle_alpha 90.000000
_cell_angle_beta 90.000000
_cell_angle_gamma 90.000000
_cell_volume 4839.739504
_symmetry_space_group_name_H-M "C M C A"
_symmetry_group_IT_number 64
_symmetry_cell_setting 'orthorhombic'
loop_
_space_group_symop_operation_xyz
x,y,z
-x,1/2-y,1/2+z
x,-y,-z
-x,1/2+y,1/2-z
-x,-y,-z
x,1/2+y,1/2-z
-x,y,z
x,1/2-y,1/2+z
1/2+x,1/2+y,z
1/2-x,-y,1/2+z
1/2+x,1/2-y,-z
1/2-x,y,1/2-z
1/2-x,1/2-y,-z
1/2+x,y,1/2-z
1/2-x,1/2+y,z
1/2+x,-y,1/2+z
loop_
_atom_site_type_symbol
_atom_site_label
_atom_site_fract_x
_atom_site_fract_y
_atom_site_fract_z
Si Si1 0.077008 0.915444 0.637131
Si Si2 0.577155 0.797016 0.459055
Si Si3 0.708143 0.253734 0.362495
Si Si4 0.923965 0.295611 0.080426
Si Si5 0.724949 0.376320 0.034186
Si Si6 0.210412 0.474233 0.805700
O O1 0.085394 0.797266 0.593352
O O2 0.133716 0.920441 0.683630
O O3 0.000000 0.909168 0.658626
O O4 0.083268 0.052198 0.601922
O O5 0.500000 0.854920 0.457658
O O6 0.582340 0.715332 0.515749
O O7 0.643523 0.889415 0.460125
O O8 0.635133 0.218210 0.388150
O O9 0.745080 0.343541 0.407855
O O10 0.747330 0.118431 0.347805
O O11 0.705183 0.364677 0.315020
O O12 0.000000 0.248328 0.094176
O O13 0.752468 0.500000 0.000000
O O14 0.750000 0.250000 0.000000
O O15 0.250000 0.451269 0.750000
#
# Coordination Sequence:
#
# PCOD9477606 Si02
#       6
#    16  16  16  16  16  16
#     4   9  18  34  57  85 116 151 193 241 287 344
#     4  10  19  33  54  84 120 158 189 227 284 354
#     4  11  22  38  60  84 120 151 192 244 294 344
#     4   9  18  31  54  85 119 155 191 227 277 349
#     4  12  24  36  57  88 125 158 192 229 287 358
#     4  11  23  40  62  85 110 150 202 255 298 337
#
# _framework density 19.835777
#
# number of rings (size 3 to 8) (size 9 to 14) (size 15 to 20)
#    0.000    1.667    3.333    2.000    2.333    2.333 
#    0.000    0.833    0.000    5.000    0.000    0.000 
#    0.000    0.000    0.000    0.000    0.000    0.000 
#
# Total GULP energy -267593.327861 kJ/mol
# GULP energy per Si atom -5574.860997 kJ/mol
# Density = 1.979063 g / cm^3
# Si number density = 19.835777 Si / 1000 Ang^3
#
#
#
# Elastic Constant Matrix: (Units=GPa)
#
#
# Indices 1 2 3 4 5 6 
#
# 1 134.8363 2.7559 38.2983 0.0000 0.0000 0.0000
# 2 2.7559 45.5072 1.7471 0.0000 0.0000 0.0000
# 3 38.2983 1.7471 75.0698 0.0000 0.0000 0.0000
# 4 0.0000 0.0000 0.0000 18.4038 0.0000 0.0000
# 5 0.0000 0.0000 0.0000 0.0000 34.6100 0.0000
# 6 0.0000 0.0000 0.0000 0.0000 0.0000 -4.1080
#
#
#
# Elastic Compliance Matrix: (Units=1/GPa)
#
#
# Indices 1 2 3 4 5 6 
#
# 1 0.008679 -0.000356 -0.004419 0.000000 0.000000 0.000000
# 2 -0.000356 0.022009 -0.000331 0.000000 0.000000 0.000000
# 3 -0.004419 -0.000331 0.015583 0.000000 0.000000 0.000000
# 4 0.000000 0.000000 0.000000 0.054337 0.000000 0.000000
# 5 0.000000 0.000000 0.000000 0.000000 0.028893 0.000000
# 6 0.000000 0.000000 0.000000 0.000000 0.000000 -0.243427
#
#
# Mechanical properties :
#
#
# Convention : Reuss Voigt Hill
#
# Bulk Modulus (GPa) = 27.73229 37.89066 32.81147
# Shear Modulus (GPa) = -54.52920 23.95530 -15.28695
#
# Velocity S-wave (km/s) = -5.24881 3.47894 -2.77912
# Velocity P-wave (km/s) = 4.76676 5.93978 2.50589
#
# Compressibility (1/GPa) = 0.03605905
#
# Stress axis : x y z
#
# Youngs Moduli (GPa) = 115.22122 45.43639 64.17127
#
# Poissons Ratio (x) = 0.01617 0.28360
# Poissons Ratio (y) = 0.04101 0.02122
# Poissons Ratio (z) = 0.50922 0.01502
#
# Static dielectric constant tensor:
#      x y z
#    x 1.753020 0.000000 0.000000 
#    y 0.000000 1.712770 0.000000 
#    z 0.000000 0.000000 1.717850 
# 
# From -- ./inp_files/40843.got.cif
#   From: 2010.05.17/outbox.cif.g08.bks.cpg/sg64_21_cif.got.tgz:40843.got - 2010.06.03 16:29:19.
