data_PCOD9477878
_publ_section_title
;
Structure prediction by ZEFSAII (Michael W. Deem and Ramdas Pophale) SiO2 
 PCOD9477878
Probable space group: C M C A
;
_chemical_formula_sum "Si O2"
_cell_formula_units_Z 80
_cell_length_a 17.910073
_cell_length_b 13.924040
_cell_length_c 14.740637
_cell_angle_alpha 90.000000
_cell_angle_beta 90.000000
_cell_angle_gamma 90.000000
_cell_volume 3676.028499
_symmetry_space_group_name_H-M "C M C A"
_symmetry_group_IT_number 64
_symmetry_cell_setting 'orthorhombic'
loop_
_space_group_symop_operation_xyz
x,y,z
-x,1/2-y,1/2+z
x,-y,-z
-x,1/2+y,1/2-z
-x,-y,-z
x,1/2+y,1/2-z
-x,y,z
x,1/2-y,1/2+z
1/2+x,1/2+y,z
1/2-x,-y,1/2+z
1/2+x,1/2-y,-z
1/2-x,y,1/2-z
1/2-x,1/2-y,-z
1/2+x,y,1/2-z
1/2-x,1/2+y,z
1/2+x,-y,1/2+z
loop_
_atom_site_type_symbol
_atom_site_label
_atom_site_fract_x
_atom_site_fract_y
_atom_site_fract_z
Si Si1 0.258250 0.905298 0.035876
Si Si2 0.588807 0.888013 0.758993
Si Si3 0.173365 0.240733 0.405828
Si Si4 0.085263 0.923292 0.369277
Si Si5 0.085048 0.290817 0.587974
O O1 0.217732 0.839749 0.111478
O O2 0.340873 0.934532 0.069850
O O3 0.269928 0.835844 0.949754
O O4 0.218140 0.000000 0.000000
O O5 0.500000 0.866032 0.762166
O O6 0.630369 0.815462 0.827567
O O7 0.616623 0.869061 0.657178
O O8 0.595782 0.998181 0.790955
O O9 0.120967 0.268617 0.491241
O O10 0.086045 0.808889 0.354124
O O11 0.000000 0.941598 0.406373
O O12 0.000000 0.317034 0.568690
#
# Coordination Sequence:
#
# PCOD9477878 Si02
#       5
#    16  16  16  16  16
#     4  10  19  35  55  81 115 148 187 239 283 351
#     4  10  19  35  62  88 113 149 197 247 291 341
#     4  10  20  35  58  81 119 154 185 234 300 346
#     4   9  18  34  60  86 109 143 194 253 293 327
#     4   9  19  35  57  88 118 146 193 244 290 348
#
# _framework density 21.762616999999999
#
# number of rings (size 3 to 8) (size 9 to 14) (size 15 to 20)
#    0.000    2.400    2.000    0.600    0.000    1.200 
#    3.600    9.000    0.000    1.200    0.000    0.000 
#    0.000    0.000    0.000    0.000    0.000    0.000 
#
# Total GULP energy -222713.468533 kJ/mol
# GULP energy per Si atom -5567.836713 kJ/mol
# Density = 2.171308 g / cm^3
# Si number density = 21.762617 Si / 1000 Ang^3
#
#
#
# Elastic Constant Matrix: (Units=GPa)
#
#
# Indices 1 2 3 4 5 6 
#
# 1 61.4209 11.6745 25.5516 0.0000 0.0000 0.0000
# 2 11.6745 60.9661 4.6963 0.0000 0.0000 0.0000
# 3 25.5516 4.6963 42.5179 0.0000 0.0000 0.0000
# 4 0.0000 0.0000 0.0000 18.0606 0.0000 0.0000
# 5 0.0000 0.0000 0.0000 0.0000 20.9902 0.0000
# 6 0.0000 0.0000 0.0000 0.0000 0.0000 11.1881
#
#
#
# Elastic Compliance Matrix: (Units=1/GPa)
#
#
# Indices 1 2 3 4 5 6 
#
# 1 0.022337 -0.003271 -0.013062 0.000000 0.000000 0.000000
# 2 -0.003271 0.017022 0.000086 0.000000 0.000000 0.000000
# 3 -0.013062 0.000086 0.031360 0.000000 0.000000 0.000000
# 4 0.000000 0.000000 0.000000 0.055369 0.000000 0.000000
# 5 0.000000 0.000000 0.000000 0.000000 0.047641 0.000000
# 6 0.000000 0.000000 0.000000 0.000000 0.000000 0.089381
#
#
# Mechanical properties :
#
#
# Convention : Reuss Voigt Hill
#
# Bulk Modulus (GPa) = 26.16183 27.63887 26.90035
# Shear Modulus (GPa) = 16.21550 18.24662 17.23106
#
# Velocity S-wave (km/s) = 2.73263 2.89872 2.81690
# Velocity P-wave (km/s) = 4.69083 4.89195 4.79245
#
# Compressibility (1/GPa) = 0.03822363
#
# Stress axis : x y z
#
# Youngs Moduli (GPa) = 44.76904 58.74630 31.88778
#
# Poissons Ratio (x) = 0.19217 0.41653
# Poissons Ratio (y) = 0.14645 -0.00273
# Poissons Ratio (z) = 0.58479 -0.00503
#
# Static dielectric constant tensor:
#      x y z
#    x 1.863320 0.000000 0.000000 
#    y 0.000000 1.836130 0.000000 
#    z 0.000000 0.000000 1.782830 
# 
# From -- ./inp_files/33012.got.cif
#   From: 2010.05.17/outbox.cif.g08.bks.cpg/sg64_17_cif.got.tgz:33012.got - 2010.06.03 16:29:19.
