data_PCOD9477331
_publ_section_title
;
Structure prediction by ZEFSAII (Michael W. Deem and Ramdas Pophale) SiO2 
 PCOD9477331
Probable space group: C M C A
;
_chemical_formula_sum "Si O2"
_cell_formula_units_Z 96
_cell_length_a 24.276342
_cell_length_b 28.515551
_cell_length_c 8.465630
_cell_angle_alpha 90.000000
_cell_angle_beta 90.000000
_cell_angle_gamma 90.000000
_cell_volume 5860.360037
_symmetry_space_group_name_H-M "C M C A"
_symmetry_group_IT_number 64
_symmetry_cell_setting 'orthorhombic'
loop_
_space_group_symop_operation_xyz
x,y,z
-x,1/2-y,1/2+z
x,-y,-z
-x,1/2+y,1/2-z
-x,-y,-z
x,1/2+y,1/2-z
-x,y,z
x,1/2-y,1/2+z
1/2+x,1/2+y,z
1/2-x,-y,1/2+z
1/2+x,1/2-y,-z
1/2-x,y,1/2-z
1/2-x,1/2-y,-z
1/2+x,y,1/2-z
1/2-x,1/2+y,z
1/2+x,-y,1/2+z
loop_
_atom_site_type_symbol
_atom_site_label
_atom_site_fract_x
_atom_site_fract_y
_atom_site_fract_z
Si Si1 0.500000 0.045914 0.706289
Si Si2 0.813950 0.813200 0.702297
Si Si3 0.709806 0.221904 0.880882
Si Si4 0.000000 0.566671 0.340639
Si Si5 0.608539 0.452614 0.398251
Si Si6 0.382595 0.402631 0.714248
Si Si7 0.188789 0.008941 0.184810
O O1 0.500000 0.066478 0.530508
O O2 0.445012 0.059815 0.798047
O O3 0.500000 0.988914 0.700364
O O4 0.750000 0.825212 0.750000
O O5 0.820092 0.809310 0.511395
O O6 0.823168 0.762424 0.786163
O O7 0.855213 0.853340 0.757545
O O8 0.750000 0.198515 0.750000
O O9 0.750000 0.250000 0.000000
O O10 0.054864 0.590148 0.270942
O O11 0.596370 0.500000 0.500000
O O12 0.621156 0.413176 0.526847
O O13 0.657931 0.467793 0.282320
O O14 0.346819 0.444416 0.789256
O O15 0.250000 0.015024 0.250000
O O16 0.190579 0.000000 0.000000
#
# Coordination Sequence:
#
# PCOD9477331 Si02
#       7
#     8  16  16   8  16  16  16
#     4  11  18  35  52  71  91 136 186 218 250 281
#     4   9  17  32  54  79 104 129 161 203 252 307
#     4   7  13  29  52  75  97 128 158 191 241 303
#     4  11  21  32  55  72  97 132 180 222 248 291
#     4  10  19  31  50  71  96 133 171 210 251 290
#     4  11  21  33  51  76 100 132 169 215 255 291
#     4  11  21  34  47  67 102 140 171 201 251 304
#
# _framework density 16.381246000000001
#
# number of rings (size 3 to 8) (size 9 to 14) (size 15 to 20)
#    0.000    2.500    3.333    3.750    0.000    0.000 
#    0.000   12.500    0.000    2.000    0.000    0.000 
#    0.000    0.000    0.000    0.000    0.000    0.000 
#
# Total GULP energy -267226.991569 kJ/mol
# GULP energy per Si atom -5567.228991 kJ/mol
# Density = 1.634396 g / cm^3
# Si number density = 16.381246 Si / 1000 Ang^3
#
#
#
# Elastic Constant Matrix: (Units=GPa)
#
#
# Indices 1 2 3 4 5 6 
#
# 1 119.7117 39.5997 43.4962 0.0000 0.0000 0.0000
# 2 39.5997 55.7051 26.7876 0.0000 0.0000 0.0000
# 3 43.4962 26.7876 120.3139 0.0000 0.0000 0.0000
# 4 0.0000 0.0000 0.0000 7.5094 0.0000 0.0000
# 5 0.0000 0.0000 0.0000 0.0000 21.8564 0.0000
# 6 0.0000 0.0000 0.0000 0.0000 0.0000 -49.4718
#
#
#
# Elastic Compliance Matrix: (Units=1/GPa)
#
#
# Indices 1 2 3 4 5 6 
#
# 1 0.011629 -0.006994 -0.002647 0.000000 0.000000 0.000000
# 2 -0.006994 0.024310 -0.002884 0.000000 0.000000 0.000000
# 3 -0.002647 -0.002884 0.009911 0.000000 0.000000 0.000000
# 4 0.000000 0.000000 0.000000 0.133166 0.000000 0.000000
# 5 0.000000 0.000000 0.000000 0.000000 0.045753 0.000000
# 6 0.000000 0.000000 0.000000 0.000000 0.000000 -0.020214
#
#
# Mechanical properties :
#
#
# Convention : Reuss Voigt Hill
#
# Bulk Modulus (GPa) = 48.07704 57.27750 52.67727
# Shear Modulus (GPa) = 21.13825 8.36861 14.75343
#
# Velocity S-wave (km/s) = 3.59610 2.26268 3.00430
# Velocity P-wave (km/s) = 6.83046 6.47051 6.65292
#
# Compressibility (1/GPa) = 0.02079995
#
# Stress axis : x y z
#
# Youngs Moduli (GPa) = 85.99502 41.13475 100.90137
#
# Poissons Ratio (x) = 0.28768 0.26707
# Poissons Ratio (y) = 0.60142 0.29103
# Poissons Ratio (z) = 0.22762 0.11864
#
# Static dielectric constant tensor:
#      x y z
#    x 1.541700 0.000000 0.000000 
#    y 0.000000 1.563800 0.000000 
#    z 0.000000 0.000000 1.599670 
# 
# From -- ./inp_files/9633.got.cif
#   From: 2010.05.17/outbox.cif.g08.bks.cpg/sg64_5_cif.got.tgz:9633.got - 2010.06.03 16:29:19.
