data_PCOD9477139
_publ_section_title
;
Structure prediction by ZEFSAII (Michael W. Deem and Ramdas Pophale) SiO2 
 PCOD9477139
Probable space group: C M C A
;
_chemical_formula_sum "Si O2"
_cell_formula_units_Z 120
_cell_length_a 14.524673
_cell_length_b 23.298647
_cell_length_c 17.235136
_cell_angle_alpha 90.000000
_cell_angle_beta 90.000000
_cell_angle_gamma 90.000000
_cell_volume 5832.460145
_symmetry_space_group_name_H-M "C M C A"
_symmetry_group_IT_number 64
_symmetry_cell_setting 'orthorhombic'
loop_
_space_group_symop_operation_xyz
x,y,z
-x,1/2-y,1/2+z
x,-y,-z
-x,1/2+y,1/2-z
-x,-y,-z
x,1/2+y,1/2-z
-x,y,z
x,1/2-y,1/2+z
1/2+x,1/2+y,z
1/2-x,-y,1/2+z
1/2+x,1/2-y,-z
1/2-x,y,1/2-z
1/2-x,1/2-y,-z
1/2+x,y,1/2-z
1/2-x,1/2+y,z
1/2+x,-y,1/2+z
loop_
_atom_site_type_symbol
_atom_site_label
_atom_site_fract_x
_atom_site_fract_y
_atom_site_fract_z
Si Si1 0.895019 0.764328 0.060949
Si Si2 0.160577 0.952271 0.614805
Si Si3 0.500000 0.589921 0.272924
Si Si4 0.230552 0.716235 0.336536
Si Si5 0.101570 0.597494 0.539674
Si Si6 0.850699 0.402351 0.634143
Si Si7 0.392126 0.194983 0.900029
Si Si8 0.694117 0.426308 0.433733
O O1 0.819905 0.741053 0.120728
O O2 0.000000 0.751075 0.085883
O O3 0.889327 0.833127 0.049582
O O4 0.878942 0.730966 0.979930
O O5 0.260924 0.940236 0.650017
O O6 0.169439 0.931676 0.525131
O O7 0.081008 0.920840 0.661122
O O8 0.147116 0.020710 0.609971
O O9 0.579510 0.597181 0.204751
O O10 0.250000 0.696786 0.250000
O O11 0.188977 0.661632 0.379438
O O12 0.154811 0.766164 0.335050
O O13 0.105118 0.581653 0.448530
O O14 0.194810 0.570726 0.574332
O O15 0.000000 0.581097 0.570731
O O16 0.500000 0.187488 0.887732
O O17 0.341953 0.134601 0.905826
#
# Coordination Sequence:
#
# PCOD9477139 Si02
#       8
#    16  16   8  16  16  16  16  16
#     4  10  20  38  64  96 130 172 218 266 327 403
#     4  10  24  42  65  96 126 170 226 282 326 396
#     4  12  24  41  68  89 134 172 214 265 352 401
#     4  12  24  40  60  94 139 171 213 275 338 405
#     4  10  18  37  70  98 128 165 220 273 331 391
#     4  11  23  43  63  96 130 173 215 278 340 395
#     4  11  23  38  66  95 129 174 218 264 336 402
#     4  10  22  42  66  94 131 164 226 286 322 385
#
# _framework density 20.574508999999999
#
# number of rings (size 3 to 8) (size 9 to 14) (size 15 to 20)
#    0.000    1.333    3.333    3.200    2.800    1.067 
#    7.200    2.667    0.000    0.000    0.000    0.000 
#    0.000    0.000    0.000    0.000    0.000    0.000 
#
# Total GULP energy -334256.144852 kJ/mol
# GULP energy per Si atom -5570.935748 kJ/mol
# Density = 2.052768 g / cm^3
# Si number density = 20.574509 Si / 1000 Ang^3
#
#
#
# Elastic Constant Matrix: (Units=GPa)
#
#
# Indices 1 2 3 4 5 6 
#
# 1 119.6032 0.0137 27.9528 0.0000 0.0000 0.0000
# 2 0.0137 44.0185 -4.9517 0.0000 0.0000 0.0000
# 3 27.9528 -4.9517 18.9841 0.0000 0.0000 0.0000
# 4 0.0000 0.0000 0.0000 -2.6409 0.0000 0.0000
# 5 0.0000 0.0000 0.0000 0.0000 5.8863 0.0000
# 6 0.0000 0.0000 0.0000 0.0000 0.0000 -0.4020
#
#
#
# Elastic Compliance Matrix: (Units=1/GPa)
#
#
# Indices 1 2 3 4 5 6 
#
# 1 0.012954 -0.002215 -0.019652 0.000000 0.000000 0.000000
# 2 -0.002215 0.023783 0.009465 0.000000 0.000000 0.000000
# 3 -0.019652 0.009465 0.084080 0.000000 0.000000 0.000000
# 4 0.000000 0.000000 0.000000 -0.378664 0.000000 0.000000
# 5 0.000000 0.000000 0.000000 0.000000 0.169886 0.000000
# 6 0.000000 0.000000 0.000000 0.000000 0.000000 -2.487470
#
#
# Mechanical properties :
#
#
# Convention : Reuss Voigt Hill
#
# Bulk Modulus (GPa) = 10.41520 25.40392 17.90956
# Shear Modulus (GPa) = -1.98521 11.20808 4.61143
#
# Velocity S-wave (km/s) = -0.98335 2.33653 1.49873
# Velocity P-wave (km/s) = 1.94522 4.43320 3.42324
#
# Compressibility (1/GPa) = 0.09601347
#
# Stress axis : x y z
#
# Youngs Moduli (GPa) = 77.19578 42.04663 11.89344
#
# Poissons Ratio (x) = 0.09312 0.23373
# Poissons Ratio (y) = 0.17097 -0.11257
# Poissons Ratio (z) = 1.51702 -0.39795
#
# Static dielectric constant tensor:
#      x y z
#    x 1.739860 0.000000 0.000000 
#    y 0.000000 1.760610 0.000000 
#    z 0.000000 0.000000 1.733700 
# 
# From -- ./inp_files/32537.got.cif
#   From: 2010.05.17/outbox.cif.g08.bks.cpg/sg64_17_cif.got.tgz:32537.got - 2010.06.03 16:29:19.
