data_PCOD9477601
_publ_section_title
;
Structure prediction by ZEFSAII (Michael W. Deem and Ramdas Pophale) SiO2 
 PCOD9477601
Probable space group: C M C A
;
_chemical_formula_sum "Si O2"
_cell_formula_units_Z 96
_cell_length_a 8.617770
_cell_length_b 22.685361
_cell_length_c 23.957610
_cell_angle_alpha 90.000000
_cell_angle_beta 90.000000
_cell_angle_gamma 90.000000
_cell_volume 4683.646236
_symmetry_space_group_name_H-M "C M C A"
_symmetry_group_IT_number 64
_symmetry_cell_setting 'orthorhombic'
loop_
_space_group_symop_operation_xyz
x,y,z
-x,1/2-y,1/2+z
x,-y,-z
-x,1/2+y,1/2-z
-x,-y,-z
x,1/2+y,1/2-z
-x,y,z
x,1/2-y,1/2+z
1/2+x,1/2+y,z
1/2-x,-y,1/2+z
1/2+x,1/2-y,-z
1/2-x,y,1/2-z
1/2-x,1/2-y,-z
1/2+x,y,1/2-z
1/2-x,1/2+y,z
1/2+x,-y,1/2+z
loop_
_atom_site_type_symbol
_atom_site_label
_atom_site_fract_x
_atom_site_fract_y
_atom_site_fract_z
Si Si1 0.183952 0.669843 0.312417
Si Si2 0.315620 0.895889 0.188944
Si Si3 0.312233 0.152362 0.977759
Si Si4 0.184851 0.467844 0.082521
Si Si5 0.312249 0.098727 0.090142
Si Si6 0.316206 0.783097 0.375769
O O1 0.250000 0.670184 0.250000
O O2 0.247160 0.616580 0.350181
O O3 0.237416 0.727977 0.345832
O O4 0.000000 0.667993 0.309574
O O5 0.500000 0.883655 0.190756
O O6 0.250000 0.906486 0.250000
O O7 0.292205 0.950476 0.147075
O O8 0.231621 0.840107 0.160813
O O9 0.500000 0.156293 0.972851
O O10 0.260141 0.088983 0.951863
O O11 0.239964 0.202211 0.938586
O O12 0.270705 0.146663 0.042689
O O13 0.243324 0.533535 0.072044
O O14 0.000000 0.469785 0.071169
O O15 0.500000 0.097456 0.092739
O O16 0.500000 0.774507 0.375716
#
# Coordination Sequence:
#
# PCOD9477601 Si02
#       6
#    16  16  16  16  16  16
#     4  12  26  44  62  82 112 150 193 236 284 339
#     4  10  19  33  54  82 114 148 189 236 288 340
#     4   9  18  35  61  91 120 150 186 231 282 334
#     4   8  16  32  56  85 117 153 190 230 278 333
#     4  10  20  37  61  88 118 153 192 231 276 332
#     4  11  22  38  60  85 113 146 188 237 289 340
#
# _framework density 20.496852000000001
#
# number of rings (size 3 to 8) (size 9 to 14) (size 15 to 20)
#    0.000    2.000    0.000    5.500    0.000    4.000 
#    0.000    5.833    0.000    5.000    0.000    0.000 
#    0.000    0.000    0.000    0.000    0.000    0.000 
#
# Total GULP energy -268105.911334 kJ/mol
# GULP energy per Si atom -5585.539819 kJ/mol
# Density = 2.045020 g / cm^3
# Si number density = 20.496852 Si / 1000 Ang^3
#
#
#
# Elastic Constant Matrix: (Units=GPa)
#
#
# Indices 1 2 3 4 5 6 
#
# 1 52.8762 1.3691 25.9538 0.0000 0.0000 0.0000
# 2 1.3691 49.7926 17.8258 0.0000 0.0000 0.0000
# 3 25.9538 17.8258 106.4937 0.0000 0.0000 0.0000
# 4 0.0000 0.0000 0.0000 18.5211 0.0000 0.0000
# 5 0.0000 0.0000 0.0000 0.0000 27.3416 0.0000
# 6 0.0000 0.0000 0.0000 0.0000 0.0000 17.5585
#
#
#
# Elastic Compliance Matrix: (Units=1/GPa)
#
#
# Indices 1 2 3 4 5 6 
#
# 1 0.021569 0.001371 -0.005486 0.000000 0.000000 0.000000
# 2 0.001371 0.021451 -0.003925 0.000000 0.000000 0.000000
# 3 -0.005486 -0.003925 0.011384 0.000000 0.000000 0.000000
# 4 0.000000 0.000000 0.000000 0.053993 0.000000 0.000000
# 5 0.000000 0.000000 0.000000 0.000000 0.036574 0.000000
# 6 0.000000 0.000000 0.000000 0.000000 0.000000 0.056953
#
#
# Mechanical properties :
#
#
# Convention : Reuss Voigt Hill
#
# Bulk Modulus (GPa) = 26.09301 33.27333 29.68317
# Shear Modulus (GPa) = 21.66581 23.61850 22.64216
#
# Velocity S-wave (km/s) = 3.25473 3.39824 3.32726
# Velocity P-wave (km/s) = 5.18481 5.62725 5.41055
#
# Compressibility (1/GPa) = 0.03832445
#
# Stress axis : x y z
#
# Youngs Moduli (GPa) = 46.36185 46.61864 87.84082
#
# Poissons Ratio (x) = -0.06391 0.48191
# Poissons Ratio (y) = -0.06356 0.34475
# Poissons Ratio (z) = 0.25435 0.18296
#
# Static dielectric constant tensor:
#      x y z
#    x 1.692300 0.000000 0.000000 
#    y 0.000000 1.750060 0.000000 
#    z 0.000000 0.000000 1.749880 
# 
# From -- ./inp_files/43048.got.cif
#   From: 2010.05.17/outbox.cif.g08.bks.cpg/sg64_22_cif.got.tgz:43048.got - 2010.06.03 16:29:19.
