data_PCOD9477356
_publ_section_title
;
Structure prediction by ZEFSAII (Michael W. Deem and Ramdas Pophale) SiO2 
 PCOD9477356
Probable space group: C M C A
;
_chemical_formula_sum "Si O2"
_cell_formula_units_Z 128
_cell_length_a 19.140955
_cell_length_b 24.157638
_cell_length_c 16.526248
_cell_angle_alpha 90.000000
_cell_angle_beta 90.000000
_cell_angle_gamma 90.000000
_cell_volume 7641.741403
_symmetry_space_group_name_H-M "C M C A"
_symmetry_group_IT_number 64
_symmetry_cell_setting 'orthorhombic'
loop_
_space_group_symop_operation_xyz
x,y,z
-x,1/2-y,1/2+z
x,-y,-z
-x,1/2+y,1/2-z
-x,-y,-z
x,1/2+y,1/2-z
-x,y,z
x,1/2-y,1/2+z
1/2+x,1/2+y,z
1/2-x,-y,1/2+z
1/2+x,1/2-y,-z
1/2-x,y,1/2-z
1/2-x,1/2-y,-z
1/2+x,y,1/2-z
1/2-x,1/2+y,z
1/2+x,-y,1/2+z
loop_
_atom_site_type_symbol
_atom_site_label
_atom_site_fract_x
_atom_site_fract_y
_atom_site_fract_z
Si Si1 0.284820 0.114757 0.554973
Si Si2 0.416501 0.039811 0.757890
Si Si3 0.581294 0.159462 0.952028
Si Si4 0.418234 0.669452 0.732733
Si Si5 0.649154 0.957845 0.075019
Si Si6 0.419263 0.542443 0.924931
Si Si7 0.200093 0.217808 0.825087
Si Si8 0.715035 0.801895 0.953450
O O1 0.226462 0.069465 0.578974
O O2 0.361123 0.088465 0.556986
O O3 0.282746 0.166607 0.615800
O O4 0.260248 0.143294 0.471024
O O5 0.500000 0.035227 0.773856
O O6 0.397467 0.105291 0.753748
O O7 0.374944 0.018689 0.837184
O O8 0.403888 0.018603 0.665944
O O9 0.500000 0.168199 0.972226
O O10 0.595242 0.182389 0.861483
O O11 0.597796 0.093929 0.944442
O O12 0.638163 0.185787 0.011148
O O13 0.500000 0.672507 0.746331
O O14 0.377404 0.708355 0.792849
O O15 0.646672 0.000000 0.000000
O O16 0.500000 0.562894 0.920487
O O17 0.415584 0.500000 0.000000
O O18 0.250000 0.211151 0.750000
O O19 0.209696 0.277535 0.864497
O O20 0.750000 0.750000 0.000000
#
# Coordination Sequence:
#
# PCOD9477356 Si02
#       8
#    16  16  16  16  16  16  16  16
#     4  10  20  33  52  74 106 132 170 218 255 310
#     4   9  17  30  48  75 105 130 168 213 251 300
#     4   9  18  33  51  75 108 134 166 214 259 302
#     4   9  16  28  48  76 101 123 160 213 258 298
#     4  10  19  31  51  79 108 139 173 208 260 308
#     4  10  20  34  54  78 105 139 174 214 259 304
#     4  11  19  30  53  76  98 130 168 213 266 306
#     4   9  19  33  48  71 100 134 168 206 257 312
#
# _framework density 16.750108999999998
#
# number of rings (size 3 to 8) (size 9 to 14) (size 15 to 20)
#    0.000    2.375    1.250    4.500    0.000    1.500 
#    0.000    1.875    5.500    0.750    0.000    0.000 
#    0.000    0.000    0.000    0.000    0.000    0.000 
#
# Total GULP energy -356281.100206 kJ/mol
# GULP energy per Si atom -5566.892191 kJ/mol
# Density = 1.671198 g / cm^3
# Si number density = 16.750109 Si / 1000 Ang^3
#
#
#
# Elastic Constant Matrix: (Units=GPa)
#
#
# Indices 1 2 3 4 5 6 
#
# 1 77.3711 32.2972 42.3134 0.0000 0.0000 0.0000
# 2 32.2972 38.6830 47.9785 0.0000 0.0000 0.0000
# 3 42.3134 47.9785 99.8047 0.0000 0.0000 0.0000
# 4 0.0000 0.0000 0.0000 20.6373 0.0000 0.0000
# 5 0.0000 0.0000 0.0000 0.0000 18.2969 0.0000
# 6 0.0000 0.0000 0.0000 0.0000 0.0000 8.0359
#
#
#
# Elastic Compliance Matrix: (Units=1/GPa)
#
#
# Indices 1 2 3 4 5 6 
#
# 1 0.019889 -0.015225 -0.001113 0.000000 0.000000 0.000000
# 2 -0.015225 0.075681 -0.029927 0.000000 0.000000 0.000000
# 3 -0.001113 -0.029927 0.024878 0.000000 0.000000 0.000000
# 4 0.000000 0.000000 0.000000 0.048456 0.000000 0.000000
# 5 0.000000 0.000000 0.000000 0.000000 0.054654 0.000000
# 6 0.000000 0.000000 0.000000 0.000000 0.000000 0.124441
#
#
# Mechanical properties :
#
#
# Convention : Reuss Voigt Hill
#
# Bulk Modulus (GPa) = 35.81916 51.22633 43.52275
# Shear Modulus (GPa) = 11.11515 15.61199 13.36357
#
# Velocity S-wave (km/s) = 2.57881 3.05627 2.82763
# Velocity P-wave (km/s) = 5.50435 6.56532 6.05811
#
# Compressibility (1/GPa) = 0.02791802
#
# Stress axis : x y z
#
# Youngs Moduli (GPa) = 50.27931 13.21328 40.19603
#
# Poissons Ratio (x) = 0.20117 0.04474
# Poissons Ratio (y) = 0.76551 1.20295
# Poissons Ratio (z) = 0.05596 0.39543
#
# Static dielectric constant tensor:
#      x y z
#    x 1.537310 0.000000 0.000000 
#    y 0.000000 1.542940 0.000000 
#    z 0.000000 0.000000 1.622040 
# 
# From -- ./inp_files/33766.got.cif
#   From: 2010.05.17/outbox.cif.g08.bks.cpg/sg64_17_cif.got.tgz:33766.got - 2010.06.03 16:29:19.
