data_PCOD9477936
_publ_section_title
;
Structure prediction by ZEFSAII (Michael W. Deem and Ramdas Pophale) SiO2 
 PCOD9477936
Probable space group: C M C A
;
_chemical_formula_sum "Si O2"
_cell_formula_units_Z 48
_cell_length_a 28.996851
_cell_length_b 13.137935
_cell_length_c 5.550340
_cell_angle_alpha 90.000000
_cell_angle_beta 90.000000
_cell_angle_gamma 90.000000
_cell_volume 2114.450553
_symmetry_space_group_name_H-M "C M C A"
_symmetry_group_IT_number 64
_symmetry_cell_setting 'orthorhombic'
loop_
_space_group_symop_operation_xyz
x,y,z
-x,1/2-y,1/2+z
x,-y,-z
-x,1/2+y,1/2-z
-x,-y,-z
x,1/2+y,1/2-z
-x,y,z
x,1/2-y,1/2+z
1/2+x,1/2+y,z
1/2-x,-y,1/2+z
1/2+x,1/2-y,-z
1/2-x,y,1/2-z
1/2-x,1/2-y,-z
1/2+x,y,1/2-z
1/2-x,1/2+y,z
1/2+x,-y,1/2+z
loop_
_atom_site_type_symbol
_atom_site_label
_atom_site_fract_x
_atom_site_fract_y
_atom_site_fract_z
Si Si1 0.000000 0.811671 0.001388
Si Si2 0.102021 0.366946 0.600787
Si Si3 0.362601 0.867146 0.100345
Si Si4 0.777880 0.500000 0.000000
O O1 0.951675 0.867960 0.967599
O O2 0.000000 0.734097 0.771878
O O3 0.123174 0.251652 0.620328
O O4 0.127692 0.409410 0.366516
O O5 0.107982 0.404919 0.871925
O O6 0.311141 0.901368 0.030962
O O7 0.750000 0.509933 0.250000
#
# Coordination Sequence:
#
# PCOD9477936 Si02
#       4
#     8  16  16   8
#     4  12  16  30  58  94 122 144 190 216 270 330
#     4  10  19  35  60  89 115 151 182 231 267 334
#     4  10  20  37  58  82 113 146 191 230 292 330
#     4  12  26  44  60  79 108 153 194 242 298 350
#
# _framework density 22.700931000000001
#
# number of rings (size 3 to 8) (size 9 to 14) (size 15 to 20)
#    0.000    1.333    6.667    2.000    0.000    0.000 
#    0.000   20.000    0.000   11.000    0.000    0.000 
#    0.000    0.000    0.000    0.000    0.000    0.000 
#
# Total GULP energy -133787.025386 kJ/mol
# GULP energy per Si atom -5574.459391 kJ/mol
# Density = 2.264926 g / cm^3
# Si number density = 22.700931 Si / 1000 Ang^3
#
#
#
# Elastic Constant Matrix: (Units=GPa)
#
#
# Indices 1 2 3 4 5 6 
#
# 1 134.3219 9.9723 23.2805 0.0000 0.0000 0.0000
# 2 9.9723 90.5491 32.4682 0.0000 0.0000 0.0000
# 3 23.2805 32.4682 182.6261 0.0000 0.0000 0.0000
# 4 0.0000 0.0000 0.0000 43.1771 0.0000 0.0000
# 5 0.0000 0.0000 0.0000 0.0000 67.4587 0.0000
# 6 0.0000 0.0000 0.0000 0.0000 0.0000 109.7810
#
#
#
# Elastic Compliance Matrix: (Units=1/GPa)
#
#
# Indices 1 2 3 4 5 6 
#
# 1 0.007636 -0.000525 -0.000880 0.000000 0.000000 0.000000
# 2 -0.000525 0.011832 -0.002037 0.000000 0.000000 0.000000
# 3 -0.000880 -0.002037 0.005950 0.000000 0.000000 0.000000
# 4 0.000000 0.000000 0.000000 0.023160 0.000000 0.000000
# 5 0.000000 0.000000 0.000000 0.000000 0.014824 0.000000
# 6 0.000000 0.000000 0.000000 0.000000 0.000000 0.009109
#
#
# Mechanical properties :
#
#
# Convention : Reuss Voigt Hill
#
# Bulk Modulus (GPa) = 53.95472 59.88211 56.91841
# Shear Modulus (GPa) = 58.42930 66.86844 62.64887
#
# Velocity S-wave (km/s) = 5.07884 5.43325 5.25903
# Velocity P-wave (km/s) = 7.62968 8.11149 7.87427
#
# Compressibility (1/GPa) = 0.01853406
#
# Stress axis : x y z
#
# Youngs Moduli (GPa) = 130.95278 84.51768 168.06956
#
# Poissons Ratio (x) = 0.04441 0.14791
# Poissons Ratio (y) = 0.06881 0.34228
# Poissons Ratio (z) = 0.11524 0.17212
#
# Static dielectric constant tensor:
#      x y z
#    x 1.816870 0.000000 0.000000 
#    y 0.000000 1.935090 0.000000 
#    z 0.000000 0.000000 1.861590 
# 
# From -- ./inp_files/734.got.cif
#   From: 2010.05.17/outbox.cif.g08.bks.cpg/sg64_1_cif.got.tgz:734.got - 2010.06.03 16:29:19.
