data_PCOD9477826
_publ_section_title
;
Structure prediction by ZEFSAII (Michael W. Deem and Ramdas Pophale) SiO2 
 PCOD9477826
Probable space group: C M C A
;
_chemical_formula_sum "Si O2"
_cell_formula_units_Z 80
_cell_length_a 15.807494
_cell_length_b 27.598598
_cell_length_c 8.603216
_cell_angle_alpha 90.000000
_cell_angle_beta 90.000000
_cell_angle_gamma 90.000000
_cell_volume 3753.279209
_symmetry_space_group_name_H-M "C M C A"
_symmetry_group_IT_number 64
_symmetry_cell_setting 'orthorhombic'
loop_
_space_group_symop_operation_xyz
x,y,z
-x,1/2-y,1/2+z
x,-y,-z
-x,1/2+y,1/2-z
-x,-y,-z
x,1/2+y,1/2-z
-x,y,z
x,1/2-y,1/2+z
1/2+x,1/2+y,z
1/2-x,-y,1/2+z
1/2+x,1/2-y,-z
1/2-x,y,1/2-z
1/2-x,1/2-y,-z
1/2+x,y,1/2-z
1/2-x,1/2+y,z
1/2+x,-y,1/2+z
loop_
_atom_site_type_symbol
_atom_site_label
_atom_site_fract_x
_atom_site_fract_y
_atom_site_fract_z
Si Si1 0.153446 0.295796 0.815327
Si Si2 0.845390 0.499979 0.312192
Si Si3 0.154555 0.696111 0.815800
Si Si4 0.654167 0.605102 0.185649
Si Si5 0.405010 0.397857 0.152703
O O1 0.250000 0.294902 0.750000
O O2 0.115635 0.244996 0.757959
O O3 0.114159 0.345513 0.750016
O O4 0.156429 0.297819 0.000070
O O5 0.845159 0.500000 0.500000
O O6 0.750000 0.497824 0.250000
O O7 0.883156 0.552528 0.268114
O O8 0.888999 0.449679 0.266998
O O9 0.250000 0.691667 0.750000
O O10 0.108494 0.647227 0.764975
O O11 0.750000 0.603999 0.250000
O O12 0.654648 0.607809 0.998280
O O13 0.500000 0.397924 0.089655
#
# Coordination Sequence:
#
# PCOD9477826 Si02
#       5
#    16  16  16  16  16
#     4  10  19  34  59  89 114 144 194 247 292 340
#     4   9  19  34  58  86 114 151 196 242 288 346
#     4  11  20  35  60  86 116 152 195 241 288 350
#     4   9  18  36  59  87 117 150 198 244 291 349
#     4  11  23  38  57  86 124 161 196 240 296 351
#
# _framework density 21.314692999999998
#
# number of rings (size 3 to 8) (size 9 to 14) (size 15 to 20)
#    0.000    2.000    0.000    6.600    0.000    8.400 
#    0.000    5.000    0.000    4.200    0.000    0.000 
#    0.000    0.000    0.000    0.000    0.000    0.000 
#
# Total GULP energy -223195.585597 kJ/mol
# GULP energy per Si atom -5579.889640 kJ/mol
# Density = 2.126618 g / cm^3
# Si number density = 21.314693 Si / 1000 Ang^3
#
#
#
# Elastic Constant Matrix: (Units=GPa)
#
#
# Indices 1 2 3 4 5 6 
#
# 1 32.5297 16.9714 -4.1467 0.0000 0.0000 0.0000
# 2 16.9714 244.5314 56.8325 0.0000 0.0000 0.0000
# 3 -4.1467 56.8325 78.9508 0.0000 0.0000 0.0000
# 4 0.0000 0.0000 0.0000 33.6454 0.0000 0.0000
# 5 0.0000 0.0000 0.0000 0.0000 3.7819 0.0000
# 6 0.0000 0.0000 0.0000 0.0000 0.0000 -41.8174
#
#
#
# Elastic Compliance Matrix: (Units=1/GPa)
#
#
# Indices 1 2 3 4 5 6 
#
# 1 0.032942 -0.003229 0.004054 0.000000 0.000000 0.000000
# 2 -0.003229 0.005228 -0.003933 0.000000 0.000000 0.000000
# 3 0.004054 -0.003933 0.015710 0.000000 0.000000 0.000000
# 4 0.000000 0.000000 0.000000 0.029722 0.000000 0.000000
# 5 0.000000 0.000000 0.000000 0.000000 0.264419 0.000000
# 6 0.000000 0.000000 0.000000 0.000000 0.000000 -0.023913
#
#
# Mechanical properties :
#
#
# Convention : Reuss Voigt Hill
#
# Bulk Modulus (GPa) = 20.97931 55.03625 38.00778
# Shear Modulus (GPa) = 14.44213 18.21229 16.32721
#
# Velocity S-wave (km/s) = 2.60584 2.92626 2.77069
# Velocity P-wave (km/s) = 4.34947 6.10690 5.30151
#
# Compressibility (1/GPa) = 0.04766600
#
# Stress axis : x y z
#
# Youngs Moduli (GPa) = 30.35607 191.29542 63.65410
#
# Poissons Ratio (x) = 0.61761 -0.25807
# Poissons Ratio (y) = 0.09801 0.25032
# Poissons Ratio (z) = -0.12307 0.75228
#
# Static dielectric constant tensor:
#      x y z
#    x 1.747600 0.000000 0.000000 
#    y 0.000000 1.865900 0.000000 
#    z 0.000000 0.000000 1.726130 
# 
# From -- ./inp_files/8601.got.cif
#   From: 2010.05.17/outbox.cif.g08.bks.cpg/sg64_5_cif.got.tgz:8601.got - 2010.06.03 16:29:19.
