data_PCOD9477639
_publ_section_title
;
Structure prediction by ZEFSAII (Michael W. Deem and Ramdas Pophale) SiO2 
 PCOD9477639
Probable space group: C M C A
;
_chemical_formula_sum "Si O2"
_cell_formula_units_Z 64
_cell_length_a 16.754483
_cell_length_b 20.002463
_cell_length_c 8.023296
_cell_angle_alpha 90.000000
_cell_angle_beta 90.000000
_cell_angle_gamma 90.000000
_cell_volume 2688.854620
_symmetry_space_group_name_H-M "C M C A"
_symmetry_group_IT_number 64
_symmetry_cell_setting 'orthorhombic'
loop_
_space_group_symop_operation_xyz
x,y,z
-x,1/2-y,1/2+z
x,-y,-z
-x,1/2+y,1/2-z
-x,-y,-z
x,1/2+y,1/2-z
-x,y,z
x,1/2-y,1/2+z
1/2+x,1/2+y,z
1/2-x,-y,1/2+z
1/2+x,1/2-y,-z
1/2-x,y,1/2-z
1/2-x,1/2-y,-z
1/2+x,y,1/2-z
1/2-x,1/2+y,z
1/2+x,-y,1/2+z
loop_
_atom_site_type_symbol
_atom_site_label
_atom_site_fract_x
_atom_site_fract_y
_atom_site_fract_z
Si Si1 0.654718 0.970032 0.744468
Si Si2 0.595017 0.402011 0.101756
Si Si3 0.092441 0.658190 0.139297
Si Si4 0.160308 0.272149 0.537087
O O1 0.750000 0.970452 0.750000
O O2 0.622304 0.936673 0.572737
O O3 0.622478 0.917501 0.879451
O O4 0.623368 0.045509 0.740495
O O5 0.500000 0.395793 0.104957
O O6 0.634707 0.329508 0.094448
O O7 0.144583 0.693480 0.284910
O O8 0.000000 0.657414 0.189212
O O9 0.105576 0.706817 0.984220
O O10 0.250000 0.250000 0.500000
#
# Coordination Sequence:
#
# PCOD9477639 Si02
#       4
#    16  16  16  16
#     4  10  19  33  56  83 109 143 193 244 283 331
#     4  10  20  38  58  81 112 156 197 232 285 361
#     4  11  21  37  58  85 116 155 197 243 296 355
#     4  11  22  37  59  87 118 151 192 243 295 349
#
# _framework density 23.801956000000001
#
# number of rings (size 3 to 8) (size 9 to 14) (size 15 to 20)
#    0.000    1.500    0.000   10.500    0.000    2.000 
#    0.000    0.000    0.000    0.000    0.000   31.500 
#    0.000    0.000    0.000    0.000    0.000    0.000 
#
# Total GULP energy -179028.077571 kJ/mol
# GULP energy per Si atom -5594.627424 kJ/mol
# Density = 2.374778 g / cm^3
# Si number density = 23.801956 Si / 1000 Ang^3
#
#
#
# Elastic Constant Matrix: (Units=GPa)
#
#
# Indices 1 2 3 4 5 6 
#
# 1 229.8016 66.3253 11.7619 0.0000 0.0000 0.0000
# 2 66.3253 166.0973 31.2468 0.0000 0.0000 0.0000
# 3 11.7619 31.2468 79.1399 0.0000 0.0000 0.0000
# 4 0.0000 0.0000 0.0000 12.8278 0.0000 0.0000
# 5 0.0000 0.0000 0.0000 0.0000 -22.0524 0.0000
# 6 0.0000 0.0000 0.0000 0.0000 0.0000 21.4412
#
#
#
# Elastic Compliance Matrix: (Units=1/GPa)
#
#
# Indices 1 2 3 4 5 6 
#
# 1 0.004919 -0.001973 0.000048 0.000000 0.000000 0.000000
# 2 -0.001973 0.007295 -0.002587 0.000000 0.000000 0.000000
# 3 0.000048 -0.002587 0.013650 0.000000 0.000000 0.000000
# 4 0.000000 0.000000 0.000000 0.077955 0.000000 0.000000
# 5 0.000000 0.000000 0.000000 0.000000 -0.045347 0.000000
# 6 0.000000 0.000000 0.000000 0.000000 0.000000 0.046639
#
#
# Mechanical properties :
#
#
# Convention : Reuss Voigt Hill
#
# Bulk Modulus (GPa) = 59.38389 77.07854 68.23122
# Shear Modulus (GPa) = 41.75382 26.82365 34.28874
#
# Velocity S-wave (km/s) = 4.19288 3.36065 3.79962
# Velocity P-wave (km/s) = 6.96015 6.89291 6.92661
#
# Compressibility (1/GPa) = 0.01683958
#
# Stress axis : x y z
#
# Youngs Moduli (GPa) = 203.30983 137.07723 73.25907
#
# Poissons Ratio (x) = 0.27047 -0.00352
# Poissons Ratio (y) = 0.40115 0.18953
# Poissons Ratio (z) = -0.00977 0.35463
#
# Static dielectric constant tensor:
#      x y z
#    x 1.879400 0.000000 0.000000 
#    y 0.000000 1.945380 0.000000 
#    z 0.000000 0.000000 2.032560 
# 
# From -- ./inp_files/14035.got.cif
#   From: 2010.05.17/outbox.cif.g08.bks.cpg/sg64_8_cif.got.tgz:14035.got - 2010.06.03 16:29:19.
