data_PCOD9477890
_publ_section_title
;
Structure prediction by ZEFSAII (Michael W. Deem and Ramdas Pophale) SiO2 
 PCOD9477890
Probable space group: C M C A
;
_chemical_formula_sum "Si O2"
_cell_formula_units_Z 80
_cell_length_a 17.315937
_cell_length_b 25.311978
_cell_length_c 8.773933
_cell_angle_alpha 90.000000
_cell_angle_beta 90.000000
_cell_angle_gamma 90.000000
_cell_volume 3845.620242
_symmetry_space_group_name_H-M "C M C A"
_symmetry_group_IT_number 64
_symmetry_cell_setting 'orthorhombic'
loop_
_space_group_symop_operation_xyz
x,y,z
-x,1/2-y,1/2+z
x,-y,-z
-x,1/2+y,1/2-z
-x,-y,-z
x,1/2+y,1/2-z
-x,y,z
x,1/2-y,1/2+z
1/2+x,1/2+y,z
1/2-x,-y,1/2+z
1/2+x,1/2-y,-z
1/2-x,y,1/2-z
1/2-x,1/2-y,-z
1/2+x,y,1/2-z
1/2-x,1/2+y,z
1/2+x,-y,1/2+z
loop_
_atom_site_type_symbol
_atom_site_label
_atom_site_fract_x
_atom_site_fract_y
_atom_site_fract_z
Si Si1 0.669655 0.525326 0.169679
Si Si2 0.406134 0.275467 0.770471
Si Si3 0.593472 0.674589 0.552807
Si Si4 0.907950 0.625654 0.460681
Si Si5 0.658064 0.916037 0.225678
O O1 0.750000 0.539194 0.250000
O O2 0.619680 0.577370 0.145327
O O3 0.633102 0.477299 0.266855
O O4 0.682855 0.500000 0.000000
O O5 0.500000 0.274184 0.773153
O O6 0.382221 0.216792 0.817416
O O7 0.384732 0.297846 0.605979
O O8 0.380299 0.318518 0.894784
O O9 0.500000 0.668248 0.556550
O O10 0.632949 0.618416 0.581908
O O11 0.878592 0.612672 0.628501
O O12 0.000000 0.627030 0.463534
O O13 0.750000 0.916592 0.250000
#
# Coordination Sequence:
#
# PCOD9477890 Si02
#       5
#    16  16  16  16  16
#     4   9  20  36  55  78 109 147 182 221 274 328
#     4   9  19  34  55  82 106 136 177 224 275 322
#     4  10  19  35  57  78 106 142 181 223 272 328
#     4  10  20  36  58  83 110 143 187 229 267 321
#     4  10  21  36  53  79 111 143 181 223 272 326
#
# _framework density 20.802886999999998
#
# number of rings (size 3 to 8) (size 9 to 14) (size 15 to 20)
#    0.000    2.400    0.000    1.800    0.000   12.400 
#    0.000    5.000    0.000    4.200    0.000    0.000 
#    0.000    0.000    0.000    0.000    0.000    0.000 
#
# Total GULP energy -223324.499838 kJ/mol
# GULP energy per Si atom -5583.112496 kJ/mol
# Density = 2.075554 g / cm^3
# Si number density = 20.802887 Si / 1000 Ang^3
#
#
#
# Elastic Constant Matrix: (Units=GPa)
#
#
# Indices 1 2 3 4 5 6 
#
# 1 23.4146 8.2563 -0.9541 0.0000 0.0000 0.0000
# 2 8.2563 72.8940 -8.8460 0.0000 0.0000 0.0000
# 3 -0.9541 -8.8460 17.1664 0.0000 0.0000 0.0000
# 4 0.0000 0.0000 0.0000 20.3983 0.0000 0.0000
# 5 0.0000 0.0000 0.0000 0.0000 28.3419 0.0000
# 6 0.0000 0.0000 0.0000 0.0000 0.0000 70.2932
#
#
#
# Elastic Compliance Matrix: (Units=1/GPa)
#
#
# Indices 1 2 3 4 5 6 
#
# 1 0.044485 -0.005055 -0.000132 0.000000 0.000000 0.000000
# 2 -0.005055 0.015208 0.007556 0.000000 0.000000 0.000000
# 3 -0.000132 0.007556 0.062140 0.000000 0.000000 0.000000
# 4 0.000000 0.000000 0.000000 0.049024 0.000000 0.000000
# 5 0.000000 0.000000 0.000000 0.000000 0.035283 0.000000
# 6 0.000000 0.000000 0.000000 0.000000 0.000000 0.014226
#
#
# Mechanical properties :
#
#
# Convention : Reuss Voigt Hill
#
# Bulk Modulus (GPa) = 7.90071 12.26528 10.08299
# Shear Modulus (GPa) = 19.39348 31.47460 25.43404
#
# Velocity S-wave (km/s) = 3.05659 3.89394 3.50039
# Velocity P-wave (km/s) = 4.03276 5.11134 4.60374
#
# Compressibility (1/GPa) = 0.12657087
#
# Stress axis : x y z
#
# Youngs Moduli (GPa) = 22.47935 65.75489 16.09277
#
# Poissons Ratio (x) = 0.33237 0.00213
# Poissons Ratio (y) = 0.11363 -0.12159
# Poissons Ratio (z) = 0.00297 -0.49684
#
# Static dielectric constant tensor:
#      x y z
#    x 1.707860 0.000000 0.000000 
#    y 0.000000 1.748170 0.000000 
#    z 0.000000 0.000000 1.780010 
# 
# From -- ./inp_files/7037.got.cif
#   From: 2010.05.17/outbox.cif.g08.bks.cpg/sg64_4_cif.got.tgz:7037.got - 2010.06.03 16:29:19.
