data_PCOD9477635
_publ_section_title
;
Structure prediction by ZEFSAII (Michael W. Deem and Ramdas Pophale) SiO2 
 PCOD9477635
Probable space group: C M C A
;
_chemical_formula_sum "Si O2"
_cell_formula_units_Z 112
_cell_length_a 34.152071
_cell_length_b 33.180157
_cell_length_c 4.975627
_cell_angle_alpha 90.000000
_cell_angle_beta 90.000000
_cell_angle_gamma 90.000000
_cell_volume 5638.236610
_symmetry_space_group_name_H-M "C M C A"
_symmetry_group_IT_number 64
_symmetry_cell_setting 'orthorhombic'
loop_
_space_group_symop_operation_xyz
x,y,z
-x,1/2-y,1/2+z
x,-y,-z
-x,1/2+y,1/2-z
-x,-y,-z
x,1/2+y,1/2-z
-x,y,z
x,1/2-y,1/2+z
1/2+x,1/2+y,z
1/2-x,-y,1/2+z
1/2+x,1/2-y,-z
1/2-x,y,1/2-z
1/2-x,1/2-y,-z
1/2+x,y,1/2-z
1/2-x,1/2+y,z
1/2+x,-y,1/2+z
loop_
_atom_site_type_symbol
_atom_site_label
_atom_site_fract_x
_atom_site_fract_y
_atom_site_fract_z
Si Si1 0.044821 0.669002 0.633837
Si Si2 0.344385 0.542276 0.111756
Si Si3 0.166854 0.848619 0.377444
Si Si4 0.885781 0.928429 0.383980
Si Si5 0.707593 0.122023 0.382362
Si Si6 0.381676 0.224172 0.629774
Si Si7 0.544565 0.112995 0.146689
O O1 0.074700 0.705696 0.643156
O O2 0.043959 0.648070 0.923172
O O3 0.000000 0.679955 0.559164
O O4 0.058618 0.634852 0.419570
O O5 0.360689 0.544342 0.412047
O O6 0.312498 0.577958 0.101758
O O7 0.328885 0.500000 0.000000
O O8 0.380317 0.553583 0.911112
O O9 0.134959 0.884592 0.370119
O O10 0.182205 0.849701 0.681345
O O11 0.146815 0.809493 0.253133
O O12 0.202460 0.860579 0.180076
O O13 0.927573 0.920740 0.519567
O O14 0.750000 0.119195 0.250000
O O15 0.376190 0.237364 0.322927
O O16 0.500000 0.098843 0.190484
#
# Coordination Sequence:
#
# PCOD9477635 Si02
#       7
#    16  16  16  16  16  16  16
#     4  10  21  35  53  80 116 151 189 240 292 336
#     4  10  21  36  57  90 121 147 180 223 286 349
#     4  10  21  37  59  84 113 144 199 237 267 345
#     4  10  19  34  60  80 111 157 194 235 274 327
#     4  10  21  39  64  88 110 149 185 227 285 338
#     4  12  24  36  57  83 117 155 189 237 294 337
#     4  10  19  33  56  82 109 147 200 248 279 317
#
# _framework density 19.864367999999999
#
# number of rings (size 3 to 8) (size 9 to 14) (size 15 to 20)
#    0.000    1.714    1.429    3.429    4.000    0.571 
#    0.000    4.286    0.000   11.143    0.000    0.000 
#    0.000    0.000    0.000    0.000    0.000    0.000 
#
# Total GULP energy -312491.010411 kJ/mol
# GULP energy per Si atom -5580.196614 kJ/mol
# Density = 1.981916 g / cm^3
# Si number density = 19.864368 Si / 1000 Ang^3
#
#
#
# Elastic Constant Matrix: (Units=GPa)
#
#
# Indices 1 2 3 4 5 6 
#
# 1 72.6634 30.9172 5.2695 0.0000 0.0000 0.0000
# 2 30.9172 56.3730 2.6227 0.0000 0.0000 0.0000
# 3 5.2695 2.6227 77.9967 0.0000 0.0000 0.0000
# 4 0.0000 0.0000 0.0000 29.2269 0.0000 0.0000
# 5 0.0000 0.0000 0.0000 0.0000 23.5609 0.0000
# 6 0.0000 0.0000 0.0000 0.0000 0.0000 11.3549
#
#
#
# Elastic Compliance Matrix: (Units=1/GPa)
#
#
# Indices 1 2 3 4 5 6 
#
# 1 0.018012 -0.009837 -0.000886 0.000000 0.000000 0.000000
# 2 -0.009837 0.023139 -0.000113 0.000000 0.000000 0.000000
# 3 -0.000886 -0.000113 0.012885 0.000000 0.000000 0.000000
# 4 0.000000 0.000000 0.000000 0.034215 0.000000 0.000000
# 5 0.000000 0.000000 0.000000 0.000000 0.042443 0.000000
# 6 0.000000 0.000000 0.000000 0.000000 0.000000 0.088068
#
#
# Mechanical properties :
#
#
# Convention : Reuss Voigt Hill
#
# Bulk Modulus (GPa) = 30.90002 31.62798 31.26400
# Shear Modulus (GPa) = 19.90260 24.04346 21.97303
#
# Velocity S-wave (km/s) = 3.16875 3.48283 3.32950
# Velocity P-wave (km/s) = 5.38305 5.66833 5.52753
#
# Compressibility (1/GPa) = 0.03236244
#
# Stress axis : x y z
#
# Youngs Moduli (GPa) = 55.51861 43.21627 77.61124
#
# Poissons Ratio (x) = 0.42513 0.06877
# Poissons Ratio (y) = 0.54615 0.00881
# Poissons Ratio (z) = 0.04920 0.00490
#
# Static dielectric constant tensor:
#      x y z
#    x 1.719520 0.000000 0.000000 
#    y 0.000000 1.696610 0.000000 
#    z 0.000000 0.000000 1.683440 
# 
# From -- ./inp_files/3486.got.cif
#   From: 2010.05.17/outbox.cif.g08.bks.cpg/sg64_2_cif.got.tgz:3486.got - 2010.06.03 16:29:19.
