data_PCOD9477971
_publ_section_title
;
Structure prediction by ZEFSAII (Michael W. Deem and Ramdas Pophale) SiO2 
 PCOD9477971
Probable space group: C M C A
;
_chemical_formula_sum "Si O2"
_cell_formula_units_Z 48
_cell_length_a 14.628021
_cell_length_b 25.899134
_cell_length_c 5.851822
_cell_angle_alpha 90.000000
_cell_angle_beta 90.000000
_cell_angle_gamma 90.000000
_cell_volume 2216.980765
_symmetry_space_group_name_H-M "C M C A"
_symmetry_group_IT_number 64
_symmetry_cell_setting 'orthorhombic'
loop_
_space_group_symop_operation_xyz
x,y,z
-x,1/2-y,1/2+z
x,-y,-z
-x,1/2+y,1/2-z
-x,-y,-z
x,1/2+y,1/2-z
-x,y,z
x,1/2-y,1/2+z
1/2+x,1/2+y,z
1/2-x,-y,1/2+z
1/2+x,1/2-y,-z
1/2-x,y,1/2-z
1/2-x,1/2-y,-z
1/2+x,y,1/2-z
1/2-x,1/2+y,z
1/2+x,-y,1/2+z
loop_
_atom_site_type_symbol
_atom_site_label
_atom_site_fract_x
_atom_site_fract_y
_atom_site_fract_z
Si Si1 0.395017 0.145509 0.099910
Si Si2 0.750000 0.619451 0.750000
Si Si3 0.659584 0.047328 0.372535
Si Si4 0.750000 0.778316 0.750000
O O1 0.500000 0.159362 0.067277
O O2 0.389735 0.086571 0.198410
O O3 0.339497 0.184665 0.260821
O O4 0.332987 0.148243 0.873338
O O5 0.799453 0.584922 0.562220
O O6 0.750000 0.024597 0.250000
O O7 0.610285 0.000000 0.500000
O O8 0.750000 0.750000 0.500000
#
# Coordination Sequence:
#
# PCOD9477971 Si02
#       4
#    16   8  16   8
#     4  11  25  44  69 102 141 185 235 300 368 435
#     4  10  19  41  64  96 140 188 229 287 350 426
#     4  10  19  35  67  98 136 186 232 283 357 434
#     4  12  27  49  76 104 140 184 243 305 364 436
#
# _framework density 21.651067000000001
#
# number of rings (size 3 to 8) (size 9 to 14) (size 15 to 20)
#    0.000    1.333    6.667    1.000    0.000    3.333 
#    0.000    1.667    0.000    0.000    0.000    0.000 
#    0.000    0.000    0.000    0.000    0.000    0.000 
#
# Total GULP energy -133736.254933 kJ/mol
# GULP energy per Si atom -5572.343956 kJ/mol
# Density = 2.160179 g / cm^3
# Si number density = 21.651067 Si / 1000 Ang^3
#
#
#
# Elastic Constant Matrix: (Units=GPa)
#
#
# Indices 1 2 3 4 5 6 
#
# 1 184.5761 55.4623 49.3292 0.0000 0.0000 0.0000
# 2 55.4623 97.8187 41.8412 0.0000 0.0000 0.0000
# 3 49.3292 41.8412 110.7080 0.0000 0.0000 0.0000
# 4 0.0000 0.0000 0.0000 45.7685 0.0000 0.0000
# 5 0.0000 0.0000 0.0000 0.0000 20.0129 0.0000
# 6 0.0000 0.0000 0.0000 0.0000 0.0000 1155.1766
#
#
#
# Elastic Compliance Matrix: (Units=1/GPa)
#
#
# Indices 1 2 3 4 5 6 
#
# 1 0.006846 -0.003074 -0.001889 0.000000 0.000000 0.000000
# 2 -0.003074 0.013574 -0.003761 0.000000 0.000000 0.000000
# 3 -0.001889 -0.003761 0.011296 0.000000 0.000000 0.000000
# 4 0.000000 0.000000 0.000000 0.021849 0.000000 0.000000
# 5 0.000000 0.000000 0.000000 0.000000 0.049968 0.000000
# 6 0.000000 0.000000 0.000000 0.000000 0.000000 0.000866
#
#
# Mechanical properties :
#
#
# Convention : Reuss Voigt Hill
#
# Bulk Modulus (GPa) = 70.07864 76.26314 73.17089
# Shear Modulus (GPa) = 39.49377 260.62295 150.05836
#
# Velocity S-wave (km/s) = 4.27559 10.98342 8.33415
# Velocity P-wave (km/s) = 7.53736 14.00527 11.24632
#
# Compressibility (1/GPa) = 0.01426968
#
# Stress axis : x y z
#
# Youngs Moduli (GPa) = 146.06514 73.66781 88.52909
#
# Poissons Ratio (x) = 0.22644 0.16722
# Poissons Ratio (y) = 0.44898 0.33293
# Poissons Ratio (z) = 0.27589 0.27704
#
# Static dielectric constant tensor:
#      x y z
#    x 1.750430 0.000000 0.000000 
#    y 0.000000 1.871300 0.000000 
#    z 0.000000 0.000000 1.867050 
# 
# From -- ./inp_files/823.got.cif
#   From: 2010.05.17/outbox.cif.g08.bks.cpg/sg64_1_cif.got.tgz:823.got - 2010.06.03 16:29:19.
