data_PCOD9477526
_publ_section_title
;
Structure prediction by ZEFSAII (Michael W. Deem and Ramdas Pophale) SiO2 
 PCOD9477526
Probable space group: C M C A
;
_chemical_formula_sum "Si O2"
_cell_formula_units_Z 128
_cell_length_a 21.291744
_cell_length_b 12.573357
_cell_length_c 26.288740
_cell_angle_alpha 90.000000
_cell_angle_beta 90.000000
_cell_angle_gamma 90.000000
_cell_volume 7037.724370
_symmetry_space_group_name_H-M "C M C A"
_symmetry_group_IT_number 64
_symmetry_cell_setting 'orthorhombic'
loop_
_space_group_symop_operation_xyz
x,y,z
-x,1/2-y,1/2+z
x,-y,-z
-x,1/2+y,1/2-z
-x,-y,-z
x,1/2+y,1/2-z
-x,y,z
x,1/2-y,1/2+z
1/2+x,1/2+y,z
1/2-x,-y,1/2+z
1/2+x,1/2-y,-z
1/2-x,y,1/2-z
1/2-x,1/2-y,-z
1/2+x,y,1/2-z
1/2-x,1/2+y,z
1/2+x,-y,1/2+z
loop_
_atom_site_type_symbol
_atom_site_label
_atom_site_fract_x
_atom_site_fract_y
_atom_site_fract_z
Si Si1 0.427673 0.984305 0.645499
Si Si2 0.133425 0.177739 0.217443
Si Si3 0.310107 0.815457 0.885444
Si Si4 0.696520 0.325612 0.024112
Si Si5 0.572657 0.123219 0.740846
Si Si6 0.663232 0.527554 0.303557
Si Si7 0.762648 0.673779 0.810255
Si Si8 0.190844 0.048492 0.072792
O O1 0.500000 0.984722 0.626549
O O2 0.415894 0.886242 0.683963
O O3 0.369973 0.976549 0.606798
O O4 0.417918 0.083006 0.683605
O O5 0.097092 0.258434 0.253423
O O6 0.174102 0.101337 0.253997
O O7 0.177869 0.248726 0.182097
O O8 0.336043 0.753028 0.934888
O O9 0.350365 0.898403 0.852030
O O10 0.289357 0.723226 0.846087
O O11 0.247628 0.882682 0.902589
O O12 0.717468 0.433431 0.054012
O O13 0.750000 0.250000 0.000000
O O14 0.665639 0.380135 0.974729
O O15 0.500000 0.114966 0.752631
O O16 0.609968 0.050322 0.781284
O O17 0.719918 0.448768 0.318574
O O18 0.750000 0.681127 0.750000
#
# Coordination Sequence:
#
# PCOD9477526 Si02
#       8
#    16  16  16  16  16  16  16  16
#     4  10  20  34  57  82 107 149 193 230 277 331
#     4  10  19  33  49  76 111 149 188 223 273 325
#     4  11  20  33  54  80 111 147 185 219 289 341
#     4   9  21  37  55  78 104 144 178 228 294 344
#     4   9  20  36  52  75 111 149 191 234 275 328
#     4  10  22  30  49  78 108 149 189 227 270 332
#     4  11  21  30  47  79 119 152 182 226 272 332
#     4  10  20  37  58  79 111 139 184 242 282 345
#
# _framework density 18.187697
#
# number of rings (size 3 to 8) (size 9 to 14) (size 15 to 20)
#    0.000    2.000    2.500    1.125    3.500    2.500 
#    0.000    1.250    0.000    0.750    0.000    0.000 
#    0.000    3.250    0.000    0.000    0.000    0.000 
#
# Total GULP energy -356319.735589 kJ/mol
# GULP energy per Si atom -5567.495869 kJ/mol
# Density = 1.814630 g / cm^3
# Si number density = 18.187697 Si / 1000 Ang^3
#
#
#
# Elastic Constant Matrix: (Units=GPa)
#
#
# Indices 1 2 3 4 5 6 
#
# 1 52.3319 26.7970 27.6018 0.0000 0.0000 0.0000
# 2 26.7970 109.5703 34.5677 0.0000 0.0000 0.0000
# 3 27.6018 34.5677 59.3910 0.0000 0.0000 0.0000
# 4 0.0000 0.0000 0.0000 28.4526 0.0000 0.0000
# 5 0.0000 0.0000 0.0000 0.0000 18.7436 0.0000
# 6 0.0000 0.0000 0.0000 0.0000 0.0000 9.8777
#
#
#
# Elastic Compliance Matrix: (Units=1/GPa)
#
#
# Indices 1 2 3 4 5 6 
#
# 1 0.026167 -0.003139 -0.010334 0.000000 0.000000 0.000000
# 2 -0.003139 0.011556 -0.005267 0.000000 0.000000 0.000000
# 3 -0.010334 -0.005267 0.024706 0.000000 0.000000 0.000000
# 4 0.000000 0.000000 0.000000 0.035146 0.000000 0.000000
# 5 0.000000 0.000000 0.000000 0.000000 0.053352 0.000000
# 6 0.000000 0.000000 0.000000 0.000000 0.000000 0.101238
#
#
# Mechanical properties :
#
#
# Convention : Reuss Voigt Hill
#
# Bulk Modulus (GPa) = 40.08282 44.35846 42.22064
# Shear Modulus (GPa) = 16.78076 20.23656 18.50866
#
# Velocity S-wave (km/s) = 3.04080 3.33926 3.19352
# Velocity P-wave (km/s) = 5.86642 6.26975 6.07144
#
# Compressibility (1/GPa) = 0.02494834
#
# Stress axis : x y z
#
# Youngs Moduli (GPa) = 38.21647 86.53527 40.47646
#
# Poissons Ratio (x) = 0.27166 0.41827
# Poissons Ratio (y) = 0.11997 0.21319
# Poissons Ratio (z) = 0.39492 0.45578
#
# Static dielectric constant tensor:
#      x y z
#    x 1.631140 0.000000 0.000000 
#    y 0.000000 1.673700 0.000000 
#    z 0.000000 0.000000 1.668810 
# 
# From -- ./inp_files/51140.got.cif
#   From: 2010.05.17/outbox.cif.g08.bks.cpg/sg64_26_cif.got.tgz:51140.got - 2010.06.03 16:29:19.
