data_PCOD9477354
_publ_section_title
;
Structure prediction by ZEFSAII (Michael W. Deem and Ramdas Pophale) SiO2 
 PCOD9477354
Probable space group: C M C A
;
_chemical_formula_sum "Si O2"
_cell_formula_units_Z 96
_cell_length_a 8.906168
_cell_length_b 30.528350
_cell_length_c 21.159179
_cell_angle_alpha 90.000000
_cell_angle_beta 90.000000
_cell_angle_gamma 90.000000
_cell_volume 5752.982167
_symmetry_space_group_name_H-M "C M C A"
_symmetry_group_IT_number 64
_symmetry_cell_setting 'orthorhombic'
loop_
_space_group_symop_operation_xyz
x,y,z
-x,1/2-y,1/2+z
x,-y,-z
-x,1/2+y,1/2-z
-x,-y,-z
x,1/2+y,1/2-z
-x,y,z
x,1/2-y,1/2+z
1/2+x,1/2+y,z
1/2-x,-y,1/2+z
1/2+x,1/2-y,-z
1/2-x,y,1/2-z
1/2-x,1/2-y,-z
1/2+x,y,1/2-z
1/2-x,1/2+y,z
1/2+x,-y,1/2+z
loop_
_atom_site_type_symbol
_atom_site_label
_atom_site_fract_x
_atom_site_fract_y
_atom_site_fract_z
Si Si1 0.818867 0.714039 0.046870
Si Si2 0.821408 0.498746 0.686637
Si Si3 0.176921 0.384849 0.986862
Si Si4 0.321769 0.803619 0.683163
Si Si5 0.323709 0.597176 0.143627
Si Si6 0.318847 0.035725 0.552615
O O1 0.780320 0.666286 0.017382
O O2 0.752809 0.714939 0.118549
O O3 0.000000 0.717614 0.050089
O O4 0.750000 0.750000 0.000000
O O5 0.750000 0.516905 0.750000
O O6 0.791247 0.446703 0.681693
O O7 0.767651 0.520353 0.621604
O O8 0.000000 0.504167 0.689651
O O9 0.221193 0.402822 0.917977
O O10 0.000000 0.387668 0.997456
O O11 0.261174 0.416229 0.035349
O O12 0.500000 0.794588 0.682585
O O13 0.250000 0.789189 0.750000
O O14 0.301898 0.856524 0.678029
O O15 0.500000 0.595051 0.123997
O O16 0.500000 0.035655 0.551622
O O17 0.269648 0.000000 0.500000
#
# Coordination Sequence:
#
# PCOD9477354 Si02
#       6
#    16  16  16  16  16  16
#     4  10  21  37  56  80 108 137 174 220 271 324
#     4  10  20  32  47  69  99 137 175 216 256 298
#     4  10  20  32  51  79 105 130 169 220 263 302
#     4  10  19  31  51  77 108 143 174 211 260 317
#     4   9  17  31  48  69 102 141 174 203 250 310
#     4  10  19  34  53  71 100 139 179 212 249 307
#
# _framework density 16.686997000000002
#
# number of rings (size 3 to 8) (size 9 to 14) (size 15 to 20)
#    0.000    2.167    1.667    2.000    0.000    4.333 
#    0.000    0.000    0.000    1.000    0.000    2.333 
#    0.000    0.000    0.000    0.000    0.000    0.000 
#
# Total GULP energy -267606.032847 kJ/mol
# GULP energy per Si atom -5575.125684 kJ/mol
# Density = 1.664902 g / cm^3
# Si number density = 16.686997 Si / 1000 Ang^3
#
#
#
# Elastic Constant Matrix: (Units=GPa)
#
#
# Indices 1 2 3 4 5 6 
#
# 1 36.5929 39.3786 58.5617 0.0000 0.0000 0.0000
# 2 39.3786 68.6492 66.4019 0.0000 0.0000 0.0000
# 3 58.5617 66.4019 151.2107 0.0000 0.0000 0.0000
# 4 0.0000 0.0000 0.0000 17.2502 0.0000 0.0000
# 5 0.0000 0.0000 0.0000 0.0000 32.1257 0.0000
# 6 0.0000 0.0000 0.0000 0.0000 0.0000 23.5315
#
#
#
# Elastic Compliance Matrix: (Units=1/GPa)
#
#
# Indices 1 2 3 4 5 6 
#
# 1 0.108860 -0.037662 -0.025621 0.000000 0.000000 0.000000
# 2 -0.037662 0.038353 -0.002256 0.000000 0.000000 0.000000
# 3 -0.025621 -0.002256 0.017527 0.000000 0.000000 0.000000
# 4 0.000000 0.000000 0.000000 0.057970 0.000000 0.000000
# 5 0.000000 0.000000 0.000000 0.000000 0.031128 0.000000
# 6 0.000000 0.000000 0.000000 0.000000 0.000000 0.042496
#
#
# Mechanical properties :
#
#
# Convention : Reuss Voigt Hill
#
# Bulk Modulus (GPa) = 29.70806 65.01525 47.36165
# Shear Modulus (GPa) = 11.39908 20.72218 16.06063
#
# Velocity S-wave (km/s) = 2.61648 3.52776 3.10573
# Velocity P-wave (km/s) = 5.19324 7.45920 6.42687
#
# Compressibility (1/GPa) = 0.03366090
#
# Stress axis : x y z
#
# Youngs Moduli (GPa) = 9.18614 26.07377 57.05570
#
# Poissons Ratio (x) = 0.98199 1.46183
# Poissons Ratio (y) = 0.34597 0.12873
# Poissons Ratio (z) = 0.23536 0.05883
#
# Static dielectric constant tensor:
#      x y z
#    x 1.565910 0.000000 0.000000 
#    y 0.000000 1.559070 0.000000 
#    z 0.000000 0.000000 1.563380 
# 
# From -- ./inp_files/36938.got.cif
#   From: 2010.05.17/outbox.cif.g08.bks.cpg/sg64_19_cif.got.tgz:36938.got - 2010.06.03 16:29:19.
