data_PCOD9477403
_publ_section_title
;
Structure prediction by ZEFSAII (Michael W. Deem and Ramdas Pophale) SiO2 
 PCOD9477403
Probable space group: C M C A
;
_chemical_formula_sum "Si O2"
_cell_formula_units_Z 96
_cell_length_a 8.544519
_cell_length_b 23.908861
_cell_length_c 27.164417
_cell_angle_alpha 90.000000
_cell_angle_beta 90.000000
_cell_angle_gamma 90.000000
_cell_volume 5549.411064
_symmetry_space_group_name_H-M "C M C A"
_symmetry_group_IT_number 64
_symmetry_cell_setting 'orthorhombic'
loop_
_space_group_symop_operation_xyz
x,y,z
-x,1/2-y,1/2+z
x,-y,-z
-x,1/2+y,1/2-z
-x,-y,-z
x,1/2+y,1/2-z
-x,y,z
x,1/2-y,1/2+z
1/2+x,1/2+y,z
1/2-x,-y,1/2+z
1/2+x,1/2-y,-z
1/2-x,y,1/2-z
1/2-x,1/2-y,-z
1/2+x,y,1/2-z
1/2-x,1/2+y,z
1/2+x,-y,1/2+z
loop_
_atom_site_type_symbol
_atom_site_label
_atom_site_fract_x
_atom_site_fract_y
_atom_site_fract_z
Si Si1 0.817445 0.923239 0.133476
Si Si2 0.812735 0.513977 0.056322
Si Si3 0.312298 0.327119 0.303968
Si Si4 0.813003 0.401148 0.626661
Si Si5 0.187395 0.198224 0.196625
Si Si6 0.180598 0.011415 0.300072
O O1 0.746056 0.864257 0.150216
O O2 0.000000 0.918096 0.123031
O O3 0.739729 0.961425 0.090769
O O4 0.785973 0.960180 0.182193
O O5 0.730713 0.571940 0.073949
O O6 0.000000 0.520065 0.061042
O O7 0.774345 0.500000 0.000000
O O8 0.500000 0.329636 0.302628
O O9 0.250000 0.345699 0.250000
O O10 0.260112 0.262432 0.309762
O O11 0.776600 0.339960 0.648838
O O12 0.707493 0.440773 0.660510
O O13 0.000000 0.410357 0.634029
O O14 0.250000 0.177805 0.250000
O O15 0.000000 0.198416 0.201017
O O16 0.250000 0.033507 0.250000
O O17 0.000000 0.995018 0.296864
#
# Coordination Sequence:
#
# PCOD9477403 Si02
#       6
#    16  16  16  16  16  16
#     4  11  21  33  50  73  98 127 164 204 248 295
#     4  10  21  37  56  77  99 126 161 204 257 308
#     4  10  19  33  50  72 104 139 173 205 240 285
#     4  10  19  32  50  74 100 128 164 203 247 296
#     4   9  19  32  49  73 103 139 172 203 239 285
#     4  11  20  30  44  66  97 131 163 198 243 292
#
# _framework density 17.299133999999999
#
# number of rings (size 3 to 8) (size 9 to 14) (size 15 to 20)
#    0.000    1.833    0.000    7.500    0.000    4.667 
#    0.000    0.000    0.000    1.000    0.000    0.000 
#    0.000    0.000    0.000    0.000    0.000    0.000 
#
# Total GULP energy -267328.411144 kJ/mol
# GULP energy per Si atom -5569.341899 kJ/mol
# Density = 1.725976 g / cm^3
# Si number density = 17.299134 Si / 1000 Ang^3
#
#
#
# Elastic Constant Matrix: (Units=GPa)
#
#
# Indices 1 2 3 4 5 6 
#
# 1 46.7255 16.5962 28.8533 0.0000 0.0000 0.0000
# 2 16.5962 91.0724 41.3194 0.0000 0.0000 0.0000
# 3 28.8533 41.3194 77.4952 0.0000 0.0000 0.0000
# 4 0.0000 0.0000 0.0000 26.0484 0.0000 0.0000
# 5 0.0000 0.0000 0.0000 0.0000 24.1430 0.0000
# 6 0.0000 0.0000 0.0000 0.0000 0.0000 8.0841
#
#
#
# Elastic Compliance Matrix: (Units=1/GPa)
#
#
# Indices 1 2 3 4 5 6 
#
# 1 0.027808 -0.000488 -0.010093 0.000000 0.000000 0.000000
# 2 -0.000488 0.014493 -0.007546 0.000000 0.000000 0.000000
# 3 -0.010093 -0.007546 0.020685 0.000000 0.000000 0.000000
# 4 0.000000 0.000000 0.000000 0.038390 0.000000 0.000000
# 5 0.000000 0.000000 0.000000 0.000000 0.041420 0.000000
# 6 0.000000 0.000000 0.000000 0.000000 0.000000 0.123700
#
#
# Mechanical properties :
#
#
# Convention : Reuss Voigt Hill
#
# Bulk Modulus (GPa) = 37.40881 43.20344 40.30613
# Shear Modulus (GPa) = 16.04316 20.22337 18.13327
#
# Velocity S-wave (km/s) = 3.04862 3.42283 3.24113
# Velocity P-wave (km/s) = 5.83642 6.37570 6.11201
#
# Compressibility (1/GPa) = 0.02673167
#
# Stress axis : x y z
#
# Youngs Moduli (GPa) = 35.96144 69.00061 48.34397
#
# Poissons Ratio (x) = 0.03368 0.48794
# Poissons Ratio (y) = 0.01756 0.36478
# Poissons Ratio (z) = 0.36296 0.52065
#
# Static dielectric constant tensor:
#      x y z
#    x 1.578080 0.000000 0.000000 
#    y 0.000000 1.640630 0.000000 
#    z 0.000000 0.000000 1.562250 
# 
# From -- ./inp_files/48384.got.cif
#   From: 2010.05.17/outbox.cif.g08.bks.cpg/sg64_25_cif.got.tgz:48384.got - 2010.06.03 16:29:19.
