data_PCOD9477470
_publ_section_title
;
Structure prediction by ZEFSAII (Michael W. Deem and Ramdas Pophale) SiO2 
 PCOD9477470
Probable space group: C M C A
;
_chemical_formula_sum "Si O2"
_cell_formula_units_Z 96
_cell_length_a 9.229113
_cell_length_b 24.140986
_cell_length_c 26.172476
_cell_angle_alpha 90.000000
_cell_angle_beta 90.000000
_cell_angle_gamma 90.000000
_cell_volume 5831.224714
_symmetry_space_group_name_H-M "C M C A"
_symmetry_group_IT_number 64
_symmetry_cell_setting 'orthorhombic'
loop_
_space_group_symop_operation_xyz
x,y,z
-x,1/2-y,1/2+z
x,-y,-z
-x,1/2+y,1/2-z
-x,-y,-z
x,1/2+y,1/2-z
-x,y,z
x,1/2-y,1/2+z
1/2+x,1/2+y,z
1/2-x,-y,1/2+z
1/2+x,1/2-y,-z
1/2-x,y,1/2-z
1/2-x,1/2-y,-z
1/2+x,y,1/2-z
1/2-x,1/2+y,z
1/2+x,-y,1/2+z
loop_
_atom_site_type_symbol
_atom_site_label
_atom_site_fract_x
_atom_site_fract_y
_atom_site_fract_z
Si Si1 0.833437 0.832127 0.459574
Si Si2 0.173301 0.522594 0.443854
Si Si3 0.828404 0.911501 0.114147
Si Si4 0.831793 0.637575 0.076396
Si Si5 0.326069 0.836951 0.195372
Si Si6 0.830254 0.263089 0.618908
O O1 0.721862 0.874325 0.433920
O O2 0.821560 0.834927 0.520028
O O3 0.810121 0.773114 0.432830
O O4 0.000000 0.848531 0.445770
O O5 0.219756 0.500000 0.500000
O O6 0.201174 0.474397 0.402523
O O7 0.250978 0.579151 0.428576
O O8 0.000000 0.531697 0.446761
O O9 0.738883 0.886942 0.161448
O O10 0.000000 0.905049 0.122973
O O11 0.761074 0.681230 0.115106
O O12 0.000000 0.628744 0.088126
O O13 0.500000 0.841754 0.199364
O O14 0.250000 0.835819 0.250000
O O15 0.293706 0.780304 0.163888
O O16 0.000000 0.276865 0.622879
#
# Coordination Sequence:
#
# PCOD9477470 Si02
#       6
#    16  16  16  16  16  16
#     4   9  18  31  46  70 104 140 175 214 257 302
#     4  10  20  34  50  72 105 147 186 215 253 308
#     4  10  19  32  53  78 104 138 179 220 260 305
#     4  11  21  30  47  74 105 142 180 216 256 302
#     4  10  21  38  60  83 105 131 167 216 272 320
#     4   9  19  34  50  71 103 137 170 211 259 313
#
# _framework density 16.463094999999999
#
# number of rings (size 3 to 8) (size 9 to 14) (size 15 to 20)
#    0.000    2.167    1.667    3.000    0.000    5.667 
#    0.000    0.000    0.000    1.000    0.000    4.667 
#    0.000    0.000    0.000    0.000    0.000    0.000 
#
# Total GULP energy -267695.282498 kJ/mol
# GULP energy per Si atom -5576.985052 kJ/mol
# Density = 1.642562 g / cm^3
# Si number density = 16.463095 Si / 1000 Ang^3
#
#
#
# Elastic Constant Matrix: (Units=GPa)
#
#
# Indices 1 2 3 4 5 6 
#
# 1 81.3194 78.0873 56.7407 0.0000 0.0000 0.0000
# 2 78.0873 115.2310 56.9211 0.0000 0.0000 0.0000
# 3 56.7407 56.9211 77.3682 0.0000 0.0000 0.0000
# 4 0.0000 0.0000 0.0000 8.5024 0.0000 0.0000
# 5 0.0000 0.0000 0.0000 0.0000 24.4328 0.0000
# 6 0.0000 0.0000 0.0000 0.0000 0.0000 30.2077
#
#
#
# Elastic Compliance Matrix: (Units=1/GPa)
#
#
# Indices 1 2 3 4 5 6 
#
# 1 0.046081 -0.022830 -0.016998 0.000000 0.000000 0.000000
# 2 -0.022830 0.024944 -0.001608 0.000000 0.000000 0.000000
# 3 -0.016998 -0.001608 0.026575 0.000000 0.000000 0.000000
# 4 0.000000 0.000000 0.000000 0.117614 0.000000 0.000000
# 5 0.000000 0.000000 0.000000 0.000000 0.040929 0.000000
# 6 0.000000 0.000000 0.000000 0.000000 0.000000 0.033104
#
#
# Mechanical properties :
#
#
# Convention : Reuss Voigt Hill
#
# Bulk Modulus (GPa) = 67.90863 73.04630 70.47747
# Shear Modulus (GPa) = 13.26162 18.10653 15.68407
#
# Velocity S-wave (km/s) = 2.84128 3.31996 3.08990
# Velocity P-wave (km/s) = 7.21820 7.69170 7.45871
#
# Compressibility (1/GPa) = 0.01472567
#
# Stress axis : x y z
#
# Youngs Moduli (GPa) = 21.70113 40.09019 37.62995
#
# Poissons Ratio (x) = 0.91527 0.63964
# Poissons Ratio (y) = 0.49544 0.06052
# Poissons Ratio (z) = 0.36888 0.06447
#
# Static dielectric constant tensor:
#      x y z
#    x 1.552370 0.000000 0.000000 
#    y 0.000000 1.543180 0.000000 
#    z 0.000000 0.000000 1.545970 
# 
# From -- ./inp_files/43049.got.cif
#   From: 2010.05.17/outbox.cif.g08.bks.cpg/sg64_22_cif.got.tgz:43049.got - 2010.06.03 16:29:19.
