data_PCOD9477023
_publ_section_title
;
Structure prediction by ZEFSAII (Michael W. Deem and Ramdas Pophale) SiO2 
 PCOD9477023
Probable space group: C M C A
;
_chemical_formula_sum "Si O2"
_cell_formula_units_Z 104
_cell_length_a 20.967934
_cell_length_b 25.150182
_cell_length_c 9.385433
_cell_angle_alpha 90.000000
_cell_angle_beta 90.000000
_cell_angle_gamma 90.000000
_cell_volume 4949.383280
_symmetry_space_group_name_H-M "C M C A"
_symmetry_group_IT_number 64
_symmetry_cell_setting 'orthorhombic'
loop_
_space_group_symop_operation_xyz
x,y,z
-x,1/2-y,1/2+z
x,-y,-z
-x,1/2+y,1/2-z
-x,-y,-z
x,1/2+y,1/2-z
-x,y,z
x,1/2-y,1/2+z
1/2+x,1/2+y,z
1/2-x,-y,1/2+z
1/2+x,1/2-y,-z
1/2-x,y,1/2-z
1/2-x,1/2-y,-z
1/2+x,y,1/2-z
1/2-x,1/2+y,z
1/2+x,-y,1/2+z
loop_
_atom_site_type_symbol
_atom_site_label
_atom_site_fract_x
_atom_site_fract_y
_atom_site_fract_z
Si Si1 0.755932 0.661048 0.522836
Si Si2 0.653447 0.241007 0.958451
Si Si3 0.622365 0.116145 0.649790
Si Si4 0.374831 0.546307 0.111525
Si Si5 0.572497 0.734237 0.795906
Si Si6 0.750000 0.593676 0.250000
Si Si7 0.926278 0.476419 0.151144
O O1 0.697089 0.692262 0.592094
O O2 0.802167 0.707237 0.459916
O O3 0.802438 0.627107 0.622849
O O4 0.731726 0.628091 0.388257
O O5 0.590667 0.246675 0.865383
O O6 0.626347 0.234226 0.116269
O O7 0.600926 0.092240 0.495411
O O8 0.586727 0.171701 0.677299
O O9 0.609373 0.073824 0.775745
O O10 0.311477 0.561988 0.196705
O O11 0.422044 0.522371 0.228713
O O12 0.358121 0.500000 0.000000
O O13 0.500000 0.747259 0.829572
O O14 0.000000 0.460712 0.129475
O O15 0.901989 0.500000 0.000000
#
# Coordination Sequence:
#
# PCOD9477023 Si02
#       7
#    16  16  16  16  16   8  16
#     4   9  19  36  61  86 112 147 193 241 294 347
#     4  10  21  37  58  85 115 149 190 239 291 346
#     4   9  20  37  58  83 111 149 199 242 288 355
#     4   9  20  37  56  81 109 147 190 233 290 350
#     4  11  22  37  57  83 118 155 192 234 286 350
#     4  10  18  34  56  82 112 138 180 238 286 340
#     4  10  21  38  59  84 116 153 194 241 294 353
#
# _framework density 21.012719000000001
#
# number of rings (size 3 to 8) (size 9 to 14) (size 15 to 20)
#    0.000    2.308    0.000    1.846    0.000   10.154 
#    0.000    9.231    0.000    4.615    0.000    0.000 
#    0.000    0.000    0.000    0.000    0.000    0.154 
#
# Total GULP energy -290069.808295 kJ/mol
# GULP energy per Si atom -5578.265544 kJ/mol
# Density = 2.096489 g / cm^3
# Si number density = 21.012719 Si / 1000 Ang^3
#
#
#
# Elastic Constant Matrix: (Units=GPa)
#
#
# Indices 1 2 3 4 5 6 
#
# 1 69.4995 29.0176 27.8850 0.0000 0.0000 0.0000
# 2 29.0176 38.6797 23.1267 0.0000 0.0000 0.0000
# 3 27.8850 23.1267 94.5154 0.0000 0.0000 0.0000
# 4 0.0000 0.0000 0.0000 23.3752 0.0000 0.0000
# 5 0.0000 0.0000 0.0000 0.0000 31.8143 0.0000
# 6 0.0000 0.0000 0.0000 0.0000 0.0000 23.0103
#
#
#
# Elastic Compliance Matrix: (Units=1/GPa)
#
#
# Indices 1 2 3 4 5 6 
#
# 1 0.021573 -0.014500 -0.002817 0.000000 0.000000 0.000000
# 2 -0.014500 0.040030 -0.005517 0.000000 0.000000 0.000000
# 3 -0.002817 -0.005517 0.012761 0.000000 0.000000 0.000000
# 4 0.000000 0.000000 0.000000 0.042780 0.000000 0.000000
# 5 0.000000 0.000000 0.000000 0.000000 0.031432 0.000000
# 6 0.000000 0.000000 0.000000 0.000000 0.000000 0.043459
#
#
# Mechanical properties :
#
#
# Convention : Reuss Voigt Hill
#
# Bulk Modulus (GPa) = 34.84699 40.30592 37.57645
# Shear Modulus (GPa) = 20.22102 23.81764 22.01933
#
# Velocity S-wave (km/s) = 3.10550 3.37038 3.24065
# Velocity P-wave (km/s) = 5.42942 5.86253 5.65013
#
# Compressibility (1/GPa) = 0.02869689
#
# Stress axis : x y z
#
# Youngs Moduli (GPa) = 46.35493 24.98148 78.36241
#
# Poissons Ratio (x) = 0.36222 0.22072
# Poissons Ratio (y) = 0.67213 0.43232
# Poissons Ratio (z) = 0.13057 0.13782
#
# Static dielectric constant tensor:
#      x y z
#    x 1.741980 0.000000 0.000000 
#    y 0.000000 1.788040 0.000000 
#    z 0.000000 0.000000 1.747630 
# 
# From -- ./inp_files/8553.got.cif
#   From: 2010.05.17/outbox.cif.g08.bks.cpg/sg64_5_cif.got.tgz:8553.got - 2010.06.03 16:29:19.
