data_PCOD9477871
_publ_section_title
;
Structure prediction by ZEFSAII (Michael W. Deem and Ramdas Pophale) SiO2 
 PCOD9477871
Probable space group: C M C A
;
_chemical_formula_sum "Si O2"
_cell_formula_units_Z 120
_cell_length_a 9.406208
_cell_length_b 25.051110
_cell_length_c 25.043714
_cell_angle_alpha 90.000000
_cell_angle_beta 90.000000
_cell_angle_gamma 90.000000
_cell_volume 5901.199372
_symmetry_space_group_name_H-M "C M C A"
_symmetry_group_IT_number 64
_symmetry_cell_setting 'orthorhombic'
loop_
_space_group_symop_operation_xyz
x,y,z
-x,1/2-y,1/2+z
x,-y,-z
-x,1/2+y,1/2-z
-x,-y,-z
x,1/2+y,1/2-z
-x,y,z
x,1/2-y,1/2+z
1/2+x,1/2+y,z
1/2-x,-y,1/2+z
1/2+x,1/2-y,-z
1/2-x,y,1/2-z
1/2-x,1/2-y,-z
1/2+x,y,1/2-z
1/2-x,1/2+y,z
1/2+x,-y,1/2+z
loop_
_atom_site_type_symbol
_atom_site_label
_atom_site_fract_x
_atom_site_fract_y
_atom_site_fract_z
Si Si1 0.500000 0.578025 0.270740
Si Si2 0.775641 0.607348 0.321733
Si Si3 0.335983 0.629527 0.531233
Si Si4 0.338294 0.581074 0.059080
Si Si5 0.166406 0.225943 0.300393
Si Si6 0.333391 0.518315 0.596042
Si Si7 0.162324 0.324982 0.376520
Si Si8 0.330591 0.931313 0.306639
O O1 0.626031 0.577536 0.315811
O O2 0.620314 0.586439 0.223718
O O3 0.838223 0.601105 0.380217
O O4 0.739348 0.669695 0.312465
O O5 0.500000 0.641129 0.518498
O O6 0.238758 0.623093 0.479407
O O7 0.327728 0.572439 0.561300
O O8 0.270207 0.669244 0.574877
O O9 0.500000 0.570223 0.041435
O O10 0.242076 0.528126 0.062785
O O11 0.250000 0.249558 0.250000
O O12 0.173112 0.268304 0.347668
O O13 0.000000 0.215308 0.287529
O O14 0.500000 0.508795 0.606440
O O15 0.242680 0.530234 0.649802
O O16 0.185192 0.372040 0.332493
O O17 0.000000 0.332779 0.395823
O O18 0.500000 0.942703 0.300178
O O19 0.250000 0.935249 0.250000
#
# Coordination Sequence:
#
# PCOD9477871 Si02
#       8
#     8  16  16  16  16  16  16  16
#     4  10  20  40  60  80 120 154 188 230 286 324
#     4  11  21  39  59  87 117 153 188 234 278 336
#     4  10  22  41  62  85 114 146 189 240 285 332
#     4  12  25  39  60  88 112 149 192 232 285 344
#     4  11  20  34  58  89 118 154 192 232 280 337
#     4  10  22  40  60  84 112 146 190 237 285 340
#     4   9  20  36  58  84 115 152 192 233 285 334
#     4  10  19  35  54  81 118 153 186 233 283 338
#
# _framework density 20.334851
#
# number of rings (size 3 to 8) (size 9 to 14) (size 15 to 20)
#    0.000    1.600    2.667    2.400    1.867    4.267 
#    2.400    0.667    0.000    0.000    0.000    0.000 
#    0.000    0.000    0.000    0.000    0.000    0.000 
#
# Total GULP energy -334310.267978 kJ/mol
# GULP energy per Si atom -5571.837800 kJ/mol
# Density = 2.028857 g / cm^3
# Si number density = 20.334851 Si / 1000 Ang^3
#
#
#
# Elastic Constant Matrix: (Units=GPa)
#
#
# Indices 1 2 3 4 5 6 
#
# 1 149.4553 2.4119 30.2759 0.0000 0.0000 0.0000
# 2 2.4119 26.7109 -5.8472 0.0000 0.0000 0.0000
# 3 30.2759 -5.8472 75.7229 0.0000 0.0000 0.0000
# 4 0.0000 0.0000 0.0000 23.3379 0.0000 0.0000
# 5 0.0000 0.0000 0.0000 0.0000 38.7813 0.0000
# 6 0.0000 0.0000 0.0000 0.0000 0.0000 9.9222
#
#
#
# Elastic Compliance Matrix: (Units=1/GPa)
#
#
# Indices 1 2 3 4 5 6 
#
# 1 0.007326 -0.001325 -0.003032 0.000000 0.000000 0.000000
# 2 -0.001325 0.038321 0.003489 0.000000 0.000000 0.000000
# 3 -0.003032 0.003489 0.014688 0.000000 0.000000 0.000000
# 4 0.000000 0.000000 0.000000 0.042849 0.000000 0.000000
# 5 0.000000 0.000000 0.000000 0.000000 0.025786 0.000000
# 6 0.000000 0.000000 0.000000 0.000000 0.000000 0.100784
#
#
# Mechanical properties :
#
#
# Convention : Reuss Voigt Hill
#
# Bulk Modulus (GPa) = 17.06497 33.95225 25.50861
# Shear Modulus (GPa) = 19.91854 29.41154 24.66504
#
# Velocity S-wave (km/s) = 3.13314 3.80723 3.48651
# Velocity P-wave (km/s) = 4.63669 6.00496 5.36463
#
# Compressibility (1/GPa) = 0.05859958
#
# Stress axis : x y z
#
# Youngs Moduli (GPa) = 136.49113 26.09516 68.08474
#
# Poissons Ratio (x) = 0.03458 0.20641
# Poissons Ratio (y) = 0.18088 -0.23754
# Poissons Ratio (z) = 0.41379 -0.09104
#
# Static dielectric constant tensor:
#      x y z
#    x 1.710610 0.000000 0.000000 
#    y 0.000000 1.755690 0.000000 
#    z 0.000000 0.000000 1.725230 
# 
# From -- ./inp_files/48733.got.cif
#   From: 2010.05.17/outbox.cif.g08.bks.cpg/sg64_25_cif.got.tgz:48733.got - 2010.06.03 16:29:19.
