data_PCOD9477640
_publ_section_title
;
Structure prediction by ZEFSAII (Michael W. Deem and Ramdas Pophale) SiO2 
 PCOD9477640
Probable space group: C M C A
;
_chemical_formula_sum "Si O2"
_cell_formula_units_Z 120
_cell_length_a 18.692284
_cell_length_b 22.005646
_cell_length_c 16.274936
_cell_angle_alpha 90.000000
_cell_angle_beta 90.000000
_cell_angle_gamma 90.000000
_cell_volume 6694.463569
_symmetry_space_group_name_H-M "C M C A"
_symmetry_group_IT_number 64
_symmetry_cell_setting 'orthorhombic'
loop_
_space_group_symop_operation_xyz
x,y,z
-x,1/2-y,1/2+z
x,-y,-z
-x,1/2+y,1/2-z
-x,-y,-z
x,1/2+y,1/2-z
-x,y,z
x,1/2-y,1/2+z
1/2+x,1/2+y,z
1/2-x,-y,1/2+z
1/2+x,1/2-y,-z
1/2-x,y,1/2-z
1/2-x,1/2-y,-z
1/2+x,y,1/2-z
1/2-x,1/2+y,z
1/2+x,-y,1/2+z
loop_
_atom_site_type_symbol
_atom_site_label
_atom_site_fract_x
_atom_site_fract_y
_atom_site_fract_z
Si Si1 0.672720 0.790334 0.130756
Si Si2 0.579609 0.853543 0.408921
Si Si3 0.250000 0.802150 0.750000
Si Si4 0.583014 0.220996 0.028751
Si Si5 0.230874 0.108559 0.946555
Si Si6 0.324429 0.380021 0.609144
Si Si7 0.081274 0.109514 0.719079
Si Si8 0.301643 0.011184 0.828258
O O1 0.699558 0.740151 0.193858
O O2 0.636334 0.766561 0.047408
O O3 0.739062 0.834331 0.106811
O O4 0.613245 0.832994 0.171631
O O5 0.500000 0.867397 0.442173
O O6 0.588403 0.780645 0.414380
O O7 0.645911 0.885612 0.452941
O O8 0.582596 0.874986 0.315155
O O9 0.293670 0.843160 0.813743
O O10 0.500000 0.214933 0.003515
O O11 0.610402 0.159704 0.072690
O O12 0.257609 0.048561 0.898115
O O13 0.267698 0.115246 0.034658
O O14 0.334655 0.449045 0.637500
O O15 0.000000 0.096901 0.693871
O O16 0.134421 0.054705 0.700198
O O17 0.250000 0.999953 0.750000
#
# Coordination Sequence:
#
# PCOD9477640 Si02
#       8
#    16  16   8  16  16  16  16  16
#     4  10  20  33  56  84 113 149 187 236 292 345
#     4  10  19  33  56  83 111 147 187 229 281 340
#     4  12  22  34  56  88 124 150 192 248 290 354
#     4  10  21  37  56  83 121 156 188 232 293 364
#     4  10  20  37  59  81 110 150 197 243 283 342
#     4  11  23  37  57  86 116 154 196 239 299 348
#     4  10  20  34  57  84 109 142 189 239 285 337
#     4  11  21  38  59  83 112 151 196 248 290 344
#
# _framework density 17.925260000000002
#
# number of rings (size 3 to 8) (size 9 to 14) (size 15 to 20)
#    0.000    1.600    2.000    4.000    1.867    2.667 
#    0.000    0.667    0.000    8.000    0.000    0.000 
#    0.000    0.000    0.000    0.000    0.000    0.000 
#
# Total GULP energy -334920.294310 kJ/mol
# GULP energy per Si atom -5582.004905 kJ/mol
# Density = 1.788446 g / cm^3
# Si number density = 17.925260 Si / 1000 Ang^3
#
#
#
# Elastic Constant Matrix: (Units=GPa)
#
#
# Indices 1 2 3 4 5 6 
#
# 1 100.0938 44.4741 17.2680 0.0000 0.0000 0.0000
# 2 44.4741 115.8551 42.7326 0.0000 0.0000 0.0000
# 3 17.2680 42.7326 66.4045 0.0000 0.0000 0.0000
# 4 0.0000 0.0000 0.0000 24.7466 0.0000 0.0000
# 5 0.0000 0.0000 0.0000 0.0000 20.9740 0.0000
# 6 0.0000 0.0000 0.0000 0.0000 0.0000 11.8879
#
#
#
# Elastic Compliance Matrix: (Units=1/GPa)
#
#
# Indices 1 2 3 4 5 6 
#
# 1 0.012047 -0.004549 -0.000206 0.000000 0.000000 0.000000
# 2 -0.004549 0.013035 -0.007206 0.000000 0.000000 0.000000
# 3 -0.000206 -0.007206 0.019750 0.000000 0.000000 0.000000
# 4 0.000000 0.000000 0.000000 0.040410 0.000000 0.000000
# 5 0.000000 0.000000 0.000000 0.000000 0.047678 0.000000
# 6 0.000000 0.000000 0.000000 0.000000 0.000000 0.084119
#
#
# Mechanical properties :
#
#
# Convention : Reuss Voigt Hill
#
# Bulk Modulus (GPa) = 47.81883 54.58920 51.20401
# Shear Modulus (GPa) = 20.16699 23.38028 21.77364
#
# Velocity S-wave (km/s) = 3.35783 3.61546 3.48902
# Velocity P-wave (km/s) = 6.46282 6.92449 6.69764
#
# Compressibility (1/GPa) = 0.02091226
#
# Stress axis : x y z
#
# Youngs Moduli (GPa) = 83.00647 76.71383 50.63375
#
# Poissons Ratio (x) = 0.34896 0.01041
# Poissons Ratio (y) = 0.37758 0.36485
# Poissons Ratio (z) = 0.01706 0.55278
#
# Static dielectric constant tensor:
#      x y z
#    x 1.608720 0.000000 0.000000 
#    y 0.000000 1.601330 0.000000 
#    z 0.000000 0.000000 1.767230 
# 
# From -- ./inp_files/33672.got.cif
#   From: 2010.05.17/outbox.cif.g08.bks.cpg/sg64_17_cif.got.tgz:33672.got - 2010.06.03 16:29:19.
