data_PCOD9477914
_publ_section_title
;
Structure prediction by ZEFSAII (Michael W. Deem and Ramdas Pophale) SiO2 
 PCOD9477914
Probable space group: C M C A
;
_chemical_formula_sum "Si O2"
_cell_formula_units_Z 72
_cell_length_a 17.010151
_cell_length_b 9.068820
_cell_length_c 25.272345
_cell_angle_alpha 90.000000
_cell_angle_beta 90.000000
_cell_angle_gamma 90.000000
_cell_volume 3898.562424
_symmetry_space_group_name_H-M "C M C A"
_symmetry_group_IT_number 64
_symmetry_cell_setting 'orthorhombic'
loop_
_space_group_symop_operation_xyz
x,y,z
-x,1/2-y,1/2+z
x,-y,-z
-x,1/2+y,1/2-z
-x,-y,-z
x,1/2+y,1/2-z
-x,y,z
x,1/2-y,1/2+z
1/2+x,1/2+y,z
1/2-x,-y,1/2+z
1/2+x,1/2-y,-z
1/2-x,y,1/2-z
1/2-x,1/2-y,-z
1/2+x,y,1/2-z
1/2-x,1/2+y,z
1/2+x,-y,1/2+z
loop_
_atom_site_type_symbol
_atom_site_label
_atom_site_fract_x
_atom_site_fract_y
_atom_site_fract_z
Si Si1 0.136648 0.344408 0.992403
Si Si2 0.587635 0.614628 0.907758
Si Si3 0.811320 0.755128 0.177443
Si Si4 0.290833 0.347155 0.920101
Si Si5 0.250000 0.513790 0.250000
O O1 0.093210 0.219326 0.958941
O O2 0.215859 0.378017 0.957991
O O3 0.095047 0.500000 0.000000
O O4 0.160832 0.276254 0.048424
O O5 0.500000 0.553465 0.902728
O O6 0.611805 0.714452 0.857435
O O7 0.654339 0.489488 0.913092
O O8 0.743664 0.713076 0.134834
O O9 0.810114 0.622202 0.219489
O O10 0.790270 0.904828 0.208105
#
# Coordination Sequence:
#
# PCOD9477914 Si02
#       5
#    16  16  16  16   8
#     4  10  20  33  58  84 114 155 201 235 275 337
#     4  11  23  38  56  86 125 156 185 233 296 352
#     4  10  20  37  62  89 109 147 193 245 281 345
#     4  10  19  35  58  85 114 152 196 238 279 342
#     4  10  20  36  66  88 106 140 206 244 284 330
#
# _framework density 18.468347000000001
#
# number of rings (size 3 to 8) (size 9 to 14) (size 15 to 20)
#    0.000    1.778    2.222    4.667    3.111    2.222 
#    0.000    1.111    0.000    0.000    0.000    0.000 
#    0.000    0.000    0.000    0.000    0.000    0.000 
#
# Total GULP energy -200886.277098 kJ/mol
# GULP energy per Si atom -5580.174364 kJ/mol
# Density = 1.842631 g / cm^3
# Si number density = 18.468347 Si / 1000 Ang^3
#
#
#
# Elastic Constant Matrix: (Units=GPa)
#
#
# Indices 1 2 3 4 5 6 
#
# 1 75.4237 20.3444 15.4692 0.0000 0.0000 0.0000
# 2 20.3444 109.4839 42.1169 0.0000 0.0000 0.0000
# 3 15.4692 42.1169 93.3643 0.0000 0.0000 0.0000
# 4 0.0000 0.0000 0.0000 39.9650 0.0000 0.0000
# 5 0.0000 0.0000 0.0000 0.0000 0.5372 0.0000
# 6 0.0000 0.0000 0.0000 0.0000 0.0000 21.2865
#
#
#
# Elastic Compliance Matrix: (Units=1/GPa)
#
#
# Indices 1 2 3 4 5 6 
#
# 1 0.014107 -0.002084 -0.001397 0.000000 0.000000 0.000000
# 2 -0.002084 0.011359 -0.004779 0.000000 0.000000 0.000000
# 3 -0.001397 -0.004779 0.013098 0.000000 0.000000 0.000000
# 4 0.000000 0.000000 0.000000 0.025022 0.000000 0.000000
# 5 0.000000 0.000000 0.000000 0.000000 1.861641 0.000000
# 6 0.000000 0.000000 0.000000 0.000000 0.000000 0.046978
#
#
# Mechanical properties :
#
#
# Convention : Reuss Voigt Hill
#
# Bulk Modulus (GPa) = 45.36336 48.23699 46.80018
# Shear Modulus (GPa) = 2.50492 25.71384 14.10938
#
# Velocity S-wave (km/s) = 1.16588 3.73543 2.76701
# Velocity P-wave (km/s) = 5.14086 6.69179 5.96693
#
# Compressibility (1/GPa) = 0.02204422
#
# Stress axis : x y z
#
# Youngs Moduli (GPa) = 70.88628 88.03288 76.34719
#
# Poissons Ratio (x) = 0.18345 0.10668
# Poissons Ratio (y) = 0.14772 0.36486
# Poissons Ratio (z) = 0.09905 0.42071
#
# Static dielectric constant tensor:
#      x y z
#    x 1.629310 0.000000 0.000000 
#    y 0.000000 1.660860 0.000000 
#    z 0.000000 0.000000 1.652630 
# 
# From -- ./inp_files/45641.got.cif
#   From: 2010.05.17/outbox.cif.g08.bks.cpg/sg64_23_cif.got.tgz:45641.got - 2010.06.03 16:29:19.
