data_PCOD9477892
_publ_section_title
;
Structure prediction by ZEFSAII (Michael W. Deem and Ramdas Pophale) SiO2 
 PCOD9477892
Probable space group: C M C A
;
_chemical_formula_sum "Si O2"
_cell_formula_units_Z 96
_cell_length_a 18.162553
_cell_length_b 17.599652
_cell_length_c 13.419537
_cell_angle_alpha 90.000000
_cell_angle_beta 90.000000
_cell_angle_gamma 90.000000
_cell_volume 4289.616896
_symmetry_space_group_name_H-M "C M C A"
_symmetry_group_IT_number 64
_symmetry_cell_setting 'orthorhombic'
loop_
_space_group_symop_operation_xyz
x,y,z
-x,1/2-y,1/2+z
x,-y,-z
-x,1/2+y,1/2-z
-x,-y,-z
x,1/2+y,1/2-z
-x,y,z
x,1/2-y,1/2+z
1/2+x,1/2+y,z
1/2-x,-y,1/2+z
1/2+x,1/2-y,-z
1/2-x,y,1/2-z
1/2-x,1/2-y,-z
1/2+x,y,1/2-z
1/2-x,1/2+y,z
1/2+x,-y,1/2+z
loop_
_atom_site_type_symbol
_atom_site_label
_atom_site_fract_x
_atom_site_fract_y
_atom_site_fract_z
Si Si1 0.416464 0.085164 0.593840
Si Si2 0.319173 0.794485 0.130689
Si Si3 0.587268 0.392620 0.669260
Si Si4 0.912959 0.347990 0.598034
Si Si5 0.332382 0.459676 0.291981
Si Si6 0.654342 0.762179 0.363957
O O1 0.500000 0.058336 0.595115
O O2 0.387992 0.086334 0.479670
O O3 0.376648 0.050866 0.688645
O O4 0.408023 0.175724 0.615155
O O5 0.370258 0.731177 0.078990
O O6 0.336968 0.883937 0.139766
O O7 0.329603 0.768810 0.245624
O O8 0.234771 0.785710 0.096515
O O9 0.500000 0.398154 0.647255
O O10 0.594851 0.374618 0.788054
O O11 0.632347 0.469289 0.651988
O O12 0.626135 0.322031 0.614654
O O13 0.000000 0.336436 0.581810
O O14 0.250000 0.470340 0.250000
#
# Coordination Sequence:
#
# PCOD9477892 Si02
#       6
#    16  16  16  16  16  16
#     4  10  19  35  57  80 110 143 180 230 273 323
#     4   9  17  34  53  79 105 139 181 226 266 309
#     4  10  21  34  55  83 111 144 179 226 275 326
#     4   9  20  34  54  83 110 142 182 224 276 324
#     4  11  21  35  53  80 112 143 182 220 275 328
#     4   9  17  33  54  81 102 138 186 225 268 312
#
# _framework density 22.379619999999999
#
# number of rings (size 3 to 8) (size 9 to 14) (size 15 to 20)
#    0.000    2.333    3.333    1.000    4.667    6.000 
#    0.000    2.500    0.000    1.000    0.000    3.500 
#    0.000    0.000    0.000    0.000    0.000    0.000 
#
# Total GULP energy -267764.839411 kJ/mol
# GULP energy per Si atom -5578.434154 kJ/mol
# Density = 2.232868 g / cm^3
# Si number density = 22.379620 Si / 1000 Ang^3
#
#
#
# Elastic Constant Matrix: (Units=GPa)
#
#
# Indices 1 2 3 4 5 6 
#
# 1 61.4385 44.9122 -3.8105 0.0000 0.0000 0.0000
# 2 44.9122 149.3053 -14.9537 0.0000 0.0000 0.0000
# 3 -3.8105 -14.9537 41.0201 0.0000 0.0000 0.0000
# 4 0.0000 0.0000 0.0000 16.2372 0.0000 0.0000
# 5 0.0000 0.0000 0.0000 0.0000 8.0124 0.0000
# 6 0.0000 0.0000 0.0000 0.0000 0.0000 7.9684
#
#
#
# Elastic Compliance Matrix: (Units=1/GPa)
#
#
# Indices 1 2 3 4 5 6 
#
# 1 0.020870 -0.006314 -0.000363 0.000000 0.000000 0.000000
# 2 -0.006314 0.008862 0.002644 0.000000 0.000000 0.000000
# 3 -0.000363 0.002644 0.025308 0.000000 0.000000 0.000000
# 4 0.000000 0.000000 0.000000 0.061587 0.000000 0.000000
# 5 0.000000 0.000000 0.000000 0.000000 0.124807 0.000000
# 6 0.000000 0.000000 0.000000 0.000000 0.000000 0.125496
#
#
# Mechanical properties :
#
#
# Convention : Reuss Voigt Hill
#
# Bulk Modulus (GPa) = 21.28865 33.78442 27.53654
# Shear Modulus (GPa) = 12.79905 21.48465 17.14185
#
# Velocity S-wave (km/s) = 2.39405 3.10176 2.77060
# Velocity P-wave (km/s) = 4.14429 5.28741 4.75036
#
# Compressibility (1/GPa) = 0.04697339
#
# Stress axis : x y z
#
# Youngs Moduli (GPa) = 47.91662 112.84348 39.51251
#
# Poissons Ratio (x) = 0.71251 0.01435
# Poissons Ratio (y) = 0.30255 -0.10447
# Poissons Ratio (z) = 0.01740 -0.29836
#
# Static dielectric constant tensor:
#      x y z
#    x 1.788360 0.000000 0.000000 
#    y 0.000000 1.849370 0.000000 
#    z 0.000000 0.000000 1.919920 
# 
# From -- ./inp_files/33336.got.cif
#   From: 2010.05.17/outbox.cif.g08.bks.cpg/sg64_17_cif.got.tgz:33336.got - 2010.06.03 16:29:19.
