data_PCOD9477334
_publ_section_title
;
Structure prediction by ZEFSAII (Michael W. Deem and Ramdas Pophale) SiO2 
 PCOD9477334
Probable space group: C M C A
;
_chemical_formula_sum "Si O2"
_cell_formula_units_Z 80
_cell_length_a 9.500069
_cell_length_b 14.657056
_cell_length_c 26.403028
_cell_angle_alpha 90.000000
_cell_angle_beta 90.000000
_cell_angle_gamma 90.000000
_cell_volume 3676.437972
_symmetry_space_group_name_H-M "C M C A"
_symmetry_group_IT_number 64
_symmetry_cell_setting 'orthorhombic'
loop_
_space_group_symop_operation_xyz
x,y,z
-x,1/2-y,1/2+z
x,-y,-z
-x,1/2+y,1/2-z
-x,-y,-z
x,1/2+y,1/2-z
-x,y,z
x,1/2-y,1/2+z
1/2+x,1/2+y,z
1/2-x,-y,1/2+z
1/2+x,1/2-y,-z
1/2-x,y,1/2-z
1/2-x,1/2-y,-z
1/2+x,y,1/2-z
1/2-x,1/2+y,z
1/2+x,-y,1/2+z
loop_
_atom_site_type_symbol
_atom_site_label
_atom_site_fract_x
_atom_site_fract_y
_atom_site_fract_z
Si Si1 0.338882 0.873536 0.200699
Si Si2 0.158416 0.152969 0.393368
Si Si3 0.839798 0.849844 0.799057
Si Si4 0.159135 0.607962 0.994143
Si Si5 0.341634 0.368595 0.105478
O O1 0.500000 0.905536 0.202373
O O2 0.250000 0.899979 0.250000
O O3 0.343866 0.761845 0.200441
O O4 0.257872 0.904290 0.150214
O O5 0.262803 0.118937 0.350272
O O6 0.209248 0.142427 0.451049
O O7 0.144902 0.260738 0.384012
O O8 0.000000 0.112531 0.390458
O O9 0.750000 0.876196 0.750000
O O10 0.000000 0.882093 0.796002
O O11 0.000000 0.645050 0.984586
O O12 0.147711 0.500000 0.000000
O O13 0.263775 0.624754 0.948154
O O14 0.500000 0.407481 0.104851
#
# Coordination Sequence:
#
# PCOD9477334 Si02
#       5
#    16  16  16  16  16
#     4   9  16  27  45  71 102 131 160 196 240 289
#     4   9  18  32  50  73 100 129 163 202 243 289
#     4   9  16  26  44  71 101 130 159 195 240 288
#     4  10  21  36  52  70  96 131 167 205 250 295
#     4  10  19  31  50  75 101 129 163 203 244 289
#
# _framework density 21.760193000000001
#
# number of rings (size 3 to 8) (size 9 to 14) (size 15 to 20)
#    0.000    2.600    0.000    2.400    0.000    6.800 
#    0.000    0.000    0.000    1.200    0.000    5.600 
#    0.000    0.000    0.000    0.000    0.000    0.000 
#
# Total GULP energy -223399.885958 kJ/mol
# GULP energy per Si atom -5584.997149 kJ/mol
# Density = 2.171067 g / cm^3
# Si number density = 21.760193 Si / 1000 Ang^3
#
#
#
# Elastic Constant Matrix: (Units=GPa)
#
#
# Indices 1 2 3 4 5 6 
#
# 1 217.7460 3.7808 162.1578 0.0000 0.0000 0.0000
# 2 3.7808 37.1394 -9.9936 0.0000 0.0000 0.0000
# 3 162.1578 -9.9936 212.5830 0.0000 0.0000 0.0000
# 4 0.0000 0.0000 0.0000 -85.6010 0.0000 0.0000
# 5 0.0000 0.0000 0.0000 0.0000 12.5894 0.0000
# 6 0.0000 0.0000 0.0000 0.0000 0.0000 -6.5449
#
#
#
# Elastic Compliance Matrix: (Units=1/GPa)
#
#
# Indices 1 2 3 4 5 6 
#
# 1 0.011049 -0.003436 -0.008590 0.000000 0.000000 0.000000
# 2 -0.003436 0.028339 0.003953 0.000000 0.000000 0.000000
# 3 -0.008590 0.003953 0.011442 0.000000 0.000000 0.000000
# 4 0.000000 0.000000 0.000000 -0.011682 0.000000 0.000000
# 5 0.000000 0.000000 0.000000 0.000000 0.079432 0.000000
# 6 0.000000 0.000000 0.000000 0.000000 0.000000 -0.152792
#
#
# Mechanical properties :
#
#
# Convention : Reuss Voigt Hill
#
# Bulk Modulus (GPa) = 28.83073 86.59539 57.71306
# Shear Modulus (GPa) = -768.61903 4.85694 -381.88104
#
# Velocity S-wave (km/s) = -18.81460 1.49562 -13.26183
# Velocity P-wave (km/s) = 21.41746 6.54708 14.41949
#
# Compressibility (1/GPa) = 0.03468521
#
# Stress axis : x y z
#
# Youngs Moduli (GPa) = 90.50595 35.28686 87.39673
#
# Poissons Ratio (x) = 0.12125 0.75071
# Poissons Ratio (y) = 0.31099 -0.34551
# Poissons Ratio (z) = 0.77742 -0.13950
#
# Static dielectric constant tensor:
#      x y z
#    x 1.790920 0.000000 0.000000 
#    y 0.000000 1.820910 0.000000 
#    z 0.000000 0.000000 1.762990 
# 
# From -- ./inp_files/47821.got.cif
#   From: 2010.05.17/outbox.cif.g08.bks.cpg/sg64_24_cif.got.tgz:47821.got - 2010.06.03 16:29:19.
