data_PCOD9477648
_publ_section_title
;
Structure prediction by ZEFSAII (Michael W. Deem and Ramdas Pophale) SiO2 
 PCOD9477648
Probable space group: C M C A
;
_chemical_formula_sum "Si O2"
_cell_formula_units_Z 112
_cell_length_a 14.962055
_cell_length_b 10.077834
_cell_length_c 31.437516
_cell_angle_alpha 90.000000
_cell_angle_beta 90.000000
_cell_angle_gamma 90.000000
_cell_volume 4740.309201
_symmetry_space_group_name_H-M "C M C A"
_symmetry_group_IT_number 64
_symmetry_cell_setting 'orthorhombic'
loop_
_space_group_symop_operation_xyz
x,y,z
-x,1/2-y,1/2+z
x,-y,-z
-x,1/2+y,1/2-z
-x,-y,-z
x,1/2+y,1/2-z
-x,y,z
x,1/2-y,1/2+z
1/2+x,1/2+y,z
1/2-x,-y,1/2+z
1/2+x,1/2-y,-z
1/2-x,y,1/2-z
1/2-x,1/2-y,-z
1/2+x,y,1/2-z
1/2-x,1/2+y,z
1/2+x,-y,1/2+z
loop_
_atom_site_type_symbol
_atom_site_label
_atom_site_fract_x
_atom_site_fract_y
_atom_site_fract_z
Si Si1 0.870988 0.087726 0.439123
Si Si2 0.610204 0.245393 0.215458
Si Si3 0.095222 0.194144 0.998138
Si Si4 0.105488 0.447019 0.212491
Si Si5 0.102423 0.838291 0.382678
Si Si6 0.329909 0.980168 0.561232
Si Si7 0.312243 0.804261 0.375613
O O1 0.902952 0.155078 0.482961
O O2 0.903378 0.949661 0.419790
O O3 0.767549 0.070754 0.446309
O O4 0.873952 0.199320 0.401827
O O5 0.500000 0.249419 0.210119
O O6 0.639897 0.093582 0.221593
O O7 0.637611 0.333928 0.255640
O O8 0.659314 0.294630 0.172988
O O9 0.000000 0.142195 0.983209
O O10 0.161689 0.107720 0.969972
O O11 0.108159 0.141761 0.045899
O O12 0.113934 0.411216 0.163021
O O13 0.000000 0.454404 0.220986
O O14 0.000000 0.776711 0.380486
O O15 0.205327 0.777839 0.385008
O O16 0.335929 0.048520 0.606878
#
# Coordination Sequence:
#
# PCOD9477648 Si02
#       7
#    16  16  16  16  16  16  16
#     4  10  19  35  58  82 111 155 202 242 300 367
#     4  10  20  38  62  92 123 160 206 258 314 375
#     4  10  19  33  56  85 114 152 198 243 301 363
#     4   9  19  37  61  87 120 158 201 255 310 366
#     4  10  20  38  58  81 116 156 201 252 301 365
#     4   9  19  33  51  81 119 145 186 248 294 350
#     4  10  21  35  57  87 115 157 202 245 307 372
#
# _framework density 23.627151000000001
#
# number of rings (size 3 to 8) (size 9 to 14) (size 15 to 20)
#    0.000    2.286    1.429    1.714    0.000    3.429 
#    5.143    2.857    0.000    0.000    0.000   16.000 
#    0.000    0.000    0.000    0.000    0.000    0.000 
#
# Total GULP energy -312094.796690 kJ/mol
# GULP energy per Si atom -5573.121369 kJ/mol
# Density = 2.357338 g / cm^3
# Si number density = 23.627151 Si / 1000 Ang^3
#
#
#
# Elastic Constant Matrix: (Units=GPa)
#
#
# Indices 1 2 3 4 5 6 
#
# 1 69.4293 21.5402 15.1025 0.0000 0.0000 0.0000
# 2 21.5402 52.9219 30.1466 0.0000 0.0000 0.0000
# 3 15.1025 30.1466 103.2958 0.0000 0.0000 0.0000
# 4 0.0000 0.0000 0.0000 35.6397 0.0000 0.0000
# 5 0.0000 0.0000 0.0000 0.0000 34.0196 0.0000
# 6 0.0000 0.0000 0.0000 0.0000 0.0000 14.2441
#
#
#
# Elastic Compliance Matrix: (Units=1/GPa)
#
#
# Indices 1 2 3 4 5 6 
#
# 1 0.016510 -0.006411 -0.000543 0.000000 0.000000 0.000000
# 2 -0.006411 0.025153 -0.006403 0.000000 0.000000 0.000000
# 3 -0.000543 -0.006403 0.011629 0.000000 0.000000 0.000000
# 4 0.000000 0.000000 0.000000 0.028059 0.000000 0.000000
# 5 0.000000 0.000000 0.000000 0.000000 0.029395 0.000000
# 6 0.000000 0.000000 0.000000 0.000000 0.000000 0.070204
#
#
# Mechanical properties :
#
#
# Convention : Reuss Voigt Hill
#
# Bulk Modulus (GPa) = 37.62532 39.91396 38.76964
# Shear Modulus (GPa) = 23.09221 27.37120 25.23170
#
# Velocity S-wave (km/s) = 3.12967 3.40731 3.27144
# Velocity P-wave (km/s) = 5.38692 5.69295 5.54205
#
# Compressibility (1/GPa) = 0.02657785
#
# Stress axis : x y z
#
# Youngs Moduli (GPa) = 60.56885 39.75713 85.99068
#
# Poissons Ratio (x) = 0.25487 0.04669
# Poissons Ratio (y) = 0.38829 0.55064
# Poissons Ratio (z) = 0.03289 0.25458
#
# Static dielectric constant tensor:
#      x y z
#    x 1.910040 0.000000 0.000000 
#    y 0.000000 1.943030 0.000000 
#    z 0.000000 0.000000 1.951210 
# 
# From -- ./inp_files/53293.got.cif
#   From: 2010.05.17/outbox.cif.g08.bks.cpg/sg64_27_cif.got.tgz:53293.got - 2010.06.03 16:29:19.
