data_PCOD9477270
_publ_section_title
;
Structure prediction by ZEFSAII (Michael W. Deem and Ramdas Pophale) SiO2 
 PCOD9477270
Probable space group: C M C A
;
_chemical_formula_sum "Si O2"
_cell_formula_units_Z 88
_cell_length_a 34.924616
_cell_length_b 5.209332
_cell_length_c 27.796734
_cell_angle_alpha 90.000000
_cell_angle_beta 90.000000
_cell_angle_gamma 90.000000
_cell_volume 5057.168772
_symmetry_space_group_name_H-M "C M C A"
_symmetry_group_IT_number 64
_symmetry_cell_setting 'orthorhombic'
loop_
_space_group_symop_operation_xyz
x,y,z
-x,1/2-y,1/2+z
x,-y,-z
-x,1/2+y,1/2-z
-x,-y,-z
x,1/2+y,1/2-z
-x,y,z
x,1/2-y,1/2+z
1/2+x,1/2+y,z
1/2-x,-y,1/2+z
1/2+x,1/2-y,-z
1/2-x,y,1/2-z
1/2-x,1/2-y,-z
1/2+x,y,1/2-z
1/2-x,1/2+y,z
1/2+x,-y,1/2+z
loop_
_atom_site_type_symbol
_atom_site_label
_atom_site_fract_x
_atom_site_fract_y
_atom_site_fract_z
Si Si1 0.599956 0.500000 0.500000
Si Si2 0.725230 0.010523 0.942622
Si Si3 0.956266 0.642339 0.282765
Si Si4 0.900120 0.555417 0.370871
Si Si5 0.858477 0.077103 0.406960
Si Si6 0.542487 0.356923 0.949284
O O1 0.626954 0.354964 0.538175
O O2 0.570657 0.630828 0.536536
O O3 0.755787 0.785701 0.932894
O O4 0.686687 0.962588 0.912911
O O5 0.716401 0.000000 0.000000
O O6 0.953003 0.415340 0.243683
O O7 0.923061 0.607245 0.321926
O O8 0.000000 0.625400 0.303139
O O9 0.872138 0.311430 0.373581
O O10 0.934488 0.492946 0.408754
O O11 0.877213 0.810579 0.387910
O O12 0.500000 0.280236 0.933770
O O13 0.539421 0.500000 0.000000
#
# Coordination Sequence:
#
# PCOD9477270 Si02
#       6
#     8  16  16  16  16  16
#     4  10  19  32  44  68 102 150 178 224 252 304
#     4  10  20  34  52  76 106 150 191 222 259 319
#     4  10  21  39  60  81 109 144 186 238 287 329
#     4  11  22  35  54  81 106 144 182 228 276 324
#     4  11  21  34  53  76 112 140 184 219 269 317
#     4  10  19  31  45  67 102 145 185 217 251 302
#
# _framework density 17.401039999999998
#
# number of rings (size 3 to 8) (size 9 to 14) (size 15 to 20)
#    0.000    1.636    2.727    3.000    0.000    0.000 
#    0.000    1.818    0.000    0.000    0.000    0.000 
#    0.000   50.909    0.000    0.000    0.000    0.000 
#
# Total GULP energy -245067.839666 kJ/mol
# GULP energy per Si atom -5569.723629 kJ/mol
# Density = 1.736143 g / cm^3
# Si number density = 17.401040 Si / 1000 Ang^3
#
#
#
# Elastic Constant Matrix: (Units=GPa)
#
#
# Indices 1 2 3 4 5 6 
#
# 1 107.3833 14.6829 27.3902 0.0000 0.0000 0.0000
# 2 14.6829 60.4391 -3.0433 0.0000 0.0000 0.0000
# 3 27.3902 -3.0433 35.8640 0.0000 0.0000 0.0000
# 4 0.0000 0.0000 0.0000 15.9389 0.0000 0.0000
# 5 0.0000 0.0000 0.0000 0.0000 27.8092 0.0000
# 6 0.0000 0.0000 0.0000 0.0000 0.0000 21.9517
#
#
#
# Elastic Compliance Matrix: (Units=1/GPa)
#
#
# Indices 1 2 3 4 5 6 
#
# 1 0.012246 -0.003461 -0.009646 0.000000 0.000000 0.000000
# 2 -0.003461 0.017595 0.004136 0.000000 0.000000 0.000000
# 3 -0.009646 0.004136 0.035601 0.000000 0.000000 0.000000
# 4 0.000000 0.000000 0.000000 0.062740 0.000000 0.000000
# 5 0.000000 0.000000 0.000000 0.000000 0.035959 0.000000
# 6 0.000000 0.000000 0.000000 0.000000 0.000000 0.045554
#
#
# Mechanical properties :
#
#
# Convention : Reuss Voigt Hill
#
# Bulk Modulus (GPa) = 21.05265 31.30511 26.17888
# Shear Modulus (GPa) = 20.53634 24.11706 22.32670
#
# Velocity S-wave (km/s) = 3.43910 3.72688 3.58588
# Velocity P-wave (km/s) = 5.28154 6.04557 5.67642
#
# Compressibility (1/GPa) = 0.04749995
#
# Stress axis : x y z
#
# Youngs Moduli (GPa) = 81.65847 56.83562 28.08890
#
# Poissons Ratio (x) = 0.19669 0.27095
# Poissons Ratio (y) = 0.28260 -0.11618
# Poissons Ratio (z) = 0.78770 -0.23508
#
# Static dielectric constant tensor:
#      x y z
#    x 1.608790 0.000000 0.000000 
#    y 0.000000 1.582200 0.000000 
#    z 0.000000 0.000000 1.602200 
# 
# From -- ./inp_files/47096.got.cif
#   From: 2010.05.17/outbox.cif.g08.bks.cpg/sg64_24_cif.got.tgz:47096.got - 2010.06.03 16:29:19.
