data_PCOD9477321
_publ_section_title
;
Structure prediction by ZEFSAII (Michael W. Deem and Ramdas Pophale) SiO2 
 PCOD9477321
Probable space group: C M C A
;
_chemical_formula_sum "Si O2"
_cell_formula_units_Z 80
_cell_length_a 8.563036
_cell_length_b 28.093680
_cell_length_c 18.761939
_cell_angle_alpha 90.000000
_cell_angle_beta 90.000000
_cell_angle_gamma 90.000000
_cell_volume 4513.507004
_symmetry_space_group_name_H-M "C M C A"
_symmetry_group_IT_number 64
_symmetry_cell_setting 'orthorhombic'
loop_
_space_group_symop_operation_xyz
x,y,z
-x,1/2-y,1/2+z
x,-y,-z
-x,1/2+y,1/2-z
-x,-y,-z
x,1/2+y,1/2-z
-x,y,z
x,1/2-y,1/2+z
1/2+x,1/2+y,z
1/2-x,-y,1/2+z
1/2+x,1/2-y,-z
1/2-x,y,1/2-z
1/2-x,1/2-y,-z
1/2+x,y,1/2-z
1/2-x,1/2+y,z
1/2+x,-y,1/2+z
loop_
_atom_site_type_symbol
_atom_site_label
_atom_site_fract_x
_atom_site_fract_y
_atom_site_fract_z
Si Si1 0.689063 0.956523 0.328976
Si Si2 0.810548 0.942027 0.889449
Si Si3 0.312783 0.658784 0.173221
Si Si4 0.814146 0.299581 0.970915
Si Si5 0.310996 0.395788 0.036488
O O1 0.500000 0.957222 0.327456
O O2 0.750000 0.947203 0.250000
O O3 0.736877 0.917902 0.388213
O O4 0.744438 0.008401 0.356741
O O5 0.762802 0.895771 0.844040
O O6 0.000000 0.892633 0.034932
O O7 0.764955 0.930872 0.971101
O O8 0.500000 0.660225 0.172137
O O9 0.250000 0.673161 0.250000
O O10 0.248715 0.690128 0.108509
O O11 0.000000 0.298880 0.970212
O O12 0.750000 0.250000 0.000000
O O13 0.755888 0.344128 0.018315
O O14 0.500000 0.556267 0.111032
#
# Coordination Sequence:
#
# PCOD9477321 Si02
#       5
#    16  16  16  16  16
#     4  10  19  31  49  74 107 144 178 213 253 302
#     4   8  15  29  51  76 103 138 177 214 253 302
#     4  10  19  33  54  82 113 141 173 214 261 310
#     4  11  22  38  59  80 103 133 173 220 271 322
#     4   9  18  34  54  75 101 136 178 218 260 311
#
# _framework density 17.724577
#
# number of rings (size 3 to 8) (size 9 to 14) (size 15 to 20)
#    0.000    2.400    0.000    4.800    0.000    3.200 
#    0.000    5.000    0.000    8.400    0.000    0.000 
#    0.000    0.000    0.000    0.000    0.000    0.000 
#
# Total GULP energy -223215.874764 kJ/mol
# GULP energy per Si atom -5580.396869 kJ/mol
# Density = 1.768423 g / cm^3
# Si number density = 17.724577 Si / 1000 Ang^3
#
#
#
# Elastic Constant Matrix: (Units=GPa)
#
#
# Indices 1 2 3 4 5 6 
#
# 1 52.9970 37.3753 45.6180 0.0000 0.0000 0.0000
# 2 37.3753 114.8733 104.9604 0.0000 0.0000 0.0000
# 3 45.6180 104.9604 182.8470 0.0000 0.0000 0.0000
# 4 0.0000 0.0000 0.0000 16.6129 0.0000 0.0000
# 5 0.0000 0.0000 0.0000 0.0000 30.6062 0.0000
# 6 0.0000 0.0000 0.0000 0.0000 0.0000 19.7242
#
#
#
# Elastic Compliance Matrix: (Units=1/GPa)
#
#
# Indices 1 2 3 4 5 6 
#
# 1 0.025430 -0.005209 -0.003354 0.000000 0.000000 0.000000
# 2 -0.005209 0.019375 -0.009822 0.000000 0.000000 0.000000
# 3 -0.003354 -0.009822 0.011944 0.000000 0.000000 0.000000
# 4 0.000000 0.000000 0.000000 0.060194 0.000000 0.000000
# 5 0.000000 0.000000 0.000000 0.000000 0.032673 0.000000
# 6 0.000000 0.000000 0.000000 0.000000 0.000000 0.050699
#
#
# Mechanical properties :
#
#
# Convention : Reuss Voigt Hill
#
# Bulk Modulus (GPa) = 50.05575 80.73608 65.39592
# Shear Modulus (GPa) = 20.51325 24.23956 22.37641
#
# Velocity S-wave (km/s) = 3.40565 3.70208 3.55695
# Velocity P-wave (km/s) = 6.61565 7.99519 7.33791
#
# Compressibility (1/GPa) = 0.01997772
#
# Stress axis : x y z
#
# Youngs Moduli (GPa) = 39.32385 51.61415 83.72355
#
# Poissons Ratio (x) = 0.26886 0.28083
# Poissons Ratio (y) = 0.20484 0.82234
# Poissons Ratio (z) = 0.13190 0.50696
#
# Static dielectric constant tensor:
#      x y z
#    x 1.606870 0.000000 0.000000 
#    y 0.000000 1.587110 0.000000 
#    z 0.000000 0.000000 1.593600 
# 
# From -- ./inp_files/29726.got.cif
#   From: 2010.05.17/outbox.cif.g08.bks.cpg/sg64_15_cif.got.tgz:29726.got - 2010.06.03 16:29:19.
