data_PCOD9477502
_publ_section_title
;
Structure prediction by ZEFSAII (Michael W. Deem and Ramdas Pophale) SiO2 
 PCOD9477502
Probable space group: C M C A
;
_chemical_formula_sum "Si O2"
_cell_formula_units_Z 104
_cell_length_a 8.642781
_cell_length_b 25.962168
_cell_length_c 21.672871
_cell_angle_alpha 90.000000
_cell_angle_beta 90.000000
_cell_angle_gamma 90.000000
_cell_volume 4863.074361
_symmetry_space_group_name_H-M "C M C A"
_symmetry_group_IT_number 64
_symmetry_cell_setting 'orthorhombic'
loop_
_space_group_symop_operation_xyz
x,y,z
-x,1/2-y,1/2+z
x,-y,-z
-x,1/2+y,1/2-z
-x,-y,-z
x,1/2+y,1/2-z
-x,y,z
x,1/2-y,1/2+z
1/2+x,1/2+y,z
1/2-x,-y,1/2+z
1/2+x,1/2-y,-z
1/2-x,y,1/2-z
1/2-x,1/2-y,-z
1/2+x,y,1/2-z
1/2-x,1/2+y,z
1/2+x,-y,1/2+z
loop_
_atom_site_type_symbol
_atom_site_label
_atom_site_fract_x
_atom_site_fract_y
_atom_site_fract_z
Si Si1 0.824446 0.607990 0.941137
Si Si2 0.686499 0.960018 0.880472
Si Si3 0.258018 0.500000 0.500000
Si Si4 0.183540 0.437699 0.185712
Si Si5 0.681863 0.210120 0.549796
Si Si6 0.816087 0.758651 0.318359
Si Si7 0.315852 0.645022 0.315218
O O1 0.759636 0.593664 0.873611
O O2 0.722752 0.652141 0.971352
O O3 0.000000 0.627868 0.936536
O O4 0.832561 0.553403 0.975873
O O5 0.500000 0.966223 0.897290
O O6 0.708850 0.901216 0.862692
O O7 0.800267 0.978161 0.935047
O O8 0.712683 0.001628 0.826614
O O9 0.250000 0.420271 0.250000
O O10 0.000000 0.430943 0.186245
O O11 0.500000 0.218553 0.553753
O O12 0.750000 0.250000 0.500000
O O13 0.751427 0.215327 0.619201
O O14 0.750000 0.773545 0.250000
O O15 0.769680 0.698565 0.327433
O O16 0.000000 0.764984 0.316154
O O17 0.500000 0.654951 0.310919
O O18 0.250000 0.626000 0.250000
#
# Coordination Sequence:
#
# PCOD9477502 Si02
#       7
#    16  16   8  16  16  16  16
#     4  10  21  39  64  93 124 163 215 266 318 384
#     4   9  17  29  50  81 116 157 208 257 309 373
#     4  10  19  36  61  90 123 166 213 264 321 384
#     4   9  18  33  54  83 119 157 203 252 306 372
#     4  12  27  47  69  97 133 175 223 278 339 401
#     4  11  23  43  68  97 132 172 220 274 334 401
#     4  10  19  32  54  87 122 162 210 261 319 382
#
# _framework density 21.385649000000001
#
# number of rings (size 3 to 8) (size 9 to 14) (size 15 to 20)
#    0.000    1.846    0.000    6.923    2.154    1.231 
#    0.000    2.692    0.000    2.769    0.000    0.000 
#    0.000    0.000    0.000    0.000    0.000    0.000 
#
# Total GULP energy -289829.076953 kJ/mol
# GULP energy per Si atom -5573.636095 kJ/mol
# Density = 2.133697 g / cm^3
# Si number density = 21.385649 Si / 1000 Ang^3
#
#
#
# Elastic Constant Matrix: (Units=GPa)
#
#
# Indices 1 2 3 4 5 6 
#
# 1 97.6468 27.8447 37.0752 0.0000 0.0000 0.0000
# 2 27.8447 95.1904 45.6812 0.0000 0.0000 0.0000
# 3 37.0752 45.6812 93.0922 0.0000 0.0000 0.0000
# 4 0.0000 0.0000 0.0000 16.6213 0.0000 0.0000
# 5 0.0000 0.0000 0.0000 0.0000 16.9053 0.0000
# 6 0.0000 0.0000 0.0000 0.0000 0.0000 19.8989
#
#
#
# Elastic Compliance Matrix: (Units=1/GPa)
#
#
# Indices 1 2 3 4 5 6 
#
# 1 0.012255 -0.001625 -0.004083 0.000000 0.000000 0.000000
# 2 -0.001625 0.013957 -0.006201 0.000000 0.000000 0.000000
# 3 -0.004083 -0.006201 0.015411 0.000000 0.000000 0.000000
# 4 0.000000 0.000000 0.000000 0.060164 0.000000 0.000000
# 5 0.000000 0.000000 0.000000 0.000000 0.059153 0.000000
# 6 0.000000 0.000000 0.000000 0.000000 0.000000 0.050254
#
#
# Mechanical properties :
#
#
# Convention : Reuss Voigt Hill
#
# Bulk Modulus (GPa) = 56.16965 56.34796 56.25881
# Shear Modulus (GPa) = 20.75141 22.37364 21.56253
#
# Velocity S-wave (km/s) = 3.11841 3.23801 3.17877
# Velocity P-wave (km/s) = 6.26802 6.35494 6.31163
#
# Compressibility (1/GPa) = 0.01780321
#
# Stress axis : x y z
#
# Youngs Moduli (GPa) = 81.60105 71.65022 64.88761
#
# Poissons Ratio (x) = 0.11645 0.26494
# Poissons Ratio (y) = 0.13262 0.40239
# Poissons Ratio (z) = 0.33318 0.44433
#
# Static dielectric constant tensor:
#      x y z
#    x 1.760680 0.000000 0.000000 
#    y 0.000000 1.778340 0.000000 
#    z 0.000000 0.000000 1.863580 
# 
# From -- ./inp_files/37258.got.cif
#   From: 2010.05.17/outbox.cif.g08.bks.cpg/sg64_19_cif.got.tgz:37258.got - 2010.06.03 16:29:19.
