data_PCOD9477592
_publ_section_title
;
Structure prediction by ZEFSAII (Michael W. Deem and Ramdas Pophale) SiO2 
 PCOD9477592
Probable space group: C M C A
;
_chemical_formula_sum "Si O2"
_cell_formula_units_Z 116
_cell_length_a 7.637031
_cell_length_b 26.674725
_cell_length_c 29.245104
_cell_angle_alpha 90.000000
_cell_angle_beta 90.000000
_cell_angle_gamma 90.000000
_cell_volume 5957.686884
_symmetry_space_group_name_H-M "C M C A"
_symmetry_group_IT_number 64
_symmetry_cell_setting 'orthorhombic'
loop_
_space_group_symop_operation_xyz
x,y,z
-x,1/2-y,1/2+z
x,-y,-z
-x,1/2+y,1/2-z
-x,-y,-z
x,1/2+y,1/2-z
-x,y,z
x,1/2-y,1/2+z
1/2+x,1/2+y,z
1/2-x,-y,1/2+z
1/2+x,1/2-y,-z
1/2-x,y,1/2-z
1/2-x,1/2-y,-z
1/2+x,y,1/2-z
1/2-x,1/2+y,z
1/2+x,-y,1/2+z
loop_
_atom_site_type_symbol
_atom_site_label
_atom_site_fract_x
_atom_site_fract_y
_atom_site_fract_z
Si Si1 0.704632 0.356273 0.941578
Si Si2 0.210610 0.100934 0.301316
Si Si3 0.206445 0.254258 0.602164
Si Si4 0.790284 0.659047 0.953170
Si Si5 0.500000 0.000000 0.500000
Si Si6 0.798458 0.954192 0.610558
Si Si7 0.792161 0.215574 0.301113
Si Si8 0.789170 0.548514 0.947278
O O1 0.500000 0.362536 0.930286
O O2 0.778617 0.307685 0.914919
O O3 0.792994 0.406926 0.923653
O O4 0.723389 0.344599 0.995068
O O5 0.250000 0.083479 0.250000
O O6 0.279861 0.065950 0.341931
O O7 0.278024 0.158242 0.305488
O O8 0.000000 0.103266 0.306374
O O9 0.278971 0.206484 0.574974
O O10 0.225965 0.252021 0.656619
O O11 0.000000 0.256212 0.591617
O O12 0.760808 0.604918 0.929961
O O13 0.000000 0.664092 0.956891
O O14 0.342997 0.041134 0.510688
O O15 0.000000 0.967366 0.619716
O O16 0.725967 0.004007 0.586535
O O17 0.750000 0.233316 0.250000
O O18 0.000000 0.213160 0.305258
O O19 0.000000 0.542785 0.957350
#
# Coordination Sequence:
#
# PCOD9477592 Si02
#       8
#    16  16  16  16   4  16  16  16
#     4  11  22  32  51  81 109 141 185 234 275 324
#     4   9  18  32  52  79 109 140 172 219 282 341
#     4  10  21  37  54  78 109 147 186 226 277 334
#     4  10  22  39  55  72 108 154 192 228 277 329
#     4  12  22  36  60  82 112 140 198 240 276 328
#     4  10  20  36  55  77 111 146 184 224 281 340
#     4  10  19  33  54  80 108 137 174 222 275 331
#     4  10  23  39  56  81 112 151 190 237 284 326
#
# _framework density 19.470644
#
# number of rings (size 3 to 8) (size 9 to 14) (size 15 to 20)
#    0.000    1.931    1.379    2.276    3.862    4.414 
#    0.000    0.000    0.000    0.828    0.000    1.931 
#    0.000    0.000    0.000    0.000    0.000    0.000 
#
# Total GULP energy -323104.681100 kJ/mol
# GULP energy per Si atom -5570.770364 kJ/mol
# Density = 1.942633 g / cm^3
# Si number density = 19.470644 Si / 1000 Ang^3
#
#
#
# Elastic Constant Matrix: (Units=GPa)
#
#
# Indices 1 2 3 4 5 6 
#
# 1 56.1727 7.6195 -12.6002 0.0000 0.0000 0.0000
# 2 7.6195 81.0999 46.7560 0.0000 0.0000 0.0000
# 3 -12.6002 46.7560 117.9381 0.0000 0.0000 0.0000
# 4 0.0000 0.0000 0.0000 21.8329 0.0000 0.0000
# 5 0.0000 0.0000 0.0000 0.0000 18.6605 0.0000
# 6 0.0000 0.0000 0.0000 0.0000 0.0000 2.8244
#
#
#
# Elastic Compliance Matrix: (Units=1/GPa)
#
#
# Indices 1 2 3 4 5 6 
#
# 1 0.019127 -0.003857 0.003572 0.000000 0.000000 0.000000
# 2 -0.003857 0.016761 -0.007057 0.000000 0.000000 0.000000
# 3 0.003572 -0.007057 0.011658 0.000000 0.000000 0.000000
# 4 0.000000 0.000000 0.000000 0.045803 0.000000 0.000000
# 5 0.000000 0.000000 0.000000 0.000000 0.053589 0.000000
# 6 0.000000 0.000000 0.000000 0.000000 0.000000 0.354057
#
#
# Mechanical properties :
#
#
# Convention : Reuss Voigt Hill
#
# Bulk Modulus (GPa) = 30.42835 37.64015 34.03425
# Shear Modulus (GPa) = 9.49430 22.89259 16.19345
#
# Velocity S-wave (km/s) = 2.21061 3.43264 2.88702
# Velocity P-wave (km/s) = 4.70930 5.92321 5.35079
#
# Compressibility (1/GPa) = 0.03286408
#
# Stress axis : x y z
#
# Youngs Moduli (GPa) = 52.28295 59.66127 85.77523
#
# Poissons Ratio (x) = 0.23009 -0.30642
# Poissons Ratio (y) = 0.20163 0.60531
# Poissons Ratio (z) = -0.18677 0.42103
#
# Static dielectric constant tensor:
#      x y z
#    x 1.759150 0.000000 0.000000 
#    y 0.000000 1.716470 0.000000 
#    z 0.000000 0.000000 1.723910 
# 
# From -- ./inp_files/43377.got.cif
#   From: 2010.05.17/outbox.cif.g08.bks.cpg/sg64_22_cif.got.tgz:43377.got - 2010.06.03 16:29:19.
