data_PCOD9477315
_publ_section_title
;
Structure prediction by ZEFSAII (Michael W. Deem and Ramdas Pophale) SiO2 
 PCOD9477315
Probable space group: C M C A
;
_chemical_formula_sum "Si O2"
_cell_formula_units_Z 80
_cell_length_a 7.730845
_cell_length_b 28.442813
_cell_length_c 18.630556
_cell_angle_alpha 90.000000
_cell_angle_beta 90.000000
_cell_angle_gamma 90.000000
_cell_volume 4096.616670
_symmetry_space_group_name_H-M "C M C A"
_symmetry_group_IT_number 64
_symmetry_cell_setting 'orthorhombic'
loop_
_space_group_symop_operation_xyz
x,y,z
-x,1/2-y,1/2+z
x,-y,-z
-x,1/2+y,1/2-z
-x,-y,-z
x,1/2+y,1/2-z
-x,y,z
x,1/2-y,1/2+z
1/2+x,1/2+y,z
1/2-x,-y,1/2+z
1/2+x,1/2-y,-z
1/2-x,y,1/2-z
1/2-x,1/2-y,-z
1/2+x,y,1/2-z
1/2-x,1/2+y,z
1/2+x,-y,1/2+z
loop_
_atom_site_type_symbol
_atom_site_label
_atom_site_fract_x
_atom_site_fract_y
_atom_site_fract_z
Si Si1 0.791844 0.292083 0.668633
Si Si2 0.290646 0.650513 0.032071
Si Si3 0.206292 0.410160 0.170344
Si Si4 0.297170 0.449728 0.021490
Si Si5 0.706656 0.309347 0.380139
O O1 0.750000 0.305271 0.750000
O O2 0.729456 0.327494 0.606803
O O3 0.724558 0.239526 0.650866
O O4 0.000000 0.290710 0.662438
O O5 0.500000 0.648668 0.033045
O O6 0.224667 0.597841 0.014927
O O7 0.242030 0.683285 0.964514
O O8 0.250000 0.426100 0.250000
O O9 0.281638 0.441232 0.106446
O O10 0.273260 0.356652 0.158359
O O11 0.000000 0.409718 0.161255
O O12 0.500000 0.450877 0.001740
O O13 0.220431 0.500000 0.000000
O O14 0.500000 0.308675 0.370202
#
# Coordination Sequence:
#
# PCOD9477315 Si02
#       5
#    16  16  16  16  16
#     4  10  20  32  46  68  98 129 160 192 229 277
#     4   9  18  32  50  71  94 123 160 198 236 282
#     4  10  19  31  49  74 101 125 155 196 240 285
#     4   9  18  34  54  72  94 126 161 199 244 289
#     4   9  18  31  48  71  97 125 157 193 233 280
#
# _framework density 19.528310999999999
#
# number of rings (size 3 to 8) (size 9 to 14) (size 15 to 20)
#    0.000    2.600    0.000    1.800    0.000    2.800 
#    0.000    1.000    0.000    2.400    0.000    0.000 
#    0.000    0.000    0.000    0.000    0.000    0.000 
#
# Total GULP energy -223173.584697 kJ/mol
# GULP energy per Si atom -5579.339617 kJ/mol
# Density = 1.948386 g / cm^3
# Si number density = 19.528311 Si / 1000 Ang^3
#
#
#
# Elastic Constant Matrix: (Units=GPa)
#
#
# Indices 1 2 3 4 5 6 
#
# 1 25.1219 -6.7067 -28.3497 0.0000 0.0000 0.0000
# 2 -6.7067 77.8450 47.2008 0.0000 0.0000 0.0000
# 3 -28.3497 47.2008 107.7629 0.0000 0.0000 0.0000
# 4 0.0000 0.0000 0.0000 17.2566 0.0000 0.0000
# 5 0.0000 0.0000 0.0000 0.0000 21.1733 0.0000
# 6 0.0000 0.0000 0.0000 0.0000 0.0000 -1.1482
#
#
#
# Elastic Compliance Matrix: (Units=1/GPa)
#
#
# Indices 1 2 3 4 5 6 
#
# 1 0.058502 -0.005844 0.017950 0.000000 0.000000 0.000000
# 2 -0.005844 0.018075 -0.009454 0.000000 0.000000 0.000000
# 3 0.017950 -0.009454 0.018143 0.000000 0.000000 0.000000
# 4 0.000000 0.000000 0.000000 0.057949 0.000000 0.000000
# 5 0.000000 0.000000 0.000000 0.000000 0.047229 0.000000
# 6 0.000000 0.000000 0.000000 0.000000 0.000000 -0.870932
#
#
# Mechanical properties :
#
#
# Convention : Reuss Voigt Hill
#
# Bulk Modulus (GPa) = 9.99761 26.11320 18.05540
# Shear Modulus (GPa) = -7.77608 20.69537 6.45964
#
# Velocity S-wave (km/s) = -1.99765 3.25893 1.82072
# Velocity P-wave (km/s) = 0.43605 5.24994 3.69944
#
# Compressibility (1/GPa) = 0.10002389
#
# Stress axis : x y z
#
# Youngs Moduli (GPa) = 17.09346 55.32459 55.11819
#
# Poissons Ratio (x) = 0.32329 -0.98936
# Poissons Ratio (y) = 0.09989 0.52110
# Poissons Ratio (z) = -0.30683 0.52306
#
# Static dielectric constant tensor:
#      x y z
#    x 1.719330 0.000000 0.000000 
#    y 0.000000 1.705450 0.000000 
#    z 0.000000 0.000000 1.657680 
# 
# From -- ./inp_files/13203.got.cif
#   From: 2010.05.17/outbox.cif.g08.bks.cpg/sg64_7_cif.got.tgz:13203.got - 2010.06.03 16:29:19.
