data_PCOD9477080
_publ_section_title
;
Structure prediction by ZEFSAII (Michael W. Deem and Ramdas Pophale) SiO2 
 PCOD9477080
Probable space group: C M C A
;
_chemical_formula_sum "Si O2"
_cell_formula_units_Z 96
_cell_length_a 30.671858
_cell_length_b 7.646681
_cell_length_c 17.247937
_cell_angle_alpha 90.000000
_cell_angle_beta 90.000000
_cell_angle_gamma 90.000000
_cell_volume 4045.295161
_symmetry_space_group_name_H-M "C M C A"
_symmetry_group_IT_number 64
_symmetry_cell_setting 'orthorhombic'
loop_
_space_group_symop_operation_xyz
x,y,z
-x,1/2-y,1/2+z
x,-y,-z
-x,1/2+y,1/2-z
-x,-y,-z
x,1/2+y,1/2-z
-x,y,z
x,1/2-y,1/2+z
1/2+x,1/2+y,z
1/2-x,-y,1/2+z
1/2+x,1/2-y,-z
1/2-x,y,1/2-z
1/2-x,1/2-y,-z
1/2+x,y,1/2-z
1/2-x,1/2+y,z
1/2+x,-y,1/2+z
loop_
_atom_site_type_symbol
_atom_site_label
_atom_site_fract_x
_atom_site_fract_y
_atom_site_fract_z
Si Si1 0.000000 0.255483 0.829178
Si Si2 0.904493 0.738589 0.169519
Si Si3 0.685333 0.866673 0.896420
Si Si4 0.259948 0.454090 0.161132
Si Si5 0.095077 0.342226 0.647818
Si Si6 0.677679 0.827198 0.551738
Si Si7 0.000000 0.339596 0.647373
O O1 0.952912 0.327893 0.854094
O O2 0.000000 0.272374 0.735971
O O3 0.000000 0.050574 0.849287
O O4 0.864680 0.640626 0.128832
O O5 0.900860 0.717985 0.262707
O O6 0.901600 0.945353 0.150331
O O7 0.710471 0.717651 0.846126
O O8 0.712039 0.040854 0.877246
O O9 0.691224 0.805605 0.984292
O O10 0.250000 0.491905 0.250000
O O11 0.287294 0.596333 0.112382
O O12 0.134161 0.273289 0.596266
O O13 0.047347 0.290224 0.615450
O O14 0.666052 0.000000 0.500000
#
# Coordination Sequence:
#
# PCOD9477080 Si02
#       7
#     8  16  16  16  16  16   8
#     4   8  16  30  53  82 113 140 179 223 275 323
#     4  10  19  35  58  85 112 146 184 230 273 328
#     4  11  23  38  58  80 115 149 184 233 287 330
#     4  11  22  38  58  81 106 146 194 234 278 333
#     4  10  18  35  59  83 116 144 187 228 279 330
#     4  10  20  38  55  75 114 151 180 229 284 329
#     4   8  16  28  52  87 110 143 177 227 275 329
#
# _framework density 23.731273000000002
#
# number of rings (size 3 to 8) (size 9 to 14) (size 15 to 20)
#    0.000    2.000    3.333    2.000    0.000    0.000 
#    0.000    1.250    0.000    0.000    0.000    0.000 
#    0.000   13.333    0.000    0.000    0.000    0.000 
#
# Total GULP energy -268384.781329 kJ/mol
# GULP energy per Si atom -5591.349611 kJ/mol
# Density = 2.367726 g / cm^3
# Si number density = 23.731273 Si / 1000 Ang^3
#
#
#
# Elastic Constant Matrix: (Units=GPa)
#
#
# Indices 1 2 3 4 5 6 
#
# 1 206.5149 11.6088 64.1539 0.0000 0.0000 0.0000
# 2 11.6088 68.5648 6.2660 0.0000 0.0000 0.0000
# 3 64.1539 6.2660 126.0208 0.0000 0.0000 0.0000
# 4 0.0000 0.0000 0.0000 19.1452 0.0000 0.0000
# 5 0.0000 0.0000 0.0000 0.0000 -42.5035 0.0000
# 6 0.0000 0.0000 0.0000 0.0000 0.0000 22.5423
#
#
#
# Elastic Compliance Matrix: (Units=1/GPa)
#
#
# Indices 1 2 3 4 5 6 
#
# 1 0.005786 -0.000714 -0.002910 0.000000 0.000000 0.000000
# 2 -0.000714 0.014739 -0.000370 0.000000 0.000000 0.000000
# 3 -0.002910 -0.000370 0.009435 0.000000 0.000000 0.000000
# 4 0.000000 0.000000 0.000000 0.052232 0.000000 0.000000
# 5 0.000000 0.000000 0.000000 0.000000 -0.023527 0.000000
# 6 0.000000 0.000000 0.000000 0.000000 0.000000 0.044361
#
#
# Mechanical properties :
#
#
# Convention : Reuss Voigt Hill
#
# Bulk Modulus (GPa) = 45.50858 62.79535 54.15196
# Shear Modulus (GPa) = 42.25167 21.10824 31.67996
#
# Velocity S-wave (km/s) = 4.22408 2.98563 3.65765
# Velocity P-wave (km/s) = 6.55811 6.19708 6.38015
#
# Compressibility (1/GPa) = 0.02197388
#
# Stress axis : x y z
#
# Youngs Moduli (GPa) = 172.81732 67.84559 105.98714
#
# Poissons Ratio (x) = 0.04842 0.30845
# Poissons Ratio (y) = 0.12335 0.03916
# Poissons Ratio (z) = 0.50294 0.02507
#
# Static dielectric constant tensor:
#      x y z
#    x 1.924860 0.000000 0.000000 
#    y 0.000000 2.006530 0.000000 
#    z 0.000000 0.000000 1.829340 
# 
# From -- ./inp_files/28339.got.cif
#   From: 2010.05.17/outbox.cif.g08.bks.cpg/sg64_15_cif.got.tgz:28339.got - 2010.06.03 16:29:19.
