data_PCOD9477133
_publ_section_title
;
Structure prediction by ZEFSAII (Michael W. Deem and Ramdas Pophale) SiO2 
 PCOD9477133
Probable space group: C M C A
;
_chemical_formula_sum "Si O2"
_cell_formula_units_Z 64
_cell_length_a 21.488649
_cell_length_b 10.090918
_cell_length_c 16.585241
_cell_angle_alpha 90.000000
_cell_angle_beta 90.000000
_cell_angle_gamma 90.000000
_cell_volume 3596.346892
_symmetry_space_group_name_H-M "C M C A"
_symmetry_group_IT_number 64
_symmetry_cell_setting 'orthorhombic'
loop_
_space_group_symop_operation_xyz
x,y,z
-x,1/2-y,1/2+z
x,-y,-z
-x,1/2+y,1/2-z
-x,-y,-z
x,1/2+y,1/2-z
-x,y,z
x,1/2-y,1/2+z
1/2+x,1/2+y,z
1/2-x,-y,1/2+z
1/2+x,1/2-y,-z
1/2-x,y,1/2-z
1/2-x,1/2-y,-z
1/2+x,y,1/2-z
1/2-x,1/2+y,z
1/2+x,-y,1/2+z
loop_
_atom_site_type_symbol
_atom_site_label
_atom_site_fract_x
_atom_site_fract_y
_atom_site_fract_z
Si Si1 0.500000 0.281156 0.334312
Si Si2 0.745820 0.375245 0.441137
Si Si3 0.500000 0.035777 0.677032
Si Si4 0.609268 0.638467 0.545988
Si Si5 0.119244 0.388778 0.430083
O O1 0.500000 0.378256 0.258043
O O2 0.558645 0.316915 0.389985
O O3 0.500000 0.124302 0.312586
O O4 0.744867 0.500000 0.500000
O O5 0.750000 0.250000 0.500000
O O6 0.676001 0.369019 0.407682
O O7 0.810631 0.384827 0.392605
O O8 0.562205 0.076971 0.627866
O O9 0.596944 0.500000 0.500000
O O10 0.610557 0.749825 0.476120
O O11 0.119461 0.500000 0.500000
#
# Coordination Sequence:
#
# PCOD9477133 Si02
#       5
#     8  16   8  16  16
#     4  12  26  40  54  81 119 153 191 231 277 336
#     4   8  16  30  56  88 111 134 177 236 281 324
#     4  12  26  39  56  81 115 156 191 233 281 330
#     4  10  20  36  61  89 113 143 186 234 281 332
#     4  10  18  37  63  84 109 146 191 231 278 334
#
# _framework density 17.795836000000001
#
# number of rings (size 3 to 8) (size 9 to 14) (size 15 to 20)
#    0.000    2.000    2.500    1.500    3.500    0.000 
#    0.000    1.250    0.000    3.000    0.000    0.000 
#    0.000    0.000    0.000    0.000    0.000    0.000 
#
# Total GULP energy -178149.903275 kJ/mol
# GULP energy per Si atom -5567.184477 kJ/mol
# Density = 1.775533 g / cm^3
# Si number density = 17.795836 Si / 1000 Ang^3
#
#
#
# Elastic Constant Matrix: (Units=GPa)
#
#
# Indices 1 2 3 4 5 6 
#
# 1 201.1508 42.0663 60.6228 0.0000 0.0000 0.0000
# 2 42.0663 172.6655 36.1279 0.0000 0.0000 0.0000
# 3 60.6228 36.1279 55.1431 0.0000 0.0000 0.0000
# 4 0.0000 0.0000 0.0000 22.6622 0.0000 0.0000
# 5 0.0000 0.0000 0.0000 0.0000 28.7265 0.0000
# 6 0.0000 0.0000 0.0000 0.0000 0.0000 26.9920
#
#
#
# Elastic Compliance Matrix: (Units=1/GPa)
#
#
# Indices 1 2 3 4 5 6 
#
# 1 0.007437 -0.000117 -0.008099 0.000000 0.000000 0.000000
# 2 -0.000117 0.006713 -0.004270 0.000000 0.000000 0.000000
# 3 -0.008099 -0.004270 0.029836 0.000000 0.000000 0.000000
# 4 0.000000 0.000000 0.000000 0.044126 0.000000 0.000000
# 5 0.000000 0.000000 0.000000 0.000000 0.034811 0.000000
# 6 0.000000 0.000000 0.000000 0.000000 0.000000 0.037048
#
#
# Mechanical properties :
#
#
# Convention : Reuss Voigt Hill
#
# Bulk Modulus (GPa) = 52.59167 78.51037 65.55102
# Shear Modulus (GPa) = 26.13953 35.01896 30.57925
#
# Velocity S-wave (km/s) = 3.83672 4.44082 4.14978
# Velocity P-wave (km/s) = 7.01742 8.39688 7.73795
#
# Compressibility (1/GPa) = 0.01901442
#
# Stress axis : x y z
#
# Youngs Moduli (GPa) = 134.46677 148.95476 33.51682
#
# Poissons Ratio (x) = 0.01746 0.27145
# Poissons Ratio (y) = 0.01576 0.14310
# Poissons Ratio (z) = 1.08905 0.63597
#
# Static dielectric constant tensor:
#      x y z
#    x 1.708780 0.000000 0.000000 
#    y 0.000000 1.616940 0.000000 
#    z 0.000000 0.000000 1.543230 
# 
# From -- ./inp_files/26964.got.cif
#   From: 2010.05.17/outbox.cif.g08.bks.cpg/sg64_14_cif.got.tgz:26964.got - 2010.06.03 16:29:19.
