data_PCOD9477602
_publ_section_title
;
Structure prediction by ZEFSAII (Michael W. Deem and Ramdas Pophale) SiO2 
 PCOD9477602
Probable space group: C M C A
;
_chemical_formula_sum "Si O2"
_cell_formula_units_Z 116
_cell_length_a 8.215698
_cell_length_b 23.856661
_cell_length_c 28.670100
_cell_angle_alpha 90.000000
_cell_angle_beta 90.000000
_cell_angle_gamma 90.000000
_cell_volume 5619.314429
_symmetry_space_group_name_H-M "C M C A"
_symmetry_group_IT_number 64
_symmetry_cell_setting 'orthorhombic'
loop_
_space_group_symop_operation_xyz
x,y,z
-x,1/2-y,1/2+z
x,-y,-z
-x,1/2+y,1/2-z
-x,-y,-z
x,1/2+y,1/2-z
-x,y,z
x,1/2-y,1/2+z
1/2+x,1/2+y,z
1/2-x,-y,1/2+z
1/2+x,1/2-y,-z
1/2-x,y,1/2-z
1/2-x,1/2-y,-z
1/2+x,y,1/2-z
1/2-x,1/2+y,z
1/2+x,-y,1/2+z
loop_
_atom_site_type_symbol
_atom_site_label
_atom_site_fract_x
_atom_site_fract_y
_atom_site_fract_z
Si Si1 0.304631 0.227900 0.389346
Si Si2 0.191907 0.049844 0.351591
Si Si3 0.194787 0.844011 0.800396
Si Si4 0.806699 0.147297 0.623673
Si Si5 0.000000 0.500000 0.500000
Si Si6 0.690677 0.062475 0.696820
Si Si7 0.694484 0.936777 0.037845
Si Si8 0.692047 0.622055 0.438312
O O1 0.500000 0.230233 0.389256
O O2 0.251253 0.197596 0.341505
O O3 0.241180 0.291265 0.389900
O O4 0.258245 0.184334 0.429838
O O5 0.229400 0.095476 0.311729
O O6 0.260507 0.079457 0.398718
O O7 0.000000 0.043769 0.358419
O O8 0.251597 0.989775 0.334809
O O9 0.250000 0.824197 0.750000
O O10 0.000000 0.848950 0.802066
O O11 0.740294 0.119416 0.670561
O O12 0.783407 0.104179 0.581343
O O13 0.000000 0.152955 0.630278
O O14 0.849500 0.478268 0.464606
O O15 0.500000 0.059258 0.698631
O O16 0.750000 0.058712 0.750000
O O17 0.500000 0.957069 0.039414
O O18 0.714979 0.901961 0.989740
O O19 0.500000 0.625547 0.430125
#
# Coordination Sequence:
#
# PCOD9477602 Si02
#       8
#    16  16  16  16   4  16  16  16
#     4   9  20  38  61  87 118 159 205 258 311 369
#     4  10  20  36  59  85 120 157 197 248 307 369
#     4  10  19  33  54  83 116 150 198 251 307 366
#     4  10  23  44  64  88 126 164 205 258 317 369
#     4  12  26  40  68  98 136 168 222 256 310 398
#     4  12  26  42  62  87 119 160 209 255 311 380
#     4  10  24  43  65  97 135 172 211 263 317 373
#     4   9  20  38  61  93 126 163 206 254 315 368
#
# _framework density 20.643089
#
# number of rings (size 3 to 8) (size 9 to 14) (size 15 to 20)
#    0.000    1.931    0.000    2.690    3.862    2.759 
#    0.000    1.379    0.000    0.000    0.000    0.000 
#    0.000    0.000    0.000    0.000    0.000    0.000 
#
# Total GULP energy -323203.279027 kJ/mol
# GULP energy per Si atom -5572.470328 kJ/mol
# Density = 2.059610 g / cm^3
# Si number density = 20.643089 Si / 1000 Ang^3
#
#
#
# Elastic Constant Matrix: (Units=GPa)
#
#
# Indices 1 2 3 4 5 6 
#
# 1 60.7786 46.9086 26.1653 0.0000 0.0000 0.0000
# 2 46.9086 111.9799 28.6658 0.0000 0.0000 0.0000
# 3 26.1653 28.6658 71.1473 0.0000 0.0000 0.0000
# 4 0.0000 0.0000 0.0000 15.5491 0.0000 0.0000
# 5 0.0000 0.0000 0.0000 0.0000 14.9340 0.0000
# 6 0.0000 0.0000 0.0000 0.0000 0.0000 30.0709
#
#
#
# Elastic Compliance Matrix: (Units=1/GPa)
#
#
# Indices 1 2 3 4 5 6 
#
# 1 0.026324 -0.009532 -0.005841 0.000000 0.000000 0.000000
# 2 -0.009532 0.013409 -0.001897 0.000000 0.000000 0.000000
# 3 -0.005841 -0.001897 0.016968 0.000000 0.000000 0.000000
# 4 0.000000 0.000000 0.000000 0.064312 0.000000 0.000000
# 5 0.000000 0.000000 0.000000 0.000000 0.066961 0.000000
# 6 0.000000 0.000000 0.000000 0.000000 0.000000 0.033255
#
#
# Mechanical properties :
#
#
# Convention : Reuss Voigt Hill
#
# Bulk Modulus (GPa) = 45.12338 49.70945 47.41641
# Shear Modulus (GPa) = 19.00016 21.58855 20.29436
#
# Velocity S-wave (km/s) = 3.03712 3.23739 3.13885
# Velocity P-wave (km/s) = 5.84851 6.17309 6.01299
#
# Compressibility (1/GPa) = 0.02216146
#
# Stress axis : x y z
#
# Youngs Moduli (GPa) = 37.98746 74.57767 58.93593
#
# Poissons Ratio (x) = 0.71089 0.34422
# Poissons Ratio (y) = 0.36211 0.11180
# Poissons Ratio (z) = 0.22187 0.14147
#
# Static dielectric constant tensor:
#      x y z
#    x 1.736940 0.000000 0.000000 
#    y 0.000000 1.798750 0.000000 
#    z 0.000000 0.000000 1.697130 
# 
# From -- ./inp_files/48542.got.cif
#   From: 2010.05.17/outbox.cif.g08.bks.cpg/sg64_25_cif.got.tgz:48542.got - 2010.06.03 16:29:19.
