data_PCOD9477585
_publ_section_title
;
Structure prediction by ZEFSAII (Michael W. Deem and Ramdas Pophale) SiO2 
 PCOD9477585
Probable space group: C M C A
;
_chemical_formula_sum "Si O2"
_cell_formula_units_Z 96
_cell_length_a 7.608982
_cell_length_b 26.891159
_cell_length_c 23.801628
_cell_angle_alpha 90.000000
_cell_angle_beta 90.000000
_cell_angle_gamma 90.000000
_cell_volume 4870.154518
_symmetry_space_group_name_H-M "C M C A"
_symmetry_group_IT_number 64
_symmetry_cell_setting 'orthorhombic'
loop_
_space_group_symop_operation_xyz
x,y,z
-x,1/2-y,1/2+z
x,-y,-z
-x,1/2+y,1/2-z
-x,-y,-z
x,1/2+y,1/2-z
-x,y,z
x,1/2-y,1/2+z
1/2+x,1/2+y,z
1/2-x,-y,1/2+z
1/2+x,1/2-y,-z
1/2-x,y,1/2-z
1/2-x,1/2-y,-z
1/2+x,y,1/2-z
1/2-x,1/2+y,z
1/2+x,-y,1/2+z
loop_
_atom_site_type_symbol
_atom_site_label
_atom_site_fract_x
_atom_site_fract_y
_atom_site_fract_z
Si Si1 0.196812 0.152318 0.118659
Si Si2 0.701674 0.848385 0.378396
Si Si3 0.705914 0.752374 0.315277
Si Si4 0.214903 0.943554 0.065206
Si Si5 0.289724 0.692030 0.501395
Si Si6 0.284676 0.442674 0.935559
O O1 0.258469 0.199935 0.153970
O O2 0.281231 0.097722 0.109820
O O3 0.000000 0.143725 0.139133
O O4 0.204148 0.170047 0.054214
O O5 0.500000 0.855677 0.359205
O O6 0.785039 0.803085 0.342575
O O7 0.779292 0.903431 0.389064
O O8 0.705943 0.828417 0.442047
O O9 0.500000 0.759224 0.321974
O O10 0.750000 0.748828 0.250000
O O11 0.000000 0.941518 0.065004
O O12 0.265159 0.000488 0.076797
O O13 0.269971 0.931975 0.000499
O O14 0.500000 0.683649 0.500973
O O15 0.250000 0.750000 0.500000
O O16 0.500000 0.440514 0.935638
#
# Coordination Sequence:
#
# PCOD9477585 Si02
#       6
#    16  16  16  16  16  16
#     4  11  20  33  54  79 108 141 175 216 259 310
#     4  10  19  33  54  77 104 137 174 216 261 311
#     4  11  24  39  55  75 100 135 178 225 272 319
#     4   8  13  25  46  77 110 139 173 207 242 301
#     4  12  22  31  47  75 109 142 173 209 259 317
#     4   8  14  24  46  78 110 141 172 204 244 301
#
# _framework density 19.711898999999999
#
# number of rings (size 3 to 8) (size 9 to 14) (size 15 to 20)
#    0.000    2.000    3.333    3.500    0.000    0.667 
#    0.000    0.000    0.000    4.000    0.000    2.333 
#    0.000    0.000    0.000    0.000    0.000    0.000 
#
# Total GULP energy -267317.027786 kJ/mol
# GULP energy per Si atom -5569.104746 kJ/mol
# Density = 1.966703 g / cm^3
# Si number density = 19.711899 Si / 1000 Ang^3
#
#
#
# Elastic Constant Matrix: (Units=GPa)
#
#
# Indices 1 2 3 4 5 6 
#
# 1 56.5962 5.3902 -6.2831 0.0000 0.0000 0.0000
# 2 5.3902 195.3689 63.7503 0.0000 0.0000 0.0000
# 3 -6.2831 63.7503 85.6623 0.0000 0.0000 0.0000
# 4 0.0000 0.0000 0.0000 15.3974 0.0000 0.0000
# 5 0.0000 0.0000 0.0000 0.0000 -18.9963 0.0000
# 6 0.0000 0.0000 0.0000 0.0000 0.0000 7.0374
#
#
#
# Elastic Compliance Matrix: (Units=1/GPa)
#
#
# Indices 1 2 3 4 5 6 
#
# 1 0.018034 -0.001227 0.002236 0.000000 0.000000 0.000000
# 2 -0.001227 0.006844 -0.005183 0.000000 0.000000 0.000000
# 3 0.002236 -0.005183 0.015695 0.000000 0.000000 0.000000
# 4 0.000000 0.000000 0.000000 0.064946 0.000000 0.000000
# 5 0.000000 0.000000 0.000000 0.000000 -0.052642 0.000000
# 6 0.000000 0.000000 0.000000 0.000000 0.000000 0.142097
#
#
# Mechanical properties :
#
#
# Convention : Reuss Voigt Hill
#
# Bulk Modulus (GPa) = 31.03242 51.48245 41.25744
# Shear Modulus (GPa) = 23.35747 19.00571 21.18159
#
# Velocity S-wave (km/s) = 3.44603 3.10848 3.28160
# Velocity P-wave (km/s) = 5.62234 6.24962 5.94426
#
# Compressibility (1/GPa) = 0.03222436
#
# Stress axis : x y z
#
# Youngs Moduli (GPa) = 55.45038 146.12049 63.71433
#
# Poissons Ratio (x) = 0.17932 -0.14247
# Poissons Ratio (y) = 0.06805 0.33024
# Poissons Ratio (z) = -0.12399 0.75736
#
# Static dielectric constant tensor:
#      x y z
#    x 1.770800 0.000000 0.000000 
#    y 0.000000 1.825780 0.000000 
#    z 0.000000 0.000000 1.663270 
# 
# From -- ./inp_files/43197.got.cif
#   From: 2010.05.17/outbox.cif.g08.bks.cpg/sg64_22_cif.got.tgz:43197.got - 2010.06.03 16:29:19.
