data_PCOD9477346
_publ_section_title
;
Structure prediction by ZEFSAII (Michael W. Deem and Ramdas Pophale) SiO2 
 PCOD9477346
Probable space group: C M C A
;
_chemical_formula_sum "Si O2"
_cell_formula_units_Z 96
_cell_length_a 19.056868
_cell_length_b 19.241578
_cell_length_c 16.096486
_cell_angle_alpha 90.000000
_cell_angle_beta 90.000000
_cell_angle_gamma 90.000000
_cell_volume 5902.327286
_symmetry_space_group_name_H-M "C M C A"
_symmetry_group_IT_number 64
_symmetry_cell_setting 'orthorhombic'
loop_
_space_group_symop_operation_xyz
x,y,z
-x,1/2-y,1/2+z
x,-y,-z
-x,1/2+y,1/2-z
-x,-y,-z
x,1/2+y,1/2-z
-x,y,z
x,1/2-y,1/2+z
1/2+x,1/2+y,z
1/2-x,-y,1/2+z
1/2+x,1/2-y,-z
1/2-x,y,1/2-z
1/2-x,1/2-y,-z
1/2+x,y,1/2-z
1/2-x,1/2+y,z
1/2+x,-y,1/2+z
loop_
_atom_site_type_symbol
_atom_site_label
_atom_site_fract_x
_atom_site_fract_y
_atom_site_fract_z
Si Si1 0.781259 0.672645 0.018206
Si Si2 0.577404 0.209052 0.954662
Si Si3 0.144388 0.082354 0.002809
Si Si4 0.921394 0.188343 0.884616
Si Si5 0.679034 0.209913 0.201555
Si Si6 0.081264 0.659401 0.339085
O O1 0.852710 0.664055 0.965681
O O2 0.721046 0.617603 0.999377
O O3 0.800150 0.672956 0.115495
O O4 0.750000 0.750000 0.000000
O O5 0.500000 0.175723 0.949562
O O6 0.577362 0.257871 0.037231
O O7 0.585376 0.263279 0.879433
O O8 0.108767 0.108978 0.088341
O O9 0.101578 0.116259 0.926249
O O10 0.146484 0.000000 0.000000
O O11 0.865645 0.221699 0.822279
O O12 0.000000 0.185232 0.849757
O O13 0.750000 0.227313 0.250000
O O14 0.630481 0.161574 0.259065
O O15 0.000000 0.645111 0.319953
#
# Coordination Sequence:
#
# PCOD9477346 Si02
#       6
#    16  16  16  16  16  16
#     4  11  17  33  54  75 106 139 186 226 264 320
#     4   8  15  28  49  74 101 130 172 225 263 304
#     4  11  21  34  55  81 107 145 182 223 270 332
#     4   9  18  31  49  76 103 134 175 218 265 320
#     4  11  18  29  54  77 107 135 174 230 279 309
#     4  10  19  31  50  81 110 137 176 221 276 325
#
# _framework density 16.264771
#
# number of rings (size 3 to 8) (size 9 to 14) (size 15 to 20)
#    0.000    2.000    6.667    2.000    0.000    2.000 
#    0.000    0.000    3.667    0.500    0.000    0.000 
#    0.000    0.000    0.000    0.000    0.000    0.000 
#
# Total GULP energy -267501.993738 kJ/mol
# GULP energy per Si atom -5572.958203 kJ/mol
# Density = 1.622775 g / cm^3
# Si number density = 16.264771 Si / 1000 Ang^3
#
#
#
# Elastic Constant Matrix: (Units=GPa)
#
#
# Indices 1 2 3 4 5 6 
#
# 1 130.6680 29.5747 22.0432 0.0000 0.0000 0.0000
# 2 29.5747 62.5288 8.1218 0.0000 0.0000 0.0000
# 3 22.0432 8.1218 47.3848 0.0000 0.0000 0.0000
# 4 0.0000 0.0000 0.0000 8.2196 0.0000 0.0000
# 5 0.0000 0.0000 0.0000 0.0000 17.7310 0.0000
# 6 0.0000 0.0000 0.0000 0.0000 0.0000 12.8921
#
#
#
# Elastic Compliance Matrix: (Units=1/GPa)
#
#
# Indices 1 2 3 4 5 6 
#
# 1 0.009130 -0.003852 -0.003587 0.000000 0.000000 0.000000
# 2 -0.003852 0.017982 -0.001290 0.000000 0.000000 0.000000
# 3 -0.003587 -0.001290 0.022994 0.000000 0.000000 0.000000
# 4 0.000000 0.000000 0.000000 0.121661 0.000000 0.000000
# 5 0.000000 0.000000 0.000000 0.000000 0.056398 0.000000
# 6 0.000000 0.000000 0.000000 0.000000 0.000000 0.077567
#
#
# Mechanical properties :
#
#
# Convention : Reuss Voigt Hill
#
# Bulk Modulus (GPa) = 30.63061 40.00677 35.31869
# Shear Modulus (GPa) = 14.96678 19.82466 17.39572
#
# Velocity S-wave (km/s) = 3.03676 3.49502 3.27392
# Velocity P-wave (km/s) = 5.58295 6.39824 6.00445
#
# Compressibility (1/GPa) = 0.03264708
#
# Stress axis : x y z
#
# Youngs Moduli (GPa) = 109.52884 55.61023 43.49045
#
# Poissons Ratio (x) = 0.21423 0.15600
# Poissons Ratio (y) = 0.42195 0.05611
# Poissons Ratio (z) = 0.39287 0.07174
#
# Static dielectric constant tensor:
#      x y z
#    x 1.598110 0.000000 0.000000 
#    y 0.000000 1.506940 0.000000 
#    z 0.000000 0.000000 1.562980 
# 
# From -- ./inp_files/34410.got.cif
#   From: 2010.05.17/outbox.cif.g08.bks.cpg/sg64_18_cif.got.tgz:34410.got - 2010.06.03 16:29:19.
