data_PCOD9477051
_publ_section_title
;
Structure prediction by ZEFSAII (Michael W. Deem and Ramdas Pophale) SiO2 
 PCOD9477051
Probable space group: C M C A
;
_chemical_formula_sum "Si O2"
_cell_formula_units_Z 116
_cell_length_a 20.631578
_cell_length_b 17.790922
_cell_length_c 16.765385
_cell_angle_alpha 90.000000
_cell_angle_beta 90.000000
_cell_angle_gamma 90.000000
_cell_volume 6153.814953
_symmetry_space_group_name_H-M "C M C A"
_symmetry_group_IT_number 64
_symmetry_cell_setting 'orthorhombic'
loop_
_space_group_symop_operation_xyz
x,y,z
-x,1/2-y,1/2+z
x,-y,-z
-x,1/2+y,1/2-z
-x,-y,-z
x,1/2+y,1/2-z
-x,y,z
x,1/2-y,1/2+z
1/2+x,1/2+y,z
1/2-x,-y,1/2+z
1/2+x,1/2-y,-z
1/2-x,y,1/2-z
1/2-x,1/2-y,-z
1/2+x,y,1/2-z
1/2-x,1/2+y,z
1/2+x,-y,1/2+z
loop_
_atom_site_type_symbol
_atom_site_label
_atom_site_fract_x
_atom_site_fract_y
_atom_site_fract_z
Si Si1 0.117917 0.582138 0.588599
Si Si2 0.075233 0.577407 0.042761
Si Si3 0.307890 0.306857 0.976469
Si Si4 0.701435 0.059138 0.358082
Si Si5 0.844112 0.955478 0.688015
Si Si6 0.925593 0.709325 0.911918
Si Si7 0.924024 0.602324 0.767447
Si Si8 0.500000 0.000000 0.500000
O O1 0.163100 0.645293 0.549672
O O2 0.158459 0.505434 0.602234
O O3 0.094606 0.610732 0.675273
O O4 0.056954 0.557374 0.535165
O O5 0.119140 0.591231 0.120071
O O6 0.000000 0.567679 0.067286
O O7 0.096388 0.500000 0.000000
O O8 0.077570 0.642346 0.977049
O O9 0.286143 0.369540 0.913152
O O10 0.369290 0.265355 0.936811
O O11 0.250000 0.250000 0.000000
O O12 0.771688 0.025525 0.339216
O O13 0.665615 0.081064 0.275249
O O14 0.884248 0.031569 0.699816
O O15 0.913089 0.673034 0.825181
O O16 0.000000 0.739206 0.913399
O O17 0.000000 0.584125 0.773042
#
# Coordination Sequence:
#
# PCOD9477051 Si02
#       8
#    16  16  16  16  16  16  16   4
#     4  11  24  42  72  98 123 167 225 277 334 379
#     4  10  18  34  60  91 120 161 211 258 316 385
#     4  12  26  44  63  94 133 179 218 267 336 406
#     4  10  23  42  61  93 125 162 222 264 324 385
#     4  10  20  36  65  88 126 157 203 274 312 377
#     4  10  23  40  61  91 130 171 215 265 327 398
#     4  10  20  39  65  99 125 161 211 267 332 384
#     4  12  20  44  76 100 124 158 228 304 310 382
#
# _framework density 18.850096000000001
#
# number of rings (size 3 to 8) (size 9 to 14) (size 15 to 20)
#    0.000    1.517    3.448    1.241    2.897    1.103 
#    7.448    0.000    0.000    0.000    0.000    0.000 
#    0.000    0.000    0.000    0.000    0.000    0.000 
#
# Total GULP energy -323162.217185 kJ/mol
# GULP energy per Si atom -5571.762365 kJ/mol
# Density = 1.880719 g / cm^3
# Si number density = 18.850096 Si / 1000 Ang^3
#
#
#
# Elastic Constant Matrix: (Units=GPa)
#
#
# Indices 1 2 3 4 5 6 
#
# 1 103.7968 53.8992 59.5109 0.0000 0.0000 0.0000
# 2 53.8992 66.6030 39.3135 0.0000 0.0000 0.0000
# 3 59.5109 39.3135 102.2976 0.0000 0.0000 0.0000
# 4 0.0000 0.0000 0.0000 -3.6533 0.0000 0.0000
# 5 0.0000 0.0000 0.0000 0.0000 26.2364 0.0000
# 6 0.0000 0.0000 0.0000 0.0000 0.0000 34.4179
#
#
#
# Elastic Compliance Matrix: (Units=1/GPa)
#
#
# Indices 1 2 3 4 5 6 
#
# 1 0.019810 -0.011937 -0.006937 0.000000 0.000000 0.000000
# 2 -0.011937 0.026612 -0.003283 0.000000 0.000000 0.000000
# 3 -0.006937 -0.003283 0.015073 0.000000 0.000000 0.000000
# 4 0.000000 0.000000 0.000000 -0.273727 0.000000 0.000000
# 5 0.000000 0.000000 0.000000 0.000000 0.038115 0.000000
# 6 0.000000 0.000000 0.000000 0.000000 0.000000 0.029055
#
#
# Mechanical properties :
#
#
# Convention : Reuss Voigt Hill
#
# Bulk Modulus (GPa) = 58.20314 64.23828 61.22071
# Shear Modulus (GPa) = -52.61919 19.39846 -16.61036
#
# Velocity S-wave (km/s) = -5.28915 3.21142 -2.97169
# Velocity P-wave (km/s) = 2.52117 6.92123 4.55780
#
# Compressibility (1/GPa) = 0.01718120
#
# Stress axis : x y z
#
# Youngs Moduli (GPa) = 50.47991 37.57681 66.34556
#
# Poissons Ratio (x) = 0.44854 0.46023
# Poissons Ratio (y) = 0.60256 0.21782
# Poissons Ratio (z) = 0.35017 0.12337
#
# Static dielectric constant tensor:
#      x y z
#    x 1.642930 0.000000 0.000000 
#    y 0.000000 1.629330 0.000000 
#    z 0.000000 0.000000 1.694940 
# 
# From -- ./inp_files/33448.got.cif
#   From: 2010.05.17/outbox.cif.g08.bks.cpg/sg64_17_cif.got.tgz:33448.got - 2010.06.03 16:29:19.
