data_PCOD9477603
_publ_section_title
;
Structure prediction by ZEFSAII (Michael W. Deem and Ramdas Pophale) SiO2 
 PCOD9477603
Probable space group: C M C A
;
_chemical_formula_sum "Si O2"
_cell_formula_units_Z 116
_cell_length_a 7.723415
_cell_length_b 26.839110
_cell_length_c 28.936000
_cell_angle_alpha 90.000000
_cell_angle_beta 90.000000
_cell_angle_gamma 90.000000
_cell_volume 5998.131425
_symmetry_space_group_name_H-M "C M C A"
_symmetry_group_IT_number 64
_symmetry_cell_setting 'orthorhombic'
loop_
_space_group_symop_operation_xyz
x,y,z
-x,1/2-y,1/2+z
x,-y,-z
-x,1/2+y,1/2-z
-x,-y,-z
x,1/2+y,1/2-z
-x,y,z
x,1/2-y,1/2+z
1/2+x,1/2+y,z
1/2-x,-y,1/2+z
1/2+x,1/2-y,-z
1/2-x,y,1/2-z
1/2-x,1/2-y,-z
1/2+x,y,1/2-z
1/2-x,1/2+y,z
1/2+x,-y,1/2+z
loop_
_atom_site_type_symbol
_atom_site_label
_atom_site_fract_x
_atom_site_fract_y
_atom_site_fract_z
Si Si1 0.799075 0.048654 0.600494
Si Si2 0.791139 0.149914 0.550585
Si Si3 0.500000 0.000000 0.000000
Si Si4 0.189567 0.952124 0.949943
Si Si5 0.207348 0.586350 0.697833
Si Si6 0.790232 0.652449 0.056321
Si Si7 0.705911 0.751069 0.392985
Si Si8 0.292248 0.298825 0.198721
O O1 0.733558 0.099775 0.577118
O O2 0.788787 0.056412 0.655359
O O3 0.000000 0.040121 0.584532
O O4 0.702459 0.999659 0.583569
O O5 0.735274 0.152674 0.497437
O O6 0.732319 0.199641 0.576491
O O7 0.000000 0.149227 0.552086
O O8 0.345922 0.040062 0.014378
O O9 0.223103 0.899988 0.924421
O O10 0.000000 0.950644 0.971824
O O11 0.250000 0.569556 0.750000
O O12 0.270349 0.643921 0.694059
O O13 0.000000 0.585349 0.692017
O O14 0.725449 0.701526 0.082511
O O15 0.000000 0.652548 0.057293
O O16 0.500000 0.743349 0.388300
O O17 0.776564 0.764722 0.342412
O O18 0.500000 0.301399 0.194594
O O19 0.250000 0.281122 0.250000
#
# Coordination Sequence:
#
# PCOD9477603 Si02
#       8
#    16  16   4  16  16  16  16  16
#     4  11  21  36  58  84 122 156 196 251 303 356
#     4  10  21  33  53  81 114 154 193 236 292 349
#     4  12  22  44  60  86 124 144 202 260 292 344
#     4  12  25  40  63  88 115 162 205 249 304 352
#     4  10  19  33  54  83 117 150 191 241 304 369
#     4  10  21  39  58  78 118 161 199 247 294 349
#     4  10  20  35  56  82 114 155 194 239 295 349
#     4   9  18  32  51  79 112 145 190 240 294 355
#
# _framework density 19.339355000000001
#
# number of rings (size 3 to 8) (size 9 to 14) (size 15 to 20)
#    0.000    1.655    2.759    2.276    1.931    2.759 
#    0.000    0.000    0.000    0.828    0.000    3.862 
#    0.000    0.000    0.000    0.000    0.000    0.000 
#
# Total GULP energy -323620.468893 kJ/mol
# GULP energy per Si atom -5579.663257 kJ/mol
# Density = 1.929534 g / cm^3
# Si number density = 19.339355 Si / 1000 Ang^3
#
#
#
# Elastic Constant Matrix: (Units=GPa)
#
#
# Indices 1 2 3 4 5 6 
#
# 1 76.9842 10.3738 12.9815 0.0000 0.0000 0.0000
# 2 10.3738 143.0307 61.8007 0.0000 0.0000 0.0000
# 3 12.9815 61.8007 110.5566 0.0000 0.0000 0.0000
# 4 0.0000 0.0000 0.0000 20.0271 0.0000 0.0000
# 5 0.0000 0.0000 0.0000 0.0000 6.9436 0.0000
# 6 0.0000 0.0000 0.0000 0.0000 0.0000 13.1700
#
#
#
# Elastic Compliance Matrix: (Units=1/GPa)
#
#
# Indices 1 2 3 4 5 6 
#
# 1 0.013268 -0.000381 -0.001345 0.000000 0.000000 0.000000
# 2 -0.000381 0.009229 -0.005114 0.000000 0.000000 0.000000
# 3 -0.001345 -0.005114 0.012062 0.000000 0.000000 0.000000
# 4 0.000000 0.000000 0.000000 0.049932 0.000000 0.000000
# 5 0.000000 0.000000 0.000000 0.000000 0.144018 0.000000
# 6 0.000000 0.000000 0.000000 0.000000 0.000000 0.075930
#
#
# Mechanical properties :
#
#
# Convention : Reuss Voigt Hill
#
# Bulk Modulus (GPa) = 47.89688 55.65372 51.77530
# Shear Modulus (GPa) = 15.38088 24.38917 19.88502
#
# Velocity S-wave (km/s) = 2.82319 3.55507 3.21006
# Velocity P-wave (km/s) = 5.95378 6.75953 6.36941
#
# Compressibility (1/GPa) = 0.02087819
#
# Stress axis : x y z
#
# Youngs Moduli (GPa) = 75.37036 108.35564 82.90620
#
# Poissons Ratio (x) = 0.04131 0.11149
# Poissons Ratio (y) = 0.02873 0.42399
# Poissons Ratio (z) = 0.10136 0.55415
#
# Static dielectric constant tensor:
#      x y z
#    x 1.696870 0.000000 0.000000 
#    y 0.000000 1.731250 0.000000 
#    z 0.000000 0.000000 1.389400 
# 
# From -- ./inp_files/52282.got.cif
#   From: 2010.05.17/outbox.cif.g08.bks.cpg/sg64_27_cif.got.tgz:52282.got - 2010.06.03 16:29:19.
