data_PCOD9477057
_publ_section_title
;
Structure prediction by ZEFSAII (Michael W. Deem and Ramdas Pophale) SiO2 
 PCOD9477057
Probable space group: C M C A
;
_chemical_formula_sum "Si O2"
_cell_formula_units_Z 116
_cell_length_a 18.574230
_cell_length_b 17.296659
_cell_length_c 17.505539
_cell_angle_alpha 90.000000
_cell_angle_beta 90.000000
_cell_angle_gamma 90.000000
_cell_volume 5624.041670
_symmetry_space_group_name_H-M "C M C A"
_symmetry_group_IT_number 64
_symmetry_cell_setting 'orthorhombic'
loop_
_space_group_symop_operation_xyz
x,y,z
-x,1/2-y,1/2+z
x,-y,-z
-x,1/2+y,1/2-z
-x,-y,-z
x,1/2+y,1/2-z
-x,y,z
x,1/2-y,1/2+z
1/2+x,1/2+y,z
1/2-x,-y,1/2+z
1/2+x,1/2-y,-z
1/2-x,y,1/2-z
1/2-x,1/2-y,-z
1/2+x,y,1/2-z
1/2-x,1/2+y,z
1/2+x,-y,1/2+z
loop_
_atom_site_type_symbol
_atom_site_label
_atom_site_fract_x
_atom_site_fract_y
_atom_site_fract_z
Si Si1 0.645913 0.190086 0.463805
Si Si2 0.136702 0.938865 0.423451
Si Si3 0.082757 0.562030 0.568436
Si Si4 0.276494 0.575891 0.837074
Si Si5 0.694739 0.342723 0.554055
Si Si6 0.000000 0.000000 0.500000
Si Si7 0.686397 0.751536 0.304921
Si Si8 0.415127 0.212514 0.831181
O O1 0.599103 0.142546 0.524394
O O2 0.673347 0.268346 0.503268
O O3 0.719600 0.145600 0.444605
O O4 0.605513 0.216314 0.387246
O O5 0.213167 0.962304 0.386901
O O6 0.157656 0.910521 0.508573
O O7 0.063142 0.984218 0.435034
O O8 0.115422 0.864428 0.371244
O O9 0.089551 0.500000 0.500000
O O10 0.144859 0.549826 0.632403
O O11 0.000000 0.560337 0.597016
O O12 0.250000 0.563806 0.750000
O O13 0.282119 0.670503 0.845691
O O14 0.668596 0.316352 0.636839
O O15 0.750000 0.723962 0.250000
O O16 0.621630 0.777121 0.250890
O O17 0.500000 0.207076 0.824850
#
# Coordination Sequence:
#
# PCOD9477057 Si02
#       8
#    16  16  16  16  16   4  16  16
#     4  10  18  35  62  90 122 156 204 259 312 377
#     4  11  22  40  64  88 126 166 216 260 313 391
#     4  11  24  41  64  93 126 166 217 269 313 373
#     4  11  21  39  66  96 123 164 217 262 321 383
#     4  10  18  34  63  93 119 157 208 257 308 376
#     4  12  28  44  64  92 126 172 220 268 324 392
#     4  11  18  34  60  94 127 155 203 264 311 379
#     4  11  21  35  58  94 128 164 201 264 331 371
#
# _framework density 20.625736
#
# number of rings (size 3 to 8) (size 9 to 14) (size 15 to 20)
#    0.000    1.241    7.586    1.241    0.966    0.552 
#    2.483    0.000    6.069    0.000    0.000    0.000 
#    0.000    0.000    0.000    0.000    0.000    0.000 
#
# Total GULP energy -322963.516896 kJ/mol
# GULP energy per Si atom -5568.336498 kJ/mol
# Density = 2.057879 g / cm^3
# Si number density = 20.625736 Si / 1000 Ang^3
#
#
#
# Elastic Constant Matrix: (Units=GPa)
#
#
# Indices 1 2 3 4 5 6 
#
# 1 187.2435 26.2282 56.4654 0.0000 0.0000 0.0000
# 2 26.2282 13.4208 11.0796 0.0000 0.0000 0.0000
# 3 56.4654 11.0796 91.6291 0.0000 0.0000 0.0000
# 4 0.0000 0.0000 0.0000 28.5793 0.0000 0.0000
# 5 0.0000 0.0000 0.0000 0.0000 39.4346 0.0000
# 6 0.0000 0.0000 0.0000 0.0000 0.0000 9.8627
#
#
#
# Elastic Compliance Matrix: (Units=1/GPa)
#
#
# Indices 1 2 3 4 5 6 
#
# 1 0.008245 -0.013240 -0.003480 0.000000 0.000000 0.000000
# 2 -0.013240 0.104035 -0.004421 0.000000 0.000000 0.000000
# 3 -0.003480 -0.004421 0.013592 0.000000 0.000000 0.000000
# 4 0.000000 0.000000 0.000000 0.034990 0.000000 0.000000
# 5 0.000000 0.000000 0.000000 0.000000 0.025358 0.000000
# 6 0.000000 0.000000 0.000000 0.000000 0.000000 0.101392
#
#
# Mechanical properties :
#
#
# Convention : Reuss Voigt Hill
#
# Bulk Modulus (GPa) = 11.96292 53.31552 32.63922
# Shear Modulus (GPa) = 13.97595 28.80998 21.39297
#
# Velocity S-wave (km/s) = 2.60589 3.74143 3.22405
# Velocity P-wave (km/s) = 3.85575 6.67604 5.45144
#
# Compressibility (1/GPa) = 0.08359161
#
# Stress axis : x y z
#
# Youngs Moduli (GPa) = 121.29280 9.61215 73.57018
#
# Poissons Ratio (x) = 0.12726 0.25600
# Poissons Ratio (y) = 1.60586 0.32525
# Poissons Ratio (z) = 0.42206 0.04249
#
# Static dielectric constant tensor:
#      x y z
#    x 1.695720 0.000000 0.000000 
#    y 0.000000 1.804600 0.000000 
#    z 0.000000 0.000000 1.769500 
# 
# From -- ./inp_files/33471.got.cif
#   From: 2010.05.17/outbox.cif.g08.bks.cpg/sg64_17_cif.got.tgz:33471.got - 2010.06.03 16:29:19.
