data_PCOD9477174
_publ_section_title
;
Structure prediction by ZEFSAII (Michael W. Deem and Ramdas Pophale) SiO2 
 PCOD9477174
Probable space group: C M C A
;
_chemical_formula_sum "Si O2"
_cell_formula_units_Z 112
_cell_length_a 28.800588
_cell_length_b 37.958660
_cell_length_c 5.244669
_cell_angle_alpha 90.000000
_cell_angle_beta 90.000000
_cell_angle_gamma 90.000000
_cell_volume 5733.638552
_symmetry_space_group_name_H-M "C M C A"
_symmetry_group_IT_number 64
_symmetry_cell_setting 'orthorhombic'
loop_
_space_group_symop_operation_xyz
x,y,z
-x,1/2-y,1/2+z
x,-y,-z
-x,1/2+y,1/2-z
-x,-y,-z
x,1/2+y,1/2-z
-x,y,z
x,1/2-y,1/2+z
1/2+x,1/2+y,z
1/2-x,-y,1/2+z
1/2+x,1/2-y,-z
1/2-x,y,1/2-z
1/2-x,1/2-y,-z
1/2+x,y,1/2-z
1/2-x,1/2+y,z
1/2+x,-y,1/2+z
loop_
_atom_site_type_symbol
_atom_site_label
_atom_site_fract_x
_atom_site_fract_y
_atom_site_fract_z
Si Si1 0.050883 0.376986 0.509100
Si Si2 0.801597 0.266414 0.994220
Si Si3 0.946885 0.761659 0.743658
Si Si4 0.933197 0.664651 0.984378
Si Si5 0.781916 0.540031 0.499768
Si Si6 0.674944 0.154146 0.011270
Si Si7 0.840073 0.390603 0.478793
O O1 0.052758 0.363709 0.800430
O O2 0.103196 0.392370 0.463538
O O3 0.000000 0.395517 0.477142
O O4 0.049956 0.346160 0.294963
O O5 0.824810 0.249928 0.744542
O O6 0.750000 0.250000 0.000000
O O7 0.798019 0.308753 0.988760
O O8 0.925549 0.736690 0.525562
O O9 0.947937 0.798723 0.602741
O O10 0.000000 0.750692 0.796179
O O11 0.877975 0.666248 0.977033
O O12 0.800817 0.500000 0.500000
O O13 0.750000 0.544013 0.250000
O O14 0.820129 0.570316 0.499241
O O15 0.750000 0.543877 0.750000
O O16 0.681931 0.128454 0.770091
O O17 0.675790 0.132451 0.275507
#
# Coordination Sequence:
#
# PCOD9477174 Si02
#       7
#    16  16  16  16  16  16  16
#     4  10  19  33  55  77 108 145 180 227 279 329
#     4  10  21  38  52  71 102 144 189 236 287 354
#     4  10  19  28  39  59  85 115 162 217 271 328
#     4  10  20  32  49  71  97 136 178 227 279 332
#     4  10  21  40  63  92 125 157 187 225 285 344
#     4  10  21  37  55  77 111 144 192 240 281 331
#     4  10  21  38  57  90 117 146 195 239 281 337
#
# _framework density 19.533843000000001
#
# number of rings (size 3 to 8) (size 9 to 14) (size 15 to 20)
#    0.000    2.000    0.000    3.857    0.000    2.286 
#   15.429    0.000    0.000    0.429    0.000    0.000 
#    0.000   10.286    0.000    0.000    0.000    1.714 
#
# Total GULP energy -312125.311778 kJ/mol
# GULP energy per Si atom -5573.666282 kJ/mol
# Density = 1.948938 g / cm^3
# Si number density = 19.533843 Si / 1000 Ang^3
#
#
#
# Elastic Constant Matrix: (Units=GPa)
#
#
# Indices 1 2 3 4 5 6 
#
# 1 81.6723 62.2968 17.5176 0.0000 0.0000 0.0000
# 2 62.2968 127.6653 24.5468 0.0000 0.0000 0.0000
# 3 17.5176 24.5468 121.4668 0.0000 0.0000 0.0000
# 4 0.0000 0.0000 0.0000 28.2973 0.0000 0.0000
# 5 0.0000 0.0000 0.0000 0.0000 11.0232 0.0000
# 6 0.0000 0.0000 0.0000 0.0000 0.0000 6.8825
#
#
#
# Elastic Compliance Matrix: (Units=1/GPa)
#
#
# Indices 1 2 3 4 5 6 
#
# 1 0.019604 -0.009387 -0.000930 0.000000 0.000000 0.000000
# 2 -0.009387 0.012645 -0.001202 0.000000 0.000000 0.000000
# 3 -0.000930 -0.001202 0.008610 0.000000 0.000000 0.000000
# 4 0.000000 0.000000 0.000000 0.035339 0.000000 0.000000
# 5 0.000000 0.000000 0.000000 0.000000 0.090718 0.000000
# 6 0.000000 0.000000 0.000000 0.000000 0.000000 0.145297
#
#
# Mechanical properties :
#
#
# Convention : Reuss Voigt Hill
#
# Bulk Modulus (GPa) = 56.11569 59.94741 58.03155
# Shear Modulus (GPa) = 14.65459 24.33679 19.49569
#
# Velocity S-wave (km/s) = 2.74198 3.53353 3.16262
# Velocity P-wave (km/s) = 6.23012 6.88501 6.56574
#
# Compressibility (1/GPa) = 0.01782033
#
# Stress axis : x y z
#
# Youngs Moduli (GPa) = 51.01051 79.08468 116.14860
#
# Poissons Ratio (x) = 0.74238 0.10804
# Poissons Ratio (y) = 0.47885 0.13956
# Poissons Ratio (z) = 0.04745 0.09502
#
# Static dielectric constant tensor:
#      x y z
#    x 1.763250 0.000000 0.000000 
#    y 0.000000 1.666220 0.000000 
#    z 0.000000 0.000000 1.821190 
# 
# From -- ./inp_files/3481.got.cif
#   From: 2010.05.17/outbox.cif.g08.bks.cpg/sg64_2_cif.got.tgz:3481.got - 2010.06.03 16:29:19.
