data_PCOD9477244
_publ_section_title
;
Structure prediction by ZEFSAII (Michael W. Deem and Ramdas Pophale) SiO2 
 PCOD9477244
Probable space group: C M C A
;
_chemical_formula_sum "Si O2"
_cell_formula_units_Z 96
_cell_length_a 8.971999
_cell_length_b 30.772354
_cell_length_c 20.991410
_cell_angle_alpha 90.000000
_cell_angle_beta 90.000000
_cell_angle_gamma 90.000000
_cell_volume 5795.508507
_symmetry_space_group_name_H-M "C M C A"
_symmetry_group_IT_number 64
_symmetry_cell_setting 'orthorhombic'
loop_
_space_group_symop_operation_xyz
x,y,z
-x,1/2-y,1/2+z
x,-y,-z
-x,1/2+y,1/2-z
-x,-y,-z
x,1/2+y,1/2-z
-x,y,z
x,1/2-y,1/2+z
1/2+x,1/2+y,z
1/2-x,-y,1/2+z
1/2+x,1/2-y,-z
1/2-x,y,1/2-z
1/2-x,1/2-y,-z
1/2+x,y,1/2-z
1/2-x,1/2+y,z
1/2+x,-y,1/2+z
loop_
_atom_site_type_symbol
_atom_site_label
_atom_site_fract_x
_atom_site_fract_y
_atom_site_fract_z
Si Si1 0.177108 0.559370 0.685281
Si Si2 0.820960 0.752437 0.314007
Si Si3 0.827600 0.850226 0.342235
Si Si4 0.172088 0.367512 0.008239
Si Si5 0.179648 0.042117 0.958460
Si Si6 0.821074 0.215371 0.048855
O O1 0.250000 0.541371 0.750000
O O2 0.227756 0.609689 0.679700
O O3 0.222646 0.539062 0.616661
O O4 0.000000 0.556423 0.690682
O O5 0.750000 0.733953 0.250000
O O6 0.775378 0.803060 0.320319
O O7 0.779138 0.728657 0.379279
O O8 0.000000 0.751774 0.309386
O O9 0.826589 0.850308 0.418911
O O10 0.000000 0.857389 0.321908
O O11 0.262149 0.332446 0.967710
O O12 0.000000 0.370037 0.987726
O O13 0.245382 0.414963 0.012305
O O14 0.000000 0.047369 0.959986
O O15 0.218844 0.000000 0.000000
O O16 0.000000 0.217460 0.042986
O O17 0.750000 0.250000 0.000000
#
# Coordination Sequence:
#
# PCOD9477244 Si02
#       6
#    16  16  16  16  16  16
#     4  10  19  30  47  73 102 134 165 202 253 310
#     4  10  21  34  47  69 101 137 176 217 259 303
#     4   9  17  31  47  69 102 134 166 206 249 303
#     4  10  19  33  53  79 106 133 171 217 261 307
#     4   9  19  36  56  78 104 135 173 213 259 312
#     4  11  21  35  53  75 104 139 179 217 257 306
#
# _framework density 16.564551999999999
#
# number of rings (size 3 to 8) (size 9 to 14) (size 15 to 20)
#    0.000    2.167    1.667    2.000    0.000    5.000 
#    0.000    0.000    0.000    1.000    0.000    2.333 
#    0.000    0.000    0.000    0.000    0.000    0.000 
#
# Total GULP energy -267751.014130 kJ/mol
# GULP energy per Si atom -5578.146128 kJ/mol
# Density = 1.652685 g / cm^3
# Si number density = 16.564552 Si / 1000 Ang^3
#
#
#
# Elastic Constant Matrix: (Units=GPa)
#
#
# Indices 1 2 3 4 5 6 
#
# 1 47.8941 38.8276 50.5066 0.0000 0.0000 0.0000
# 2 38.8276 92.0779 71.6834 0.0000 0.0000 0.0000
# 3 50.5066 71.6834 142.0706 0.0000 0.0000 0.0000
# 4 0.0000 0.0000 0.0000 18.1116 0.0000 0.0000
# 5 0.0000 0.0000 0.0000 0.0000 28.0487 0.0000
# 6 0.0000 0.0000 0.0000 0.0000 0.0000 20.2452
#
#
#
# Elastic Compliance Matrix: (Units=1/GPa)
#
#
# Indices 1 2 3 4 5 6 
#
# 1 0.037378 -0.008921 -0.008787 0.000000 0.000000 0.000000
# 2 -0.008921 0.020015 -0.006928 0.000000 0.000000 0.000000
# 3 -0.008787 -0.006928 0.013658 0.000000 0.000000 0.000000
# 4 0.000000 0.000000 0.000000 0.055213 0.000000 0.000000
# 5 0.000000 0.000000 0.000000 0.000000 0.035652 0.000000
# 6 0.000000 0.000000 0.000000 0.000000 0.000000 0.049394
#
#
# Mechanical properties :
#
#
# Convention : Reuss Voigt Hill
#
# Bulk Modulus (GPa) = 45.91289 67.11975 56.51632
# Shear Modulus (GPa) = 18.66778 21.34943 20.00861
#
# Velocity S-wave (km/s) = 3.36068 3.59397 3.47928
# Velocity P-wave (km/s) = 6.54497 7.60462 7.09461
#
# Compressibility (1/GPa) = 0.02178037
#
# Stress axis : x y z
#
# Youngs Moduli (GPa) = 26.75402 49.96181 73.21807
#
# Poissons Ratio (x) = 0.44571 0.64335
# Poissons Ratio (y) = 0.23867 0.50722
# Poissons Ratio (z) = 0.23508 0.34611
#
# Static dielectric constant tensor:
#      x y z
#    x 1.562870 0.000000 0.000000 
#    y 0.000000 1.527120 0.000000 
#    z 0.000000 0.000000 1.583120 
# 
# From -- ./inp_files/37116.got.cif
#   From: 2010.05.17/outbox.cif.g08.bks.cpg/sg64_19_cif.got.tgz:37116.got - 2010.06.03 16:29:19.
