data_PCOD9477532
_publ_section_title
;
Structure prediction by ZEFSAII (Michael W. Deem and Ramdas Pophale) SiO2 
 PCOD9477532
Probable space group: C M C A
;
_chemical_formula_sum "Si O2"
_cell_formula_units_Z 88
_cell_length_a 21.566129
_cell_length_b 20.667563
_cell_length_c 7.918675
_cell_angle_alpha 90.000000
_cell_angle_beta 90.000000
_cell_angle_gamma 90.000000
_cell_volume 3529.506514
_symmetry_space_group_name_H-M "C M C A"
_symmetry_group_IT_number 64
_symmetry_cell_setting 'orthorhombic'
loop_
_space_group_symop_operation_xyz
x,y,z
-x,1/2-y,1/2+z
x,-y,-z
-x,1/2+y,1/2-z
-x,-y,-z
x,1/2+y,1/2-z
-x,y,z
x,1/2-y,1/2+z
1/2+x,1/2+y,z
1/2-x,-y,1/2+z
1/2+x,1/2-y,-z
1/2-x,y,1/2-z
1/2-x,1/2-y,-z
1/2+x,y,1/2-z
1/2-x,1/2+y,z
1/2+x,-y,1/2+z
loop_
_atom_site_type_symbol
_atom_site_label
_atom_site_fract_x
_atom_site_fract_y
_atom_site_fract_z
Si Si1 0.132940 0.222449 0.513789
Si Si2 0.315196 0.665439 0.841349
Si Si3 0.636229 0.038623 0.744637
Si Si4 0.500000 0.282976 0.016292
Si Si5 0.500000 0.108517 0.253248
Si Si6 0.500000 0.575837 0.868132
Si Si7 0.635537 0.091282 0.120328
O O1 0.174369 0.286482 0.495278
O O2 0.137311 0.192825 0.700161
O O3 0.156289 0.165690 0.387603
O O4 0.062614 0.242526 0.476688
O O5 0.250000 0.670875 0.750000
O O6 0.329974 0.590548 0.874064
O O7 0.563182 0.048392 0.709102
O O8 0.655858 0.963650 0.746824
O O9 0.648920 0.063786 0.934333
O O10 0.500000 0.344962 0.143083
O O11 0.500000 0.319740 0.833992
O O12 0.561452 0.095343 0.148563
O O13 0.500000 0.067497 0.428189
#
# Coordination Sequence:
#
# PCOD9477532 Si02
#       7
#    16  16  16   8   8   8  16
#     4  11  22  39  63  90 122 158 201 253 301 365
#     4  11  23  41  63  86 117 159 204 252 302 360
#     4  10  21  39  58  83 117 161 197 246 301 364
#     4  10  21  35  58  90 127 152 195 239 310 362
#     4  10  19  33  50  87 121 153 189 238 300 366
#     4  10  20  34  57  84 124 152 195 236 307 363
#     4  10  21  35  57  84 118 155 202 240 297 366
#
# _framework density 24.932663999999999
#
# number of rings (size 3 to 8) (size 9 to 14) (size 15 to 20)
#    0.545    1.091    1.818    3.273    0.000    5.818 
#    0.000    0.909    0.000   15.273    0.000    0.000 
#    0.000    0.000    0.000    0.000    0.000    0.000 
#
# Total GULP energy -245973.288490 kJ/mol
# GULP energy per Si atom -5590.302011 kJ/mol
# Density = 2.487592 g / cm^3
# Si number density = 24.932664 Si / 1000 Ang^3
#
#
#
# Elastic Constant Matrix: (Units=GPa)
#
#
# Indices 1 2 3 4 5 6 
#
# 1 53.3742 3.5661 -0.8436 0.0000 0.0000 0.0000
# 2 3.5661 149.1515 35.6147 0.0000 0.0000 0.0000
# 3 -0.8436 35.6147 64.0786 0.0000 0.0000 0.0000
# 4 0.0000 0.0000 0.0000 29.1657 0.0000 0.0000
# 5 0.0000 0.0000 0.0000 0.0000 -17.9014 0.0000
# 6 0.0000 0.0000 0.0000 0.0000 0.0000 -28.6381
#
#
#
# Elastic Compliance Matrix: (Units=1/GPa)
#
#
# Indices 1 2 3 4 5 6 
#
# 1 0.018784 -0.000586 0.000573 0.000000 0.000000 0.000000
# 2 -0.000586 0.007749 -0.004314 0.000000 0.000000 0.000000
# 3 0.000573 -0.004314 0.018011 0.000000 0.000000 0.000000
# 4 0.000000 0.000000 0.000000 0.034287 0.000000 0.000000
# 5 0.000000 0.000000 0.000000 0.000000 -0.055861 0.000000
# 6 0.000000 0.000000 0.000000 0.000000 0.000000 -0.034918
#
#
# Mechanical properties :
#
#
# Convention : Reuss Voigt Hill
#
# Bulk Modulus (GPa) = 27.86361 38.14207 33.00284
# Shear Modulus (GPa) = 576.77948 11.74305 294.26127
#
# Velocity S-wave (km/s) = 15.22620 2.17259 10.87560
# Velocity P-wave (km/s) = 17.89737 4.65024 13.07556
#
# Compressibility (1/GPa) = 0.03588911
#
# Stress axis : x y z
#
# Youngs Moduli (GPa) = 53.23722 129.05188 55.52057
#
# Poissons Ratio (x) = 0.07561 -0.03181
# Poissons Ratio (y) = 0.03119 0.23954
# Poissons Ratio (z) = -0.03050 0.55679
#
# Static dielectric constant tensor:
#      x y z
#    x 1.898220 0.000000 0.000000 
#    y 0.000000 2.112460 0.000000 
#    z 0.000000 0.000000 1.978940 
# 
# From -- ./inp_files/17188.got.cif
#   From: 2010.05.17/outbox.cif.g08.bks.cpg/sg64_9_cif.got.tgz:17188.got - 2010.06.03 16:29:19.
