data_PCOD9477525
_publ_section_title
;
Structure prediction by ZEFSAII (Michael W. Deem and Ramdas Pophale) SiO2 
 PCOD9477525
Probable space group: C M C A
;
_chemical_formula_sum "Si O2"
_cell_formula_units_Z 80
_cell_length_a 31.249552
_cell_length_b 34.639282
_cell_length_c 5.041910
_cell_angle_alpha 90.000000
_cell_angle_beta 90.000000
_cell_angle_gamma 90.000000
_cell_volume 5457.676205
_symmetry_space_group_name_H-M "C M C A"
_symmetry_group_IT_number 64
_symmetry_cell_setting 'orthorhombic'
loop_
_space_group_symop_operation_xyz
x,y,z
-x,1/2-y,1/2+z
x,-y,-z
-x,1/2+y,1/2-z
-x,-y,-z
x,1/2+y,1/2-z
-x,y,z
x,1/2-y,1/2+z
1/2+x,1/2+y,z
1/2-x,-y,1/2+z
1/2+x,1/2-y,-z
1/2-x,y,1/2-z
1/2-x,1/2-y,-z
1/2+x,y,1/2-z
1/2-x,1/2+y,z
1/2+x,-y,1/2+z
loop_
_atom_site_type_symbol
_atom_site_label
_atom_site_fract_x
_atom_site_fract_y
_atom_site_fract_z
Si Si1 0.250000 0.722297 0.750000
Si Si2 0.000000 0.775173 0.224822
Si Si3 0.670617 0.835159 0.266666
Si Si4 0.905934 0.277916 0.376253
Si Si5 0.218646 0.541354 0.004379
Si Si6 0.801823 0.378927 0.766003
O O1 0.250000 0.750000 0.500000
O O2 0.290743 0.695137 0.787464
O O3 0.954495 0.793686 0.155503
O O4 0.000000 0.762646 0.532018
O O5 0.627864 0.811776 0.332393
O O6 0.680013 0.869710 0.475103
O O7 0.674776 0.850270 0.967805
O O8 0.900596 0.255561 0.653739
O O9 0.250000 0.549225 0.750000
O O10 0.194592 0.500000 0.000000
O O11 0.250000 0.534616 0.250000
O O12 0.193067 0.578969 0.099367
O O13 0.750000 0.372501 0.750000
#
# Coordination Sequence:
#
# PCOD9477525 Si02
#       6
#     8   8  16  16  16  16
#     4  12  22  32  40  54  78 116 154 180 202 236
#     4   8  16  30  50  64  78 100 135 184 233 268
#     4  12  21  31  44  61  85 117 146 182 216 251
#     4  10  19  33  47  64  82 108 146 186 224 263
#     4   9  17  29  46  64  81 108 147 183 212 251
#     4  11  19  32  43  61  87 117 145 175 213 256
#
# _framework density 14.658253
#
# number of rings (size 3 to 8) (size 9 to 14) (size 15 to 20)
#    0.000    1.600    2.000    6.000    0.000    0.000 
#    0.000    0.000    0.000    0.000    0.000    0.000 
#    0.000    0.000    0.000    5.400    0.000    0.200 
#
# Total GULP energy -222726.472278 kJ/mol
# GULP energy per Si atom -5568.161807 kJ/mol
# Density = 1.462489 g / cm^3
# Si number density = 14.658253 Si / 1000 Ang^3
#
#
#
# Elastic Constant Matrix: (Units=GPa)
#
#
# Indices 1 2 3 4 5 6 
#
# 1 83.5621 24.0131 -3.7827 0.0000 0.0000 0.0000
# 2 24.0131 63.1650 3.9586 0.0000 0.0000 0.0000
# 3 -3.7827 3.9586 80.1352 0.0000 0.0000 0.0000
# 4 0.0000 0.0000 0.0000 23.6998 0.0000 0.0000
# 5 0.0000 0.0000 0.0000 0.0000 12.8561 0.0000
# 6 0.0000 0.0000 0.0000 0.0000 0.0000 209.8657
#
#
#
# Elastic Compliance Matrix: (Units=1/GPa)
#
#
# Indices 1 2 3 4 5 6 
#
# 1 0.013498 -0.005188 0.000893 0.000000 0.000000 0.000000
# 2 -0.005188 0.017874 -0.001128 0.000000 0.000000 0.000000
# 3 0.000893 -0.001128 0.012577 0.000000 0.000000 0.000000
# 4 0.000000 0.000000 0.000000 0.042194 0.000000 0.000000
# 5 0.000000 0.000000 0.000000 0.000000 0.077784 0.000000
# 6 0.000000 0.000000 0.000000 0.000000 0.000000 0.004765
#
#
# Mechanical properties :
#
#
# Convention : Reuss Voigt Hill
#
# Bulk Modulus (GPa) = 30.20647 30.58227 30.39437
# Shear Modulus (GPa) = 26.23679 62.79588 44.51633
#
# Velocity S-wave (km/s) = 4.23531 6.55232 5.51683
# Velocity P-wave (km/s) = 6.67600 8.84040 7.83332
#
# Compressibility (1/GPa) = 0.03310549
#
# Stress axis : x y z
#
# Youngs Moduli (GPa) = 74.08310 55.94603 79.51152
#
# Poissons Ratio (x) = 0.29023 -0.07104
# Poissons Ratio (y) = 0.38431 0.08968
# Poissons Ratio (z) = -0.06619 0.06310
#
# Static dielectric constant tensor:
#      x y z
#    x 1.477220 0.000000 0.000000 
#    y 0.000000 1.523220 0.000000 
#    z 0.000000 0.000000 1.502310 
# 
# From -- ./inp_files/2970.got.cif
#   From: 2010.05.17/outbox.cif.g08.bks.cpg/sg64_2_cif.got.tgz:2970.got - 2010.06.03 16:29:19.
