data_PCOD9477385
_publ_section_title
;
Structure prediction by ZEFSAII (Michael W. Deem and Ramdas Pophale) SiO2 
 PCOD9477385
Probable space group: C M C A
;
_chemical_formula_sum "Si O2"
_cell_formula_units_Z 128
_cell_length_a 18.167451
_cell_length_b 26.688603
_cell_length_c 17.178842
_cell_angle_alpha 90.000000
_cell_angle_beta 90.000000
_cell_angle_gamma 90.000000
_cell_volume 8329.400111
_symmetry_space_group_name_H-M "C M C A"
_symmetry_group_IT_number 64
_symmetry_cell_setting 'orthorhombic'
loop_
_space_group_symop_operation_xyz
x,y,z
-x,1/2-y,1/2+z
x,-y,-z
-x,1/2+y,1/2-z
-x,-y,-z
x,1/2+y,1/2-z
-x,y,z
x,1/2-y,1/2+z
1/2+x,1/2+y,z
1/2-x,-y,1/2+z
1/2+x,1/2-y,-z
1/2-x,y,1/2-z
1/2-x,1/2-y,-z
1/2+x,y,1/2-z
1/2-x,1/2+y,z
1/2+x,-y,1/2+z
loop_
_atom_site_type_symbol
_atom_site_label
_atom_site_fract_x
_atom_site_fract_y
_atom_site_fract_z
Si Si1 0.917365 0.196581 0.155374
Si Si2 0.654173 0.120913 0.459069
Si Si3 0.826143 0.265333 0.789687
Si Si4 0.584686 0.522845 0.087314
Si Si5 0.414372 0.308257 0.415898
Si Si6 0.411479 0.585312 0.877527
Si Si7 0.286702 0.199506 0.037520
Si Si8 0.088203 0.333527 0.252288
O O1 0.899922 0.157164 0.088599
O O2 0.862852 0.195955 0.228745
O O3 0.910508 0.250950 0.114982
O O4 0.000000 0.190957 0.184518
O O5 0.643241 0.067766 0.414479
O O6 0.627489 0.108205 0.546294
O O7 0.729494 0.152947 0.461289
O O8 0.750000 0.249489 0.750000
O O9 0.810519 0.286730 0.874767
O O10 0.877186 0.216271 0.789663
O O11 0.500000 0.539408 0.105318
O O12 0.605134 0.473337 0.135572
O O13 0.581854 0.500000 0.000000
O O14 0.500000 0.318729 0.435658
O O15 0.357629 0.313864 0.485696
O O16 0.391038 0.338393 0.338366
O O17 0.500000 0.588178 0.890846
O O18 0.392223 0.619036 0.803964
O O19 0.250000 0.250000 0.000000
O O20 0.000000 0.327161 0.252823
#
# Coordination Sequence:
#
# PCOD9477385 Si02
#       8
#    16  16  16  16  16  16  16  16
#     4  10  19  32  48  68  96 133 170 202 242 289
#     4  11  18  29  47  73 102 133 161 200 248 302
#     4  11  20  33  44  66 100 134 167 201 242 289
#     4   8  15  28  46  73 103 124 156 206 255 302
#     4   9  19  33  46  67 102 134 170 210 239 288
#     4   9  17  29  49  77 102 128 162 203 257 311
#     4  12  21  32  47  73  99 135 174 202 245 295
#     4   9  18  32  49  69  97 134 167 205 251 290
#
# _framework density 15.367253
#
# number of rings (size 3 to 8) (size 9 to 14) (size 15 to 20)
#    0.000    2.125    2.500    4.500    0.000    1.000 
#    0.000    0.000    0.000    0.000   22.750    0.000 
#    0.000    4.500    0.000    0.500    0.000    0.000 
#
# Total GULP energy -356366.777329 kJ/mol
# GULP energy per Si atom -5568.230896 kJ/mol
# Density = 1.533228 g / cm^3
# Si number density = 15.367253 Si / 1000 Ang^3
#
#
#
# Elastic Constant Matrix: (Units=GPa)
#
#
# Indices 1 2 3 4 5 6 
#
# 1 56.2621 33.2243 36.1172 0.0000 0.0000 0.0000
# 2 33.2243 82.0582 40.0768 0.0000 0.0000 0.0000
# 3 36.1172 40.0768 80.9493 0.0000 0.0000 0.0000
# 4 0.0000 0.0000 0.0000 19.0247 0.0000 0.0000
# 5 0.0000 0.0000 0.0000 0.0000 27.4290 0.0000
# 6 0.0000 0.0000 0.0000 0.0000 0.0000 22.8883
#
#
#
# Elastic Compliance Matrix: (Units=1/GPa)
#
#
# Indices 1 2 3 4 5 6 
#
# 1 0.027500 -0.006782 -0.008912 0.000000 0.000000 0.000000
# 2 -0.006782 0.017745 -0.005760 0.000000 0.000000 0.000000
# 3 -0.008912 -0.005760 0.019181 0.000000 0.000000 0.000000
# 4 0.000000 0.000000 0.000000 0.052563 0.000000 0.000000
# 5 0.000000 0.000000 0.000000 0.000000 0.036458 0.000000
# 6 0.000000 0.000000 0.000000 0.000000 0.000000 0.043691
#
#
# Mechanical properties :
#
#
# Convention : Reuss Voigt Hill
#
# Bulk Modulus (GPa) = 46.46954 48.67848 47.57401
# Shear Modulus (GPa) = 20.22508 21.19181 20.70845
#
# Velocity S-wave (km/s) = 3.63177 3.71755 3.67491
# Velocity P-wave (km/s) = 6.92035 7.08325 7.00227
#
# Compressibility (1/GPa) = 0.02151947
#
# Stress axis : x y z
#
# Youngs Moduli (GPa) = 36.36392 56.35308 52.13430
#
# Poissons Ratio (x) = 0.38217 0.46462
# Poissons Ratio (y) = 0.24661 0.30027
# Poissons Ratio (z) = 0.32408 0.32457
#
# Static dielectric constant tensor:
#      x y z
#    x 1.532830 0.000000 0.000000 
#    y 0.000000 1.531350 0.000000 
#    z 0.000000 0.000000 1.517250 
# 
# From -- ./inp_files/33768.got.cif
#   From: 2010.05.17/outbox.cif.g08.bks.cpg/sg64_17_cif.got.tgz:33768.got - 2010.06.03 16:29:19.
