data_PCOD9477012
_publ_section_title
;
Structure prediction by ZEFSAII (Michael W. Deem and Ramdas Pophale) SiO2 
 PCOD9477012
Probable space group: C M C A
;
_chemical_formula_sum "Si O2"
_cell_formula_units_Z 128
_cell_length_a 18.853729
_cell_length_b 24.484901
_cell_length_c 16.272633
_cell_angle_alpha 90.000000
_cell_angle_beta 90.000000
_cell_angle_gamma 90.000000
_cell_volume 7511.963041
_symmetry_space_group_name_H-M "C M C A"
_symmetry_group_IT_number 64
_symmetry_cell_setting 'orthorhombic'
loop_
_space_group_symop_operation_xyz
x,y,z
-x,1/2-y,1/2+z
x,-y,-z
-x,1/2+y,1/2-z
-x,-y,-z
x,1/2+y,1/2-z
-x,y,z
x,1/2-y,1/2+z
1/2+x,1/2+y,z
1/2-x,-y,1/2+z
1/2+x,1/2-y,-z
1/2-x,y,1/2-z
1/2-x,1/2-y,-z
1/2+x,y,1/2-z
1/2-x,1/2+y,z
1/2+x,-y,1/2+z
loop_
_atom_site_type_symbol
_atom_site_label
_atom_site_fract_x
_atom_site_fract_y
_atom_site_fract_z
Si Si1 0.819749 0.321358 0.025134
Si Si2 0.718776 0.437700 0.498292
Si Si3 0.420850 0.784925 0.168150
Si Si4 0.416585 0.666019 0.138337
Si Si5 0.153264 0.707710 0.531523
Si Si6 0.802748 0.948563 0.174599
Si Si7 0.920479 0.140771 0.827514
Si Si8 0.300959 0.424636 0.827637
O O1 0.859040 0.304842 0.108546
O O2 0.734941 0.312253 0.030040
O O3 0.832244 0.385107 0.007605
O O4 0.846155 0.273625 0.964139
O O5 0.689224 0.500000 0.500000
O O6 0.766315 0.438249 0.414685
O O7 0.761693 0.426164 0.583107
O O8 0.500000 0.786544 0.128172
O O9 0.409865 0.721513 0.191942
O O10 0.421895 0.825159 0.244101
O O11 0.500000 0.651372 0.133192
O O12 0.366411 0.617057 0.167681
O O13 0.386090 0.686667 0.050553
O O14 0.113587 0.680322 0.605892
O O15 0.750000 0.934774 0.250000
O O16 0.871306 0.911500 0.180588
O O17 0.822054 0.012182 0.183966
O O18 0.000000 0.125465 0.851472
O O19 0.250000 0.410472 0.750000
#
# Coordination Sequence:
#
# PCOD9477012 Si02
#       8
#    16  16  16  16  16  16  16  16
#     4  10  18  34  54  75 106 140 182 216 264 329
#     4  10  19  34  54  78 110 139 178 228 270 315
#     4   9  21  35  51  77 107 143 176 221 279 325
#     4  10  19  37  55  75 111 145 173 214 283 339
#     4  10  20  31  53  84 106 136 180 223 267 326
#     4  10  20  35  55  79 110 145 185 227 272 317
#     4  11  21  34  52  80 112 138 177 225 276 331
#     4  10  21  35  53  81 110 144 186 226 267 322
#
# _framework density 17.039487999999999
#
# number of rings (size 3 to 8) (size 9 to 14) (size 15 to 20)
#    0.000    2.000    2.500    1.125    0.000    2.000 
#    0.000    0.000    0.000    4.875    0.000    1.750 
#    0.000    0.000    0.000    0.000    0.000    0.000 
#
# Total GULP energy -356463.595496 kJ/mol
# GULP energy per Si atom -5569.743680 kJ/mol
# Density = 1.700071 g / cm^3
# Si number density = 17.039488 Si / 1000 Ang^3
#
#
#
# Elastic Constant Matrix: (Units=GPa)
#
#
# Indices 1 2 3 4 5 6 
#
# 1 99.6707 74.3973 44.5177 0.0000 0.0000 0.0000
# 2 74.3973 144.6668 31.1961 0.0000 0.0000 0.0000
# 3 44.5177 31.1961 66.3592 0.0000 0.0000 0.0000
# 4 0.0000 0.0000 0.0000 19.5488 0.0000 0.0000
# 5 0.0000 0.0000 0.0000 0.0000 17.6481 0.0000
# 6 0.0000 0.0000 0.0000 0.0000 0.0000 17.6378
#
#
#
# Elastic Compliance Matrix: (Units=1/GPa)
#
#
# Indices 1 2 3 4 5 6 
#
# 1 0.020914 -0.008602 -0.009987 0.000000 0.000000 0.000000
# 2 -0.008602 0.011230 0.000491 0.000000 0.000000 0.000000
# 3 -0.009987 0.000491 0.021538 0.000000 0.000000 0.000000
# 4 0.000000 0.000000 0.000000 0.051154 0.000000 0.000000
# 5 0.000000 0.000000 0.000000 0.000000 0.056663 0.000000
# 6 0.000000 0.000000 0.000000 0.000000 0.000000 0.056696
#
#
# Mechanical properties :
#
#
# Convention : Reuss Voigt Hill
#
# Bulk Modulus (GPa) = 57.18218 67.87989 62.53104
# Shear Modulus (GPa) = 19.21444 21.67264 20.44354
#
# Velocity S-wave (km/s) = 3.36168 3.57025 3.46753
# Velocity P-wave (km/s) = 6.97849 7.54446 7.26699
#
# Compressibility (1/GPa) = 0.01748796
#
# Stress axis : x y z
#
# Youngs Moduli (GPa) = 47.81380 89.04531 46.42900
#
# Poissons Ratio (x) = 0.76597 0.46368
# Poissons Ratio (y) = 0.41130 -0.02281
# Poissons Ratio (z) = 0.47751 -0.04375
#
# Static dielectric constant tensor:
#      x y z
#    x 1.561160 0.000000 0.000000 
#    y 0.000000 1.600410 0.000000 
#    z 0.000000 0.000000 1.584690 
# 
# From -- ./inp_files/33751.got.cif
#   From: 2010.05.17/outbox.cif.g08.bks.cpg/sg64_17_cif.got.tgz:33751.got - 2010.06.03 16:29:19.
