data_PCOD9477595
_publ_section_title
;
Structure prediction by ZEFSAII (Michael W. Deem and Ramdas Pophale) SiO2 
 PCOD9477595
Probable space group: C M C A
;
_chemical_formula_sum "Si O2"
_cell_formula_units_Z 96
_cell_length_a 7.729856
_cell_length_b 21.201878
_cell_length_c 28.939665
_cell_angle_alpha 90.000000
_cell_angle_beta 90.000000
_cell_angle_gamma 90.000000
_cell_volume 4742.848302
_symmetry_space_group_name_H-M "C M C A"
_symmetry_group_IT_number 64
_symmetry_cell_setting 'orthorhombic'
loop_
_space_group_symop_operation_xyz
x,y,z
-x,1/2-y,1/2+z
x,-y,-z
-x,1/2+y,1/2-z
-x,-y,-z
x,1/2+y,1/2-z
-x,y,z
x,1/2-y,1/2+z
1/2+x,1/2+y,z
1/2-x,-y,1/2+z
1/2+x,1/2-y,-z
1/2-x,y,1/2-z
1/2-x,1/2-y,-z
1/2+x,y,1/2-z
1/2-x,1/2+y,z
1/2+x,-y,1/2+z
loop_
_atom_site_type_symbol
_atom_site_label
_atom_site_fract_x
_atom_site_fract_y
_atom_site_fract_z
Si Si1 0.296155 0.365485 0.100956
Si Si2 0.793079 0.238666 0.446666
Si Si3 0.202829 0.614844 0.392381
Si Si4 0.205768 0.825966 0.301485
Si Si5 0.787299 0.992973 0.053289
Si Si6 0.291795 0.318678 0.801621
O O1 0.500000 0.363989 0.090416
O O2 0.225103 0.299067 0.082007
O O3 0.274152 0.366405 0.155965
O O4 0.227078 0.427152 0.075340
O O5 0.750000 0.250000 0.500000
O O6 0.717650 0.173945 0.427011
O O7 0.000000 0.234383 0.441196
O O8 0.274355 0.552286 0.416371
O O9 0.276437 0.638506 0.343341
O O10 0.000000 0.602059 0.384429
O O11 0.250000 0.848331 0.250000
O O12 0.273723 0.753661 0.305907
O O13 0.000000 0.823908 0.305647
O O14 0.000000 0.993493 0.053693
O O15 0.735126 0.000000 0.000000
O O16 0.500000 0.315683 0.805729
O O17 0.250000 0.341031 0.750000
#
# Coordination Sequence:
#
# PCOD9477595 Si02
#       6
#    16  16  16  16  16  16
#     4  10  20  35  55  81 108 143 185 223 267 321
#     4  11  22  34  53  79 108 139 179 228 273 320
#     4  10  19  35  56  79 107 139 179 224 272 321
#     4  10  19  33  54  81 111 142 177 221 273 324
#     4   9  18  34  56  78 106 146 186 221 263 321
#     4   9  18  31  51  78 106 137 171 215 267 318
#
# _framework density 20.241002000000002
#
# number of rings (size 3 to 8) (size 9 to 14) (size 15 to 20)
#    0.000    2.167    1.667    2.000    0.000    4.667 
#    0.000    1.667    0.000    4.000    0.000    0.000 
#    0.000    0.000    0.000    0.000    0.000    0.000 
#
# Total GULP energy -267998.898980 kJ/mol
# GULP energy per Si atom -5583.310395 kJ/mol
# Density = 2.019493 g / cm^3
# Si number density = 20.241002 Si / 1000 Ang^3
#
#
#
# Elastic Constant Matrix: (Units=GPa)
#
#
# Indices 1 2 3 4 5 6 
#
# 1 28.6527 -0.3251 -14.8644 0.0000 0.0000 0.0000
# 2 -0.3251 74.9388 19.0216 0.0000 0.0000 0.0000
# 3 -14.8644 19.0216 109.4580 0.0000 0.0000 0.0000
# 4 0.0000 0.0000 0.0000 35.3532 0.0000 0.0000
# 5 0.0000 0.0000 0.0000 0.0000 22.1785 0.0000
# 6 0.0000 0.0000 0.0000 0.0000 0.0000 4.7155
#
#
#
# Elastic Compliance Matrix: (Units=1/GPa)
#
#
# Indices 1 2 3 4 5 6 
#
# 1 0.037646 -0.001187 0.005319 0.000000 0.000000 0.000000
# 2 -0.001187 0.013997 -0.002594 0.000000 0.000000 0.000000
# 3 0.005319 -0.002594 0.010309 0.000000 0.000000 0.000000
# 4 0.000000 0.000000 0.000000 0.028286 0.000000 0.000000
# 5 0.000000 0.000000 0.000000 0.000000 0.045089 0.000000
# 6 0.000000 0.000000 0.000000 0.000000 0.000000 0.212065
#
#
# Mechanical properties :
#
#
# Convention : Reuss Voigt Hill
#
# Bulk Modulus (GPa) = 15.37765 24.52372 19.95068
# Shear Modulus (GPa) = 13.66148 26.39727 20.02938
#
# Velocity S-wave (km/s) = 2.60078 3.61522 3.14912
# Velocity P-wave (km/s) = 4.07830 5.43770 4.80630
#
# Compressibility (1/GPa) = 0.06502946
#
# Stress axis : x y z
#
# Youngs Moduli (GPa) = 26.56290 71.44175 97.00338
#
# Poissons Ratio (x) = 0.08478 -0.51593
# Poissons Ratio (y) = 0.03152 0.25159
# Poissons Ratio (z) = -0.14128 0.18529
#
# Static dielectric constant tensor:
#      x y z
#    x 1.775530 0.000000 0.000000 
#    y 0.000000 1.707070 0.000000 
#    z 0.000000 0.000000 1.705420 
# 
# From -- ./inp_files/48040.got.cif
#   From: 2010.05.17/outbox.cif.g08.bks.cpg/sg64_25_cif.got.tgz:48040.got - 2010.06.03 16:29:19.
