data_PCOD9477821
_publ_section_title
;
Structure prediction by ZEFSAII (Michael W. Deem and Ramdas Pophale) SiO2 
 PCOD9477821
Probable space group: C M C A
;
_chemical_formula_sum "Si O2"
_cell_formula_units_Z 104
_cell_length_a 7.768407
_cell_length_b 27.150899
_cell_length_c 21.015464
_cell_angle_alpha 90.000000
_cell_angle_beta 90.000000
_cell_angle_gamma 90.000000
_cell_volume 4432.565566
_symmetry_space_group_name_H-M "C M C A"
_symmetry_group_IT_number 64
_symmetry_cell_setting 'orthorhombic'
loop_
_space_group_symop_operation_xyz
x,y,z
-x,1/2-y,1/2+z
x,-y,-z
-x,1/2+y,1/2-z
-x,-y,-z
x,1/2+y,1/2-z
-x,y,z
x,1/2-y,1/2+z
1/2+x,1/2+y,z
1/2-x,-y,1/2+z
1/2+x,1/2-y,-z
1/2-x,y,1/2-z
1/2-x,1/2-y,-z
1/2+x,y,1/2-z
1/2-x,1/2+y,z
1/2+x,-y,1/2+z
loop_
_atom_site_type_symbol
_atom_site_label
_atom_site_fract_x
_atom_site_fract_y
_atom_site_fract_z
Si Si1 0.796270 0.599328 0.954746
Si Si2 0.693671 0.968348 0.858627
Si Si3 0.247718 0.500000 0.500000
Si Si4 0.205569 0.429762 0.182711
Si Si5 0.704917 0.205748 0.547025
Si Si6 0.707668 0.747039 0.323820
Si Si7 0.293642 0.636293 0.324029
O O1 0.744977 0.599482 0.880298
O O2 0.775716 0.654243 0.979118
O O3 0.000000 0.585749 0.962295
O O4 0.686068 0.555649 0.985533
O O5 0.500000 0.962433 0.832016
O O6 0.771912 0.913796 0.857068
O O7 0.677872 0.988268 0.930263
O O8 0.779614 0.014372 0.822493
O O9 0.250000 0.406813 0.250000
O O10 0.000000 0.434232 0.179587
O O11 0.500000 0.200921 0.550175
O O12 0.750000 0.250000 0.500000
O O13 0.770006 0.218311 0.618666
O O14 0.500000 0.746571 0.326940
O O15 0.750000 0.758905 0.250000
O O16 0.772134 0.691213 0.338901
O O17 0.500000 0.638854 0.334397
O O18 0.250000 0.628818 0.250000
#
# Coordination Sequence:
#
# PCOD9477821 Si02
#       7
#    16  16   8  16  16  16  16
#     4  10  21  38  61  88 116 152 201 249 295 353
#     4   9  16  27  48  77 107 142 190 237 283 341
#     4  10  19  34  59  86 113 154 201 246 293 354
#     4   9  18  32  51  80 112 146 188 235 289 349
#     4  11  25  43  63  91 124 163 207 254 310 370
#     4   9  20  38  60  87 118 155 201 250 305 364
#     4   9  17  30  51  79 108 140 183 235 288 345
#
# _framework density 23.462709
#
# number of rings (size 3 to 8) (size 9 to 14) (size 15 to 20)
#    0.000    2.462    0.000    3.231    2.154    2.462 
#    0.000    3.462    0.000    1.846    0.000    0.000 
#    0.000    0.000    0.000    0.000    0.000    0.000 
#
# Total GULP energy -289634.709275 kJ/mol
# GULP energy per Si atom -5569.898255 kJ/mol
# Density = 2.340931 g / cm^3
# Si number density = 23.462709 Si / 1000 Ang^3
#
#
#
# Elastic Constant Matrix: (Units=GPa)
#
#
# Indices 1 2 3 4 5 6 
#
# 1 50.8121 13.2012 -0.3651 0.0000 0.0000 0.0000
# 2 13.2012 164.7473 33.7331 0.0000 0.0000 0.0000
# 3 -0.3651 33.7331 69.4645 0.0000 0.0000 0.0000
# 4 0.0000 0.0000 0.0000 33.8724 0.0000 0.0000
# 5 0.0000 0.0000 0.0000 0.0000 -6.9119 0.0000
# 6 0.0000 0.0000 0.0000 0.0000 0.0000 -548.7986
#
#
#
# Elastic Compliance Matrix: (Units=1/GPa)
#
#
# Indices 1 2 3 4 5 6 
#
# 1 0.020160 -0.001818 0.000989 0.000000 0.000000 0.000000
# 2 -0.001818 0.006904 -0.003362 0.000000 0.000000 0.000000
# 3 0.000989 -0.003362 0.016034 0.000000 0.000000 0.000000
# 4 0.000000 0.000000 0.000000 0.029523 0.000000 0.000000
# 5 0.000000 0.000000 0.000000 0.000000 -0.144678 0.000000
# 6 0.000000 0.000000 0.000000 0.000000 0.000000 -0.001822
#
#
# Mechanical properties :
#
#
# Convention : Reuss Voigt Hill
#
# Bulk Modulus (GPa) = 28.80617 42.01804 35.41211
# Shear Modulus (GPa) = -92.72020 -88.47064 -90.59542
#
# Velocity S-wave (km/s) = -6.29316 -6.14726 -6.22064
# Velocity P-wave (km/s) = 6.36405 5.69541 6.03899
#
# Compressibility (1/GPa) = 0.03471478
#
# Stress axis : x y z
#
# Youngs Moduli (GPa) = 49.60387 144.84331 62.36820
#
# Poissons Ratio (x) = 0.26330 -0.06166
# Poissons Ratio (y) = 0.09017 0.20970
# Poissons Ratio (z) = -0.04904 0.48700
#
# Static dielectric constant tensor:
#      x y z
#    x 1.926490 0.000000 0.000000 
#    y 0.000000 1.947020 0.000000 
#    z 0.000000 0.000000 1.946130 
# 
# From -- ./inp_files/37257.got.cif
#   From: 2010.05.17/outbox.cif.g08.bks.cpg/sg64_19_cif.got.tgz:37257.got - 2010.06.03 16:29:19.
