data_PCOD9477903
_publ_section_title
;
Structure prediction by ZEFSAII (Michael W. Deem and Ramdas Pophale) SiO2 
 PCOD9477903
Probable space group: C M C A
;
_chemical_formula_sum "Si O2"
_cell_formula_units_Z 72
_cell_length_a 21.168069
_cell_length_b 31.507039
_cell_length_c 5.106051
_cell_angle_alpha 90.000000
_cell_angle_beta 90.000000
_cell_angle_gamma 90.000000
_cell_volume 3405.445868
_symmetry_space_group_name_H-M "C M C A"
_symmetry_group_IT_number 64
_symmetry_cell_setting 'orthorhombic'
loop_
_space_group_symop_operation_xyz
x,y,z
-x,1/2-y,1/2+z
x,-y,-z
-x,1/2+y,1/2-z
-x,-y,-z
x,1/2+y,1/2-z
-x,y,z
x,1/2-y,1/2+z
1/2+x,1/2+y,z
1/2-x,-y,1/2+z
1/2+x,1/2-y,-z
1/2-x,y,1/2-z
1/2-x,1/2-y,-z
1/2+x,y,1/2-z
1/2-x,1/2+y,z
1/2+x,-y,1/2+z
loop_
_atom_site_type_symbol
_atom_site_label
_atom_site_fract_x
_atom_site_fract_y
_atom_site_fract_z
Si Si1 0.363153 0.855696 0.047576
Si Si2 0.000000 0.358987 0.155646
Si Si3 0.750000 0.473305 0.750000
Si Si4 0.500000 0.585340 0.153962
Si Si5 0.361637 0.086164 0.450414
Si Si6 0.821386 0.767975 0.300387
O O1 0.433940 0.837678 0.091194
O O2 0.354780 0.893109 0.262525
O O3 0.318890 0.816105 0.103152
O O4 0.357906 0.875729 0.761704
O O5 0.000000 0.374202 0.455803
O O6 0.000000 0.399809 0.956195
O O7 0.725554 0.500000 0.500000
O O8 0.693907 0.445406 0.873330
O O9 0.568344 0.565595 0.087399
O O10 0.852696 0.738547 0.519293
O O11 0.750000 0.752312 0.250000
#
# Coordination Sequence:
#
# PCOD9477903 Si02
#       6
#    16   8   8   8  16  16
#     4  10  19  35  58  81 105 142 193 221 265 325
#     4   8  16  30  52  80 106 132 176 244 262 292
#     4  12  26  42  56  86 122 140 168 226 282 322
#     4   8  16  34  54  82 106 136 182 224 262 312
#     4  10  21  36  61  82 108 145 185 224 265 322
#     4  10  21  34  48  73 112 146 177 228 275 311
#
# _framework density 21.142607999999999
#
# number of rings (size 3 to 8) (size 9 to 14) (size 15 to 20)
#    0.000    2.222    0.000    2.667    3.111    0.000 
#    0.000    2.222    0.000    0.000    0.000    0.000 
#    0.000    0.000    0.000    0.000    0.000    0.000 
#
# Total GULP energy -200646.184413 kJ/mol
# GULP energy per Si atom -5573.505123 kJ/mol
# Density = 2.109449 g / cm^3
# Si number density = 21.142608 Si / 1000 Ang^3
#
#
#
# Elastic Constant Matrix: (Units=GPa)
#
#
# Indices 1 2 3 4 5 6 
#
# 1 48.6539 11.1369 -16.9165 0.0000 0.0000 0.0000
# 2 11.1369 26.9790 -7.1012 0.0000 0.0000 0.0000
# 3 -16.9165 -7.1012 83.3682 0.0000 0.0000 0.0000
# 4 0.0000 0.0000 0.0000 20.5447 0.0000 0.0000
# 5 0.0000 0.0000 0.0000 0.0000 18.6922 0.0000
# 6 0.0000 0.0000 0.0000 0.0000 0.0000 -25.5630
#
#
#
# Elastic Compliance Matrix: (Units=1/GPa)
#
#
# Indices 1 2 3 4 5 6 
#
# 1 0.024006 -0.008825 0.004119 0.000000 0.000000 0.000000
# 2 -0.008825 0.041160 0.001715 0.000000 0.000000 0.000000
# 3 0.004119 0.001715 0.012977 0.000000 0.000000 0.000000
# 4 0.000000 0.000000 0.000000 0.048674 0.000000 0.000000
# 5 0.000000 0.000000 0.000000 0.000000 0.053498 0.000000
# 6 0.000000 0.000000 0.000000 0.000000 0.000000 -0.039119
#
#
# Mechanical properties :
#
#
# Convention : Reuss Voigt Hill
#
# Bulk Modulus (GPa) = 13.85779 14.80440 14.33109
# Shear Modulus (GPa) = 29.20014 14.19355 21.69685
#
# Velocity S-wave (km/s) = 3.72035 2.59380 3.20693
# Velocity P-wave (km/s) = 5.00234 3.99847 4.52831
#
# Compressibility (1/GPa) = 0.07216159
#
# Stress axis : x y z
#
# Youngs Moduli (GPa) = 41.65678 24.29524 77.05971
#
# Poissons Ratio (x) = 0.21441 -0.31744
# Poissons Ratio (y) = 0.36763 -0.13217
# Poissons Ratio (z) = -0.17160 -0.04167
#
# Static dielectric constant tensor:
#      x y z
#    x 1.832200 0.000000 0.000000 
#    y 0.000000 1.715910 0.000000 
#    z 0.000000 0.000000 1.839790 
# 
# From -- ./inp_files/2295.got.cif
#   From: 2010.05.17/outbox.cif.g08.bks.cpg/sg64_2_cif.got.tgz:2295.got - 2010.06.03 16:29:19.
