data_PCOD9477069
_publ_section_title
;
Structure prediction by ZEFSAII (Michael W. Deem and Ramdas Pophale) SiO2 
 PCOD9477069
Probable space group: C M C A
;
_chemical_formula_sum "Si O2"
_cell_formula_units_Z 80
_cell_length_a 10.154913
_cell_length_b 25.375958
_cell_length_c 17.744067
_cell_angle_alpha 90.000000
_cell_angle_beta 90.000000
_cell_angle_gamma 90.000000
_cell_volume 4572.480084
_symmetry_space_group_name_H-M "C M C A"
_symmetry_group_IT_number 64
_symmetry_cell_setting 'orthorhombic'
loop_
_space_group_symop_operation_xyz
x,y,z
-x,1/2-y,1/2+z
x,-y,-z
-x,1/2+y,1/2-z
-x,-y,-z
x,1/2+y,1/2-z
-x,y,z
x,1/2-y,1/2+z
1/2+x,1/2+y,z
1/2-x,-y,1/2+z
1/2+x,1/2-y,-z
1/2-x,y,1/2-z
1/2-x,1/2-y,-z
1/2+x,y,1/2-z
1/2-x,1/2+y,z
1/2+x,-y,1/2+z
loop_
_atom_site_type_symbol
_atom_site_label
_atom_site_fract_x
_atom_site_fract_y
_atom_site_fract_z
Si Si1 0.338762 0.699378 0.325424
Si Si2 0.755517 0.127497 0.461541
Si Si3 0.500000 0.384872 0.163772
Si Si4 0.741713 0.813653 0.385082
Si Si5 0.000000 0.938773 0.481391
Si Si6 0.500000 0.126454 0.833541
Si Si7 0.000000 0.437310 0.493046
O O1 0.500000 0.698198 0.314594
O O2 0.250000 0.695742 0.250000
O O3 0.290963 0.653754 0.382318
O O4 0.296466 0.754415 0.364706
O O5 0.748836 0.173134 0.525885
O O6 0.624430 0.092641 0.470153
O O7 0.873061 0.088875 0.483794
O O8 0.372970 0.349542 0.148605
O O9 0.500000 0.398869 0.251107
O O10 0.500000 0.427210 0.097186
O O11 0.875482 0.835463 0.348116
O O12 0.000000 0.920556 0.394329
O O13 0.000000 0.000000 0.500000
O O14 0.000000 0.500000 0.500000
#
# Coordination Sequence:
#
# PCOD9477069 Si02
#       7
#    16  16   8  16   8   8   8
#     4  12  25  40  59  89 125 163 199 238 293 360
#     4  10  22  41  61  86 119 157 200 250 297 358
#     4  10  18  35  55  87 119 147 192 255 297 342
#     4  10  21  36  60  84 119 158 195 238 295 357
#     4  10  20  39  63  85 113 157 210 251 301 356
#     4  10  20  33  57  89 115 149 196 253 303 342
#     4  10  22  39  63  87 117 157 200 247 303 360
#
# _framework density 17.495975000000001
#
# number of rings (size 3 to 8) (size 9 to 14) (size 15 to 20)
#    0.000    1.600    2.000    3.000    2.800    0.000 
#    0.000    2.000    0.000    0.000    0.000    0.000 
#    0.000    0.000    0.000    0.000    0.000    0.000 
#
# Total GULP energy -223115.568044 kJ/mol
# GULP energy per Si atom -5577.889201 kJ/mol
# Density = 1.745615 g / cm^3
# Si number density = 17.495975 Si / 1000 Ang^3
#
#
#
# Elastic Constant Matrix: (Units=GPa)
#
#
# Indices 1 2 3 4 5 6 
#
# 1 182.5069 61.9972 65.6504 0.0000 0.0000 0.0000
# 2 61.9972 125.8269 88.1716 0.0000 0.0000 0.0000
# 3 65.6504 88.1716 114.8239 0.0000 0.0000 0.0000
# 4 0.0000 0.0000 0.0000 12.7148 0.0000 0.0000
# 5 0.0000 0.0000 0.0000 0.0000 18.0397 0.0000
# 6 0.0000 0.0000 0.0000 0.0000 0.0000 6.5415
#
#
#
# Elastic Compliance Matrix: (Units=1/GPa)
#
#
# Indices 1 2 3 4 5 6 
#
# 1 0.007010 -0.001397 -0.002935 0.000000 0.000000 0.000000
# 2 -0.001397 0.017484 -0.012627 0.000000 0.000000 0.000000
# 3 -0.002935 -0.012627 0.020083 0.000000 0.000000 0.000000
# 4 0.000000 0.000000 0.000000 0.078649 0.000000 0.000000
# 5 0.000000 0.000000 0.000000 0.000000 0.055433 0.000000
# 6 0.000000 0.000000 0.000000 0.000000 0.000000 0.152869
#
#
# Mechanical properties :
#
#
# Convention : Reuss Voigt Hill
#
# Bulk Modulus (GPa) = 93.81964 94.97734 94.39849
# Shear Modulus (GPa) = 13.55020 21.28177 17.41599
#
# Velocity S-wave (km/s) = 2.78596 3.49145 3.15846
# Velocity P-wave (km/s) = 8.00554 8.40576 8.20809
#
# Compressibility (1/GPa) = 0.01065875
#
# Stress axis : x y z
#
# Youngs Moduli (GPa) = 142.66215 57.19536 49.79363
#
# Poissons Ratio (x) = 0.07991 0.14613
# Poissons Ratio (y) = 0.19933 0.62873
# Poissons Ratio (z) = 0.41869 0.72219
#
# Static dielectric constant tensor:
#      x y z
#    x 1.532270 0.000000 0.000000 
#    y 0.000000 1.573540 0.000000 
#    z 0.000000 0.000000 1.629490 
# 
# From -- ./inp_files/29884.got.cif
#   From: 2010.05.17/outbox.cif.g08.bks.cpg/sg64_15_cif.got.tgz:29884.got - 2010.06.03 16:29:19.
