data_PCOD9477189
_publ_section_title
;
Structure prediction by ZEFSAII (Michael W. Deem and Ramdas Pophale) SiO2 
 PCOD9477189
Probable space group: C M C A
;
_chemical_formula_sum "Si O2"
_cell_formula_units_Z 96
_cell_length_a 26.993485
_cell_length_b 23.444815
_cell_length_c 8.560734
_cell_angle_alpha 90.000000
_cell_angle_beta 90.000000
_cell_angle_gamma 90.000000
_cell_volume 5417.722680
_symmetry_space_group_name_H-M "C M C A"
_symmetry_group_IT_number 64
_symmetry_cell_setting 'orthorhombic'
loop_
_space_group_symop_operation_xyz
x,y,z
-x,1/2-y,1/2+z
x,-y,-z
-x,1/2+y,1/2-z
-x,-y,-z
x,1/2+y,1/2-z
-x,y,z
x,1/2-y,1/2+z
1/2+x,1/2+y,z
1/2-x,-y,1/2+z
1/2+x,1/2-y,-z
1/2-x,y,1/2-z
1/2-x,1/2-y,-z
1/2+x,y,1/2-z
1/2-x,1/2+y,z
1/2+x,-y,1/2+z
loop_
_atom_site_type_symbol
_atom_site_label
_atom_site_fract_x
_atom_site_fract_y
_atom_site_fract_z
Si Si1 0.109812 0.571947 0.707539
Si Si2 0.942942 0.207389 0.267603
Si Si3 0.379401 0.888724 0.648912
Si Si4 0.056352 0.476298 0.835329
Si Si5 0.195510 0.483675 0.681704
Si Si6 0.443603 0.330000 0.372884
O O1 0.114809 0.596183 0.533424
O O2 0.064278 0.527787 0.715018
O O3 0.156870 0.531278 0.747818
O O4 0.096140 0.622452 0.825475
O O5 0.898296 0.175252 0.178007
O O6 0.938787 0.191638 0.449810
O O7 0.938807 0.274770 0.237337
O O8 0.000000 0.191718 0.216441
O O9 0.416956 0.923123 0.760129
O O10 0.327760 0.919908 0.695710
O O11 0.000000 0.461134 0.862767
O O12 0.076658 0.500000 0.000000
O O13 0.197662 0.500000 0.500000
O O14 0.250000 0.487239 0.750000
O O15 0.500000 0.352856 0.354685
#
# Coordination Sequence:
#
# PCOD9477189 Si02
#       6
#    16  16  16  16  16  16
#     4  10  20  33  49  72 100 129 164 205 250 299
#     4  10  20  33  50  74 104 139 175 206 240 287
#     4  10  20  33  49  72 100 129 164 205 250 299
#     4  10  19  29  43  67  98 130 164 200 240 291
#     4   9  20  36  54  76  99 126 162 206 257 308
#     4  10  20  33  50  74 104 139 175 206 240 287
#
# _framework density 17.719622000000001
#
# number of rings (size 3 to 8) (size 9 to 14) (size 15 to 20)
#    0.000    2.167    0.000    4.500    0.000   11.333 
#    0.000    0.000    0.000    1.000    0.000    7.000 
#    0.000    0.000    0.000    0.000    0.000    0.000 
#
# Total GULP energy -267404.996261 kJ/mol
# GULP energy per Si atom -5570.937422 kJ/mol
# Density = 1.767929 g / cm^3
# Si number density = 17.719622 Si / 1000 Ang^3
#
#
#
# Elastic Constant Matrix: (Units=GPa)
#
#
# Indices 1 2 3 4 5 6 
#
# 1 86.0138 34.9054 28.4860 0.0000 0.0000 0.0000
# 2 34.9054 67.8570 7.7804 0.0000 0.0000 0.0000
# 3 28.4860 7.7804 36.4569 0.0000 0.0000 0.0000
# 4 0.0000 0.0000 0.0000 35.0388 0.0000 0.0000
# 5 0.0000 0.0000 0.0000 0.0000 20.4791 0.0000
# 6 0.0000 0.0000 0.0000 0.0000 0.0000 19.4050
#
#
#
# Elastic Compliance Matrix: (Units=1/GPa)
#
#
# Indices 1 2 3 4 5 6 
#
# 1 0.019530 -0.008505 -0.013445 0.000000 0.000000 0.000000
# 2 -0.008505 0.018810 0.002631 0.000000 0.000000 0.000000
# 3 -0.013445 0.002631 0.037374 0.000000 0.000000 0.000000
# 4 0.000000 0.000000 0.000000 0.028540 0.000000 0.000000
# 5 0.000000 0.000000 0.000000 0.000000 0.048830 0.000000
# 6 0.000000 0.000000 0.000000 0.000000 0.000000 0.051533
#
#
# Mechanical properties :
#
#
# Convention : Reuss Voigt Hill
#
# Bulk Modulus (GPa) = 26.97155 36.96348 31.96752
# Shear Modulus (GPa) = 19.56082 22.92831 21.24457
#
# Velocity S-wave (km/s) = 3.32611 3.60105 3.46631
# Velocity P-wave (km/s) = 5.47769 6.18026 5.83955
#
# Compressibility (1/GPa) = 0.03707610
#
# Stress axis : x y z
#
# Youngs Moduli (GPa) = 51.20320 53.16330 26.75688
#
# Poissons Ratio (x) = 0.45213 0.35975
# Poissons Ratio (y) = 0.43546 -0.07039
# Poissons Ratio (z) = 0.68843 -0.13987
#
# Static dielectric constant tensor:
#      x y z
#    x 1.612380 0.000000 0.000000 
#    y 0.000000 1.649650 0.000000 
#    z 0.000000 0.000000 1.640960 
# 
# From -- ./inp_files/9507.got.cif
#   From: 2010.05.17/outbox.cif.g08.bks.cpg/sg64_5_cif.got.tgz:9507.got - 2010.06.03 16:29:19.
