data_PCOD9477319
_publ_section_title
;
Structure prediction by ZEFSAII (Michael W. Deem and Ramdas Pophale) SiO2 
 PCOD9477319
Probable space group: C M C A
;
_chemical_formula_sum "Si O2"
_cell_formula_units_Z 96
_cell_length_a 8.802413
_cell_length_b 30.538492
_cell_length_c 20.918264
_cell_angle_alpha 90.000000
_cell_angle_beta 90.000000
_cell_angle_gamma 90.000000
_cell_volume 5623.089147
_symmetry_space_group_name_H-M "C M C A"
_symmetry_group_IT_number 64
_symmetry_cell_setting 'orthorhombic'
loop_
_space_group_symop_operation_xyz
x,y,z
-x,1/2-y,1/2+z
x,-y,-z
-x,1/2+y,1/2-z
-x,-y,-z
x,1/2+y,1/2-z
-x,y,z
x,1/2-y,1/2+z
1/2+x,1/2+y,z
1/2-x,-y,1/2+z
1/2+x,1/2-y,-z
1/2-x,y,1/2-z
1/2-x,1/2-y,-z
1/2+x,y,1/2-z
1/2-x,1/2+y,z
1/2+x,-y,1/2+z
loop_
_atom_site_type_symbol
_atom_site_label
_atom_site_fract_x
_atom_site_fract_y
_atom_site_fract_z
Si Si1 0.180583 0.217303 0.446817
Si Si2 0.680480 0.752112 0.183942
Si Si3 0.818172 0.061010 0.685092
Si Si4 0.675810 0.655291 0.842554
Si Si5 0.674996 0.634999 0.991936
Si Si6 0.817119 0.457677 0.041158
O O1 0.250000 0.250000 0.500000
O O2 0.248896 0.229377 0.378193
O O3 0.226975 0.168151 0.466108
O O4 0.000000 0.222836 0.446257
O O5 0.500000 0.748229 0.183758
O O6 0.750000 0.734658 0.250000
O O7 0.729364 0.803003 0.179016
O O8 0.750000 0.040906 0.750000
O O9 0.749106 0.109836 0.679475
O O10 0.779110 0.038727 0.616885
O O11 0.000000 0.063207 0.690238
O O12 0.500000 0.658630 0.821334
O O13 0.677161 0.653706 0.919582
O O14 0.500000 0.634497 0.013506
O O15 0.740640 0.586162 0.986225
O O16 0.000000 0.452568 0.037392
O O17 0.773400 0.500000 0.000000
#
# Coordination Sequence:
#
# PCOD9477319 Si02
#       6
#    16  16  16  16  16  16
#     4  12  23  37  57  81 110 146 188 229 272 325
#     4  12  24  37  53  75 108 147 188 232 278 327
#     4  10  19  31  49  74 106 139 173 213 267 328
#     4  10  19  32  50  74 107 142 179 218 266 324
#     4  10  20  34  55  82 110 141 181 227 274 325
#     4   9  19  36  57  80 107 140 180 226 276 329
#
# _framework density 17.072465999999999
#
# number of rings (size 3 to 8) (size 9 to 14) (size 15 to 20)
#    0.000    1.500    1.667    5.000    0.000    2.333 
#    0.000    0.000    0.000    1.000    0.000    4.667 
#    0.000    0.000    0.000    0.000    0.000    0.000 
#
# Total GULP energy -268124.425672 kJ/mol
# GULP energy per Si atom -5585.925535 kJ/mol
# Density = 1.703361 g / cm^3
# Si number density = 17.072466 Si / 1000 Ang^3
#
#
#
# Elastic Constant Matrix: (Units=GPa)
#
#
# Indices 1 2 3 4 5 6 
#
# 1 138.4180 45.8052 71.9106 0.0000 0.0000 0.0000
# 2 45.8052 75.0521 61.8204 0.0000 0.0000 0.0000
# 3 71.9106 61.8204 145.0264 0.0000 0.0000 0.0000
# 4 0.0000 0.0000 0.0000 16.8670 0.0000 0.0000
# 5 0.0000 0.0000 0.0000 0.0000 29.4045 0.0000
# 6 0.0000 0.0000 0.0000 0.0000 0.0000 21.8267
#
#
#
# Elastic Compliance Matrix: (Units=1/GPa)
#
#
# Indices 1 2 3 4 5 6 
#
# 1 0.010199 -0.003173 -0.003705 0.000000 0.000000 0.000000
# 2 -0.003173 0.021521 -0.007600 0.000000 0.000000 0.000000
# 3 -0.003705 -0.007600 0.011972 0.000000 0.000000 0.000000
# 4 0.000000 0.000000 0.000000 0.059287 0.000000 0.000000
# 5 0.000000 0.000000 0.000000 0.000000 0.034008 0.000000
# 6 0.000000 0.000000 0.000000 0.000000 0.000000 0.045815
#
#
# Mechanical properties :
#
#
# Convention : Reuss Voigt Hill
#
# Bulk Modulus (GPa) = 67.86110 79.72987 73.79548
# Shear Modulus (GPa) = 23.07636 25.55033 24.31334
#
# Velocity S-wave (km/s) = 3.68050 3.87276 3.77785
# Velocity P-wave (km/s) = 7.60898 8.17312 7.89609
#
# Compressibility (1/GPa) = 0.01473598
#
# Stress axis : x y z
#
# Youngs Moduli (GPa) = 98.04742 46.46578 83.52820
#
# Poissons Ratio (x) = 0.14745 0.30943
# Poissons Ratio (y) = 0.31113 0.63485
# Poissons Ratio (z) = 0.36322 0.35316
#
# Static dielectric constant tensor:
#      x y z
#    x 1.572460 0.000000 0.000000 
#    y 0.000000 1.549310 0.000000 
#    z 0.000000 0.000000 1.611220 
# 
# From -- ./inp_files/37039.got.cif
#   From: 2010.05.17/outbox.cif.g08.bks.cpg/sg64_19_cif.got.tgz:37039.got - 2010.06.03 16:29:19.
