data_PCOD9477540
_publ_section_title
;
Structure prediction by ZEFSAII (Michael W. Deem and Ramdas Pophale) SiO2 
 PCOD9477540
Probable space group: C M C A
;
_chemical_formula_sum "Si O2"
_cell_formula_units_Z 80
_cell_length_a 15.788926
_cell_length_b 26.805342
_cell_length_c 7.612670
_cell_angle_alpha 90.000000
_cell_angle_beta 90.000000
_cell_angle_gamma 90.000000
_cell_volume 3221.891759
_symmetry_space_group_name_H-M "C M C A"
_symmetry_group_IT_number 64
_symmetry_cell_setting 'orthorhombic'
loop_
_space_group_symop_operation_xyz
x,y,z
-x,1/2-y,1/2+z
x,-y,-z
-x,1/2+y,1/2-z
-x,-y,-z
x,1/2+y,1/2-z
-x,y,z
x,1/2-y,1/2+z
1/2+x,1/2+y,z
1/2-x,-y,1/2+z
1/2+x,1/2-y,-z
1/2-x,y,1/2-z
1/2-x,1/2-y,-z
1/2+x,y,1/2-z
1/2-x,1/2+y,z
1/2+x,-y,1/2+z
loop_
_atom_site_type_symbol
_atom_site_label
_atom_site_fract_x
_atom_site_fract_y
_atom_site_fract_z
Si Si1 0.398012 0.519837 0.300639
Si Si2 0.161735 0.275568 0.039109
Si Si3 0.900680 0.081061 0.820768
Si Si4 0.399840 0.377073 0.581832
Si Si5 0.902847 0.816791 0.106128
O O1 0.388702 0.500000 0.500000
O O2 0.500000 0.523177 0.270583
O O3 0.362787 0.474532 0.181895
O O4 0.366647 0.576687 0.301257
O O5 0.143188 0.322977 0.914295
O O6 0.098713 0.228575 0.027696
O O7 0.250000 0.250000 0.000000
O O8 0.151371 0.297355 0.231654
O O9 0.894854 0.102284 0.620373
O O10 0.870063 0.127677 0.937728
O O11 0.000000 0.073782 0.863602
O O12 0.500000 0.369828 0.619991
O O13 0.000000 0.823323 0.164692
#
# Coordination Sequence:
#
# PCOD9477540 Si02
#       5
#    16  16  16  16  16
#     4   7   9  16  34  62  90 111 141 194 246 277
#     4  11  21  32  46  71 102 134 168 206 252 295
#     4   7  11  20  38  65  91 112 144 197 248 282
#     4   8  13  23  40  63  92 123 157 195 234 283
#     4  10  19  33  51  71  98 132 171 209 248 301
#
# _framework density 24.830133
#
# number of rings (size 3 to 8) (size 9 to 14) (size 15 to 20)
#    0.000    3.400    0.000    6.000    0.000    0.000 
#    0.000    0.000    0.000    0.000    0.000   29.400 
#    0.000    8.000    0.000    0.000    0.000    5.800 
#
# Total GULP energy -222971.499604 kJ/mol
# GULP energy per Si atom -5574.287490 kJ/mol
# Density = 2.477362 g / cm^3
# Si number density = 24.830133 Si / 1000 Ang^3
#
#
#
# Elastic Constant Matrix: (Units=GPa)
#
#
# Indices 1 2 3 4 5 6 
#
# 1 52.7001 35.0307 8.5949 0.0000 0.0000 0.0000
# 2 35.0307 282.2714 68.3411 0.0000 0.0000 0.0000
# 3 8.5949 68.3411 43.7621 0.0000 0.0000 0.0000
# 4 0.0000 0.0000 0.0000 22.4460 0.0000 0.0000
# 5 0.0000 0.0000 0.0000 0.0000 3.5010 0.0000
# 6 0.0000 0.0000 0.0000 0.0000 0.0000 -1.8302
#
#
#
# Elastic Compliance Matrix: (Units=1/GPa)
#
#
# Indices 1 2 3 4 5 6 
#
# 1 0.020682 -0.002546 -0.000086 0.000000 0.000000 0.000000
# 2 -0.002546 0.006010 -0.008885 0.000000 0.000000 0.000000
# 3 -0.000086 -0.008885 0.036743 0.000000 0.000000 0.000000
# 4 0.000000 0.000000 0.000000 0.044551 0.000000 0.000000
# 5 0.000000 0.000000 0.000000 0.000000 0.285630 0.000000
# 6 0.000000 0.000000 0.000000 0.000000 0.000000 -0.546397
#
#
# Mechanical properties :
#
#
# Convention : Reuss Voigt Hill
#
# Bulk Modulus (GPa) = 24.75233 66.96301 45.85767
# Shear Modulus (GPa) = -42.99989 22.60784 -10.19603
#
# Velocity S-wave (km/s) = -4.16596 3.02072 -2.02860
# Velocity P-wave (km/s) = 3.62629 6.26046 3.60856
#
# Compressibility (1/GPa) = 0.04040023
#
# Stress axis : x y z
#
# Youngs Moduli (GPa) = 48.35220 166.39331 27.21571
#
# Poissons Ratio (x) = 0.42360 0.00235
# Poissons Ratio (y) = 0.12309 0.24182
# Poissons Ratio (z) = 0.00417 1.47845
#
# Static dielectric constant tensor:
#      x y z
#    x 2.444320 0.000000 0.000000 
#    y 0.000000 2.106680 0.000000 
#    z 0.000000 0.000000 2.106070 
# 
# From -- ./inp_files/14701.got.cif
#   From: 2010.05.17/outbox.cif.g08.bks.cpg/sg64_8_cif.got.tgz:14701.got - 2010.06.03 16:29:19.
