data_PCOD9477619
_publ_section_title
;
Structure prediction by ZEFSAII (Michael W. Deem and Ramdas Pophale) SiO2 
 PCOD9477619
Probable space group: C M C A
;
_chemical_formula_sum "Si O2"
_cell_formula_units_Z 80
_cell_length_a 16.544107
_cell_length_b 29.496694
_cell_length_c 8.681197
_cell_angle_alpha 90.000000
_cell_angle_beta 90.000000
_cell_angle_gamma 90.000000
_cell_volume 4236.393419
_symmetry_space_group_name_H-M "C M C A"
_symmetry_group_IT_number 64
_symmetry_cell_setting 'orthorhombic'
loop_
_space_group_symop_operation_xyz
x,y,z
-x,1/2-y,1/2+z
x,-y,-z
-x,1/2+y,1/2-z
-x,-y,-z
x,1/2+y,1/2-z
-x,y,z
x,1/2-y,1/2+z
1/2+x,1/2+y,z
1/2-x,-y,1/2+z
1/2+x,1/2-y,-z
1/2-x,y,1/2-z
1/2-x,1/2-y,-z
1/2+x,y,1/2-z
1/2-x,1/2+y,z
1/2+x,-y,1/2+z
loop_
_atom_site_type_symbol
_atom_site_label
_atom_site_fract_x
_atom_site_fract_y
_atom_site_fract_z
Si Si1 0.261379 0.699959 0.932617
Si Si2 0.595468 0.949255 0.063481
Si Si3 0.093089 0.643199 0.442413
Si Si4 0.673109 0.371914 0.638653
Si Si5 0.401774 0.454100 0.083085
O O1 0.250000 0.699803 0.750000
O O2 0.250000 0.750000 0.000000
O O3 0.348431 0.679215 0.977743
O O4 0.198764 0.666642 0.018474
O O5 0.500000 0.936414 0.061592
O O6 0.624662 0.949457 0.240121
O O7 0.644038 0.915307 0.955242
O O8 0.601284 0.000000 0.000000
O O9 0.105590 0.644751 0.258856
O O10 0.117836 0.592210 0.494456
O O11 0.000000 0.649801 0.484670
O O12 0.750000 0.380781 0.750000
O O13 0.500000 0.457458 0.086018
O O14 0.371952 0.500000 0.000000
#
# Coordination Sequence:
#
# PCOD9477619 Si02
#       5
#    16  16  16  16  16
#     4  11  23  43  64  84 115 151 186 233 294 348
#     4  10  19  33  55  83 115 151 192 234 277 329
#     4  10  20  37  61  88 117 150 193 237 280 337
#     4  10  21  37  57  83 114 151 189 231 286 340
#     4   9  17  30  52  83 116 148 183 229 279 325
#
# _framework density 18.883987999999999
#
# number of rings (size 3 to 8) (size 9 to 14) (size 15 to 20)
#    0.000    2.000    0.000    4.800    0.000    3.200 
#    0.000   15.000    0.000    0.000    0.000    0.000 
#    0.000    0.000    0.000    0.000    0.000    0.200 
#
# Total GULP energy -223395.393281 kJ/mol
# GULP energy per Si atom -5584.884832 kJ/mol
# Density = 1.884101 g / cm^3
# Si number density = 18.883988 Si / 1000 Ang^3
#
#
#
# Elastic Constant Matrix: (Units=GPa)
#
#
# Indices 1 2 3 4 5 6 
#
# 1 45.3966 64.2413 36.7419 0.0000 0.0000 0.0000
# 2 64.2413 148.9466 82.2372 0.0000 0.0000 0.0000
# 3 36.7419 82.2372 176.2003 0.0000 0.0000 0.0000
# 4 0.0000 0.0000 0.0000 38.8071 0.0000 0.0000
# 5 0.0000 0.0000 0.0000 0.0000 16.0939 0.0000
# 6 0.0000 0.0000 0.0000 0.0000 0.0000 24.4983
#
#
#
# Elastic Compliance Matrix: (Units=1/GPa)
#
#
# Indices 1 2 3 4 5 6 
#
# 1 0.056572 -0.024096 -0.000550 0.000000 0.000000 0.000000
# 2 -0.024096 0.019308 -0.003987 0.000000 0.000000 0.000000
# 3 -0.000550 -0.003987 0.007651 0.000000 0.000000 0.000000
# 4 0.000000 0.000000 0.000000 0.025768 0.000000 0.000000
# 5 0.000000 0.000000 0.000000 0.000000 0.062135 0.000000
# 6 0.000000 0.000000 0.000000 0.000000 0.000000 0.040819
#
#
# Mechanical properties :
#
#
# Convention : Reuss Voigt Hill
#
# Bulk Modulus (GPa) = 38.07456 81.88713 59.98084
# Shear Modulus (GPa) = 17.96790 28.36807 23.16799
#
# Velocity S-wave (km/s) = 3.08797 3.88006 3.50645
# Velocity P-wave (km/s) = 5.73761 7.97061 6.94445
#
# Compressibility (1/GPa) = 0.02626426
#
# Stress axis : x y z
#
# Youngs Moduli (GPa) = 17.67668 51.79304 130.70349
#
# Poissons Ratio (x) = 1.24799 0.07195
# Poissons Ratio (y) = 0.42593 0.52109
# Poissons Ratio (z) = 0.00973 0.20649
#
# Static dielectric constant tensor:
#      x y z
#    x 1.686340 0.000000 0.000000 
#    y 0.000000 1.553080 0.000000 
#    z 0.000000 0.000000 1.648430 
# 
# From -- ./inp_files/7105.got.cif
#   From: 2010.05.17/outbox.cif.g08.bks.cpg/sg64_4_cif.got.tgz:7105.got - 2010.06.03 16:29:19.
