data_PCOD9477438
_publ_section_title
;
Structure prediction by ZEFSAII (Michael W. Deem and Ramdas Pophale) SiO2 
 PCOD9477438
Probable space group: C M C A
;
_chemical_formula_sum "Si O2"
_cell_formula_units_Z 120
_cell_length_a 17.864882
_cell_length_b 17.000170
_cell_length_c 18.931659
_cell_angle_alpha 90.000000
_cell_angle_beta 90.000000
_cell_angle_gamma 90.000000
_cell_volume 5749.659016
_symmetry_space_group_name_H-M "C M C A"
_symmetry_group_IT_number 64
_symmetry_cell_setting 'orthorhombic'
loop_
_space_group_symop_operation_xyz
x,y,z
-x,1/2-y,1/2+z
x,-y,-z
-x,1/2+y,1/2-z
-x,-y,-z
x,1/2+y,1/2-z
-x,y,z
x,1/2-y,1/2+z
1/2+x,1/2+y,z
1/2-x,-y,1/2+z
1/2+x,1/2-y,-z
1/2-x,y,1/2-z
1/2-x,1/2-y,-z
1/2+x,y,1/2-z
1/2-x,1/2+y,z
1/2+x,-y,1/2+z
loop_
_atom_site_type_symbol
_atom_site_label
_atom_site_fract_x
_atom_site_fract_y
_atom_site_fract_z
Si Si1 0.419418 0.709305 0.390904
Si Si2 0.583580 0.482018 0.808578
Si Si3 0.615838 0.887603 0.429352
Si Si4 0.726824 0.632366 0.626632
Si Si5 0.619500 0.144079 0.413903
Si Si6 0.418226 0.825056 0.053665
Si Si7 0.259571 0.690241 0.330613
Si Si8 0.750000 0.989676 0.250000
O O1 0.500000 0.689106 0.358839
O O2 0.416018 0.803657 0.403398
O O3 0.414424 0.672999 0.469122
O O4 0.346504 0.684541 0.348873
O O5 0.500000 0.496020 0.775898
O O6 0.593679 0.547009 0.872019
O O7 0.581440 0.399287 0.849211
O O8 0.662608 0.480858 0.765116
O O9 0.705250 0.874953 0.427734
O O10 0.599821 0.898888 0.512257
O O11 0.648062 0.628040 0.588823
O O12 0.736054 0.717870 0.663368
O O13 0.736919 0.564350 0.682216
O O14 0.594103 0.233622 0.425401
O O15 0.706853 0.147412 0.388450
O O16 0.500000 0.850622 0.077297
O O17 0.250000 0.662978 0.250000
#
# Coordination Sequence:
#
# PCOD9477438 Si02
#       8
#    16  16  16  16  16  16  16   8
#     4   9  17  31  52  80 108 132 170 218 265 311
#     4  11  23  37  56  77 105 144 180 217 262 311
#     4   9  18  33  54  81 103 135 173 219 267 304
#     4   9  17  33  52  75 105 134 174 215 258 314
#     4  10  20  33  53  76 109 138 175 216 256 314
#     4   9  17  30  52  80 106 134 169 219 268 305
#     4  10  19  32  52  74 107 145 173 206 259 317
#     4  10  22  38  54  76 108 140 178 218 260 316
#
# _framework density 20.870804
#
# number of rings (size 3 to 8) (size 9 to 14) (size 15 to 20)
#    0.000    2.400    0.667    2.000    0.933    5.867 
#    0.000    3.333    0.000    0.000    0.000    0.000 
#    0.000    9.600    0.000    0.000    0.000    0.000 
#
# Total GULP energy -334345.437632 kJ/mol
# GULP energy per Si atom -5572.423961 kJ/mol
# Density = 2.082330 g / cm^3
# Si number density = 20.870804 Si / 1000 Ang^3
#
#
#
# Elastic Constant Matrix: (Units=GPa)
#
#
# Indices 1 2 3 4 5 6 
#
# 1 222.1916 14.8987 47.6836 0.0000 0.0000 0.0000
# 2 14.8987 9.5462 5.0224 0.0000 0.0000 0.0000
# 3 47.6836 5.0224 50.8299 0.0000 0.0000 0.0000
# 4 0.0000 0.0000 0.0000 2.7058 0.0000 0.0000
# 5 0.0000 0.0000 0.0000 0.0000 11.9086 0.0000
# 6 0.0000 0.0000 0.0000 0.0000 0.0000 48.5439
#
#
#
# Elastic Compliance Matrix: (Units=1/GPa)
#
#
# Indices 1 2 3 4 5 6 
#
# 1 0.006024 -0.006781 -0.004981 0.000000 0.000000 0.000000
# 2 -0.006781 0.118131 -0.005311 0.000000 0.000000 0.000000
# 3 -0.004981 -0.005311 0.024871 0.000000 0.000000 0.000000
# 4 0.000000 0.000000 0.000000 0.369581 0.000000 0.000000
# 5 0.000000 0.000000 0.000000 0.000000 0.083973 0.000000
# 6 0.000000 0.000000 0.000000 0.000000 0.000000 0.020600
#
#
# Mechanical properties :
#
#
# Convention : Reuss Voigt Hill
#
# Bulk Modulus (GPa) = 8.70473 46.41969 27.56221
# Shear Modulus (GPa) = 7.18782 26.96252 17.07517
#
# Velocity S-wave (km/s) = 1.85780 3.59817 2.86341
# Velocity P-wave (km/s) = 2.96340 6.28905 4.91599
#
# Compressibility (1/GPa) = 0.11488012
#
# Stress axis : x y z
#
# Youngs Moduli (GPa) = 165.99206 8.46515 40.20699
#
# Poissons Ratio (x) = 0.05741 0.20029
# Poissons Ratio (y) = 1.12567 0.21352
# Poissons Ratio (z) = 0.82688 0.04496
#
# Static dielectric constant tensor:
#      x y z
#    x 2.054430 0.000000 0.000000 
#    y 0.000000 1.782780 0.000000 
#    z 0.000000 0.000000 1.798610 
# 
# From -- ./inp_files/40449.got.cif
#   From: 2010.05.17/outbox.cif.g08.bks.cpg/sg64_21_cif.got.tgz:40449.got - 2010.06.03 16:29:19.
