data_PCOD9477626
_publ_section_title
;
Structure prediction by ZEFSAII (Michael W. Deem and Ramdas Pophale) SiO2 
 PCOD9477626
Probable space group: C M C A
;
_chemical_formula_sum "Si O2"
_cell_formula_units_Z 96
_cell_length_a 27.514857
_cell_length_b 10.190592
_cell_length_c 13.464778
_cell_angle_alpha 90.000000
_cell_angle_beta 90.000000
_cell_angle_gamma 90.000000
_cell_volume 3775.425211
_symmetry_space_group_name_H-M "C M C A"
_symmetry_group_IT_number 64
_symmetry_cell_setting 'orthorhombic'
loop_
_space_group_symop_operation_xyz
x,y,z
-x,1/2-y,1/2+z
x,-y,-z
-x,1/2+y,1/2-z
-x,-y,-z
x,1/2+y,1/2-z
-x,y,z
x,1/2-y,1/2+z
1/2+x,1/2+y,z
1/2-x,-y,1/2+z
1/2+x,1/2-y,-z
1/2-x,y,1/2-z
1/2-x,1/2-y,-z
1/2+x,y,1/2-z
1/2-x,1/2+y,z
1/2+x,-y,1/2+z
loop_
_atom_site_type_symbol
_atom_site_label
_atom_site_fract_x
_atom_site_fract_y
_atom_site_fract_z
Si Si1 0.053110 0.545925 0.362697
Si Si2 0.219634 0.028007 0.881659
Si Si3 0.287561 0.240059 0.907008
Si Si4 0.103635 0.695944 0.892787
Si Si5 0.876576 0.183473 0.844187
Si Si6 0.055738 0.578422 0.123219
O O1 0.067744 0.683464 0.409178
O O2 0.093244 0.439388 0.384606
O O3 0.052699 0.564609 0.243427
O O4 0.000000 0.499100 0.390968
O O5 0.269764 0.103229 0.857618
O O6 0.178378 0.134393 0.856553
O O7 0.214695 0.876836 0.845044
O O8 0.215712 0.000000 0.000000
O O9 0.343172 0.219530 0.938622
O O10 0.250000 0.250000 0.000000
O O11 0.115232 0.695402 0.774185
O O12 0.075551 0.561926 0.912586
O O13 0.902731 0.311228 0.890356
O O14 0.000000 0.608288 0.091212
#
# Coordination Sequence:
#
# PCOD9477626 Si02
#       6
#    16  16  16  16  16  16
#     4   9  16  30  53  81 119 160 190 230 292 364
#     4  10  22  40  59  80 107 153 200 238 294 358
#     4  10  22  40  59  81 108 151 202 242 293 358
#     4  10  19  33  55  87 120 150 194 242 297 348
#     4  10  19  33  55  86 120 153 189 243 294 352
#     4   9  18  30  51  87 124 154 187 233 299 357
#
# _framework density 25.427600999999999
#
# number of rings (size 3 to 8) (size 9 to 14) (size 15 to 20)
#    0.000    2.333    1.667    1.000    2.333    4.667 
#    0.000    1.667    0.000    2.000    0.000    4.667 
#    0.000    0.000    0.000    0.000    0.000    0.000 
#
# Total GULP energy -268428.808345 kJ/mol
# GULP energy per Si atom -5592.266841 kJ/mol
# Density = 2.536973 g / cm^3
# Si number density = 25.427601 Si / 1000 Ang^3
#
#
#
# Elastic Constant Matrix: (Units=GPa)
#
#
# Indices 1 2 3 4 5 6 
#
# 1 126.8565 29.3857 -2.9777 0.0000 0.0000 0.0000
# 2 29.3857 137.2898 -2.7265 0.0000 0.0000 0.0000
# 3 -2.9777 -2.7265 73.1009 0.0000 0.0000 0.0000
# 4 0.0000 0.0000 0.0000 22.2932 0.0000 0.0000
# 5 0.0000 0.0000 0.0000 0.0000 20.3735 0.0000
# 6 0.0000 0.0000 0.0000 0.0000 0.0000 59.9686
#
#
#
# Elastic Compliance Matrix: (Units=1/GPa)
#
#
# Indices 1 2 3 4 5 6 
#
# 1 0.008300 -0.001771 0.000272 0.000000 0.000000 0.000000
# 2 -0.001771 0.007667 0.000214 0.000000 0.000000 0.000000
# 3 0.000272 0.000214 0.013699 0.000000 0.000000 0.000000
# 4 0.000000 0.000000 0.000000 0.044857 0.000000 0.000000
# 5 0.000000 0.000000 0.000000 0.000000 0.049083 0.000000
# 6 0.000000 0.000000 0.000000 0.000000 0.000000 0.016675
#
#
# Mechanical properties :
#
#
# Convention : Reuss Voigt Hill
#
# Bulk Modulus (GPa) = 36.90703 42.73448 39.82075
# Shear Modulus (GPa) = 32.92005 41.43144 37.17574
#
# Velocity S-wave (km/s) = 3.60204 4.04095 3.82779
# Velocity P-wave (km/s) = 5.64319 6.21411 5.93552
#
# Compressibility (1/GPa) = 0.02709511
#
# Stress axis : x y z
#
# Youngs Moduli (GPa) = 120.48823 130.42593 72.99926
#
# Poissons Ratio (x) = 0.23099 -0.01986
# Poissons Ratio (y) = 0.21339 -0.01561
# Poissons Ratio (z) = -0.03277 -0.02789
#
# Static dielectric constant tensor:
#      x y z
#    x 1.957930 0.000000 0.000000 
#    y 0.000000 1.996680 0.000000 
#    z 0.000000 0.000000 2.205970 
# 
# From -- ./inp_files/41794.got.cif
#   From: 2010.05.17/outbox.cif.g08.bks.cpg/sg64_21_cif.got.tgz:41794.got - 2010.06.03 16:29:19.
