data_PCOD9477637
_publ_section_title
;
Structure prediction by ZEFSAII (Michael W. Deem and Ramdas Pophale) SiO2 
 PCOD9477637
Probable space group: C M C A
;
_chemical_formula_sum "Si O2"
_cell_formula_units_Z 104
_cell_length_a 25.276061
_cell_length_b 15.763735
_cell_length_c 11.265538
_cell_angle_alpha 90.000000
_cell_angle_beta 90.000000
_cell_angle_gamma 90.000000
_cell_volume 4488.698724
_symmetry_space_group_name_H-M "C M C A"
_symmetry_group_IT_number 64
_symmetry_cell_setting 'orthorhombic'
loop_
_space_group_symop_operation_xyz
x,y,z
-x,1/2-y,1/2+z
x,-y,-z
-x,1/2+y,1/2-z
-x,-y,-z
x,1/2+y,1/2-z
-x,y,z
x,1/2-y,1/2+z
1/2+x,1/2+y,z
1/2-x,-y,1/2+z
1/2+x,1/2-y,-z
1/2-x,y,1/2-z
1/2-x,1/2-y,-z
1/2+x,y,1/2-z
1/2-x,1/2+y,z
1/2+x,-y,1/2+z
loop_
_atom_site_type_symbol
_atom_site_label
_atom_site_fract_x
_atom_site_fract_y
_atom_site_fract_z
Si Si1 0.000000 0.685655 0.899149
Si Si2 0.699358 0.795052 0.688208
Si Si3 0.500000 0.555066 0.807044
Si Si4 0.223981 0.012352 0.124635
Si Si5 0.615879 0.681386 0.596377
Si Si6 0.384301 0.450422 0.193361
Si Si7 0.000000 0.613549 0.148596
Si Si8 0.386427 0.876834 0.843493
O O1 0.058046 0.726943 0.913530
O O2 0.000000 0.638938 0.773504
O O3 0.000000 0.614852 0.005380
O O4 0.750000 0.753202 0.750000
O O5 0.715859 0.886572 0.637573
O O6 0.666323 0.741978 0.593943
O O7 0.657271 0.815890 0.790908
O O8 0.442359 0.550964 0.868249
O O9 0.500000 0.477191 0.712395
O O10 0.250000 0.985508 0.250000
O O11 0.168427 0.961221 0.116629
O O12 0.253896 0.000000 0.000000
O O13 0.618273 0.629082 0.718246
O O14 0.618676 0.618894 0.484319
O O15 0.382062 0.533557 0.278023
O O16 0.945390 0.657196 0.183628
#
# Coordination Sequence:
#
# PCOD9477637 Si02
#       8
#     8  16   8  16  16  16   8  16
#     4   8  15  27  47  80 110 145 194 238 281 341
#     4  10  23  38  52  79 115 149 189 240 290 346
#     4   8  13  26  49  80 116 143 178 238 288 337
#     4  10  23  43  65  87 116 154 199 244 287 343
#     4  10  19  33  56  82 115 152 192 242 295 344
#     4   9  18  33  57  86 112 147 193 237 290 347
#     4   8  13  25  49  76 103 142 189 238 294 342
#     4   9  18  33  53  79 111 147 192 245 293 344
#
# _framework density 23.169298999999999
#
# number of rings (size 3 to 8) (size 9 to 14) (size 15 to 20)
#    0.000    2.769    0.000    0.692    0.000   10.462 
#    0.000    1.154    0.000    1.846    0.000    0.000 
#    0.000    0.000    0.000    0.000    0.000    0.000 
#
# Total GULP energy -289922.254119 kJ/mol
# GULP energy per Si atom -5575.427964 kJ/mol
# Density = 2.311656 g / cm^3
# Si number density = 23.169299 Si / 1000 Ang^3
#
#
#
# Elastic Constant Matrix: (Units=GPa)
#
#
# Indices 1 2 3 4 5 6 
#
# 1 125.0679 12.9001 8.5358 0.0000 0.0000 0.0000
# 2 12.9001 23.2976 2.1354 0.0000 0.0000 0.0000
# 3 8.5358 2.1354 73.5079 0.0000 0.0000 0.0000
# 4 0.0000 0.0000 0.0000 15.1860 0.0000 0.0000
# 5 0.0000 0.0000 0.0000 0.0000 18.7500 0.0000
# 6 0.0000 0.0000 0.0000 0.0000 0.0000 22.1653
#
#
#
# Elastic Compliance Matrix: (Units=1/GPa)
#
#
# Indices 1 2 3 4 5 6 
#
# 1 0.008533 -0.004647 -0.000856 0.000000 0.000000 0.000000
# 2 -0.004647 0.045568 -0.000784 0.000000 0.000000 0.000000
# 3 -0.000856 -0.000784 0.013726 0.000000 0.000000 0.000000
# 4 0.000000 0.000000 0.000000 0.065850 0.000000 0.000000
# 5 0.000000 0.000000 0.000000 0.000000 0.053333 0.000000
# 6 0.000000 0.000000 0.000000 0.000000 0.000000 0.045116
#
#
# Mechanical properties :
#
#
# Convention : Reuss Voigt Hill
#
# Bulk Modulus (GPa) = 18.09830 29.89066 23.99448
# Shear Modulus (GPa) = 19.00294 24.44041 21.72167
#
# Velocity S-wave (km/s) = 2.86698 3.25139 3.06522
# Velocity P-wave (km/s) = 4.33448 5.19849 4.78602
#
# Compressibility (1/GPa) = 0.05525381
#
# Stress axis : x y z
#
# Youngs Moduli (GPa) = 117.18747 21.94544 72.85363
#
# Poissons Ratio (x) = 0.10197 0.06236
# Poissons Ratio (y) = 0.54452 0.05713
# Poissons Ratio (z) = 0.10030 0.01721
#
# Static dielectric constant tensor:
#      x y z
#    x 1.985260 0.000000 0.000000 
#    y 0.000000 1.861620 0.000000 
#    z 0.000000 0.000000 1.887500 
# 
# From -- ./inp_files/19232.got.cif
#   From: 2010.05.17/outbox.cif.g08.bks.cpg/sg64_10_cif.got.tgz:19232.got - 2010.06.03 16:29:19.
