data_PCOD9477855
_publ_section_title
;
Structure prediction by ZEFSAII (Michael W. Deem and Ramdas Pophale) SiO2 
 PCOD9477855
Probable space group: C M C A
;
_chemical_formula_sum "Si O2"
_cell_formula_units_Z 88
_cell_length_a 13.952983
_cell_length_b 13.647342
_cell_length_c 21.920851
_cell_angle_alpha 90.000000
_cell_angle_beta 90.000000
_cell_angle_gamma 90.000000
_cell_volume 4174.193238
_symmetry_space_group_name_H-M "C M C A"
_symmetry_group_IT_number 64
_symmetry_cell_setting 'orthorhombic'
loop_
_space_group_symop_operation_xyz
x,y,z
-x,1/2-y,1/2+z
x,-y,-z
-x,1/2+y,1/2-z
-x,-y,-z
x,1/2+y,1/2-z
-x,y,z
x,1/2-y,1/2+z
1/2+x,1/2+y,z
1/2-x,-y,1/2+z
1/2+x,1/2-y,-z
1/2-x,y,1/2-z
1/2-x,1/2-y,-z
1/2+x,y,1/2-z
1/2-x,1/2+y,z
1/2+x,-y,1/2+z
loop_
_atom_site_type_symbol
_atom_site_label
_atom_site_fract_x
_atom_site_fract_y
_atom_site_fract_z
Si Si1 0.770579 0.954584 0.343553
Si Si2 0.886822 0.035446 0.932210
Si Si3 0.609100 0.400001 0.461378
Si Si4 0.885392 0.731556 0.067330
Si Si5 0.115054 0.134010 0.303319
Si Si6 0.250000 0.717398 0.750000
O O1 0.677412 0.002400 0.376127
O O2 0.835047 0.921807 0.400386
O O3 0.747148 0.857173 0.306278
O O4 0.831143 0.030077 0.302466
O O5 0.872366 0.152676 0.930769
O O6 0.000000 0.013689 0.924609
O O7 0.857853 0.000000 0.000000
O O8 0.606435 0.500000 0.500000
O O9 0.500000 0.372563 0.445422
O O10 0.653727 0.319293 0.506433
O O11 0.857546 0.678034 0.129817
O O12 0.000000 0.714534 0.063755
O O13 0.159000 0.210247 0.255029
O O14 0.000000 0.125184 0.299016
#
# Coordination Sequence:
#
# PCOD9477855 Si02
#       6
#    16  16  16  16  16   8
#     4  12  24  41  68 100 131 177 239 284 330 407
#     4  10  22  40  64  98 140 182 221 276 351 418
#     4  10  19  34  62 101 132 159 208 278 350 407
#     4   9  18  37  64  93 129 170 208 265 347 410
#     4  11  24  46  70  95 134 179 224 282 344 400
#     4  12  28  46  64  96 134 184 236 270 334 406
#
# _framework density 21.081917000000001
#
# number of rings (size 3 to 8) (size 9 to 14) (size 15 to 20)
#    0.000    1.455    3.636    1.636    0.000    3.636 
#    0.000    2.727    0.000    0.000    0.000    0.000 
#    0.000    0.000    0.000    0.000    0.000    0.000 
#
# Total GULP energy -245798.237887 kJ/mol
# GULP energy per Si atom -5586.323588 kJ/mol
# Density = 2.103393 g / cm^3
# Si number density = 21.081917 Si / 1000 Ang^3
#
#
#
# Elastic Constant Matrix: (Units=GPa)
#
#
# Indices 1 2 3 4 5 6 
#
# 1 108.8303 30.4357 33.5725 0.0000 0.0000 0.0000
# 2 30.4357 68.1441 3.0408 0.0000 0.0000 0.0000
# 3 33.5725 3.0408 56.0976 0.0000 0.0000 0.0000
# 4 0.0000 0.0000 0.0000 40.8643 0.0000 0.0000
# 5 0.0000 0.0000 0.0000 0.0000 19.2940 0.0000
# 6 0.0000 0.0000 0.0000 0.0000 0.0000 27.4354
#
#
#
# Elastic Compliance Matrix: (Units=1/GPa)
#
#
# Indices 1 2 3 4 5 6 
#
# 1 0.013039 -0.005489 -0.007506 0.000000 0.000000 0.000000
# 2 -0.005489 0.017021 0.002362 0.000000 0.000000 0.000000
# 3 -0.007506 0.002362 0.022190 0.000000 0.000000 0.000000
# 4 0.000000 0.000000 0.000000 0.024471 0.000000 0.000000
# 5 0.000000 0.000000 0.000000 0.000000 0.051830 0.000000
# 6 0.000000 0.000000 0.000000 0.000000 0.000000 0.036449
#
#
# Mechanical properties :
#
#
# Convention : Reuss Voigt Hill
#
# Bulk Modulus (GPa) = 32.27364 40.79667 36.53515
# Shear Modulus (GPa) = 25.43318 28.58693 27.01005
#
# Velocity S-wave (km/s) = 3.47709 3.68638 3.58326
# Velocity P-wave (km/s) = 5.60911 6.12476 5.87260
#
# Compressibility (1/GPa) = 0.03098504
#
# Stress axis : x y z
#
# Youngs Moduli (GPa) = 76.69242 58.75134 45.06521
#
# Poissons Ratio (x) = 0.32247 0.33826
# Poissons Ratio (y) = 0.42095 -0.10645
# Poissons Ratio (z) = 0.57565 -0.13878
#
# Static dielectric constant tensor:
#      x y z
#    x 1.797850 0.000000 0.000000 
#    y 0.000000 1.749530 0.000000 
#    z 0.000000 0.000000 1.770660 
# 
# From -- ./inp_files/39089.got.cif
#   From: 2010.05.17/outbox.cif.g08.bks.cpg/sg64_20_cif.got.tgz:39089.got - 2010.06.03 16:29:19.
