data_PCOD9477668
_publ_section_title
;
Structure prediction by ZEFSAII (Michael W. Deem and Ramdas Pophale) SiO2 
 PCOD9477668
Probable space group: C M C A
;
_chemical_formula_sum "Si O2"
_cell_formula_units_Z 96
_cell_length_a 8.824650
_cell_length_b 21.002759
_cell_length_c 28.902150
_cell_angle_alpha 90.000000
_cell_angle_beta 90.000000
_cell_angle_gamma 90.000000
_cell_volume 5356.782205
_symmetry_space_group_name_H-M "C M C A"
_symmetry_group_IT_number 64
_symmetry_cell_setting 'orthorhombic'
loop_
_space_group_symop_operation_xyz
x,y,z
-x,1/2-y,1/2+z
x,-y,-z
-x,1/2+y,1/2-z
-x,-y,-z
x,1/2+y,1/2-z
-x,y,z
x,1/2-y,1/2+z
1/2+x,1/2+y,z
1/2-x,-y,1/2+z
1/2+x,1/2-y,-z
1/2-x,y,1/2-z
1/2-x,1/2-y,-z
1/2+x,y,1/2-z
1/2-x,1/2+y,z
1/2+x,-y,1/2+z
loop_
_atom_site_type_symbol
_atom_site_label
_atom_site_fract_x
_atom_site_fract_y
_atom_site_fract_z
Si Si1 0.318878 0.996044 0.896022
Si Si2 0.181322 0.371439 0.558404
Si Si3 0.182679 0.884999 0.049283
Si Si4 0.681895 0.803849 0.298284
Si Si5 0.182156 0.254956 0.397705
Si Si6 0.681708 0.945321 0.201821
O O1 0.500000 0.992802 0.899916
O O2 0.257945 0.054083 0.927139
O O3 0.280686 0.012583 0.842809
O O4 0.247566 0.930602 0.913317
O O5 0.225113 0.378694 0.504464
O O6 0.241505 0.305401 0.578843
O O7 0.000000 0.372576 0.560636
O O8 0.224809 0.820478 0.076363
O O9 0.000000 0.891967 0.052325
O O10 0.500000 0.808296 0.294892
O O11 0.750000 0.779421 0.250000
O O12 0.720746 0.763090 0.343567
O O13 0.748532 0.874863 0.305086
O O14 0.000000 0.248577 0.401322
O O15 0.500000 0.939819 0.205580
O O16 0.750000 0.970048 0.250000
#
# Coordination Sequence:
#
# PCOD9477668 Si02
#       6
#    16  16  16  16  16  16
#     4  11  23  38  58  85 116 150 189 233 281 336
#     4  11  24  38  57  83 115 153 191 234 282 336
#     4  10  21  39  60  84 113 149 192 235 282 332
#     4  10  19  33  57  85 113 146 182 229 281 331
#     4  10  21  38  59  83 115 151 186 231 284 334
#     4  10  20  34  56  85 112 143 184 231 279 331
#
# _framework density 17.921205
#
# number of rings (size 3 to 8) (size 9 to 14) (size 15 to 20)
#    0.000    1.667    1.667    4.000    0.000    7.333 
#    0.000    0.833    0.000    0.000    0.000    0.000 
#    0.000    0.000    0.000    0.000    0.000    0.000 
#
# Total GULP energy -268176.662123 kJ/mol
# GULP energy per Si atom -5587.013794 kJ/mol
# Density = 1.788042 g / cm^3
# Si number density = 17.921205 Si / 1000 Ang^3
#
#
#
# Elastic Constant Matrix: (Units=GPa)
#
#
# Indices 1 2 3 4 5 6 
#
# 1 34.7706 8.2887 27.7270 0.0000 0.0000 0.0000
# 2 8.2887 43.2577 -2.6449 0.0000 0.0000 0.0000
# 3 27.7270 -2.6449 93.7165 0.0000 0.0000 0.0000
# 4 0.0000 0.0000 0.0000 -7.0579 0.0000 0.0000
# 5 0.0000 0.0000 0.0000 0.0000 31.1310 0.0000
# 6 0.0000 0.0000 0.0000 0.0000 0.0000 34.1567
#
#
#
# Elastic Compliance Matrix: (Units=1/GPa)
#
#
# Indices 1 2 3 4 5 6 
#
# 1 0.040549 -0.008518 -0.012237 0.000000 0.000000 0.000000
# 2 -0.008518 0.024947 0.003224 0.000000 0.000000 0.000000
# 3 -0.012237 0.003224 0.014382 0.000000 0.000000 0.000000
# 4 0.000000 0.000000 0.000000 -0.141685 0.000000 0.000000
# 5 0.000000 0.000000 0.000000 0.000000 0.032122 0.000000
# 6 0.000000 0.000000 0.000000 0.000000 0.000000 0.029277
#
#
# Mechanical properties :
#
#
# Convention : Reuss Voigt Hill
#
# Bulk Modulus (GPa) = 22.31369 26.49848 24.40609
# Shear Modulus (GPa) = 100.82419 20.87091 60.84755
#
# Velocity S-wave (km/s) = 7.50878 3.41632 5.83323
# Velocity P-wave (km/s) = 9.36236 5.51179 7.68224
#
# Compressibility (1/GPa) = 0.04481554
#
# Stress axis : x y z
#
# Youngs Moduli (GPa) = 24.66174 40.08574 69.53162
#
# Poissons Ratio (x) = 0.34144 0.85087
# Poissons Ratio (y) = 0.21006 -0.22418
# Poissons Ratio (z) = 0.30179 -0.12924
#
# Static dielectric constant tensor:
#      x y z
#    x 1.601400 0.000000 0.000000 
#    y 0.000000 1.564330 0.000000 
#    z 0.000000 0.000000 1.622930 
# 
# From -- ./inp_files/48118.got.cif
#   From: 2010.05.17/outbox.cif.g08.bks.cpg/sg64_25_cif.got.tgz:48118.got - 2010.06.03 16:29:19.
