data_PCOD9477587
_publ_section_title
;
Structure prediction by ZEFSAII (Michael W. Deem and Ramdas Pophale) SiO2 
 PCOD9477587
Probable space group: C M C A
;
_chemical_formula_sum "Si O2"
_cell_formula_units_Z 112
_cell_length_a 14.489519
_cell_length_b 15.520742
_cell_length_c 22.353310
_cell_angle_alpha 90.000000
_cell_angle_beta 90.000000
_cell_angle_gamma 90.000000
_cell_volume 5026.993104
_symmetry_space_group_name_H-M "C M C A"
_symmetry_group_IT_number 64
_symmetry_cell_setting 'orthorhombic'
loop_
_space_group_symop_operation_xyz
x,y,z
-x,1/2-y,1/2+z
x,-y,-z
-x,1/2+y,1/2-z
-x,-y,-z
x,1/2+y,1/2-z
-x,y,z
x,1/2-y,1/2+z
1/2+x,1/2+y,z
1/2-x,-y,1/2+z
1/2+x,1/2-y,-z
1/2-x,y,1/2-z
1/2-x,1/2-y,-z
1/2+x,y,1/2-z
1/2-x,1/2+y,z
1/2+x,-y,1/2+z
loop_
_atom_site_type_symbol
_atom_site_label
_atom_site_fract_x
_atom_site_fract_y
_atom_site_fract_z
Si Si1 0.857336 0.814532 0.267138
Si Si2 0.893809 0.274447 0.536974
Si Si3 0.606879 0.617841 0.915524
Si Si4 0.639807 0.491153 0.753270
Si Si5 0.607139 0.066504 0.389039
Si Si6 0.099676 0.329908 0.827316
Si Si7 0.264017 0.731474 0.617222
O O1 0.750000 0.814903 0.250000
O O2 0.900456 0.740258 0.226383
O O3 0.847582 0.784578 0.335668
O O4 0.893889 0.911175 0.257569
O O5 0.893308 0.322393 0.473923
O O6 0.854393 0.344827 0.585494
O O7 0.811844 0.209290 0.552559
O O8 0.000000 0.246673 0.547492
O O9 0.500000 0.617847 0.892315
O O10 0.633009 0.518698 0.925412
O O11 0.686354 0.655120 0.873680
O O12 0.750000 0.492736 0.750000
O O13 0.617105 0.455123 0.819365
O O14 0.607088 0.422858 0.703890
O O15 0.500000 0.079794 0.402353
O O16 0.190571 0.308508 0.866262
O O17 0.000000 0.322499 0.859452
#
# Coordination Sequence:
#
# PCOD9477587 Si02
#       7
#    16  16  16  16  16  16  16
#     4   9  20  35  52  76 107 143 185 224 263 316
#     4  10  21  36  55  79 104 135 178 228 277 319
#     4  10  20  35  56  81 106 134 175 225 276 325
#     4  11  20  33  53  78 110 145 179 217 264 323
#     4  10  19  33  54  78 104 133 171 224 278 320
#     4  11  22  35  53  80 114 149 184 220 263 322
#     4  11  21  36  55  77 109 147 180 218 265 320
#
# _framework density 22.279720999999999
#
# number of rings (size 3 to 8) (size 9 to 14) (size 15 to 20)
#    0.000    1.714    0.000    7.286    0.000    5.714 
#    0.000    0.000    0.000    0.000    0.000    0.000 
#    0.000   11.429    0.000    0.000    0.000    0.000 
#
# Total GULP energy -312010.399613 kJ/mol
# GULP energy per Si atom -5571.614279 kJ/mol
# Density = 2.222901 g / cm^3
# Si number density = 22.279721 Si / 1000 Ang^3
#
#
#
# Elastic Constant Matrix: (Units=GPa)
#
#
# Indices 1 2 3 4 5 6 
#
# 1 110.5870 -6.7902 11.1643 0.0000 0.0000 0.0000
# 2 -6.7902 45.0849 -9.3341 0.0000 0.0000 0.0000
# 3 11.1643 -9.3341 43.9230 0.0000 0.0000 0.0000
# 4 0.0000 0.0000 0.0000 36.4086 0.0000 0.0000
# 5 0.0000 0.0000 0.0000 0.0000 27.2440 0.0000
# 6 0.0000 0.0000 0.0000 0.0000 0.0000 -6.2823
#
#
#
# Elastic Compliance Matrix: (Units=1/GPa)
#
#
# Indices 1 2 3 4 5 6 
#
# 1 0.009320 0.000955 -0.002166 0.000000 0.000000 0.000000
# 2 0.000955 0.023299 0.004709 0.000000 0.000000 0.000000
# 3 -0.002166 0.004709 0.024318 0.000000 0.000000 0.000000
# 4 0.000000 0.000000 0.000000 0.027466 0.000000 0.000000
# 5 0.000000 0.000000 0.000000 0.000000 0.036705 0.000000
# 6 0.000000 0.000000 0.000000 0.000000 0.000000 -0.159176
#
#
# Mechanical properties :
#
#
# Convention : Reuss Voigt Hill
#
# Bulk Modulus (GPa) = 15.64139 21.07499 18.35819
# Shear Modulus (GPa) = -210.50646 25.11104 -92.69771
#
# Velocity S-wave (km/s) = -9.73080 3.36084 -6.45729
# Velocity P-wave (km/s) = 10.91859 4.95380 6.88024
#
# Compressibility (1/GPa) = 0.06393294
#
# Stress axis : x y z
#
# Youngs Moduli (GPa) = 107.29650 42.92019 41.12132
#
# Poissons Ratio (x) = -0.04100 0.08907
# Poissons Ratio (y) = -0.10250 -0.19362
# Poissons Ratio (z) = 0.23240 -0.20209
#
# Static dielectric constant tensor:
#      x y z
#    x 2.034300 0.000000 0.000000 
#    y 0.000000 1.957570 0.000000 
#    z 0.000000 0.000000 1.969340 
# 
# From -- ./inp_files/45238.got.cif
#   From: 2010.05.17/outbox.cif.g08.bks.cpg/sg64_23_cif.got.tgz:45238.got - 2010.06.03 16:29:19.
