data_PCOD9477442
_publ_section_title
;
Structure prediction by ZEFSAII (Michael W. Deem and Ramdas Pophale) SiO2 
 PCOD9477442
Probable space group: C M C A
;
_chemical_formula_sum "Si O2"
_cell_formula_units_Z 80
_cell_length_a 27.979860
_cell_length_b 25.288796
_cell_length_c 5.164058
_cell_angle_alpha 90.000000
_cell_angle_beta 90.000000
_cell_angle_gamma 90.000000
_cell_volume 3653.968521
_symmetry_space_group_name_H-M "C M C A"
_symmetry_group_IT_number 64
_symmetry_cell_setting 'orthorhombic'
loop_
_space_group_symop_operation_xyz
x,y,z
-x,1/2-y,1/2+z
x,-y,-z
-x,1/2+y,1/2-z
-x,-y,-z
x,1/2+y,1/2-z
-x,y,z
x,1/2-y,1/2+z
1/2+x,1/2+y,z
1/2-x,-y,1/2+z
1/2+x,1/2-y,-z
1/2-x,y,1/2-z
1/2-x,1/2-y,-z
1/2+x,y,1/2-z
1/2-x,1/2+y,z
1/2+x,-y,1/2+z
loop_
_atom_site_type_symbol
_atom_site_label
_atom_site_fract_x
_atom_site_fract_y
_atom_site_fract_z
Si Si1 0.683418 0.613896 0.035488
Si Si2 0.309978 0.000000 0.500000
Si Si3 0.557190 0.716710 0.554746
Si Si4 0.198767 0.729017 0.643488
Si Si5 0.621888 0.000000 0.000000
Si Si6 0.881420 0.886693 0.464355
O O1 0.713174 0.558845 0.006522
O O2 0.706390 0.669637 0.957079
O O3 0.640948 0.611958 0.823207
O O4 0.661103 0.617293 0.322150
O O5 0.343348 0.999931 0.248002
O O6 0.500000 0.708496 0.543372
O O7 0.569098 0.759567 0.334993
O O8 0.583367 0.661737 0.505269
O O9 0.173410 0.763747 0.422510
O O10 0.250000 0.749698 0.750000
O O11 0.595037 0.944394 0.994049
#
# Coordination Sequence:
#
# PCOD9477442 Si02
#       6
#    16   8  16  16   8  16
#     4  10  19  32  53  75  98 127 165 205 242 291
#     4   8  16  30  48  71  97 124 153 198 249 282
#     4  10  21  35  49  69 101 134 161 199 251 295
#     4  10  21  35  50  71 102 134 161 198 248 292
#     4   8  16  30  47  71  98 122 153 198 249 282
#     4  10  19  32  52  75  97 126 165 205 241 291
#
# _framework density 21.894005
#
# number of rings (size 3 to 8) (size 9 to 14) (size 15 to 20)
#    0.000    2.400    0.000    2.400    0.000    4.800 
#    0.000    0.500    0.000   10.800    0.000   12.600 
#    0.000    0.000    0.000    0.000    0.000    0.000 
#
# Total GULP energy -223081.755573 kJ/mol
# GULP energy per Si atom -5577.043889 kJ/mol
# Density = 2.184417 g / cm^3
# Si number density = 21.894005 Si / 1000 Ang^3
#
#
#
# Elastic Constant Matrix: (Units=GPa)
#
#
# Indices 1 2 3 4 5 6 
#
# 1 34.4518 22.7084 -0.7524 0.0000 0.0000 0.0000
# 2 22.7084 210.8493 8.1699 0.0000 0.0000 0.0000
# 3 -0.7524 8.1699 112.0751 0.0000 0.0000 0.0000
# 4 0.0000 0.0000 0.0000 31.3923 0.0000 0.0000
# 5 0.0000 0.0000 0.0000 0.0000 21.0409 0.0000
# 6 0.0000 0.0000 0.0000 0.0000 0.0000 -51.1348
#
#
#
# Elastic Compliance Matrix: (Units=1/GPa)
#
#
# Indices 1 2 3 4 5 6 
#
# 1 0.031267 -0.003385 0.000457 0.000000 0.000000 0.000000
# 2 -0.003385 0.005123 -0.000396 0.000000 0.000000 0.000000
# 3 0.000457 -0.000396 0.008955 0.000000 0.000000 0.000000
# 4 0.000000 0.000000 0.000000 0.031855 0.000000 0.000000
# 5 0.000000 0.000000 0.000000 0.000000 0.047527 0.000000
# 6 0.000000 0.000000 0.000000 0.000000 0.000000 -0.019556
#
#
# Mechanical properties :
#
#
# Convention : Reuss Voigt Hill
#
# Bulk Modulus (GPa) = 25.84300 46.40311 36.12306
# Shear Modulus (GPa) = 40.09057 22.07636 31.08346
#
# Velocity S-wave (km/s) = 4.28380 3.17886 3.77201
# Velocity P-wave (km/s) = 6.02472 5.89186 5.95866
#
# Compressibility (1/GPa) = 0.03869520
#
# Stress axis : x y z
#
# Youngs Moduli (GPa) = 31.98226 195.21121 111.67533
#
# Poissons Ratio (x) = 0.66082 -0.05100
# Poissons Ratio (y) = 0.10827 0.04424
# Poissons Ratio (z) = -0.01461 0.07733
#
# Static dielectric constant tensor:
#      x y z
#    x 1.908560 0.000000 0.000000 
#    y 0.000000 1.878320 0.000000 
#    z 0.000000 0.000000 2.019850 
# 
# From -- ./inp_files/3287.got.cif
#   From: 2010.05.17/outbox.cif.g08.bks.cpg/sg64_2_cif.got.tgz:3287.got - 2010.06.03 16:29:19.
