data_PCOD9477308
_publ_section_title
;
Structure prediction by ZEFSAII (Michael W. Deem and Ramdas Pophale) SiO2 
 PCOD9477308
Probable space group: C M C A
;
_chemical_formula_sum "Si O2"
_cell_formula_units_Z 96
_cell_length_a 8.735572
_cell_length_b 28.056690
_cell_length_c 24.363040
_cell_angle_alpha 90.000000
_cell_angle_beta 90.000000
_cell_angle_gamma 90.000000
_cell_volume 5971.167576
_symmetry_space_group_name_H-M "C M C A"
_symmetry_group_IT_number 64
_symmetry_cell_setting 'orthorhombic'
loop_
_space_group_symop_operation_xyz
x,y,z
-x,1/2-y,1/2+z
x,-y,-z
-x,1/2+y,1/2-z
-x,-y,-z
x,1/2+y,1/2-z
-x,y,z
x,1/2-y,1/2+z
1/2+x,1/2+y,z
1/2-x,-y,1/2+z
1/2+x,1/2-y,-z
1/2-x,y,1/2-z
1/2-x,1/2-y,-z
1/2+x,y,1/2-z
1/2-x,1/2+y,z
1/2+x,-y,1/2+z
loop_
_atom_site_type_symbol
_atom_site_label
_atom_site_fract_x
_atom_site_fract_y
_atom_site_fract_z
Si Si1 0.815921 0.678127 0.479587
Si Si2 0.184105 0.930942 0.975100
Si Si3 0.816093 0.431242 0.309798
Si Si4 0.182465 0.319631 0.309109
Si Si5 0.183216 0.979345 0.417038
Si Si6 0.182771 0.271331 0.085039
O O1 0.776725 0.624092 0.464535
O O2 0.773089 0.718110 0.434844
O O3 0.739758 0.693850 0.536620
O O4 0.000000 0.680423 0.486884
O O5 0.000000 0.936483 0.974121
O O6 0.259237 0.967789 0.932710
O O7 0.245085 0.946154 0.035128
O O8 0.750000 0.444057 0.250000
O O9 0.776995 0.375325 0.319359
O O10 0.743818 0.461891 0.358508
O O11 0.000000 0.435798 0.309952
O O12 0.250000 0.306352 0.250000
O O13 0.245831 0.287628 0.357989
O O14 0.000000 0.316534 0.307248
O O15 0.000000 0.977071 0.419672
O O16 0.000000 0.273643 0.088700
#
# Coordination Sequence:
#
# PCOD9477308 Si02
#       6
#    16  16  16  16  16  16
#     4   9  19  33  49  71  98 129 163 198 237 283
#     4  10  19  33  51  70  96 130 165 200 239 282
#     4  10  20  34  51  72  98 128 161 196 237 284
#     4  10  20  33  50  72  98 128 161 196 236 284
#     4  11  21  32  48  73 101 127 159 198 242 289
#     4  10  19  31  49  73 100 128 159 197 240 284
#
# _framework density 16.077256999999999
#
# number of rings (size 3 to 8) (size 9 to 14) (size 15 to 20)
#    0.000    2.000    0.000    5.500    0.000    8.000 
#    0.000    0.000    0.000    1.000    0.000    4.667 
#    0.000    0.000    0.000    0.000    0.000    0.000 
#
# Total GULP energy -267956.665577 kJ/mol
# GULP energy per Si atom -5582.430533 kJ/mol
# Density = 1.604066 g / cm^3
# Si number density = 16.077257 Si / 1000 Ang^3
#
#
#
# Elastic Constant Matrix: (Units=GPa)
#
#
# Indices 1 2 3 4 5 6 
#
# 1 61.5848 42.4556 52.0119 0.0000 0.0000 0.0000
# 2 42.4556 109.3603 80.5661 0.0000 0.0000 0.0000
# 3 52.0119 80.5661 150.8647 0.0000 0.0000 0.0000
# 4 0.0000 0.0000 0.0000 18.4474 0.0000 0.0000
# 5 0.0000 0.0000 0.0000 0.0000 33.0823 0.0000
# 6 0.0000 0.0000 0.0000 0.0000 0.0000 20.4264
#
#
#
# Elastic Compliance Matrix: (Units=1/GPa)
#
#
# Indices 1 2 3 4 5 6 
#
# 1 0.024750 -0.005477 -0.005608 0.000000 0.000000 0.000000
# 2 -0.005477 0.016287 -0.006809 0.000000 0.000000 0.000000
# 3 -0.005608 -0.006809 0.012198 0.000000 0.000000 0.000000
# 4 0.000000 0.000000 0.000000 0.054208 0.000000 0.000000
# 5 0.000000 0.000000 0.000000 0.000000 0.030228 0.000000
# 6 0.000000 0.000000 0.000000 0.000000 0.000000 0.048956
#
#
# Mechanical properties :
#
#
# Convention : Reuss Voigt Hill
#
# Bulk Modulus (GPa) = 57.31864 74.65302 65.98583
# Shear Modulus (GPa) = 21.90768 24.17631 23.04199
#
# Velocity S-wave (km/s) = 3.69541 3.88204 3.78988
# Velocity P-wave (km/s) = 7.34422 8.16262 7.76421
#
# Compressibility (1/GPa) = 0.01744633
#
# Stress axis : x y z
#
# Youngs Moduli (GPa) = 40.40471 61.39924 81.97927
#
# Poissons Ratio (x) = 0.33628 0.45972
# Poissons Ratio (y) = 0.22130 0.55823
# Poissons Ratio (z) = 0.22658 0.41809
#
# Static dielectric constant tensor:
#      x y z
#    x 1.538140 0.000000 0.000000 
#    y 0.000000 1.539660 0.000000 
#    z 0.000000 0.000000 1.504990 
# 
# From -- ./inp_files/43166.got.cif
#   From: 2010.05.17/outbox.cif.g08.bks.cpg/sg64_22_cif.got.tgz:43166.got - 2010.06.03 16:29:19.
