data_PCOD9477670
_publ_section_title
;
Structure prediction by ZEFSAII (Michael W. Deem and Ramdas Pophale) SiO2 
 PCOD9477670
Probable space group: C M C A
;
_chemical_formula_sum "Si O2"
_cell_formula_units_Z 104
_cell_length_a 9.682934
_cell_length_b 28.904913
_cell_length_c 19.829359
_cell_angle_alpha 90.000000
_cell_angle_beta 90.000000
_cell_angle_gamma 90.000000
_cell_volume 5549.927549
_symmetry_space_group_name_H-M "C M C A"
_symmetry_group_IT_number 64
_symmetry_cell_setting 'orthorhombic'
loop_
_space_group_symop_operation_xyz
x,y,z
-x,1/2-y,1/2+z
x,-y,-z
-x,1/2+y,1/2-z
-x,-y,-z
x,1/2+y,1/2-z
-x,y,z
x,1/2-y,1/2+z
1/2+x,1/2+y,z
1/2-x,-y,1/2+z
1/2+x,1/2-y,-z
1/2-x,y,1/2-z
1/2-x,1/2-y,-z
1/2+x,y,1/2-z
1/2-x,1/2+y,z
1/2+x,-y,1/2+z
loop_
_atom_site_type_symbol
_atom_site_label
_atom_site_fract_x
_atom_site_fract_y
_atom_site_fract_z
Si Si1 0.336586 0.014858 0.681454
Si Si2 0.657639 0.823181 0.036739
Si Si3 0.153241 0.247395 0.653327
Si Si4 0.161928 0.672051 0.121825
Si Si5 0.660033 0.110263 0.622779
Si Si6 0.750000 0.330242 0.250000
Si Si7 0.165151 0.090003 0.179774
O O1 0.500000 0.020911 0.696568
O O2 0.250000 0.018269 0.750000
O O3 0.319766 0.962842 0.653988
O O4 0.294975 0.057315 0.633883
O O5 0.500000 0.837840 0.049801
O O6 0.678327 0.777179 0.081151
O O7 0.755965 0.862107 0.066990
O O8 0.672344 0.816241 0.957402
O O9 0.270867 0.285556 0.663145
O O10 0.158524 0.205413 0.706507
O O11 0.000000 0.268534 0.654026
O O12 0.257056 0.627533 0.134687
O O13 0.000000 0.664920 0.138586
O O14 0.500000 0.110868 0.604688
O O15 0.678932 0.137240 0.694215
O O16 0.250000 0.091922 0.250000
O O17 0.000000 0.098883 0.188083
#
# Coordination Sequence:
#
# PCOD9477670 Si02
#       7
#    16  16  16  16  16   8  16
#     4   9  18  33  55  84 113 144 179 220 273 330
#     4   9  21  39  56  79 110 148 189 230 273 327
#     4  10  21  36  56  81 111 145 186 229 276 327
#     4  11  23  39  58  78 108 148 191 232 276 325
#     4  10  19  33  57  86 114 144 180 223 274 329
#     4  10  20  34  54  84 118 142 176 222 278 330
#     4  10  21  38  59  83 112 144 184 229 275 327
#
# _framework density 18.738983000000001
#
# number of rings (size 3 to 8) (size 9 to 14) (size 15 to 20)
#    0.000    2.154    0.769    1.846    1.077    6.154 
#    0.000    0.769    0.000    4.615    0.000    0.000 
#    0.000    0.000    0.000    0.000    0.000    0.000 
#
# Total GULP energy -289982.434252 kJ/mol
# GULP energy per Si atom -5576.585274 kJ/mol
# Density = 1.869633 g / cm^3
# Si number density = 18.738983 Si / 1000 Ang^3
#
#
#
# Elastic Constant Matrix: (Units=GPa)
#
#
# Indices 1 2 3 4 5 6 
#
# 1 104.3199 63.0433 19.7007 0.0000 0.0000 0.0000
# 2 63.0433 80.9790 13.0577 0.0000 0.0000 0.0000
# 3 19.7007 13.0577 34.2845 0.0000 0.0000 0.0000
# 4 0.0000 0.0000 0.0000 17.4402 0.0000 0.0000
# 5 0.0000 0.0000 0.0000 0.0000 18.0062 0.0000
# 6 0.0000 0.0000 0.0000 0.0000 0.0000 30.7335
#
#
#
# Elastic Compliance Matrix: (Units=1/GPa)
#
#
# Indices 1 2 3 4 5 6 
#
# 1 0.019079 -0.013941 -0.005653 0.000000 0.000000 0.000000
# 2 -0.013941 0.023344 -0.000880 0.000000 0.000000 0.000000
# 3 -0.005653 -0.000880 0.032751 0.000000 0.000000 0.000000
# 4 0.000000 0.000000 0.000000 0.057339 0.000000 0.000000
# 5 0.000000 0.000000 0.000000 0.000000 0.055536 0.000000
# 6 0.000000 0.000000 0.000000 0.000000 0.000000 0.032538
#
#
# Mechanical properties :
#
#
# Convention : Reuss Voigt Hill
#
# Bulk Modulus (GPa) = 29.21835 45.68741 37.45288
# Shear Modulus (GPa) = 18.31869 21.48809 19.90339
#
# Velocity S-wave (km/s) = 3.13001 3.38998 3.26258
# Velocity P-wave (km/s) = 5.35618 6.30527 5.85001
#
# Compressibility (1/GPa) = 0.03422507
#
# Stress axis : x y z
#
# Youngs Moduli (GPa) = 52.41436 42.83676 30.53313
#
# Poissons Ratio (x) = 0.59721 0.17261
# Poissons Ratio (y) = 0.73073 0.02687
# Poissons Ratio (z) = 0.29631 0.03769
#
# Static dielectric constant tensor:
#      x y z
#    x 1.643550 0.000000 0.000000 
#    y 0.000000 1.658400 0.000000 
#    z 0.000000 0.000000 1.650440 
# 
# From -- ./inp_files/37251.got.cif
#   From: 2010.05.17/outbox.cif.g08.bks.cpg/sg64_19_cif.got.tgz:37251.got - 2010.06.03 16:29:19.
