data_PCOD9477888
_publ_section_title
;
Structure prediction by ZEFSAII (Michael W. Deem and Ramdas Pophale) SiO2 
 PCOD9477888
Probable space group: C M C A
;
_chemical_formula_sum "Si O2"
_cell_formula_units_Z 112
_cell_length_a 14.029106
_cell_length_b 26.018247
_cell_length_c 15.449490
_cell_angle_alpha 90.000000
_cell_angle_beta 90.000000
_cell_angle_gamma 90.000000
_cell_volume 5639.260755
_symmetry_space_group_name_H-M "C M C A"
_symmetry_group_IT_number 64
_symmetry_cell_setting 'orthorhombic'
loop_
_space_group_symop_operation_xyz
x,y,z
-x,1/2-y,1/2+z
x,-y,-z
-x,1/2+y,1/2-z
-x,-y,-z
x,1/2+y,1/2-z
-x,y,z
x,1/2-y,1/2+z
1/2+x,1/2+y,z
1/2-x,-y,1/2+z
1/2+x,1/2-y,-z
1/2-x,y,1/2-z
1/2-x,1/2-y,-z
1/2+x,y,1/2-z
1/2-x,1/2+y,z
1/2+x,-y,1/2+z
loop_
_atom_site_type_symbol
_atom_site_label
_atom_site_fract_x
_atom_site_fract_y
_atom_site_fract_z
Si Si1 0.775540 0.692771 0.468133
Si Si2 0.389817 0.838056 0.857682
Si Si3 0.283365 0.988605 0.340181
Si Si4 0.112746 0.772127 0.803211
Si Si5 0.803127 0.117777 0.883375
Si Si6 0.111179 0.849955 0.298996
Si Si7 0.391275 0.453892 0.701408
O O1 0.750000 0.750000 0.500000
O O2 0.642548 0.705116 0.289303
O O3 0.838392 0.699572 0.382683
O O4 0.824335 0.657402 0.540111
O O5 0.500000 0.829343 0.881191
O O6 0.383060 0.893088 0.810911
O O7 0.321949 0.834715 0.939396
O O8 0.250000 0.960545 0.250000
O O9 0.359520 0.027870 0.298052
O O10 0.187323 0.019745 0.361404
O O11 0.317485 0.943092 0.400985
O O12 0.128369 0.711222 0.806362
O O13 0.000000 0.781338 0.808566
O O14 0.864380 0.133509 0.799209
O O15 0.690819 0.124910 0.860181
O O16 0.000000 0.861087 0.318509
O O17 0.500000 0.469550 0.684756
#
# Coordination Sequence:
#
# PCOD9477888 Si02
#       7
#    16  16  16  16  16  16  16
#     4  12  24  35  58  83 125 160 178 241 294 348
#     4  10  22  39  62  86 108 151 205 239 283 347
#     4   8  18  30  55  82 110 140 187 240 276 338
#     4  10  22  37  56  82 109 151 204 238 277 345
#     4  11  21  36  52  90 119 148 198 229 294 353
#     4  10  19  35  57  75 109 156 196 235 273 337
#     4   8  16  34  59  83 106 140 189 242 283 327
#
# _framework density 19.860759000000002
#
# number of rings (size 3 to 8) (size 9 to 14) (size 15 to 20)
#    0.857    1.143    2.857    1.286    6.000    4.000 
#    0.000    0.714    0.000    1.714    0.000    3.000 
#    0.000    0.000    0.000    0.000    0.000    0.000 
#
# Total GULP energy -312027.760832 kJ/mol
# GULP energy per Si atom -5571.924301 kJ/mol
# Density = 1.981556 g / cm^3
# Si number density = 19.860759 Si / 1000 Ang^3
#
#
#
# Elastic Constant Matrix: (Units=GPa)
#
#
# Indices 1 2 3 4 5 6 
#
# 1 49.2703 15.9574 5.0369 0.0000 0.0000 0.0000
# 2 15.9574 53.2429 -2.2940 0.0000 0.0000 0.0000
# 3 5.0369 -2.2940 29.1458 0.0000 0.0000 0.0000
# 4 0.0000 0.0000 0.0000 16.8779 0.0000 0.0000
# 5 0.0000 0.0000 0.0000 0.0000 13.5257 0.0000
# 6 0.0000 0.0000 0.0000 0.0000 0.0000 24.0528
#
#
#
# Elastic Compliance Matrix: (Units=1/GPa)
#
#
# Indices 1 2 3 4 5 6 
#
# 1 0.023063 -0.007108 -0.004545 0.000000 0.000000 0.000000
# 2 -0.007108 0.021036 0.002884 0.000000 0.000000 0.000000
# 3 -0.004545 0.002884 0.035323 0.000000 0.000000 0.000000
# 4 0.000000 0.000000 0.000000 0.059249 0.000000 0.000000
# 5 0.000000 0.000000 0.000000 0.000000 0.073933 0.000000
# 6 0.000000 0.000000 0.000000 0.000000 0.000000 0.041575
#
#
# Mechanical properties :
#
#
# Convention : Reuss Voigt Hill
#
# Bulk Modulus (GPa) = 16.15924 18.78441 17.47183
# Shear Modulus (GPa) = 17.10302 18.42186 17.76244
#
# Velocity S-wave (km/s) = 2.93771 3.04888 2.99381
# Velocity P-wave (km/s) = 4.43405 4.67683 4.55706
#
# Compressibility (1/GPa) = 0.06188408
#
# Stress axis : x y z
#
# Youngs Moduli (GPa) = 43.35959 47.53649 28.31034
#
# Poissons Ratio (x) = 0.33789 0.12867
# Poissons Ratio (y) = 0.30820 -0.08165
# Poissons Ratio (z) = 0.19708 -0.13710
#
# Static dielectric constant tensor:
#      x y z
#    x 1.713380 0.000000 0.000000 
#    y 0.000000 1.732780 0.000000 
#    z 0.000000 0.000000 1.697420 
# 
# From -- ./inp_files/24214.got.cif
#   From: 2010.05.17/outbox.cif.g08.bks.cpg/sg64_13_cif.got.tgz:24214.got - 2010.06.03 16:29:19.
