data_PCOD9477560
_publ_section_title
;
Structure prediction by ZEFSAII (Michael W. Deem and Ramdas Pophale) SiO2 
 PCOD9477560
Probable space group: C M C A
;
_chemical_formula_sum "Si O2"
_cell_formula_units_Z 104
_cell_length_a 9.776936
_cell_length_b 22.395049
_cell_length_c 25.692473
_cell_angle_alpha 90.000000
_cell_angle_beta 90.000000
_cell_angle_gamma 90.000000
_cell_volume 5625.494418
_symmetry_space_group_name_H-M "C M C A"
_symmetry_group_IT_number 64
_symmetry_cell_setting 'orthorhombic'
loop_
_space_group_symop_operation_xyz
x,y,z
-x,1/2-y,1/2+z
x,-y,-z
-x,1/2+y,1/2-z
-x,-y,-z
x,1/2+y,1/2-z
-x,y,z
x,1/2-y,1/2+z
1/2+x,1/2+y,z
1/2-x,-y,1/2+z
1/2+x,1/2-y,-z
1/2-x,y,1/2-z
1/2-x,1/2-y,-z
1/2+x,y,1/2-z
1/2-x,1/2+y,z
1/2+x,-y,1/2+z
loop_
_atom_site_type_symbol
_atom_site_label
_atom_site_fract_x
_atom_site_fract_y
_atom_site_fract_z
Si Si1 0.164426 0.423933 0.697206
Si Si2 0.341998 0.077847 0.098098
Si Si3 0.648159 0.887571 0.443312
Si Si4 0.159192 0.280318 0.701530
Si Si5 0.846359 0.178896 0.051998
Si Si6 0.234019 0.500000 0.000000
Si Si7 0.659313 0.798590 0.103032
O O1 0.250000 0.440222 0.750000
O O2 0.246661 0.446035 0.645614
O O3 0.173012 0.351490 0.693263
O O4 0.000000 0.438917 0.698791
O O5 0.500000 0.086149 0.114723
O O6 0.269043 0.139378 0.079887
O O7 0.341101 0.036470 0.046094
O O8 0.500000 0.887774 0.418140
O O9 0.647032 0.844260 0.493488
O O10 0.680096 0.951518 0.467867
O O11 0.758946 0.858765 0.405938
O O12 0.250000 0.263463 0.750000
O O13 0.201260 0.240546 0.652625
O O14 0.000000 0.269003 0.711610
O O15 0.824320 0.249247 0.057505
O O16 0.000000 0.167278 0.075551
O O17 0.500000 0.813063 0.106777
#
# Coordination Sequence:
#
# PCOD9477560 Si02
#       7
#    16  16  16  16  16   8  16
#     4  10  19  34  55  82 116 149 185 228 283 343
#     4  11  21  34  56  83 111 147 193 240 286 337
#     4  10  21  35  55  78 101 139 187 228 271 328
#     4   9  18  32  51  77 111 148 179 214 266 327
#     4   9  18  34  51  74 111 147 175 215 274 333
#     4  10  24  42  56  76 112 152 194 242 294 348
#     4  10  19  33  52  77 112 146 173 216 277 328
#
# _framework density 18.487264
#
# number of rings (size 3 to 8) (size 9 to 14) (size 15 to 20)
#    0.000    2.154    1.538    1.846    0.000    6.769 
#    0.000    0.000    0.000    0.923    0.000    2.154 
#    0.000    0.000    0.000    0.000    0.000    0.000 
#
# Total GULP energy -289635.704618 kJ/mol
# GULP energy per Si atom -5569.917397 kJ/mol
# Density = 1.844519 g / cm^3
# Si number density = 18.487264 Si / 1000 Ang^3
#
#
#
# Elastic Constant Matrix: (Units=GPa)
#
#
# Indices 1 2 3 4 5 6 
#
# 1 106.5437 31.4041 42.3519 0.0000 0.0000 0.0000
# 2 31.4041 58.7290 6.0054 0.0000 0.0000 0.0000
# 3 42.3519 6.0054 58.6111 0.0000 0.0000 0.0000
# 4 0.0000 0.0000 0.0000 26.1004 0.0000 0.0000
# 5 0.0000 0.0000 0.0000 0.0000 27.4655 0.0000
# 6 0.0000 0.0000 0.0000 0.0000 0.0000 -7.1865
#
#
#
# Elastic Compliance Matrix: (Units=1/GPa)
#
#
# Indices 1 2 3 4 5 6 
#
# 1 0.015789 -0.007353 -0.010655 0.000000 0.000000 0.000000
# 2 -0.007353 0.020632 0.003199 0.000000 0.000000 0.000000
# 3 -0.010655 0.003199 0.024433 0.000000 0.000000 0.000000
# 4 0.000000 0.000000 0.000000 0.038314 0.000000 0.000000
# 5 0.000000 0.000000 0.000000 0.000000 0.036409 0.000000
# 6 0.000000 0.000000 0.000000 0.000000 0.000000 -0.139150
#
#
# Mechanical properties :
#
#
# Convention : Reuss Voigt Hill
#
# Bulk Modulus (GPa) = 32.01459 42.60072 37.30765
# Shear Modulus (GPa) = 137.14403 18.88405 78.01404
#
# Velocity S-wave (km/s) = 8.62230 3.19950 6.50311
# Velocity P-wave (km/s) = 10.79259 6.06155 8.75278
#
# Compressibility (1/GPa) = 0.03123576
#
# Stress axis : x y z
#
# Youngs Moduli (GPa) = 63.33603 48.46810 40.92765
#
# Poissons Ratio (x) = 0.35639 0.43610
# Poissons Ratio (y) = 0.46572 -0.13094
# Poissons Ratio (z) = 0.67487 -0.15506
#
# Static dielectric constant tensor:
#      x y z
#    x 1.659430 0.000000 0.000000 
#    y 0.000000 1.632370 0.000000 
#    z 0.000000 0.000000 1.669190 
# 
# From -- ./inp_files/48460.got.cif
#   From: 2010.05.17/outbox.cif.g08.bks.cpg/sg64_25_cif.got.tgz:48460.got - 2010.06.03 16:29:19.
