data_PCOD9477792
_publ_section_title
;
Structure prediction by ZEFSAII (Michael W. Deem and Ramdas Pophale) SiO2 
 PCOD9477792
Probable space group: C M C A
;
_chemical_formula_sum "Si O2"
_cell_formula_units_Z 120
_cell_length_a 25.163594
_cell_length_b 22.271172
_cell_length_c 12.408713
_cell_angle_alpha 90.000000
_cell_angle_beta 90.000000
_cell_angle_gamma 90.000000
_cell_volume 6954.124817
_symmetry_space_group_name_H-M "C M C A"
_symmetry_group_IT_number 64
_symmetry_cell_setting 'orthorhombic'
loop_
_space_group_symop_operation_xyz
x,y,z
-x,1/2-y,1/2+z
x,-y,-z
-x,1/2+y,1/2-z
-x,-y,-z
x,1/2+y,1/2-z
-x,y,z
x,1/2-y,1/2+z
1/2+x,1/2+y,z
1/2-x,-y,1/2+z
1/2+x,1/2-y,-z
1/2-x,y,1/2-z
1/2-x,1/2-y,-z
1/2+x,y,1/2-z
1/2-x,1/2+y,z
1/2+x,-y,1/2+z
loop_
_atom_site_type_symbol
_atom_site_label
_atom_site_fract_x
_atom_site_fract_y
_atom_site_fract_z
Si Si1 0.716952 0.103128 0.847772
Si Si2 0.362836 0.323411 0.840137
Si Si3 0.673464 0.500000 0.500000
Si Si4 0.351696 0.885951 0.879538
Si Si5 0.061478 0.186441 0.960566
Si Si6 0.057887 0.673646 0.979994
Si Si7 0.253895 0.819818 0.530730
Si Si8 0.618200 0.685544 0.732254
O O1 0.750000 0.077518 0.750000
O O2 0.666950 0.142415 0.804350
O O3 0.702250 0.049957 0.928215
O O4 0.754538 0.147240 0.915984
O O5 0.365547 0.370007 0.742527
O O6 0.306252 0.328402 0.899102
O O7 0.367040 0.255792 0.789563
O O8 0.407742 0.333877 0.931205
O O9 0.648120 0.543822 0.409908
O O10 0.297001 0.849583 0.908706
O O11 0.395635 0.859066 0.958292
O O12 0.096307 0.175393 0.852818
O O13 0.000000 0.165039 0.952124
O O14 0.058694 0.258335 0.976973
O O15 0.071314 0.673713 0.853721
O O16 0.000000 0.647363 0.000753
O O17 0.250000 0.750000 0.500000
#
# Coordination Sequence:
#
# PCOD9477792 Si02
#       8
#    16  16   8  16  16  16  16  16
#     4  11  23  36  61  83 121 162 202 249 296 359
#     4  11  22  33  58  88 124 157 198 241 307 359
#     4  10  24  44  57  78 124 160 213 246 288 348
#     4  11  22  40  58  84 119 160 200 252 288 358
#     4  10  21  35  55  89 128 155 188 245 318 375
#     4  10  19  34  57  85 114 156 197 242 305 359
#     4  11  20  34  55  89 124 152 191 244 305 360
#     4  11  19  36  56  88 123 155 195 246 303 361
#
# _framework density 17.255946000000002
#
# number of rings (size 3 to 8) (size 9 to 14) (size 15 to 20)
#    0.000    1.333    5.333    2.400    1.867    3.200 
#    0.000    0.333    0.000    0.000    0.000    0.933 
#    0.000    0.000    0.000    0.000    0.000    0.000 
#
# Total GULP energy -334309.918547 kJ/mol
# GULP energy per Si atom -5571.831976 kJ/mol
# Density = 1.721667 g / cm^3
# Si number density = 17.255946 Si / 1000 Ang^3
#
#
#
# Elastic Constant Matrix: (Units=GPa)
#
#
# Indices 1 2 3 4 5 6 
#
# 1 90.1540 30.6761 38.8165 0.0000 0.0000 0.0000
# 2 30.6761 79.8092 46.1611 0.0000 0.0000 0.0000
# 3 38.8165 46.1611 131.6681 0.0000 0.0000 0.0000
# 4 0.0000 0.0000 0.0000 29.7257 0.0000 0.0000
# 5 0.0000 0.0000 0.0000 0.0000 1.6329 0.0000
# 6 0.0000 0.0000 0.0000 0.0000 0.0000 10.4373
#
#
#
# Elastic Compliance Matrix: (Units=1/GPa)
#
#
# Indices 1 2 3 4 5 6 
#
# 1 0.013489 -0.003619 -0.002708 0.000000 0.000000 0.000000
# 2 -0.003619 0.016688 -0.004784 0.000000 0.000000 0.000000
# 3 -0.002708 -0.004784 0.010070 0.000000 0.000000 0.000000
# 4 0.000000 0.000000 0.000000 0.033641 0.000000 0.000000
# 5 0.000000 0.000000 0.000000 0.000000 0.612424 0.000000
# 6 0.000000 0.000000 0.000000 0.000000 0.000000 0.095810
#
#
# Mechanical properties :
#
#
# Convention : Reuss Voigt Hill
#
# Bulk Modulus (GPa) = 55.47357 59.21541 57.34449
# Shear Modulus (GPa) = 6.17016 20.75768 13.46392
#
# Velocity S-wave (km/s) = 1.89300 3.47209 2.79632
# Velocity P-wave (km/s) = 6.08237 7.10382 6.61285
#
# Compressibility (1/GPa) = 0.01802660
#
# Stress axis : x y z
#
# Youngs Moduli (GPa) = 74.13226 59.92484 99.30170
#
# Poissons Ratio (x) = 0.21684 0.26892
# Poissons Ratio (y) = 0.26825 0.47503
# Poissons Ratio (z) = 0.20076 0.28666
#
# Static dielectric constant tensor:
#      x y z
#    x 1.602960 0.000000 0.000000 
#    y 0.000000 1.595700 0.000000 
#    z 0.000000 0.000000 1.622930 
# 
# From -- ./inp_files/19351.got.cif
#   From: 2010.05.17/outbox.cif.g08.bks.cpg/sg64_10_cif.got.tgz:19351.got - 2010.06.03 16:29:19.
