data_PCOD9477631
_publ_section_title
;
Structure prediction by ZEFSAII (Michael W. Deem and Ramdas Pophale) SiO2 
 PCOD9477631
Probable space group: C M C A
;
_chemical_formula_sum "Si O2"
_cell_formula_units_Z 80
_cell_length_a 15.370606
_cell_length_b 26.794578
_cell_length_c 9.200703
_cell_angle_alpha 90.000000
_cell_angle_beta 90.000000
_cell_angle_gamma 90.000000
_cell_volume 3789.299422
_symmetry_space_group_name_H-M "C M C A"
_symmetry_group_IT_number 64
_symmetry_cell_setting 'orthorhombic'
loop_
_space_group_symop_operation_xyz
x,y,z
-x,1/2-y,1/2+z
x,-y,-z
-x,1/2+y,1/2-z
-x,-y,-z
x,1/2+y,1/2-z
-x,y,z
x,1/2-y,1/2+z
1/2+x,1/2+y,z
1/2-x,-y,1/2+z
1/2+x,1/2-y,-z
1/2-x,y,1/2-z
1/2-x,1/2-y,-z
1/2+x,y,1/2-z
1/2-x,1/2+y,z
1/2+x,-y,1/2+z
loop_
_atom_site_type_symbol
_atom_site_label
_atom_site_fract_x
_atom_site_fract_y
_atom_site_fract_z
Si Si1 0.152221 0.095924 0.808822
Si Si2 0.898453 0.411765 0.631658
Si Si3 0.399005 0.503439 0.342272
Si Si4 0.844758 0.802572 0.824441
Si Si5 0.345391 0.794269 0.326311
O O1 0.250000 0.095902 0.750000
O O2 0.104688 0.050332 0.732199
O O3 0.114129 0.151775 0.788999
O O4 0.151953 0.086890 0.980544
O O5 0.862540 0.453340 0.740226
O O6 0.891473 0.355637 0.691893
O O7 0.000000 0.422700 0.598914
O O8 0.356463 0.500000 0.500000
O O9 0.500000 0.518275 0.362831
O O10 0.750000 0.808890 0.750000
O O11 0.886940 0.755279 0.742352
O O12 0.838161 0.791539 0.998117
O O13 0.250000 0.795351 0.250000
#
# Coordination Sequence:
#
# PCOD9477631 Si02
#       5
#    16  16  16  16  16
#     4  10  21  36  58  85 111 147 195 239 284 343
#     4  10  22  40  59  82 118 159 193 234 294 350
#     4  10  22  38  56  80 113 152 190 235 294 349
#     4  10  19  33  56  81 110 148 190 232 279 339
#     4   9  18  32  52  81 111 143 181 229 288 336
#
# _framework density 21.112082000000001
#
# number of rings (size 3 to 8) (size 9 to 14) (size 15 to 20)
#    0.000    2.200    0.000    3.600    0.000   10.400 
#    0.000    5.000    0.000    0.000    0.000    0.000 
#    0.000    0.000    0.000    0.000    0.000    0.000 
#
# Total GULP energy -223164.787540 kJ/mol
# GULP energy per Si atom -5579.119688 kJ/mol
# Density = 2.106403 g / cm^3
# Si number density = 21.112082 Si / 1000 Ang^3
#
#
#
# Elastic Constant Matrix: (Units=GPa)
#
#
# Indices 1 2 3 4 5 6 
#
# 1 42.2831 6.7731 20.4401 0.0000 0.0000 0.0000
# 2 6.7731 152.6325 95.2236 0.0000 0.0000 0.0000
# 3 20.4401 95.2236 136.5656 0.0000 0.0000 0.0000
# 4 0.0000 0.0000 0.0000 40.4794 0.0000 0.0000
# 5 0.0000 0.0000 0.0000 0.0000 14.2879 0.0000
# 6 0.0000 0.0000 0.0000 0.0000 0.0000 30.6402
#
#
#
# Elastic Compliance Matrix: (Units=1/GPa)
#
#
# Indices 1 2 3 4 5 6 
#
# 1 0.025923 0.002248 -0.005448 0.000000 0.000000 0.000000
# 2 0.002248 0.011791 -0.008558 0.000000 0.000000 0.000000
# 3 -0.005448 -0.008558 0.014105 0.000000 0.000000 0.000000
# 4 0.000000 0.000000 0.000000 0.024704 0.000000 0.000000
# 5 0.000000 0.000000 0.000000 0.000000 0.069989 0.000000
# 6 0.000000 0.000000 0.000000 0.000000 0.000000 0.032637
#
#
# Mechanical properties :
#
#
# Convention : Reuss Voigt Hill
#
# Bulk Modulus (GPa) = 35.32981 64.03945 49.68463
# Shear Modulus (GPa) = 23.57379 31.01779 27.29579
#
# Velocity S-wave (km/s) = 3.34518 3.83717 3.59959
# Velocity P-wave (km/s) = 5.62948 7.07324 6.39225
#
# Compressibility (1/GPa) = 0.02830471
#
# Stress axis : x y z
#
# Youngs Moduli (GPa) = 38.57513 84.80948 70.89561
#
# Poissons Ratio (x) = -0.19068 0.38622
# Poissons Ratio (y) = -0.08673 0.60674
# Poissons Ratio (z) = 0.21015 0.72581
#
# Static dielectric constant tensor:
#      x y z
#    x 1.763770 0.000000 0.000000 
#    y 0.000000 1.819820 0.000000 
#    z 0.000000 0.000000 1.744850 
# 
# From -- ./inp_files/7092.got.cif
#   From: 2010.05.17/outbox.cif.g08.bks.cpg/sg64_4_cif.got.tgz:7092.got - 2010.06.03 16:29:19.
