data_PCOD9477170
_publ_section_title
;
Structure prediction by ZEFSAII (Michael W. Deem and Ramdas Pophale) SiO2 
 PCOD9477170
Probable space group: C M C A
;
_chemical_formula_sum "Si O2"
_cell_formula_units_Z 88
_cell_length_a 9.806902
_cell_length_b 15.172073
_cell_length_c 31.857845
_cell_angle_alpha 90.000000
_cell_angle_beta 90.000000
_cell_angle_gamma 90.000000
_cell_volume 4740.161668
_symmetry_space_group_name_H-M "C M C A"
_symmetry_group_IT_number 64
_symmetry_cell_setting 'orthorhombic'
loop_
_space_group_symop_operation_xyz
x,y,z
-x,1/2-y,1/2+z
x,-y,-z
-x,1/2+y,1/2-z
-x,-y,-z
x,1/2+y,1/2-z
-x,y,z
x,1/2-y,1/2+z
1/2+x,1/2+y,z
1/2-x,-y,1/2+z
1/2+x,1/2-y,-z
1/2-x,y,1/2-z
1/2-x,1/2-y,-z
1/2+x,y,1/2-z
1/2-x,1/2+y,z
1/2+x,-y,1/2+z
loop_
_atom_site_type_symbol
_atom_site_label
_atom_site_fract_x
_atom_site_fract_y
_atom_site_fract_z
Si Si1 0.655842 0.390140 0.163277
Si Si2 0.000000 0.438335 0.540054
Si Si3 0.255113 0.220526 0.376056
Si Si4 0.500000 0.449198 0.456184
Si Si5 0.000000 0.251729 0.059153
Si Si6 0.239061 0.529822 0.098465
Si Si7 0.841131 0.232605 0.712357
O O1 0.500000 0.402845 0.177368
O O2 0.660608 0.305500 0.131569
O O3 0.713457 0.473579 0.138518
O O4 0.761878 0.357442 0.198812
O O5 0.000000 0.500000 0.500000
O O6 0.000000 0.334197 0.529867
O O7 0.130648 0.456911 0.568722
O O8 0.368956 0.244930 0.410371
O O9 0.190292 0.127619 0.388558
O O10 0.327821 0.210900 0.330449
O O11 0.500000 0.500000 0.500000
O O12 0.500000 0.344803 0.463566
O O13 0.371585 0.476946 0.428034
O O14 0.750000 0.270526 0.750000
O O15 0.000000 0.221116 0.723014
#
# Coordination Sequence:
#
# PCOD9477170 Si02
#       7
#    16   8  16   8   8  16  16
#     4  10  20  36  60  87 116 152 201 239 290 347
#     4  10  22  42  60  87 116 155 199 251 303 355
#     4   9  20  37  62  83 115 158 197 237 295 348
#     4  12  24  40  56  91 122 155 195 257 311 353
#     4  10  18  42  62  80 114 166 196 234 304 366
#     4  11  22  38  63  85 118 154 204 245 294 368
#     4  10  20  36  60  89 125 158 194 242 294 348
#
# _framework density 18.564767
#
# number of rings (size 3 to 8) (size 9 to 14) (size 15 to 20)
#    1.091    0.727    3.636    1.091    2.545    0.000 
#    3.273    3.636    0.000    2.182    0.000    0.000 
#    0.000    0.000    0.000    0.000    0.000    0.000 
#
# Total GULP energy -245055.852960 kJ/mol
# GULP energy per Si atom -5569.451204 kJ/mol
# Density = 1.852251 g / cm^3
# Si number density = 18.564767 Si / 1000 Ang^3
#
#
#
# Elastic Constant Matrix: (Units=GPa)
#
#
# Indices 1 2 3 4 5 6 
#
# 1 97.2376 6.7451 4.5913 0.0000 0.0000 0.0000
# 2 6.7451 103.1405 21.3999 0.0000 0.0000 0.0000
# 3 4.5913 21.3999 60.0369 0.0000 0.0000 0.0000
# 4 0.0000 0.0000 0.0000 22.0140 0.0000 0.0000
# 5 0.0000 0.0000 0.0000 0.0000 20.2574 0.0000
# 6 0.0000 0.0000 0.0000 0.0000 0.0000 20.3865
#
#
#
# Elastic Compliance Matrix: (Units=1/GPa)
#
#
# Indices 1 2 3 4 5 6 
#
# 1 0.010351 -0.000554 -0.000594 0.000000 0.000000 0.000000
# 2 -0.000554 0.010499 -0.003700 0.000000 0.000000 0.000000
# 3 -0.000594 -0.003700 0.018021 0.000000 0.000000 0.000000
# 4 0.000000 0.000000 0.000000 0.045426 0.000000 0.000000
# 5 0.000000 0.000000 0.000000 0.000000 0.049365 0.000000
# 6 0.000000 0.000000 0.000000 0.000000 0.000000 0.049052
#
#
# Mechanical properties :
#
#
# Convention : Reuss Voigt Hill
#
# Bulk Modulus (GPa) = 34.27615 36.20972 35.24294
# Shear Modulus (GPa) = 24.73608 27.71017 26.22312
#
# Velocity S-wave (km/s) = 3.65419 3.86764 3.76243
# Velocity P-wave (km/s) = 6.02555 6.28424 6.15626
#
# Compressibility (1/GPa) = 0.02917480
#
# Stress axis : x y z
#
# Youngs Moduli (GPa) = 96.61323 95.24327 55.49159
#
# Poissons Ratio (x) = 0.05273 0.03297
# Poissons Ratio (y) = 0.05349 0.20533
# Poissons Ratio (z) = 0.05741 0.35241
#
# Static dielectric constant tensor:
#      x y z
#    x 1.641530 0.000000 0.000000 
#    y 0.000000 1.649240 0.000000 
#    z 0.000000 0.000000 1.641050 
# 
# From -- ./inp_files/49259.got.cif
#   From: 2010.05.17/outbox.cif.g08.bks.cpg/sg64_25_cif.got.tgz:49259.got - 2010.06.03 16:29:19.
