data_PCOD9477983
_publ_section_title
;
Structure prediction by ZEFSAII (Michael W. Deem and Ramdas Pophale) SiO2 
 PCOD9477983
Probable space group: C M C A
;
_chemical_formula_sum "Si O2"
_cell_formula_units_Z 88
_cell_length_a 16.786678
_cell_length_b 33.440592
_cell_length_c 7.145977
_cell_angle_alpha 90.000000
_cell_angle_beta 90.000000
_cell_angle_gamma 90.000000
_cell_volume 4011.440281
_symmetry_space_group_name_H-M "C M C A"
_symmetry_group_IT_number 64
_symmetry_cell_setting 'orthorhombic'
loop_
_space_group_symop_operation_xyz
x,y,z
-x,1/2-y,1/2+z
x,-y,-z
-x,1/2+y,1/2-z
-x,-y,-z
x,1/2+y,1/2-z
-x,y,z
x,1/2-y,1/2+z
1/2+x,1/2+y,z
1/2-x,-y,1/2+z
1/2+x,1/2-y,-z
1/2-x,y,1/2-z
1/2-x,1/2-y,-z
1/2+x,y,1/2-z
1/2-x,1/2+y,z
1/2+x,-y,1/2+z
loop_
_atom_site_type_symbol
_atom_site_label
_atom_site_fract_x
_atom_site_fract_y
_atom_site_fract_z
Si Si1 0.588194 0.210561 0.428887
Si Si2 0.411263 0.195188 0.988473
Si Si3 0.758973 0.838141 0.977642
Si Si4 0.585624 0.961000 0.871776
Si Si5 0.843410 0.500000 0.500000
Si Si6 0.240620 0.426833 0.975102
O O1 0.500000 0.201534 0.510444
O O2 0.595784 0.258467 0.427288
O O3 0.586967 0.196124 0.214729
O O4 0.665676 0.190203 0.520376
O O5 0.500000 0.180307 0.929968
O O6 0.327185 0.174362 0.941632
O O7 0.750000 0.837509 0.750000
O O8 0.773662 0.884105 0.031982
O O9 0.500000 0.941251 0.854014
O O10 0.608997 0.979184 0.668672
O O11 0.646030 0.931820 0.979439
O O12 0.582567 0.000000 0.000000
O O13 0.786446 0.463842 0.434584
O O14 0.250000 0.431255 0.750000
#
# Coordination Sequence:
#
# PCOD9477983 Si02
#       6
#    16  16  16  16   8  16
#     4   9  17  30  49  71  98 132 169 212 258 310
#     4   9  17  29  49  71  98 133 168 211 259 309
#     4   9  17  30  48  76 101 128 175 213 257 312
#     4  10  20  34  56  82 106 138 181 226 270 323
#     4  10  19  36  57  78 106 144 182 220 269 328
#     4   9  18  32  53  76 103 137 174 220 269 320
#
# _framework density 21.937258
#
# number of rings (size 3 to 8) (size 9 to 14) (size 15 to 20)
#    0.000    2.727    0.909    0.818    0.000    0.727 
#    0.000   10.000    8.000    0.000    0.000    0.000 
#    0.000    0.000    0.000    0.000    0.000    0.000 
#
# Total GULP energy -245220.189052 kJ/mol
# GULP energy per Si atom -5573.186115 kJ/mol
# Density = 2.188733 g / cm^3
# Si number density = 21.937258 Si / 1000 Ang^3
#
#
#
# Elastic Constant Matrix: (Units=GPa)
#
#
# Indices 1 2 3 4 5 6 
#
# 1 129.1854 35.3121 -29.3861 0.0000 0.0000 0.0000
# 2 35.3121 67.3444 -33.0430 0.0000 0.0000 0.0000
# 3 -29.3861 -33.0430 63.4185 0.0000 0.0000 0.0000
# 4 0.0000 0.0000 0.0000 12.3508 0.0000 0.0000
# 5 0.0000 0.0000 0.0000 0.0000 5.1733 0.0000
# 6 0.0000 0.0000 0.0000 0.0000 0.0000 9.2052
#
#
#
# Elastic Compliance Matrix: (Units=1/GPa)
#
#
# Indices 1 2 3 4 5 6 
#
# 1 0.009295 -0.003709 0.002375 0.000000 0.000000 0.000000
# 2 -0.003709 0.021429 0.009447 0.000000 0.000000 0.000000
# 3 0.002375 0.009447 0.021791 0.000000 0.000000 0.000000
# 4 0.000000 0.000000 0.000000 0.080966 0.000000 0.000000
# 5 0.000000 0.000000 0.000000 0.000000 0.193300 0.000000
# 6 0.000000 0.000000 0.000000 0.000000 0.000000 0.108635
#
#
# Mechanical properties :
#
#
# Convention : Reuss Voigt Hill
#
# Bulk Modulus (GPa) = 14.54775 22.85713 18.70244
# Shear Modulus (GPa) = 11.30959 24.48355 17.89657
#
# Velocity S-wave (km/s) = 2.27302 3.34439 2.85933
# Velocity P-wave (km/s) = 3.67896 5.03539 4.40965
#
# Compressibility (1/GPa) = 0.06873913
#
# Stress axis : x y z
#
# Youngs Moduli (GPa) = 107.58847 46.66642 45.89143
#
# Poissons Ratio (x) = 0.17307 -0.10897
# Poissons Ratio (y) = 0.39900 -0.43352
# Poissons Ratio (z) = -0.25548 -0.44084
#
# Static dielectric constant tensor:
#      x y z
#    x 1.918200 0.000000 0.000000 
#    y 0.000000 1.740620 0.000000 
#    z 0.000000 0.000000 1.860800 
# 
# From -- ./inp_files/7340.got.cif
#   From: 2010.05.17/outbox.cif.g08.bks.cpg/sg64_4_cif.got.tgz:7340.got - 2010.06.03 16:29:19.
