data_PCOD9477644
_publ_section_title
;
Structure prediction by ZEFSAII (Michael W. Deem and Ramdas Pophale) SiO2 
 PCOD9477644
Probable space group: C M C A
;
_chemical_formula_sum "Si O2"
_cell_formula_units_Z 64
_cell_length_a 16.281404
_cell_length_b 22.096902
_cell_length_c 7.000384
_cell_angle_alpha 90.000000
_cell_angle_beta 90.000000
_cell_angle_gamma 90.000000
_cell_volume 2518.518271
_symmetry_space_group_name_H-M "C M C A"
_symmetry_group_IT_number 64
_symmetry_cell_setting 'orthorhombic'
loop_
_space_group_symop_operation_xyz
x,y,z
-x,1/2-y,1/2+z
x,-y,-z
-x,1/2+y,1/2-z
-x,-y,-z
x,1/2+y,1/2-z
-x,y,z
x,1/2-y,1/2+z
1/2+x,1/2+y,z
1/2-x,-y,1/2+z
1/2+x,1/2-y,-z
1/2-x,y,1/2-z
1/2-x,1/2-y,-z
1/2+x,y,1/2-z
1/2-x,1/2+y,z
1/2+x,-y,1/2+z
loop_
_atom_site_type_symbol
_atom_site_label
_atom_site_fract_x
_atom_site_fract_y
_atom_site_fract_z
Si Si1 0.096267 0.572788 0.695615
Si Si2 0.905097 0.323838 0.749419
Si Si3 0.163997 0.699993 0.643333
Si Si4 0.346769 0.445830 0.755381
O O1 0.124769 0.640710 0.739810
O O2 0.118067 0.562119 0.471132
O O3 0.136691 0.515431 0.799163
O O4 0.000000 0.568025 0.720880
O O5 0.888716 0.261646 0.859559
O O6 0.837936 0.318431 0.579034
O O7 0.889240 0.388659 0.847773
O O8 0.000000 0.324018 0.680202
O O9 0.250000 0.709264 0.750000
O O10 0.250000 0.437225 0.750000
#
# Coordination Sequence:
#
# PCOD9477644 Si02
#       4
#    16  16  16  16
#     4  10  20  38  59  83 112 150 191 234 284 343
#     4  11  22  39  59  84 115 154 192 233 285 345
#     4  11  22  37  59  87 116 149 191 239 287 337
#     4  10  19  33  56  84 110 142 187 236 280 331
#
# _framework density 25.411767999999999
#
# number of rings (size 3 to 8) (size 9 to 14) (size 15 to 20)
#    0.000    1.500    0.000    9.000    0.000    2.000 
#    0.000    0.000    0.000    0.000    0.000   36.750 
#    0.000    0.000    0.000    0.000    0.000    0.000 
#
# Total GULP energy -178885.457832 kJ/mol
# GULP energy per Si atom -5590.170557 kJ/mol
# Density = 2.535393 g / cm^3
# Si number density = 25.411768 Si / 1000 Ang^3
#
#
#
# Elastic Constant Matrix: (Units=GPa)
#
#
# Indices 1 2 3 4 5 6 
#
# 1 157.7576 51.5858 -18.6365 0.0000 0.0000 0.0000
# 2 51.5858 274.7798 4.8305 0.0000 0.0000 0.0000
# 3 -18.6365 4.8305 31.7134 0.0000 0.0000 0.0000
# 4 0.0000 0.0000 0.0000 30.8961 0.0000 0.0000
# 5 0.0000 0.0000 0.0000 0.0000 53.9108 0.0000
# 6 0.0000 0.0000 0.0000 0.0000 0.0000 50.7190
#
#
#
# Elastic Compliance Matrix: (Units=1/GPa)
#
#
# Indices 1 2 3 4 5 6 
#
# 1 0.007353 -0.001460 0.004544 0.000000 0.000000 0.000000
# 2 -0.001460 0.003939 -0.001458 0.000000 0.000000 0.000000
# 3 0.004544 -0.001458 0.034424 0.000000 0.000000 0.000000
# 4 0.000000 0.000000 0.000000 0.032367 0.000000 0.000000
# 5 0.000000 0.000000 0.000000 0.000000 0.018549 0.000000
# 6 0.000000 0.000000 0.000000 0.000000 0.000000 0.019716
#
#
# Mechanical properties :
#
#
# Convention : Reuss Voigt Hill
#
# Bulk Modulus (GPa) = 20.42202 59.97894 40.20048
# Shear Modulus (GPa) = 38.63363 55.53659 47.08511
#
# Velocity S-wave (km/s) = 3.90334 4.67997 4.30919
# Velocity P-wave (km/s) = 5.32622 7.27027 6.37281
#
# Compressibility (1/GPa) = 0.04896675
#
# Stress axis : x y z
#
# Youngs Moduli (GPa) = 135.99719 253.86756 29.04910
#
# Poissons Ratio (x) = 0.37072 -0.13198
# Poissons Ratio (y) = 0.19860 0.04236
# Poissons Ratio (z) = -0.61790 0.37017
#
# Static dielectric constant tensor:
#      x y z
#    x 1.902840 0.000000 0.000000 
#    y 0.000000 2.145100 0.000000 
#    z 0.000000 0.000000 2.110790 
# 
# From -- ./inp_files/5559.got.cif
#   From: 2010.05.17/outbox.cif.g08.bks.cpg/sg64_3_cif.got.tgz:5559.got - 2010.06.03 16:29:19.
