data_PCOD9477620
_publ_section_title
;
Structure prediction by ZEFSAII (Michael W. Deem and Ramdas Pophale) SiO2 
 PCOD9477620
Probable space group: C M C A
;
_chemical_formula_sum "Si O2"
_cell_formula_units_Z 96
_cell_length_a 8.603951
_cell_length_b 20.603957
_cell_length_c 28.583111
_cell_angle_alpha 90.000000
_cell_angle_beta 90.000000
_cell_angle_gamma 90.000000
_cell_volume 5067.083477
_symmetry_space_group_name_H-M "C M C A"
_symmetry_group_IT_number 64
_symmetry_cell_setting 'orthorhombic'
loop_
_space_group_symop_operation_xyz
x,y,z
-x,1/2-y,1/2+z
x,-y,-z
-x,1/2+y,1/2-z
-x,-y,-z
x,1/2+y,1/2-z
-x,y,z
x,1/2-y,1/2+z
1/2+x,1/2+y,z
1/2-x,-y,1/2+z
1/2+x,1/2-y,-z
1/2-x,y,1/2-z
1/2-x,1/2-y,-z
1/2+x,y,1/2-z
1/2-x,1/2+y,z
1/2+x,-y,1/2+z
loop_
_atom_site_type_symbol
_atom_site_label
_atom_site_fract_x
_atom_site_fract_y
_atom_site_fract_z
Si Si1 0.312456 0.311618 0.558385
Si Si2 0.185589 0.161896 0.959672
Si Si3 0.186003 0.104561 0.630456
Si Si4 0.810715 0.649411 0.161696
Si Si5 0.186405 0.287880 0.300181
Si Si6 0.312166 0.989536 0.801042
O O1 0.500000 0.313685 0.556246
O O2 0.245116 0.345769 0.512475
O O3 0.266558 0.235423 0.555666
O O4 0.262560 0.342132 0.607630
O O5 0.253144 0.112000 0.922152
O O6 0.000000 0.159297 0.958564
O O7 0.251033 0.165218 0.659744
O O8 0.235180 0.040489 0.658937
O O9 0.000000 0.106774 0.630062
O O10 0.762255 0.714111 0.189129
O O11 0.757773 0.582713 0.185052
O O12 0.000000 0.648626 0.161819
O O13 0.250000 0.308832 0.250000
O O14 0.000000 0.290016 0.300414
O O15 0.500000 0.989520 0.799175
O O16 0.250000 0.007894 0.750000
#
# Coordination Sequence:
#
# PCOD9477620 Si02
#       6
#    16  16  16  16  16  16
#     4   9  17  33  56  82 110 143 179 224 276 327
#     4  10  19  33  55  84 113 144 179 226 278 324
#     4  11  22  36  55  81 110 146 186 225 272 328
#     4   9  18  36  58  80 108 142 184 227 272 324
#     4  11  21  35  55  81 109 140 180 231 280 324
#     4  10  22  39  58  79 108 147 187 226 272 327
#
# _framework density 18.945809000000001
#
# number of rings (size 3 to 8) (size 9 to 14) (size 15 to 20)
#    0.000    2.000    1.667    2.500    0.000    3.333 
#    0.000    2.500    0.000    5.000    0.000    0.000 
#    0.000    0.000    0.000    0.000    0.000    0.000 
#
# Total GULP energy -268042.854345 kJ/mol
# GULP energy per Si atom -5584.226132 kJ/mol
# Density = 1.890269 g / cm^3
# Si number density = 18.945809 Si / 1000 Ang^3
#
#
#
# Elastic Constant Matrix: (Units=GPa)
#
#
# Indices 1 2 3 4 5 6 
#
# 1 16.4662 1.8765 5.6362 0.0000 0.0000 0.0000
# 2 1.8765 41.8764 -15.8752 0.0000 0.0000 0.0000
# 3 5.6362 -15.8752 75.4282 0.0000 0.0000 0.0000
# 4 0.0000 0.0000 0.0000 31.5618 0.0000 0.0000
# 5 0.0000 0.0000 0.0000 0.0000 28.0770 0.0000
# 6 0.0000 0.0000 0.0000 0.0000 0.0000 18.5047
#
#
#
# Elastic Compliance Matrix: (Units=1/GPa)
#
#
# Indices 1 2 3 4 5 6 
#
# 1 0.063285 -0.005030 -0.005787 0.000000 0.000000 0.000000
# 2 -0.005030 0.026350 0.005922 0.000000 0.000000 0.000000
# 3 -0.005787 0.005922 0.014936 0.000000 0.000000 0.000000
# 4 0.000000 0.000000 0.000000 0.031684 0.000000 0.000000
# 5 0.000000 0.000000 0.000000 0.000000 0.035616 0.000000
# 6 0.000000 0.000000 0.000000 0.000000 0.000000 0.054040
#
#
# Mechanical properties :
#
#
# Convention : Reuss Voigt Hill
#
# Bulk Modulus (GPa) = 10.55073 13.00509 11.77791
# Shear Modulus (GPa) = 18.70582 25.10424 21.90503
#
# Velocity S-wave (km/s) = 3.14559 3.64408 3.40397
# Velocity P-wave (km/s) = 4.33290 4.95833 4.65613
#
# Compressibility (1/GPa) = 0.09478014
#
# Stress axis : x y z
#
# Youngs Moduli (GPa) = 15.80159 37.95051 66.95043
#
# Poissons Ratio (x) = 0.19088 0.38747
# Poissons Ratio (y) = 0.07948 -0.39646
# Poissons Ratio (z) = 0.09145 -0.22473
#
# Static dielectric constant tensor:
#      x y z
#    x 1.643470 0.000000 0.000000 
#    y 0.000000 1.660640 0.000000 
#    z 0.000000 0.000000 1.625280 
# 
# From -- ./inp_files/48046.got.cif
#   From: 2010.05.17/outbox.cif.g08.bks.cpg/sg64_25_cif.got.tgz:48046.got - 2010.06.03 16:29:19.
