data_PCOD9477348
_publ_section_title
;
Structure prediction by ZEFSAII (Michael W. Deem and Ramdas Pophale) SiO2 
 PCOD9477348
Probable space group: C M C A
;
_chemical_formula_sum "Si O2"
_cell_formula_units_Z 88
_cell_length_a 9.541542
_cell_length_b 23.618739
_cell_length_c 23.760714
_cell_angle_alpha 90.000000
_cell_angle_beta 90.000000
_cell_angle_gamma 90.000000
_cell_volume 5354.695265
_symmetry_space_group_name_H-M "C M C A"
_symmetry_group_IT_number 64
_symmetry_cell_setting 'orthorhombic'
loop_
_space_group_symop_operation_xyz
x,y,z
-x,1/2-y,1/2+z
x,-y,-z
-x,1/2+y,1/2-z
-x,-y,-z
x,1/2+y,1/2-z
-x,y,z
x,1/2-y,1/2+z
1/2+x,1/2+y,z
1/2-x,-y,1/2+z
1/2+x,1/2-y,-z
1/2-x,y,1/2-z
1/2-x,1/2-y,-z
1/2+x,y,1/2-z
1/2-x,1/2+y,z
1/2+x,-y,1/2+z
loop_
_atom_site_type_symbol
_atom_site_label
_atom_site_fract_x
_atom_site_fract_y
_atom_site_fract_z
Si Si1 0.160833 0.007499 0.934151
Si Si2 0.162111 0.080376 0.649788
Si Si3 0.250000 0.501557 0.250000
Si Si4 0.666376 0.814962 0.308816
Si Si5 0.345782 0.411479 0.844306
Si Si6 0.835666 0.811952 0.691842
O O1 0.272846 0.046045 0.902222
O O2 0.000000 0.029398 0.927099
O O3 0.164521 0.948351 0.900596
O O4 0.187669 0.000000 0.000000
O O5 0.173407 0.040435 0.705852
O O6 0.259661 0.135124 0.657459
O O7 0.000000 0.095219 0.641951
O O8 0.331440 0.544314 0.208011
O O9 0.500000 0.825692 0.300504
O O10 0.750000 0.814605 0.250000
O O11 0.681363 0.751289 0.332918
O O12 0.500000 0.384959 0.840626
O O13 0.228136 0.363790 0.842460
O O14 0.750000 0.813232 0.750000
O O15 0.000000 0.820477 0.702477
#
# Coordination Sequence:
#
# PCOD9477348 Si02
#       6
#    16  16   8  16  16  16
#     4   9  20  38  56  75 102 137 174 213 261 310
#     4  11  21  32  52  78 106 136 170 214 256 305
#     4  10  20  30  46  74 108 136 164 200 256 308
#     4  10  20  33  49  72 104 139 172 206 250 304
#     4  10  19  31  51  75 102 134 168 206 250 304
#     4  10  20  32  48  72 104 138 170 206 249 300
#
# _framework density 16.434173999999999
#
# number of rings (size 3 to 8) (size 9 to 14) (size 15 to 20)
#    0.000    2.000    1.818    2.182    0.000    6.909 
#    0.000    0.000    0.000    1.091    0.000    0.000 
#    0.000    0.000    0.000    0.000    0.000    0.000 
#
# Total GULP energy -245177.139492 kJ/mol
# GULP energy per Si atom -5572.207716 kJ/mol
# Density = 1.639677 g / cm^3
# Si number density = 16.434174 Si / 1000 Ang^3
#
#
#
# Elastic Constant Matrix: (Units=GPa)
#
#
# Indices 1 2 3 4 5 6 
#
# 1 136.7297 67.6845 39.6807 0.0000 0.0000 0.0000
# 2 67.6845 94.2989 31.0029 0.0000 0.0000 0.0000
# 3 39.6807 31.0029 87.3644 0.0000 0.0000 0.0000
# 4 0.0000 0.0000 0.0000 8.7549 0.0000 0.0000
# 5 0.0000 0.0000 0.0000 0.0000 13.3446 0.0000
# 6 0.0000 0.0000 0.0000 0.0000 0.0000 -64.5719
#
#
#
# Elastic Compliance Matrix: (Units=1/GPa)
#
#
# Indices 1 2 3 4 5 6 
#
# 1 0.011875 -0.007642 -0.002682 0.000000 0.000000 0.000000
# 2 -0.007642 0.016923 -0.002535 0.000000 0.000000 0.000000
# 3 -0.002682 -0.002535 0.013564 0.000000 0.000000 0.000000
# 4 0.000000 0.000000 0.000000 0.114222 0.000000 0.000000
# 5 0.000000 0.000000 0.000000 0.000000 0.074936 0.000000
# 6 0.000000 0.000000 0.000000 0.000000 0.000000 -0.015487
#
#
# Mechanical properties :
#
#
# Convention : Reuss Voigt Hill
#
# Bulk Modulus (GPa) = 60.07623 66.12545 63.10084
# Shear Modulus (GPa) = 20.21858 3.50719 11.86289
#
# Velocity S-wave (km/s) = 3.51134 1.46243 2.68963
# Velocity P-wave (km/s) = 7.28521 6.57081 6.93721
#
# Compressibility (1/GPa) = 0.01664552
#
# Stress axis : x y z
#
# Youngs Moduli (GPa) = 84.21229 59.09202 73.72586
#
# Poissons Ratio (x) = 0.45156 0.19771
# Poissons Ratio (y) = 0.64352 0.18686
# Poissons Ratio (z) = 0.22583 0.14977
#
# Static dielectric constant tensor:
#      x y z
#    x 1.559320 0.000000 0.000000 
#    y 0.000000 1.577300 0.000000 
#    z 0.000000 0.000000 1.522160 
# 
# From -- ./inp_files/36786.got.cif
#   From: 2010.05.17/outbox.cif.g08.bks.cpg/sg64_19_cif.got.tgz:36786.got - 2010.06.03 16:29:19.
