data_PCOD9477378
_publ_section_title
;
Structure prediction by ZEFSAII (Michael W. Deem and Ramdas Pophale) SiO2 
 PCOD9477378
Probable space group: C M C A
;
_chemical_formula_sum "Si O2"
_cell_formula_units_Z 96
_cell_length_a 8.990022
_cell_length_b 20.367839
_cell_length_c 28.295789
_cell_angle_alpha 90.000000
_cell_angle_beta 90.000000
_cell_angle_gamma 90.000000
_cell_volume 5181.166111
_symmetry_space_group_name_H-M "C M C A"
_symmetry_group_IT_number 64
_symmetry_cell_setting 'orthorhombic'
loop_
_space_group_symop_operation_xyz
x,y,z
-x,1/2-y,1/2+z
x,-y,-z
-x,1/2+y,1/2-z
-x,-y,-z
x,1/2+y,1/2-z
-x,y,z
x,1/2-y,1/2+z
1/2+x,1/2+y,z
1/2-x,-y,1/2+z
1/2+x,1/2-y,-z
1/2-x,y,1/2-z
1/2-x,1/2-y,-z
1/2+x,y,1/2-z
1/2-x,1/2+y,z
1/2+x,-y,1/2+z
loop_
_atom_site_type_symbol
_atom_site_label
_atom_site_fract_x
_atom_site_fract_y
_atom_site_fract_z
Si Si1 0.178536 0.903397 0.126585
Si Si2 0.822860 0.336831 0.043191
Si Si3 0.321883 0.515389 0.200440
Si Si4 0.678250 0.707995 0.799204
Si Si5 0.178727 0.647737 0.164427
Si Si6 0.678119 0.304176 0.561608
O O1 0.253817 0.892754 0.076125
O O2 0.222046 0.840950 0.158925
O O3 0.000000 0.902574 0.120831
O O4 0.219140 0.967030 0.157296
O O5 0.757624 0.266350 0.059497
O O6 0.000000 0.336248 0.048298
O O7 0.787117 0.341113 0.987358
O O8 0.500000 0.514851 0.205193
O O9 0.250000 0.493720 0.250000
O O10 0.262791 0.587600 0.188055
O O11 0.500000 0.704490 0.795315
O O12 0.750000 0.688070 0.750000
O O13 0.718187 0.782780 0.811699
O O14 0.215818 0.656381 0.108937
O O15 0.000000 0.638460 0.168813
O O16 0.500000 0.291713 0.563102
#
# Coordination Sequence:
#
# PCOD9477378 Si02
#       6
#    16  16  16  16  16  16
#     4  10  21  39  57  77 111 151 185 225 281 335
#     4  10  19  31  56  89 114 143 185 231 276 328
#     4  11  24  40  59  81 111 151 190 231 281 335
#     4  10  20  34  54  78 104 139 180 227 278 325
#     4  10  20  37  59  80 110 149 185 228 277 331
#     4   9  18  35  56  82 117 151 181 222 282 335
#
# _framework density 18.528646999999999
#
# number of rings (size 3 to 8) (size 9 to 14) (size 15 to 20)
#    0.000    2.000    1.667    2.000    0.000    5.333 
#    0.000    0.833    0.000    5.000    0.000    0.000 
#    0.000    0.000    0.000    0.000    0.000    0.000 
#
# Total GULP energy -268015.475132 kJ/mol
# GULP energy per Si atom -5583.655732 kJ/mol
# Density = 1.848648 g / cm^3
# Si number density = 18.528647 Si / 1000 Ang^3
#
#
#
# Elastic Constant Matrix: (Units=GPa)
#
#
# Indices 1 2 3 4 5 6 
#
# 1 14.5118 7.2947 13.8339 0.0000 0.0000 0.0000
# 2 7.2947 39.6082 -12.5660 0.0000 0.0000 0.0000
# 3 13.8339 -12.5660 73.0567 0.0000 0.0000 0.0000
# 4 0.0000 0.0000 0.0000 25.2920 0.0000 0.0000
# 5 0.0000 0.0000 0.0000 0.0000 31.2879 0.0000
# 6 0.0000 0.0000 0.0000 0.0000 0.0000 20.9024
#
#
#
# Elastic Compliance Matrix: (Units=1/GPa)
#
#
# Indices 1 2 3 4 5 6 
#
# 1 0.106462 -0.027504 -0.024890 0.000000 0.000000 0.000000
# 2 -0.027504 0.033810 0.011024 0.000000 0.000000 0.000000
# 3 -0.024890 0.011024 0.020297 0.000000 0.000000 0.000000
# 4 0.000000 0.000000 0.000000 0.039538 0.000000 0.000000
# 5 0.000000 0.000000 0.000000 0.000000 0.031961 0.000000
# 6 0.000000 0.000000 0.000000 0.000000 0.000000 0.047841
#
#
# Mechanical properties :
#
#
# Convention : Reuss Voigt Hill
#
# Bulk Modulus (GPa) = 12.84883 16.03355 14.44119
# Shear Modulus (GPa) = 12.86686 23.40407 18.13547
#
# Velocity S-wave (km/s) = 2.63806 3.55791 3.13194
# Velocity P-wave (km/s) = 4.02850 5.05475 4.57052
#
# Compressibility (1/GPa) = 0.07782812
#
# Stress axis : x y z
#
# Youngs Moduli (GPa) = 9.39298 29.57692 49.26768
#
# Poissons Ratio (x) = 0.81349 1.22629
# Poissons Ratio (y) = 0.25835 -0.54311
# Poissons Ratio (z) = 0.23379 -0.32604
#
# Static dielectric constant tensor:
#      x y z
#    x 1.619160 0.000000 0.000000 
#    y 0.000000 1.620630 0.000000 
#    z 0.000000 0.000000 1.658800 
# 
# From -- ./inp_files/48048.got.cif
#   From: 2010.05.17/outbox.cif.g08.bks.cpg/sg64_25_cif.got.tgz:48048.got - 2010.06.03 16:29:19.
