data_PCOD9477226
_publ_section_title
;
Structure prediction by ZEFSAII (Michael W. Deem and Ramdas Pophale) SiO2 
 PCOD9477226
Probable space group: C M C A
;
_chemical_formula_sum "Si O2"
_cell_formula_units_Z 96
_cell_length_a 8.595122
_cell_length_b 30.504354
_cell_length_c 21.406376
_cell_angle_alpha 90.000000
_cell_angle_beta 90.000000
_cell_angle_gamma 90.000000
_cell_volume 5612.508700
_symmetry_space_group_name_H-M "C M C A"
_symmetry_group_IT_number 64
_symmetry_cell_setting 'orthorhombic'
loop_
_space_group_symop_operation_xyz
x,y,z
-x,1/2-y,1/2+z
x,-y,-z
-x,1/2+y,1/2-z
-x,-y,-z
x,1/2+y,1/2-z
-x,y,z
x,1/2-y,1/2+z
1/2+x,1/2+y,z
1/2-x,-y,1/2+z
1/2+x,1/2-y,-z
1/2-x,y,1/2-z
1/2-x,1/2-y,-z
1/2+x,y,1/2-z
1/2-x,1/2+y,z
1/2+x,-y,1/2+z
loop_
_atom_site_type_symbol
_atom_site_label
_atom_site_fract_x
_atom_site_fract_y
_atom_site_fract_z
Si Si1 0.813369 0.194690 0.683645
Si Si2 0.185606 0.785652 0.048184
Si Si3 0.316677 0.095071 0.843939
Si Si4 0.313426 0.885792 0.476379
Si Si5 0.811060 0.966636 0.945404
Si Si6 0.315906 0.497438 0.185899
O O1 0.750000 0.212040 0.750000
O O2 0.753051 0.216041 0.618932
O O3 0.765560 0.143174 0.679196
O O4 0.000000 0.196589 0.683679
O O5 0.221446 0.834262 0.020899
O O6 0.000000 0.781546 0.052528
O O7 0.250000 0.750000 0.000000
O O8 0.500000 0.089991 0.831868
O O9 0.279856 0.095796 0.917450
O O10 0.225485 0.053993 0.817075
O O11 0.500000 0.890304 0.464146
O O12 0.275398 0.916952 0.534496
O O13 0.752455 0.980883 0.877622
O O14 0.000000 0.970353 0.943693
O O15 0.758742 0.000000 0.000000
O O16 0.500000 0.502204 0.186564
O O17 0.250000 0.516208 0.250000
#
# Coordination Sequence:
#
# PCOD9477226 Si02
#       6
#    16  16  16  16  16  16
#     4  10  20  33  50  74 105 137 169 206 254 310
#     4  10  20  34  55  79 105 134 170 215 261 311
#     4  10  19  30  46  72 104 135 166 203 249 301
#     4   9  17  32  53  75  97 131 173 209 252 300
#     4   9  16  30  52  73  94 128 172 210 244 293
#     4  11  21  32  47  67  98 134 170 211 251 298
#
# _framework density 17.104649999999999
#
# number of rings (size 3 to 8) (size 9 to 14) (size 15 to 20)
#    0.000    2.167    1.667    2.500    0.000    4.000 
#    0.000    2.500    0.000    1.000    0.000    2.333 
#    0.000    0.000    0.000    0.000    0.000    0.000 
#
# Total GULP energy -267632.931253 kJ/mol
# GULP energy per Si atom -5575.686068 kJ/mol
# Density = 1.706572 g / cm^3
# Si number density = 17.104650 Si / 1000 Ang^3
#
#
#
# Elastic Constant Matrix: (Units=GPa)
#
#
# Indices 1 2 3 4 5 6 
#
# 1 28.4422 23.3460 35.9480 0.0000 0.0000 0.0000
# 2 23.3460 65.3748 66.2134 0.0000 0.0000 0.0000
# 3 35.9480 66.2134 169.3272 0.0000 0.0000 0.0000
# 4 0.0000 0.0000 0.0000 16.3730 0.0000 0.0000
# 5 0.0000 0.0000 0.0000 0.0000 29.6051 0.0000
# 6 0.0000 0.0000 0.0000 0.0000 0.0000 7.6788
#
#
#
# Elastic Compliance Matrix: (Units=1/GPa)
#
#
# Indices 1 2 3 4 5 6 
#
# 1 0.053691 -0.012632 -0.006459 0.000000 0.000000 0.000000
# 2 -0.012632 0.028299 -0.008384 0.000000 0.000000 0.000000
# 3 -0.006459 -0.008384 0.010556 0.000000 0.000000 0.000000
# 4 0.000000 0.000000 0.000000 0.061076 0.000000 0.000000
# 5 0.000000 0.000000 0.000000 0.000000 0.033778 0.000000
# 6 0.000000 0.000000 0.000000 0.000000 0.000000 0.130229
#
#
# Mechanical properties :
#
#
# Convention : Reuss Voigt Hill
#
# Bulk Modulus (GPa) = 26.59885 57.12877 41.86381
# Shear Modulus (GPa) = 12.98327 19.90717 16.44522
#
# Velocity S-wave (km/s) = 2.75807 3.41522 3.10409
# Velocity P-wave (km/s) = 5.07218 7.00169 6.11354
#
# Compressibility (1/GPa) = 0.03759561
#
# Stress axis : x y z
#
# Youngs Moduli (GPa) = 18.62509 35.33663 94.73640
#
# Poissons Ratio (x) = 0.44636 0.61191
# Poissons Ratio (y) = 0.23527 0.79431
# Poissons Ratio (z) = 0.12030 0.29628
#
# Static dielectric constant tensor:
#      x y z
#    x 1.580030 0.000000 0.000000 
#    y 0.000000 1.574950 0.000000 
#    z 0.000000 0.000000 1.617300 
# 
# From -- ./inp_files/37070.got.cif
#   From: 2010.05.17/outbox.cif.g08.bks.cpg/sg64_19_cif.got.tgz:37070.got - 2010.06.03 16:29:19.
