data_PCOD9477025
_publ_section_title
;
Structure prediction by ZEFSAII (Michael W. Deem and Ramdas Pophale) SiO2 
 PCOD9477025
Probable space group: C M C A
;
_chemical_formula_sum "Si O2"
_cell_formula_units_Z 112
_cell_length_a 16.294995
_cell_length_b 16.793198
_cell_length_c 15.289273
_cell_angle_alpha 90.000000
_cell_angle_beta 90.000000
_cell_angle_gamma 90.000000
_cell_volume 4183.834294
_symmetry_space_group_name_H-M "C M C A"
_symmetry_group_IT_number 64
_symmetry_cell_setting 'orthorhombic'
loop_
_space_group_symop_operation_xyz
x,y,z
-x,1/2-y,1/2+z
x,-y,-z
-x,1/2+y,1/2-z
-x,-y,-z
x,1/2+y,1/2-z
-x,y,z
x,1/2-y,1/2+z
1/2+x,1/2+y,z
1/2-x,-y,1/2+z
1/2+x,1/2-y,-z
1/2-x,y,1/2-z
1/2-x,1/2-y,-z
1/2+x,y,1/2-z
1/2-x,1/2+y,z
1/2+x,-y,1/2+z
loop_
_atom_site_type_symbol
_atom_site_label
_atom_site_fract_x
_atom_site_fract_y
_atom_site_fract_z
Si Si1 0.827159 0.327142 0.911999
Si Si2 0.367429 0.587396 0.905472
Si Si3 0.301790 0.387130 0.339914
Si Si4 0.589362 0.217275 0.455475
Si Si5 0.594627 0.287679 0.232171
Si Si6 0.405671 0.537603 0.331359
Si Si7 0.343806 0.091171 0.352809
O O1 0.851940 0.267794 0.831946
O O2 0.844088 0.275679 0.999233
O O3 0.893763 0.397175 0.906116
O O4 0.741322 0.371330 0.889825
O O5 0.271150 0.611207 0.908784
O O6 0.409016 0.639448 0.979860
O O7 0.404770 0.625768 0.817228
O O8 0.367859 0.491846 0.900576
O O9 0.250000 0.403861 0.250000
O O10 0.354017 0.308854 0.319045
O O11 0.500000 0.256351 0.460054
O O12 0.597602 0.166426 0.366800
O O13 0.500000 0.263809 0.238274
O O14 0.634724 0.455849 0.360538
O O15 0.500000 0.529924 0.305487
O O16 0.351678 0.567389 0.248350
#
# Coordination Sequence:
#
# PCOD9477025 Si02
#       7
#    16  16  16  16  16  16  16
#     4  11  23  41  59  89 132 173 211 257 328 396
#     4  10  20  36  59  90 126 168 209 258 322 387
#     4  10  18  34  56  90 124 164 205 253 315 383
#     4  11  25  43  64  94 131 171 218 273 329 384
#     4  10  20  36  61  92 128 164 210 267 323 375
#     4  12  22  36  62  93 128 166 212 271 323 379
#     4  12  23  39  62  94 130 169 217 265 326 393
#
# _framework density 26.769703
#
# number of rings (size 3 to 8) (size 9 to 14) (size 15 to 20)
#    0.000    1.143    4.286    4.714    0.000    8.000 
#    0.000    0.000    0.000    0.000    0.000    6.000 
#    0.000    0.000    0.000    0.000    0.000    0.000 
#
# Total GULP energy -313303.426456 kJ/mol
# GULP energy per Si atom -5594.704044 kJ/mol
# Density = 2.670877 g / cm^3
# Si number density = 26.769703 Si / 1000 Ang^3
#
#
#
# Elastic Constant Matrix: (Units=GPa)
#
#
# Indices 1 2 3 4 5 6 
#
# 1 139.2815 17.6766 -9.5948 0.0000 0.0000 0.0000
# 2 17.6766 144.0407 0.8597 0.0000 0.0000 0.0000
# 3 -9.5948 0.8597 55.1481 0.0000 0.0000 0.0000
# 4 0.0000 0.0000 0.0000 30.5448 0.0000 0.0000
# 5 0.0000 0.0000 0.0000 0.0000 21.3880 0.0000
# 6 0.0000 0.0000 0.0000 0.0000 0.0000 45.8045
#
#
#
# Elastic Compliance Matrix: (Units=1/GPa)
#
#
# Indices 1 2 3 4 5 6 
#
# 1 0.007385 -0.000914 0.001299 0.000000 0.000000 0.000000
# 2 -0.000914 0.007056 -0.000269 0.000000 0.000000 0.000000
# 3 0.001299 -0.000269 0.018363 0.000000 0.000000 0.000000
# 4 0.000000 0.000000 0.000000 0.032739 0.000000 0.000000
# 5 0.000000 0.000000 0.000000 0.000000 0.046755 0.000000
# 6 0.000000 0.000000 0.000000 0.000000 0.000000 0.021832
#
#
# Mechanical properties :
#
#
# Convention : Reuss Voigt Hill
#
# Bulk Modulus (GPa) = 30.26927 39.59480 34.93204
# Shear Modulus (GPa) = 34.50397 41.51603 38.01000
#
# Velocity S-wave (km/s) = 3.59405 3.94237 3.77223
# Velocity P-wave (km/s) = 5.34366 5.96205 5.66130
#
# Compressibility (1/GPa) = 0.03303681
#
# Stress axis : x y z
#
# Youngs Moduli (GPa) = 135.40587 141.71810 54.45667
#
# Poissons Ratio (x) = 0.12954 -0.07075
# Poissons Ratio (y) = 0.12377 0.01465
# Poissons Ratio (z) = -0.17591 0.03813
#
# Static dielectric constant tensor:
#      x y z
#    x 2.084930 0.000000 0.000000 
#    y 0.000000 2.073700 0.000000 
#    z 0.000000 0.000000 2.295640 
# 
# From -- ./inp_files/40382.got.cif
#   From: 2010.05.17/outbox.cif.g08.bks.cpg/sg64_21_cif.got.tgz:40382.got - 2010.06.03 16:29:19.
