data_PCOD9477577
_publ_section_title
;
Structure prediction by ZEFSAII (Michael W. Deem and Ramdas Pophale) SiO2 
 PCOD9477577
Probable space group: C M C A
;
_chemical_formula_sum "Si O2"
_cell_formula_units_Z 96
_cell_length_a 8.573991
_cell_length_b 26.342174
_cell_length_c 23.595830
_cell_angle_alpha 90.000000
_cell_angle_beta 90.000000
_cell_angle_gamma 90.000000
_cell_volume 5329.296656
_symmetry_space_group_name_H-M "C M C A"
_symmetry_group_IT_number 64
_symmetry_cell_setting 'orthorhombic'
loop_
_space_group_symop_operation_xyz
x,y,z
-x,1/2-y,1/2+z
x,-y,-z
-x,1/2+y,1/2-z
-x,-y,-z
x,1/2+y,1/2-z
-x,y,z
x,1/2-y,1/2+z
1/2+x,1/2+y,z
1/2-x,-y,1/2+z
1/2+x,1/2-y,-z
1/2-x,y,1/2-z
1/2-x,1/2-y,-z
1/2+x,y,1/2-z
1/2-x,1/2+y,z
1/2+x,-y,1/2+z
loop_
_atom_site_type_symbol
_atom_site_label
_atom_site_fract_x
_atom_site_fract_y
_atom_site_fract_z
Si Si1 0.316355 0.557397 0.936370
Si Si2 0.813925 0.247889 0.813210
Si Si3 0.683691 0.948342 0.937265
Si Si4 0.814566 0.158628 0.396513
Si Si5 0.180358 0.304893 0.490723
Si Si6 0.681388 0.150584 0.879972
O O1 0.500000 0.564942 0.944767
O O2 0.277160 0.499108 0.922353
O O3 0.259654 0.595210 0.886639
O O4 0.235314 0.566309 0.998168
O O5 0.750000 0.252619 0.750000
O O6 0.776147 0.299359 0.848888
O O7 0.750321 0.195746 0.841256
O O8 0.000000 0.244076 0.812399
O O9 0.500000 0.960363 0.939796
O O10 0.703207 0.902297 0.892459
O O11 0.702522 0.169785 0.448963
O O12 0.000000 0.166643 0.410721
O O13 0.250000 0.250000 0.500000
O O14 0.287381 0.329527 0.443337
O O15 0.000000 0.304523 0.472275
O O16 0.500000 0.145079 0.867154
#
# Coordination Sequence:
#
# PCOD9477577 Si02
#       6
#    16  16  16  16  16  16
#     4  11  21  33  51  81 118 154 189 231 280 339
#     4  11  24  42  61  84 112 147 191 238 288 341
#     4  10  19  33  53  80 115 155 191 228 278 338
#     4  10  21  36  57  81 114 151 188 231 280 338
#     4  12  22  32  51  81 116 149 185 226 281 344
#     4  12  23  37  57  82 114 152 191 235 286 340
#
# _framework density 18.013635000000001
#
# number of rings (size 3 to 8) (size 9 to 14) (size 15 to 20)
#    0.000    1.000    3.333    6.500    0.000    1.333 
#    0.000    0.000    0.000    1.000    0.000    4.667 
#    0.000    0.000    0.000    0.000    0.000    0.000 
#
# Total GULP energy -267589.059758 kJ/mol
# GULP energy per Si atom -5574.772078 kJ/mol
# Density = 1.797263 g / cm^3
# Si number density = 18.013635 Si / 1000 Ang^3
#
#
#
# Elastic Constant Matrix: (Units=GPa)
#
#
# Indices 1 2 3 4 5 6 
#
# 1 61.3528 15.8810 9.6861 0.0000 0.0000 0.0000
# 2 15.8810 119.9394 30.8045 0.0000 0.0000 0.0000
# 3 9.6861 30.8045 64.5202 0.0000 0.0000 0.0000
# 4 0.0000 0.0000 0.0000 10.2258 0.0000 0.0000
# 5 0.0000 0.0000 0.0000 0.0000 20.9968 0.0000
# 6 0.0000 0.0000 0.0000 0.0000 0.0000 25.2300
#
#
#
# Elastic Compliance Matrix: (Units=1/GPa)
#
#
# Indices 1 2 3 4 5 6 
#
# 1 0.017037 -0.001822 -0.001688 0.000000 0.000000 0.000000
# 2 -0.001822 0.009698 -0.004356 0.000000 0.000000 0.000000
# 3 -0.001688 -0.004356 0.017832 0.000000 0.000000 0.000000
# 4 0.000000 0.000000 0.000000 0.097792 0.000000 0.000000
# 5 0.000000 0.000000 0.000000 0.000000 0.047626 0.000000
# 6 0.000000 0.000000 0.000000 0.000000 0.000000 0.039635
#
#
# Mechanical properties :
#
#
# Convention : Reuss Voigt Hill
#
# Bulk Modulus (GPa) = 34.68091 39.83951 37.26021
# Shear Modulus (GPa) = 19.61048 23.91989 21.76518
#
# Velocity S-wave (km/s) = 3.30304 3.64796 3.47978
# Velocity P-wave (km/s) = 5.81732 6.31726 6.07244
#
# Compressibility (1/GPa) = 0.02883430
#
# Stress axis : x y z
#
# Youngs Moduli (GPa) = 58.69457 103.11670 56.07786
#
# Poissons Ratio (x) = 0.18793 0.09464
# Poissons Ratio (y) = 0.10697 0.24430
# Poissons Ratio (z) = 0.09905 0.44923
#
# Static dielectric constant tensor:
#      x y z
#    x 1.597100 0.000000 0.000000 
#    y 0.000000 1.782740 0.000000 
#    z 0.000000 0.000000 1.764720 
# 
# From -- ./inp_files/37069.got.cif
#   From: 2010.05.17/outbox.cif.g08.bks.cpg/sg64_19_cif.got.tgz:37069.got - 2010.06.03 16:29:19.
