data_PCOD9477407
_publ_section_title
;
Structure prediction by ZEFSAII (Michael W. Deem and Ramdas Pophale) SiO2 
 PCOD9477407
Probable space group: C M C A
;
_chemical_formula_sum "Si O2"
_cell_formula_units_Z 96
_cell_length_a 8.996327
_cell_length_b 31.663083
_cell_length_c 19.889514
_cell_angle_alpha 90.000000
_cell_angle_beta 90.000000
_cell_angle_gamma 90.000000
_cell_volume 5665.556873
_symmetry_space_group_name_H-M "C M C A"
_symmetry_group_IT_number 64
_symmetry_cell_setting 'orthorhombic'
loop_
_space_group_symop_operation_xyz
x,y,z
-x,1/2-y,1/2+z
x,-y,-z
-x,1/2+y,1/2-z
-x,-y,-z
x,1/2+y,1/2-z
-x,y,z
x,1/2-y,1/2+z
1/2+x,1/2+y,z
1/2-x,-y,1/2+z
1/2+x,1/2-y,-z
1/2-x,y,1/2-z
1/2-x,1/2-y,-z
1/2+x,y,1/2-z
1/2-x,1/2+y,z
1/2+x,-y,1/2+z
loop_
_atom_site_type_symbol
_atom_site_label
_atom_site_fract_x
_atom_site_fract_y
_atom_site_fract_z
Si Si1 0.170624 0.289970 0.583998
Si Si2 0.179483 0.615835 0.422494
Si Si3 0.678146 0.119313 0.930427
Si Si4 0.322169 0.549196 0.678019
Si Si5 0.330175 0.705559 0.920438
Si Si6 0.821261 0.451685 0.823100
O O1 0.219524 0.337018 0.604186
O O2 0.268428 0.250195 0.605384
O O3 0.171856 0.291300 0.502174
O O4 0.000000 0.283307 0.604777
O O5 0.243711 0.612346 0.497768
O O6 0.249702 0.580103 0.376116
O O7 0.000000 0.613504 0.424279
O O8 0.500000 0.118990 0.939112
O O9 0.722230 0.082621 0.878622
O O10 0.730429 0.165082 0.903861
O O11 0.500000 0.551756 0.685278
O O12 0.250000 0.558332 0.750000
O O13 0.286768 0.500647 0.659336
O O14 0.500000 0.698594 0.899830
O O15 0.750000 0.443852 0.750000
O O16 0.000000 0.446875 0.820719
#
# Coordination Sequence:
#
# PCOD9477407 Si02
#       6
#    16  16  16  16  16  16
#     4   8  15  27  43  65  96 130 162 197 238 288
#     4  10  20  33  50  76 104 131 166 206 248 292
#     4  10  19  32  50  74 103 133 165 204 250 294
#     4   9  20  36  54  74  97 130 169 205 245 297
#     4   9  16  26  43  69  98 128 163 200 241 291
#     4  10  20  36  55  74  98 130 167 205 247 297
#
# _framework density 16.944495
#
# number of rings (size 3 to 8) (size 9 to 14) (size 15 to 20)
#    0.000    2.667    0.000    3.000    0.000    7.333 
#    0.000    3.333    0.000    1.000    0.000    4.667 
#    0.000    0.000    0.000    0.000    0.000    0.000 
#
# Total GULP energy -267529.063535 kJ/mol
# GULP energy per Si atom -5573.522157 kJ/mol
# Density = 1.690593 g / cm^3
# Si number density = 16.944495 Si / 1000 Ang^3
#
#
#
# Elastic Constant Matrix: (Units=GPa)
#
#
# Indices 1 2 3 4 5 6 
#
# 1 70.6145 67.3451 38.7423 0.0000 0.0000 0.0000
# 2 67.3451 154.1922 78.8589 0.0000 0.0000 0.0000
# 3 38.7423 78.8589 57.6017 0.0000 0.0000 0.0000
# 4 0.0000 0.0000 0.0000 -10.2133 0.0000 0.0000
# 5 0.0000 0.0000 0.0000 0.0000 22.3355 0.0000
# 6 0.0000 0.0000 0.0000 0.0000 0.0000 29.9783
#
#
#
# Elastic Compliance Matrix: (Units=1/GPa)
#
#
# Indices 1 2 3 4 5 6 
#
# 1 0.024919 -0.007711 -0.006204 0.000000 0.000000 0.000000
# 2 -0.007711 0.024016 -0.027693 0.000000 0.000000 0.000000
# 3 -0.006204 -0.027693 0.059446 0.000000 0.000000 0.000000
# 4 0.000000 0.000000 0.000000 -0.097911 0.000000 0.000000
# 5 0.000000 0.000000 0.000000 0.000000 0.044772 0.000000
# 6 0.000000 0.000000 0.000000 0.000000 0.000000 0.033357
#
#
# Mechanical properties :
#
#
# Convention : Reuss Voigt Hill
#
# Bulk Modulus (GPa) = 39.73627 72.47788 56.10708
# Shear Modulus (GPa) = 27.74646 14.91758 21.33202
#
# Velocity S-wave (km/s) = 4.05098 2.97034 3.55200
# Velocity P-wave (km/s) = 6.73664 7.39124 7.07152
#
# Compressibility (1/GPa) = 0.02516592
#
# Stress axis : x y z
#
# Youngs Moduli (GPa) = 40.13034 41.63838 16.82193
#
# Poissons Ratio (x) = 0.32106 0.10436
# Poissons Ratio (y) = 0.30943 0.46585
# Poissons Ratio (z) = 0.24896 1.15310
#
# Static dielectric constant tensor:
#      x y z
#    x 1.567140 0.000000 0.000000 
#    y 0.000000 1.587780 0.000000 
#    z 0.000000 0.000000 1.539730 
# 
# From -- ./inp_files/37040.got.cif
#   From: 2010.05.17/outbox.cif.g08.bks.cpg/sg64_19_cif.got.tgz:37040.got - 2010.06.03 16:29:19.
