data_PCOD9477877
_publ_section_title
;
Structure prediction by ZEFSAII (Michael W. Deem and Ramdas Pophale) SiO2 
 PCOD9477877
Probable space group: C M C A
;
_chemical_formula_sum "Si O2"
_cell_formula_units_Z 80
_cell_length_a 13.128817
_cell_length_b 18.929243
_cell_length_c 18.156295
_cell_angle_alpha 90.000000
_cell_angle_beta 90.000000
_cell_angle_gamma 90.000000
_cell_volume 4512.176421
_symmetry_space_group_name_H-M "C M C A"
_symmetry_group_IT_number 64
_symmetry_cell_setting 'orthorhombic'
loop_
_space_group_symop_operation_xyz
x,y,z
-x,1/2-y,1/2+z
x,-y,-z
-x,1/2+y,1/2-z
-x,-y,-z
x,1/2+y,1/2-z
-x,y,z
x,1/2-y,1/2+z
1/2+x,1/2+y,z
1/2-x,-y,1/2+z
1/2+x,1/2-y,-z
1/2-x,y,1/2-z
1/2-x,1/2-y,-z
1/2+x,y,1/2-z
1/2-x,1/2+y,z
1/2+x,-y,1/2+z
loop_
_atom_site_type_symbol
_atom_site_label
_atom_site_fract_x
_atom_site_fract_y
_atom_site_fract_z
Si Si1 0.113676 0.307982 0.817096
Si Si2 0.187500 0.441043 0.898257
Si Si3 0.114737 0.366669 0.653899
Si Si4 0.787476 0.241283 0.583657
Si Si5 0.877586 0.909414 0.435644
O O1 0.118272 0.383605 0.857622
O O2 0.134844 0.329107 0.732647
O O3 0.195796 0.259903 0.859604
O O4 0.000000 0.277696 0.821788
O O5 0.300171 0.424013 0.867473
O O6 0.152685 0.521436 0.888958
O O7 0.174245 0.422139 0.984459
O O8 0.129807 0.302476 0.597124
O O9 0.000000 0.394251 0.653987
O O10 0.750000 0.250000 0.500000
O O11 0.834910 0.164190 0.594655
O O12 0.000000 0.907155 0.444486
#
# Coordination Sequence:
#
# PCOD9477877 Si02
#       5
#    16  16  16  16  16
#     4  10  20  37  59  82 111 155 195 230 277 342
#     4  10  19  35  55  81 109 146 190 232 279 337
#     4  10  21  38  58  80 114 154 194 232 280 341
#     4  11  20  34  56  85 115 143 189 238 286 337
#     4  11  21  34  55  84 116 144 182 236 290 338
#
# _framework density 17.729803
#
# number of rings (size 3 to 8) (size 9 to 14) (size 15 to 20)
#    0.000    1.600    4.000    5.400    0.000    0.800 
#    0.000    7.000    0.000    4.800    0.000    0.000 
#    0.000    0.000    0.000    0.000    0.000    0.000 
#
# Total GULP energy -222941.282385 kJ/mol
# GULP energy per Si atom -5573.532060 kJ/mol
# Density = 1.768945 g / cm^3
# Si number density = 17.729803 Si / 1000 Ang^3
#
#
#
# Elastic Constant Matrix: (Units=GPa)
#
#
# Indices 1 2 3 4 5 6 
#
# 1 162.3197 32.6387 36.2849 0.0000 0.0000 0.0000
# 2 32.6387 98.7971 17.7122 0.0000 0.0000 0.0000
# 3 36.2849 17.7122 76.3791 0.0000 0.0000 0.0000
# 4 0.0000 0.0000 0.0000 19.0903 0.0000 0.0000
# 5 0.0000 0.0000 0.0000 0.0000 13.0330 0.0000
# 6 0.0000 0.0000 0.0000 0.0000 0.0000 16.9454
#
#
#
# Elastic Compliance Matrix: (Units=1/GPa)
#
#
# Indices 1 2 3 4 5 6 
#
# 1 0.007200 -0.001842 -0.002993 0.000000 0.000000 0.000000
# 2 -0.001842 0.011032 -0.001683 0.000000 0.000000 0.000000
# 3 -0.002993 -0.001683 0.014905 0.000000 0.000000 0.000000
# 4 0.000000 0.000000 0.000000 0.052383 0.000000 0.000000
# 5 0.000000 0.000000 0.000000 0.000000 0.076728 0.000000
# 6 0.000000 0.000000 0.000000 0.000000 0.000000 0.059013
#
#
# Mechanical properties :
#
#
# Convention : Reuss Voigt Hill
#
# Bulk Modulus (GPa) = 49.75139 56.75194 53.25166
# Shear Modulus (GPa) = 20.74702 26.53775 23.64238
#
# Velocity S-wave (km/s) = 3.42450 3.87303 3.65565
# Velocity P-wave (km/s) = 6.61499 7.21660 6.92233
#
# Compressibility (1/GPa) = 0.02009994
#
# Stress axis : x y z
#
# Youngs Moduli (GPa) = 138.88492 90.64492 67.09164
#
# Poissons Ratio (x) = 0.16697 0.20083
# Poissons Ratio (y) = 0.25583 0.11293
# Poissons Ratio (z) = 0.41574 0.15258
#
# Static dielectric constant tensor:
#      x y z
#    x 1.659540 0.000000 0.000000 
#    y 0.000000 1.600670 0.000000 
#    z 0.000000 0.000000 1.678010 
# 
# From -- ./inp_files/32056.got.cif
#   From: 2010.05.17/outbox.cif.g08.bks.cpg/sg64_17_cif.got.tgz:32056.got - 2010.06.03 16:29:19.
