data_PCOD9477945
_publ_section_title
;
Structure prediction by ZEFSAII (Michael W. Deem and Ramdas Pophale) SiO2 
 PCOD9477945
Probable space group: C M C A
;
_chemical_formula_sum "Si O2"
_cell_formula_units_Z 112
_cell_length_a 14.771887
_cell_length_b 27.253914
_cell_length_c 13.683042
_cell_angle_alpha 90.000000
_cell_angle_beta 90.000000
_cell_angle_gamma 90.000000
_cell_volume 5508.679659
_symmetry_space_group_name_H-M "C M C A"
_symmetry_group_IT_number 64
_symmetry_cell_setting 'orthorhombic'
loop_
_space_group_symop_operation_xyz
x,y,z
-x,1/2-y,1/2+z
x,-y,-z
-x,1/2+y,1/2-z
-x,-y,-z
x,1/2+y,1/2-z
-x,y,z
x,1/2-y,1/2+z
1/2+x,1/2+y,z
1/2-x,-y,1/2+z
1/2+x,1/2-y,-z
1/2-x,y,1/2-z
1/2-x,1/2-y,-z
1/2+x,y,1/2-z
1/2-x,1/2+y,z
1/2+x,-y,1/2+z
loop_
_atom_site_type_symbol
_atom_site_label
_atom_site_fract_x
_atom_site_fract_y
_atom_site_fract_z
Si Si1 0.742119 0.169440 0.462264
Si Si2 0.330904 0.339343 0.326849
Si Si3 0.395710 0.857356 0.804535
Si Si4 0.607963 0.436672 0.228669
Si Si5 0.109344 0.417557 0.495723
Si Si6 0.390570 0.458073 0.802406
Si Si7 0.841077 0.265243 0.684998
O O1 0.789482 0.167778 0.566678
O O2 0.820837 0.154143 0.386237
O O3 0.660729 0.130691 0.469025
O O4 0.694505 0.218582 0.421724
O O5 0.250000 0.337987 0.250000
O O6 0.371574 0.392707 0.303477
O O7 0.385909 0.288480 0.310421
O O8 0.500000 0.863078 0.840005
O O9 0.365828 0.907461 0.750527
O O10 0.394038 0.811177 0.730453
O O11 0.500000 0.438991 0.224051
O O12 0.641382 0.491975 0.249421
O O13 0.638128 0.426083 0.116617
O O14 0.132297 0.456347 0.581889
O O15 0.000000 0.412357 0.495989
O O16 0.500000 0.458321 0.799640
O O17 0.750000 0.262481 0.750000
#
# Coordination Sequence:
#
# PCOD9477945 Si02
#       7
#    16  16  16  16  16  16  16
#     4  11  21  38  61  91 122 160 199 252 318 364
#     4  11  22  39  57  84 122 160 198 249 311 364
#     4  10  21  39  62  90 120 157 207 252 300 365
#     4  10  21  38  58  85 122 163 204 252 308 365
#     4  10  19  35  61  90 120 157 208 258 301 358
#     4   9  18  36  61  85 119 160 202 256 307 356
#     4   9  20  37  62  83 113 156 198 251 301 357
#
# _framework density 20.33155
#
# number of rings (size 3 to 8) (size 9 to 14) (size 15 to 20)
#    0.000    2.000    2.857    0.857    0.000    2.857 
#    2.571    0.714    0.000    2.571    0.000    0.000 
#    0.000    0.000    0.000    0.000    0.000    0.000 
#
# Total GULP energy -311887.195344 kJ/mol
# GULP energy per Si atom -5569.414203 kJ/mol
# Density = 2.028527 g / cm^3
# Si number density = 20.331550 Si / 1000 Ang^3
#
#
#
# Elastic Constant Matrix: (Units=GPa)
#
#
# Indices 1 2 3 4 5 6 
#
# 1 36.8642 10.7266 2.7027 0.0000 0.0000 0.0000
# 2 10.7266 160.7060 35.8341 0.0000 0.0000 0.0000
# 3 2.7027 35.8341 92.1536 0.0000 0.0000 0.0000
# 4 0.0000 0.0000 0.0000 30.6858 0.0000 0.0000
# 5 0.0000 0.0000 0.0000 0.0000 24.8356 0.0000
# 6 0.0000 0.0000 0.0000 0.0000 0.0000 25.4893
#
#
#
# Elastic Compliance Matrix: (Units=1/GPa)
#
#
# Indices 1 2 3 4 5 6 
#
# 1 0.027665 -0.001824 -0.000102 0.000000 0.000000 0.000000
# 2 -0.001824 0.006934 -0.002643 0.000000 0.000000 0.000000
# 3 -0.000102 -0.002643 0.011882 0.000000 0.000000 0.000000
# 4 0.000000 0.000000 0.000000 0.032588 0.000000 0.000000
# 5 0.000000 0.000000 0.000000 0.000000 0.040265 0.000000
# 6 0.000000 0.000000 0.000000 0.000000 0.000000 0.039232
#
#
# Mechanical properties :
#
#
# Convention : Reuss Voigt Hill
#
# Bulk Modulus (GPa) = 26.77866 43.13898 34.95882
# Shear Modulus (GPa) = 27.75457 32.23282 29.99369
#
# Velocity S-wave (km/s) = 3.69873 3.98598 3.84504
# Velocity P-wave (km/s) = 5.60717 6.51520 6.07817
#
# Compressibility (1/GPa) = 0.03734317
#
# Stress axis : x y z
#
# Youngs Moduli (GPa) = 36.14706 144.22680 84.16064
#
# Poissons Ratio (x) = 0.26303 0.00860
# Poissons Ratio (y) = 0.06592 0.22241
# Poissons Ratio (z) = 0.00369 0.38114
#
# Static dielectric constant tensor:
#      x y z
#    x 1.727610 0.000000 0.000000 
#    y 0.000000 1.813970 0.000000 
#    z 0.000000 0.000000 1.741550 
# 
# From -- ./inp_files/24387.got.cif
#   From: 2010.05.17/outbox.cif.g08.bks.cpg/sg64_13_cif.got.tgz:24387.got - 2010.06.03 16:29:19.
