data_PCOD9477722
_publ_section_title
;
Structure prediction by ZEFSAII (Michael W. Deem and Ramdas Pophale) SiO2 
 PCOD9477722
Probable space group: C M C A
;
_chemical_formula_sum "Si O2"
_cell_formula_units_Z 96
_cell_length_a 23.829153
_cell_length_b 13.394422
_cell_length_c 17.379545
_cell_angle_alpha 90.000000
_cell_angle_beta 90.000000
_cell_angle_gamma 90.000000
_cell_volume 5547.163742
_symmetry_space_group_name_H-M "C M C A"
_symmetry_group_IT_number 64
_symmetry_cell_setting 'orthorhombic'
loop_
_space_group_symop_operation_xyz
x,y,z
-x,1/2-y,1/2+z
x,-y,-z
-x,1/2+y,1/2-z
-x,-y,-z
x,1/2+y,1/2-z
-x,y,z
x,1/2-y,1/2+z
1/2+x,1/2+y,z
1/2-x,-y,1/2+z
1/2+x,1/2-y,-z
1/2-x,y,1/2-z
1/2-x,1/2-y,-z
1/2+x,y,1/2-z
1/2-x,1/2+y,z
1/2+x,-y,1/2+z
loop_
_atom_site_type_symbol
_atom_site_label
_atom_site_fract_x
_atom_site_fract_y
_atom_site_fract_z
Si Si1 0.286576 0.461593 0.637672
Si Si2 0.176332 0.620875 0.302523
Si Si3 0.436140 0.344592 0.052815
Si Si4 0.064017 0.563437 0.381515
Si Si5 0.828098 0.720046 0.050941
Si Si6 0.284014 0.195300 0.882911
O O1 0.220098 0.435868 0.640476
O O2 0.310779 0.420677 0.718279
O O3 0.316262 0.394773 0.573038
O O4 0.293680 0.579019 0.630117
O O5 0.112845 0.602504 0.327000
O O6 0.193856 0.736140 0.313632
O O7 0.500000 0.309429 0.064854
O O8 0.427872 0.445523 0.102126
O O9 0.389044 0.262893 0.068995
O O10 0.431382 0.381442 0.964145
O O11 0.000000 0.578352 0.353880
O O12 0.781091 0.781411 0.098623
O O13 0.815622 0.730861 0.960435
#
# Coordination Sequence:
#
# PCOD9477722 Si02
#       6
#    16  16  16  16  16  16
#     4  10  22  33  52  79 109 139 172 215 268 320
#     4  10  20  35  52  75 105 142 172 212 271 313
#     4   9  17  30  53  80 103 132 173 223 264 300
#     4   9  17  31  53  79 103 133 178 221 258 304
#     4  10  19  34  54  78 106 138 176 218 260 315
#     4  10  20  34  53  78 106 139 175 215 262 317
#
# _framework density 17.306141
#
# number of rings (size 3 to 8) (size 9 to 14) (size 15 to 20)
#    0.000    2.333    1.667    2.500    0.000    6.667 
#    0.000    0.833    0.000    5.000    0.000    0.000 
#    0.000    0.000    0.000    0.000    0.000    0.000 
#
# Total GULP energy -267736.038963 kJ/mol
# GULP energy per Si atom -5577.834145 kJ/mol
# Density = 1.726675 g / cm^3
# Si number density = 17.306141 Si / 1000 Ang^3
#
#
#
# Elastic Constant Matrix: (Units=GPa)
#
#
# Indices 1 2 3 4 5 6 
#
# 1 125.7212 53.2714 21.2826 0.0000 0.0000 0.0000
# 2 53.2714 108.9999 24.1107 0.0000 0.0000 0.0000
# 3 21.2826 24.1107 40.5055 0.0000 0.0000 0.0000
# 4 0.0000 0.0000 0.0000 17.8372 0.0000 0.0000
# 5 0.0000 0.0000 0.0000 0.0000 16.8834 0.0000
# 6 0.0000 0.0000 0.0000 0.0000 0.0000 19.8108
#
#
#
# Elastic Compliance Matrix: (Units=1/GPa)
#
#
# Indices 1 2 3 4 5 6 
#
# 1 0.010296 -0.004417 -0.002781 0.000000 0.000000 0.000000
# 2 -0.004417 0.012460 -0.005096 0.000000 0.000000 0.000000
# 3 -0.002781 -0.005096 0.029182 0.000000 0.000000 0.000000
# 4 0.000000 0.000000 0.000000 0.056063 0.000000 0.000000
# 5 0.000000 0.000000 0.000000 0.000000 0.059230 0.000000
# 6 0.000000 0.000000 0.000000 0.000000 0.000000 0.050478
#
#
# Mechanical properties :
#
#
# Convention : Reuss Voigt Hill
#
# Bulk Modulus (GPa) = 36.56121 52.50623 44.53372
# Shear Modulus (GPa) = 19.88750 22.67707 21.28229
#
# Velocity S-wave (km/s) = 3.39360 3.62380 3.51059
# Velocity P-wave (km/s) = 6.04379 6.92205 6.49777
#
# Compressibility (1/GPa) = 0.02735139
#
# Stress axis : x y z
#
# Youngs Moduli (GPa) = 97.12047 80.25467 34.26712
#
# Poissons Ratio (x) = 0.35449 0.09529
# Poissons Ratio (y) = 0.42899 0.17463
# Poissons Ratio (z) = 0.27007 0.40899
#
# Static dielectric constant tensor:
#      x y z
#    x 1.578420 0.000000 0.000000 
#    y 0.000000 1.585210 0.000000 
#    z 0.000000 0.000000 1.600300 
# 
# From -- ./inp_files/41452.got.cif
#   From: 2010.05.17/outbox.cif.g08.bks.cpg/sg64_21_cif.got.tgz:41452.got - 2010.06.03 16:29:19.
