data_PCOD9477551
_publ_section_title
;
Structure prediction by ZEFSAII (Michael W. Deem and Ramdas Pophale) SiO2 
 PCOD9477551
Probable space group: C M C A
;
_chemical_formula_sum "Si O2"
_cell_formula_units_Z 80
_cell_length_a 14.780469
_cell_length_b 28.510082
_cell_length_c 6.709040
_cell_angle_alpha 90.000000
_cell_angle_beta 90.000000
_cell_angle_gamma 90.000000
_cell_volume 2827.138355
_symmetry_space_group_name_H-M "C M C A"
_symmetry_group_IT_number 64
_symmetry_cell_setting 'orthorhombic'
loop_
_space_group_symop_operation_xyz
x,y,z
-x,1/2-y,1/2+z
x,-y,-z
-x,1/2+y,1/2-z
-x,-y,-z
x,1/2+y,1/2-z
-x,y,z
x,1/2-y,1/2+z
1/2+x,1/2+y,z
1/2-x,-y,1/2+z
1/2+x,1/2-y,-z
1/2-x,y,1/2-z
1/2-x,1/2-y,-z
1/2+x,y,1/2-z
1/2-x,1/2+y,z
1/2+x,-y,1/2+z
loop_
_atom_site_type_symbol
_atom_site_label
_atom_site_fract_x
_atom_site_fract_y
_atom_site_fract_z
Si Si1 0.340400 0.289128 0.618943
Si Si2 0.606464 0.687958 0.799465
Si Si3 0.106831 0.587968 0.725178
Si Si4 0.856539 0.986154 0.728887
Si Si5 0.146954 0.112483 0.321648
O O1 0.250000 0.284906 0.750000
O O2 0.384432 0.237945 0.593376
O O3 0.328948 0.305252 0.391634
O O4 0.393691 0.335104 0.699341
O O5 0.500000 0.685580 0.737783
O O6 0.627796 0.636637 0.890274
O O7 0.130455 0.535492 0.657854
O O8 0.000000 0.586478 0.753023
O O9 0.149106 0.597998 0.943364
O O10 0.750000 0.978226 0.750000
O O11 0.881661 0.000000 0.500000
O O12 0.897557 0.934542 0.769498
O O13 0.250000 0.117149 0.250000
#
# Coordination Sequence:
#
# PCOD9477551 Si02
#       5
#    16  16  16  16  16
#     4  10  19  33  52  73  97 128 166 203 241 288
#     4  10  20  34  50  72 102 131 161 202 248 289
#     4   9  18  31  49  73  99 128 164 202 239 288
#     4   9  17  31  51  74  99 127 160 200 244 290
#     4   8  16  30  48  71  99 124 155 200 243 283
#
# _framework density 28.297162
#
# number of rings (size 3 to 8) (size 9 to 14) (size 15 to 20)
#    0.000    2.800    0.000    1.200    0.000    5.200 
#    0.000    6.000    0.000    0.600    0.000    4.200 
#    0.000    0.000    0.000    0.000    0.000    0.000 
#
# Total GULP energy -223300.376468 kJ/mol
# GULP energy per Si atom -5582.509412 kJ/mol
# Density = 2.823276 g / cm^3
# Si number density = 28.297162 Si / 1000 Ang^3
#
#
#
# Elastic Constant Matrix: (Units=GPa)
#
#
# Indices 1 2 3 4 5 6 
#
# 1 128.7633 40.5149 8.8822 0.0000 0.0000 0.0000
# 2 40.5149 433.1463 26.8704 0.0000 0.0000 0.0000
# 3 8.8822 26.8704 65.8896 0.0000 0.0000 0.0000
# 4 0.0000 0.0000 0.0000 439.8146 0.0000 0.0000
# 5 0.0000 0.0000 0.0000 0.0000 -7.6033 0.0000
# 6 0.0000 0.0000 0.0000 0.0000 0.0000 -1.5062
#
#
#
# Elastic Compliance Matrix: (Units=1/GPa)
#
#
# Indices 1 2 3 4 5 6 
#
# 1 0.008042 -0.000703 -0.000798 0.000000 0.000000 0.000000
# 2 -0.000703 0.002430 -0.000896 0.000000 0.000000 0.000000
# 3 -0.000798 -0.000896 0.015650 0.000000 0.000000 0.000000
# 4 0.000000 0.000000 0.000000 0.002274 0.000000 0.000000
# 5 0.000000 0.000000 0.000000 0.000000 -0.131522 0.000000
# 6 0.000000 0.000000 0.000000 0.000000 0.000000 -0.663914
#
#
# Mechanical properties :
#
#
# Convention : Reuss Voigt Hill
#
# Bulk Modulus (GPa) = 46.88424 86.70380 66.79402
# Shear Modulus (GPa) = -6.62131 122.90981 58.14425
#
# Velocity S-wave (km/s) = -1.53134 6.59770 4.53788
# Velocity P-wave (km/s) = 3.67122 9.42054 7.14928
#
# Compressibility (1/GPa) = 0.02132913
#
# Stress axis : x y z
#
# Youngs Moduli (GPa) = 124.34213 411.51875 63.89812
#
# Poissons Ratio (x) = 0.28920 0.05096
# Poissons Ratio (y) = 0.08738 0.05727
# Poissons Ratio (z) = 0.09917 0.36882
#
# Static dielectric constant tensor:
#      x y z
#    x 2.137740 0.000000 0.000000 
#    y 0.000000 2.371240 0.000000 
#    z 0.000000 0.000000 2.401010 
# 
# From -- ./inp_files/7074.got.cif
#   From: 2010.05.17/outbox.cif.g08.bks.cpg/sg64_4_cif.got.tgz:7074.got - 2010.06.03 16:29:19.
