data_PCOD9477757
_publ_section_title
;
Structure prediction by ZEFSAII (Michael W. Deem and Ramdas Pophale) SiO2 
 PCOD9477757
Probable space group: C M C A
;
_chemical_formula_sum "Si O2"
_cell_formula_units_Z 64
_cell_length_a 25.064392
_cell_length_b 5.271110
_cell_length_c 26.760797
_cell_angle_alpha 90.000000
_cell_angle_beta 90.000000
_cell_angle_gamma 90.000000
_cell_volume 3535.560695
_symmetry_space_group_name_H-M "C M C A"
_symmetry_group_IT_number 64
_symmetry_cell_setting 'orthorhombic'
loop_
_space_group_symop_operation_xyz
x,y,z
-x,1/2-y,1/2+z
x,-y,-z
-x,1/2+y,1/2-z
-x,-y,-z
x,1/2+y,1/2-z
-x,y,z
x,1/2-y,1/2+z
1/2+x,1/2+y,z
1/2-x,-y,1/2+z
1/2+x,1/2-y,-z
1/2-x,y,1/2-z
1/2-x,1/2-y,-z
1/2+x,y,1/2-z
1/2-x,1/2+y,z
1/2+x,-y,1/2+z
loop_
_atom_site_type_symbol
_atom_site_label
_atom_site_fract_x
_atom_site_fract_y
_atom_site_fract_z
Si Si1 0.935048 0.938342 0.721458
Si Si2 0.103500 0.421747 0.444071
Si Si3 0.436586 0.921992 0.109156
Si Si4 0.772165 0.283127 0.443208
O O1 0.917860 0.164988 0.758213
O O2 0.918887 0.001995 0.665025
O O3 0.000000 0.934849 0.721504
O O4 0.087096 0.500000 0.500000
O O5 0.091034 0.665444 0.409959
O O6 0.166438 0.359339 0.444425
O O7 0.075164 0.165595 0.425465
O O8 0.500000 0.873380 0.109986
O O9 0.750000 0.250000 0.500000
O O10 0.738339 0.510147 0.419362
#
# Coordination Sequence:
#
# PCOD9477757 Si02
#       4
#    16  16  16  16
#     4   9  17  33  56  75  98 137 181 231 277 299
#     4  12  23  35  55  77 112 156 184 218 265 321
#     4  11  24  37  51  80 117 149 188 219 251 331
#     4  10  19  34  56  76  96 135 178 243 277 293
#
# _framework density 18.101794999999999
#
# number of rings (size 3 to 8) (size 9 to 14) (size 15 to 20)
#    0.000    1.500    2.500    4.500    3.500    7.000 
#    0.000    0.000    0.000    0.000    0.000    0.000 
#    0.000   70.000    0.000    0.000    0.000    0.000 
#
# Total GULP energy -178569.974751 kJ/mol
# GULP energy per Si atom -5580.311711 kJ/mol
# Density = 1.806059 g / cm^3
# Si number density = 18.101795 Si / 1000 Ang^3
#
#
#
# Elastic Constant Matrix: (Units=GPa)
#
#
# Indices 1 2 3 4 5 6 
#
# 1 44.3615 11.7103 16.2496 0.0000 0.0000 0.0000
# 2 11.7103 113.9888 -4.6393 0.0000 0.0000 0.0000
# 3 16.2496 -4.6393 34.5348 0.0000 0.0000 0.0000
# 4 0.0000 0.0000 0.0000 31.3480 0.0000 0.0000
# 5 0.0000 0.0000 0.0000 0.0000 -8.2765 0.0000
# 6 0.0000 0.0000 0.0000 0.0000 0.0000 33.9667
#
#
#
# Elastic Compliance Matrix: (Units=1/GPa)
#
#
# Indices 1 2 3 4 5 6 
#
# 1 0.028561 -0.003500 -0.013909 0.000000 0.000000 0.000000
# 2 -0.003500 0.009250 0.002890 0.000000 0.000000 0.000000
# 3 -0.013909 0.002890 0.035889 0.000000 0.000000 0.000000
# 4 0.000000 0.000000 0.000000 0.031900 0.000000 0.000000
# 5 0.000000 0.000000 0.000000 0.000000 -0.120824 0.000000
# 6 0.000000 0.000000 0.000000 0.000000 0.000000 0.029441
#
#
# Mechanical properties :
#
#
# Convention : Reuss Voigt Hill
#
# Bulk Modulus (GPa) = 22.39102 26.61403 24.50253
# Shear Modulus (GPa) = 85.99599 22.71196 54.35397
#
# Velocity S-wave (km/s) = 6.90000 3.54599 5.48562
# Velocity P-wave (km/s) = 8.71070 5.61246 7.32721
#
# Compressibility (1/GPa) = 0.04466076
#
# Stress axis : x y z
#
# Youngs Moduli (GPa) = 35.01298 108.10831 27.86369
#
# Poissons Ratio (x) = 0.37840 0.38755
# Poissons Ratio (y) = 0.12255 -0.08051
# Poissons Ratio (z) = 0.48699 -0.31239
#
# Static dielectric constant tensor:
#      x y z
#    x 1.614580 0.000000 0.000000 
#    y 0.000000 1.649990 0.000000 
#    z 0.000000 0.000000 1.577980 
# 
# From -- ./inp_files/41248.got.cif
#   From: 2010.05.17/outbox.cif.g08.bks.cpg/sg64_21_cif.got.tgz:41248.got - 2010.06.03 16:29:19.
