data_PCOD9477309
_publ_section_title
;
Structure prediction by ZEFSAII (Michael W. Deem and Ramdas Pophale) SiO2 
 PCOD9477309
Probable space group: C M C A
;
_chemical_formula_sum "Si O2"
_cell_formula_units_Z 96
_cell_length_a 9.014045
_cell_length_b 28.113792
_cell_length_c 22.130661
_cell_angle_alpha 90.000000
_cell_angle_beta 90.000000
_cell_angle_gamma 90.000000
_cell_volume 5608.329675
_symmetry_space_group_name_H-M "C M C A"
_symmetry_group_IT_number 64
_symmetry_cell_setting 'orthorhombic'
loop_
_space_group_symop_operation_xyz
x,y,z
-x,1/2-y,1/2+z
x,-y,-z
-x,1/2+y,1/2-z
-x,-y,-z
x,1/2+y,1/2-z
-x,y,z
x,1/2-y,1/2+z
1/2+x,1/2+y,z
1/2-x,-y,1/2+z
1/2+x,1/2-y,-z
1/2-x,y,1/2-z
1/2-x,1/2-y,-z
1/2+x,y,1/2-z
1/2-x,1/2+y,z
1/2+x,-y,1/2+z
loop_
_atom_site_type_symbol
_atom_site_label
_atom_site_fract_x
_atom_site_fract_y
_atom_site_fract_z
Si Si1 0.830604 0.361833 0.689976
Si Si2 0.176888 0.583182 0.087038
Si Si3 0.825933 0.981320 0.430294
Si Si4 0.676255 0.889417 0.460781
Si Si5 0.328710 0.252496 0.312955
Si Si6 0.820741 0.221994 0.941765
O O1 0.750000 0.379016 0.750000
O O2 0.732054 0.379875 0.635595
O O3 0.833558 0.304771 0.690870
O O4 0.000000 0.378643 0.684961
O O5 0.219947 0.529040 0.104913
O O6 0.252595 0.598827 0.025203
O O7 0.000000 0.583450 0.079279
O O8 0.738856 0.932561 0.419946
O O9 0.000000 0.971947 0.421287
O O10 0.809002 0.000000 0.500000
O O11 0.500000 0.893673 0.463625
O O12 0.711274 0.834652 0.446269
O O13 0.500000 0.269595 0.315458
O O14 0.250000 0.268929 0.250000
O O15 0.244741 0.263236 0.376156
O O16 0.000000 0.228927 0.943207
O O17 0.750000 0.250000 0.000000
#
# Coordination Sequence:
#
# PCOD9477309 Si02
#       6
#    16  16  16  16  16  16
#     4  10  20  33  50  73  99 128 164 203 246 298
#     4  10  19  31  49  73 101 131 163 201 247 298
#     4   8  16  30  47  69  96 127 161 195 239 297
#     4  10  20  32  48  73 102 131 166 207 250 297
#     4  10  21  37  56  77 103 138 177 214 257 312
#     4  11  23  36  52  78 109 139 175 219 264 308
#
# _framework density 17.117395999999999
#
# number of rings (size 3 to 8) (size 9 to 14) (size 15 to 20)
#    0.000    2.167    0.000    4.500    0.000   12.333 
#    0.000    0.000    0.000    1.000    0.000    7.000 
#    0.000    0.000    0.000    0.000    0.000    0.000 
#
# Total GULP energy -267310.795135 kJ/mol
# GULP energy per Si atom -5568.974899 kJ/mol
# Density = 1.707844 g / cm^3
# Si number density = 17.117396 Si / 1000 Ang^3
#
#
#
# Elastic Constant Matrix: (Units=GPa)
#
#
# Indices 1 2 3 4 5 6 
#
# 1 69.7718 47.3283 30.5765 0.0000 0.0000 0.0000
# 2 47.3283 56.8032 17.6207 0.0000 0.0000 0.0000
# 3 30.5765 17.6207 74.4757 0.0000 0.0000 0.0000
# 4 0.0000 0.0000 0.0000 23.7494 0.0000 0.0000
# 5 0.0000 0.0000 0.0000 0.0000 18.0877 0.0000
# 6 0.0000 0.0000 0.0000 0.0000 0.0000 25.0178
#
#
#
# Elastic Compliance Matrix: (Units=1/GPa)
#
#
# Indices 1 2 3 4 5 6 
#
# 1 0.037486 -0.028555 -0.008634 0.000000 0.000000 0.000000
# 2 -0.028555 0.040750 0.002082 0.000000 0.000000 0.000000
# 3 -0.008634 0.002082 0.016479 0.000000 0.000000 0.000000
# 4 0.000000 0.000000 0.000000 0.042106 0.000000 0.000000
# 5 0.000000 0.000000 0.000000 0.000000 0.055286 0.000000
# 6 0.000000 0.000000 0.000000 0.000000 0.000000 0.039972
#
#
# Mechanical properties :
#
#
# Convention : Reuss Voigt Hill
#
# Bulk Modulus (GPa) = 40.81317 43.56687 42.19002
# Shear Modulus (GPa) = 16.10513 20.40599 18.25556
#
# Velocity S-wave (km/s) = 3.07068 3.45646 3.26926
# Velocity P-wave (km/s) = 6.03879 6.43712 6.24113
#
# Compressibility (1/GPa) = 0.02450189
#
# Stress axis : x y z
#
# Youngs Moduli (GPa) = 26.67697 24.53965 60.68187
#
# Poissons Ratio (x) = 0.70072 0.52393
# Poissons Ratio (y) = 0.76175 -0.12633
# Poissons Ratio (z) = 0.23033 -0.05109
#
# Static dielectric constant tensor:
#      x y z
#    x 1.581820 0.000000 0.000000 
#    y 0.000000 1.625290 0.000000 
#    z 0.000000 0.000000 1.592700 
# 
# From -- ./inp_files/36960.got.cif
#   From: 2010.05.17/outbox.cif.g08.bks.cpg/sg64_19_cif.got.tgz:36960.got - 2010.06.03 16:29:19.
