data_PCOD9477405
_publ_section_title
;
Structure prediction by ZEFSAII (Michael W. Deem and Ramdas Pophale) SiO2 
 PCOD9477405
Probable space group: C M C A
;
_chemical_formula_sum "Si O2"
_cell_formula_units_Z 96
_cell_length_a 8.170705
_cell_length_b 27.645814
_cell_length_c 23.656080
_cell_angle_alpha 90.000000
_cell_angle_beta 90.000000
_cell_angle_gamma 90.000000
_cell_volume 5343.572335
_symmetry_space_group_name_H-M "C M C A"
_symmetry_group_IT_number 64
_symmetry_cell_setting 'orthorhombic'
loop_
_space_group_symop_operation_xyz
x,y,z
-x,1/2-y,1/2+z
x,-y,-z
-x,1/2+y,1/2-z
-x,-y,-z
x,1/2+y,1/2-z
-x,y,z
x,1/2-y,1/2+z
1/2+x,1/2+y,z
1/2-x,-y,1/2+z
1/2+x,1/2-y,-z
1/2-x,y,1/2-z
1/2-x,1/2-y,-z
1/2+x,y,1/2-z
1/2-x,1/2+y,z
1/2+x,-y,1/2+z
loop_
_atom_site_type_symbol
_atom_site_label
_atom_site_fract_x
_atom_site_fract_y
_atom_site_fract_z
Si Si1 0.302131 0.192791 0.685038
Si Si2 0.803385 0.698163 0.184756
Si Si3 0.805698 0.944899 0.506714
Si Si4 0.184718 0.197899 0.512703
Si Si5 0.313814 0.122668 0.592801
Si Si6 0.689630 0.363278 0.915538
O O1 0.500000 0.191879 0.681061
O O2 0.250000 0.189287 0.750000
O O3 0.250598 0.247176 0.665073
O O4 0.241671 0.145791 0.650158
O O5 0.750000 0.694069 0.250000
O O6 0.728912 0.654876 0.147380
O O7 0.000000 0.696161 0.181315
O O8 0.773108 0.916262 0.447729
O O9 0.722267 0.916744 0.559244
O O10 0.000000 0.944668 0.516906
O O11 0.749017 0.000000 0.500000
O O12 0.250000 0.250000 0.500000
O O13 0.306664 0.170540 0.554150
O O14 0.192564 0.168786 0.454470
O O15 0.000000 0.197373 0.535273
O O16 0.500000 0.106380 0.601939
O O17 0.500000 0.351897 0.927062
#
# Coordination Sequence:
#
# PCOD9477405 Si02
#       6
#    16  16  16  16  16  16
#     4   9  19  32  49  73 103 139 173 205 240 287
#     4  10  19  33  51  74 107 143 178 211 245 292
#     4  10  21  37  56  77 100 129 166 212 266 316
#     4  11  20  30  45  68  99 133 166 203 249 301
#     4  10  19  32  50  74 101 130 166 207 253 303
#     4  11  21  33  51  75 101 132 169 209 257 308
#
# _framework density 17.965509999999998
#
# number of rings (size 3 to 8) (size 9 to 14) (size 15 to 20)
#    0.000    1.833    0.000    7.500    0.000    4.667 
#    0.000    0.000    0.000    1.000    0.000    2.333 
#    0.000    0.000    0.000    0.000    0.000    0.000 
#
# Total GULP energy -267418.304125 kJ/mol
# GULP energy per Si atom -5571.214669 kJ/mol
# Density = 1.792462 g / cm^3
# Si number density = 17.965510 Si / 1000 Ang^3
#
#
#
# Elastic Constant Matrix: (Units=GPa)
#
#
# Indices 1 2 3 4 5 6 
#
# 1 58.5881 6.1414 2.4866 0.0000 0.0000 0.0000
# 2 6.1414 108.9696 37.7118 0.0000 0.0000 0.0000
# 3 2.4866 37.7118 75.1414 0.0000 0.0000 0.0000
# 4 0.0000 0.0000 0.0000 21.5629 0.0000 0.0000
# 5 0.0000 0.0000 0.0000 0.0000 26.4591 0.0000
# 6 0.0000 0.0000 0.0000 0.0000 0.0000 10.9613
#
#
#
# Elastic Compliance Matrix: (Units=1/GPa)
#
#
# Indices 1 2 3 4 5 6 
#
# 1 0.017170 -0.000933 -0.000100 0.000000 0.000000 0.000000
# 2 -0.000933 0.011157 -0.005568 0.000000 0.000000 0.000000
# 3 -0.000100 -0.005568 0.016106 0.000000 0.000000 0.000000
# 4 0.000000 0.000000 0.000000 0.046376 0.000000 0.000000
# 5 0.000000 0.000000 0.000000 0.000000 0.037794 0.000000
# 6 0.000000 0.000000 0.000000 0.000000 0.000000 0.091230
#
#
# Mechanical properties :
#
#
# Convention : Reuss Voigt Hill
#
# Bulk Modulus (GPa) = 32.02013 37.26431 34.64222
# Shear Modulus (GPa) = 20.53845 24.88728 22.71286
#
# Velocity S-wave (km/s) = 3.38482 3.72597 3.55948
# Velocity P-wave (km/s) = 5.75654 6.26879 6.01812
#
# Compressibility (1/GPa) = 0.03123035
#
# Stress axis : x y z
#
# Youngs Moduli (GPa) = 58.23986 89.63356 62.08803
#
# Poissons Ratio (x) = 0.08364 0.00620
# Poissons Ratio (y) = 0.05435 0.34573
# Poissons Ratio (z) = 0.00582 0.49911
#
# Static dielectric constant tensor:
#      x y z
#    x 1.598600 0.000000 0.000000 
#    y 0.000000 1.590500 0.000000 
#    z 0.000000 0.000000 1.665280 
# 
# From -- ./inp_files/43204.got.cif
#   From: 2010.05.17/outbox.cif.g08.bks.cpg/sg64_22_cif.got.tgz:43204.got - 2010.06.03 16:29:19.
