data_PCOD9477099
_publ_section_title
;
Structure prediction by ZEFSAII (Michael W. Deem and Ramdas Pophale) SiO2 
 PCOD9477099
Probable space group: C M C A
;
_chemical_formula_sum "Si O2"
_cell_formula_units_Z 112
_cell_length_a 22.524754
_cell_length_b 15.680940
_cell_length_c 19.864325
_cell_angle_alpha 90.000000
_cell_angle_beta 90.000000
_cell_angle_gamma 90.000000
_cell_volume 7016.264646
_symmetry_space_group_name_H-M "C M C A"
_symmetry_group_IT_number 64
_symmetry_cell_setting 'orthorhombic'
loop_
_space_group_symop_operation_xyz
x,y,z
-x,1/2-y,1/2+z
x,-y,-z
-x,1/2+y,1/2-z
-x,-y,-z
x,1/2+y,1/2-z
-x,y,z
x,1/2-y,1/2+z
1/2+x,1/2+y,z
1/2-x,-y,1/2+z
1/2+x,1/2-y,-z
1/2-x,y,1/2-z
1/2-x,1/2-y,-z
1/2+x,y,1/2-z
1/2-x,1/2+y,z
1/2+x,-y,1/2+z
loop_
_atom_site_type_symbol
_atom_site_label
_atom_site_fract_x
_atom_site_fract_y
_atom_site_fract_z
Si Si1 0.770977 0.055343 0.676627
Si Si2 0.679946 0.768800 0.989925
Si Si3 0.227561 0.935822 0.560749
Si Si4 0.180974 0.275454 0.231671
Si Si5 0.152552 0.160023 0.110812
Si Si6 0.150129 0.853478 0.132513
Si Si7 0.429533 0.004349 0.419780
O O1 0.750000 0.021518 0.750000
O O2 0.813663 0.134985 0.691455
O O3 0.711936 0.094808 0.642191
O O4 0.796221 0.987391 0.625034
O O5 0.681308 0.867143 0.968447
O O6 0.657072 0.709772 0.929829
O O7 0.750000 0.750000 0.000000
O O8 0.647484 0.737315 0.057143
O O9 0.286754 0.888667 0.588455
O O10 0.243464 0.000000 0.500000
O O11 0.250000 0.256091 0.250000
O O12 0.158032 0.201385 0.184040
O O13 0.145620 0.297573 0.299521
O O14 0.100972 0.090885 0.105753
O O15 0.100386 0.923401 0.116816
O O16 0.500000 0.004615 0.410389
O O17 0.416779 0.000000 0.500000
#
# Coordination Sequence:
#
# PCOD9477099 Si02
#       7
#    16  16  16  16  16  16  16
#     4   9  17  28  45  69 106 138 165 191 243 310
#     4  10  19  27  47  69 103 137 165 196 245 305
#     4  11  18  26  45  73 105 138 167 198 239 300
#     4   9  19  33  48  74 112 143 163 190 254 323
#     4  11  19  32  50  72 105 135 169 208 251 302
#     4  10  18  36  47  73 105 137 167 211 255 299
#     4  11  22  37  58  77  95 127 179 230 264 290
#
# _framework density 15.962909
#
# number of rings (size 3 to 8) (size 9 to 14) (size 15 to 20)
#    0.000    2.143    2.857    6.429    0.000    1.714 
#    0.000    0.714    0.000    0.000    0.000    0.000 
#    0.000    2.571    0.000    0.000    0.000    0.000 
#
# Total GULP energy -312157.711790 kJ/mol
# GULP energy per Si atom -5574.244853 kJ/mol
# Density = 1.592658 g / cm^3
# Si number density = 15.962909 Si / 1000 Ang^3
#
#
#
# Elastic Constant Matrix: (Units=GPa)
#
#
# Indices 1 2 3 4 5 6 
#
# 1 40.2714 27.1984 27.9994 0.0000 0.0000 0.0000
# 2 27.1984 83.9985 60.7114 0.0000 0.0000 0.0000
# 3 27.9994 60.7114 108.6949 0.0000 0.0000 0.0000
# 4 0.0000 0.0000 0.0000 44.9070 0.0000 0.0000
# 5 0.0000 0.0000 0.0000 0.0000 8.4044 0.0000
# 6 0.0000 0.0000 0.0000 0.0000 0.0000 12.9495
#
#
#
# Elastic Compliance Matrix: (Units=1/GPa)
#
#
# Indices 1 2 3 4 5 6 
#
# 1 0.032904 -0.007594 -0.004235 0.000000 0.000000 0.000000
# 2 -0.007594 0.021717 -0.010174 0.000000 0.000000 0.000000
# 3 -0.004235 -0.010174 0.015974 0.000000 0.000000 0.000000
# 4 0.000000 0.000000 0.000000 0.022268 0.000000 0.000000
# 5 0.000000 0.000000 0.000000 0.000000 0.118985 0.000000
# 6 0.000000 0.000000 0.000000 0.000000 0.000000 0.077223
#
#
# Mechanical properties :
#
#
# Convention : Reuss Voigt Hill
#
# Bulk Modulus (GPa) = 37.60740 51.64258 44.62499
# Shear Modulus (GPa) = 14.62247 21.05588 17.83917
#
# Velocity S-wave (km/s) = 3.02988 3.63581 3.34659
# Velocity P-wave (km/s) = 5.98754 7.07442 6.55355
#
# Compressibility (1/GPa) = 0.02659051
#
# Stress axis : x y z
#
# Youngs Moduli (GPa) = 30.39120 46.04644 62.60339
#
# Poissons Ratio (x) = 0.34966 0.26510
# Poissons Ratio (y) = 0.23078 0.63693
# Poissons Ratio (z) = 0.12869 0.46848
#
# Static dielectric constant tensor:
#      x y z
#    x 1.500820 0.000000 0.000000 
#    y 0.000000 1.193430 0.000000 
#    z 0.000000 0.000000 1.574970 
# 
# From -- ./inp_files/34470.got.cif
#   From: 2010.05.17/outbox.cif.g08.bks.cpg/sg64_18_cif.got.tgz:34470.got - 2010.06.03 16:29:19.
