data_PCOD9477358
_publ_section_title
;
Structure prediction by ZEFSAII (Michael W. Deem and Ramdas Pophale) SiO2 
 PCOD9477358
Probable space group: C M C A
;
_chemical_formula_sum "Si O2"
_cell_formula_units_Z 80
_cell_length_a 12.213820
_cell_length_b 14.571130
_cell_length_c 17.340008
_cell_angle_alpha 90.000000
_cell_angle_beta 90.000000
_cell_angle_gamma 90.000000
_cell_volume 3085.986641
_symmetry_space_group_name_H-M "C M C A"
_symmetry_group_IT_number 64
_symmetry_cell_setting 'orthorhombic'
loop_
_space_group_symop_operation_xyz
x,y,z
-x,1/2-y,1/2+z
x,-y,-z
-x,1/2+y,1/2-z
-x,-y,-z
x,1/2+y,1/2-z
-x,y,z
x,1/2-y,1/2+z
1/2+x,1/2+y,z
1/2-x,-y,1/2+z
1/2+x,1/2-y,-z
1/2-x,y,1/2-z
1/2-x,1/2-y,-z
1/2+x,y,1/2-z
1/2-x,1/2+y,z
1/2+x,-y,1/2+z
loop_
_atom_site_type_symbol
_atom_site_label
_atom_site_fract_x
_atom_site_fract_y
_atom_site_fract_z
Si Si1 0.000000 0.452716 0.674515
Si Si2 0.000000 0.642068 0.013035
Si Si3 0.728791 0.758455 0.335848
Si Si4 0.500000 0.321169 0.676965
Si Si5 0.000000 0.141521 0.011198
Si Si6 0.727689 0.968310 0.335366
Si Si7 0.250117 0.386561 0.968925
O O1 0.000000 0.386748 0.600715
O O2 0.099053 0.521491 0.667391
O O3 0.000000 0.385160 0.748045
O O4 0.128174 0.617567 0.991155
O O5 0.000000 0.612846 0.102880
O O6 0.000000 0.751076 0.002543
O O7 0.750000 0.719369 0.250000
O O8 0.600108 0.746420 0.334284
O O9 0.763956 0.701436 0.411084
O O10 0.766884 0.863425 0.337617
O O11 0.871884 0.109340 0.989185
O O12 0.750000 0.007909 0.250000
O O13 0.761386 0.030170 0.407622
#
# Coordination Sequence:
#
# PCOD9477358 Si02
#       7
#     8   8  16   8   8  16  16
#     4  10  19  33  54  80 111 146 187 234 282 334
#     4  10  20  35  59  83 108 147 187 228 285 343
#     4  10  19  31  51  80 112 147 186 230 282 336
#     4  10  19  33  54  80 111 146 187 234 282 334
#     4  10  20  35  59  83 108 147 187 228 285 343
#     4  10  19  31  51  80 112 147 186 230 282 336
#     4  10  20  36  56  78 111 146 187 234 281 336
#
# _framework density 25.923638
#
# number of rings (size 3 to 8) (size 9 to 14) (size 15 to 20)
#    0.000    2.000    0.000    6.600    0.000    0.000 
#    0.000    3.000    0.000   50.400    0.000    0.000 
#    0.000    0.000    0.000    0.000    0.000    0.000 
#
# Total GULP energy -222859.537465 kJ/mol
# GULP energy per Si atom -5571.488437 kJ/mol
# Density = 2.586463 g / cm^3
# Si number density = 25.923638 Si / 1000 Ang^3
#
#
#
# Elastic Constant Matrix: (Units=GPa)
#
#
# Indices 1 2 3 4 5 6 
#
# 1 197.7516 16.3452 51.3834 0.0000 0.0000 0.0000
# 2 16.3452 145.6015 20.4053 0.0000 0.0000 0.0000
# 3 51.3834 20.4053 97.9039 0.0000 0.0000 0.0000
# 4 0.0000 0.0000 0.0000 8.3127 0.0000 0.0000
# 5 0.0000 0.0000 0.0000 0.0000 13.3096 0.0000
# 6 0.0000 0.0000 0.0000 0.0000 0.0000 35.1691
#
#
#
# Elastic Compliance Matrix: (Units=1/GPa)
#
#
# Indices 1 2 3 4 5 6 
#
# 1 0.005863 -0.000234 -0.003028 0.000000 0.000000 0.000000
# 2 -0.000234 0.007084 -0.001354 0.000000 0.000000 0.000000
# 3 -0.003028 -0.001354 0.012086 0.000000 0.000000 0.000000
# 4 0.000000 0.000000 0.000000 0.120298 0.000000 0.000000
# 5 0.000000 0.000000 0.000000 0.000000 0.075134 0.000000
# 6 0.000000 0.000000 0.000000 0.000000 0.000000 0.028434
#
#
# Mechanical properties :
#
#
# Convention : Reuss Voigt Hill
#
# Bulk Modulus (GPa) = 63.28777 68.61388 65.95082
# Shear Modulus (GPa) = 18.98274 34.89982 26.94128
#
# Velocity S-wave (km/s) = 2.70896 3.67311 3.22725
# Velocity P-wave (km/s) = 5.85241 6.67189 6.27555
#
# Compressibility (1/GPa) = 0.01580084
#
# Stress axis : x y z
#
# Youngs Moduli (GPa) = 170.55903 141.16263 82.74252
#
# Poissons Ratio (x) = 0.03300 0.25058
# Poissons Ratio (y) = 0.03987 0.11201
# Poissons Ratio (z) = 0.51653 0.19110
#
# Static dielectric constant tensor:
#      x y z
#    x 2.423590 0.000000 0.000000 
#    y 0.000000 2.150600 0.000000 
#    z 0.000000 0.000000 2.315280 
# 
# From -- ./inp_files/44009.got.cif
#   From: 2010.05.17/outbox.cif.g08.bks.cpg/sg64_23_cif.got.tgz:44009.got - 2010.06.03 16:29:19.
