data_PCOD9477681
_publ_section_title
;
Structure prediction by ZEFSAII (Michael W. Deem and Ramdas Pophale) SiO2 
 PCOD9477681
Probable space group: C M C A
;
_chemical_formula_sum "Si O2"
_cell_formula_units_Z 104
_cell_length_a 14.259976
_cell_length_b 16.197730
_cell_length_c 18.542750
_cell_angle_alpha 90.000000
_cell_angle_beta 90.000000
_cell_angle_gamma 90.000000
_cell_volume 4282.990322
_symmetry_space_group_name_H-M "C M C A"
_symmetry_group_IT_number 64
_symmetry_cell_setting 'orthorhombic'
loop_
_space_group_symop_operation_xyz
x,y,z
-x,1/2-y,1/2+z
x,-y,-z
-x,1/2+y,1/2-z
-x,-y,-z
x,1/2+y,1/2-z
-x,y,z
x,1/2-y,1/2+z
1/2+x,1/2+y,z
1/2-x,-y,1/2+z
1/2+x,1/2-y,-z
1/2-x,y,1/2-z
1/2-x,1/2-y,-z
1/2+x,y,1/2-z
1/2-x,1/2+y,z
1/2+x,-y,1/2+z
loop_
_atom_site_type_symbol
_atom_site_label
_atom_site_fract_x
_atom_site_fract_y
_atom_site_fract_z
Si Si1 0.605392 0.638072 0.601337
Si Si2 0.388676 0.081842 0.298098
Si Si3 0.614959 0.398377 0.240632
Si Si4 0.113520 0.752152 0.524554
Si Si5 0.840078 0.500000 0.000000
Si Si6 0.114101 0.719650 0.182893
Si Si7 0.657503 0.418036 0.962379
O O1 0.500000 0.668414 0.617609
O O2 0.648281 0.615713 0.677436
O O3 0.651132 0.703674 0.547606
O O4 0.602482 0.554950 0.554561
O O5 0.500000 0.078258 0.285209
O O6 0.354213 0.150861 0.240846
O O7 0.375612 0.103092 0.382180
O O8 0.352809 0.987934 0.286922
O O9 0.500000 0.401374 0.238998
O O10 0.641628 0.313673 0.201403
O O11 0.143713 0.791482 0.600044
O O12 0.137830 0.656759 0.516030
O O13 0.000000 0.760745 0.522686
O O14 0.766669 0.557783 0.042022
O O15 0.000000 0.717853 0.184412
O O16 0.613998 0.500000 0.000000
#
# Coordination Sequence:
#
# PCOD9477681 Si02
#       7
#    16  16  16  16   8  16  16
#     4  10  21  39  65  88 112 154 208 261 305 348
#     4  10  19  33  58  88 121 158 198 247 298 356
#     4   9  18  32  56  87 117 148 191 254 307 345
#     4  10  20  35  63  94 119 156 205 253 298 353
#     4  10  25  40  57  86 120 162 202 250 295 366
#     4   9  18  32  53  89 124 147 193 255 303 345
#     4  10  22  38  57  86 124 165 198 236 305 363
#
# _framework density 24.2821
#
# number of rings (size 3 to 8) (size 9 to 14) (size 15 to 20)
#    0.462    1.846    0.000    2.538    2.154    5.538 
#    0.000    0.769    0.000    1.846    0.000    0.000 
#    0.000    0.000    0.000    0.000    0.000    0.000 
#
# Total GULP energy -290471.492678 kJ/mol
# GULP energy per Si atom -5585.990244 kJ/mol
# Density = 2.422683 g / cm^3
# Si number density = 24.282100 Si / 1000 Ang^3
#
#
#
# Elastic Constant Matrix: (Units=GPa)
#
#
# Indices 1 2 3 4 5 6 
#
# 1 60.7472 11.1447 2.6555 0.0000 0.0000 0.0000
# 2 11.1447 133.7580 63.2870 0.0000 0.0000 0.0000
# 3 2.6555 63.2870 109.1199 0.0000 0.0000 0.0000
# 4 0.0000 0.0000 0.0000 47.7909 0.0000 0.0000
# 5 0.0000 0.0000 0.0000 0.0000 -31.4934 0.0000
# 6 0.0000 0.0000 0.0000 0.0000 0.0000 28.8376
#
#
#
# Elastic Compliance Matrix: (Units=1/GPa)
#
#
# Indices 1 2 3 4 5 6 
#
# 1 0.016741 -0.001657 0.000553 0.000000 0.000000 0.000000
# 2 -0.001657 0.010468 -0.006031 0.000000 0.000000 0.000000
# 3 0.000553 -0.006031 0.012648 0.000000 0.000000 0.000000
# 4 0.000000 0.000000 0.000000 0.020925 0.000000 0.000000
# 5 0.000000 0.000000 0.000000 0.000000 -0.031753 0.000000
# 6 0.000000 0.000000 0.000000 0.000000 0.000000 0.034677
#
#
# Mechanical properties :
#
#
# Convention : Reuss Voigt Hill
#
# Bulk Modulus (GPa) = 39.07847 50.86662 44.97254
# Shear Modulus (GPa) = 57.80085 24.12954 40.96520
#
# Velocity S-wave (km/s) = 4.88422 3.15575 4.11183
# Velocity P-wave (km/s) = 6.92358 5.85423 6.41124
#
# Compressibility (1/GPa) = 0.02558954
#
# Stress axis : x y z
#
# Youngs Moduli (GPa) = 59.73208 95.53283 79.06140
#
# Poissons Ratio (x) = 0.15828 -0.04376
# Poissons Ratio (y) = 0.09896 0.47679
# Poissons Ratio (z) = -0.03306 0.57613
#
# Static dielectric constant tensor:
#      x y z
#    x 1.965030 0.000000 0.000000 
#    y 0.000000 1.930690 0.000000 
#    z 0.000000 0.000000 1.932910 
# 
# From -- ./inp_files/34314.got.cif
#   From: 2010.05.17/outbox.cif.g08.bks.cpg/sg64_18_cif.got.tgz:34314.got - 2010.06.03 16:29:19.
