data_PCOD9477220
_publ_section_title
;
Structure prediction by ZEFSAII (Michael W. Deem and Ramdas Pophale) SiO2 
 PCOD9477220
Probable space group: C M C A
;
_chemical_formula_sum "Si O2"
_cell_formula_units_Z 64
_cell_length_a 5.639008
_cell_length_b 19.268188
_cell_length_c 23.522511
_cell_angle_alpha 90.000000
_cell_angle_beta 90.000000
_cell_angle_gamma 90.000000
_cell_volume 2555.802356
_symmetry_space_group_name_H-M "C M C A"
_symmetry_group_IT_number 64
_symmetry_cell_setting 'orthorhombic'
loop_
_space_group_symop_operation_xyz
x,y,z
-x,1/2-y,1/2+z
x,-y,-z
-x,1/2+y,1/2-z
-x,-y,-z
x,1/2+y,1/2-z
-x,y,z
x,1/2-y,1/2+z
1/2+x,1/2+y,z
1/2-x,-y,1/2+z
1/2+x,1/2-y,-z
1/2-x,y,1/2-z
1/2-x,1/2-y,-z
1/2+x,y,1/2-z
1/2-x,1/2+y,z
1/2+x,-y,1/2+z
loop_
_atom_site_type_symbol
_atom_site_label
_atom_site_fract_x
_atom_site_fract_y
_atom_site_fract_z
Si Si1 0.000000 0.674187 0.043978
Si Si2 0.500000 0.783687 0.661383
Si Si3 0.000000 0.009294 0.068370
Si Si4 0.000000 0.831447 0.960698
Si Si5 0.500000 0.089007 0.714114
Si Si6 0.000000 0.726892 0.653384
Si Si7 0.000000 0.985414 0.567558
Si Si8 0.000000 0.430161 0.717462
O O1 0.245974 0.675166 0.009482
O O2 0.000000 0.734121 0.091814
O O3 0.000000 0.598424 0.074907
O O4 0.500000 0.779593 0.592591
O O5 0.750827 0.752201 0.680670
O O6 0.500000 0.863902 0.677605
O O7 0.745475 0.984664 0.090036
O O8 0.000000 0.092674 0.067394
O O9 0.000000 0.000000 0.000000
O O10 0.250000 0.098251 0.750000
O O11 0.500000 0.144623 0.663010
O O12 0.500000 0.008667 0.695106
O O13 0.000000 0.000000 0.500000
O O14 0.750000 0.424426 0.750000
#
# Coordination Sequence:
#
# PCOD9477220 Si02
#       8
#     8   8   8   8   8   8   8   8
#     4   8  14  23  34  52  77 102 127 160 200 239
#     4  10  19  30  46  66  86 110 139 177 216 253
#     4   8  12  18  29  45  68 100 128 151 185 234
#     4   8  14  23  34  52  77 102 127 160 200 239
#     4  10  21  35  48  63  85 112 142 177 217 260
#     4  10  19  30  46  66  86 110 139 177 216 253
#     4   8  12  18  29  45  68 100 128 151 185 234
#     4  10  21  35  48  63  85 112 142 177 217 260
#
# _framework density 25.041058
#
# number of rings (size 3 to 8) (size 9 to 14) (size 15 to 20)
#    0.000    3.000    0.000    1.500    0.000    3.000 
#    0.000    0.000    0.000    0.000    0.000    0.000 
#    0.000    0.000    0.000   81.000    0.000    7.500 
#
# Total GULP energy -178263.672701 kJ/mol
# GULP energy per Si atom -5570.739772 kJ/mol
# Density = 2.498406 g / cm^3
# Si number density = 25.041058 Si / 1000 Ang^3
#
#
#
# Elastic Constant Matrix: (Units=GPa)
#
#
# Indices 1 2 3 4 5 6 
#
# 1 344.7395 42.7685 44.7477 0.0000 0.0000 0.0000
# 2 42.7685 122.5912 8.7532 0.0000 0.0000 0.0000
# 3 44.7477 8.7532 34.2355 0.0000 0.0000 0.0000
# 4 0.0000 0.0000 0.0000 10.9699 0.0000 0.0000
# 5 0.0000 0.0000 0.0000 0.0000 16.7130 0.0000
# 6 0.0000 0.0000 0.0000 0.0000 0.0000 -72.3143
#
#
#
# Elastic Compliance Matrix: (Units=1/GPa)
#
#
# Indices 1 2 3 4 5 6 
#
# 1 0.003596 -0.000936 -0.004461 0.000000 0.000000 0.000000
# 2 -0.000936 0.008553 -0.000963 0.000000 0.000000 0.000000
# 3 -0.004461 -0.000963 0.035286 0.000000 0.000000 0.000000
# 4 0.000000 0.000000 0.000000 0.091159 0.000000 0.000000
# 5 0.000000 0.000000 0.000000 0.000000 0.059833 0.000000
# 6 0.000000 0.000000 0.000000 0.000000 0.000000 -0.013829
#
#
# Mechanical properties :
#
#
# Convention : Reuss Voigt Hill
#
# Bulk Modulus (GPa) = 28.80635 77.12278 52.96456
# Shear Modulus (GPa) = 23.93610 18.09351 21.01481
#
# Velocity S-wave (km/s) = 3.09508 2.69095 2.90006
# Velocity P-wave (km/s) = 4.92963 6.36556 5.69305
#
# Compressibility (1/GPa) = 0.03471457
#
# Stress axis : x y z
#
# Youngs Moduli (GPa) = 278.09719 116.92466 28.33975
#
# Poissons Ratio (x) = 0.10944 0.12641
# Poissons Ratio (y) = 0.26030 0.02730
# Poissons Ratio (z) = 1.24051 0.11263
#
# Static dielectric constant tensor:
#      x y z
#    x 2.056160 0.000000 0.000000 
#    y 0.000000 1.935810 0.000000 
#    z 0.000000 0.000000 2.006020 
# 
# From -- ./inp_files/51422.got.cif
#   From: 2010.05.17/outbox.cif.g08.bks.cpg/sg64_26_cif.got.tgz:51422.got - 2010.06.03 16:29:19.
