data_PCOD9477409
_publ_section_title
;
Structure prediction by ZEFSAII (Michael W. Deem and Ramdas Pophale) SiO2 
 PCOD9477409
Probable space group: C M C A
;
_chemical_formula_sum "Si O2"
_cell_formula_units_Z 80
_cell_length_a 8.806109
_cell_length_b 26.040147
_cell_length_c 21.123848
_cell_angle_alpha 90.000000
_cell_angle_beta 90.000000
_cell_angle_gamma 90.000000
_cell_volume 4843.959709
_symmetry_space_group_name_H-M "C M C A"
_symmetry_group_IT_number 64
_symmetry_cell_setting 'orthorhombic'
loop_
_space_group_symop_operation_xyz
x,y,z
-x,1/2-y,1/2+z
x,-y,-z
-x,1/2+y,1/2-z
-x,-y,-z
x,1/2+y,1/2-z
-x,y,z
x,1/2-y,1/2+z
1/2+x,1/2+y,z
1/2-x,-y,1/2+z
1/2+x,1/2-y,-z
1/2-x,y,1/2-z
1/2-x,1/2-y,-z
1/2+x,y,1/2-z
1/2-x,1/2+y,z
1/2+x,-y,1/2+z
loop_
_atom_site_type_symbol
_atom_site_label
_atom_site_fract_x
_atom_site_fract_y
_atom_site_fract_z
Si Si1 0.181587 0.815709 0.057500
Si Si2 0.684224 0.929267 0.448170
Si Si3 0.679514 0.289597 0.909699
Si Si4 0.816215 0.039731 0.091538
Si Si5 0.680532 0.625193 0.319678
O O1 0.234753 0.873197 0.074115
O O2 0.264566 0.769106 0.092141
O O3 0.000000 0.811487 0.067894
O O4 0.206878 0.808372 0.981992
O O5 0.500000 0.928500 0.447479
O O6 0.725355 0.938603 0.521758
O O7 0.730034 0.979787 0.409324
O O8 0.500000 0.293166 0.897997
O O9 0.765744 0.326468 0.861635
O O10 0.741871 0.074605 0.144585
O O11 0.000000 0.042771 0.096714
O O12 0.500000 0.623882 0.316226
O O13 0.750000 0.628511 0.250000
#
# Coordination Sequence:
#
# PCOD9477409 Si02
#       5
#    16  16  16  16  16
#     4   9  16  29  50  77 107 137 167 205 253 305
#     4   8  14  27  52  78 105 137 166 203 252 304
#     4  10  19  32  50  74 104 136 172 211 254 304
#     4   9  16  31  52  76 103 135 172 207 250 302
#     4  12  24  37  53  73 101 137 175 216 257 303
#
# _framework density 16.515414
#
# number of rings (size 3 to 8) (size 9 to 14) (size 15 to 20)
#    0.000    2.400    2.000    3.600    0.000    0.800 
#    0.000    3.000    0.000    1.200    0.000    5.600 
#    0.000    0.000    0.000    0.000    0.000    0.000 
#
# Total GULP energy -223031.717420 kJ/mol
# GULP energy per Si atom -5575.792935 kJ/mol
# Density = 1.647782 g / cm^3
# Si number density = 16.515414 Si / 1000 Ang^3
#
#
#
# Elastic Constant Matrix: (Units=GPa)
#
#
# Indices 1 2 3 4 5 6 
#
# 1 67.5825 52.6733 47.2976 0.0000 0.0000 0.0000
# 2 52.6733 161.2780 46.0735 0.0000 0.0000 0.0000
# 3 47.2976 46.0735 68.1321 0.0000 0.0000 0.0000
# 4 0.0000 0.0000 0.0000 12.3190 0.0000 0.0000
# 5 0.0000 0.0000 0.0000 0.0000 20.0551 0.0000
# 6 0.0000 0.0000 0.0000 0.0000 0.0000 26.9829
#
#
#
# Elastic Compliance Matrix: (Units=1/GPa)
#
#
# Indices 1 2 3 4 5 6 
#
# 1 0.031788 -0.005054 -0.018649 0.000000 0.000000 0.000000
# 2 -0.005054 0.008489 -0.002232 0.000000 0.000000 0.000000
# 3 -0.018649 -0.002232 0.029133 0.000000 0.000000 0.000000
# 4 0.000000 0.000000 0.000000 0.081175 0.000000 0.000000
# 5 0.000000 0.000000 0.000000 0.000000 0.049863 0.000000
# 6 0.000000 0.000000 0.000000 0.000000 0.000000 0.037061
#
#
# Mechanical properties :
#
#
# Convention : Reuss Voigt Hill
#
# Bulk Modulus (GPa) = 57.01614 65.45349 61.23481
# Shear Modulus (GPa) = 16.93626 21.93460 19.43543
#
# Velocity S-wave (km/s) = 3.20579 3.64830 3.43418
# Velocity P-wave (km/s) = 6.94987 7.58054 7.27205
#
# Compressibility (1/GPa) = 0.01753889
#
# Stress axis : x y z
#
# Youngs Moduli (GPa) = 31.45878 117.80331 34.32527
#
# Poissons Ratio (x) = 0.59539 0.64014
# Poissons Ratio (y) = 0.15900 0.07661
# Poissons Ratio (z) = 0.58669 0.26291
#
# Static dielectric constant tensor:
#      x y z
#    x 1.551390 0.000000 0.000000 
#    y 0.000000 1.584970 0.000000 
#    z 0.000000 0.000000 1.518370 
# 
# From -- ./inp_files/29724.got.cif
#   From: 2010.05.17/outbox.cif.g08.bks.cpg/sg64_15_cif.got.tgz:29724.got - 2010.06.03 16:29:19.
