data_PCOD9477769
_publ_section_title
;
Structure prediction by ZEFSAII (Michael W. Deem and Ramdas Pophale) SiO2 
 PCOD9477769
Probable space group: C M C A
;
_chemical_formula_sum "Si O2"
_cell_formula_units_Z 80
_cell_length_a 10.763279
_cell_length_b 23.120063
_cell_length_c 14.238521
_cell_angle_alpha 90.000000
_cell_angle_beta 90.000000
_cell_angle_gamma 90.000000
_cell_volume 3543.223039
_symmetry_space_group_name_H-M "C M C A"
_symmetry_group_IT_number 64
_symmetry_cell_setting 'orthorhombic'
loop_
_space_group_symop_operation_xyz
x,y,z
-x,1/2-y,1/2+z
x,-y,-z
-x,1/2+y,1/2-z
-x,-y,-z
x,1/2+y,1/2-z
-x,y,z
x,1/2-y,1/2+z
1/2+x,1/2+y,z
1/2-x,-y,1/2+z
1/2+x,1/2-y,-z
1/2-x,y,1/2-z
1/2-x,1/2-y,-z
1/2+x,y,1/2-z
1/2-x,1/2+y,z
1/2+x,-y,1/2+z
loop_
_atom_site_type_symbol
_atom_site_label
_atom_site_fract_x
_atom_site_fract_y
_atom_site_fract_z
Si Si1 0.243692 0.597222 0.644635
Si Si2 0.743929 0.649037 0.136262
Si Si3 0.000000 0.781056 0.862394
Si Si4 0.500000 0.342318 0.130910
Si Si5 0.141694 0.476796 0.605529
Si Si6 0.500000 0.291634 0.633592
Si Si7 0.000000 0.353428 0.139023
O O1 0.250000 0.622372 0.750000
O O2 0.124877 0.626537 0.596445
O O3 0.213808 0.529732 0.652827
O O4 0.377023 0.613618 0.604569
O O5 0.750000 0.650811 0.250000
O O6 0.626133 0.687679 0.106047
O O7 0.715259 0.582906 0.110461
O O8 0.874823 0.675493 0.103793
O O9 0.000000 0.787237 0.748170
O O10 0.000000 0.713723 0.888212
O O11 0.500000 0.275416 0.104899
O O12 0.500000 0.351843 0.245264
O O13 0.132219 0.500000 0.500000
O O14 0.000000 0.469359 0.642633
#
# Coordination Sequence:
#
# PCOD9477769 Si02
#       7
#    16  16   8   8  16   8   8
#     4  10  19  34  56  83 110 139 182 225 266 322
#     4  10  19  34  56  83 110 139 182 225 266 322
#     4   9  16  31  53  82 116 141 172 213 270 333
#     4   9  16  31  53  82 116 141 172 213 270 333
#     4  11  23  39  57  75 106 151 192 226 268 325
#     4   9  18  29  53  86 112 139 168 225 280 313
#     4   9  18  29  53  86 112 139 168 225 280 313
#
# _framework density 22.578313999999999
#
# number of rings (size 3 to 8) (size 9 to 14) (size 15 to 20)
#    0.000    2.200    2.000    1.800    0.000    5.600 
#    0.000    2.000    0.000    7.200    0.000    0.000 
#    0.000    0.000    0.000    0.000    0.000    0.000 
#
# Total GULP energy -223564.658356 kJ/mol
# GULP energy per Si atom -5589.116459 kJ/mol
# Density = 2.252692 g / cm^3
# Si number density = 22.578314 Si / 1000 Ang^3
#
#
#
# Elastic Constant Matrix: (Units=GPa)
#
#
# Indices 1 2 3 4 5 6 
#
# 1 270.1446 148.7251 10.1284 0.0000 0.0000 0.0000
# 2 148.7251 186.6587 -6.0619 0.0000 0.0000 0.0000
# 3 10.1284 -6.0619 51.0756 0.0000 0.0000 0.0000
# 4 0.0000 0.0000 0.0000 22.9776 0.0000 0.0000
# 5 0.0000 0.0000 0.0000 0.0000 -7.2132 0.0000
# 6 0.0000 0.0000 0.0000 0.0000 0.0000 42.1212
#
#
#
# Elastic Compliance Matrix: (Units=1/GPa)
#
#
# Indices 1 2 3 4 5 6 
#
# 1 0.006791 -0.005476 -0.001997 0.000000 0.000000 0.000000
# 2 -0.005476 0.009794 0.002248 0.000000 0.000000 0.000000
# 3 -0.001997 0.002248 0.020242 0.000000 0.000000 0.000000
# 4 0.000000 0.000000 0.000000 0.043521 0.000000 0.000000
# 5 0.000000 0.000000 0.000000 0.000000 -0.138635 0.000000
# 6 0.000000 0.000000 0.000000 0.000000 0.000000 0.023741
#
#
# Mechanical properties :
#
#
# Convention : Reuss Voigt Hill
#
# Bulk Modulus (GPa) = 37.91094 90.38470 64.14782
# Shear Modulus (GPa) = -326.68544 35.24959 -145.71792
#
# Velocity S-wave (km/s) = -12.04176 3.95551 -8.04233
# Velocity P-wave (km/s) = 13.28576 7.80896 7.60038
#
# Compressibility (1/GPa) = 0.02637761
#
# Stress axis : x y z
#
# Youngs Moduli (GPa) = 147.24628 102.10807 49.40324
#
# Poissons Ratio (x) = 0.55915 0.09864
# Poissons Ratio (y) = 0.80632 -0.11107
# Poissons Ratio (z) = 0.29400 -0.22956
#
# Static dielectric constant tensor:
#      x y z
#    x 1.826800 0.000000 0.000000 
#    y 0.000000 1.770270 0.000000 
#    z 0.000000 0.000000 1.934220 
# 
# From -- ./inp_files/30883.got.cif
#   From: 2010.05.17/outbox.cif.g08.bks.cpg/sg64_16_cif.got.tgz:30883.got - 2010.06.03 16:29:19.
