data_PCOD9477843
_publ_section_title
;
Structure prediction by ZEFSAII (Michael W. Deem and Ramdas Pophale) SiO2 
 PCOD9477843
Probable space group: C M C A
;
_chemical_formula_sum "Si O2"
_cell_formula_units_Z 48
_cell_length_a 16.279886
_cell_length_b 25.616056
_cell_length_c 5.213904
_cell_angle_alpha 90.000000
_cell_angle_beta 90.000000
_cell_angle_gamma 90.000000
_cell_volume 2174.335988
_symmetry_space_group_name_H-M "C M C A"
_symmetry_group_IT_number 64
_symmetry_cell_setting 'orthorhombic'
loop_
_space_group_symop_operation_xyz
x,y,z
-x,1/2-y,1/2+z
x,-y,-z
-x,1/2+y,1/2-z
-x,-y,-z
x,1/2+y,1/2-z
-x,y,z
x,1/2-y,1/2+z
1/2+x,1/2+y,z
1/2-x,-y,1/2+z
1/2+x,1/2-y,-z
1/2-x,y,1/2-z
1/2-x,1/2-y,-z
1/2+x,y,1/2-z
1/2-x,1/2+y,z
1/2+x,-y,1/2+z
loop_
_atom_site_type_symbol
_atom_site_label
_atom_site_fract_x
_atom_site_fract_y
_atom_site_fract_z
Si Si1 0.843650 0.727235 0.486754
Si Si2 0.095393 0.445666 0.120866
Si Si3 0.660624 0.394816 0.862464
O O1 0.883921 0.757720 0.253138
O O2 0.750000 0.750000 0.500000
O O3 0.840940 0.666008 0.437388
O O4 0.140084 0.426801 0.379342
O O5 0.000000 0.453044 0.191041
O O6 0.126998 0.500000 0.000000
O O7 0.102648 0.406110 0.881185
O O8 0.750000 0.407646 0.750000
#
# Coordination Sequence:
#
# PCOD9477843 Si02
#       3
#    16  16  16
#     4  10  19  34  60  97 128 171 206 264 334 410
#     4  11  26  47  67  92 138 190 220 264 346 413
#     4  12  23  39  73 105 128 169 235 287 320 390
#
# _framework density 22.075704000000002
#
# number of rings (size 3 to 8) (size 9 to 14) (size 15 to 20)
#    0.000    1.000    3.333    5.000    4.667    5.333 
#    0.000    0.000    0.000   20.000    0.000    0.000 
#    0.000    0.000    0.000    0.000    0.000    0.000 
#
# Total GULP energy -134103.165705 kJ/mol
# GULP energy per Si atom -5587.631904 kJ/mol
# Density = 2.202546 g / cm^3
# Si number density = 22.075704 Si / 1000 Ang^3
#
#
#
# Elastic Constant Matrix: (Units=GPa)
#
#
# Indices 1 2 3 4 5 6 
#
# 1 44.5891 42.4765 42.3778 0.0000 0.0000 0.0000
# 2 42.4765 136.2363 82.1695 0.0000 0.0000 0.0000
# 3 42.3778 82.1695 245.9494 0.0000 0.0000 0.0000
# 4 0.0000 0.0000 0.0000 45.5708 0.0000 0.0000
# 5 0.0000 0.0000 0.0000 0.0000 20.3536 0.0000
# 6 0.0000 0.0000 0.0000 0.0000 0.0000 -17.8291
#
#
#
# Elastic Compliance Matrix: (Units=1/GPa)
#
#
# Indices 1 2 3 4 5 6 
#
# 1 0.033427 -0.008702 -0.002852 0.000000 0.000000 0.000000
# 2 -0.008702 0.011458 -0.002329 0.000000 0.000000 0.000000
# 3 -0.002852 -0.002329 0.005335 0.000000 0.000000 0.000000
# 4 0.000000 0.000000 0.000000 0.021944 0.000000 0.000000
# 5 0.000000 0.000000 0.000000 0.000000 0.049131 0.000000
# 6 0.000000 0.000000 0.000000 0.000000 0.000000 -0.056088
#
#
# Mechanical properties :
#
#
# Convention : Reuss Voigt Hill
#
# Bulk Modulus (GPa) = 44.53369 84.53580 64.53474
# Shear Modulus (GPa) = 49.77198 26.93581 38.35390
#
# Velocity S-wave (km/s) = 4.75342 3.49686 4.17271
# Velocity P-wave (km/s) = 7.09532 7.39465 7.24653
#
# Compressibility (1/GPa) = 0.02245491
#
# Stress axis : x y z
#
# Youngs Moduli (GPa) = 29.91550 87.27733 187.42999
#
# Poissons Ratio (x) = 0.75947 0.53464
# Poissons Ratio (y) = 0.26032 0.43645
# Poissons Ratio (z) = 0.08533 0.20323
#
# Static dielectric constant tensor:
#      x y z
#    x 1.801060 0.000000 0.000000 
#    y 0.000000 1.806670 0.000000 
#    z 0.000000 0.000000 1.985190 
# 
# From -- ./inp_files/719.got.cif
#   From: 2010.05.17/outbox.cif.g08.bks.cpg/sg64_1_cif.got.tgz:719.got - 2010.06.03 16:29:19.
