data_PCOD9477720
_publ_section_title
;
Structure prediction by ZEFSAII (Michael W. Deem and Ramdas Pophale) SiO2 
 PCOD9477720
Probable space group: C M C A
;
_chemical_formula_sum "Si O2"
_cell_formula_units_Z 72
_cell_length_a 18.071946
_cell_length_b 14.903835
_cell_length_c 14.001365
_cell_angle_alpha 90.000000
_cell_angle_beta 90.000000
_cell_angle_gamma 90.000000
_cell_volume 3771.145869
_symmetry_space_group_name_H-M "C M C A"
_symmetry_group_IT_number 64
_symmetry_cell_setting 'orthorhombic'
loop_
_space_group_symop_operation_xyz
x,y,z
-x,1/2-y,1/2+z
x,-y,-z
-x,1/2+y,1/2-z
-x,-y,-z
x,1/2+y,1/2-z
-x,y,z
x,1/2-y,1/2+z
1/2+x,1/2+y,z
1/2-x,-y,1/2+z
1/2+x,1/2-y,-z
1/2-x,y,1/2-z
1/2-x,1/2-y,-z
1/2+x,y,1/2-z
1/2-x,1/2+y,z
1/2+x,-y,1/2+z
loop_
_atom_site_type_symbol
_atom_site_label
_atom_site_fract_x
_atom_site_fract_y
_atom_site_fract_z
Si Si1 0.414030 0.913819 0.313171
Si Si2 0.647908 0.500000 0.000000
Si Si3 0.159341 0.740516 0.111477
Si Si4 0.411619 0.599462 0.263833
Si Si5 0.322111 0.321604 0.912001
O O1 0.500000 0.892311 0.296368
O O2 0.367694 0.822952 0.322321
O O3 0.403209 0.960636 0.416549
O O4 0.389493 0.994263 0.242893
O O5 0.695801 0.581336 0.041100
O O6 0.117523 0.651400 0.144190
O O7 0.246972 0.724977 0.121089
O O8 0.144577 0.765907 0.000711
O O9 0.500000 0.602379 0.256832
O O10 0.375978 0.653414 0.174517
#
# Coordination Sequence:
#
# PCOD9477720 Si02
#       5
#    16   8  16  16  16
#     4   9  17  30  51  78 104 136 178 220 265 314
#     4   8  15  30  52  76 101 128 168 226 273 314
#     4  10  19  34  54  77 110 145 179 223 271 324
#     4  10  20  34  54  80 109 140 181 230 272 318
#     4   9  19  34  53  80 109 141 182 222 272 326
#
# _framework density 19.09234
#
# number of rings (size 3 to 8) (size 9 to 14) (size 15 to 20)
#    0.000    2.667    0.000    1.667    0.000    6.222 
#    0.000   15.556    0.000    0.000    0.000    7.778 
#    0.000    0.000    0.000    0.000    0.000    0.000 
#
# Total GULP energy -200605.845916 kJ/mol
# GULP energy per Si atom -5572.384609 kJ/mol
# Density = 1.904888 g / cm^3
# Si number density = 19.092340 Si / 1000 Ang^3
#
#
#
# Elastic Constant Matrix: (Units=GPa)
#
#
# Indices 1 2 3 4 5 6 
#
# 1 64.1999 50.7723 20.9730 0.0000 0.0000 0.0000
# 2 50.7723 107.5086 34.2342 0.0000 0.0000 0.0000
# 3 20.9730 34.2342 31.2006 0.0000 0.0000 0.0000
# 4 0.0000 0.0000 0.0000 34.5611 0.0000 0.0000
# 5 0.0000 0.0000 0.0000 0.0000 15.9495 0.0000
# 6 0.0000 0.0000 0.0000 0.0000 0.0000 33.5350
#
#
#
# Elastic Compliance Matrix: (Units=1/GPa)
#
#
# Indices 1 2 3 4 5 6 
#
# 1 0.025586 -0.010154 -0.006057 0.000000 0.000000 0.000000
# 2 -0.010154 0.018327 -0.013283 0.000000 0.000000 0.000000
# 3 -0.006057 -0.013283 0.050696 0.000000 0.000000 0.000000
# 4 0.000000 0.000000 0.000000 0.028934 0.000000 0.000000
# 5 0.000000 0.000000 0.000000 0.000000 0.062698 0.000000
# 6 0.000000 0.000000 0.000000 0.000000 0.000000 0.029820
#
#
# Mechanical properties :
#
#
# Convention : Reuss Voigt Hill
#
# Bulk Modulus (GPa) = 28.07377 46.09646 37.08512
# Shear Modulus (GPa) = 17.42630 23.27110 20.34870
#
# Velocity S-wave (km/s) = 3.02443 3.49502 3.26821
# Velocity P-wave (km/s) = 5.18964 6.36265 5.80584
#
# Compressibility (1/GPa) = 0.03562044
#
# Stress axis : x y z
#
# Youngs Moduli (GPa) = 39.08437 54.56473 19.72524
#
# Poissons Ratio (x) = 0.55408 0.11947
# Poissons Ratio (y) = 0.39688 0.26201
# Poissons Ratio (z) = 0.23673 0.72478
#
# Static dielectric constant tensor:
#      x y z
#    x 1.632910 0.000000 0.000000 
#    y 0.000000 1.702870 0.000000 
#    z 0.000000 0.000000 1.690990 
# 
# From -- ./inp_files/25119.got.cif
#   From: 2010.05.17/outbox.cif.g08.bks.cpg/sg64_13_cif.got.tgz:25119.got - 2010.06.03 16:29:19.
