data_PCOD9477413
_publ_section_title
;
Structure prediction by ZEFSAII (Michael W. Deem and Ramdas Pophale) SiO2 
 PCOD9477413
Probable space group: C M C A
;
_chemical_formula_sum "Si O2"
_cell_formula_units_Z 104
_cell_length_a 29.279683
_cell_length_b 21.599420
_cell_length_c 9.018460
_cell_angle_alpha 90.000000
_cell_angle_beta 90.000000
_cell_angle_gamma 90.000000
_cell_volume 5703.492085
_symmetry_space_group_name_H-M "C M C A"
_symmetry_group_IT_number 64
_symmetry_cell_setting 'orthorhombic'
loop_
_space_group_symop_operation_xyz
x,y,z
-x,1/2-y,1/2+z
x,-y,-z
-x,1/2+y,1/2-z
-x,-y,-z
x,1/2+y,1/2-z
-x,y,z
x,1/2-y,1/2+z
1/2+x,1/2+y,z
1/2-x,-y,1/2+z
1/2+x,1/2-y,-z
1/2-x,y,1/2-z
1/2-x,1/2-y,-z
1/2+x,y,1/2-z
1/2-x,1/2+y,z
1/2+x,-y,1/2+z
loop_
_atom_site_type_symbol
_atom_site_label
_atom_site_fract_x
_atom_site_fract_y
_atom_site_fract_z
Si Si1 0.617657 0.629805 0.340238
Si Si2 0.551348 0.203067 0.959314
Si Si3 0.382423 0.311475 0.961610
Si Si4 0.188391 0.702885 0.001808
Si Si5 0.448656 0.482244 0.673731
Si Si6 0.948063 0.885922 0.174465
Si Si7 0.250000 0.754392 0.250000
O O1 0.576801 0.672421 0.402699
O O2 0.635495 0.654329 0.183590
O O3 0.657141 0.643341 0.461490
O O4 0.593366 0.564588 0.313507
O O5 0.500000 0.218071 0.999499
O O6 0.577920 0.264094 0.913247
O O7 0.552405 0.154626 0.824705
O O8 0.343631 0.264377 0.019162
O O9 0.407810 0.358715 0.072345
O O10 0.226302 0.711766 0.127080
O O11 0.212620 0.705891 0.841939
O O12 0.449976 0.500000 0.500000
O O13 0.500000 0.456671 0.708192
O O14 0.442100 0.543134 0.774204
O O15 0.000000 0.880007 0.110796
#
# Coordination Sequence:
#
# PCOD9477413 Si02
#       7
#    16  16  16  16  16  16   8
#     4  11  21  34  54  79 112 148 189 236 276 332
#     4  10  19  32  51  74 110 155 189 227 278 328
#     4  11  22  33  50  85 122 138 184 234 287 342
#     4  10  21  37  58  91 116 142 175 232 293 366
#     4  10  20  36  55  76 109 160 212 237 260 317
#     4  10  21  35  52  77 116 161 202 240 272 320
#     4  10  20  38  62  84 122 138 170 224 310 362
#
# _framework density 18.234442999999999
#
# number of rings (size 3 to 8) (size 9 to 14) (size 15 to 20)
#    0.000    1.692    3.077    2.769    2.154    4.308 
#    0.000    1.538    0.000    0.000    0.000    6.462 
#    0.000    0.000    0.000    0.000    0.000    0.000 
#
# Total GULP energy -289880.733107 kJ/mol
# GULP energy per Si atom -5574.629483 kJ/mol
# Density = 1.819294 g / cm^3
# Si number density = 18.234443 Si / 1000 Ang^3
#
#
#
# Elastic Constant Matrix: (Units=GPa)
#
#
# Indices 1 2 3 4 5 6 
#
# 1 73.3686 26.3131 16.4534 0.0000 0.0000 0.0000
# 2 26.3131 72.6885 12.1856 0.0000 0.0000 0.0000
# 3 16.4534 12.1856 55.1622 0.0000 0.0000 0.0000
# 4 0.0000 0.0000 0.0000 12.2720 0.0000 0.0000
# 5 0.0000 0.0000 0.0000 0.0000 35.2223 0.0000
# 6 0.0000 0.0000 0.0000 0.0000 0.0000 13.3115
#
#
#
# Elastic Compliance Matrix: (Units=1/GPa)
#
#
# Indices 1 2 3 4 5 6 
#
# 1 0.016363 -0.005302 -0.003710 0.000000 0.000000 0.000000
# 2 -0.005302 0.016004 -0.001954 0.000000 0.000000 0.000000
# 3 -0.003710 -0.001954 0.019666 0.000000 0.000000 0.000000
# 4 0.000000 0.000000 0.000000 0.081486 0.000000 0.000000
# 5 0.000000 0.000000 0.000000 0.000000 0.028391 0.000000
# 6 0.000000 0.000000 0.000000 0.000000 0.000000 0.075123
#
#
# Mechanical properties :
#
#
# Convention : Reuss Voigt Hill
#
# Bulk Modulus (GPa) = 33.21892 34.56929 33.89411
# Shear Modulus (GPa) = 18.58741 21.91227 20.24984
#
# Velocity S-wave (km/s) = 3.19620 3.47031 3.33607
# Velocity P-wave (km/s) = 5.64607 5.92088 5.78511
#
# Compressibility (1/GPa) = 0.03010333
#
# Stress axis : x y z
#
# Youngs Moduli (GPa) = 61.11326 62.48409 50.84793
#
# Poissons Ratio (x) = 0.33126 0.18862
# Poissons Ratio (y) = 0.32399 0.09936
# Poissons Ratio (z) = 0.22670 0.12210
#
# Static dielectric constant tensor:
#      x y z
#    x 1.660060 0.000000 0.000000 
#    y 0.000000 1.628530 0.000000 
#    z 0.000000 0.000000 1.656050 
# 
# From -- ./inp_files/11193.got.cif
#   From: 2010.05.17/outbox.cif.g08.bks.cpg/sg64_6_cif.got.tgz:11193.got - 2010.06.03 16:29:19.
