data_PCOD9477162
_publ_section_title
;
Structure prediction by ZEFSAII (Michael W. Deem and Ramdas Pophale) SiO2 
 PCOD9477162
Probable space group: C M C A
;
_chemical_formula_sum "Si O2"
_cell_formula_units_Z 56
_cell_length_a 10.032810
_cell_length_b 11.109428
_cell_length_c 20.002333
_cell_angle_alpha 90.000000
_cell_angle_beta 90.000000
_cell_angle_gamma 90.000000
_cell_volume 2229.435640
_symmetry_space_group_name_H-M "C M C A"
_symmetry_group_IT_number 64
_symmetry_cell_setting 'orthorhombic'
loop_
_space_group_symop_operation_xyz
x,y,z
-x,1/2-y,1/2+z
x,-y,-z
-x,1/2+y,1/2-z
-x,-y,-z
x,1/2+y,1/2-z
-x,y,z
x,1/2-y,1/2+z
1/2+x,1/2+y,z
1/2-x,-y,1/2+z
1/2+x,1/2-y,-z
1/2-x,y,1/2-z
1/2-x,1/2-y,-z
1/2+x,y,1/2-z
1/2-x,1/2+y,z
1/2+x,-y,1/2+z
loop_
_atom_site_type_symbol
_atom_site_label
_atom_site_fract_x
_atom_site_fract_y
_atom_site_fract_z
Si Si1 0.500000 0.621956 0.946522
Si Si2 0.000000 0.299618 0.733574
Si Si3 0.274773 0.044668 0.895151
Si Si4 0.500000 0.869615 0.876301
Si Si5 0.500000 0.747926 0.588003
Si Si6 0.750000 0.124835 0.750000
O O1 0.637434 0.553111 0.933822
O O2 0.500000 0.730093 0.892323
O O3 0.500000 0.682633 0.018954
O O4 0.000000 0.330768 0.654841
O O5 0.874184 0.213566 0.744002
O O6 0.000000 0.391767 0.795816
O O7 0.370579 0.160141 0.908401
O O8 0.240640 0.046870 0.816547
O O9 0.368978 0.930377 0.907576
#
# Coordination Sequence:
#
# PCOD9477162 Si02
#       6
#     8   8  16   8   8   8
#     4  12  22  46  74  97 146 195 217 295 360 410
#     4  10  20  40  69 101 130 184 234 278 357 407
#     4  10  22  40  69 106 135 178 243 291 340 420
#     4  11  24  42  71 102 132 186 239 289 351 416
#     4   9  22  41  72 100 146 189 228 285 361 420
#     4  10  18  40  64  96 136 170 230 302 334 404
#
# _framework density 25.118465
#
# number of rings (size 3 to 8) (size 9 to 14) (size 15 to 20)
#    0.000    1.714    2.857    1.714    0.000    3.429 
#    0.000    4.286    6.286    3.429    0.000    0.000 
#    0.000    0.000    0.000    0.000    0.000    0.000 
#
# Total GULP energy -157034.346037 kJ/mol
# GULP energy per Si atom -5608.369501 kJ/mol
# Density = 2.506129 g / cm^3
# Si number density = 25.118465 Si / 1000 Ang^3
#
#
#
# Elastic Constant Matrix: (Units=GPa)
#
#
# Indices 1 2 3 4 5 6 
#
# 1 181.8903 27.2936 51.1136 0.0000 0.0000 0.0000
# 2 27.2936 41.4194 29.4179 0.0000 0.0000 0.0000
# 3 51.1136 29.4179 153.9977 0.0000 0.0000 0.0000
# 4 0.0000 0.0000 0.0000 42.9726 0.0000 0.0000
# 5 0.0000 0.0000 0.0000 0.0000 17.2840 0.0000
# 6 0.0000 0.0000 0.0000 0.0000 0.0000 7.0893
#
#
#
# Elastic Compliance Matrix: (Units=1/GPa)
#
#
# Indices 1 2 3 4 5 6 
#
# 1 0.006396 -0.003132 -0.001525 0.000000 0.000000 0.000000
# 2 -0.003132 0.029467 -0.004589 0.000000 0.000000 0.000000
# 3 -0.001525 -0.004589 0.007876 0.000000 0.000000 0.000000
# 4 0.000000 0.000000 0.000000 0.023271 0.000000 0.000000
# 5 0.000000 0.000000 0.000000 0.000000 0.057857 0.000000
# 6 0.000000 0.000000 0.000000 0.000000 0.000000 0.141058
#
#
# Mechanical properties :
#
#
# Convention : Reuss Voigt Hill
#
# Bulk Modulus (GPa) = 39.60841 65.88417 52.74629
# Shear Modulus (GPa) = 17.07458 31.43469 24.25463
#
# Velocity S-wave (km/s) = 2.61005 3.54143 3.11080
# Velocity P-wave (km/s) = 4.98859 6.55810 5.82643
#
# Compressibility (1/GPa) = 0.02524716
#
# Stress axis : x y z
#
# Youngs Moduli (GPa) = 156.34183 33.93663 126.96189
#
# Poissons Ratio (x) = 0.10629 0.19358
# Poissons Ratio (y) = 0.48965 0.58268
# Poissons Ratio (z) = 0.23837 0.15575
#
# Static dielectric constant tensor:
#      x y z
#    x 1.908430 0.000000 0.000000 
#    y 0.000000 1.951370 0.000000 
#    z 0.000000 0.000000 1.983610 
# 
# From -- ./inp_files/36198.got.cif
#   From: 2010.05.17/outbox.cif.g08.bks.cpg/sg64_19_cif.got.tgz:36198.got - 2010.06.03 16:29:19.
