data_PCOD9477188
_publ_section_title
;
Structure prediction by ZEFSAII (Michael W. Deem and Ramdas Pophale) SiO2 
 PCOD9477188
Probable space group: C M C A
;
_chemical_formula_sum "Si O2"
_cell_formula_units_Z 96
_cell_length_a 9.102839
_cell_length_b 23.218982
_cell_length_c 26.497052
_cell_angle_alpha 90.000000
_cell_angle_beta 90.000000
_cell_angle_gamma 90.000000
_cell_volume 5600.381269
_symmetry_space_group_name_H-M "C M C A"
_symmetry_group_IT_number 64
_symmetry_cell_setting 'orthorhombic'
loop_
_space_group_symop_operation_xyz
x,y,z
-x,1/2-y,1/2+z
x,-y,-z
-x,1/2+y,1/2-z
-x,-y,-z
x,1/2+y,1/2-z
-x,y,z
x,1/2-y,1/2+z
1/2+x,1/2+y,z
1/2-x,-y,1/2+z
1/2+x,1/2-y,-z
1/2-x,y,1/2-z
1/2-x,1/2-y,-z
1/2+x,y,1/2-z
1/2-x,1/2+y,z
1/2+x,-y,1/2+z
loop_
_atom_site_type_symbol
_atom_site_label
_atom_site_fract_x
_atom_site_fract_y
_atom_site_fract_z
Si Si1 0.171719 0.076698 0.303616
Si Si2 0.825545 0.827495 0.858432
Si Si3 0.663358 0.763418 0.294761
Si Si4 0.827517 0.939036 0.304019
Si Si5 0.833303 0.642472 0.618106
Si Si6 0.323699 0.735639 0.553133
O O1 0.250000 0.089575 0.250000
O O2 0.247260 0.111666 0.349157
O O3 0.000000 0.092162 0.300440
O O4 0.182719 0.007990 0.311192
O O5 0.761432 0.789464 0.812769
O O6 0.792015 0.788802 0.908002
O O7 0.000000 0.833812 0.855326
O O8 0.500000 0.745493 0.279958
O O9 0.750000 0.793129 0.250000
O O10 0.653200 0.807502 0.340201
O O11 0.750000 0.926692 0.250000
O O12 0.750487 0.907482 0.351269
O O13 0.000000 0.922722 0.301203
O O14 0.742994 0.675723 0.574684
O O15 0.000000 0.626034 0.602704
O O16 0.500000 0.730920 0.549486
O O17 0.250000 0.750000 0.500000
#
# Coordination Sequence:
#
# PCOD9477188 Si02
#       6
#    16  16  16  16  16  16
#     4  10  20  33  50  73 104 141 176 209 246 292
#     4  10  20  33  50  72  98 129 165 205 249 298
#     4  10  19  29  43  66  97 130 162 198 242 293
#     4  10  20  33  50  74 105 141 177 210 247 293
#     4  10  20  33  51  74 100 132 168 207 252 301
#     4  10  21  37  57  79 102 129 164 209 261 313
#
# _framework density 17.141689
#
# number of rings (size 3 to 8) (size 9 to 14) (size 15 to 20)
#    0.000    2.000    0.000    4.000    0.000    7.333 
#    0.000    0.000    0.000    1.000    0.000    7.000 
#    0.000    0.000    0.000    0.000    0.000    0.000 
#
# Total GULP energy -267589.840411 kJ/mol
# GULP energy per Si atom -5574.788342 kJ/mol
# Density = 1.710267 g / cm^3
# Si number density = 17.141689 Si / 1000 Ang^3
#
#
#
# Elastic Constant Matrix: (Units=GPa)
#
#
# Indices 1 2 3 4 5 6 
#
# 1 139.4757 53.8929 66.7333 0.0000 0.0000 0.0000
# 2 53.8929 73.7313 31.8448 0.0000 0.0000 0.0000
# 3 66.7333 31.8448 75.5734 0.0000 0.0000 0.0000
# 4 0.0000 0.0000 0.0000 18.7890 0.0000 0.0000
# 5 0.0000 0.0000 0.0000 0.0000 27.7526 0.0000
# 6 0.0000 0.0000 0.0000 0.0000 0.0000 22.8532
#
#
#
# Elastic Compliance Matrix: (Units=1/GPa)
#
#
# Indices 1 2 3 4 5 6 
#
# 1 0.014381 -0.006145 -0.010109 0.000000 0.000000 0.000000
# 2 -0.006145 0.019206 -0.002666 0.000000 0.000000 0.000000
# 3 -0.010109 -0.002666 0.023283 0.000000 0.000000 0.000000
# 4 0.000000 0.000000 0.000000 0.053223 0.000000 0.000000
# 5 0.000000 0.000000 0.000000 0.000000 0.036033 0.000000
# 6 0.000000 0.000000 0.000000 0.000000 0.000000 0.043758
#
#
# Mechanical properties :
#
#
# Convention : Reuss Voigt Hill
#
# Bulk Modulus (GPa) = 52.55564 65.96917 59.26241
# Shear Modulus (GPa) = 21.36127 22.96625 22.16376
#
# Velocity S-wave (km/s) = 3.53393 3.66428 3.59970
# Velocity P-wave (km/s) = 6.88314 7.51471 7.20585
#
# Compressibility (1/GPa) = 0.01902745
#
# Stress axis : x y z
#
# Youngs Moduli (GPa) = 69.53489 52.06604 42.95038
#
# Poissons Ratio (x) = 0.31997 0.43421
# Poissons Ratio (y) = 0.42733 0.11453
# Poissons Ratio (z) = 0.70296 0.13883
#
# Static dielectric constant tensor:
#      x y z
#    x 1.612020 0.000000 0.000000 
#    y 0.000000 1.603770 0.000000 
#    z 0.000000 0.000000 1.659180 
# 
# From -- ./inp_files/48088.got.cif
#   From: 2010.05.17/outbox.cif.g08.bks.cpg/sg64_25_cif.got.tgz:48088.got - 2010.06.03 16:29:19.
