data_PCOD9477857
_publ_section_title
;
Structure prediction by ZEFSAII (Michael W. Deem and Ramdas Pophale) SiO2 
 PCOD9477857
Probable space group: C M C A
;
_chemical_formula_sum "Si O2"
_cell_formula_units_Z 88
_cell_length_a 22.531315
_cell_length_b 12.049594
_cell_length_c 13.787486
_cell_angle_alpha 90.000000
_cell_angle_beta 90.000000
_cell_angle_gamma 90.000000
_cell_volume 3743.208667
_symmetry_space_group_name_H-M "C M C A"
_symmetry_group_IT_number 64
_symmetry_cell_setting 'orthorhombic'
loop_
_space_group_symop_operation_xyz
x,y,z
-x,1/2-y,1/2+z
x,-y,-z
-x,1/2+y,1/2-z
-x,-y,-z
x,1/2+y,1/2-z
-x,y,z
x,1/2-y,1/2+z
1/2+x,1/2+y,z
1/2-x,-y,1/2+z
1/2+x,1/2-y,-z
1/2-x,y,1/2-z
1/2-x,1/2-y,-z
1/2+x,y,1/2-z
1/2-x,1/2+y,z
1/2+x,-y,1/2+z
loop_
_atom_site_type_symbol
_atom_site_label
_atom_site_fract_x
_atom_site_fract_y
_atom_site_fract_z
Si Si1 0.145273 0.689585 0.282128
Si Si2 0.353886 0.957807 0.390012
Si Si3 0.069070 0.252524 0.886908
Si Si4 0.145071 0.500000 0.000000
Si Si5 0.764191 0.176272 0.593053
Si Si6 0.433142 0.859509 0.101431
O O1 0.142109 0.565308 0.322551
O O2 0.124366 0.691632 0.171094
O O3 0.204431 0.746454 0.326297
O O4 0.096728 0.773785 0.326415
O O5 0.410449 0.876465 0.384787
O O6 0.293747 0.888368 0.369096
O O7 0.348304 0.000000 0.500000
O O8 0.071300 0.298752 0.996553
O O9 0.000000 0.267120 0.854390
O O10 0.190384 0.410075 0.044167
O O11 0.097149 0.521589 0.913296
O O12 0.750000 0.250000 0.500000
O O13 0.500000 0.877229 0.129515
#
# Coordination Sequence:
#
# PCOD9477857 Si02
#       6
#    16  16  16   8  16  16
#     4  11  24  42  68  98 141 176 225 291 346 413
#     4  12  22  44  74 102 131 185 236 284 352 420
#     4  11  26  44  65 100 137 176 233 290 342 406
#     4  10  19  34  62  90 125 174 212 266 344 414
#     4  11  20  39  68 102 134 173 225 285 345 408
#     4  10  21  39  63  92 130 179 230 280 340 407
#
# _framework density 23.509242
#
# number of rings (size 3 to 8) (size 9 to 14) (size 15 to 20)
#    0.000    1.091    4.545    1.909    0.000    5.455 
#    0.000    5.455    0.000    0.000    0.000    0.000 
#    0.000    0.000    0.000    0.000    0.000    0.000 
#
# Total GULP energy -245509.439577 kJ/mol
# GULP energy per Si atom -5579.759990 kJ/mol
# Density = 2.345573 g / cm^3
# Si number density = 23.509242 Si / 1000 Ang^3
#
#
#
# Elastic Constant Matrix: (Units=GPa)
#
#
# Indices 1 2 3 4 5 6 
#
# 1 101.6604 6.8503 7.4248 0.0000 0.0000 0.0000
# 2 6.8503 99.7158 6.4658 0.0000 0.0000 0.0000
# 3 7.4248 6.4658 56.7106 0.0000 0.0000 0.0000
# 4 0.0000 0.0000 0.0000 37.9313 0.0000 0.0000
# 5 0.0000 0.0000 0.0000 0.0000 36.1667 0.0000
# 6 0.0000 0.0000 0.0000 0.0000 0.0000 1.9542
#
#
#
# Elastic Compliance Matrix: (Units=1/GPa)
#
#
# Indices 1 2 3 4 5 6 
#
# 1 0.009968 -0.000605 -0.001236 0.000000 0.000000 0.000000
# 2 -0.000605 0.010140 -0.001077 0.000000 0.000000 0.000000
# 3 -0.001236 -0.001077 0.017918 0.000000 0.000000 0.000000
# 4 0.000000 0.000000 0.000000 0.026363 0.000000 0.000000
# 5 0.000000 0.000000 0.000000 0.000000 0.027650 0.000000
# 6 0.000000 0.000000 0.000000 0.000000 0.000000 0.511731
#
#
# Mechanical properties :
#
#
# Convention : Reuss Voigt Hill
#
# Bulk Modulus (GPa) = 31.06523 33.28540 32.17532
# Shear Modulus (GPa) = 8.06016 31.03349 19.54683
#
# Velocity S-wave (km/s) = 1.85363 3.63720 2.88662
# Velocity P-wave (km/s) = 4.22185 5.64164 4.98258
#
# Compressibility (1/GPa) = 0.03219033
#
# Stress axis : x y z
#
# Youngs Moduli (GPa) = 100.32411 98.62061 55.80980
#
# Poissons Ratio (x) = 0.05963 0.06899
# Poissons Ratio (y) = 0.06066 0.06010
# Poissons Ratio (z) = 0.12401 0.10621
#
# Static dielectric constant tensor:
#      x y z
#    x 1.913080 0.000000 0.000000 
#    y 0.000000 1.913630 0.000000 
#    z 0.000000 0.000000 1.886880 
# 
# From -- ./inp_files/27167.got.cif
#   From: 2010.05.17/outbox.cif.g08.bks.cpg/sg64_14_cif.got.tgz:27167.got - 2010.06.03 16:29:19.
