data_PCOD9477618
_publ_section_title
;
Structure prediction by ZEFSAII (Michael W. Deem and Ramdas Pophale) SiO2 
 PCOD9477618
Probable space group: C M C A
;
_chemical_formula_sum "Si O2"
_cell_formula_units_Z 80
_cell_length_a 9.518349
_cell_length_b 15.409465
_cell_length_c 29.598732
_cell_angle_alpha 90.000000
_cell_angle_beta 90.000000
_cell_angle_gamma 90.000000
_cell_volume 4341.324926
_symmetry_space_group_name_H-M "C M C A"
_symmetry_group_IT_number 64
_symmetry_cell_setting 'orthorhombic'
loop_
_space_group_symop_operation_xyz
x,y,z
-x,1/2-y,1/2+z
x,-y,-z
-x,1/2+y,1/2-z
-x,-y,-z
x,1/2+y,1/2-z
-x,y,z
x,1/2-y,1/2+z
1/2+x,1/2+y,z
1/2-x,-y,1/2+z
1/2+x,1/2-y,-z
1/2-x,y,1/2-z
1/2-x,1/2-y,-z
1/2+x,y,1/2-z
1/2-x,1/2+y,z
1/2+x,-y,1/2+z
loop_
_atom_site_type_symbol
_atom_site_label
_atom_site_fract_x
_atom_site_fract_y
_atom_site_fract_z
Si Si1 0.164964 0.141102 0.117444
Si Si2 0.332578 0.479682 0.051395
Si Si3 0.337724 0.886846 0.206450
Si Si4 0.663006 0.597403 0.294036
Si Si5 0.166829 0.163302 0.605851
O O1 0.193277 0.063642 0.082680
O O2 0.261742 0.131044 0.161130
O O3 0.186532 0.235384 0.095673
O O4 0.000000 0.135923 0.131044
O O5 0.500000 0.462272 0.051999
O O6 0.250238 0.399581 0.072922
O O7 0.291272 0.500000 0.000000
O O8 0.500000 0.860640 0.212063
O O9 0.250000 0.858552 0.250000
O O10 0.287469 0.852432 0.157960
O O11 0.332170 0.991902 0.204274
O O12 0.500000 0.623150 0.291363
O O13 0.750000 0.625012 0.250000
O O14 0.000000 0.143230 0.604017
#
# Coordination Sequence:
#
# PCOD9477618 Si02
#       5
#    16  16  16  16  16
#     4  10  21  37  58  83 115 150 186 232 283 334
#     4  10  22  40  60  83 112 146 186 235 290 343
#     4   9  18  32  52  78 109 144 183 222 264 321
#     4  10  19  33  55  82 114 151 190 228 272 329
#     4  10  21  38  58  84 114 147 188 232 279 335
#
# _framework density 18.427555000000002
#
# number of rings (size 3 to 8) (size 9 to 14) (size 15 to 20)
#    0.000    2.200    2.000    0.600    0.000    4.400 
#    0.000    2.000    0.000    0.000    0.000    0.000 
#    0.000    0.000    0.000    0.000    0.000    0.000 
#
# Total GULP energy -223363.883470 kJ/mol
# GULP energy per Si atom -5584.097087 kJ/mol
# Density = 1.838561 g / cm^3
# Si number density = 18.427555 Si / 1000 Ang^3
#
#
#
# Elastic Constant Matrix: (Units=GPa)
#
#
# Indices 1 2 3 4 5 6 
#
# 1 79.1787 53.7597 66.7945 0.0000 0.0000 0.0000
# 2 53.7597 67.8584 37.5200 0.0000 0.0000 0.0000
# 3 66.7945 37.5200 105.9111 0.0000 0.0000 0.0000
# 4 0.0000 0.0000 0.0000 -6.1601 0.0000 0.0000
# 5 0.0000 0.0000 0.0000 0.0000 33.9011 0.0000
# 6 0.0000 0.0000 0.0000 0.0000 0.0000 16.1356
#
#
#
# Elastic Compliance Matrix: (Units=1/GPa)
#
#
# Indices 1 2 3 4 5 6 
#
# 1 0.048892 -0.026967 -0.021281 0.000000 0.000000 0.000000
# 2 -0.026967 0.033201 0.005246 0.000000 0.000000 0.000000
# 3 -0.021281 0.005246 0.021005 0.000000 0.000000 0.000000
# 4 0.000000 0.000000 0.000000 -0.162334 0.000000 0.000000
# 5 0.000000 0.000000 0.000000 0.000000 0.029498 0.000000
# 6 0.000000 0.000000 0.000000 0.000000 0.000000 0.061975
#
#
# Mechanical properties :
#
#
# Convention : Reuss Voigt Hill
#
# Bulk Modulus (GPa) = 58.50674 63.23296 60.86985
# Shear Modulus (GPa) = 40.34240 15.10025 27.72133
#
# Velocity S-wave (km/s) = 4.68401 2.86569 3.88279
# Velocity P-wave (km/s) = 7.81484 6.73338 7.29418
#
# Compressibility (1/GPa) = 0.01709205
#
# Stress axis : x y z
#
# Youngs Moduli (GPa) = 20.45310 30.11995 47.60805
#
# Poissons Ratio (x) = 0.81226 1.01316
# Poissons Ratio (y) = 0.55157 -0.24974
# Poissons Ratio (z) = 0.43527 -0.15800
#
# Static dielectric constant tensor:
#      x y z
#    x 1.620840 0.000000 0.000000 
#    y 0.000000 1.642450 0.000000 
#    z 0.000000 0.000000 1.605260 
# 
# From -- ./inp_files/47832.got.cif
#   From: 2010.05.17/outbox.cif.g08.bks.cpg/sg64_24_cif.got.tgz:47832.got - 2010.06.03 16:29:19.
