data_PCOD9477893
_publ_section_title
;
Structure prediction by ZEFSAII (Michael W. Deem and Ramdas Pophale) SiO2 
 PCOD9477893
Probable space group: C M C A
;
_chemical_formula_sum "Si O2"
_cell_formula_units_Z 68
_cell_length_a 20.137700
_cell_length_b 19.387268
_cell_length_c 7.535736
_cell_angle_alpha 90.000000
_cell_angle_beta 90.000000
_cell_angle_gamma 90.000000
_cell_volume 2942.064271
_symmetry_space_group_name_H-M "C M C A"
_symmetry_group_IT_number 64
_symmetry_cell_setting 'orthorhombic'
loop_
_space_group_symop_operation_xyz
x,y,z
-x,1/2-y,1/2+z
x,-y,-z
-x,1/2+y,1/2-z
-x,-y,-z
x,1/2+y,1/2-z
-x,y,z
x,1/2-y,1/2+z
1/2+x,1/2+y,z
1/2-x,-y,1/2+z
1/2+x,1/2-y,-z
1/2-x,y,1/2-z
1/2-x,1/2-y,-z
1/2+x,y,1/2-z
1/2-x,1/2+y,z
1/2+x,-y,1/2+z
loop_
_atom_site_type_symbol
_atom_site_label
_atom_site_fract_x
_atom_site_fract_y
_atom_site_fract_z
Si Si1 0.135096 0.921534 0.512345
Si Si2 0.755752 0.330718 0.537141
Si Si3 0.500000 0.000000 0.500000
Si Si4 0.000000 0.637194 0.906609
Si Si5 0.604194 0.619618 0.081966
Si Si6 0.000000 0.280642 0.719742
O O1 0.193452 0.870558 0.454983
O O2 0.119156 0.907151 0.718563
O O3 0.066211 0.908257 0.408856
O O4 0.156909 0.000000 0.500000
O O5 0.750000 0.339275 0.750000
O O6 0.750000 0.250000 0.500000
O O7 0.826826 0.362880 0.486876
O O8 0.442419 0.061194 0.499313
O O9 0.000000 0.680284 0.091994
O O10 0.000000 0.698633 0.765992
O O11 0.564231 0.690777 0.115947
#
# Coordination Sequence:
#
# PCOD9477893 Si02
#       6
#    16  16   4   8  16   8
#     4  10  21  38  59  83 120 160 193 247 307 360
#     4  10  21  40  62  88 123 160 201 254 305 365
#     4  10  20  38  58  86 116 158 200 246 300 364
#     4  10  19  35  57  80 116 147 201 238 295 349
#     4   9  20  38  58  80 124 153 190 250 304 343
#     4   9  18  35  55  81 108 153 188 242 286 343
#
# _framework density 23.113022999999998
#
# number of rings (size 3 to 8) (size 9 to 14) (size 15 to 20)
#    0.000    2.353    0.000    2.471    1.647    0.000 
#   12.706    0.000    0.000    0.000    0.000    0.000 
#    0.000    0.000    0.000    0.000    0.000    0.000 
#
# Total GULP energy -189700.018660 kJ/mol
# GULP energy per Si atom -5579.412314 kJ/mol
# Density = 2.306042 g / cm^3
# Si number density = 23.113023 Si / 1000 Ang^3
#
#
#
# Elastic Constant Matrix: (Units=GPa)
#
#
# Indices 1 2 3 4 5 6 
#
# 1 190.0084 72.8163 18.6135 0.0000 0.0000 0.0000
# 2 72.8163 158.4114 -3.8008 0.0000 0.0000 0.0000
# 3 18.6135 -3.8008 62.0417 0.0000 0.0000 0.0000
# 4 0.0000 0.0000 0.0000 19.0232 0.0000 0.0000
# 5 0.0000 0.0000 0.0000 0.0000 -0.3158 0.0000
# 6 0.0000 0.0000 0.0000 0.0000 0.0000 35.4071
#
#
#
# Elastic Compliance Matrix: (Units=1/GPa)
#
#
# Indices 1 2 3 4 5 6 
#
# 1 0.006674 -0.003120 -0.002193 0.000000 0.000000 0.000000
# 2 -0.003120 0.007781 0.001413 0.000000 0.000000 0.000000
# 3 -0.002193 0.001413 0.016863 0.000000 0.000000 0.000000
# 4 0.000000 0.000000 0.000000 0.052567 0.000000 0.000000
# 5 0.000000 0.000000 0.000000 0.000000 -3.166620 0.000000
# 6 0.000000 0.000000 0.000000 0.000000 0.000000 0.028243
#
#
# Mechanical properties :
#
#
# Convention : Reuss Voigt Hill
#
# Bulk Modulus (GPa) = 42.52488 65.07994 53.80241
# Shear Modulus (GPa) = -1.64536 32.34506 15.34985
#
# Velocity S-wave (km/s) = -0.84464 3.74495 2.57985
# Velocity P-wave (km/s) = 4.18179 6.84967 5.67474
#
# Compressibility (1/GPa) = 0.02351564
#
# Stress axis : x y z
#
# Youngs Moduli (GPa) = 149.84544 128.52083 59.30221
#
# Poissons Ratio (x) = 0.40101 0.13007
# Poissons Ratio (y) = 0.46755 -0.08378
# Poissons Ratio (z) = 0.32866 -0.18157
#
# Static dielectric constant tensor:
#      x y z
#    x 1.862390 0.000000 0.000000 
#    y 0.000000 1.794430 0.000000 
#    z 0.000000 0.000000 1.932470 
# 
# From -- ./inp_files/6736.got.cif
#   From: 2010.05.17/outbox.cif.g08.bks.cpg/sg64_4_cif.got.tgz:6736.got - 2010.06.03 16:29:19.
