data_PCOD9477417
_publ_section_title
;
Structure prediction by ZEFSAII (Michael W. Deem and Ramdas Pophale) SiO2 
 PCOD9477417
Probable space group: C M C A
;
_chemical_formula_sum "Si O2"
_cell_formula_units_Z 96
_cell_length_a 16.046053
_cell_length_b 19.073949
_cell_length_c 17.050478
_cell_angle_alpha 90.000000
_cell_angle_beta 90.000000
_cell_angle_gamma 90.000000
_cell_volume 5218.496519
_symmetry_space_group_name_H-M "C M C A"
_symmetry_group_IT_number 64
_symmetry_cell_setting 'orthorhombic'
loop_
_space_group_symop_operation_xyz
x,y,z
-x,1/2-y,1/2+z
x,-y,-z
-x,1/2+y,1/2-z
-x,-y,-z
x,1/2+y,1/2-z
-x,y,z
x,1/2-y,1/2+z
1/2+x,1/2+y,z
1/2-x,-y,1/2+z
1/2+x,1/2-y,-z
1/2-x,y,1/2-z
1/2-x,1/2-y,-z
1/2+x,y,1/2-z
1/2-x,1/2+y,z
1/2+x,-y,1/2+z
loop_
_atom_site_type_symbol
_atom_site_label
_atom_site_fract_x
_atom_site_fract_y
_atom_site_fract_z
Si Si1 0.400189 0.291204 0.806355
Si Si2 0.354788 0.795544 0.342898
Si Si3 0.849105 0.414156 0.238450
Si Si4 0.330259 0.680391 0.594396
Si Si5 0.404508 0.661346 0.430142
Si Si6 0.400054 0.426390 0.722724
O O1 0.500000 0.283671 0.792950
O O2 0.351413 0.247578 0.739255
O O3 0.375112 0.254442 0.886821
O O4 0.377229 0.371856 0.791831
O O5 0.388588 0.870047 0.310707
O O6 0.266411 0.808821 0.384350
O O7 0.403286 0.741153 0.397563
O O8 0.750000 0.406138 0.250000
O O9 0.868488 0.375752 0.156094
O O10 0.868716 0.495639 0.234905
O O11 0.347620 0.657383 0.506422
O O12 0.500000 0.642993 0.450014
O O13 0.375047 0.611004 0.359139
O O14 0.500000 0.429255 0.720432
#
# Coordination Sequence:
#
# PCOD9477417 Si02
#       6
#    16  16  16  16  16  16
#     4   9  17  31  50  73  97 128 169 208 245 293
#     4   9  18  33  50  71  98 129 166 204 240 291
#     4   9  19  33  50  72  97 128 166 200 239 292
#     4  10  19  32  51  74  99 129 165 207 251 295
#     4  10  20  33  50  76 103 129 162 204 252 300
#     4   9  19  32  48  72 101 129 162 201 245 293
#
# _framework density 18.396103
#
# number of rings (size 3 to 8) (size 9 to 14) (size 15 to 20)
#    0.000    2.667    0.000    4.000    0.000    7.333 
#    0.000    1.667    0.000    3.000    0.000    3.500 
#    0.000    0.000    0.000    1.000    0.000    0.000 
#
# Total GULP energy -267291.149157 kJ/mol
# GULP energy per Si atom -5568.565607 kJ/mol
# Density = 1.835423 g / cm^3
# Si number density = 18.396103 Si / 1000 Ang^3
#
#
#
# Elastic Constant Matrix: (Units=GPa)
#
#
# Indices 1 2 3 4 5 6 
#
# 1 30.2580 12.1556 8.8533 0.0000 0.0000 0.0000
# 2 12.1556 144.3934 39.2958 0.0000 0.0000 0.0000
# 3 8.8533 39.2958 51.0522 0.0000 0.0000 0.0000
# 4 0.0000 0.0000 0.0000 16.0788 0.0000 0.0000
# 5 0.0000 0.0000 0.0000 0.0000 16.4988 0.0000
# 6 0.0000 0.0000 0.0000 0.0000 0.0000 29.3290
#
#
#
# Elastic Compliance Matrix: (Units=1/GPa)
#
#
# Indices 1 2 3 4 5 6 
#
# 1 0.035121 -0.001643 -0.004826 0.000000 0.000000 0.000000
# 2 -0.001643 0.008838 -0.006517 0.000000 0.000000 0.000000
# 3 -0.004826 -0.006517 0.025441 0.000000 0.000000 0.000000
# 4 0.000000 0.000000 0.000000 0.062194 0.000000 0.000000
# 5 0.000000 0.000000 0.000000 0.000000 0.060610 0.000000
# 6 0.000000 0.000000 0.000000 0.000000 0.000000 0.034096
#
#
# Mechanical properties :
#
#
# Convention : Reuss Voigt Hill
#
# Bulk Modulus (GPa) = 23.02713 38.47923 30.75318
# Shear Modulus (GPa) = 18.74424 23.40793 21.07609
#
# Velocity S-wave (km/s) = 3.19552 3.57100 3.38846
# Velocity P-wave (km/s) = 5.11466 6.16159 5.66237
#
# Compressibility (1/GPa) = 0.04342704
#
# Stress axis : x y z
#
# Youngs Moduli (GPa) = 28.47281 113.15352 39.30625
#
# Poissons Ratio (x) = 0.18595 0.18968
# Poissons Ratio (y) = 0.04679 0.25618
# Poissons Ratio (z) = 0.13740 0.73747
#
# Static dielectric constant tensor:
#      x y z
#    x 1.675120 0.000000 0.000000 
#    y 0.000000 1.664380 0.000000 
#    z 0.000000 0.000000 1.642480 
# 
# From -- ./inp_files/33266.got.cif
#   From: 2010.05.17/outbox.cif.g08.bks.cpg/sg64_17_cif.got.tgz:33266.got - 2010.06.03 16:29:19.
