data_PCOD9477242
_publ_section_title
;
Structure prediction by ZEFSAII (Michael W. Deem and Ramdas Pophale) SiO2 
 PCOD9477242
Probable space group: C M C A
;
_chemical_formula_sum "Si O2"
_cell_formula_units_Z 96
_cell_length_a 9.102914
_cell_length_b 32.070529
_cell_length_c 19.615409
_cell_angle_alpha 90.000000
_cell_angle_beta 90.000000
_cell_angle_gamma 90.000000
_cell_volume 5726.429672
_symmetry_space_group_name_H-M "C M C A"
_symmetry_group_IT_number 64
_symmetry_cell_setting 'orthorhombic'
loop_
_space_group_symop_operation_xyz
x,y,z
-x,1/2-y,1/2+z
x,-y,-z
-x,1/2+y,1/2-z
-x,-y,-z
x,1/2+y,1/2-z
-x,y,z
x,1/2-y,1/2+z
1/2+x,1/2+y,z
1/2-x,-y,1/2+z
1/2+x,1/2-y,-z
1/2-x,y,1/2-z
1/2-x,1/2-y,-z
1/2+x,y,1/2-z
1/2-x,1/2+y,z
1/2+x,-y,1/2+z
loop_
_atom_site_type_symbol
_atom_site_label
_atom_site_fract_x
_atom_site_fract_y
_atom_site_fract_z
Si Si1 0.323834 0.699892 0.176169
Si Si2 0.175742 0.368724 0.918231
Si Si3 0.171462 0.045768 0.917325
Si Si4 0.323961 0.369758 0.421478
Si Si5 0.823699 0.295553 0.176921
Si Si6 0.672418 0.046240 0.417238
O O1 0.500000 0.694986 0.180655
O O2 0.250000 0.693648 0.250000
O O3 0.255023 0.667180 0.124095
O O4 0.291413 0.747894 0.155484
O O5 0.233654 0.414152 0.894791
O O6 0.000000 0.366166 0.911100
O O7 0.213872 0.364531 0.998630
O O8 0.257730 0.086718 0.895043
O O9 0.000000 0.049635 0.899564
O O10 0.222541 0.999836 0.893850
O O11 0.180337 0.045462 0.000051
O O12 0.500000 0.372459 0.417954
O O13 0.275082 0.330205 0.377242
O O14 0.750000 0.302720 0.250000
O O15 0.000000 0.298563 0.184290
O O16 0.500000 0.051479 0.399680
#
# Coordination Sequence:
#
# PCOD9477242 Si02
#       6
#    16  16  16  16  16  16
#     4  10  20  35  53  70  92 124 161 198 237 284
#     4  10  19  30  47  73 101 127 157 194 238 285
#     4   8  14  25  43  67  94 125 160 194 231 278
#     4   9  18  31  47  71 102 128 154 195 242 284
#     4   9  19  35  52  70  93 125 162 197 236 283
#     4   8  14  26  43  65  95 127 158 194 234 277
#
# _framework density 16.764372999999999
#
# number of rings (size 3 to 8) (size 9 to 14) (size 15 to 20)
#    0.000    3.000    0.000    2.000    0.000    3.333 
#    0.000    3.333    0.000    1.000    0.000    2.333 
#    0.000    0.000    0.000    0.000    0.000    0.000 
#
# Total GULP energy -267317.680869 kJ/mol
# GULP energy per Si atom -5569.118351 kJ/mol
# Density = 1.672622 g / cm^3
# Si number density = 16.764373 Si / 1000 Ang^3
#
#
#
# Elastic Constant Matrix: (Units=GPa)
#
#
# Indices 1 2 3 4 5 6 
#
# 1 45.4448 69.1429 33.4596 0.0000 0.0000 0.0000
# 2 69.1429 191.3744 78.0753 0.0000 0.0000 0.0000
# 3 33.4596 78.0753 44.6597 0.0000 0.0000 0.0000
# 4 0.0000 0.0000 0.0000 -10.4480 0.0000 0.0000
# 5 0.0000 0.0000 0.0000 0.0000 19.7098 0.0000
# 6 0.0000 0.0000 0.0000 0.0000 0.0000 32.0962
#
#
#
# Elastic Compliance Matrix: (Units=1/GPa)
#
#
# Indices 1 2 3 4 5 6 
#
# 1 0.054613 -0.010596 -0.022393 0.000000 0.000000 0.000000
# 2 -0.010596 0.020277 -0.027510 0.000000 0.000000 0.000000
# 3 -0.022393 -0.027510 0.087263 0.000000 0.000000 0.000000
# 4 0.000000 0.000000 0.000000 -0.095712 0.000000 0.000000
# 5 0.000000 0.000000 0.000000 0.000000 0.050736 0.000000
# 6 0.000000 0.000000 0.000000 0.000000 0.000000 0.031156
#
#
# Mechanical properties :
#
#
# Convention : Reuss Voigt Hill
#
# Bulk Modulus (GPa) = 24.29840 71.42608 47.86224
# Shear Modulus (GPa) = 17.66468 14.99166 16.32817
#
# Velocity S-wave (km/s) = 3.24960 2.99366 3.12425
# Velocity P-wave (km/s) = 5.34840 7.39241 6.45186
#
# Compressibility (1/GPa) = 0.04115497
#
# Stress axis : x y z
#
# Youngs Moduli (GPa) = 18.31055 49.31683 11.45960
#
# Poissons Ratio (x) = 0.52256 0.25661
# Poissons Ratio (y) = 0.19402 0.31526
# Poissons Ratio (z) = 0.41003 1.35672
#
# Static dielectric constant tensor:
#      x y z
#    x 1.558850 0.000000 0.000000 
#    y 0.000000 1.584210 0.000000 
#    z 0.000000 0.000000 1.544250 
# 
# From -- ./inp_files/37101.got.cif
#   From: 2010.05.17/outbox.cif.g08.bks.cpg/sg64_19_cif.got.tgz:37101.got - 2010.06.03 16:29:19.
