data_PCOD9477316
_publ_section_title
;
Structure prediction by ZEFSAII (Michael W. Deem and Ramdas Pophale) SiO2 
 PCOD9477316
Probable space group: C M C A
;
_chemical_formula_sum "Si O2"
_cell_formula_units_Z 96
_cell_length_a 15.803538
_cell_length_b 18.383683
_cell_length_c 17.665419
_cell_angle_alpha 90.000000
_cell_angle_beta 90.000000
_cell_angle_gamma 90.000000
_cell_volume 5132.285300
_symmetry_space_group_name_H-M "C M C A"
_symmetry_group_IT_number 64
_symmetry_cell_setting 'orthorhombic'
loop_
_space_group_symop_operation_xyz
x,y,z
-x,1/2-y,1/2+z
x,-y,-z
-x,1/2+y,1/2-z
-x,-y,-z
x,1/2+y,1/2-z
-x,y,z
x,1/2-y,1/2+z
1/2+x,1/2+y,z
1/2-x,-y,1/2+z
1/2+x,1/2-y,-z
1/2-x,y,1/2-z
1/2-x,1/2-y,-z
1/2+x,y,1/2-z
1/2-x,1/2+y,z
1/2+x,-y,1/2+z
loop_
_atom_site_type_symbol
_atom_site_label
_atom_site_fract_x
_atom_site_fract_y
_atom_site_fract_z
Si Si1 0.304995 0.153652 0.823861
Si Si2 0.693108 0.382481 0.874831
Si Si3 0.675369 0.767032 0.897604
Si Si4 0.402129 0.861528 0.477306
Si Si5 0.096149 0.782654 0.763009
Si Si6 0.756870 0.966430 0.082263
O O1 0.250000 0.132285 0.750000
O O2 0.247786 0.211755 0.868981
O O3 0.383252 0.201953 0.795418
O O4 0.312690 0.084533 0.878174
O O5 0.772437 0.340038 0.913729
O O6 0.661269 0.338992 0.801761
O O7 0.719380 0.465497 0.865053
O O8 0.617552 0.378674 0.935617
O O9 0.625873 0.721808 0.960822
O O10 0.615005 0.780672 0.826131
O O11 0.500000 0.871750 0.458171
O O12 0.340130 0.916015 0.431500
O O13 0.000000 0.802710 0.778770
O O14 0.734568 0.000000 0.000000
#
# Coordination Sequence:
#
# PCOD9477316 Si02
#       6
#    16  16  16  16  16  16
#     4   8  16  31  50  69  91 126 166 196 233 291
#     4  10  19  31  49  74 101 130 161 199 247 296
#     4   9  18  33  50  70  97 130 165 198 241 294
#     4  10  19  32  51  74 100 129 164 206 247 289
#     4  10  19  32  52  75  98 124 160 208 250 287
#     4   9  19  32  49  71  98 132 164 198 241 293
#
# _framework density 18.705117999999999
#
# number of rings (size 3 to 8) (size 9 to 14) (size 15 to 20)
#    0.000    2.667    0.000    3.000    0.000    6.333 
#    0.000    0.000    0.000    8.500    0.000    0.000 
#    0.000    0.000    0.000    0.000    0.000    0.000 
#
# Total GULP energy -267426.385919 kJ/mol
# GULP energy per Si atom -5571.383040 kJ/mol
# Density = 1.866254 g / cm^3
# Si number density = 18.705118 Si / 1000 Ang^3
#
#
#
# Elastic Constant Matrix: (Units=GPa)
#
#
# Indices 1 2 3 4 5 6 
#
# 1 35.9815 26.0404 3.4424 0.0000 0.0000 0.0000
# 2 26.0404 74.9383 8.2308 0.0000 0.0000 0.0000
# 3 3.4424 8.2308 14.9663 0.0000 0.0000 0.0000
# 4 0.0000 0.0000 0.0000 17.7944 0.0000 0.0000
# 5 0.0000 0.0000 0.0000 0.0000 15.5597 0.0000
# 6 0.0000 0.0000 0.0000 0.0000 0.0000 12.0669
#
#
#
# Elastic Compliance Matrix: (Units=1/GPa)
#
#
# Indices 1 2 3 4 5 6 
#
# 1 0.037163 -0.012745 -0.001539 0.000000 0.000000 0.000000
# 2 -0.012745 0.018573 -0.007283 0.000000 0.000000 0.000000
# 3 -0.001539 -0.007283 0.071176 0.000000 0.000000 0.000000
# 4 0.000000 0.000000 0.000000 0.056198 0.000000 0.000000
# 5 0.000000 0.000000 0.000000 0.000000 0.064269 0.000000
# 6 0.000000 0.000000 0.000000 0.000000 0.000000 0.082871
#
#
# Mechanical properties :
#
#
# Convention : Reuss Voigt Hill
#
# Bulk Modulus (GPa) = 11.93617 22.36815 17.15216
# Shear Modulus (GPa) = 12.45925 14.96236 13.71081
#
# Velocity S-wave (km/s) = 2.58367 2.83133 2.71033
# Velocity P-wave (km/s) = 3.91095 4.76160 4.35709
#
# Compressibility (1/GPa) = 0.08377896
#
# Stress axis : x y z
#
# Youngs Moduli (GPa) = 26.90855 53.84180 14.04967
#
# Poissons Ratio (x) = 0.68620 0.02162
# Poissons Ratio (y) = 0.34294 0.10232
# Poissons Ratio (z) = 0.04141 0.39212
#
# Static dielectric constant tensor:
#      x y z
#    x 1.638390 0.000000 0.000000 
#    y 0.000000 1.672770 0.000000 
#    z 0.000000 0.000000 1.704200 
# 
# From -- ./inp_files/33310.got.cif
#   From: 2010.05.17/outbox.cif.g08.bks.cpg/sg64_17_cif.got.tgz:33310.got - 2010.06.03 16:29:19.
