data_PCOD9477839
_publ_section_title
;
Structure prediction by ZEFSAII (Michael W. Deem and Ramdas Pophale) SiO2 
 PCOD9477839
Probable space group: C M C A
;
_chemical_formula_sum "Si O2"
_cell_formula_units_Z 72
_cell_length_a 15.596851
_cell_length_b 24.012622
_cell_length_c 8.980917
_cell_angle_alpha 90.000000
_cell_angle_beta 90.000000
_cell_angle_gamma 90.000000
_cell_volume 3363.544597
_symmetry_space_group_name_H-M "C M C A"
_symmetry_group_IT_number 64
_symmetry_cell_setting 'orthorhombic'
loop_
_space_group_symop_operation_xyz
x,y,z
-x,1/2-y,1/2+z
x,-y,-z
-x,1/2+y,1/2-z
-x,-y,-z
x,1/2+y,1/2-z
-x,y,z
x,1/2-y,1/2+z
1/2+x,1/2+y,z
1/2-x,-y,1/2+z
1/2+x,1/2-y,-z
1/2-x,y,1/2-z
1/2-x,1/2-y,-z
1/2+x,y,1/2-z
1/2-x,1/2+y,z
1/2+x,-y,1/2+z
loop_
_atom_site_type_symbol
_atom_site_label
_atom_site_fract_x
_atom_site_fract_y
_atom_site_fract_z
Si Si1 0.357383 0.197866 0.107284
Si Si2 0.665012 0.907852 0.325357
Si Si3 0.592385 0.418655 0.489912
Si Si4 0.737630 0.000000 0.000000
Si Si5 0.651938 0.811909 0.550630
O O1 0.380608 0.191831 0.280756
O O2 0.255211 0.190866 0.075844
O O3 0.399689 0.146094 0.025933
O O4 0.378323 0.258315 0.042193
O O5 0.750000 0.879363 0.250000
O O6 0.603867 0.921901 0.188436
O O7 0.701862 0.964831 0.392893
O O8 0.632560 0.867113 0.454598
O O9 0.500000 0.439299 0.539727
O O10 0.670977 0.453368 0.561029
#
# Coordination Sequence:
#
# PCOD9477839 Si02
#       5
#    16  16  16   8  16
#     4  10  20  33  59  91 122 158 206 258 308 371
#     4  10  20  38  62  92 120 160 213 259 301 371
#     4  11  23  41  62  92 129 166 201 261 329 371
#     4  10  21  38  63  88 120 160 212 256 303 368
#     4  10  19  34  60  91 120 157 212 260 299 358
#
# _framework density 21.405991
#
# number of rings (size 3 to 8) (size 9 to 14) (size 15 to 20)
#    0.000    1.778    4.444    1.667    3.111    5.333 
#    0.000    6.111    0.000    0.000    0.000    0.000 
#    0.000    0.000    0.000    0.000    0.000    0.000 
#
# Total GULP energy -200901.504475 kJ/mol
# GULP energy per Si atom -5580.597347 kJ/mol
# Density = 2.135727 g / cm^3
# Si number density = 21.405991 Si / 1000 Ang^3
#
#
#
# Elastic Constant Matrix: (Units=GPa)
#
#
# Indices 1 2 3 4 5 6 
#
# 1 42.5540 28.9415 15.8170 0.0000 0.0000 0.0000
# 2 28.9415 149.3127 78.0174 0.0000 0.0000 0.0000
# 3 15.8170 78.0174 139.0698 0.0000 0.0000 0.0000
# 4 0.0000 0.0000 0.0000 44.9779 0.0000 0.0000
# 5 0.0000 0.0000 0.0000 0.0000 1.7742 0.0000
# 6 0.0000 0.0000 0.0000 0.0000 0.0000 -9.5043
#
#
#
# Elastic Compliance Matrix: (Units=1/GPa)
#
#
# Indices 1 2 3 4 5 6 
#
# 1 0.027071 -0.005147 -0.000191 0.000000 0.000000 0.000000
# 2 -0.005147 0.010453 -0.005279 0.000000 0.000000 0.000000
# 3 -0.000191 -0.005279 0.010174 0.000000 0.000000 0.000000
# 4 0.000000 0.000000 0.000000 0.022233 0.000000 0.000000
# 5 0.000000 0.000000 0.000000 0.000000 0.563636 0.000000
# 6 0.000000 0.000000 0.000000 0.000000 0.000000 -0.105216
#
#
# Mechanical properties :
#
#
# Convention : Reuss Voigt Hill
#
# Bulk Modulus (GPa) = 37.78779 64.05425 50.92102
# Shear Modulus (GPa) = 8.95402 21.32692 15.14047
#
# Velocity S-wave (km/s) = 2.04744 3.15986 2.66240
# Velocity P-wave (km/s) = 4.82500 6.58038 5.76984
#
# Compressibility (1/GPa) = 0.02646358
#
# Stress axis : x y z
#
# Youngs Moduli (GPa) = 36.93933 95.66354 98.29179
#
# Poissons Ratio (x) = 0.49241 0.01881
# Poissons Ratio (y) = 0.19014 0.51887
# Poissons Ratio (z) = 0.00707 0.50499
#
# Static dielectric constant tensor:
#      x y z
#    x 1.792130 0.000000 0.000000 
#    y 0.000000 1.755180 0.000000 
#    z 0.000000 0.000000 1.787500 
# 
# From -- ./inp_files/6877.got.cif
#   From: 2010.05.17/outbox.cif.g08.bks.cpg/sg64_4_cif.got.tgz:6877.got - 2010.06.03 16:29:19.
