data_PCOD9477665
_publ_section_title
;
Structure prediction by ZEFSAII (Michael W. Deem and Ramdas Pophale) SiO2 
 PCOD9477665
Probable space group: C M C A
;
_chemical_formula_sum "Si O2"
_cell_formula_units_Z 80
_cell_length_a 14.483523
_cell_length_b 18.835116
_cell_length_c 13.626184
_cell_angle_alpha 90.000000
_cell_angle_beta 90.000000
_cell_angle_gamma 90.000000
_cell_volume 3717.207132
_symmetry_space_group_name_H-M "C M C A"
_symmetry_group_IT_number 64
_symmetry_cell_setting 'orthorhombic'
loop_
_space_group_symop_operation_xyz
x,y,z
-x,1/2-y,1/2+z
x,-y,-z
-x,1/2+y,1/2-z
-x,-y,-z
x,1/2+y,1/2-z
-x,y,z
x,1/2-y,1/2+z
1/2+x,1/2+y,z
1/2-x,-y,1/2+z
1/2+x,1/2-y,-z
1/2-x,y,1/2-z
1/2-x,1/2-y,-z
1/2+x,y,1/2-z
1/2-x,1/2+y,z
1/2+x,-y,1/2+z
loop_
_atom_site_type_symbol
_atom_site_label
_atom_site_fract_x
_atom_site_fract_y
_atom_site_fract_z
Si Si1 0.353020 0.471547 0.716006
Si Si2 0.887295 0.884882 0.389557
Si Si3 0.393121 0.332605 0.598395
Si Si4 0.886411 0.186552 0.812218
Si Si5 0.104821 0.453232 0.414533
O O1 0.250000 0.456903 0.750000
O O2 0.355791 0.535785 0.638006
O O3 0.391476 0.400249 0.669542
O O4 0.399904 0.501635 0.814370
O O5 0.853070 0.856161 0.493677
O O6 0.860239 0.834408 0.298598
O O7 0.000000 0.888615 0.392040
O O8 0.500000 0.314628 0.578144
O O9 0.353408 0.262485 0.649582
O O10 0.854005 0.122180 0.882428
O O11 0.000000 0.185199 0.812147
O O12 0.150181 0.500000 0.500000
O O13 0.000000 0.437417 0.448567
#
# Coordination Sequence:
#
# PCOD9477665 Si02
#       5
#    16  16  16  16  16
#     4  11  22  34  50  74 107 141 177 217 258 312
#     4   9  18  35  58  80 104 136 175 220 268 315
#     4  10  19  33  57  83 106 136 176 222 268 315
#     4   8  16  31  52  82 109 128 165 222 273 314
#     4   9  18  34  55  75  99 135 177 218 263 315
#
# _framework density 21.521533999999999
#
# number of rings (size 3 to 8) (size 9 to 14) (size 15 to 20)
#    0.000    2.600    0.000    3.600    0.000    4.800 
#    0.000   10.000    0.000    7.200    0.000    0.000 
#    0.000    0.000    0.000    0.000    0.000    0.000 
#
# Total GULP energy -223293.788903 kJ/mol
# GULP energy per Si atom -5582.344723 kJ/mol
# Density = 2.147255 g / cm^3
# Si number density = 21.521534 Si / 1000 Ang^3
#
#
#
# Elastic Constant Matrix: (Units=GPa)
#
#
# Indices 1 2 3 4 5 6 
#
# 1 33.3438 -17.4987 -2.7092 0.0000 0.0000 0.0000
# 2 -17.4987 188.4473 106.9722 0.0000 0.0000 0.0000
# 3 -2.7092 106.9722 109.1865 0.0000 0.0000 0.0000
# 4 0.0000 0.0000 0.0000 26.8153 0.0000 0.0000
# 5 0.0000 0.0000 0.0000 0.0000 18.2847 0.0000
# 6 0.0000 0.0000 0.0000 0.0000 0.0000 -7.1943
#
#
#
# Elastic Compliance Matrix: (Units=1/GPa)
#
#
# Indices 1 2 3 4 5 6 
#
# 1 0.032635 0.005792 -0.004864 0.000000 0.000000 0.000000
# 2 0.005792 0.012983 -0.012576 0.000000 0.000000 0.000000
# 3 -0.004864 -0.012576 0.021359 0.000000 0.000000 0.000000
# 4 0.000000 0.000000 0.000000 0.037292 0.000000 0.000000
# 5 0.000000 0.000000 0.000000 0.000000 0.054691 0.000000
# 6 0.000000 0.000000 0.000000 0.000000 0.000000 -0.138999
#
#
# Mechanical properties :
#
#
# Convention : Reuss Voigt Hill
#
# Bulk Modulus (GPa) = 22.89425 56.05624 39.47524
# Shear Modulus (GPa) = 86.47733 23.86202 55.16967
#
# Velocity S-wave (km/s) = 6.34579 3.33340 5.06856
# Velocity P-wave (km/s) = 8.02203 6.39676 7.25505
#
# Compressibility (1/GPa) = 0.04367908
#
# Stress axis : x y z
#
# Youngs Moduli (GPa) = 30.64219 77.02256 46.81845
#
# Poissons Ratio (x) = -0.44609 0.22775
# Poissons Ratio (y) = -0.17747 0.58880
# Poissons Ratio (z) = 0.14906 0.96865
#
# Static dielectric constant tensor:
#      x y z
#    x 1.865410 0.000000 0.000000 
#    y 0.000000 1.753190 0.000000 
#    z 0.000000 0.000000 1.766750 
# 
# From -- ./inp_files/25278.got.cif
#   From: 2010.05.17/outbox.cif.g08.bks.cpg/sg64_13_cif.got.tgz:25278.got - 2010.06.03 16:29:19.
