data_PCOD9477115
_publ_section_title
;
Structure prediction by ZEFSAII (Michael W. Deem and Ramdas Pophale) SiO2 
 PCOD9477115
Probable space group: C M C A
;
_chemical_formula_sum "Si O2"
_cell_formula_units_Z 88
_cell_length_a 19.325276
_cell_length_b 13.712101
_cell_length_c 12.603565
_cell_angle_alpha 90.000000
_cell_angle_beta 90.000000
_cell_angle_gamma 90.000000
_cell_volume 3339.820408
_symmetry_space_group_name_H-M "C M C A"
_symmetry_group_IT_number 64
_symmetry_cell_setting 'orthorhombic'
loop_
_space_group_symop_operation_xyz
x,y,z
-x,1/2-y,1/2+z
x,-y,-z
-x,1/2+y,1/2-z
-x,-y,-z
x,1/2+y,1/2-z
-x,y,z
x,1/2-y,1/2+z
1/2+x,1/2+y,z
1/2-x,-y,1/2+z
1/2+x,1/2-y,-z
1/2-x,y,1/2-z
1/2-x,1/2-y,-z
1/2+x,y,1/2-z
1/2-x,1/2+y,z
1/2+x,-y,1/2+z
loop_
_atom_site_type_symbol
_atom_site_label
_atom_site_fract_x
_atom_site_fract_y
_atom_site_fract_z
Si Si1 0.420239 0.731521 0.849961
Si Si2 0.618069 0.574298 0.274789
Si Si3 0.075543 0.617489 0.871476
Si Si4 0.637065 0.610763 0.042360
Si Si5 0.281291 0.615438 0.526682
Si Si6 0.250000 0.061411 0.750000
O O1 0.500000 0.765906 0.850277
O O2 0.372044 0.825493 0.836047
O O3 0.413044 0.666469 0.743784
O O4 0.403699 0.669182 0.953046
O O5 0.574791 0.498221 0.344864
O O6 0.685913 0.510659 0.257127
O O7 0.598280 0.606249 0.155312
O O8 0.140006 0.645625 0.945396
O O9 0.000000 0.646553 0.912316
O O10 0.717506 0.649467 0.048490
O O11 0.642152 0.500000 0.000000
O O12 0.289717 0.500000 0.500000
O O13 0.246356 0.622737 0.643461
#
# Coordination Sequence:
#
# PCOD9477115 Si02
#       6
#    16  16  16  16  16   8
#     4  11  25  42  64  99 135 175 229 285 345 413
#     4  11  22  41  68  98 135 174 228 290 344 406
#     4  10  22  41  65  93 137 187 221 279 357 410
#     4  11  20  43  74 101 127 176 236 288 340 398
#     4  10  19  37  68  98 126 171 232 281 333 411
#     4  10  18  36  64 100 134 168 220 290 344 392
#
# _framework density 26.348723
#
# number of rings (size 3 to 8) (size 9 to 14) (size 15 to 20)
#    0.000    1.455    5.455    1.636    0.000    3.636 
#    6.545    1.818    0.000    0.000    0.000    0.000 
#    0.000    0.000    0.000    0.000    0.000    0.000 
#
# Total GULP energy -246272.530898 kJ/mol
# GULP energy per Si atom -5597.102975 kJ/mol
# Density = 2.628875 g / cm^3
# Si number density = 26.348723 Si / 1000 Ang^3
#
#
#
# Elastic Constant Matrix: (Units=GPa)
#
#
# Indices 1 2 3 4 5 6 
#
# 1 119.8144 4.4588 -10.7873 0.0000 0.0000 0.0000
# 2 4.4588 101.3672 23.7700 0.0000 0.0000 0.0000
# 3 -10.7873 23.7700 138.3790 0.0000 0.0000 0.0000
# 4 0.0000 0.0000 0.0000 42.7718 0.0000 0.0000
# 5 0.0000 0.0000 0.0000 0.0000 25.0035 0.0000
# 6 0.0000 0.0000 0.0000 0.0000 0.0000 9.7256
#
#
#
# Elastic Compliance Matrix: (Units=1/GPa)
#
#
# Indices 1 2 3 4 5 6 
#
# 1 0.008434 -0.000547 0.000751 0.000000 0.000000 0.000000
# 2 -0.000547 0.010315 -0.001814 0.000000 0.000000 0.000000
# 3 0.000751 -0.001814 0.007597 0.000000 0.000000 0.000000
# 4 0.000000 0.000000 0.000000 0.023380 0.000000 0.000000
# 5 0.000000 0.000000 0.000000 0.000000 0.039994 0.000000
# 6 0.000000 0.000000 0.000000 0.000000 0.000000 0.102821
#
#
# Mechanical properties :
#
#
# Convention : Reuss Voigt Hill
#
# Bulk Modulus (GPa) = 43.24256 43.82706 43.53481
# Shear Modulus (GPa) = 24.57367 38.30812 31.44090
#
# Velocity S-wave (km/s) = 3.05722 3.81713 3.45811
# Velocity P-wave (km/s) = 5.37674 6.00807 5.70115
#
# Compressibility (1/GPa) = 0.02312537
#
# Stress axis : x y z
#
# Youngs Moduli (GPa) = 118.56396 96.94921 131.63457
#
# Poissons Ratio (x) = 0.05305 -0.09892
# Poissons Ratio (y) = 0.06488 0.23885
# Poissons Ratio (z) = -0.08910 0.17591
#
# Static dielectric constant tensor:
#      x y z
#    x 2.107000 0.000000 0.000000 
#    y 0.000000 2.051990 0.000000 
#    z 0.000000 0.000000 2.106980 
# 
# From -- ./inp_files/26222.got.cif
#   From: 2010.05.17/outbox.cif.g08.bks.cpg/sg64_14_cif.got.tgz:26222.got - 2010.06.03 16:29:19.
