data_PCOD9477957
_publ_section_title
;
Structure prediction by ZEFSAII (Michael W. Deem and Ramdas Pophale) SiO2 
 PCOD9477957
Probable space group: C M C A
;
_chemical_formula_sum "Si O2"
_cell_formula_units_Z 112
_cell_length_a 25.279817
_cell_length_b 14.494157
_cell_length_c 14.288397
_cell_angle_alpha 90.000000
_cell_angle_beta 90.000000
_cell_angle_gamma 90.000000
_cell_volume 5235.406351
_symmetry_space_group_name_H-M "C M C A"
_symmetry_group_IT_number 64
_symmetry_cell_setting 'orthorhombic'
loop_
_space_group_symop_operation_xyz
x,y,z
-x,1/2-y,1/2+z
x,-y,-z
-x,1/2+y,1/2-z
-x,-y,-z
x,1/2+y,1/2-z
-x,y,z
x,1/2-y,1/2+z
1/2+x,1/2+y,z
1/2-x,-y,1/2+z
1/2+x,1/2-y,-z
1/2-x,y,1/2-z
1/2-x,1/2-y,-z
1/2+x,y,1/2-z
1/2-x,1/2+y,z
1/2+x,-y,1/2+z
loop_
_atom_site_type_symbol
_atom_site_label
_atom_site_fract_x
_atom_site_fract_y
_atom_site_fract_z
Si Si1 0.599133 0.373902 0.514482
Si Si2 0.399365 0.991858 0.166101
Si Si3 0.165016 0.256257 0.372738
Si Si4 0.557472 0.201031 0.419167
Si Si5 0.193834 0.394904 0.732442
Si Si6 0.440389 0.184163 0.730541
Si Si7 0.334799 0.106700 0.477171
O O1 0.573802 0.428088 0.602736
O O2 0.618308 0.430557 0.423642
O O3 0.650569 0.324877 0.555436
O O4 0.560268 0.295676 0.477715
O O5 0.432502 0.919062 0.226825
O O6 0.354370 0.041264 0.228802
O O7 0.191794 0.202714 0.287638
O O8 0.108876 0.296644 0.336299
O O9 0.189474 0.336155 0.436210
O O10 0.500000 0.156706 0.426411
O O11 0.564874 0.239067 0.313268
O O12 0.604880 0.139355 0.456982
O O13 0.250000 0.442183 0.750000
O O14 0.191264 0.375852 0.622711
O O15 0.500000 0.191193 0.692004
O O16 0.333299 0.000000 0.500000
#
# Coordination Sequence:
#
# PCOD9477957 Si02
#       7
#    16  16  16  16  16  16  16
#     4   8  17  33  59  87 119 160 206 261 311 365
#     4   9  18  37  61  90 124 157 203 272 315 371
#     4  10  21  40  64  88 129 169 210 264 310 387
#     4   9  18  34  60  90 129 177 214 252 316 393
#     4  11  24  45  67  92 126 167 215 268 334 389
#     4  10  19  35  62  92 129 175 214 251 318 387
#     4  11  23  42  64  95 133 166 214 280 324 387
#
# _framework density 21.392800000000001
#
# number of rings (size 3 to 8) (size 9 to 14) (size 15 to 20)
#    0.000    2.286    1.429    0.857    0.000    3.714 
#    5.143   10.000    0.000    0.000    0.000    0.000 
#    0.000    0.000    0.000    0.000    0.000    0.000 
#
# Total GULP energy -312019.910551 kJ/mol
# GULP energy per Si atom -5571.784117 kJ/mol
# Density = 2.134411 g / cm^3
# Si number density = 21.392800 Si / 1000 Ang^3
#
#
#
# Elastic Constant Matrix: (Units=GPa)
#
#
# Indices 1 2 3 4 5 6 
#
# 1 41.6791 -1.0105 22.7462 0.0000 0.0000 0.0000
# 2 -1.0105 77.8637 29.9387 0.0000 0.0000 0.0000
# 3 22.7462 29.9387 105.3334 0.0000 0.0000 0.0000
# 4 0.0000 0.0000 0.0000 30.8692 0.0000 0.0000
# 5 0.0000 0.0000 0.0000 0.0000 -1.2198 0.0000
# 6 0.0000 0.0000 0.0000 0.0000 0.0000 72.4342
#
#
#
# Elastic Compliance Matrix: (Units=1/GPa)
#
#
# Indices 1 2 3 4 5 6 
#
# 1 0.027808 0.002997 -0.006857 0.000000 0.000000 0.000000
# 2 0.002997 0.014742 -0.004837 0.000000 0.000000 0.000000
# 3 -0.006857 -0.004837 0.012349 0.000000 0.000000 0.000000
# 4 0.000000 0.000000 0.000000 0.032395 0.000000 0.000000
# 5 0.000000 0.000000 0.000000 0.000000 -0.819777 0.000000
# 6 0.000000 0.000000 0.000000 0.000000 0.000000 0.013806
#
#
# Mechanical properties :
#
#
# Convention : Reuss Voigt Hill
#
# Bulk Modulus (GPa) = 26.66304 36.46943 31.56623
# Shear Modulus (GPa) = -7.25918 31.96350 12.35216
#
# Velocity S-wave (km/s) = -1.84408 3.86958 2.40552
# Velocity P-wave (km/s) = 2.82071 6.08682 4.74372
#
# Compressibility (1/GPa) = 0.03750510
#
# Stress axis : x y z
#
# Youngs Moduli (GPa) = 35.96144 67.83427 80.97657
#
# Poissons Ratio (x) = -0.20332 0.55524
# Poissons Ratio (y) = -0.10779 0.39171
# Poissons Ratio (z) = 0.24658 0.32813
#
# Static dielectric constant tensor:
#      x y z
#    x 1.778070 0.000000 0.000000 
#    y 0.000000 1.835920 0.000000 
#    z 0.000000 0.000000 1.832240 
# 
# From -- ./inp_files/28086.got.cif
#   From: 2010.05.17/outbox.cif.g08.bks.cpg/sg64_15_cif.got.tgz:28086.got - 2010.06.03 16:29:19.
