data_PCOD9477872
_publ_section_title
;
Structure prediction by ZEFSAII (Michael W. Deem and Ramdas Pophale) SiO2 
 PCOD9477872
Probable space group: C M C A
;
_chemical_formula_sum "Si O2"
_cell_formula_units_Z 112
_cell_length_a 22.499896
_cell_length_b 11.467417
_cell_length_c 23.123292
_cell_angle_alpha 90.000000
_cell_angle_beta 90.000000
_cell_angle_gamma 90.000000
_cell_volume 5966.172138
_symmetry_space_group_name_H-M "C M C A"
_symmetry_group_IT_number 64
_symmetry_cell_setting 'orthorhombic'
loop_
_space_group_symop_operation_xyz
x,y,z
-x,1/2-y,1/2+z
x,-y,-z
-x,1/2+y,1/2-z
-x,-y,-z
x,1/2+y,1/2-z
-x,y,z
x,1/2-y,1/2+z
1/2+x,1/2+y,z
1/2-x,-y,1/2+z
1/2+x,1/2-y,-z
1/2-x,y,1/2-z
1/2-x,1/2-y,-z
1/2+x,y,1/2-z
1/2-x,1/2+y,z
1/2+x,-y,1/2+z
loop_
_atom_site_type_symbol
_atom_site_label
_atom_site_fract_x
_atom_site_fract_y
_atom_site_fract_z
Si Si1 0.429819 0.944675 0.757114
Si Si2 0.148411 0.464021 0.340582
Si Si3 0.827283 0.624484 0.971171
Si Si4 0.303843 0.808260 0.436979
Si Si5 0.762425 0.886702 0.654234
Si Si6 0.352323 0.903897 0.153617
Si Si7 0.836406 0.749890 0.742597
O O1 0.500000 0.940397 0.762620
O O2 0.399142 0.817387 0.763216
O O3 0.409728 0.990008 0.693188
O O4 0.401659 0.029571 0.806970
O O5 0.153434 0.396133 0.401553
O O6 0.195560 0.568310 0.342918
O O7 0.170169 0.365961 0.295523
O O8 0.755479 0.628443 0.960328
O O9 0.864019 0.637583 0.911526
O O10 0.841799 0.500000 0.000000
O O11 0.836682 0.734567 0.013464
O O12 0.277308 0.709028 0.394006
O O13 0.791944 0.838777 0.712516
O O14 0.800492 0.002859 0.642915
O O15 0.328855 0.798556 0.193111
#
# Coordination Sequence:
#
# PCOD9477872 Si02
#       7
#    16  16  16  16  16  16  16
#     4  10  23  40  59  80 108 150 197 247 296 342
#     4  10  20  35  56  84 119 151 188 235 284 348
#     4  11  20  35  56  84 124 159 190 225 276 343
#     4  10  20  34  55  86 125 158 185 222 276 351
#     4  10  19  35  54  85 122 150 184 220 289 352
#     4  10  20  37  57  85 117 153 186 237 285 348
#     4   9  22  34  53  83 115 151 182 236 288 348
#
# _framework density 18.772506
#
# number of rings (size 3 to 8) (size 9 to 14) (size 15 to 20)
#    0.000    2.000    2.857    0.000    2.000    8.571 
#    0.000    0.000    0.000    1.286    0.000    1.000 
#    0.000    0.000    0.000    0.000    0.000    0.000 
#
# Total GULP energy -312133.087251 kJ/mol
# GULP energy per Si atom -5573.805129 kJ/mol
# Density = 1.872978 g / cm^3
# Si number density = 18.772506 Si / 1000 Ang^3
#
#
#
# Elastic Constant Matrix: (Units=GPa)
#
#
# Indices 1 2 3 4 5 6 
#
# 1 39.6310 -1.5933 10.3187 0.0000 0.0000 0.0000
# 2 -1.5933 76.6711 18.8070 0.0000 0.0000 0.0000
# 3 10.3187 18.8070 95.4526 0.0000 0.0000 0.0000
# 4 0.0000 0.0000 0.0000 16.8996 0.0000 0.0000
# 5 0.0000 0.0000 0.0000 0.0000 12.7152 0.0000
# 6 0.0000 0.0000 0.0000 0.0000 0.0000 -344.1958
#
#
#
# Elastic Compliance Matrix: (Units=1/GPa)
#
#
# Indices 1 2 3 4 5 6 
#
# 1 0.026086 0.001296 -0.003075 0.000000 0.000000 0.000000
# 2 0.001296 0.013770 -0.002853 0.000000 0.000000 0.000000
# 3 -0.003075 -0.002853 0.011371 0.000000 0.000000 0.000000
# 4 0.000000 0.000000 0.000000 0.059173 0.000000 0.000000
# 5 0.000000 0.000000 0.000000 0.000000 0.078646 0.000000
# 6 0.000000 0.000000 0.000000 0.000000 0.000000 -0.002905
#
#
# Mechanical properties :
#
#
# Convention : Reuss Voigt Hill
#
# Bulk Modulus (GPa) = 23.83107 29.64660 26.73883
# Shear Modulus (GPa) = 23.87871 -50.63472 -13.37800
#
# Velocity S-wave (km/s) = 3.57039 -5.19917 -2.67242
# Velocity P-wave (km/s) = 5.45152 4.49611 2.17992
#
# Compressibility (1/GPa) = 0.04196203
#
# Stress axis : x y z
#
# Youngs Moduli (GPa) = 38.33533 72.62409 87.94289
#
# Poissons Ratio (x) = -0.09415 0.27046
# Poissons Ratio (y) = -0.04970 0.25091
# Poissons Ratio (z) = 0.11790 0.20721
#
# Static dielectric constant tensor:
#      x y z
#    x 1.660880 0.000000 0.000000 
#    y 0.000000 1.700670 0.000000 
#    z 0.000000 0.000000 1.771360 
# 
# From -- ./inp_files/46707.got.cif
#   From: 2010.05.17/outbox.cif.g08.bks.cpg/sg64_24_cif.got.tgz:46707.got - 2010.06.03 16:29:19.
