data_PCOD9477047
_publ_section_title
;
Structure prediction by ZEFSAII (Michael W. Deem and Ramdas Pophale) SiO2 
 PCOD9477047
Probable space group: C M C A
;
_chemical_formula_sum "Si O2"
_cell_formula_units_Z 96
_cell_length_a 23.727328
_cell_length_b 25.558265
_cell_length_c 7.409724
_cell_angle_alpha 90.000000
_cell_angle_beta 90.000000
_cell_angle_gamma 90.000000
_cell_volume 4493.474011
_symmetry_space_group_name_H-M "C M C A"
_symmetry_group_IT_number 64
_symmetry_cell_setting 'orthorhombic'
loop_
_space_group_symop_operation_xyz
x,y,z
-x,1/2-y,1/2+z
x,-y,-z
-x,1/2+y,1/2-z
-x,-y,-z
x,1/2+y,1/2-z
-x,y,z
x,1/2-y,1/2+z
1/2+x,1/2+y,z
1/2-x,-y,1/2+z
1/2+x,1/2-y,-z
1/2-x,y,1/2-z
1/2-x,1/2-y,-z
1/2+x,y,1/2-z
1/2-x,1/2+y,z
1/2+x,-y,1/2+z
loop_
_atom_site_type_symbol
_atom_site_label
_atom_site_fract_x
_atom_site_fract_y
_atom_site_fract_z
Si Si1 0.063335 0.467570 0.687286
Si Si2 0.414922 0.384740 0.086634
Si Si3 0.434523 0.716165 0.095615
Si Si4 0.500000 0.607903 0.603751
Si Si5 0.397020 0.327757 0.548943
Si Si6 0.688464 0.894708 0.176304
Si Si7 0.149537 0.000000 0.500000
O O1 0.069440 0.500000 0.500000
O O2 0.070243 0.410179 0.603172
O O3 0.000000 0.473289 0.764502
O O4 0.108912 0.480383 0.838061
O O5 0.451821 0.409456 0.246287
O O6 0.351730 0.394247 0.147721
O O7 0.431333 0.323726 0.073280
O O8 0.500000 0.718441 0.156517
O O9 0.394499 0.690389 0.244929
O O10 0.414121 0.773696 0.048818
O O11 0.449426 0.633065 0.480687
O O12 0.341945 0.353951 0.460552
O O13 0.750000 0.882088 0.250000
O O14 0.684898 0.951361 0.078944
#
# Coordination Sequence:
#
# PCOD9477047 Si02
#       7
#    16  16  16   8  16  16   8
#     4  11  22  40  65 107 145 175 210 281 366 433
#     4  11  22  40  64  96 141 173 224 277 346 410
#     4  12  21  38  66 109 138 184 221 276 346 430
#     4  10  18  34  59  92 128 177 198 277 328 403
#     4  11  23  38  64 100 141 172 233 275 344 407
#     4  11  27  48  68  96 131 181 240 298 340 402
#     4  12  25  46  74  94 130 183 244 286 354 426
#
# _framework density 21.364315999999999
#
# number of rings (size 3 to 8) (size 9 to 14) (size 15 to 20)
#    0.000    0.833    5.000    3.250    0.000    1.333 
#    6.000    5.833    0.000    0.000    0.000    0.000 
#    0.000    0.000    0.000    0.000    0.000    0.000 
#
# Total GULP energy -267405.368826 kJ/mol
# GULP energy per Si atom -5570.945184 kJ/mol
# Density = 2.131569 g / cm^3
# Si number density = 21.364316 Si / 1000 Ang^3
#
#
#
# Elastic Constant Matrix: (Units=GPa)
#
#
# Indices 1 2 3 4 5 6 
#
# 1 141.3381 16.4147 1.2851 0.0000 0.0000 0.0000
# 2 16.4147 94.0087 26.5886 0.0000 0.0000 0.0000
# 3 1.2851 26.5886 29.5374 0.0000 0.0000 0.0000
# 4 0.0000 0.0000 0.0000 38.8973 0.0000 0.0000
# 5 0.0000 0.0000 0.0000 0.0000 4.4562 0.0000
# 6 0.0000 0.0000 0.0000 0.0000 0.0000 17.1260
#
#
#
# Elastic Compliance Matrix: (Units=1/GPa)
#
#
# Indices 1 2 3 4 5 6 
#
# 1 0.007248 -0.001578 0.001105 0.000000 0.000000 0.000000
# 2 -0.001578 0.014614 -0.013087 0.000000 0.000000 0.000000
# 3 0.001105 -0.013087 0.045587 0.000000 0.000000 0.000000
# 4 0.000000 0.000000 0.000000 0.025709 0.000000 0.000000
# 5 0.000000 0.000000 0.000000 0.000000 0.224406 0.000000
# 6 0.000000 0.000000 0.000000 0.000000 0.000000 0.058391
#
#
# Mechanical properties :
#
#
# Convention : Reuss Voigt Hill
#
# Bulk Modulus (GPa) = 24.79475 39.27345 32.03410
# Shear Modulus (GPa) = 12.00428 26.80227 19.40327
#
# Velocity S-wave (km/s) = 2.37298 3.54578 3.01692
# Velocity P-wave (km/s) = 4.37481 5.93179 5.21177
#
# Compressibility (1/GPa) = 0.04033112
#
# Stress axis : x y z
#
# Youngs Moduli (GPa) = 137.95992 68.42668 21.93587
#
# Poissons Ratio (x) = 0.10800 -0.02425
# Poissons Ratio (y) = 0.21774 0.28707
# Poissons Ratio (z) = -0.15249 0.89547
#
# Static dielectric constant tensor:
#      x y z
#    x 1.741520 0.000000 0.000000 
#    y 0.000000 1.911950 0.000000 
#    z 0.000000 0.000000 1.825080 
# 
# From -- ./inp_files/9641.got.cif
#   From: 2010.05.17/outbox.cif.g08.bks.cpg/sg64_5_cif.got.tgz:9641.got - 2010.06.03 16:29:19.
