data_PCOD9477923
_publ_section_title
;
Structure prediction by ZEFSAII (Michael W. Deem and Ramdas Pophale) SiO2 
 PCOD9477923
Probable space group: C M C A
;
_chemical_formula_sum "Si O2"
_cell_formula_units_Z 80
_cell_length_a 19.294566
_cell_length_b 21.655724
_cell_length_c 8.611000
_cell_angle_alpha 90.000000
_cell_angle_beta 90.000000
_cell_angle_gamma 90.000000
_cell_volume 3598.001261
_symmetry_space_group_name_H-M "C M C A"
_symmetry_group_IT_number 64
_symmetry_cell_setting 'orthorhombic'
loop_
_space_group_symop_operation_xyz
x,y,z
-x,1/2-y,1/2+z
x,-y,-z
-x,1/2+y,1/2-z
-x,-y,-z
x,1/2+y,1/2-z
-x,y,z
x,1/2-y,1/2+z
1/2+x,1/2+y,z
1/2-x,-y,1/2+z
1/2+x,1/2-y,-z
1/2-x,y,1/2-z
1/2-x,1/2-y,-z
1/2+x,y,1/2-z
1/2-x,1/2+y,z
1/2+x,-y,1/2+z
loop_
_atom_site_type_symbol
_atom_site_label
_atom_site_fract_x
_atom_site_fract_y
_atom_site_fract_z
Si Si1 0.420071 0.392256 0.768006
Si Si2 0.811852 0.338328 0.145854
Si Si3 0.579771 0.128488 0.621485
Si Si4 0.922249 0.225771 0.439836
Si Si5 0.706178 0.938625 0.904803
O O1 0.500000 0.409768 0.754226
O O2 0.414292 0.321547 0.704643
O O3 0.372487 0.431672 0.655027
O O4 0.401868 0.396326 0.950033
O O5 0.750000 0.311543 0.250000
O O6 0.862290 0.382634 0.248664
O O7 0.862145 0.290487 0.060528
O O8 0.778208 0.380312 0.013349
O O9 0.500000 0.110037 0.658599
O O10 0.580406 0.203130 0.606216
O O11 0.000000 0.213961 0.505659
O O12 0.750000 0.936670 0.750000
O O13 0.718287 0.000000 0.000000
#
# Coordination Sequence:
#
# PCOD9477923 Si02
#       5
#    16  16  16  16  16
#     4   9  19  35  57  87 119 149 189 240 281 324
#     4  11  22  35  56  86 118 150 193 243 283 325
#     4  10  19  35  59  86 120 159 192 223 272 337
#     4   9  18  34  56  83 119 163 199 225 267 332
#     4  11  24  43  64  81 107 147 192 238 292 353
#
# _framework density 22.234566000000001
#
# number of rings (size 3 to 8) (size 9 to 14) (size 15 to 20)
#    0.000    2.000    0.000    3.600    0.000    5.200 
#    0.000    5.000    0.000    3.000    0.000    0.000 
#    0.000    0.000    0.000    0.000    0.000    0.000 
#
# Total GULP energy -223656.480474 kJ/mol
# GULP energy per Si atom -5591.412012 kJ/mol
# Density = 2.218396 g / cm^3
# Si number density = 22.234566 Si / 1000 Ang^3
#
#
#
# Elastic Constant Matrix: (Units=GPa)
#
#
# Indices 1 2 3 4 5 6 
#
# 1 72.7540 12.2325 40.9562 0.0000 0.0000 0.0000
# 2 12.2325 28.3589 14.4248 0.0000 0.0000 0.0000
# 3 40.9562 14.4248 103.5990 0.0000 0.0000 0.0000
# 4 0.0000 0.0000 0.0000 22.6108 0.0000 0.0000
# 5 0.0000 0.0000 0.0000 0.0000 32.7575 0.0000
# 6 0.0000 0.0000 0.0000 0.0000 0.0000 12.3299
#
#
#
# Elastic Compliance Matrix: (Units=1/GPa)
#
#
# Indices 1 2 3 4 5 6 
#
# 1 0.018200 -0.004510 -0.006567 0.000000 0.000000 0.000000
# 2 -0.004510 0.039068 -0.003657 0.000000 0.000000 0.000000
# 3 -0.006567 -0.003657 0.012758 0.000000 0.000000 0.000000
# 4 0.000000 0.000000 0.000000 0.044227 0.000000 0.000000
# 5 0.000000 0.000000 0.000000 0.000000 0.030527 0.000000
# 6 0.000000 0.000000 0.000000 0.000000 0.000000 0.081104
#
#
# Mechanical properties :
#
#
# Convention : Reuss Voigt Hill
#
# Bulk Modulus (GPa) = 24.65615 37.77100 31.21357
# Shear Modulus (GPa) = 18.59628 22.67952 20.63790
#
# Velocity S-wave (km/s) = 2.89514 3.19723 3.04993
# Velocity P-wave (km/s) = 4.72112 5.53661 5.14505
#
# Compressibility (1/GPa) = 0.04055783
#
# Stress axis : x y z
#
# Youngs Moduli (GPa) = 54.94451 25.59664 78.38250
#
# Poissons Ratio (x) = 0.11545 0.51475
# Poissons Ratio (y) = 0.24781 0.28661
# Poissons Ratio (z) = 0.36083 0.09360
#
# Static dielectric constant tensor:
#      x y z
#    x 1.858720 0.000000 0.000000 
#    y 0.000000 1.785540 0.000000 
#    z 0.000000 0.000000 1.841000 
# 
# From -- ./inp_files/7040.got.cif
#   From: 2010.05.17/outbox.cif.g08.bks.cpg/sg64_4_cif.got.tgz:7040.got - 2010.06.03 16:29:19.
