data_PCOD9477831
_publ_section_title
;
Structure prediction by ZEFSAII (Michael W. Deem and Ramdas Pophale) SiO2 
 PCOD9477831
Probable space group: C M C A
;
_chemical_formula_sum "Si O2"
_cell_formula_units_Z 96
_cell_length_a 8.924681
_cell_length_b 19.764229
_cell_length_c 27.809460
_cell_angle_alpha 90.000000
_cell_angle_beta 90.000000
_cell_angle_gamma 90.000000
_cell_volume 4905.295049
_symmetry_space_group_name_H-M "C M C A"
_symmetry_group_IT_number 64
_symmetry_cell_setting 'orthorhombic'
loop_
_space_group_symop_operation_xyz
x,y,z
-x,1/2-y,1/2+z
x,-y,-z
-x,1/2+y,1/2-z
-x,-y,-z
x,1/2+y,1/2-z
-x,y,z
x,1/2-y,1/2+z
1/2+x,1/2+y,z
1/2-x,-y,1/2+z
1/2+x,1/2-y,-z
1/2-x,y,1/2-z
1/2-x,1/2-y,-z
1/2+x,y,1/2-z
1/2-x,1/2+y,z
1/2+x,-y,1/2+z
loop_
_atom_site_type_symbol
_atom_site_label
_atom_site_fract_x
_atom_site_fract_y
_atom_site_fract_z
Si Si1 0.178220 0.981654 0.800093
Si Si2 0.675309 0.916914 0.126219
Si Si3 0.675707 0.703772 0.701818
Si Si4 0.678317 0.154562 0.539354
Si Si5 0.677898 0.311690 0.558007
Si Si6 0.321561 0.657056 0.331655
O O1 0.250000 0.006296 0.750000
O O2 0.237160 0.025684 0.844745
O O3 0.000000 0.984565 0.796796
O O4 0.235671 0.905548 0.808616
O O5 0.500000 0.934727 0.122938
O O6 0.689927 0.849430 0.158740
O O7 0.741763 0.898133 0.074468
O O8 0.500000 0.717223 0.709602
O O9 0.750000 0.675060 0.750000
O O10 0.761397 0.772683 0.689371
O O11 0.500000 0.146884 0.542647
O O12 0.716863 0.231586 0.556213
O O13 0.733275 0.151616 0.484456
O O14 0.500000 0.316462 0.548086
O O15 0.706190 0.340127 0.610951
O O16 0.500000 0.650889 0.323637
#
# Coordination Sequence:
#
# PCOD9477831 Si02
#       6
#    16  16  16  16  16  16
#     4  12  26  44  64  87 120 161 205 249 303 363
#     4  11  23  40  62  89 121 159 202 249 302 359
#     4  11  23  37  58  87 118 152 196 249 300 353
#     4  10  19  34  59  91 124 159 198 246 301 358
#     4   9  19  35  58  89 123 160 197 243 300 358
#     4  11  22  40  63  88 121 158 201 247 299 357
#
# _framework density 19.570688000000001
#
# number of rings (size 3 to 8) (size 9 to 14) (size 15 to 20)
#    0.000    1.333    1.667    4.500    0.000    5.333 
#    0.000    0.833    0.000    5.000    0.000    0.000 
#    0.000    0.000    0.000    0.000    0.000    0.000 
#
# Total GULP energy -268463.484474 kJ/mol
# GULP energy per Si atom -5592.989260 kJ/mol
# Density = 1.952614 g / cm^3
# Si number density = 19.570688 Si / 1000 Ang^3
#
#
#
# Elastic Constant Matrix: (Units=GPa)
#
#
# Indices 1 2 3 4 5 6 
#
# 1 99.8068 25.7097 36.0175 0.0000 0.0000 0.0000
# 2 25.7097 46.9563 -2.8212 0.0000 0.0000 0.0000
# 3 36.0175 -2.8212 66.5334 0.0000 0.0000 0.0000
# 4 0.0000 0.0000 0.0000 14.9886 0.0000 0.0000
# 5 0.0000 0.0000 0.0000 0.0000 36.8111 0.0000
# 6 0.0000 0.0000 0.0000 0.0000 0.0000 25.6783
#
#
#
# Elastic Compliance Matrix: (Units=1/GPa)
#
#
# Indices 1 2 3 4 5 6 
#
# 1 0.015511 -0.009020 -0.008779 0.000000 0.000000 0.000000
# 2 -0.009020 0.026596 0.006011 0.000000 0.000000 0.000000
# 3 -0.008779 0.006011 0.020038 0.000000 0.000000 0.000000
# 4 0.000000 0.000000 0.000000 0.066717 0.000000 0.000000
# 5 0.000000 0.000000 0.000000 0.000000 0.027166 0.000000
# 6 0.000000 0.000000 0.000000 0.000000 0.000000 0.038943
#
#
# Mechanical properties :
#
#
# Convention : Reuss Voigt Hill
#
# Bulk Modulus (GPa) = 25.92856 36.78983 31.35920
# Shear Modulus (GPa) = 21.60718 25.78831 23.69774
#
# Velocity S-wave (km/s) = 3.32634 3.63395 3.48354
# Velocity P-wave (km/s) = 5.29435 6.03711 5.67789
#
# Compressibility (1/GPa) = 0.03856750
#
# Stress axis : x y z
#
# Youngs Moduli (GPa) = 64.46989 37.59924 49.90624
#
# Poissons Ratio (x) = 0.33915 0.43814
# Poissons Ratio (y) = 0.58153 -0.29998
# Poissons Ratio (z) = 0.56600 -0.22600
#
# Static dielectric constant tensor:
#      x y z
#    x 1.652850 0.000000 0.000000 
#    y 0.000000 1.674430 0.000000 
#    z 0.000000 0.000000 1.699740 
# 
# From -- ./inp_files/48155.got.cif
#   From: 2010.05.17/outbox.cif.g08.bks.cpg/sg64_25_cif.got.tgz:48155.got - 2010.06.03 16:29:19.
