data_PCOD9477008
_publ_section_title
;
Structure prediction by ZEFSAII (Michael W. Deem and Ramdas Pophale) SiO2 
 PCOD9477008
Probable space group: C M C A
;
_chemical_formula_sum "Si O2"
_cell_formula_units_Z 88
_cell_length_a 29.456452
_cell_length_b 7.554732
_cell_length_c 16.507576
_cell_angle_alpha 90.000000
_cell_angle_beta 90.000000
_cell_angle_gamma 90.000000
_cell_volume 3673.523338
_symmetry_space_group_name_H-M "C M C A"
_symmetry_group_IT_number 64
_symmetry_cell_setting 'orthorhombic'
loop_
_space_group_symop_operation_xyz
x,y,z
-x,1/2-y,1/2+z
x,-y,-z
-x,1/2+y,1/2-z
-x,-y,-z
x,1/2+y,1/2-z
-x,y,z
x,1/2-y,1/2+z
1/2+x,1/2+y,z
1/2-x,-y,1/2+z
1/2+x,1/2-y,-z
1/2-x,y,1/2-z
1/2-x,1/2-y,-z
1/2+x,y,1/2-z
1/2-x,1/2+y,z
1/2+x,-y,1/2+z
loop_
_atom_site_type_symbol
_atom_site_label
_atom_site_fract_x
_atom_site_fract_y
_atom_site_fract_z
Si Si1 0.000000 0.058960 0.753833
Si Si2 0.591164 0.418001 0.828006
Si Si3 0.402716 0.243906 0.558088
Si Si4 0.500000 0.359213 0.603464
Si Si5 0.253454 0.000000 0.500000
Si Si6 0.632449 0.548003 0.677137
Si Si7 0.182249 0.237303 0.061521
O O1 0.954727 0.957563 0.780910
O O2 0.000000 0.220560 0.819823
O O3 0.000000 0.043986 0.654886
O O4 0.592168 0.547862 0.904418
O O5 0.631378 0.485476 0.769082
O O6 0.596181 0.208102 0.832903
O O7 0.454456 0.318733 0.551414
O O8 0.380953 0.379923 0.623129
O O9 0.366224 0.238493 0.485087
O O10 0.216538 0.154551 0.506187
O O11 0.290810 0.052110 0.430784
O O12 0.676173 0.646735 0.641826
#
# Coordination Sequence:
#
# PCOD9477008 Si02
#       7
#     8  16  16   8   8  16  16
#     4  10  18  34  50  87 117 171 222 231 273 375
#     4  11  22  35  62  87 127 170 207 253 297 352
#     4  11  22  40  59  95 129 164 206 255 296 369
#     4  10  20  32  59  84 135 164 206 244 300 351
#     4  10  22  42  72  92 112 162 206 264 306 394
#     4  12  21  38  61  91 121 163 204 253 308 363
#     4  11  23  43  68  95 119 155 213 257 320 371
#
# _framework density 23.955203999999998
#
# number of rings (size 3 to 8) (size 9 to 14) (size 15 to 20)
#    0.000    1.091    5.455    2.182    0.000    0.000 
#    0.000    3.636    0.000   22.364    0.000    0.000 
#    0.000    0.000    0.000    0.000    0.000    0.000 
#
# Total GULP energy -245043.300017 kJ/mol
# GULP energy per Si atom -5569.165909 kJ/mol
# Density = 2.390068 g / cm^3
# Si number density = 23.955204 Si / 1000 Ang^3
#
#
#
# Elastic Constant Matrix: (Units=GPa)
#
#
# Indices 1 2 3 4 5 6 
#
# 1 127.5952 12.7840 38.5550 0.0000 0.0000 0.0000
# 2 12.7840 94.0364 6.7307 0.0000 0.0000 0.0000
# 3 38.5550 6.7307 45.8834 0.0000 0.0000 0.0000
# 4 0.0000 0.0000 0.0000 32.0410 0.0000 0.0000
# 5 0.0000 0.0000 0.0000 0.0000 -11.9782 0.0000
# 6 0.0000 0.0000 0.0000 0.0000 0.0000 232.3353
#
#
#
# Elastic Compliance Matrix: (Units=1/GPa)
#
#
# Indices 1 2 3 4 5 6 
#
# 1 0.010565 -0.000809 -0.008759 0.000000 0.000000 0.000000
# 2 -0.000809 0.010809 -0.000905 0.000000 0.000000 0.000000
# 3 -0.008759 -0.000905 0.029287 0.000000 0.000000 0.000000
# 4 0.000000 0.000000 0.000000 0.031210 0.000000 0.000000
# 5 0.000000 0.000000 0.000000 0.000000 -0.083485 0.000000
# 6 0.000000 0.000000 0.000000 0.000000 0.000000 0.004304
#
#
# Mechanical properties :
#
#
# Convention : Reuss Voigt Hill
#
# Bulk Modulus (GPa) = 33.65452 42.62826 38.14139
# Shear Modulus (GPa) = 149.06499 64.44264 106.75381
#
# Velocity S-wave (km/s) = 7.89694 5.19227 6.68286
# Velocity P-wave (km/s) = 9.86044 7.33348 8.68931
#
# Compressibility (1/GPa) = 0.02971370
#
# Stress axis : x y z
#
# Youngs Moduli (GPa) = 94.65205 92.51529 34.14474
#
# Poissons Ratio (x) = 0.07488 0.29907
# Poissons Ratio (y) = 0.07661 0.03092
# Poissons Ratio (z) = 0.82904 0.08377
#
# Static dielectric constant tensor:
#      x y z
#    x 1.956370 0.000000 0.000000 
#    y 0.000000 2.246260 0.000000 
#    z 0.000000 0.000000 2.016900 
# 
# From -- ./inp_files/35735.got.cif
#   From: 2010.05.17/outbox.cif.g08.bks.cpg/sg64_18_cif.got.tgz:35735.got - 2010.06.03 16:29:19.
