data_PCOD9477292
_publ_section_title
;
Structure prediction by ZEFSAII (Michael W. Deem and Ramdas Pophale) SiO2 
 PCOD9477292
Probable space group: C M C A
;
_chemical_formula_sum "Si O2"
_cell_formula_units_Z 96
_cell_length_a 7.490013
_cell_length_b 31.056156
_cell_length_c 19.356556
_cell_angle_alpha 90.000000
_cell_angle_beta 90.000000
_cell_angle_gamma 90.000000
_cell_volume 4502.548083
_symmetry_space_group_name_H-M "C M C A"
_symmetry_group_IT_number 64
_symmetry_cell_setting 'orthorhombic'
loop_
_space_group_symop_operation_xyz
x,y,z
-x,1/2-y,1/2+z
x,-y,-z
-x,1/2+y,1/2-z
-x,-y,-z
x,1/2+y,1/2-z
-x,y,z
x,1/2-y,1/2+z
1/2+x,1/2+y,z
1/2-x,-y,1/2+z
1/2+x,1/2-y,-z
1/2-x,y,1/2-z
1/2-x,1/2-y,-z
1/2+x,y,1/2-z
1/2-x,1/2+y,z
1/2+x,-y,1/2+z
loop_
_atom_site_type_symbol
_atom_site_label
_atom_site_fract_x
_atom_site_fract_y
_atom_site_fract_z
Si Si1 0.718272 0.064592 0.077167
Si Si2 0.713751 0.015434 0.830654
Si Si3 0.790778 0.186055 0.548591
Si Si4 0.281828 0.909516 0.075182
Si Si5 0.215841 0.775495 0.597434
Si Si6 0.287049 0.642548 0.327993
O O1 0.500000 0.064199 0.077710
O O2 0.778823 0.107483 0.117345
O O3 0.779610 0.023346 0.120552
O O4 0.769411 0.067887 0.997196
O O5 0.500000 0.015195 0.837814
O O6 0.750000 0.009066 0.750000
O O7 0.778917 0.060846 0.861523
O O8 0.718996 0.140016 0.572625
O O9 0.718765 0.203994 0.475499
O O10 0.773445 0.226032 0.600654
O O11 0.000000 0.178761 0.535354
O O12 0.500000 0.908653 0.077415
O O13 0.277421 0.809308 0.654989
O O14 0.000000 0.774362 0.596405
O O15 0.500000 0.643521 0.336580
O O16 0.250000 0.629355 0.250000
#
# Coordination Sequence:
#
# PCOD9477292 Si02
#       6
#    16  16  16  16  16  16
#     4   9  16  30  52  76  98 125 166 209 245 288
#     4  10  20  33  52  75 101 132 164 201 246 296
#     4   9  16  29  51  73  94 121 161 207 242 280
#     4   9  16  30  53  78  97 124 169 211 242 283
#     4   9  17  30  47  69  98 128 157 197 247 291
#     4  10  19  31  48  71 102 134 162 202 251 297
#
# _framework density 21.321259999999999
#
# number of rings (size 3 to 8) (size 9 to 14) (size 15 to 20)
#    0.000    2.667    1.667    1.000    0.000    2.667 
#    0.000    1.667    0.000    8.000    0.000    0.000 
#    0.000    0.000    0.000    0.000    0.000    0.000 
#
# Total GULP energy -267824.819914 kJ/mol
# GULP energy per Si atom -5579.683748 kJ/mol
# Density = 2.127273 g / cm^3
# Si number density = 21.321260 Si / 1000 Ang^3
#
#
#
# Elastic Constant Matrix: (Units=GPa)
#
#
# Indices 1 2 3 4 5 6 
#
# 1 52.6845 5.2715 -2.4789 0.0000 0.0000 0.0000
# 2 5.2715 148.8950 28.8154 0.0000 0.0000 0.0000
# 3 -2.4789 28.8154 41.0669 0.0000 0.0000 0.0000
# 4 0.0000 0.0000 0.0000 25.7132 0.0000 0.0000
# 5 0.0000 0.0000 0.0000 0.0000 15.9297 0.0000
# 6 0.0000 0.0000 0.0000 0.0000 0.0000 9.2697
#
#
#
# Elastic Compliance Matrix: (Units=1/GPa)
#
#
# Indices 1 2 3 4 5 6 
#
# 1 0.019174 -0.001045 0.001890 0.000000 0.000000 0.000000
# 2 -0.001045 0.007828 -0.005556 0.000000 0.000000 0.000000
# 3 0.001890 -0.005556 0.028363 0.000000 0.000000 0.000000
# 4 0.000000 0.000000 0.000000 0.038891 0.000000 0.000000
# 5 0.000000 0.000000 0.000000 0.000000 0.062776 0.000000
# 6 0.000000 0.000000 0.000000 0.000000 0.000000 0.107878
#
#
# Mechanical properties :
#
#
# Convention : Reuss Voigt Hill
#
# Bulk Modulus (GPa) = 21.76498 33.98471 27.87485
# Shear Modulus (GPa) = 17.26246 24.25175 20.75711
#
# Velocity S-wave (km/s) = 2.84850 3.37626 3.12355
# Velocity P-wave (km/s) = 4.58790 5.58326 5.10988
#
# Compressibility (1/GPa) = 0.04594536
#
# Stress axis : x y z
#
# Youngs Moduli (GPa) = 52.15288 127.74048 35.25708
#
# Poissons Ratio (x) = 0.13345 -0.06665
# Poissons Ratio (y) = 0.05448 0.19589
# Poissons Ratio (z) = -0.09859 0.70972
#
# Static dielectric constant tensor:
#      x y z
#    x 1.844940 0.000000 0.000000 
#    y 0.000000 1.794870 0.000000 
#    z 0.000000 0.000000 1.736800 
# 
# From -- ./inp_files/31081.got.cif
#   From: 2010.05.17/outbox.cif.g08.bks.cpg/sg64_16_cif.got.tgz:31081.got - 2010.06.03 16:29:19.
