data_PCOD9477221
_publ_section_title
;
Structure prediction by ZEFSAII (Michael W. Deem and Ramdas Pophale) SiO2 
 PCOD9477221
Probable space group: C M C A
;
_chemical_formula_sum "Si O2"
_cell_formula_units_Z 88
_cell_length_a 33.874407
_cell_length_b 5.193781
_cell_length_c 27.966889
_cell_angle_alpha 90.000000
_cell_angle_beta 90.000000
_cell_angle_gamma 90.000000
_cell_volume 4920.389616
_symmetry_space_group_name_H-M "C M C A"
_symmetry_group_IT_number 64
_symmetry_cell_setting 'orthorhombic'
loop_
_space_group_symop_operation_xyz
x,y,z
-x,1/2-y,1/2+z
x,-y,-z
-x,1/2+y,1/2-z
-x,-y,-z
x,1/2+y,1/2-z
-x,y,z
x,1/2-y,1/2+z
1/2+x,1/2+y,z
1/2-x,-y,1/2+z
1/2+x,1/2-y,-z
1/2-x,y,1/2-z
1/2-x,1/2-y,-z
1/2+x,y,1/2-z
1/2-x,1/2+y,z
1/2+x,-y,1/2+z
loop_
_atom_site_type_symbol
_atom_site_label
_atom_site_fract_x
_atom_site_fract_y
_atom_site_fract_z
Si Si1 0.088072 0.000000 0.500000
Si Si2 0.620652 0.095355 0.384518
Si Si3 0.500000 0.297640 0.780257
Si Si4 0.545064 0.384369 0.945837
Si Si5 0.413710 0.394709 0.783168
Si Si6 0.777416 0.500000 0.000000
Si Si7 0.348557 0.380436 0.567463
O O1 0.059227 0.095266 0.541615
O O2 0.120377 0.187502 0.475570
O O3 0.578164 0.024111 0.408774
O O4 0.634564 0.366845 0.406297
O O5 0.614982 0.116986 0.328013
O O6 0.650423 0.868181 0.399140
O O7 0.500000 0.998011 0.764910
O O8 0.458426 0.363854 0.803844
O O9 0.500000 0.406066 0.929601
O O10 0.547405 0.500000 0.000000
O O11 0.409639 0.159974 0.745875
O O12 0.807142 0.541534 0.044494
O O13 0.750000 0.750000 0.000000
#
# Coordination Sequence:
#
# PCOD9477221 Si02
#       7
#     8  16   8  16  16   8  16
#     4   9  17  32  47  64 104 146 174 224 271 308
#     4  11  21  35  54  78 108 150 187 231 285 327
#     4   8  16  30  48  66  93 134 179 246 302 326
#     4  10  19  30  46  68 101 142 194 235 263 317
#     4  10  20  35  53  73 104 141 193 249 296 330
#     4  11  22  38  63  90 121 154 179 206 259 332
#     4  10  21  35  55  80 113 142 180 213 269 329
#
# _framework density 17.884764000000001
#
# number of rings (size 3 to 8) (size 9 to 14) (size 15 to 20)
#    0.000    2.000    1.818    2.455    1.273    0.000 
#    0.000    0.000    0.000    0.000    0.000    0.000 
#    0.000   50.909    0.000    0.000    0.000    0.000 
#
# Total GULP energy -244987.792886 kJ/mol
# GULP energy per Si atom -5567.904384 kJ/mol
# Density = 1.784406 g / cm^3
# Si number density = 17.884764 Si / 1000 Ang^3
#
#
#
# Elastic Constant Matrix: (Units=GPa)
#
#
# Indices 1 2 3 4 5 6 
#
# 1 72.2718 26.0444 26.6338 0.0000 0.0000 0.0000
# 2 26.0444 95.5223 21.5377 0.0000 0.0000 0.0000
# 3 26.6338 21.5377 64.5736 0.0000 0.0000 0.0000
# 4 0.0000 0.0000 0.0000 17.2339 0.0000 0.0000
# 5 0.0000 0.0000 0.0000 0.0000 16.2617 0.0000
# 6 0.0000 0.0000 0.0000 0.0000 0.0000 24.5333
#
#
#
# Elastic Compliance Matrix: (Units=1/GPa)
#
#
# Indices 1 2 3 4 5 6 
#
# 1 0.017255 -0.003352 -0.005999 0.000000 0.000000 0.000000
# 2 -0.003352 0.011971 -0.002610 0.000000 0.000000 0.000000
# 3 -0.005999 -0.002610 0.018831 0.000000 0.000000 0.000000
# 4 0.000000 0.000000 0.000000 0.058025 0.000000 0.000000
# 5 0.000000 0.000000 0.000000 0.000000 0.061494 0.000000
# 6 0.000000 0.000000 0.000000 0.000000 0.000000 0.040761
#
#
# Mechanical properties :
#
#
# Convention : Reuss Voigt Hill
#
# Bulk Modulus (GPa) = 41.43360 42.31106 41.87233
# Shear Modulus (GPa) = 20.80683 22.14926 21.47804
#
# Velocity S-wave (km/s) = 3.41454 3.52297 3.46918
# Velocity P-wave (km/s) = 6.22597 6.34487 6.28570
#
# Compressibility (1/GPa) = 0.02413500
#
# Stress axis : x y z
#
# Youngs Moduli (GPa) = 57.95272 83.53335 53.10346
#
# Poissons Ratio (x) = 0.28001 0.31857
# Poissons Ratio (y) = 0.19426 0.13861
# Poissons Ratio (z) = 0.34766 0.21804
#
# Static dielectric constant tensor:
#      x y z
#    x 1.608470 0.000000 0.000000 
#    y 0.000000 1.714190 0.000000 
#    z 0.000000 0.000000 1.610510 
# 
# From -- ./inp_files/47116.got.cif
#   From: 2010.05.17/outbox.cif.g08.bks.cpg/sg64_24_cif.got.tgz:47116.got - 2010.06.03 16:29:19.
