data_PCOD9477504
_publ_section_title
;
Structure prediction by ZEFSAII (Michael W. Deem and Ramdas Pophale) SiO2 
 PCOD9477504
Probable space group: C M C A
;
_chemical_formula_sum "Si O2"
_cell_formula_units_Z 120
_cell_length_a 17.473327
_cell_length_b 20.426420
_cell_length_c 18.746567
_cell_angle_alpha 90.000000
_cell_angle_beta 90.000000
_cell_angle_gamma 90.000000
_cell_volume 6690.978129
_symmetry_space_group_name_H-M "C M C A"
_symmetry_group_IT_number 64
_symmetry_cell_setting 'orthorhombic'
loop_
_space_group_symop_operation_xyz
x,y,z
-x,1/2-y,1/2+z
x,-y,-z
-x,1/2+y,1/2-z
-x,-y,-z
x,1/2+y,1/2-z
-x,y,z
x,1/2-y,1/2+z
1/2+x,1/2+y,z
1/2-x,-y,1/2+z
1/2+x,1/2-y,-z
1/2-x,y,1/2-z
1/2-x,1/2-y,-z
1/2+x,y,1/2-z
1/2-x,1/2+y,z
1/2+x,-y,1/2+z
loop_
_atom_site_type_symbol
_atom_site_label
_atom_site_fract_x
_atom_site_fract_y
_atom_site_fract_z
Si Si1 0.282061 0.797706 0.560139
Si Si2 0.091512 0.965585 0.635961
Si Si3 0.822620 0.728961 0.792946
Si Si4 0.184317 0.500000 0.500000
Si Si5 0.590735 0.614892 0.632867
Si Si6 0.909401 0.142830 0.247544
Si Si7 0.090241 0.895363 0.917479
Si Si8 0.317938 0.408316 0.507288
O O1 0.250000 0.750000 0.500000
O O2 0.291610 0.759992 0.633620
O O3 0.363380 0.834489 0.547533
O O4 0.220011 0.855350 0.559673
O O5 0.114542 0.911483 0.694570
O O6 0.131848 0.952286 0.560466
O O7 0.000000 0.960080 0.626466
O O8 0.107509 0.040515 0.658112
O O9 0.750000 0.703729 0.750000
O O10 0.878832 0.670491 0.814482
O O11 0.863646 0.788935 0.751605
O O12 0.131023 0.461552 0.555519
O O13 0.245048 0.445777 0.472577
O O14 0.500000 0.621321 0.623877
O O15 0.631787 0.621374 0.555954
O O16 0.900346 0.113842 0.167583
O O17 0.000000 0.155838 0.257565
O O18 0.000000 0.894766 0.934014
#
# Coordination Sequence:
#
# PCOD9477504 Si02
#       8
#    16  16  16   8  16  16  16  16
#     4  10  20  36  56  82 118 146 196 244 282 345
#     4  10  20  36  58  87 117 148 191 243 298 357
#     4  11  22  39  57  85 115 158 194 239 292 348
#     4  10  19  32  55  80 118 144 190 238 281 344
#     4  11  22  37  58  85 118 153 194 241 298 359
#     4   9  19  38  61  83 112 148 195 240 287 355
#     4   9  19  35  57  83 111 152 193 237 291 346
#     4  11  19  35  57  86 113 153 186 241 297 345
#
# _framework density 17.934598000000001
#
# number of rings (size 3 to 8) (size 9 to 14) (size 15 to 20)
#    0.000    1.867    2.667    1.800    0.000    1.600 
#    2.400    0.000    0.000    1.600    0.000    0.000 
#    0.000    0.000    0.000    0.000    0.000    0.000 
#
# Total GULP energy -334391.049051 kJ/mol
# GULP energy per Si atom -5573.184151 kJ/mol
# Density = 1.789378 g / cm^3
# Si number density = 17.934598 Si / 1000 Ang^3
#
#
#
# Elastic Constant Matrix: (Units=GPa)
#
#
# Indices 1 2 3 4 5 6 
#
# 1 97.9423 55.1051 47.6330 0.0000 0.0000 0.0000
# 2 55.1051 95.4125 37.8143 0.0000 0.0000 0.0000
# 3 47.6330 37.8143 49.6936 0.0000 0.0000 0.0000
# 4 0.0000 0.0000 0.0000 33.9738 0.0000 0.0000
# 5 0.0000 0.0000 0.0000 0.0000 29.5144 0.0000
# 6 0.0000 0.0000 0.0000 0.0000 0.0000 29.6123
#
#
#
# Elastic Compliance Matrix: (Units=1/GPa)
#
#
# Indices 1 2 3 4 5 6 
#
# 1 0.021300 -0.006028 -0.015830 0.000000 0.000000 0.000000
# 2 -0.006028 0.016712 -0.006939 0.000000 0.000000 0.000000
# 3 -0.015830 -0.006939 0.040577 0.000000 0.000000 0.000000
# 4 0.000000 0.000000 0.000000 0.029434 0.000000 0.000000
# 5 0.000000 0.000000 0.000000 0.000000 0.033882 0.000000
# 6 0.000000 0.000000 0.000000 0.000000 0.000000 0.033770
#
#
# Mechanical properties :
#
#
# Convention : Reuss Voigt Hill
#
# Bulk Modulus (GPa) = 47.62930 58.23923 52.93427
# Shear Modulus (GPa) = 20.80997 25.45317 23.13157
#
# Velocity S-wave (km/s) = 3.41005 3.77134 3.59524
# Velocity P-wave (km/s) = 6.48995 7.17688 6.84204
#
# Compressibility (1/GPa) = 0.02099548
#
# Stress axis : x y z
#
# Youngs Moduli (GPa) = 46.94739 59.83554 24.64431
#
# Poissons Ratio (x) = 0.36070 0.39012
# Poissons Ratio (y) = 0.28301 0.17101
# Poissons Ratio (z) = 0.74318 0.41521
#
# Static dielectric constant tensor:
#      x y z
#    x 1.610500 0.000000 0.000000 
#    y 0.000000 1.656440 0.000000 
#    z 0.000000 0.000000 1.583890 
# 
# From -- ./inp_files/33671.got.cif
#   From: 2010.05.17/outbox.cif.g08.bks.cpg/sg64_17_cif.got.tgz:33671.got - 2010.06.03 16:29:19.
