data_PCOD9477897
_publ_section_title
;
Structure prediction by ZEFSAII (Michael W. Deem and Ramdas Pophale) SiO2 
 PCOD9477897
Probable space group: C M C A
;
_chemical_formula_sum "Si O2"
_cell_formula_units_Z 96
_cell_length_a 21.274725
_cell_length_b 24.413012
_cell_length_c 9.060672
_cell_angle_alpha 90.000000
_cell_angle_beta 90.000000
_cell_angle_gamma 90.000000
_cell_volume 4705.932881
_symmetry_space_group_name_H-M "C M C A"
_symmetry_group_IT_number 64
_symmetry_cell_setting 'orthorhombic'
loop_
_space_group_symop_operation_xyz
x,y,z
-x,1/2-y,1/2+z
x,-y,-z
-x,1/2+y,1/2-z
-x,-y,-z
x,1/2+y,1/2-z
-x,y,z
x,1/2-y,1/2+z
1/2+x,1/2+y,z
1/2-x,-y,1/2+z
1/2+x,1/2-y,-z
1/2-x,y,1/2-z
1/2-x,1/2-y,-z
1/2+x,y,1/2-z
1/2-x,1/2+y,z
1/2+x,-y,1/2+z
loop_
_atom_site_type_symbol
_atom_site_label
_atom_site_fract_x
_atom_site_fract_y
_atom_site_fract_z
Si Si1 0.866804 0.181800 0.661810
Si Si2 0.180922 0.270619 0.470371
Si Si3 0.676818 0.568882 0.762616
Si Si4 0.574106 0.517440 0.175211
Si Si5 0.370978 0.620953 0.061447
Si Si6 0.000000 0.776345 0.260715
Si Si7 0.500000 0.678961 0.033768
O O1 0.832291 0.209841 0.804067
O O2 0.858892 0.218134 0.516967
O O3 0.838475 0.121073 0.658812
O O4 0.939778 0.187999 0.696538
O O5 0.250000 0.250000 0.500000
O O6 0.164803 0.321522 0.579734
O O7 0.750000 0.551414 0.750000
O O8 0.621288 0.524513 0.744063
O O9 0.665973 0.590986 0.929714
O O10 0.500000 0.518767 0.220166
O O11 0.573286 0.500000 0.000000
O O12 0.609720 0.576144 0.182065
O O13 0.439547 0.641756 0.010821
O O14 0.000000 0.714296 0.318408
O O15 0.000000 0.773421 0.085488
#
# Coordination Sequence:
#
# PCOD9477897 Si02
#       7
#    16  16  16  16  16   8   8
#     4  11  21  34  55  80 118 154 191 247 300 368
#     4  11  21  35  53  80 118 158 193 233 297 367
#     4  10  20  33  52  81 117 152 189 246 309 364
#     4   9  18  31  57  83 107 144 197 256 311 349
#     4  10  19  35  57  82 117 150 196 254 296 362
#     4  12  20  34  55  88 121 154 202 251 307 359
#     4  12  20  36  58  89 124 153 202 249 309 359
#
# _framework density 20.39978
#
# number of rings (size 3 to 8) (size 9 to 14) (size 15 to 20)
#    0.000    1.500    5.833    2.500    2.333    0.000 
#    0.000    1.667    0.000    0.000    0.000    0.000 
#    0.000   10.000    0.000    0.000    0.000    0.000 
#
# Total GULP energy -267348.979488 kJ/mol
# GULP energy per Si atom -5569.770406 kJ/mol
# Density = 2.035335 g / cm^3
# Si number density = 20.399780 Si / 1000 Ang^3
#
#
#
# Elastic Constant Matrix: (Units=GPa)
#
#
# Indices 1 2 3 4 5 6 
#
# 1 151.5131 52.2806 6.9457 0.0000 0.0000 0.0000
# 2 52.2806 73.9540 -0.1566 0.0000 0.0000 0.0000
# 3 6.9457 -0.1566 14.4355 0.0000 0.0000 0.0000
# 4 0.0000 0.0000 0.0000 11.7553 0.0000 0.0000
# 5 0.0000 0.0000 0.0000 0.0000 15.5872 0.0000
# 6 0.0000 0.0000 0.0000 0.0000 0.0000 4.7989
#
#
#
# Elastic Compliance Matrix: (Units=1/GPa)
#
#
# Indices 1 2 3 4 5 6 
#
# 1 0.009001 -0.006372 -0.004400 0.000000 0.000000 0.000000
# 2 -0.006372 0.018033 0.003262 0.000000 0.000000 0.000000
# 3 -0.004400 0.003262 0.071426 0.000000 0.000000 0.000000
# 4 0.000000 0.000000 0.000000 0.085068 0.000000 0.000000
# 5 0.000000 0.000000 0.000000 0.000000 0.064155 0.000000
# 6 0.000000 0.000000 0.000000 0.000000 0.000000 0.208380
#
#
# Mechanical properties :
#
#
# Convention : Reuss Voigt Hill
#
# Bulk Modulus (GPa) = 11.98470 39.78243 25.88356
# Shear Modulus (GPa) = 10.02212 18.48383 14.25297
#
# Velocity S-wave (km/s) = 2.21890 3.01338 2.64613
# Velocity P-wave (km/s) = 3.52879 5.62592 4.69592
#
# Compressibility (1/GPa) = 0.08343974
#
# Stress axis : x y z
#
# Youngs Moduli (GPa) = 111.10480 55.45245 14.00046
#
# Poissons Ratio (x) = 0.35335 0.06160
# Poissons Ratio (y) = 0.70797 -0.04566
# Poissons Ratio (z) = 0.48884 -0.18087
#
# Static dielectric constant tensor:
#      x y z
#    x 1.765230 0.000000 0.000000 
#    y 0.000000 1.790000 0.000000 
#    z 0.000000 0.000000 1.805480 
# 
# From -- ./inp_files/17493.got.cif
#   From: 2010.05.17/outbox.cif.g08.bks.cpg/sg64_9_cif.got.tgz:17493.got - 2010.06.03 16:29:19.
