data_PCOD9477749
_publ_section_title
;
Structure prediction by ZEFSAII (Michael W. Deem and Ramdas Pophale) SiO2 
 PCOD9477749
Probable space group: C M C A
;
_chemical_formula_sum "Si O2"
_cell_formula_units_Z 96
_cell_length_a 8.401358
_cell_length_b 21.187606
_cell_length_c 29.168624
_cell_angle_alpha 90.000000
_cell_angle_beta 90.000000
_cell_angle_gamma 90.000000
_cell_volume 5192.151090
_symmetry_space_group_name_H-M "C M C A"
_symmetry_group_IT_number 64
_symmetry_cell_setting 'orthorhombic'
loop_
_space_group_symop_operation_xyz
x,y,z
-x,1/2-y,1/2+z
x,-y,-z
-x,1/2+y,1/2-z
-x,-y,-z
x,1/2+y,1/2-z
-x,y,z
x,1/2-y,1/2+z
1/2+x,1/2+y,z
1/2-x,-y,1/2+z
1/2+x,1/2-y,-z
1/2-x,y,1/2-z
1/2-x,1/2-y,-z
1/2+x,y,1/2-z
1/2-x,1/2+y,z
1/2+x,-y,1/2+z
loop_
_atom_site_type_symbol
_atom_site_label
_atom_site_fract_x
_atom_site_fract_y
_atom_site_fract_z
Si Si1 0.809530 0.676106 0.699803
Si Si2 0.808171 0.177389 0.299954
Si Si3 0.809612 0.869379 0.394563
Si Si4 0.809336 0.246662 0.448235
Si Si5 0.305308 0.995505 0.053079
Si Si6 0.805611 0.378743 0.894542
O O1 0.750000 0.656439 0.750000
O O2 0.756567 0.749463 0.692860
O O3 0.746522 0.634800 0.657894
O O4 0.000000 0.675552 0.699102
O O5 0.750000 0.157045 0.250000
O O6 0.754031 0.134618 0.342398
O O7 0.000000 0.177730 0.299862
O O8 0.749661 0.806758 0.419971
O O9 0.000000 0.869604 0.395392
O O10 0.753408 0.931308 0.421971
O O11 0.750000 0.250000 0.500000
O O12 0.755684 0.181704 0.424416
O O13 0.000000 0.246767 0.447635
O O14 0.500000 0.995439 0.052753
O O15 0.253020 0.056558 0.081962
O O16 0.254720 0.000000 0.000000
O O17 0.000000 0.379662 0.894432
#
# Coordination Sequence:
#
# PCOD9477749 Si02
#       6
#    16  16  16  16  16  16
#     4  10  19  34  55  82 112 145 182 226 277 328
#     4   9  17  31  52  78 104 136 173 218 271 319
#     4  11  21  34  55  84 112 145 184 225 276 331
#     4  11  21  35  55  80 108 140 181 233 281 325
#     4   9  18  33  54  78 106 145 190 227 263 322
#     4   9  17  33  54  76 105 140 180 224 272 320
#
# _framework density 18.489447999999999
#
# number of rings (size 3 to 8) (size 9 to 14) (size 15 to 20)
#    0.000    2.167    1.667    2.500    0.000    3.333 
#    0.000    0.833    0.000   15.000    0.000    0.000 
#    0.000    0.000    0.000    0.000    0.000    0.000 
#
# Total GULP energy -267928.888030 kJ/mol
# GULP energy per Si atom -5581.851834 kJ/mol
# Density = 1.844736 g / cm^3
# Si number density = 18.489448 Si / 1000 Ang^3
#
#
#
# Elastic Constant Matrix: (Units=GPa)
#
#
# Indices 1 2 3 4 5 6 
#
# 1 21.6613 13.8397 16.6622 0.0000 0.0000 0.0000
# 2 13.8397 112.2810 62.4180 0.0000 0.0000 0.0000
# 3 16.6622 62.4180 161.6113 0.0000 0.0000 0.0000
# 4 0.0000 0.0000 0.0000 32.5327 0.0000 0.0000
# 5 0.0000 0.0000 0.0000 0.0000 30.9473 0.0000
# 6 0.0000 0.0000 0.0000 0.0000 0.0000 13.1184
#
#
#
# Elastic Compliance Matrix: (Units=1/GPa)
#
#
# Indices 1 2 3 4 5 6 
#
# 1 0.051756 -0.004346 -0.003657 0.000000 0.000000 0.000000
# 2 -0.004346 0.011706 -0.004073 0.000000 0.000000 0.000000
# 3 -0.003657 -0.004073 0.008138 0.000000 0.000000 0.000000
# 4 0.000000 0.000000 0.000000 0.030738 0.000000 0.000000
# 5 0.000000 0.000000 0.000000 0.000000 0.032313 0.000000
# 6 0.000000 0.000000 0.000000 0.000000 0.000000 0.076229
#
#
# Mechanical properties :
#
#
# Convention : Reuss Voigt Hill
#
# Bulk Modulus (GPa) = 21.07648 53.48817 37.28233
# Shear Modulus (GPa) = 19.93231 28.82857 24.38044
#
# Velocity S-wave (km/s) = 3.28691 3.95294 3.63521
# Velocity P-wave (km/s) = 5.08222 7.05876 6.15041
#
# Compressibility (1/GPa) = 0.04744625
#
# Stress axis : x y z
#
# Youngs Moduli (GPa) = 19.32158 85.42464 122.88176
#
# Poissons Ratio (x) = 0.37127 0.44943
# Poissons Ratio (y) = 0.08397 0.50051
# Poissons Ratio (z) = 0.07067 0.34794
#
# Static dielectric constant tensor:
#      x y z
#    x 1.648090 0.000000 0.000000 
#    y 0.000000 1.622570 0.000000 
#    z 0.000000 0.000000 1.609630 
# 
# From -- ./inp_files/48087.got.cif
#   From: 2010.05.17/outbox.cif.g08.bks.cpg/sg64_25_cif.got.tgz:48087.got - 2010.06.03 16:29:19.
