data_PCOD9477959
_publ_section_title
;
Structure prediction by ZEFSAII (Michael W. Deem and Ramdas Pophale) SiO2 
 PCOD9477959
Probable space group: C M C A
;
_chemical_formula_sum "Si O2"
_cell_formula_units_Z 112
_cell_length_a 15.437837
_cell_length_b 31.133007
_cell_length_c 11.528853
_cell_angle_alpha 90.000000
_cell_angle_beta 90.000000
_cell_angle_gamma 90.000000
_cell_volume 5541.069815
_symmetry_space_group_name_H-M "C M C A"
_symmetry_group_IT_number 64
_symmetry_cell_setting 'orthorhombic'
loop_
_space_group_symop_operation_xyz
x,y,z
-x,1/2-y,1/2+z
x,-y,-z
-x,1/2+y,1/2-z
-x,-y,-z
x,1/2+y,1/2-z
-x,y,z
x,1/2-y,1/2+z
1/2+x,1/2+y,z
1/2-x,-y,1/2+z
1/2+x,1/2-y,-z
1/2-x,y,1/2-z
1/2-x,1/2-y,-z
1/2+x,y,1/2-z
1/2-x,1/2+y,z
1/2+x,-y,1/2+z
loop_
_atom_site_type_symbol
_atom_site_label
_atom_site_fract_x
_atom_site_fract_y
_atom_site_fract_z
Si Si1 0.772654 0.328349 0.129193
Si Si2 0.403399 0.819028 0.479072
Si Si3 0.901131 0.596266 0.891281
Si Si4 0.904718 0.218972 0.463885
Si Si5 0.349391 0.328843 0.760551
Si Si6 0.308934 0.494082 0.364948
Si Si7 0.099553 0.085007 0.336968
O O1 0.750000 0.306017 0.250000
O O2 0.833295 0.369261 0.156476
O O3 0.681890 0.341950 0.070774
O O4 0.827970 0.297950 0.045219
O O5 0.500000 0.835343 0.449145
O O6 0.396970 0.769471 0.440111
O O7 0.391358 0.818303 0.617185
O O8 0.870653 0.547595 0.869877
O O9 0.000000 0.602925 0.852357
O O10 0.898240 0.602035 0.030755
O O11 0.899284 0.193478 0.344147
O O12 0.000000 0.211305 0.518152
O O13 0.250000 0.314729 0.750000
O O14 0.353408 0.380070 0.741523
O O15 0.273324 0.500000 0.500000
O O16 0.250000 0.487736 0.250000
O O17 0.359283 0.538192 0.339739
O O18 0.000000 0.082423 0.300153
#
# Coordination Sequence:
#
# PCOD9477959 Si02
#       7
#    16  16  16  16  16  16  16
#     4  12  25  40  62  87 123 166 215 259 319 382
#     4  11  26  42  61  93 128 164 210 268 326 380
#     4  10  20  39  63  92 125 165 217 264 312 379
#     4  11  24  42  63  87 120 166 213 257 316 385
#     4  12  22  39  67  92 125 162 208 266 323 377
#     4  10  21  37  61  93 129 167 211 264 324 380
#     4  10  19  35  62  94 122 158 212 267 314 371
#
# _framework density 20.212703999999999
#
# number of rings (size 3 to 8) (size 9 to 14) (size 15 to 20)
#    0.000    1.143    2.857    3.429    2.000    4.000 
#    0.000    0.000    0.000    1.714    0.000    0.000 
#    0.000    0.000    0.000    0.000    0.000    0.000 
#
# Total GULP energy -312749.177975 kJ/mol
# GULP energy per Si atom -5584.806750 kJ/mol
# Density = 2.016670 g / cm^3
# Si number density = 20.212704 Si / 1000 Ang^3
#
#
#
# Elastic Constant Matrix: (Units=GPa)
#
#
# Indices 1 2 3 4 5 6 
#
# 1 148.4899 21.5882 39.1578 0.0000 0.0000 0.0000
# 2 21.5882 72.3226 5.5879 0.0000 0.0000 0.0000
# 3 39.1578 5.5879 78.9668 0.0000 0.0000 0.0000
# 4 0.0000 0.0000 0.0000 1.8760 0.0000 0.0000
# 5 0.0000 0.0000 0.0000 0.0000 20.1388 0.0000
# 6 0.0000 0.0000 0.0000 0.0000 0.0000 35.4339
#
#
#
# Elastic Compliance Matrix: (Units=1/GPa)
#
#
# Indices 1 2 3 4 5 6 
#
# 1 0.008055 -0.002107 -0.003845 0.000000 0.000000 0.000000
# 2 -0.002107 0.014454 0.000022 0.000000 0.000000 0.000000
# 3 -0.003845 0.000022 0.014569 0.000000 0.000000 0.000000
# 4 0.000000 0.000000 0.000000 0.533061 0.000000 0.000000
# 5 0.000000 0.000000 0.000000 0.000000 0.049655 0.000000
# 6 0.000000 0.000000 0.000000 0.000000 0.000000 0.028222
#
#
# Mechanical properties :
#
#
# Convention : Reuss Voigt Hill
#
# Bulk Modulus (GPa) = 39.65533 48.04966 43.85249
# Shear Modulus (GPa) = 7.48187 27.05277 17.26732
#
# Velocity S-wave (km/s) = 1.92603 3.66239 2.92598
# Velocity P-wave (km/s) = 4.96062 6.45815 5.75828
#
# Compressibility (1/GPa) = 0.02521729
#
# Stress axis : x y z
#
# Youngs Moduli (GPa) = 124.14958 69.18383 68.64047
#
# Poissons Ratio (x) = 0.14579 0.26393
# Poissons Ratio (y) = 0.26162 -0.00152
# Poissons Ratio (z) = 0.47736 -0.00153
#
# Static dielectric constant tensor:
#      x y z
#    x 1.752260 0.000000 0.000000 
#    y 0.000000 1.702530 0.000000 
#    z 0.000000 0.000000 1.714260 
# 
# From -- ./inp_files/14929.got.cif
#   From: 2010.05.17/outbox.cif.g08.bks.cpg/sg64_8_cif.got.tgz:14929.got - 2010.06.03 16:29:19.
