data_PCOD9477267
_publ_section_title
;
Structure prediction by ZEFSAII (Michael W. Deem and Ramdas Pophale) SiO2 
 PCOD9477267
Probable space group: C M C A
;
_chemical_formula_sum "Si O2"
_cell_formula_units_Z 64
_cell_length_a 20.313185
_cell_length_b 31.399237
_cell_length_c 5.242691
_cell_angle_alpha 90.000000
_cell_angle_beta 90.000000
_cell_angle_gamma 90.000000
_cell_volume 3343.885362
_symmetry_space_group_name_H-M "C M C A"
_symmetry_group_IT_number 64
_symmetry_cell_setting 'orthorhombic'
loop_
_space_group_symop_operation_xyz
x,y,z
-x,1/2-y,1/2+z
x,-y,-z
-x,1/2+y,1/2-z
-x,-y,-z
x,1/2+y,1/2-z
-x,y,z
x,1/2-y,1/2+z
1/2+x,1/2+y,z
1/2-x,-y,1/2+z
1/2+x,1/2-y,-z
1/2-x,y,1/2-z
1/2-x,1/2-y,-z
1/2+x,y,1/2-z
1/2-x,1/2+y,z
1/2+x,-y,1/2+z
loop_
_atom_site_type_symbol
_atom_site_label
_atom_site_fract_x
_atom_site_fract_y
_atom_site_fract_z
Si Si1 0.250000 0.026613 0.250000
Si Si2 0.824982 0.733087 0.551547
Si Si3 0.000000 0.530060 0.247713
Si Si4 0.172958 0.135219 0.782963
Si Si5 0.870907 0.588146 0.206861
O O1 0.188791 0.055276 0.332547
O O2 0.269704 0.000000 0.500000
O O3 0.855484 0.737386 0.271252
O O4 0.750000 0.750000 0.500000
O O5 0.826971 0.685559 0.658664
O O6 0.000000 0.500000 0.500000
O O7 0.063277 0.560732 0.232807
O O8 0.000000 0.500000 0.000000
O O9 0.250000 0.123222 0.750000
O O10 0.133943 0.120619 0.531047
O O11 0.143801 0.112190 0.029719
#
# Coordination Sequence:
#
# PCOD9477267 Si02
#       5
#     8  16   8  16  16
#     4  12  22  36  56  86 116 144 188 246 318 378
#     4  10  19  30  53  86 133 164 200 235 305 361
#     4  12  26  50  70  86 120 168 224 264 312 392
#     4  12  21  37  59  95 134 158 198 262 313 369
#     4  12  25  40  63  91 122 163 205 263 323 371
#
# _framework density 19.139412
#
# number of rings (size 3 to 8) (size 9 to 14) (size 15 to 20)
#    0.000    0.500    5.000    6.000    3.500    0.000 
#    0.000    0.000    0.000    0.000    0.000   17.500 
#    0.000    0.000    0.000    0.000    0.000    0.000 
#
# Total GULP energy -178706.916636 kJ/mol
# GULP energy per Si atom -5584.591145 kJ/mol
# Density = 1.909585 g / cm^3
# Si number density = 19.139412 Si / 1000 Ang^3
#
#
#
# Elastic Constant Matrix: (Units=GPa)
#
#
# Indices 1 2 3 4 5 6 
#
# 1 94.5181 60.7704 33.9931 0.0000 0.0000 0.0000
# 2 60.7704 135.7397 76.8008 0.0000 0.0000 0.0000
# 3 33.9931 76.8008 205.8252 0.0000 0.0000 0.0000
# 4 0.0000 0.0000 0.0000 64.1711 0.0000 0.0000
# 5 0.0000 0.0000 0.0000 0.0000 14.8671 0.0000
# 6 0.0000 0.0000 0.0000 0.0000 0.0000 23.5441
#
#
#
# Elastic Compliance Matrix: (Units=1/GPa)
#
#
# Indices 1 2 3 4 5 6 
#
# 1 0.014857 -0.006671 0.000036 0.000000 0.000000 0.000000
# 2 -0.006671 0.012334 -0.003501 0.000000 0.000000 0.000000
# 3 0.000036 -0.003501 0.006159 0.000000 0.000000 0.000000
# 4 0.000000 0.000000 0.000000 0.015583 0.000000 0.000000
# 5 0.000000 0.000000 0.000000 0.000000 0.067263 0.000000
# 6 0.000000 0.000000 0.000000 0.000000 0.000000 0.042473
#
#
# Mechanical properties :
#
#
# Convention : Reuss Voigt Hill
#
# Bulk Modulus (GPa) = 76.46940 86.57907 81.52423
# Shear Modulus (GPa) = 27.27756 38.15104 32.71430
#
# Velocity S-wave (km/s) = 3.77928 4.46951 4.13881
# Velocity P-wave (km/s) = 7.68665 8.48349 8.09488
#
# Compressibility (1/GPa) = 0.01307713
#
# Stress axis : x y z
#
# Youngs Moduli (GPa) = 67.31038 81.07367 162.36945
#
# Poissons Ratio (x) = 0.54088 -0.00580
# Poissons Ratio (y) = 0.44906 0.56839
# Poissons Ratio (z) = -0.00240 0.28381
#
# Static dielectric constant tensor:
#      x y z
#    x 1.692340 0.000000 0.000000 
#    y 0.000000 1.688820 0.000000 
#    z 0.000000 0.000000 1.770900 
# 
# From -- ./inp_files/1357.got.cif
#   From: 2010.05.17/outbox.cif.g08.bks.cpg/sg64_1_cif.got.tgz:1357.got - 2010.06.03 16:29:19.
