data_PCOD9477891
_publ_section_title
;
Structure prediction by ZEFSAII (Michael W. Deem and Ramdas Pophale) SiO2 
 PCOD9477891
Probable space group: C M C A
;
_chemical_formula_sum "Si O2"
_cell_formula_units_Z 96
_cell_length_a 8.066945
_cell_length_b 20.544922
_cell_length_c 29.914314
_cell_angle_alpha 90.000000
_cell_angle_beta 90.000000
_cell_angle_gamma 90.000000
_cell_volume 4957.841526
_symmetry_space_group_name_H-M "C M C A"
_symmetry_group_IT_number 64
_symmetry_cell_setting 'orthorhombic'
loop_
_space_group_symop_operation_xyz
x,y,z
-x,1/2-y,1/2+z
x,-y,-z
-x,1/2+y,1/2-z
-x,-y,-z
x,1/2+y,1/2-z
-x,y,z
x,1/2-y,1/2+z
1/2+x,1/2+y,z
1/2-x,-y,1/2+z
1/2+x,1/2-y,-z
1/2-x,y,1/2-z
1/2-x,1/2-y,-z
1/2+x,y,1/2-z
1/2-x,1/2+y,z
1/2+x,-y,1/2+z
loop_
_atom_site_type_symbol
_atom_site_label
_atom_site_fract_x
_atom_site_fract_y
_atom_site_fract_z
Si Si1 0.199667 0.808557 0.468201
Si Si2 0.300131 0.361266 0.300816
Si Si3 0.301736 0.491506 0.698817
Si Si4 0.197461 0.607327 0.378694
Si Si5 0.700207 0.933184 0.978000
Si Si6 0.203215 0.256777 0.127319
O O1 0.250000 0.750000 0.500000
O O2 0.262400 0.874137 0.491156
O O3 0.256921 0.791178 0.418602
O O4 0.000000 0.812584 0.466364
O O5 0.500000 0.362484 0.303843
O O6 0.250000 0.348860 0.250000
O O7 0.241342 0.434776 0.312243
O O8 0.240680 0.303310 0.332565
O O9 0.500000 0.492492 0.697644
O O10 0.250000 0.476785 0.750000
O O11 0.243727 0.439358 0.662444
O O12 0.255856 0.579080 0.426356
O O13 0.259979 0.681667 0.371897
O O14 0.000000 0.611084 0.380837
O O15 0.500000 0.933601 0.980066
O O16 0.760513 0.000000 0.000000
O O17 0.000000 0.255436 0.127956
#
# Coordination Sequence:
#
# PCOD9477891 Si02
#       6
#    16  16  16  16  16  16
#     4  10  19  35  57  79 110 146 184 225 273 329
#     4   9  19  37  60  82 108 141 180 225 272 325
#     4  10  21  38  61  84 112 146 185 228 277 331
#     4  11  22  37  57  82 116 149 185 229 279 333
#     4  10  22  37  57  83 111 147 192 235 276 328
#     4   9  19  35  56  81 109 146 183 223 275 326
#
# _framework density 19.363264999999998
#
# number of rings (size 3 to 8) (size 9 to 14) (size 15 to 20)
#    0.000    2.167    1.667    1.000    2.333    1.667 
#    0.000    4.167    0.000    0.000    0.000    0.000 
#    0.000    0.000    0.000    0.000    0.000    0.000 
#
# Total GULP energy -267873.305873 kJ/mol
# GULP energy per Si atom -5580.693872 kJ/mol
# Density = 1.931919 g / cm^3
# Si number density = 19.363265 Si / 1000 Ang^3
#
#
#
# Elastic Constant Matrix: (Units=GPa)
#
#
# Indices 1 2 3 4 5 6 
#
# 1 14.0057 15.2362 5.8437 0.0000 0.0000 0.0000
# 2 15.2362 213.6540 139.7408 0.0000 0.0000 0.0000
# 3 5.8437 139.7408 164.6660 0.0000 0.0000 0.0000
# 4 0.0000 0.0000 0.0000 42.7389 0.0000 0.0000
# 5 0.0000 0.0000 0.0000 0.0000 28.4423 0.0000
# 6 0.0000 0.0000 0.0000 0.0000 0.0000 18.7041
#
#
#
# Elastic Compliance Matrix: (Units=1/GPa)
#
#
# Indices 1 2 3 4 5 6 
#
# 1 0.078819 -0.008521 0.004434 0.000000 0.000000 0.000000
# 2 -0.008521 0.011440 -0.009406 0.000000 0.000000 0.000000
# 3 0.004434 -0.009406 0.013898 0.000000 0.000000 0.000000
# 4 0.000000 0.000000 0.000000 0.023398 0.000000 0.000000
# 5 0.000000 0.000000 0.000000 0.000000 0.035159 0.000000
# 6 0.000000 0.000000 0.000000 0.000000 0.000000 0.053464
#
#
# Mechanical properties :
#
#
# Convention : Reuss Voigt Hill
#
# Bulk Modulus (GPa) = 12.95830 79.32970 46.14400
# Shear Modulus (GPa) = 18.59515 33.41071 26.00293
#
# Velocity S-wave (km/s) = 3.10228 4.15838 3.66854
# Velocity P-wave (km/s) = 4.42029 8.00714 6.46735
#
# Compressibility (1/GPa) = 0.07717060
#
# Stress axis : x y z
#
# Youngs Moduli (GPa) = 12.68736 87.41115 71.95337
#
# Poissons Ratio (x) = 0.74480 -0.31902
# Poissons Ratio (y) = 0.10810 0.67680
# Poissons Ratio (z) = -0.05625 0.82220
#
# Static dielectric constant tensor:
#      x y z
#    x 1.696100 0.000000 0.000000 
#    y 0.000000 1.718820 0.000000 
#    z 0.000000 0.000000 1.663070 
# 
# From -- ./inp_files/48130.got.cif
#   From: 2010.05.17/outbox.cif.g08.bks.cpg/sg64_25_cif.got.tgz:48130.got - 2010.06.03 16:29:19.
