data_PCOD9477425
_publ_section_title
;
Structure prediction by ZEFSAII (Michael W. Deem and Ramdas Pophale) SiO2 
 PCOD9477425
Probable space group: C M C A
;
_chemical_formula_sum "Si O2"
_cell_formula_units_Z 96
_cell_length_a 8.690840
_cell_length_b 27.437021
_cell_length_c 23.223675
_cell_angle_alpha 90.000000
_cell_angle_beta 90.000000
_cell_angle_gamma 90.000000
_cell_volume 5537.702944
_symmetry_space_group_name_H-M "C M C A"
_symmetry_group_IT_number 64
_symmetry_cell_setting 'orthorhombic'
loop_
_space_group_symop_operation_xyz
x,y,z
-x,1/2-y,1/2+z
x,-y,-z
-x,1/2+y,1/2-z
-x,-y,-z
x,1/2+y,1/2-z
-x,y,z
x,1/2-y,1/2+z
1/2+x,1/2+y,z
1/2-x,-y,1/2+z
1/2+x,1/2-y,-z
1/2-x,y,1/2-z
1/2-x,1/2-y,-z
1/2+x,y,1/2-z
1/2-x,1/2+y,z
1/2+x,-y,1/2+z
loop_
_atom_site_type_symbol
_atom_site_label
_atom_site_fract_x
_atom_site_fract_y
_atom_site_fract_z
Si Si1 0.169047 0.055965 0.012459
Si Si2 0.824620 0.875171 0.096974
Si Si3 0.323623 0.378665 0.594551
Si Si4 0.315880 0.550480 0.685324
Si Si5 0.182814 0.446558 0.685864
Si Si6 0.685247 0.195815 0.995744
O O1 0.305547 0.076257 0.050656
O O2 0.000000 0.065085 0.040758
O O3 0.168122 0.084236 0.952820
O O4 0.183218 0.000000 0.000000
O O5 0.737428 0.902713 0.148398
O O6 0.000000 0.862439 0.113857
O O7 0.745734 0.830649 0.062383
O O8 0.500000 0.369317 0.610280
O O9 0.232280 0.399274 0.649122
O O10 0.265711 0.334599 0.553422
O O11 0.500000 0.547405 0.686393
O O12 0.250000 0.555131 0.750000
O O13 0.249621 0.498409 0.662415
O O14 0.250000 0.441829 0.750000
O O15 0.000000 0.450918 0.688023
O O16 0.500000 0.195258 0.994996
O O17 0.750000 0.250000 0.000000
#
# Coordination Sequence:
#
# PCOD9477425 Si02
#       6
#    16  16  16  16  16  16
#     4   9  17  28  44  68  99 133 166 202 247 301
#     4  10  19  32  51  76 105 136 172 213 259 310
#     4  10  20  33  50  74 102 132 169 212 257 307
#     4  11  21  34  52  76 108 144 181 216 253 301
#     4  11  21  34  52  75 106 143 180 214 252 301
#     4  10  21  37  57  80 105 134 171 217 269 320
#
# _framework density 17.335706999999999
#
# number of rings (size 3 to 8) (size 9 to 14) (size 15 to 20)
#    0.000    1.833    0.000    6.500    0.000    4.333 
#    0.000    0.000    0.000    1.000    0.000    2.333 
#    0.000    0.000    0.000    0.000    0.000    0.000 
#
# Total GULP energy -267532.324592 kJ/mol
# GULP energy per Si atom -5573.590096 kJ/mol
# Density = 1.729625 g / cm^3
# Si number density = 17.335707 Si / 1000 Ang^3
#
#
#
# Elastic Constant Matrix: (Units=GPa)
#
#
# Indices 1 2 3 4 5 6 
#
# 1 117.4367 46.6647 38.0554 0.0000 0.0000 0.0000
# 2 46.6647 119.4763 46.9706 0.0000 0.0000 0.0000
# 3 38.0554 46.9706 73.1396 0.0000 0.0000 0.0000
# 4 0.0000 0.0000 0.0000 24.2416 0.0000 0.0000
# 5 0.0000 0.0000 0.0000 0.0000 28.2861 0.0000
# 6 0.0000 0.0000 0.0000 0.0000 0.0000 13.0824
#
#
#
# Elastic Compliance Matrix: (Units=1/GPa)
#
#
# Indices 1 2 3 4 5 6 
#
# 1 0.010857 -0.002702 -0.003914 0.000000 0.000000 0.000000
# 2 -0.002702 0.011869 -0.006217 0.000000 0.000000 0.000000
# 3 -0.003914 -0.006217 0.019701 0.000000 0.000000 0.000000
# 4 0.000000 0.000000 0.000000 0.041251 0.000000 0.000000
# 5 0.000000 0.000000 0.000000 0.000000 0.035353 0.000000
# 6 0.000000 0.000000 0.000000 0.000000 0.000000 0.076439
#
#
# Mechanical properties :
#
#
# Convention : Reuss Voigt Hill
#
# Bulk Modulus (GPa) = 59.65608 63.71488 61.68548
# Shear Modulus (GPa) = 22.05335 25.01281 23.53308
#
# Velocity S-wave (km/s) = 3.57057 3.80261 3.68841
# Velocity P-wave (km/s) = 7.17534 7.49087 7.33480
#
# Compressibility (1/GPa) = 0.01676275
#
# Stress axis : x y z
#
# Youngs Moduli (GPa) = 92.10520 84.25231 50.75808
#
# Poissons Ratio (x) = 0.22763 0.19867
# Poissons Ratio (y) = 0.24885 0.31554
# Poissons Ratio (z) = 0.36050 0.52376
#
# Static dielectric constant tensor:
#      x y z
#    x 1.643020 0.000000 0.000000 
#    y 0.000000 1.592370 0.000000 
#    z 0.000000 0.000000 1.655460 
# 
# From -- ./inp_files/43190.got.cif
#   From: 2010.05.17/outbox.cif.g08.bks.cpg/sg64_22_cif.got.tgz:43190.got - 2010.06.03 16:29:19.
