data_PCOD9477324
_publ_section_title
;
Structure prediction by ZEFSAII (Michael W. Deem and Ramdas Pophale) SiO2 
 PCOD9477324
Probable space group: C M C A
;
_chemical_formula_sum "Si O2"
_cell_formula_units_Z 96
_cell_length_a 22.992105
_cell_length_b 26.134449
_cell_length_c 9.654925
_cell_angle_alpha 90.000000
_cell_angle_beta 90.000000
_cell_angle_gamma 90.000000
_cell_volume 5801.509220
_symmetry_space_group_name_H-M "C M C A"
_symmetry_group_IT_number 64
_symmetry_cell_setting 'orthorhombic'
loop_
_space_group_symop_operation_xyz
x,y,z
-x,1/2-y,1/2+z
x,-y,-z
-x,1/2+y,1/2-z
-x,-y,-z
x,1/2+y,1/2-z
-x,y,z
x,1/2-y,1/2+z
1/2+x,1/2+y,z
1/2-x,-y,1/2+z
1/2+x,1/2-y,-z
1/2-x,y,1/2-z
1/2-x,1/2-y,-z
1/2+x,y,1/2-z
1/2-x,1/2+y,z
1/2+x,-y,1/2+z
loop_
_atom_site_type_symbol
_atom_site_label
_atom_site_fract_x
_atom_site_fract_y
_atom_site_fract_z
Si Si1 0.363752 0.168336 0.501463
Si Si2 0.570361 0.057892 0.000435
Si Si3 0.886793 0.209882 0.511681
Si Si4 0.069626 0.640899 0.229408
Si Si5 0.567073 0.638747 0.729439
Si Si6 0.758054 0.302981 0.083060
O O1 0.378035 0.229348 0.492513
O O2 0.391945 0.143525 0.366410
O O3 0.394489 0.146337 0.636644
O O4 0.294416 0.162958 0.523343
O O5 0.500000 0.055896 0.994842
O O6 0.587286 0.091885 0.867869
O O7 0.583489 0.090795 0.137336
O O8 0.592621 0.000000 0.000000
O O9 0.912180 0.188475 0.368618
O O10 0.927870 0.189351 0.633608
O O11 0.824371 0.183696 0.547020
O O12 0.000000 0.642475 0.256470
O O13 0.500000 0.630740 0.767797
O O14 0.750000 0.297179 0.250000
O O15 0.750000 0.250000 0.000000
#
# Coordination Sequence:
#
# PCOD9477324 Si02
#       6
#    16  16  16  16  16  16
#     4  11  21  31  48  73 110 136 165 213 251 288
#     4   8  16  34  55  71  95 132 171 210 253 308
#     4  10  20  33  49  69 104 145 176 202 238 292
#     4  10  21  33  49  78 105 133 173 205 250 319
#     4  10  19  31  49  75 101 133 170 203 253 310
#     4  10  21  34  50  70  98 140 186 217 237 278
#
# _framework density 16.547418
#
# number of rings (size 3 to 8) (size 9 to 14) (size 15 to 20)
#    0.000    2.167    1.667    3.000    7.000    4.000 
#    0.000    0.833    0.000    4.000    0.000   18.667 
#    0.000    0.000    0.000    0.000    0.000    0.000 
#
# Total GULP energy -267443.714593 kJ/mol
# GULP energy per Si atom -5571.744054 kJ/mol
# Density = 1.650976 g / cm^3
# Si number density = 16.547418 Si / 1000 Ang^3
#
#
#
# Elastic Constant Matrix: (Units=GPa)
#
#
# Indices 1 2 3 4 5 6 
#
# 1 93.9360 22.3921 43.7551 0.0000 0.0000 0.0000
# 2 22.3921 85.8811 32.6072 0.0000 0.0000 0.0000
# 3 43.7551 32.6072 123.5185 0.0000 0.0000 0.0000
# 4 0.0000 0.0000 0.0000 -5.5783 0.0000 0.0000
# 5 0.0000 0.0000 0.0000 0.0000 26.6972 0.0000
# 6 0.0000 0.0000 0.0000 0.0000 0.0000 11.5149
#
#
#
# Elastic Compliance Matrix: (Units=1/GPa)
#
#
# Indices 1 2 3 4 5 6 
#
# 1 0.013001 -0.001824 -0.004124 0.000000 0.000000 0.000000
# 2 -0.001824 0.013197 -0.002838 0.000000 0.000000 0.000000
# 3 -0.004124 -0.002838 0.010306 0.000000 0.000000 0.000000
# 4 0.000000 0.000000 0.000000 -0.179265 0.000000 0.000000
# 5 0.000000 0.000000 0.000000 0.000000 0.037457 0.000000
# 6 0.000000 0.000000 0.000000 0.000000 0.000000 0.086844
#
#
# Mechanical properties :
#
#
# Convention : Reuss Voigt Hill
#
# Bulk Modulus (GPa) = 52.81864 55.64936 54.23400
# Shear Modulus (GPa) = 922.14907 20.16552 471.15730
#
# Velocity S-wave (km/s) = 23.63232 3.49471 16.89230
# Velocity P-wave (km/s) = 27.86822 7.07016 20.33009
#
# Compressibility (1/GPa) = 0.01893271
#
# Stress axis : x y z
#
# Youngs Moduli (GPa) = 76.91521 75.77480 97.03127
#
# Poissons Ratio (x) = 0.13822 0.40016
# Poissons Ratio (y) = 0.14030 0.27534
# Poissons Ratio (z) = 0.31720 0.21502
#
# Static dielectric constant tensor:
#      x y z
#    x 1.600520 0.000000 0.000000 
#    y 0.000000 1.536580 0.000000 
#    z 0.000000 0.000000 1.561840 
# 
# From -- ./inp_files/9500.got.cif
#   From: 2010.05.17/outbox.cif.g08.bks.cpg/sg64_5_cif.got.tgz:9500.got - 2010.06.03 16:29:19.
