data_PCOD9477820
_publ_section_title
;
Structure prediction by ZEFSAII (Michael W. Deem and Ramdas Pophale) SiO2 
 PCOD9477820
Probable space group: C M C A
;
_chemical_formula_sum "Si O2"
_cell_formula_units_Z 112
_cell_length_a 14.896433
_cell_length_b 10.525833
_cell_length_c 32.667466
_cell_angle_alpha 90.000000
_cell_angle_beta 90.000000
_cell_angle_gamma 90.000000
_cell_volume 5122.172624
_symmetry_space_group_name_H-M "C M C A"
_symmetry_group_IT_number 64
_symmetry_cell_setting 'orthorhombic'
loop_
_space_group_symop_operation_xyz
x,y,z
-x,1/2-y,1/2+z
x,-y,-z
-x,1/2+y,1/2-z
-x,-y,-z
x,1/2+y,1/2-z
-x,y,z
x,1/2-y,1/2+z
1/2+x,1/2+y,z
1/2-x,-y,1/2+z
1/2+x,1/2-y,-z
1/2-x,y,1/2-z
1/2-x,1/2-y,-z
1/2+x,y,1/2-z
1/2-x,1/2+y,z
1/2+x,-y,1/2+z
loop_
_atom_site_type_symbol
_atom_site_label
_atom_site_fract_x
_atom_site_fract_y
_atom_site_fract_z
Si Si1 0.891588 0.736433 0.709359
Si Si2 0.269955 0.636321 0.448598
Si Si3 0.397327 0.509162 0.252569
Si Si4 0.234212 0.334353 0.853891
Si Si5 0.594106 0.926840 0.071355
Si Si6 0.342568 0.598294 0.662313
Si Si7 0.397291 0.799441 0.507207
O O1 0.856420 0.598471 0.723241
O O2 0.858522 0.779451 0.664747
O O3 0.000000 0.734954 0.710898
O O4 0.859280 0.850259 0.739555
O O5 0.256061 0.684376 0.402269
O O6 0.322934 0.506350 0.444150
O O7 0.338106 0.731995 0.471791
O O8 0.176085 0.610656 0.471206
O O9 0.500000 0.527440 0.239046
O O10 0.395087 0.444003 0.297414
O O11 0.305378 0.240584 0.833002
O O12 0.231263 0.484689 0.844333
O O13 0.500000 0.998387 0.064086
O O14 0.603842 0.904008 0.119625
O O15 0.592200 0.803402 0.043604
O O16 0.500000 0.839055 0.496135
#
# Coordination Sequence:
#
# PCOD9477820 Si02
#       7
#    16  16  16  16  16  16  16
#     4   9  19  35  56  80 111 148 193 240 295 354
#     4  10  20  34  55  85 119 152 192 253 300 350
#     4   9  18  34  55  80 108 144 188 241 291 344
#     4  10  21  36  55  82 114 153 189 239 301 352
#     4  10  19  34  59  86 112 150 202 249 293 354
#     4  10  20  35  55  82 113 148 191 242 294 351
#     4  10  20  35  58  87 115 152 201 249 302 359
#
# _framework density 21.865721000000001
#
# number of rings (size 3 to 8) (size 9 to 14) (size 15 to 20)
#    0.000    2.286    1.429    1.286    0.000    6.857 
#    0.000    2.857    0.000   12.000    0.000    0.000 
#    0.000    0.000    0.000    0.000    0.000    0.000 
#
# Total GULP energy -312102.010307 kJ/mol
# GULP energy per Si atom -5573.250184 kJ/mol
# Density = 2.181595 g / cm^3
# Si number density = 21.865721 Si / 1000 Ang^3
#
#
#
# Elastic Constant Matrix: (Units=GPa)
#
#
# Indices 1 2 3 4 5 6 
#
# 1 100.0860 22.8466 13.9325 0.0000 0.0000 0.0000
# 2 22.8466 36.0337 9.9296 0.0000 0.0000 0.0000
# 3 13.9325 9.9296 86.7608 0.0000 0.0000 0.0000
# 4 0.0000 0.0000 0.0000 29.5151 0.0000 0.0000
# 5 0.0000 0.0000 0.0000 0.0000 24.9450 0.0000
# 6 0.0000 0.0000 0.0000 0.0000 0.0000 20.3877
#
#
#
# Elastic Compliance Matrix: (Units=1/GPa)
#
#
# Indices 1 2 3 4 5 6 
#
# 1 0.011778 -0.007172 -0.001070 0.000000 0.000000 0.000000
# 2 -0.007172 0.033023 -0.002628 0.000000 0.000000 0.000000
# 3 -0.001070 -0.002628 0.011999 0.000000 0.000000 0.000000
# 4 0.000000 0.000000 0.000000 0.033881 0.000000 0.000000
# 5 0.000000 0.000000 0.000000 0.000000 0.040088 0.000000
# 6 0.000000 0.000000 0.000000 0.000000 0.000000 0.049049
#
#
# Mechanical properties :
#
#
# Convention : Reuss Voigt Hill
#
# Bulk Modulus (GPa) = 28.52373 35.14421 31.83397
# Shear Modulus (GPa) = 23.44716 26.71436 25.08076
#
# Velocity S-wave (km/s) = 3.27819 3.49914 3.39047
# Velocity P-wave (km/s) = 5.23469 5.69499 5.46969
#
# Compressibility (1/GPa) = 0.03505852
#
# Stress axis : x y z
#
# Youngs Moduli (GPa) = 84.90645 30.28150 83.34328
#
# Poissons Ratio (x) = 0.21719 0.08921
# Poissons Ratio (y) = 0.60899 0.21900
# Poissons Ratio (z) = 0.09089 0.07957
#
# Static dielectric constant tensor:
#      x y z
#    x 1.985040 0.000000 0.000000 
#    y 0.000000 1.842460 0.000000 
#    z 0.000000 0.000000 1.803840 
# 
# From -- ./inp_files/53292.got.cif
#   From: 2010.05.17/outbox.cif.g08.bks.cpg/sg64_27_cif.got.tgz:53292.got - 2010.06.03 16:29:19.
