data_PCOD9477689
_publ_section_title
;
Structure prediction by ZEFSAII (Michael W. Deem and Ramdas Pophale) SiO2 
 PCOD9477689
Probable space group: C M C A
;
_chemical_formula_sum "Si O2"
_cell_formula_units_Z 112
_cell_length_a 13.758514
_cell_length_b 11.626479
_cell_length_c 32.145845
_cell_angle_alpha 90.000000
_cell_angle_beta 90.000000
_cell_angle_gamma 90.000000
_cell_volume 5142.148185
_symmetry_space_group_name_H-M "C M C A"
_symmetry_group_IT_number 64
_symmetry_cell_setting 'orthorhombic'
loop_
_space_group_symop_operation_xyz
x,y,z
-x,1/2-y,1/2+z
x,-y,-z
-x,1/2+y,1/2-z
-x,-y,-z
x,1/2+y,1/2-z
-x,y,z
x,1/2-y,1/2+z
1/2+x,1/2+y,z
1/2-x,-y,1/2+z
1/2+x,1/2-y,-z
1/2-x,y,1/2-z
1/2-x,1/2-y,-z
1/2+x,y,1/2-z
1/2-x,1/2+y,z
1/2+x,-y,1/2+z
loop_
_atom_site_type_symbol
_atom_site_label
_atom_site_fract_x
_atom_site_fract_y
_atom_site_fract_z
Si Si1 0.617193 0.557296 0.271764
Si Si2 0.817189 0.192484 0.418354
Si Si3 0.386813 0.629769 0.502549
Si Si4 0.108499 0.772066 0.404059
Si Si5 0.819192 0.491728 0.137770
Si Si6 0.112638 0.810771 0.235047
Si Si7 0.389950 0.113536 0.640870
O O1 0.500000 0.559376 0.270540
O O2 0.651422 0.549395 0.319224
O O3 0.648476 0.434962 0.251686
O O4 0.647846 0.681981 0.252935
O O5 0.830335 0.200741 0.467558
O O6 0.704853 0.195874 0.404147
O O7 0.873803 0.294749 0.395739
O O8 0.853385 0.071946 0.400127
O O9 0.348501 0.500000 0.500000
O O10 0.500000 0.629008 0.489254
O O11 0.385473 0.672981 0.549647
O O12 0.128029 0.869897 0.369597
O O13 0.000000 0.722959 0.398910
O O14 0.703364 0.468793 0.137965
O O15 0.119264 0.821917 0.185152
O O16 0.000000 0.810442 0.247377
O O17 0.500000 0.064843 0.639293
#
# Coordination Sequence:
#
# PCOD9477689 Si02
#       7
#    16  16  16  16  16  16  16
#     4  10  20  38  64  94 124 160 208 260 315 374
#     4  11  21  37  62  87 116 158 204 248 306 364
#     4  10  19  33  59  89 116 153 200 250 300 357
#     4  10  22  38  57  88 124 155 196 249 303 362
#     4  11  22  37  61  90 117 158 201 250 305 364
#     4   9  19  38  62  88 121 161 203 255 314 371
#     4  10  22  40  59  84 119 158 203 251 304 369
#
# _framework density 21.780781000000001
#
# number of rings (size 3 to 8) (size 9 to 14) (size 15 to 20)
#    0.000    1.857    2.857    1.286    0.000    2.286 
#    5.143    1.429    0.000    0.429    0.000    0.000 
#    0.000    0.000    0.000    0.000    0.000    0.000 
#
# Total GULP energy -312319.392035 kJ/mol
# GULP energy per Si atom -5577.132001 kJ/mol
# Density = 2.173121 g / cm^3
# Si number density = 21.780781 Si / 1000 Ang^3
#
#
#
# Elastic Constant Matrix: (Units=GPa)
#
#
# Indices 1 2 3 4 5 6 
#
# 1 105.3439 16.6016 3.4313 0.0000 0.0000 0.0000
# 2 16.6016 115.1893 29.3301 0.0000 0.0000 0.0000
# 3 3.4313 29.3301 37.5615 0.0000 0.0000 0.0000
# 4 0.0000 0.0000 0.0000 24.2208 0.0000 0.0000
# 5 0.0000 0.0000 0.0000 0.0000 22.3703 0.0000
# 6 0.0000 0.0000 0.0000 0.0000 0.0000 -8.1373
#
#
#
# Elastic Compliance Matrix: (Units=1/GPa)
#
#
# Indices 1 2 3 4 5 6 
#
# 1 0.009715 -0.001466 0.000257 0.000000 0.000000 0.000000
# 2 -0.001466 0.011057 -0.008500 0.000000 0.000000 0.000000
# 3 0.000257 -0.008500 0.033237 0.000000 0.000000 0.000000
# 4 0.000000 0.000000 0.000000 0.041287 0.000000 0.000000
# 5 0.000000 0.000000 0.000000 0.000000 0.044702 0.000000
# 6 0.000000 0.000000 0.000000 0.000000 0.000000 -0.122891
#
#
# Mechanical properties :
#
#
# Convention : Reuss Voigt Hill
#
# Bulk Modulus (GPa) = 28.90868 39.64675 34.27771
# Shear Modulus (GPa) = 104.04729 21.60621 62.82675
#
# Velocity S-wave (km/s) = 6.91910 3.15300 5.37658
# Velocity P-wave (km/s) = 8.78256 5.61225 7.36989
#
# Compressibility (1/GPa) = 0.03459169
#
# Stress axis : x y z
#
# Youngs Moduli (GPa) = 102.93021 90.44134 30.08716
#
# Poissons Ratio (x) = 0.13255 -0.00773
# Poissons Ratio (y) = 0.15086 0.25574
# Poissons Ratio (z) = -0.02645 0.76875
#
# Static dielectric constant tensor:
#      x y z
#    x 1.801170 0.000000 0.000000 
#    y 0.000000 1.822440 0.000000 
#    z 0.000000 0.000000 1.760550 
# 
# From -- ./inp_files/53301.got.cif
#   From: 2010.05.17/outbox.cif.g08.bks.cpg/sg64_27_cif.got.tgz:53301.got - 2010.06.03 16:29:19.
