data_PCOD9477858
_publ_section_title
;
Structure prediction by ZEFSAII (Michael W. Deem and Ramdas Pophale) SiO2 
 PCOD9477858
Probable space group: C M C A
;
_chemical_formula_sum "Si O2"
_cell_formula_units_Z 116
_cell_length_a 15.294301
_cell_length_b 22.853084
_cell_length_c 17.282708
_cell_angle_alpha 90.000000
_cell_angle_beta 90.000000
_cell_angle_gamma 90.000000
_cell_volume 6040.685723
_symmetry_space_group_name_H-M "C M C A"
_symmetry_group_IT_number 64
_symmetry_cell_setting 'orthorhombic'
loop_
_space_group_symop_operation_xyz
x,y,z
-x,1/2-y,1/2+z
x,-y,-z
-x,1/2+y,1/2-z
-x,-y,-z
x,1/2+y,1/2-z
-x,y,z
x,1/2-y,1/2+z
1/2+x,1/2+y,z
1/2-x,-y,1/2+z
1/2+x,1/2-y,-z
1/2-x,y,1/2-z
1/2-x,1/2-y,-z
1/2+x,y,1/2-z
1/2-x,1/2+y,z
1/2+x,-y,1/2+z
loop_
_atom_site_type_symbol
_atom_site_label
_atom_site_fract_x
_atom_site_fract_y
_atom_site_fract_z
Si Si1 0.646641 0.564957 0.592102
Si Si2 0.899573 0.438532 0.545811
Si Si3 0.500000 0.000000 0.000000
Si Si4 0.265356 0.265258 0.626599
Si Si5 0.893380 0.739125 0.757880
Si Si6 0.099069 0.101270 0.765000
Si Si7 0.272872 0.656177 0.984146
Si Si8 0.209892 0.504019 0.330994
O O1 0.574609 0.543124 0.534914
O O2 0.608099 0.581867 0.675792
O O3 0.697144 0.619092 0.555860
O O4 0.713730 0.512266 0.609852
O O5 0.893029 0.500000 0.500000
O O6 0.852402 0.387917 0.498194
O O7 0.853844 0.450851 0.627923
O O8 0.000000 0.423912 0.556948
O O9 0.171661 0.252080 0.669238
O O10 0.343309 0.273208 0.688723
O O11 0.291003 0.210203 0.572586
O O12 0.253963 0.318647 0.567683
O O13 0.881750 0.670324 0.735469
O O14 0.000000 0.748977 0.766968
O O15 0.162562 0.058152 0.811815
O O16 0.000000 0.092039 0.792542
O O17 0.250000 0.525126 0.250000
#
# Coordination Sequence:
#
# PCOD9477858 Si02
#       8
#    16  16   4  16  16  16  16  16
#     4  11  20  36  58  89 121 162 197 253 306 364
#     4  11  23  39  63  96 130 164 203 253 310 373
#     4  12  24  36  60  88 134 156 206 252 314 376
#     4  10  23  41  67  93 122 164 211 260 316 374
#     4  10  21  39  64  93 123 156 207 268 315 362
#     4  10  19  34  62  93 119 150 204 259 309 355
#     4  11  22  42  65  89 126 168 205 252 314 376
#     4  10  21  37  62  87 124 163 206 247 304 369
#
# _framework density 19.203118
#
# number of rings (size 3 to 8) (size 9 to 14) (size 15 to 20)
#    0.000    1.517    3.448    2.069    3.862    1.103 
#    3.724    1.379    0.000    0.000    0.000    0.000 
#    0.000    0.000    0.000    0.000    0.000    0.000 
#
# Total GULP energy -323229.836532 kJ/mol
# GULP energy per Si atom -5572.928216 kJ/mol
# Density = 1.915941 g / cm^3
# Si number density = 19.203118 Si / 1000 Ang^3
#
#
#
# Elastic Constant Matrix: (Units=GPa)
#
#
# Indices 1 2 3 4 5 6 
#
# 1 88.7014 16.4272 17.7715 0.0000 0.0000 0.0000
# 2 16.4272 32.5962 10.9930 0.0000 0.0000 0.0000
# 3 17.7715 10.9930 59.8642 0.0000 0.0000 0.0000
# 4 0.0000 0.0000 0.0000 17.8932 0.0000 0.0000
# 5 0.0000 0.0000 0.0000 0.0000 3.9329 0.0000
# 6 0.0000 0.0000 0.0000 0.0000 0.0000 11.5558
#
#
#
# Elastic Compliance Matrix: (Units=1/GPa)
#
#
# Indices 1 2 3 4 5 6 
#
# 1 0.012860 -0.005536 -0.002801 0.000000 0.000000 0.000000
# 2 -0.005536 0.035087 -0.004800 0.000000 0.000000 0.000000
# 3 -0.002801 -0.004800 0.018417 0.000000 0.000000 0.000000
# 4 0.000000 0.000000 0.000000 0.055887 0.000000 0.000000
# 5 0.000000 0.000000 0.000000 0.000000 0.254266 0.000000
# 6 0.000000 0.000000 0.000000 0.000000 0.000000 0.086537
#
#
# Mechanical properties :
#
#
# Convention : Reuss Voigt Hill
#
# Bulk Modulus (GPa) = 24.94347 30.17171 27.55759
# Shear Modulus (GPa) = 9.94643 15.74105 12.84374
#
# Velocity S-wave (km/s) = 2.27834 2.86617 2.58899
# Velocity P-wave (km/s) = 4.46527 5.16713 4.82897
#
# Compressibility (1/GPa) = 0.04009066
#
# Stress axis : x y z
#
# Youngs Moduli (GPa) = 77.75862 28.50042 54.29650
#
# Poissons Ratio (x) = 0.15779 0.15209
# Poissons Ratio (y) = 0.43050 0.26060
# Poissons Ratio (z) = 0.21781 0.13679
#
# Static dielectric constant tensor:
#      x y z
#    x 1.675980 0.000000 0.000000 
#    y 0.000000 1.674780 0.000000 
#    z 0.000000 0.000000 1.695070 
# 
# From -- ./inp_files/32543.got.cif
#   From: 2010.05.17/outbox.cif.g08.bks.cpg/sg64_17_cif.got.tgz:32543.got - 2010.06.03 16:29:19.
