data_PCOD9477557
_publ_section_title
;
Structure prediction by ZEFSAII (Michael W. Deem and Ramdas Pophale) SiO2 
 PCOD9477557
Probable space group: C M C A
;
_chemical_formula_sum "Si O2"
_cell_formula_units_Z 80
_cell_length_a 8.730889
_cell_length_b 28.139538
_cell_length_c 21.142775
_cell_angle_alpha 90.000000
_cell_angle_beta 90.000000
_cell_angle_gamma 90.000000
_cell_volume 5194.424255
_symmetry_space_group_name_H-M "C M C A"
_symmetry_group_IT_number 64
_symmetry_cell_setting 'orthorhombic'
loop_
_space_group_symop_operation_xyz
x,y,z
-x,1/2-y,1/2+z
x,-y,-z
-x,1/2+y,1/2-z
-x,-y,-z
x,1/2+y,1/2-z
-x,y,z
x,1/2-y,1/2+z
1/2+x,1/2+y,z
1/2-x,-y,1/2+z
1/2+x,1/2-y,-z
1/2-x,y,1/2-z
1/2-x,1/2-y,-z
1/2+x,y,1/2-z
1/2-x,1/2+y,z
1/2+x,-y,1/2+z
loop_
_atom_site_type_symbol
_atom_site_label
_atom_site_fract_x
_atom_site_fract_y
_atom_site_fract_z
Si Si1 0.817607 0.389593 0.066740
Si Si2 0.180220 0.301641 0.491625
Si Si3 0.319609 0.107916 0.435091
Si Si4 0.182866 0.445786 0.817530
Si Si5 0.183406 0.051342 0.818034
O O1 0.765537 0.334451 0.060219
O O2 0.741902 0.414988 0.126179
O O3 0.000000 0.393437 0.068825
O O4 0.752599 0.411434 0.000800
O O5 0.250000 0.250000 0.500000
O O6 0.196541 0.335151 0.554037
O O7 0.000000 0.298984 0.477111
O O8 0.500000 0.096730 0.432247
O O9 0.235000 0.087920 0.374420
O O10 0.250000 0.429580 0.750000
O O11 0.252390 0.498202 0.829187
O O12 0.000000 0.449014 0.813812
O O13 0.250000 0.066642 0.750000
O O14 0.000000 0.050113 0.815765
#
# Coordination Sequence:
#
# PCOD9477557 Si02
#       5
#    16  16  16  16  16
#     4  10  19  33  52  77 103 132 170 210 253 299
#     4   9  18  32  53  77 103 131 165 207 257 303
#     4   9  19  34  51  76 103 132 169 211 252 295
#     4  11  21  34  52  74 102 138 173 207 250 301
#     4  11  21  35  52  73 103 138 173 208 250 300
#
# _framework density 15.401128
#
# number of rings (size 3 to 8) (size 9 to 14) (size 15 to 20)
#    1.200    0.800    0.000    7.200    0.000    0.800 
#    0.000    4.000    0.000    1.200    0.000    2.800 
#    0.000    0.000    0.000    0.000    0.000    0.000 
#
# Total GULP energy -222726.418780 kJ/mol
# GULP energy per Si atom -5568.160469 kJ/mol
# Density = 1.536607 g / cm^3
# Si number density = 15.401128 Si / 1000 Ang^3
#
#
#
# Elastic Constant Matrix: (Units=GPa)
#
#
# Indices 1 2 3 4 5 6 
#
# 1 176.8984 55.4697 72.1500 0.0000 0.0000 0.0000
# 2 55.4697 66.1925 67.6694 0.0000 0.0000 0.0000
# 3 72.1500 67.6694 120.9737 0.0000 0.0000 0.0000
# 4 0.0000 0.0000 0.0000 -18.2164 0.0000 0.0000
# 5 0.0000 0.0000 0.0000 0.0000 29.5997 0.0000
# 6 0.0000 0.0000 0.0000 0.0000 0.0000 28.3423
#
#
#
# Elastic Compliance Matrix: (Units=1/GPa)
#
#
# Indices 1 2 3 4 5 6 
#
# 1 0.007948 -0.004238 -0.002370 0.000000 0.000000 0.000000
# 2 -0.004238 0.037545 -0.018474 0.000000 0.000000 0.000000
# 3 -0.002370 -0.018474 0.020014 0.000000 0.000000 0.000000
# 4 0.000000 0.000000 0.000000 -0.054896 0.000000 0.000000
# 5 0.000000 0.000000 0.000000 0.000000 0.033784 0.000000
# 6 0.000000 0.000000 0.000000 0.000000 0.000000 0.035283
#
#
# Mechanical properties :
#
#
# Convention : Reuss Voigt Hill
#
# Bulk Modulus (GPa) = 65.17576 83.84921 74.51248
# Shear Modulus (GPa) = 37.04854 19.19682 28.12268
#
# Velocity S-wave (km/s) = 4.90999 3.53435 4.27782
# Velocity P-wave (km/s) = 8.63450 8.43903 8.53733
#
# Compressibility (1/GPa) = 0.01534313
#
# Stress axis : x y z
#
# Youngs Moduli (GPa) = 125.81031 26.63436 49.96584
#
# Poissons Ratio (x) = 0.11288 0.11841
# Poissons Ratio (y) = 0.53320 0.92308
# Poissons Ratio (z) = 0.29815 0.49205
#
# Static dielectric constant tensor:
#      x y z
#    x 1.517210 0.000000 0.000000 
#    y 0.000000 1.500390 0.000000 
#    z 0.000000 0.000000 1.499000 
# 
# From -- ./inp_files/37319.got.cif
#   From: 2010.05.17/outbox.cif.g08.bks.cpg/sg64_19_cif.got.tgz:37319.got - 2010.06.03 16:29:19.
