data_PCOD9477879
_publ_section_title
;
Structure prediction by ZEFSAII (Michael W. Deem and Ramdas Pophale) SiO2 
 PCOD9477879
Probable space group: C M C A
;
_chemical_formula_sum "Si O2"
_cell_formula_units_Z 96
_cell_length_a 14.462055
_cell_length_b 10.437531
_cell_length_c 27.850627
_cell_angle_alpha 90.000000
_cell_angle_beta 90.000000
_cell_angle_gamma 90.000000
_cell_volume 4204.000549
_symmetry_space_group_name_H-M "C M C A"
_symmetry_group_IT_number 64
_symmetry_cell_setting 'orthorhombic'
loop_
_space_group_symop_operation_xyz
x,y,z
-x,1/2-y,1/2+z
x,-y,-z
-x,1/2+y,1/2-z
-x,-y,-z
x,1/2+y,1/2-z
-x,y,z
x,1/2-y,1/2+z
1/2+x,1/2+y,z
1/2-x,-y,1/2+z
1/2+x,1/2-y,-z
1/2-x,y,1/2-z
1/2-x,1/2-y,-z
1/2+x,y,1/2-z
1/2-x,1/2+y,z
1/2+x,-y,1/2+z
loop_
_atom_site_type_symbol
_atom_site_label
_atom_site_fract_x
_atom_site_fract_y
_atom_site_fract_z
Si Si1 0.898864 0.173707 0.156989
Si Si2 0.740769 0.392117 0.317284
Si Si3 0.667597 0.323054 0.949451
Si Si4 0.000000 0.230842 0.497283
Si Si5 0.894512 0.959313 0.240079
Si Si6 0.500000 0.992311 0.926443
Si Si7 0.208036 0.539926 0.918480
O O1 0.817874 0.268863 0.170170
O O2 0.887239 0.146320 0.100268
O O3 0.896602 0.067410 0.198813
O O4 0.000000 0.236269 0.160787
O O5 0.832001 0.354621 0.287673
O O6 0.671442 0.481727 0.285911
O O7 0.762368 0.454306 0.368343
O O8 0.591743 0.312571 0.991485
O O9 0.748055 0.428560 0.950734
O O10 0.708832 0.179837 0.942712
O O11 0.000000 0.151162 0.448340
O O12 0.000000 0.110391 0.534975
O O13 0.000000 0.927676 0.251978
O O14 0.601315 0.010287 0.904044
#
# Coordination Sequence:
#
# PCOD9477879 Si02
#       7
#    16  16  16   8  16   8  16
#     4  10  19  35  56  78 106 150 193 235 281 338
#     4  10  21  34  54  80 108 146 192 237 281 331
#     4  10  19  36  60  86 114 152 191 240 282 345
#     4   9  18  36  63  92 111 151 197 229 281 353
#     4  10  21  35  52  75 108 143 187 239 277 333
#     4   9  20  36  61  90 119 145 193 241 279 351
#     4  10  21  37  60  84 116 152 192 237 290 340
#
# _framework density 22.835391000000001
#
# number of rings (size 3 to 8) (size 9 to 14) (size 15 to 20)
#    0.000    2.167    2.500    0.500    4.667    3.333 
#    0.000    0.833    5.500    2.000    0.000    0.000 
#    0.000    0.000    0.000    0.000    0.000    0.000 
#
# Total GULP energy -267617.557113 kJ/mol
# GULP energy per Si atom -5575.365773 kJ/mol
# Density = 2.278342 g / cm^3
# Si number density = 22.835391 Si / 1000 Ang^3
#
#
#
# Elastic Constant Matrix: (Units=GPa)
#
#
# Indices 1 2 3 4 5 6 
#
# 1 86.0792 44.6686 -8.1368 0.0000 0.0000 0.0000
# 2 44.6686 36.8411 2.3490 0.0000 0.0000 0.0000
# 3 -8.1368 2.3490 43.7354 0.0000 0.0000 0.0000
# 4 0.0000 0.0000 0.0000 21.4986 0.0000 0.0000
# 5 0.0000 0.0000 0.0000 0.0000 26.9566 0.0000
# 6 0.0000 0.0000 0.0000 0.0000 0.0000 20.7439
#
#
#
# Elastic Compliance Matrix: (Units=1/GPa)
#
#
# Indices 1 2 3 4 5 6 
#
# 1 0.034304 -0.042143 0.008645 0.000000 0.000000 0.000000
# 2 -0.042143 0.079011 -0.012084 0.000000 0.000000 0.000000
# 3 0.008645 -0.012084 0.025122 0.000000 0.000000 0.000000
# 4 0.000000 0.000000 0.000000 0.046515 0.000000 0.000000
# 5 0.000000 0.000000 0.000000 0.000000 0.037097 0.000000
# 6 0.000000 0.000000 0.000000 0.000000 0.000000 0.048207
#
#
# Mechanical properties :
#
#
# Convention : Reuss Voigt Hill
#
# Bulk Modulus (GPa) = 21.15354 27.15748 24.15551
# Shear Modulus (GPa) = 13.25638 22.35815 17.80726
#
# Velocity S-wave (km/s) = 2.41201 3.13245 2.79554
# Velocity P-wave (km/s) = 4.12803 5.00016 4.58488
#
# Compressibility (1/GPa) = 0.04727342
#
# Stress axis : x y z
#
# Youngs Moduli (GPa) = 29.15145 12.65642 39.80533
#
# Poissons Ratio (x) = 0.53338 -0.34414
# Poissons Ratio (y) = 1.22854 0.48101
# Poissons Ratio (z) = -0.25203 0.15294
#
# Static dielectric constant tensor:
#      x y z
#    x 1.891490 0.000000 0.000000 
#    y 0.000000 1.879840 0.000000 
#    z 0.000000 0.000000 1.895110 
# 
# From -- ./inp_files/53205.got.cif
#   From: 2010.05.17/outbox.cif.g08.bks.cpg/sg64_27_cif.got.tgz:53205.got - 2010.06.03 16:29:19.
