data_PCOD9477001
_publ_section_title
;
Structure prediction by ZEFSAII (Michael W. Deem and Ramdas Pophale) SiO2 
 PCOD9477001
Probable space group: C M C A
;
_chemical_formula_sum "Si O2"
_cell_formula_units_Z 96
_cell_length_a 27.295500
_cell_length_b 18.198510
_cell_length_c 9.661271
_cell_angle_alpha 90.000000
_cell_angle_beta 90.000000
_cell_angle_gamma 90.000000
_cell_volume 4799.114924
_symmetry_space_group_name_H-M "C M C A"
_symmetry_group_IT_number 64
_symmetry_cell_setting 'orthorhombic'
loop_
_space_group_symop_operation_xyz
x,y,z
-x,1/2-y,1/2+z
x,-y,-z
-x,1/2+y,1/2-z
-x,-y,-z
x,1/2+y,1/2-z
-x,y,z
x,1/2-y,1/2+z
1/2+x,1/2+y,z
1/2-x,-y,1/2+z
1/2+x,1/2-y,-z
1/2-x,y,1/2-z
1/2-x,1/2-y,-z
1/2+x,y,1/2-z
1/2-x,1/2+y,z
1/2+x,-y,1/2+z
loop_
_atom_site_type_symbol
_atom_site_label
_atom_site_fract_x
_atom_site_fract_y
_atom_site_fract_z
Si Si1 0.446000 0.505117 0.846381
Si Si2 0.141059 0.676272 0.519102
Si Si3 0.692085 0.567056 0.767525
Si Si4 0.865998 0.916792 0.745079
Si Si5 0.639939 0.833151 0.041067
Si Si6 0.943345 0.674677 0.738061
O O1 0.500000 0.473607 0.861961
O O2 0.416654 0.460323 0.734964
O O3 0.447431 0.588430 0.798396
O O4 0.422600 0.500000 0.000000
O O5 0.173315 0.617495 0.604802
O O6 0.128500 0.636134 0.376532
O O7 0.165090 0.753645 0.477137
O O8 0.094230 0.699214 0.615607
O O9 0.750000 0.566944 0.750000
O O10 0.672552 0.483055 0.771839
O O11 0.667895 0.609727 0.639082
O O12 0.859826 0.870333 0.608100
O O13 0.587648 0.818548 0.119438
O O14 0.000000 0.703346 0.740706
#
# Coordination Sequence:
#
# PCOD9477001 Si02
#       6
#    16  16  16  16  16  16
#     4  10  18  33  60  92 122 163 213 253 297 360
#     4  11  23  43  65  90 128 171 203 244 312 382
#     4  11  25  45  67  92 120 157 209 261 312 375
#     4  12  21  39  67  93 122 162 210 259 304 361
#     4  11  25  41  62  95 131 160 201 261 316 357
#     4  10  21  39  61  90 130 170 210 251 297 358
#
# _framework density 20.003688
#
# number of rings (size 3 to 8) (size 9 to 14) (size 15 to 20)
#    0.000    1.167    5.000    3.000    0.000    4.667 
#    0.000    5.000    0.000    0.000    0.000    0.000 
#    0.000    0.000    0.000    0.000    0.000    0.000 
#
# Total GULP energy -267607.378611 kJ/mol
# GULP energy per Si atom -5575.153721 kJ/mol
# Density = 1.995816 g / cm^3
# Si number density = 20.003688 Si / 1000 Ang^3
#
#
#
# Elastic Constant Matrix: (Units=GPa)
#
#
# Indices 1 2 3 4 5 6 
#
# 1 92.0659 1.4518 10.6914 0.0000 0.0000 0.0000
# 2 1.4518 79.0769 11.4501 0.0000 0.0000 0.0000
# 3 10.6914 11.4501 84.2030 0.0000 0.0000 0.0000
# 4 0.0000 0.0000 0.0000 -35.6022 0.0000 0.0000
# 5 0.0000 0.0000 0.0000 0.0000 6.3170 0.0000
# 6 0.0000 0.0000 0.0000 0.0000 0.0000 5.0066
#
#
#
# Elastic Compliance Matrix: (Units=1/GPa)
#
#
# Indices 1 2 3 4 5 6 
#
# 1 0.011024 0.000000 -0.001400 0.000000 0.000000 0.000000
# 2 0.000000 0.012900 -0.001754 0.000000 0.000000 0.000000
# 3 -0.001400 -0.001754 0.012292 0.000000 0.000000 0.000000
# 4 0.000000 0.000000 0.000000 -0.028088 0.000000 0.000000
# 5 0.000000 0.000000 0.000000 0.000000 0.158304 0.000000
# 6 0.000000 0.000000 0.000000 0.000000 0.000000 0.199736
#
#
# Mechanical properties :
#
#
# Convention : Reuss Voigt Hill
#
# Bulk Modulus (GPa) = 33.43459 33.61471 33.52465
# Shear Modulus (GPa) = 13.07376 10.59444 11.83410
#
# Velocity S-wave (km/s) = 2.55927 2.30385 2.43491
# Velocity P-wave (km/s) = 5.04813 4.89058 4.96998
#
# Compressibility (1/GPa) = 0.02990915
#
# Stress axis : x y z
#
# Youngs Moduli (GPa) = 90.70839 77.51989 81.35146
#
# Poissons Ratio (x) = -0.00002 0.11388
# Poissons Ratio (y) = -0.00003 0.14271
# Poissons Ratio (z) = 0.12698 0.13598
#
# Static dielectric constant tensor:
#      x y z
#    x 1.758260 0.000000 0.000000 
#    y 0.000000 1.716870 0.000000 
#    z 0.000000 0.000000 1.779620 
# 
# From -- ./inp_files/10344.got.cif
#   From: 2010.05.17/outbox.cif.g08.bks.cpg/sg64_6_cif.got.tgz:10344.got - 2010.06.03 16:29:19.
