data_PCOD9477876
_publ_section_title
;
Structure prediction by ZEFSAII (Michael W. Deem and Ramdas Pophale) SiO2 
 PCOD9477876
Probable space group: C M C A
;
_chemical_formula_sum "Si O2"
_cell_formula_units_Z 112
_cell_length_a 18.327887
_cell_length_b 20.621633
_cell_length_c 15.843267
_cell_angle_alpha 90.000000
_cell_angle_beta 90.000000
_cell_angle_gamma 90.000000
_cell_volume 5987.977962
_symmetry_space_group_name_H-M "C M C A"
_symmetry_group_IT_number 64
_symmetry_cell_setting 'orthorhombic'
loop_
_space_group_symop_operation_xyz
x,y,z
-x,1/2-y,1/2+z
x,-y,-z
-x,1/2+y,1/2-z
-x,-y,-z
x,1/2+y,1/2-z
-x,y,z
x,1/2-y,1/2+z
1/2+x,1/2+y,z
1/2-x,-y,1/2+z
1/2+x,1/2-y,-z
1/2-x,y,1/2-z
1/2-x,1/2-y,-z
1/2+x,y,1/2-z
1/2-x,1/2+y,z
1/2+x,-y,1/2+z
loop_
_atom_site_type_symbol
_atom_site_label
_atom_site_fract_x
_atom_site_fract_y
_atom_site_fract_z
Si Si1 0.155578 0.842163 0.672542
Si Si2 0.418232 0.862262 0.010524
Si Si3 0.784922 0.714173 0.623382
Si Si4 0.270778 0.440823 0.893075
Si Si5 0.775643 0.418888 0.085629
Si Si6 0.635207 0.226816 0.449459
Si Si7 0.583527 0.607314 0.159707
O O1 0.112765 0.852950 0.584306
O O2 0.177136 0.766333 0.685034
O O3 0.228539 0.884974 0.658285
O O4 0.106782 0.868243 0.747917
O O5 0.500000 0.888119 0.010653
O O6 0.359558 0.903644 0.062947
O O7 0.414715 0.790143 0.048706
O O8 0.759174 0.640410 0.638717
O O9 0.711395 0.750962 0.593286
O O10 0.840225 0.709783 0.544320
O O11 0.234073 0.510076 0.876838
O O12 0.355169 0.443820 0.868315
O O13 0.261928 0.422533 0.992186
O O14 0.597904 0.167850 0.402469
O O15 0.500000 0.586168 0.156593
#
# Coordination Sequence:
#
# PCOD9477876 Si02
#       7
#    16  16  16  16  16  16  16
#     4  10  20  33  56  78 109 147 187 220 271 332
#     4   9  17  32  53  84 117 137 171 232 282 316
#     4   9  15  32  57  82 102 140 186 234 258 317
#     4  10  19  35  55  79 107 142 186 231 262 327
#     4   9  18  33  58  81 103 140 192 225 268 328
#     4   9  16  29  53  83 109 137 175 222 273 318
#     4  12  22  33  53  81 112 145 179 226 278 328
#
# _framework density 18.704143999999999
#
# number of rings (size 3 to 8) (size 9 to 14) (size 15 to 20)
#    0.000    2.286    2.857    3.000    0.000    0.000 
#    0.000    7.857   12.571    0.000    0.000    0.000 
#    0.000    0.000    0.000    0.000    0.000    0.000 
#
# Total GULP energy -312219.711405 kJ/mol
# GULP energy per Si atom -5575.351989 kJ/mol
# Density = 1.866157 g / cm^3
# Si number density = 18.704144 Si / 1000 Ang^3
#
#
#
# Elastic Constant Matrix: (Units=GPa)
#
#
# Indices 1 2 3 4 5 6 
#
# 1 129.5481 36.9568 13.0945 0.0000 0.0000 0.0000
# 2 36.9568 102.9045 9.3738 0.0000 0.0000 0.0000
# 3 13.0945 9.3738 29.5175 0.0000 0.0000 0.0000
# 4 0.0000 0.0000 0.0000 -2.1569 0.0000 0.0000
# 5 0.0000 0.0000 0.0000 0.0000 17.6498 0.0000
# 6 0.0000 0.0000 0.0000 0.0000 0.0000 14.0455
#
#
#
# Elastic Compliance Matrix: (Units=1/GPa)
#
#
# Indices 1 2 3 4 5 6 
#
# 1 0.008852 -0.002905 -0.003004 0.000000 0.000000 0.000000
# 2 -0.002905 0.010961 -0.002192 0.000000 0.000000 0.000000
# 3 -0.003004 -0.002192 0.035907 0.000000 0.000000 0.000000
# 4 0.000000 0.000000 0.000000 -0.463630 0.000000 0.000000
# 5 0.000000 0.000000 0.000000 0.000000 0.056658 0.000000
# 6 0.000000 0.000000 0.000000 0.000000 0.000000 0.071197
#
#
# Mechanical properties :
#
#
# Convention : Reuss Voigt Hill
#
# Bulk Modulus (GPa) = 25.30576 42.31337 33.80956
# Shear Modulus (GPa) = -19.94569 19.41066 -0.26751
#
# Velocity S-wave (km/s) = -3.26909 3.22494 -0.37860
# Velocity P-wave (km/s) = 0.83089 6.04472 4.23369
#
# Compressibility (1/GPa) = 0.03951670
#
# Stress axis : x y z
#
# Youngs Moduli (GPa) = 112.97395 91.23408 27.84972
#
# Poissons Ratio (x) = 0.26506 0.08366
# Poissons Ratio (y) = 0.32822 0.06105
# Poissons Ratio (z) = 0.33939 0.19998
#
# Static dielectric constant tensor:
#      x y z
#    x 1.645680 0.000000 0.000000 
#    y 0.000000 1.664140 0.000000 
#    z 0.000000 0.000000 1.689140 
# 
# From -- ./inp_files/33610.got.cif
#   From: 2010.05.17/outbox.cif.g08.bks.cpg/sg64_17_cif.got.tgz:33610.got - 2010.06.03 16:29:19.
