data_PCOD9477990
_publ_section_title
;
Structure prediction by ZEFSAII (Michael W. Deem and Ramdas Pophale) SiO2 
 PCOD9477990
Probable space group: C M C A
;
_chemical_formula_sum "Si O2"
_cell_formula_units_Z 56
_cell_length_a 26.782641
_cell_length_b 5.320383
_cell_length_c 16.587006
_cell_angle_alpha 90.000000
_cell_angle_beta 90.000000
_cell_angle_gamma 90.000000
_cell_volume 2363.547305
_symmetry_space_group_name_H-M "C M C A"
_symmetry_group_IT_number 64
_symmetry_cell_setting 'orthorhombic'
loop_
_space_group_symop_operation_xyz
x,y,z
-x,1/2-y,1/2+z
x,-y,-z
-x,1/2+y,1/2-z
-x,-y,-z
x,1/2+y,1/2-z
-x,y,z
x,1/2-y,1/2+z
1/2+x,1/2+y,z
1/2-x,-y,1/2+z
1/2+x,1/2-y,-z
1/2-x,y,1/2-z
1/2-x,1/2-y,-z
1/2+x,y,1/2-z
1/2-x,1/2+y,z
1/2+x,-y,1/2+z
loop_
_atom_site_type_symbol
_atom_site_label
_atom_site_fract_x
_atom_site_fract_y
_atom_site_fract_z
Si Si1 0.000000 0.269081 0.196795
Si Si2 0.645532 0.261991 0.696498
Si Si3 0.193984 0.748616 0.035553
Si Si4 0.443674 0.440386 0.092016
O O1 0.952481 0.202187 0.141011
O O2 0.000000 0.533130 0.240534
O O3 0.646790 0.524231 0.743565
O O4 0.690508 0.251869 0.631506
O O5 0.596589 0.219346 0.640559
O O6 0.168888 0.500000 0.000000
O O7 0.250000 0.750000 0.000000
O O8 0.170849 0.000000 0.000000
O O9 0.500000 0.325642 0.092139
O O10 0.432677 0.500000 0.000000
#
# Coordination Sequence:
#
# PCOD9477990 Si02
#       4
#     8  16  16  16
#     4  10  19  36  57  84 120 164 216 272 320 362
#     4  12  25  42  68 103 137 174 226 287 342 401
#     4  10  22  45  71  95 130 177 218 272 341 413
#     4   9  21  41  64  94 134 187 231 270 333 405
#
# _framework density 23.693201999999999
#
# number of rings (size 3 to 8) (size 9 to 14) (size 15 to 20)
#    0.857    0.857    0.000    4.286    0.000    0.000 
#    0.000   22.857    0.000    0.000    0.000    0.000 
#    0.000    0.000    0.000    0.000    0.000    0.000 
#
# Total GULP energy -156437.312183 kJ/mol
# GULP energy per Si atom -5587.046864 kJ/mol
# Density = 2.363928 g / cm^3
# Si number density = 23.693202 Si / 1000 Ang^3
#
#
#
# Elastic Constant Matrix: (Units=GPa)
#
#
# Indices 1 2 3 4 5 6 
#
# 1 115.2140 9.5353 53.6259 0.0000 0.0000 0.0000
# 2 9.5353 177.0997 80.9061 0.0000 0.0000 0.0000
# 3 53.6259 80.9061 205.3184 0.0000 0.0000 0.0000
# 4 0.0000 0.0000 0.0000 35.6167 0.0000 0.0000
# 5 0.0000 0.0000 0.0000 0.0000 46.4806 0.0000
# 6 0.0000 0.0000 0.0000 0.0000 0.0000 -5.6310
#
#
#
# Elastic Compliance Matrix: (Units=1/GPa)
#
#
# Indices 1 2 3 4 5 6 
#
# 1 0.009972 0.000796 -0.002918 0.000000 0.000000 0.000000
# 2 0.000796 0.006950 -0.002947 0.000000 0.000000 0.000000
# 3 -0.002918 -0.002947 0.006794 0.000000 0.000000 0.000000
# 4 0.000000 0.000000 0.000000 0.028077 0.000000 0.000000
# 5 0.000000 0.000000 0.000000 0.000000 0.021514 0.000000
# 6 0.000000 0.000000 0.000000 0.000000 0.000000 -0.177587
#
#
# Mechanical properties :
#
#
# Convention : Reuss Voigt Hill
#
# Bulk Modulus (GPa) = 73.64659 87.30743 80.47701
# Shear Modulus (GPa) = -55.79281 38.86424 -8.46429
#
# Velocity S-wave (km/s) = -4.85790 4.05447 -1.89214
# Velocity P-wave (km/s) = 0.56091 7.67121 5.40984
#
# Compressibility (1/GPa) = 0.01357836
#
# Stress axis : x y z
#
# Youngs Moduli (GPa) = 100.28185 143.88988 147.19340
#
# Poissons Ratio (x) = -0.11458 0.42955
# Poissons Ratio (y) = -0.07985 0.43371
# Poissons Ratio (z) = 0.29265 0.42398
#
# Static dielectric constant tensor:
#      x y z
#    x 1.236160 0.000000 0.000000 
#    y 0.000000 1.936590 0.000000 
#    z 0.000000 0.000000 1.916500 
# 
# From -- ./inp_files/28219.got.cif
#   From: 2010.05.17/outbox.cif.g08.bks.cpg/sg64_15_cif.got.tgz:28219.got - 2010.06.03 16:29:19.
