data_PCOD9477243
_publ_section_title
;
Structure prediction by ZEFSAII (Michael W. Deem and Ramdas Pophale) SiO2 
 PCOD9477243
Probable space group: C M C A
;
_chemical_formula_sum "Si O2"
_cell_formula_units_Z 96
_cell_length_a 9.034975
_cell_length_b 20.594420
_cell_length_c 30.659129
_cell_angle_alpha 90.000000
_cell_angle_beta 90.000000
_cell_angle_gamma 90.000000
_cell_volume 5704.746274
_symmetry_space_group_name_H-M "C M C A"
_symmetry_group_IT_number 64
_symmetry_cell_setting 'orthorhombic'
loop_
_space_group_symop_operation_xyz
x,y,z
-x,1/2-y,1/2+z
x,-y,-z
-x,1/2+y,1/2-z
-x,-y,-z
x,1/2+y,1/2-z
-x,y,z
x,1/2-y,1/2+z
1/2+x,1/2+y,z
1/2-x,-y,1/2+z
1/2+x,1/2-y,-z
1/2-x,y,1/2-z
1/2-x,1/2-y,-z
1/2+x,y,1/2-z
1/2-x,1/2+y,z
1/2+x,-y,1/2+z
loop_
_atom_site_type_symbol
_atom_site_label
_atom_site_fract_x
_atom_site_fract_y
_atom_site_fract_z
Si Si1 0.179109 0.388478 0.889729
Si Si2 0.175562 0.311130 0.023922
Si Si3 0.171408 0.761349 0.205654
Si Si4 0.175128 0.752780 0.383185
Si Si5 0.325485 0.068878 0.476453
Si Si6 0.169967 0.396878 0.793675
O O1 0.242644 0.315240 0.893431
O O2 0.226554 0.414656 0.841918
O O3 0.000000 0.386068 0.890774
O O4 0.244277 0.428355 0.929854
O O5 0.194861 0.299605 0.075537
O O6 0.252505 0.375360 0.005958
O O7 0.000000 0.312489 0.014436
O O8 0.250000 0.250000 0.000000
O O9 0.250000 0.783730 0.250000
O O10 0.257168 0.779703 0.161666
O O11 0.174743 0.682163 0.206482
O O12 0.000000 0.780795 0.204166
O O13 0.000000 0.739961 0.377713
O O14 0.500000 0.082674 0.470392
O O15 0.309289 0.000000 0.500000
O O16 0.250000 0.419686 0.750000
O O17 0.000000 0.416842 0.790931
#
# Coordination Sequence:
#
# PCOD9477243 Si02
#       6
#    16  16  16  16  16  16
#     4  10  19  31  49  72 100 135 172 211 260 312
#     4  11  22  35  55  79 105 137 175 217 261 311
#     4   9  16  26  41  64  97 134 168 206 254 308
#     4  10  19  30  47  73 102 133 170 213 260 311
#     4  11  24  39  54  75 104 139 179 222 268 317
#     4   8  15  25  39  64  94 126 162 200 246 300
#
# _framework density 16.828092000000002
#
# number of rings (size 3 to 8) (size 9 to 14) (size 15 to 20)
#    0.000    2.167    1.667    3.500    0.000    8.000 
#    0.000    0.000    0.000    0.000    0.000    1.167 
#    0.000    5.333    0.000    0.000    0.000    0.000 
#
# Total GULP energy -267646.888393 kJ/mol
# GULP energy per Si atom -5575.976842 kJ/mol
# Density = 1.678979 g / cm^3
# Si number density = 16.828092 Si / 1000 Ang^3
#
#
#
# Elastic Constant Matrix: (Units=GPa)
#
#
# Indices 1 2 3 4 5 6 
#
# 1 115.2011 36.1439 87.8045 0.0000 0.0000 0.0000
# 2 36.1439 41.0889 34.7388 0.0000 0.0000 0.0000
# 3 87.8045 34.7388 166.4724 0.0000 0.0000 0.0000
# 4 0.0000 0.0000 0.0000 11.5872 0.0000 0.0000
# 5 0.0000 0.0000 0.0000 0.0000 35.1735 0.0000
# 6 0.0000 0.0000 0.0000 0.0000 0.0000 16.9778
#
#
#
# Elastic Compliance Matrix: (Units=1/GPa)
#
#
# Indices 1 2 3 4 5 6 
#
# 1 0.016806 -0.008850 -0.007017 0.000000 0.000000 0.000000
# 2 -0.008850 0.034212 -0.002471 0.000000 0.000000 0.000000
# 3 -0.007017 -0.002471 0.010224 0.000000 0.000000 0.000000
# 4 0.000000 0.000000 0.000000 0.086302 0.000000 0.000000
# 5 0.000000 0.000000 0.000000 0.000000 0.028431 0.000000
# 6 0.000000 0.000000 0.000000 0.000000 0.000000 0.058900
#
#
# Mechanical properties :
#
#
# Convention : Reuss Voigt Hill
#
# Bulk Modulus (GPa) = 40.70994 71.12632 55.91813
# Shear Modulus (GPa) = 17.87378 23.68605 20.77991
#
# Velocity S-wave (km/s) = 3.26258 3.75578 3.51783
# Velocity P-wave (km/s) = 6.19974 7.82087 7.05701
#
# Compressibility (1/GPa) = 0.02456403
#
# Stress axis : x y z
#
# Youngs Moduli (GPa) = 59.50408 29.22956 97.81108
#
# Poissons Ratio (x) = 0.25869 0.68635
# Poissons Ratio (y) = 0.52663 0.24171
# Poissons Ratio (z) = 0.41755 0.07223
#
# Static dielectric constant tensor:
#      x y z
#    x 1.574870 0.000000 0.000000 
#    y 0.000000 1.527530 0.000000 
#    z 0.000000 0.000000 1.600080 
# 
# From -- ./inp_files/48164.got.cif
#   From: 2010.05.17/outbox.cif.g08.bks.cpg/sg64_25_cif.got.tgz:48164.got - 2010.06.03 16:29:19.
