data_PCOD9477085
_publ_section_title
;
Structure prediction by ZEFSAII (Michael W. Deem and Ramdas Pophale) SiO2 
 PCOD9477085
Probable space group: C M C A
;
_chemical_formula_sum "Si O2"
_cell_formula_units_Z 88
_cell_length_a 17.398105
_cell_length_b 18.090133
_cell_length_c 13.334488
_cell_angle_alpha 90.000000
_cell_angle_beta 90.000000
_cell_angle_gamma 90.000000
_cell_volume 4196.817192
_symmetry_space_group_name_H-M "C M C A"
_symmetry_group_IT_number 64
_symmetry_cell_setting 'orthorhombic'
loop_
_space_group_symop_operation_xyz
x,y,z
-x,1/2-y,1/2+z
x,-y,-z
-x,1/2+y,1/2-z
-x,-y,-z
x,1/2+y,1/2-z
-x,y,z
x,1/2-y,1/2+z
1/2+x,1/2+y,z
1/2-x,-y,1/2+z
1/2+x,1/2-y,-z
1/2-x,y,1/2-z
1/2-x,1/2-y,-z
1/2+x,y,1/2-z
1/2-x,1/2+y,z
1/2+x,-y,1/2+z
loop_
_atom_site_type_symbol
_atom_site_label
_atom_site_fract_x
_atom_site_fract_y
_atom_site_fract_z
Si Si1 0.699523 0.120772 0.345151
Si Si2 0.715533 0.333234 0.470521
Si Si3 0.412753 0.264980 0.950507
Si Si4 0.587537 0.503751 0.878705
Si Si5 0.086532 0.325200 0.322695
Si Si6 0.750000 0.329810 0.250000
O O1 0.750000 0.143129 0.250000
O O2 0.757031 0.115843 0.439872
O O3 0.636242 0.180019 0.381263
O O4 0.652238 0.046352 0.328707
O O5 0.750000 0.250000 0.500000
O O6 0.626318 0.315029 0.458894
O O7 0.742731 0.361959 0.362438
O O8 0.500000 0.263526 0.918914
O O9 0.409626 0.296234 0.063626
O O10 0.500000 0.475875 0.862680
O O11 0.591199 0.586133 0.835007
O O12 0.599242 0.500000 0.000000
O O13 0.162835 0.296806 0.265084
O O14 0.000000 0.307128 0.284814
#
# Coordination Sequence:
#
# PCOD9477085 Si02
#       6
#    16  16  16  16  16   8
#     4  11  22  36  57  87 123 152 190 245 300 357
#     4  10  22  36  55  86 114 156 192 241 293 358
#     4  10  20  38  59  84 116 155 199 245 291 350
#     4  10  18  35  60  85 115 151 199 250 286 341
#     4  10  21  35  59  90 115 151 205 249 291 351
#     4  12  20  38  62  80 124 158 194 250 306 350
#
# _framework density 20.968271000000001
#
# number of rings (size 3 to 8) (size 9 to 14) (size 15 to 20)
#    0.000    1.636    5.455    0.545    6.364    0.727 
#    0.000    3.636    0.000    0.000    0.000    2.545 
#    0.000    0.000    0.000    0.000    0.000    0.000 
#
# Total GULP energy -245151.323341 kJ/mol
# GULP energy per Si atom -5571.620985 kJ/mol
# Density = 2.092055 g / cm^3
# Si number density = 20.968271 Si / 1000 Ang^3
#
#
#
# Elastic Constant Matrix: (Units=GPa)
#
#
# Indices 1 2 3 4 5 6 
#
# 1 191.6802 28.9235 52.9102 0.0000 0.0000 0.0000
# 2 28.9235 41.8714 12.8628 0.0000 0.0000 0.0000
# 3 52.9102 12.8628 136.2205 0.0000 0.0000 0.0000
# 4 0.0000 0.0000 0.0000 9.9909 0.0000 0.0000
# 5 0.0000 0.0000 0.0000 0.0000 34.9264 0.0000
# 6 0.0000 0.0000 0.0000 0.0000 0.0000 7.4387
#
#
#
# Elastic Compliance Matrix: (Units=1/GPa)
#
#
# Indices 1 2 3 4 5 6 
#
# 1 0.006368 -0.003747 -0.002119 0.000000 0.000000 0.000000
# 2 -0.003747 0.026802 -0.001075 0.000000 0.000000 0.000000
# 3 -0.002119 -0.001075 0.008266 0.000000 0.000000 0.000000
# 4 0.000000 0.000000 0.000000 0.100091 0.000000 0.000000
# 5 0.000000 0.000000 0.000000 0.000000 0.028632 0.000000
# 6 0.000000 0.000000 0.000000 0.000000 0.000000 0.134433
#
#
# Mechanical properties :
#
#
# Convention : Reuss Voigt Hill
#
# Bulk Modulus (GPa) = 36.29662 62.12948 49.21305
# Shear Modulus (GPa) = 15.25981 28.80956 22.03468
#
# Velocity S-wave (km/s) = 2.70062 3.71072 3.24521
# Velocity P-wave (km/s) = 5.20311 6.93208 6.12887
#
# Compressibility (1/GPa) = 0.02755078
#
# Stress axis : x y z
#
# Youngs Moduli (GPa) = 157.04722 37.31128 120.98083
#
# Poissons Ratio (x) = 0.13982 0.25641
# Poissons Ratio (y) = 0.58852 0.13008
# Poissons Ratio (z) = 0.33284 0.04012
#
# Static dielectric constant tensor:
#      x y z
#    x 1.842850 0.000000 0.000000 
#    y 0.000000 1.789000 0.000000 
#    z 0.000000 0.000000 1.781190 
# 
# From -- ./inp_files/16033.got.cif
#   From: 2010.05.17/outbox.cif.g08.bks.cpg/sg64_9_cif.got.tgz:16033.got - 2010.06.03 16:29:19.
