data_PCOD9477758
_publ_section_title
;
Structure prediction by ZEFSAII (Michael W. Deem and Ramdas Pophale) SiO2 
 PCOD9477758
Probable space group: C M C A
;
_chemical_formula_sum "Si O2"
_cell_formula_units_Z 80
_cell_length_a 14.991256
_cell_length_b 18.776449
_cell_length_c 14.105578
_cell_angle_alpha 90.000000
_cell_angle_beta 90.000000
_cell_angle_gamma 90.000000
_cell_volume 3970.474117
_symmetry_space_group_name_H-M "C M C A"
_symmetry_group_IT_number 64
_symmetry_cell_setting 'orthorhombic'
loop_
_space_group_symop_operation_xyz
x,y,z
-x,1/2-y,1/2+z
x,-y,-z
-x,1/2+y,1/2-z
-x,-y,-z
x,1/2+y,1/2-z
-x,y,z
x,1/2-y,1/2+z
1/2+x,1/2+y,z
1/2-x,-y,1/2+z
1/2+x,1/2-y,-z
1/2-x,y,1/2-z
1/2-x,1/2-y,-z
1/2+x,y,1/2-z
1/2-x,1/2+y,z
1/2+x,-y,1/2+z
loop_
_atom_site_type_symbol
_atom_site_label
_atom_site_fract_x
_atom_site_fract_y
_atom_site_fract_z
Si Si1 0.891936 0.509328 0.891006
Si Si2 0.606944 0.298420 0.901673
Si Si3 0.650912 0.656160 0.711091
Si Si4 0.898223 0.774548 0.106181
Si Si5 0.390253 0.134257 0.212927
O O1 0.860979 0.581686 0.841229
O O2 0.863486 0.440255 0.831540
O O3 0.000000 0.511489 0.891585
O O4 0.862678 0.500000 0.000000
O O5 0.500000 0.310406 0.904879
O O6 0.623907 0.219606 0.859858
O O7 0.640779 0.351923 0.820477
O O8 0.643744 0.301983 0.008431
O O9 0.750000 0.665363 0.750000
O O10 0.598304 0.668458 0.809283
O O11 0.858964 0.701940 0.150222
O O12 0.000000 0.755164 0.081460
O O13 0.500000 0.136419 0.212959
#
# Coordination Sequence:
#
# PCOD9477758 Si02
#       5
#    16  16  16  16  16
#     4  10  19  34  56  76  97 133 182 228 260 296
#     4   9  17  33  56  77  98 130 174 218 257 306
#     4  11  22  34  49  77 114 142 168 208 265 324
#     4   9  17  33  57  79  99 130 175 223 263 304
#     4   8  15  28  49  76  97 118 163 219 261 298
#
# _framework density 20.148727000000001
#
# number of rings (size 3 to 8) (size 9 to 14) (size 15 to 20)
#    0.000    2.600    0.000    4.200    0.000    4.000 
#    0.000    7.000    0.000    4.800    0.000    0.000 
#    0.000    0.000    0.000    0.000    0.000    0.000 
#
# Total GULP energy -223023.684808 kJ/mol
# GULP energy per Si atom -5575.592120 kJ/mol
# Density = 2.010287 g / cm^3
# Si number density = 20.148727 Si / 1000 Ang^3
#
#
#
# Elastic Constant Matrix: (Units=GPa)
#
#
# Indices 1 2 3 4 5 6 
#
# 1 20.8811 -21.7225 -10.4813 0.0000 0.0000 0.0000
# 2 -21.7225 82.5844 52.3061 0.0000 0.0000 0.0000
# 3 -10.4813 52.3061 164.4274 0.0000 0.0000 0.0000
# 4 0.0000 0.0000 0.0000 9.8263 0.0000 0.0000
# 5 0.0000 0.0000 0.0000 0.0000 0.4948 0.0000
# 6 0.0000 0.0000 0.0000 0.0000 0.0000 -30.8706
#
#
#
# Elastic Compliance Matrix: (Units=1/GPa)
#
#
# Indices 1 2 3 4 5 6 
#
# 1 0.066288 0.018484 -0.001654 0.000000 0.000000 0.000000
# 2 0.018484 0.020318 -0.005285 0.000000 0.000000 0.000000
# 3 -0.001654 -0.005285 0.007658 0.000000 0.000000 0.000000
# 4 0.000000 0.000000 0.000000 0.101767 0.000000 0.000000
# 5 0.000000 0.000000 0.000000 0.000000 2.020972 0.000000
# 6 0.000000 0.000000 0.000000 0.000000 0.000000 -0.032393
#
#
# Mechanical properties :
#
#
# Convention : Reuss Voigt Hill
#
# Bulk Modulus (GPa) = 8.52133 34.23307 21.37720
# Shear Modulus (GPa) = 2.27207 12.40947 7.34077
#
# Velocity S-wave (km/s) = 1.06306 2.48441 1.91081
# Velocity P-wave (km/s) = 2.39691 5.02562 3.93713
#
# Compressibility (1/GPa) = 0.11735257
#
# Stress axis : x y z
#
# Youngs Moduli (GPa) = 15.08562 49.21700 130.59043
#
# Poissons Ratio (x) = -0.90972 0.21605
# Poissons Ratio (y) = -0.27884 0.69020
# Poissons Ratio (z) = 0.02496 0.26012
#
# Static dielectric constant tensor:
#      x y z
#    x 210.715460 0.000000 0.000000 
#    y 0.000000 1.669080 0.000000 
#    z 0.000000 0.000000 1.752300 
# 
# From -- ./inp_files/25307.got.cif
#   From: 2010.05.17/outbox.cif.g08.bks.cpg/sg64_13_cif.got.tgz:25307.got - 2010.06.03 16:29:19.
