data_PCOD9477910
_publ_section_title
;
Structure prediction by ZEFSAII (Michael W. Deem and Ramdas Pophale) SiO2 
 PCOD9477910
Probable space group: C M C A
;
_chemical_formula_sum "Si O2"
_cell_formula_units_Z 80
_cell_length_a 26.618000
_cell_length_b 18.883046
_cell_length_c 8.255779
_cell_angle_alpha 90.000000
_cell_angle_beta 90.000000
_cell_angle_gamma 90.000000
_cell_volume 4149.593270
_symmetry_space_group_name_H-M "C M C A"
_symmetry_group_IT_number 64
_symmetry_cell_setting 'orthorhombic'
loop_
_space_group_symop_operation_xyz
x,y,z
-x,1/2-y,1/2+z
x,-y,-z
-x,1/2+y,1/2-z
-x,-y,-z
x,1/2+y,1/2-z
-x,y,z
x,1/2-y,1/2+z
1/2+x,1/2+y,z
1/2-x,-y,1/2+z
1/2+x,1/2-y,-z
1/2-x,y,1/2-z
1/2-x,1/2-y,-z
1/2+x,y,1/2-z
1/2-x,1/2+y,z
1/2+x,-y,1/2+z
loop_
_atom_site_type_symbol
_atom_site_label
_atom_site_fract_x
_atom_site_fract_y
_atom_site_fract_z
Si Si1 0.558700 0.348502 0.457603
Si Si2 0.836589 0.845093 0.872398
Si Si3 0.889330 0.729405 0.668283
Si Si4 0.259296 0.669505 0.558313
Si Si5 0.349373 0.924658 0.941133
O O1 0.500000 0.362405 0.464565
O O2 0.576546 0.314215 0.290128
O O3 0.576293 0.290080 0.589076
O O4 0.594951 0.414352 0.489449
O O5 0.845043 0.772765 0.763730
O O6 0.851904 0.907556 0.750126
O O7 0.867963 0.822686 0.031153
O O8 0.782511 0.866188 0.943090
O O9 0.250000 0.662239 0.750000
O O10 0.250000 0.750000 0.500000
O O11 0.312962 0.636098 0.514966
O O12 0.329481 0.000000 0.000000
#
# Coordination Sequence:
#
# PCOD9477910 Si02
#       5
#    16  16  16  16  16
#     4  10  19  35  59  84 114 148 190 244 296 344
#     4  10  19  35  58  83 118 149 183 231 289 349
#     4   9  18  34  59  92 115 141 186 243 297 342
#     4  12  22  36  61  89 116 148 189 236 291 349
#     4  11  25  40  55  81 116 157 199 236 285 348
#
# _framework density 19.278998999999999
#
# number of rings (size 3 to 8) (size 9 to 14) (size 15 to 20)
#    0.000    1.600    0.000    8.400    0.000    2.000 
#    0.000    4.000    0.000    1.200    0.000    0.000 
#    0.000    0.000    0.000    0.000    0.000    0.000 
#
# Total GULP energy -223076.800034 kJ/mol
# GULP energy per Si atom -5576.920001 kJ/mol
# Density = 1.923512 g / cm^3
# Si number density = 19.278999 Si / 1000 Ang^3
#
#
#
# Elastic Constant Matrix: (Units=GPa)
#
#
# Indices 1 2 3 4 5 6 
#
# 1 125.0897 24.9994 45.0182 0.0000 0.0000 0.0000
# 2 24.9994 67.7502 27.4809 0.0000 0.0000 0.0000
# 3 45.0182 27.4809 123.5242 0.0000 0.0000 0.0000
# 4 0.0000 0.0000 0.0000 11.0751 0.0000 0.0000
# 5 0.0000 0.0000 0.0000 0.0000 21.1233 0.0000
# 6 0.0000 0.0000 0.0000 0.0000 0.0000 14.3449
#
#
#
# Elastic Compliance Matrix: (Units=1/GPa)
#
#
# Indices 1 2 3 4 5 6 
#
# 1 0.009520 -0.002314 -0.002955 0.000000 0.000000 0.000000
# 2 -0.002314 0.016787 -0.002891 0.000000 0.000000 0.000000
# 3 -0.002955 -0.002891 0.009816 0.000000 0.000000 0.000000
# 4 0.000000 0.000000 0.000000 0.090293 0.000000 0.000000
# 5 0.000000 0.000000 0.000000 0.000000 0.047341 0.000000
# 6 0.000000 0.000000 0.000000 0.000000 0.000000 0.069711
#
#
# Mechanical properties :
#
#
# Convention : Reuss Voigt Hill
#
# Bulk Modulus (GPa) = 50.49971 56.81789 53.65880
# Shear Modulus (GPa) = 18.76957 23.89971 21.33464
#
# Velocity S-wave (km/s) = 3.12360 3.52472 3.33021
# Velocity P-wave (km/s) = 6.26580 6.78972 6.53301
#
# Compressibility (1/GPa) = 0.01980209
#
# Stress axis : x y z
#
# Youngs Moduli (GPa) = 105.04022 59.57059 101.87839
#
# Poissons Ratio (x) = 0.13787 0.30102
# Poissons Ratio (y) = 0.24310 0.29455
# Poissons Ratio (z) = 0.31036 0.17223
#
# Static dielectric constant tensor:
#      x y z
#    x 1.709240 0.000000 0.000000 
#    y 0.000000 1.700130 0.000000 
#    z 0.000000 0.000000 1.703250 
# 
# From -- ./inp_files/10228.got.cif
#   From: 2010.05.17/outbox.cif.g08.bks.cpg/sg64_6_cif.got.tgz:10228.got - 2010.06.03 16:29:19.
