data_PCOD9477148
_publ_section_title
;
Structure prediction by ZEFSAII (Michael W. Deem and Ramdas Pophale) SiO2 
 PCOD9477148
Probable space group: C M C A
;
_chemical_formula_sum "Si O2"
_cell_formula_units_Z 60
_cell_length_a 9.978073
_cell_length_b 10.672500
_cell_length_c 21.420688
_cell_angle_alpha 90.000000
_cell_angle_beta 90.000000
_cell_angle_gamma 90.000000
_cell_volume 2281.110145
_symmetry_space_group_name_H-M "C M C A"
_symmetry_group_IT_number 64
_symmetry_cell_setting 'orthorhombic'
loop_
_space_group_symop_operation_xyz
x,y,z
-x,1/2-y,1/2+z
x,-y,-z
-x,1/2+y,1/2-z
-x,-y,-z
x,1/2+y,1/2-z
-x,y,z
x,1/2-y,1/2+z
1/2+x,1/2+y,z
1/2-x,-y,1/2+z
1/2+x,1/2-y,-z
1/2-x,y,1/2-z
1/2-x,1/2-y,-z
1/2+x,y,1/2-z
1/2-x,1/2+y,z
1/2+x,-y,1/2+z
loop_
_atom_site_type_symbol
_atom_site_label
_atom_site_fract_x
_atom_site_fract_y
_atom_site_fract_z
Si Si1 0.000000 0.248952 0.444650
Si Si2 0.284318 0.703698 0.119351
Si Si3 0.500000 0.408915 0.225187
Si Si4 0.500000 0.978830 0.584364
Si Si5 0.250000 0.728285 0.250000
Si Si6 0.000000 0.920437 0.363100
Si Si7 0.500000 0.000000 0.000000
O O1 0.140742 0.231508 0.408786
O O2 0.000000 0.397756 0.456884
O O3 0.000000 0.153746 0.502678
O O4 0.367636 0.606038 0.078588
O O5 0.277148 0.647540 0.188975
O O6 0.370482 0.829935 0.130199
O O7 0.500000 0.474286 0.157781
O O8 0.627688 0.317330 0.230640
O O9 0.500000 0.479579 0.293179
O O10 0.000000 0.009651 0.422950
#
# Coordination Sequence:
#
# PCOD9477148 Si02
#       7
#     8  16   8   8   8   8   4
#     4  12  27  48  72 105 141 192 246 294 361 428
#     4  10  23  44  74 104 147 184 242 293 372 431
#     4  10  20  38  69 100 149 183 237 288 362 437
#     4  11  24  45  71 112 145 187 228 304 365 436
#     4  10  18  38  66 106 144 184 224 296 356 446
#     4   9  24  48  69 106 140 196 247 298 358 437
#     4  12  30  46  74 102 146 198 252 308 350 428
#
# _framework density 26.302982
#
# number of rings (size 3 to 8) (size 9 to 14) (size 15 to 20)
#    0.000    1.600    2.667    0.800    3.733    4.267 
#    0.000    1.333    0.000    0.000    0.000    0.000 
#    0.000    0.000    0.000    0.000    0.000    0.000 
#
# Total GULP energy -167603.140481 kJ/mol
# GULP energy per Si atom -5586.771349 kJ/mol
# Density = 2.624312 g / cm^3
# Si number density = 26.302982 Si / 1000 Ang^3
#
#
#
# Elastic Constant Matrix: (Units=GPa)
#
#
# Indices 1 2 3 4 5 6 
#
# 1 191.0932 39.0002 7.6353 0.0000 0.0000 0.0000
# 2 39.0002 93.9365 11.8668 0.0000 0.0000 0.0000
# 3 7.6353 11.8668 141.1802 0.0000 0.0000 0.0000
# 4 0.0000 0.0000 0.0000 59.1380 0.0000 0.0000
# 5 0.0000 0.0000 0.0000 0.0000 20.3213 0.0000
# 6 0.0000 0.0000 0.0000 0.0000 0.0000 8.1250
#
#
#
# Elastic Compliance Matrix: (Units=1/GPa)
#
#
# Indices 1 2 3 4 5 6 
#
# 1 0.005719 -0.002360 -0.000111 0.000000 0.000000 0.000000
# 2 -0.002360 0.011734 -0.000859 0.000000 0.000000 0.000000
# 3 -0.000111 -0.000859 0.007161 0.000000 0.000000 0.000000
# 4 0.000000 0.000000 0.000000 0.016910 0.000000 0.000000
# 5 0.000000 0.000000 0.000000 0.000000 0.049209 0.000000
# 6 0.000000 0.000000 0.000000 0.000000 0.000000 0.123076
#
#
# Mechanical properties :
#
#
# Convention : Reuss Voigt Hill
#
# Bulk Modulus (GPa) = 55.69634 60.35717 58.02675
# Shear Modulus (GPa) = 22.07948 42.03070 32.05509
#
# Velocity S-wave (km/s) = 2.90043 4.00177 3.49476
# Velocity P-wave (km/s) = 5.69540 6.65950 6.19623
#
# Compressibility (1/GPa) = 0.01795450
#
# Stress axis : x y z
#
# Youngs Moduli (GPa) = 174.84869 85.22263 139.63918
#
# Poissons Ratio (x) = 0.20117 0.01549
# Poissons Ratio (y) = 0.41273 0.11990
# Poissons Ratio (z) = 0.01939 0.07317
#
# Static dielectric constant tensor:
#      x y z
#    x 2.010060 0.000000 0.000000 
#    y 0.000000 2.055330 0.000000 
#    z 0.000000 0.000000 2.163590 
# 
# From -- ./inp_files/47508.got.cif
#   From: 2010.05.17/outbox.cif.g08.bks.cpg/sg64_24_cif.got.tgz:47508.got - 2010.06.03 16:29:19.
