data_PCOD9477406
_publ_section_title
;
Structure prediction by ZEFSAII (Michael W. Deem and Ramdas Pophale) SiO2 
 PCOD9477406
Probable space group: C M C A
;
_chemical_formula_sum "Si O2"
_cell_formula_units_Z 96
_cell_length_a 8.756093
_cell_length_b 28.173339
_cell_length_c 22.529028
_cell_angle_alpha 90.000000
_cell_angle_beta 90.000000
_cell_angle_gamma 90.000000
_cell_volume 5557.649339
_symmetry_space_group_name_H-M "C M C A"
_symmetry_group_IT_number 64
_symmetry_cell_setting 'orthorhombic'
loop_
_space_group_symop_operation_xyz
x,y,z
-x,1/2-y,1/2+z
x,-y,-z
-x,1/2+y,1/2-z
-x,-y,-z
x,1/2+y,1/2-z
-x,y,z
x,1/2-y,1/2+z
1/2+x,1/2+y,z
1/2-x,-y,1/2+z
1/2+x,1/2-y,-z
1/2-x,y,1/2-z
1/2-x,1/2-y,-z
1/2+x,y,1/2-z
1/2-x,1/2+y,z
1/2+x,-y,1/2+z
loop_
_atom_site_type_symbol
_atom_site_label
_atom_site_fract_x
_atom_site_fract_y
_atom_site_fract_z
Si Si1 0.821882 0.479174 0.067436
Si Si2 0.822663 0.138688 0.188252
Si Si3 0.176858 0.752892 0.313223
Si Si4 0.319420 0.919452 0.913853
Si Si5 0.321067 0.885108 0.464233
Si Si6 0.183469 0.281807 0.054605
O O1 0.780006 0.526283 0.103981
O O2 0.728069 0.431021 0.074452
O O3 0.000000 0.467750 0.076228
O O4 0.806633 0.500000 0.000000
O O5 0.750000 0.123269 0.250000
O O6 0.816882 0.195707 0.185943
O O7 0.719881 0.116463 0.137610
O O8 0.000000 0.124592 0.182102
O O9 0.250000 0.768280 0.250000
O O10 0.238278 0.768141 0.378350
O O11 0.000000 0.767890 0.311352
O O12 0.500000 0.919035 0.929221
O O13 0.221851 0.902380 0.969776
O O14 0.500000 0.875784 0.458499
O O15 0.229535 0.836711 0.453549
O O16 0.000000 0.275930 0.053011
O O17 0.250000 0.250000 0.000000
#
# Coordination Sequence:
#
# PCOD9477406 Si02
#       6
#    16  16  16  16  16  16
#     4   8  16  31  49  70  97 129 163 200 248 303
#     4  10  19  32  50  74 102 131 167 207 251 307
#     4   9  20  36  54  75 101 136 175 212 254 308
#     4  10  19  32  51  74 101 133 167 208 258 304
#     4  11  21  32  49  75 104 135 170 207 253 308
#     4  11  22  36  54  79 109 139 174 219 267 311
#
# _framework density 17.273489999999999
#
# number of rings (size 3 to 8) (size 9 to 14) (size 15 to 20)
#    0.000    2.167    0.000    5.000    0.000    7.000 
#    0.000    0.000    0.000    1.000    0.000    4.667 
#    0.000    0.000    0.000    0.000    0.000    0.000 
#
# Total GULP energy -267349.102477 kJ/mol
# GULP energy per Si atom -5569.772968 kJ/mol
# Density = 1.723417 g / cm^3
# Si number density = 17.273490 Si / 1000 Ang^3
#
#
#
# Elastic Constant Matrix: (Units=GPa)
#
#
# Indices 1 2 3 4 5 6 
#
# 1 48.8833 18.7019 19.1667 0.0000 0.0000 0.0000
# 2 18.7019 52.0185 22.5827 0.0000 0.0000 0.0000
# 3 19.1667 22.5827 81.3323 0.0000 0.0000 0.0000
# 4 0.0000 0.0000 0.0000 -2.9411 0.0000 0.0000
# 5 0.0000 0.0000 0.0000 0.0000 25.4713 0.0000
# 6 0.0000 0.0000 0.0000 0.0000 0.0000 21.7679
#
#
#
# Elastic Compliance Matrix: (Units=1/GPa)
#
#
# Indices 1 2 3 4 5 6 
#
# 1 0.024720 -0.007230 -0.003818 0.000000 0.000000 0.000000
# 2 -0.007230 0.023973 -0.004953 0.000000 0.000000 0.000000
# 3 -0.003818 -0.004953 0.014570 0.000000 0.000000 0.000000
# 4 0.000000 0.000000 0.000000 -0.340010 0.000000 0.000000
# 5 0.000000 0.000000 0.000000 0.000000 0.039260 0.000000
# 6 0.000000 0.000000 0.000000 0.000000 0.000000 0.045939
#
#
# Mechanical properties :
#
#
# Convention : Reuss Voigt Hill
#
# Bulk Modulus (GPa) = 31.98743 33.68186 32.83464
# Shear Modulus (GPa) = -33.52874 16.97847 -8.27514
#
# Velocity S-wave (km/s) = -4.41052 3.13856 -2.19113
# Velocity P-wave (km/s) = 2.71633 5.71625 3.55648
#
# Compressibility (1/GPa) = 0.03126228
#
# Stress axis : x y z
#
# Youngs Moduli (GPa) = 40.45315 41.71306 68.63355
#
# Poissons Ratio (x) = 0.30158 0.26205
# Poissons Ratio (y) = 0.29247 0.33992
# Poissons Ratio (z) = 0.15445 0.20659
#
# Static dielectric constant tensor:
#      x y z
#    x 1.598720 0.000000 0.000000 
#    y 0.000000 1.600280 0.000000 
#    z 0.000000 0.000000 1.560660 
# 
# From -- ./inp_files/37110.got.cif
#   From: 2010.05.17/outbox.cif.g08.bks.cpg/sg64_19_cif.got.tgz:37110.got - 2010.06.03 16:29:19.
