data_PCOD9477311
_publ_section_title
;
Structure prediction by ZEFSAII (Michael W. Deem and Ramdas Pophale) SiO2 
 PCOD9477311
Probable space group: C M C A
;
_chemical_formula_sum "Si O2"
_cell_formula_units_Z 96
_cell_length_a 8.700212
_cell_length_b 30.366818
_cell_length_c 21.319887
_cell_angle_alpha 90.000000
_cell_angle_beta 90.000000
_cell_angle_gamma 90.000000
_cell_volume 5632.666269
_symmetry_space_group_name_H-M "C M C A"
_symmetry_group_IT_number 64
_symmetry_cell_setting 'orthorhombic'
loop_
_space_group_symop_operation_xyz
x,y,z
-x,1/2-y,1/2+z
x,-y,-z
-x,1/2+y,1/2-z
-x,-y,-z
x,1/2+y,1/2-z
-x,y,z
x,1/2-y,1/2+z
1/2+x,1/2+y,z
1/2-x,-y,1/2+z
1/2+x,1/2-y,-z
1/2-x,y,1/2-z
1/2-x,1/2-y,-z
1/2+x,y,1/2-z
1/2-x,1/2+y,z
1/2+x,-y,1/2+z
loop_
_atom_site_type_symbol
_atom_site_label
_atom_site_fract_x
_atom_site_fract_y
_atom_site_fract_z
Si Si1 0.182185 0.748061 0.186499
Si Si2 0.185503 0.784515 0.051397
Si Si3 0.683991 0.943999 0.683996
Si Si4 0.316132 0.137683 0.019889
Si Si5 0.315516 0.462887 0.549083
Si Si6 0.182721 0.156013 0.154001
O O1 0.250000 0.768038 0.250000
O O2 0.233309 0.769520 0.121008
O O3 0.231764 0.697094 0.183564
O O4 0.000000 0.750708 0.189200
O O5 0.000000 0.784434 0.047577
O O6 0.250000 0.750000 0.000000
O O7 0.252321 0.832609 0.035946
O O8 0.500000 0.946519 0.684999
O O9 0.750000 0.961327 0.750000
O O10 0.744187 0.964953 0.618899
O O11 0.729061 0.892143 0.678992
O O12 0.500000 0.143732 0.026161
O O13 0.283890 0.085509 0.020031
O O14 0.230468 0.155720 0.081344
O O15 0.263101 0.500000 0.500000
O O16 0.500000 0.466630 0.556195
O O17 0.000000 0.161029 0.161365
#
# Coordination Sequence:
#
# PCOD9477311 Si02
#       6
#    16  16  16  16  16  16
#     4  11  23  35  49  71 101 138 178 220 264 310
#     4  11  22  35  53  76 104 139 180 218 258 309
#     4  10  20  32  49  76 107 140 173 211 261 317
#     4  10  19  32  53  79 105 136 174 216 262 312
#     4   9  19  36  57  80 107 138 174 218 268 320
#     4  10  19  31  49  73 104 139 173 210 255 310
#
# _framework density 17.043437999999998
#
# number of rings (size 3 to 8) (size 9 to 14) (size 15 to 20)
#    0.000    1.833    1.667    3.000    0.000    6.333 
#    0.000    0.000    0.000    1.000    0.000    2.333 
#    0.000    0.000    0.000    0.000    0.000    0.000 
#
# Total GULP energy -267830.552575 kJ/mol
# GULP energy per Si atom -5579.803179 kJ/mol
# Density = 1.700465 g / cm^3
# Si number density = 17.043438 Si / 1000 Ang^3
#
#
#
# Elastic Constant Matrix: (Units=GPa)
#
#
# Indices 1 2 3 4 5 6 
#
# 1 22.1994 14.2044 33.7795 0.0000 0.0000 0.0000
# 2 14.2044 58.0850 58.2858 0.0000 0.0000 0.0000
# 3 33.7795 58.2858 160.1212 0.0000 0.0000 0.0000
# 4 0.0000 0.0000 0.0000 12.4062 0.0000 0.0000
# 5 0.0000 0.0000 0.0000 0.0000 27.7897 0.0000
# 6 0.0000 0.0000 0.0000 0.0000 0.0000 19.5308
#
#
#
# Elastic Compliance Matrix: (Units=1/GPa)
#
#
# Indices 1 2 3 4 5 6 
#
# 1 0.066780 -0.003457 -0.012830 0.000000 0.000000 0.000000
# 2 -0.003457 0.027302 -0.009209 0.000000 0.000000 0.000000
# 3 -0.012830 -0.009209 0.012304 0.000000 0.000000 0.000000
# 4 0.000000 0.000000 0.000000 0.080605 0.000000 0.000000
# 5 0.000000 0.000000 0.000000 0.000000 0.035985 0.000000
# 6 0.000000 0.000000 0.000000 0.000000 0.000000 0.051201
#
#
# Mechanical properties :
#
#
# Convention : Reuss Voigt Hill
#
# Bulk Modulus (GPa) = 18.05195 50.32726 34.18960
# Shear Modulus (GPa) = 14.55036 20.88773 17.71904
#
# Velocity S-wave (km/s) = 2.92502 3.50460 3.22784
# Velocity P-wave (km/s) = 4.69280 6.78006 5.83059
#
# Compressibility (1/GPa) = 0.05539568
#
# Stress axis : x y z
#
# Youngs Moduli (GPa) = 14.97443 36.62676 81.27344
#
# Poissons Ratio (x) = 0.12660 1.04273
# Poissons Ratio (y) = 0.05176 0.74846
# Poissons Ratio (z) = 0.19212 0.33730
#
# Static dielectric constant tensor:
#      x y z
#    x 1.570060 0.000000 0.000000 
#    y 0.000000 1.575380 0.000000 
#    z 0.000000 0.000000 1.683950 
# 
# From -- ./inp_files/37103.got.cif
#   From: 2010.05.17/outbox.cif.g08.bks.cpg/sg64_19_cif.got.tgz:37103.got - 2010.06.03 16:29:19.
