data_PCOD9477233
_publ_section_title
;
Structure prediction by ZEFSAII (Michael W. Deem and Ramdas Pophale) SiO2 
 PCOD9477233
Probable space group: C M C A
;
_chemical_formula_sum "Si O2"
_cell_formula_units_Z 96
_cell_length_a 7.653479
_cell_length_b 31.289475
_cell_length_c 21.326637
_cell_angle_alpha 90.000000
_cell_angle_beta 90.000000
_cell_angle_gamma 90.000000
_cell_volume 5107.160990
_symmetry_space_group_name_H-M "C M C A"
_symmetry_group_IT_number 64
_symmetry_cell_setting 'orthorhombic'
loop_
_space_group_symop_operation_xyz
x,y,z
-x,1/2-y,1/2+z
x,-y,-z
-x,1/2+y,1/2-z
-x,-y,-z
x,1/2+y,1/2-z
-x,y,z
x,1/2-y,1/2+z
1/2+x,1/2+y,z
1/2-x,-y,1/2+z
1/2+x,1/2-y,-z
1/2-x,y,1/2-z
1/2-x,1/2-y,-z
1/2+x,y,1/2-z
1/2-x,1/2+y,z
1/2+x,-y,1/2+z
loop_
_atom_site_type_symbol
_atom_site_label
_atom_site_fract_x
_atom_site_fract_y
_atom_site_fract_z
Si Si1 0.296175 0.652171 0.838770
Si Si2 0.712842 0.365160 0.479531
Si Si3 0.707703 0.942260 0.318258
Si Si4 0.709906 0.784775 0.946174
Si Si5 0.210164 0.245269 0.817025
Si Si6 0.791953 0.460914 0.041315
O O1 0.500000 0.651412 0.820318
O O2 0.281174 0.652908 0.913729
O O3 0.217409 0.606472 0.819193
O O4 0.217256 0.696696 0.816266
O O5 0.500000 0.365211 0.477245
O O6 0.770390 0.331721 0.532280
O O7 0.773428 0.414357 0.481452
O O8 0.500000 0.939355 0.322985
O O9 0.750000 0.961455 0.250000
O O10 0.764808 0.964006 0.383456
O O11 0.500000 0.787044 0.942091
O O12 0.776671 0.769190 0.878794
O O13 0.750000 0.750000 0.000000
O O14 0.250000 0.265723 0.750000
O O15 0.000000 0.242255 0.823263
O O16 0.000000 0.460080 0.031684
O O17 0.720713 0.500000 0.000000
#
# Coordination Sequence:
#
# PCOD9477233 Si02
#       6
#    16  16  16  16  16  16
#     4   9  17  29  44  66  96 126 154 189 233 282
#     4   9  17  29  48  72  93 121 159 196 237 285
#     4  10  19  30  47  71 100 130 159 195 240 292
#     4  10  19  31  48  69  94 124 161 199 233 280
#     4  10  20  31  43  63  93 126 160 195 234 277
#     4   9  18  33  52  73  98 127 161 201 249 296
#
# _framework density 18.797135999999998
#
# number of rings (size 3 to 8) (size 9 to 14) (size 15 to 20)
#    0.000    2.500    1.667    1.000    0.000    2.333 
#    0.000    0.000    0.000    1.000    0.000    2.333 
#    0.000    0.000    0.000    0.000    0.000    0.000 
#
# Total GULP energy -267547.008596 kJ/mol
# GULP energy per Si atom -5573.896012 kJ/mol
# Density = 1.875435 g / cm^3
# Si number density = 18.797136 Si / 1000 Ang^3
#
#
#
# Elastic Constant Matrix: (Units=GPa)
#
#
# Indices 1 2 3 4 5 6 
#
# 1 35.7220 3.3415 -7.7694 0.0000 0.0000 0.0000
# 2 3.3415 95.7383 80.4972 0.0000 0.0000 0.0000
# 3 -7.7694 80.4972 163.6468 0.0000 0.0000 0.0000
# 4 0.0000 0.0000 0.0000 18.5484 0.0000 0.0000
# 5 0.0000 0.0000 0.0000 0.0000 22.2260 0.0000
# 6 0.0000 0.0000 0.0000 0.0000 0.0000 -54.5340
#
#
#
# Elastic Compliance Matrix: (Units=1/GPa)
#
#
# Indices 1 2 3 4 5 6 
#
# 1 0.029037 -0.003705 0.003201 0.000000 0.000000 0.000000
# 2 -0.003705 0.018285 -0.009170 0.000000 0.000000 0.000000
# 3 0.003201 -0.009170 0.010773 0.000000 0.000000 0.000000
# 4 0.000000 0.000000 0.000000 0.053913 0.000000 0.000000
# 5 0.000000 0.000000 0.000000 0.000000 0.044992 0.000000
# 6 0.000000 0.000000 0.000000 0.000000 0.000000 -0.018337
#
#
# Mechanical properties :
#
#
# Convention : Reuss Voigt Hill
#
# Bulk Modulus (GPa) = 25.80852 49.69397 37.75125
# Shear Modulus (GPa) = 29.25236 11.85059 20.55148
#
# Velocity S-wave (km/s) = 3.94917 2.51359 3.31014
# Velocity P-wave (km/s) = 5.87830 5.90920 5.89377
#
# Compressibility (1/GPa) = 0.03874689
#
# Stress axis : x y z
#
# Youngs Moduli (GPa) = 34.43921 54.69056 92.82109
#
# Poissons Ratio (x) = 0.20262 -0.29712
# Poissons Ratio (y) = 0.12759 0.85118
# Poissons Ratio (z) = -0.11024 0.50152
#
# Static dielectric constant tensor:
#      x y z
#    x 1.675140 0.000000 0.000000 
#    y 0.000000 1.675280 0.000000 
#    z 0.000000 0.000000 1.680510 
# 
# From -- ./inp_files/36957.got.cif
#   From: 2010.05.17/outbox.cif.g08.bks.cpg/sg64_19_cif.got.tgz:36957.got - 2010.06.03 16:29:19.
