data_PCOD9477864
_publ_section_title
;
Structure prediction by ZEFSAII (Michael W. Deem and Ramdas Pophale) SiO2 
 PCOD9477864
Probable space group: C M C A
;
_chemical_formula_sum "Si O2"
_cell_formula_units_Z 96
_cell_length_a 25.956038
_cell_length_b 26.101064
_cell_length_c 8.645452
_cell_angle_alpha 90.000000
_cell_angle_beta 90.000000
_cell_angle_gamma 90.000000
_cell_volume 5857.122628
_symmetry_space_group_name_H-M "C M C A"
_symmetry_group_IT_number 64
_symmetry_cell_setting 'orthorhombic'
loop_
_space_group_symop_operation_xyz
x,y,z
-x,1/2-y,1/2+z
x,-y,-z
-x,1/2+y,1/2-z
-x,-y,-z
x,1/2+y,1/2-z
-x,y,z
x,1/2-y,1/2+z
1/2+x,1/2+y,z
1/2-x,-y,1/2+z
1/2+x,1/2-y,-z
1/2-x,y,1/2-z
1/2-x,1/2-y,-z
1/2+x,y,1/2-z
1/2-x,1/2+y,z
1/2+x,-y,1/2+z
loop_
_atom_site_type_symbol
_atom_site_label
_atom_site_fract_x
_atom_site_fract_y
_atom_site_fract_z
Si Si1 0.372289 0.028814 0.353658
Si Si2 0.297912 0.615400 0.151804
Si Si3 0.704413 0.963518 0.137616
Si Si4 0.060821 0.443080 0.925012
Si Si5 0.149578 0.630926 0.029652
Si Si6 0.262624 0.694527 0.569114
O O1 0.332510 0.071093 0.419389
O O2 0.417005 0.051745 0.247959
O O3 0.394190 0.000000 0.500000
O O4 0.338157 0.993555 0.238663
O O5 0.250000 0.592811 0.250000
O O6 0.334609 0.636976 0.289342
O O7 0.272660 0.655017 0.032326
O O8 0.750000 0.948041 0.250000
O O9 0.681096 0.915206 0.050438
O O10 0.723530 0.000000 0.000000
O O11 0.000000 0.435358 0.935112
O O12 0.071825 0.500000 0.000000
O O13 0.092445 0.393260 0.987577
O O14 0.176809 0.680141 0.953596
O O15 0.250000 0.691819 0.750000
O O16 0.250000 0.750000 0.500000
#
# Coordination Sequence:
#
# PCOD9477864 Si02
#       6
#    16  16  16  16  16  16
#     4  11  21  30  48  75 110 146 190 226 274 320
#     4   9  19  33  46  70 104 144 175 222 266 327
#     4  12  21  30  45  75 110 148 186 216 264 326
#     4  10  19  36  55  74 107 151 194 236 275 319
#     4  10  19  35  51  75 106 140 189 221 270 329
#     4  11  23  37  55  80 112 144 181 221 280 341
#
# _framework density 16.3903
#
# number of rings (size 3 to 8) (size 9 to 14) (size 15 to 20)
#    0.000    1.500    5.000    3.000    9.333    0.333 
#    0.000    0.000    0.000    0.000    0.000   10.500 
#    0.000    0.000    0.000    0.000    0.000    0.000 
#
# Total GULP energy -267274.500407 kJ/mol
# GULP energy per Si atom -5568.218758 kJ/mol
# Density = 1.635299 g / cm^3
# Si number density = 16.390300 Si / 1000 Ang^3
#
#
#
# Elastic Constant Matrix: (Units=GPa)
#
#
# Indices 1 2 3 4 5 6 
#
# 1 101.8039 37.9184 30.4211 0.0000 0.0000 0.0000
# 2 37.9184 72.1281 25.0063 0.0000 0.0000 0.0000
# 3 30.4211 25.0063 86.2888 0.0000 0.0000 0.0000
# 4 0.0000 0.0000 0.0000 27.1881 0.0000 0.0000
# 5 0.0000 0.0000 0.0000 0.0000 16.5542 0.0000
# 6 0.0000 0.0000 0.0000 0.0000 0.0000 17.4916
#
#
#
# Elastic Compliance Matrix: (Units=1/GPa)
#
#
# Indices 1 2 3 4 5 6 
#
# 1 0.012816 -0.005749 -0.002852 0.000000 0.000000 0.000000
# 2 -0.005749 0.017991 -0.003187 0.000000 0.000000 0.000000
# 3 -0.002852 -0.003187 0.013518 0.000000 0.000000 0.000000
# 4 0.000000 0.000000 0.000000 0.036781 0.000000 0.000000
# 5 0.000000 0.000000 0.000000 0.000000 0.060408 0.000000
# 6 0.000000 0.000000 0.000000 0.000000 0.000000 0.057170
#
#
# Mechanical properties :
#
#
# Convention : Reuss Voigt Hill
#
# Bulk Modulus (GPa) = 48.19436 49.65693 48.92565
# Shear Modulus (GPa) = 21.81713 23.37178 22.59446
#
# Velocity S-wave (km/s) = 3.65238 3.78027 3.71688
# Velocity P-wave (km/s) = 6.87420 7.02967 6.95237
#
# Compressibility (1/GPa) = 0.02074931
#
# Stress axis : x y z
#
# Youngs Moduli (GPa) = 78.02508 55.58221 73.97410
#
# Poissons Ratio (x) = 0.31953 0.21101
# Poissons Ratio (y) = 0.44855 0.23577
# Poissons Ratio (z) = 0.22256 0.17715
#
# Static dielectric constant tensor:
#      x y z
#    x 1.562870 0.000000 0.000000 
#    y 0.000000 1.590380 0.000000 
#    z 0.000000 0.000000 1.569580 
# 
# From -- ./inp_files/9596.got.cif
#   From: 2010.05.17/outbox.cif.g08.bks.cpg/sg64_5_cif.got.tgz:9596.got - 2010.06.03 16:29:19.
