data_PCOD9477456
_publ_section_title
;
Structure prediction by ZEFSAII (Michael W. Deem and Ramdas Pophale) SiO2 
 PCOD9477456
Probable space group: C M C A
;
_chemical_formula_sum "Si O2"
_cell_formula_units_Z 80
_cell_length_a 8.566785
_cell_length_b 28.272623
_cell_length_c 18.565691
_cell_angle_alpha 90.000000
_cell_angle_beta 90.000000
_cell_angle_gamma 90.000000
_cell_volume 4496.712149
_symmetry_space_group_name_H-M "C M C A"
_symmetry_group_IT_number 64
_symmetry_cell_setting 'orthorhombic'
loop_
_space_group_symop_operation_xyz
x,y,z
-x,1/2-y,1/2+z
x,-y,-z
-x,1/2+y,1/2-z
-x,-y,-z
x,1/2+y,1/2-z
-x,y,z
x,1/2-y,1/2+z
1/2+x,1/2+y,z
1/2-x,-y,1/2+z
1/2+x,1/2-y,-z
1/2-x,y,1/2-z
1/2-x,1/2-y,-z
1/2+x,y,1/2-z
1/2-x,1/2+y,z
1/2+x,-y,1/2+z
loop_
_atom_site_type_symbol
_atom_site_label
_atom_site_fract_x
_atom_site_fract_y
_atom_site_fract_z
Si Si1 0.687664 0.351157 0.955517
Si Si2 0.687614 0.599752 0.827625
Si Si3 0.810310 0.550782 0.526345
Si Si4 0.186457 0.693749 0.900200
Si Si5 0.814052 0.209989 0.330709
O O1 0.500000 0.349269 0.952472
O O2 0.758527 0.332766 0.881486
O O3 0.736427 0.404420 0.977396
O O4 0.744057 0.317705 0.021065
O O5 0.500000 0.603739 0.826701
O O6 0.750000 0.585340 0.750000
O O7 0.733058 0.564104 0.891901
O O8 0.758096 0.650518 0.849664
O O9 0.752358 0.500000 0.500000
O O10 0.000000 0.549639 0.524310
O O11 0.248095 0.742418 0.867444
O O12 0.000000 0.694791 0.904434
O O13 0.750000 0.205911 0.250000
O O14 0.000000 0.212475 0.329097
#
# Coordination Sequence:
#
# PCOD9477456 Si02
#       5
#    16  16  16  16  16
#     4  10  20  36  57  81 108 139 177 218 263 314
#     4  10  19  32  52  79 109 138 173 218 269 319
#     4   8  16  33  57  80 103 136 176 217 263 316
#     4  11  21  35  55  79 108 141 178 217 261 312
#     4  12  24  38  54  76 108 144 182 219 261 310
#
# _framework density 17.790776000000001
#
# number of rings (size 3 to 8) (size 9 to 14) (size 15 to 20)
#    0.000    1.800    0.000    7.200    0.000    0.000 
#    0.000    1.000    0.000   24.000    0.000    0.000 
#    0.000    0.000    0.000    0.000    0.000    0.000 
#
# Total GULP energy -223449.270997 kJ/mol
# GULP energy per Si atom -5586.231775 kJ/mol
# Density = 1.775028 g / cm^3
# Si number density = 17.790776 Si / 1000 Ang^3
#
#
#
# Elastic Constant Matrix: (Units=GPa)
#
#
# Indices 1 2 3 4 5 6 
#
# 1 85.8570 21.6880 16.5326 0.0000 0.0000 0.0000
# 2 21.6880 112.7020 76.1560 0.0000 0.0000 0.0000
# 3 16.5326 76.1560 101.9871 0.0000 0.0000 0.0000
# 4 0.0000 0.0000 0.0000 15.6691 0.0000 0.0000
# 5 0.0000 0.0000 0.0000 0.0000 32.7753 0.0000
# 6 0.0000 0.0000 0.0000 0.0000 0.0000 15.2534
#
#
#
# Elastic Compliance Matrix: (Units=1/GPa)
#
#
# Indices 1 2 3 4 5 6 
#
# 1 0.012253 -0.002050 -0.000455 0.000000 0.000000 0.000000
# 2 -0.002050 0.018253 -0.013298 0.000000 0.000000 0.000000
# 3 -0.000455 -0.013298 0.019809 0.000000 0.000000 0.000000
# 4 0.000000 0.000000 0.000000 0.063820 0.000000 0.000000
# 5 0.000000 0.000000 0.000000 0.000000 0.030511 0.000000
# 6 0.000000 0.000000 0.000000 0.000000 0.000000 0.065559
#
#
# Mechanical properties :
#
#
# Convention : Reuss Voigt Hill
#
# Bulk Modulus (GPa) = 53.45244 58.81103 56.13173
# Shear Modulus (GPa) = 20.15749 25.15087 22.65418
#
# Velocity S-wave (km/s) = 3.36970 3.76400 3.57230
# Velocity P-wave (km/s) = 6.72682 7.21243 6.97385
#
# Compressibility (1/GPa) = 0.01870822
#
# Stress axis : x y z
#
# Youngs Moduli (GPa) = 81.61367 54.78518 50.48313
#
# Poissons Ratio (x) = 0.11232 0.02298
# Poissons Ratio (y) = 0.16733 0.67131
# Poissons Ratio (z) = 0.03716 0.72851
#
# Static dielectric constant tensor:
#      x y z
#    x 1.595870 0.000000 0.000000 
#    y 0.000000 1.596540 0.000000 
#    z 0.000000 0.000000 1.601040 
# 
# From -- ./inp_files/29771.got.cif
#   From: 2010.05.17/outbox.cif.g08.bks.cpg/sg64_15_cif.got.tgz:29771.got - 2010.06.03 16:29:19.
