data_PCOD9477195
_publ_section_title
;
Structure prediction by ZEFSAII (Michael W. Deem and Ramdas Pophale) SiO2 
 PCOD9477195
Probable space group: C M C A
;
_chemical_formula_sum "Si O2"
_cell_formula_units_Z 116
_cell_length_a 31.461125
_cell_length_b 8.417023
_cell_length_c 18.693271
_cell_angle_alpha 90.000000
_cell_angle_beta 90.000000
_cell_angle_gamma 90.000000
_cell_volume 4950.146638
_symmetry_space_group_name_H-M "C M C A"
_symmetry_group_IT_number 64
_symmetry_cell_setting 'orthorhombic'
loop_
_space_group_symop_operation_xyz
x,y,z
-x,1/2-y,1/2+z
x,-y,-z
-x,1/2+y,1/2-z
-x,-y,-z
x,1/2+y,1/2-z
-x,y,z
x,1/2-y,1/2+z
1/2+x,1/2+y,z
1/2-x,-y,1/2+z
1/2+x,1/2-y,-z
1/2-x,y,1/2-z
1/2-x,1/2-y,-z
1/2+x,y,1/2-z
1/2-x,1/2+y,z
1/2+x,-y,1/2+z
loop_
_atom_site_type_symbol
_atom_site_label
_atom_site_fract_x
_atom_site_fract_y
_atom_site_fract_z
Si Si1 0.734430 0.002417 0.170773
Si Si2 0.046957 0.306189 0.668583
Si Si3 0.881935 0.516795 0.595995
Si Si4 0.500000 0.500000 0.500000
Si Si5 0.814433 0.703344 0.366762
Si Si6 0.046442 0.225583 0.954958
Si Si7 0.155899 0.780454 0.704014
Si Si8 0.431338 0.939171 0.820220
O O1 0.750000 0.942368 0.250000
O O2 0.710732 0.868575 0.124470
O O3 0.777024 0.074848 0.139707
O O4 0.700608 0.144843 0.180387
O O5 0.079448 0.417230 0.628096
O O6 0.059961 0.123442 0.671924
O O7 0.047961 0.372264 0.748867
O O8 0.000000 0.322263 0.639626
O O9 0.847093 0.380792 0.578905
O O10 0.909037 0.633228 0.543673
O O11 0.859252 0.626566 0.658132
O O12 0.463082 0.638178 0.512626
O O13 0.838676 0.733051 0.290139
O O14 0.049820 0.334948 0.884109
O O15 0.000000 0.139826 0.949759
O O16 0.118668 0.905230 0.687411
#
# Coordination Sequence:
#
# PCOD9477195 Si02
#       8
#    16  16  16   4  16  16  16  16
#     4  10  19  29  45  62  97 145 191 213 245 285
#     4  12  23  32  45  71 108 146 171 218 243 316
#     4  11  21  31  50  71 106 135 184 217 265 305
#     4   8  20  40  68  74 100 120 184 230 296 334
#     4  11  19  30  42  66  97 140 180 215 244 297
#     4   9  19  37  58  78  95 135 173 232 271 338
#     4  10  19  30  43  66  96 138 178 219 245 293
#     4  11  21  33  48  72 107 139 185 212 263 301
#
# _framework density 23.43365
#
# number of rings (size 3 to 8) (size 9 to 14) (size 15 to 20)
#    0.414    1.103    1.379    7.862    0.000    0.000 
#    0.000    0.000    0.000    1.655    0.000    0.000 
#    0.000    9.931    0.000    0.000    0.000    1.931 
#
# Total GULP energy -323312.278955 kJ/mol
# GULP energy per Si atom -5574.349637 kJ/mol
# Density = 2.338031 g / cm^3
# Si number density = 23.433650 Si / 1000 Ang^3
#
#
#
# Elastic Constant Matrix: (Units=GPa)
#
#
# Indices 1 2 3 4 5 6 
#
# 1 185.4509 61.0277 24.9634 0.0000 0.0000 0.0000
# 2 61.0277 147.9700 31.2764 0.0000 0.0000 0.0000
# 3 24.9634 31.2764 51.8782 0.0000 0.0000 0.0000
# 4 0.0000 0.0000 0.0000 31.4015 0.0000 0.0000
# 5 0.0000 0.0000 0.0000 0.0000 9.6468 0.0000
# 6 0.0000 0.0000 0.0000 0.0000 0.0000 -34.1362
#
#
#
# Elastic Compliance Matrix: (Units=1/GPa)
#
#
# Indices 1 2 3 4 5 6 
#
# 1 0.006367 -0.002267 -0.001697 0.000000 0.000000 0.000000
# 2 -0.002267 0.008552 -0.004065 0.000000 0.000000 0.000000
# 3 -0.001697 -0.004065 0.022543 0.000000 0.000000 0.000000
# 4 0.000000 0.000000 0.000000 0.031846 0.000000 0.000000
# 5 0.000000 0.000000 0.000000 0.000000 0.103661 0.000000
# 6 0.000000 0.000000 0.000000 0.000000 0.000000 -0.029294
#
#
# Mechanical properties :
#
#
# Convention : Reuss Voigt Hill
#
# Bulk Modulus (GPa) = 46.71992 68.87043 57.79517
# Shear Modulus (GPa) = 29.96383 19.25120 24.60752
#
# Velocity S-wave (km/s) = 3.57972 2.86933 3.24403
# Velocity P-wave (km/s) = 6.08821 6.35852 6.22483
#
# Compressibility (1/GPa) = 0.02140415
#
# Stress axis : x y z
#
# Youngs Moduli (GPa) = 157.06597 116.92555 44.35926
#
# Poissons Ratio (x) = 0.26510 0.07527
# Poissons Ratio (y) = 0.35610 0.18033
# Poissons Ratio (z) = 0.26650 0.47532
#
# Static dielectric constant tensor:
#      x y z
#    x 1.896830 0.000000 0.000000 
#    y 0.000000 1.919260 0.000000 
#    z 0.000000 0.000000 2.012060 
# 
# From -- ./inp_files/51319.got.cif
#   From: 2010.05.17/outbox.cif.g08.bks.cpg/sg64_26_cif.got.tgz:51319.got - 2010.06.03 16:29:19.
