data_PCOD9477954
_publ_section_title
;
Structure prediction by ZEFSAII (Michael W. Deem and Ramdas Pophale) SiO2 
 PCOD9477954
Probable space group: C M C A
;
_chemical_formula_sum "Si O2"
_cell_formula_units_Z 80
_cell_length_a 11.424197
_cell_length_b 14.054914
_cell_length_c 24.025554
_cell_angle_alpha 90.000000
_cell_angle_beta 90.000000
_cell_angle_gamma 90.000000
_cell_volume 3857.689659
_symmetry_space_group_name_H-M "C M C A"
_symmetry_group_IT_number 64
_symmetry_cell_setting 'orthorhombic'
loop_
_space_group_symop_operation_xyz
x,y,z
-x,1/2-y,1/2+z
x,-y,-z
-x,1/2+y,1/2-z
-x,-y,-z
x,1/2+y,1/2-z
-x,y,z
x,1/2-y,1/2+z
1/2+x,1/2+y,z
1/2-x,-y,1/2+z
1/2+x,1/2-y,-z
1/2-x,y,1/2-z
1/2-x,1/2-y,-z
1/2+x,y,1/2-z
1/2-x,1/2+y,z
1/2+x,-y,1/2+z
loop_
_atom_site_type_symbol
_atom_site_label
_atom_site_fract_x
_atom_site_fract_y
_atom_site_fract_z
Si Si1 0.635092 0.161210 0.396127
Si Si2 0.865858 0.889287 0.015525
Si Si3 0.208292 0.452697 0.812867
Si Si4 0.628283 0.250359 0.715242
Si Si5 0.235260 0.359429 0.130175
O O1 0.500000 0.138136 0.401713
O O2 0.683786 0.158065 0.459049
O O3 0.690446 0.086212 0.353767
O O4 0.655536 0.265954 0.372414
O O5 0.784259 0.879266 0.068904
O O6 0.000000 0.855414 0.026721
O O7 0.872604 0.000000 0.000000
O O8 0.250000 0.473519 0.750000
O O9 0.128092 0.358795 0.807997
O O10 0.171515 0.550981 0.841550
O O11 0.500000 0.233833 0.741484
O O12 0.750000 0.246055 0.750000
O O13 0.653531 0.172799 0.667681
#
# Coordination Sequence:
#
# PCOD9477954 Si02
#       5
#    16  16  16  16  16
#     4  10  22  39  60  88 120 157 203 252 305 367
#     4  10  19  35  62  90 116 155 203 252 304 370
#     4  10  22  38  57  85 120 161 202 250 303 362
#     4  10  23  42  62  89 126 167 210 261 315 374
#     4  11  21  37  62  91 121 157 202 259 312 369
#
# _framework density 20.7378
#
# number of rings (size 3 to 8) (size 9 to 14) (size 15 to 20)
#    0.000    1.800    2.000    1.800    0.000    9.600 
#    0.000    4.000    0.000    0.600    0.000    0.000 
#    0.000    0.000    0.000    0.000    0.000    0.000 
#
# Total GULP energy -223017.180784 kJ/mol
# GULP energy per Si atom -5575.429520 kJ/mol
# Density = 2.069060 g / cm^3
# Si number density = 20.737800 Si / 1000 Ang^3
#
#
#
# Elastic Constant Matrix: (Units=GPa)
#
#
# Indices 1 2 3 4 5 6 
#
# 1 72.2917 -7.1617 32.7652 0.0000 0.0000 0.0000
# 2 -7.1617 81.4143 27.9276 0.0000 0.0000 0.0000
# 3 32.7652 27.9276 130.6921 0.0000 0.0000 0.0000
# 4 0.0000 0.0000 0.0000 42.5904 0.0000 0.0000
# 5 0.0000 0.0000 0.0000 0.0000 21.9130 0.0000
# 6 0.0000 0.0000 0.0000 0.0000 0.0000 -4.3388
#
#
#
# Elastic Compliance Matrix: (Units=1/GPa)
#
#
# Indices 1 2 3 4 5 6 
#
# 1 0.016282 0.003057 -0.004735 0.000000 0.000000 0.000000
# 2 0.003057 0.013828 -0.003721 0.000000 0.000000 0.000000
# 3 -0.004735 -0.003721 0.009634 0.000000 0.000000 0.000000
# 4 0.000000 0.000000 0.000000 0.023479 0.000000 0.000000
# 5 0.000000 0.000000 0.000000 0.000000 0.045635 0.000000
# 6 0.000000 0.000000 0.000000 0.000000 0.000000 -0.230478
#
#
# Mechanical properties :
#
#
# Convention : Reuss Voigt Hill
#
# Bulk Modulus (GPa) = 34.54918 43.49559 39.02238
# Shear Modulus (GPa) = -49.42066 27.42405 -10.99830
#
# Velocity S-wave (km/s) = -4.88702 3.64045 -2.30543
# Velocity P-wave (km/s) = 3.89201 6.22014 3.43092
#
# Compressibility (1/GPa) = 0.02894425
#
# Stress axis : x y z
#
# Youngs Moduli (GPa) = 61.41850 72.31584 103.80047
#
# Poissons Ratio (x) = -0.22103 0.49150
# Poissons Ratio (y) = -0.18773 0.38627
# Poissons Ratio (z) = 0.29082 0.26910
#
# Static dielectric constant tensor:
#      x y z
#    x 1.731260 0.000000 0.000000 
#    y 0.000000 1.752710 0.000000 
#    z 0.000000 0.000000 1.805160 
# 
# From -- ./inp_files/43948.got.cif
#   From: 2010.05.17/outbox.cif.g08.bks.cpg/sg64_22_cif.got.tgz:43948.got - 2010.06.03 16:29:19.
