data_PCOD9477329
_publ_section_title
;
Structure prediction by ZEFSAII (Michael W. Deem and Ramdas Pophale) SiO2 
 PCOD9477329
Probable space group: C M C A
;
_chemical_formula_sum "Si O2"
_cell_formula_units_Z 116
_cell_length_a 7.568213
_cell_length_b 33.946436
_cell_length_c 23.469503
_cell_angle_alpha 90.000000
_cell_angle_beta 90.000000
_cell_angle_gamma 90.000000
_cell_volume 6029.640567
_symmetry_space_group_name_H-M "C M C A"
_symmetry_group_IT_number 64
_symmetry_cell_setting 'orthorhombic'
loop_
_space_group_symop_operation_xyz
x,y,z
-x,1/2-y,1/2+z
x,-y,-z
-x,1/2+y,1/2-z
-x,-y,-z
x,1/2+y,1/2-z
-x,y,z
x,1/2-y,1/2+z
1/2+x,1/2+y,z
1/2-x,-y,1/2+z
1/2+x,1/2-y,-z
1/2-x,y,1/2-z
1/2-x,1/2-y,-z
1/2+x,y,1/2-z
1/2-x,1/2+y,z
1/2+x,-y,1/2+z
loop_
_atom_site_type_symbol
_atom_site_label
_atom_site_fract_x
_atom_site_fract_y
_atom_site_fract_z
Si Si1 0.703466 0.688151 0.032466
Si Si2 0.792467 0.731382 0.919588
Si Si3 0.716979 0.597704 0.876751
Si Si4 0.284567 0.602838 0.008748
Si Si5 0.709631 0.178266 0.683229
Si Si6 0.790723 0.981649 0.184317
Si Si7 0.211815 0.975137 0.922433
Si Si8 0.500000 0.500000 0.500000
O O1 0.500000 0.683868 0.050700
O O2 0.778935 0.724558 0.068845
O O3 0.707727 0.702694 0.966701
O O4 0.781517 0.644534 0.033011
O O5 0.773112 0.713859 0.856895
O O6 0.000000 0.732231 0.934144
O O7 0.500000 0.597660 0.877175
O O8 0.771757 0.598546 0.943001
O O9 0.776202 0.637170 0.843903
O O10 0.779459 0.558986 0.843009
O O11 0.500000 0.603604 0.008127
O O12 0.234625 0.566157 0.048633
O O13 0.500000 0.177641 0.677306
O O14 0.750000 0.181656 0.750000
O O15 0.750000 0.986383 0.250000
O O16 0.000000 0.977414 0.180298
O O17 0.749096 0.018804 0.144065
O O18 0.000000 0.981558 0.932245
O O19 0.341190 0.005785 0.952628
#
# Coordination Sequence:
#
# PCOD9477329 Si02
#       8
#    16  16  16  16  16  16  16   4
#     4   9  17  32  55  77 104 141 175 216 270 324
#     4  10  19  31  49  79 108 137 178 219 265 322
#     4   9  17  30  51  77 104 141 181 220 270 330
#     4   9  16  33  57  80 109 143 180 226 282 340
#     4  11  21  34  51  71 104 144 181 216 262 319
#     4  10  21  37  56  77 107 148 193 237 281 338
#     4  10  22  38  58  85 115 151 194 239 293 346
#     4  12  22  36  60  86 120 148 186 238 300 350
#
# _framework density 19.238295000000001
#
# number of rings (size 3 to 8) (size 9 to 14) (size 15 to 20)
#    0.000    2.207    1.379    2.276    0.966    2.759 
#    1.241    0.690    0.000    0.828    0.000    1.931 
#    0.000    0.000    0.000    0.000    0.000    0.000 
#
# Total GULP energy -322939.189759 kJ/mol
# GULP energy per Si atom -5567.917065 kJ/mol
# Density = 1.919451 g / cm^3
# Si number density = 19.238295 Si / 1000 Ang^3
#
#
#
# Elastic Constant Matrix: (Units=GPa)
#
#
# Indices 1 2 3 4 5 6 
#
# 1 53.9038 3.9819 0.8542 0.0000 0.0000 0.0000
# 2 3.9819 125.3573 88.9244 0.0000 0.0000 0.0000
# 3 0.8542 88.9244 156.8603 0.0000 0.0000 0.0000
# 4 0.0000 0.0000 0.0000 24.1386 0.0000 0.0000
# 5 0.0000 0.0000 0.0000 0.0000 18.4230 0.0000
# 6 0.0000 0.0000 0.0000 0.0000 0.0000 2.9360
#
#
#
# Elastic Compliance Matrix: (Units=1/GPa)
#
#
# Indices 1 2 3 4 5 6 
#
# 1 0.018610 -0.000868 0.000391 0.000000 0.000000 0.000000
# 2 -0.000868 0.013383 -0.007582 0.000000 0.000000 0.000000
# 3 0.000391 -0.007582 0.010671 0.000000 0.000000 0.000000
# 4 0.000000 0.000000 0.000000 0.041427 0.000000 0.000000
# 5 0.000000 0.000000 0.000000 0.000000 0.054280 0.000000
# 6 0.000000 0.000000 0.000000 0.000000 0.000000 0.340600
#
#
# Mechanical properties :
#
#
# Convention : Reuss Voigt Hill
#
# Bulk Modulus (GPa) = 37.67228 58.18249 47.92739
# Shear Modulus (GPa) = 9.92181 25.25690 17.58936
#
# Velocity S-wave (km/s) = 2.27344 3.62725 3.02700
# Velocity P-wave (km/s) = 5.14935 6.91746 6.09783
#
# Compressibility (1/GPa) = 0.02654471
#
# Stress axis : x y z
#
# Youngs Moduli (GPa) = 53.73590 74.71893 93.70802
#
# Poissons Ratio (x) = 0.06489 -0.03664
# Poissons Ratio (y) = 0.04667 0.71053
# Poissons Ratio (z) = -0.02101 0.56655
#
# Static dielectric constant tensor:
#      x y z
#    x 1.733360 0.000000 0.000000 
#    y 0.000000 1.733660 0.000000 
#    z 0.000000 0.000000 1.716690 
# 
# From -- ./inp_files/43572.got.cif
#   From: 2010.05.17/outbox.cif.g08.bks.cpg/sg64_22_cif.got.tgz:43572.got - 2010.06.03 16:29:19.
