data_PCOD9477249
_publ_section_title
;
Structure prediction by ZEFSAII (Michael W. Deem and Ramdas Pophale) SiO2 
 PCOD9477249
Probable space group: C M C A
;
_chemical_formula_sum "Si O2"
_cell_formula_units_Z 96
_cell_length_a 8.257813
_cell_length_b 26.314720
_cell_length_c 24.265506
_cell_angle_alpha 90.000000
_cell_angle_beta 90.000000
_cell_angle_gamma 90.000000
_cell_volume 5272.943880
_symmetry_space_group_name_H-M "C M C A"
_symmetry_group_IT_number 64
_symmetry_cell_setting 'orthorhombic'
loop_
_space_group_symop_operation_xyz
x,y,z
-x,1/2-y,1/2+z
x,-y,-z
-x,1/2+y,1/2-z
-x,-y,-z
x,1/2+y,1/2-z
-x,y,z
x,1/2-y,1/2+z
1/2+x,1/2+y,z
1/2-x,-y,1/2+z
1/2+x,1/2-y,-z
1/2-x,y,1/2-z
1/2-x,1/2-y,-z
1/2+x,y,1/2-z
1/2-x,1/2+y,z
1/2+x,-y,1/2+z
loop_
_atom_site_type_symbol
_atom_site_label
_atom_site_fract_x
_atom_site_fract_y
_atom_site_fract_z
Si Si1 0.193304 0.095441 0.386174
Si Si2 0.812839 0.406246 0.382409
Si Si3 0.693745 0.001963 0.312813
Si Si4 0.814772 0.440042 0.004719
Si Si5 0.806578 0.193382 0.064887
Si Si6 0.803735 0.692085 0.562250
O O1 0.255717 0.054591 0.342332
O O2 0.252061 0.077892 0.446440
O O3 0.242737 0.154450 0.388845
O O4 0.000000 0.091989 0.385185
O O5 0.741189 0.451028 0.344146
O O6 0.798115 0.427212 0.444404
O O7 0.743924 0.349540 0.393161
O O8 0.000000 0.400190 0.365692
O O9 0.500000 0.999743 0.315400
O O10 0.750000 0.001729 0.250000
O O11 0.000000 0.420533 0.013750
O O12 0.827582 0.500000 0.000000
O O13 0.751161 0.250986 0.075146
O O14 0.000000 0.190897 0.064481
O O15 0.749972 0.181016 0.001440
O O16 0.000000 0.690084 0.561977
#
# Coordination Sequence:
#
# PCOD9477249 Si02
#       6
#    16  16  16  16  16  16
#     4  11  21  34  54  79 111 146 179 219 269 323
#     4  10  20  34  54  78 107 143 179 219 267 323
#     4  11  24  40  58  79 105 140 183 228 274 321
#     4  10  19  30  47  77 111 141 173 213 265 324
#     4  10  19  31  50  78 112 147 182 219 263 320
#     4   9  18  32  49  75 112 147 180 218 264 321
#
# _framework density 18.206150000000001
#
# number of rings (size 3 to 8) (size 9 to 14) (size 15 to 20)
#    0.000    1.833    3.333    1.500    0.000    3.000 
#    0.000    0.000    0.000    1.000    0.000    4.667 
#    0.000    0.000    0.000    0.000    0.000    0.000 
#
# Total GULP energy -267386.114117 kJ/mol
# GULP energy per Si atom -5570.544044 kJ/mol
# Density = 1.816471 g / cm^3
# Si number density = 18.206150 Si / 1000 Ang^3
#
#
#
# Elastic Constant Matrix: (Units=GPa)
#
#
# Indices 1 2 3 4 5 6 
#
# 1 20.5604 19.2929 13.9347 0.0000 0.0000 0.0000
# 2 19.2929 157.8928 71.9538 0.0000 0.0000 0.0000
# 3 13.9347 71.9538 95.1778 0.0000 0.0000 0.0000
# 4 0.0000 0.0000 0.0000 10.6512 0.0000 0.0000
# 5 0.0000 0.0000 0.0000 0.0000 30.9624 0.0000
# 6 0.0000 0.0000 0.0000 0.0000 0.0000 23.9932
#
#
#
# Elastic Compliance Matrix: (Units=1/GPa)
#
#
# Indices 1 2 3 4 5 6 
#
# 1 0.056246 -0.004760 -0.004636 0.000000 0.000000 0.000000
# 2 -0.004760 0.010065 -0.006912 0.000000 0.000000 0.000000
# 3 -0.004636 -0.006912 0.016411 0.000000 0.000000 0.000000
# 4 0.000000 0.000000 0.000000 0.093887 0.000000 0.000000
# 5 0.000000 0.000000 0.000000 0.000000 0.032297 0.000000
# 6 0.000000 0.000000 0.000000 0.000000 0.000000 0.041678
#
#
# Mechanical properties :
#
#
# Convention : Reuss Voigt Hill
#
# Bulk Modulus (GPa) = 19.95807 53.77708 36.86758
# Shear Modulus (GPa) = 16.67208 24.35133 20.51171
#
# Velocity S-wave (km/s) = 3.02940 3.66120 3.36018
# Velocity P-wave (km/s) = 4.81897 6.89017 5.94546
#
# Compressibility (1/GPa) = 0.05010504
#
# Stress axis : x y z
#
# Youngs Moduli (GPa) = 17.77910 99.35431 60.93460
#
# Poissons Ratio (x) = 0.47291 0.28252
# Poissons Ratio (y) = 0.08462 0.42119
# Poissons Ratio (z) = 0.08243 0.68676
#
# Static dielectric constant tensor:
#      x y z
#    x 1.665650 0.000000 0.000000 
#    y 0.000000 1.710040 0.000000 
#    z 0.000000 0.000000 1.606770 
# 
# From -- ./inp_files/37045.got.cif
#   From: 2010.05.17/outbox.cif.g08.bks.cpg/sg64_19_cif.got.tgz:37045.got - 2010.06.03 16:29:19.
