data_PCOD9477809
_publ_section_title
;
Structure prediction by ZEFSAII (Michael W. Deem and Ramdas Pophale) SiO2 
 PCOD9477809
Probable space group: C M C A
;
_chemical_formula_sum "Si O2"
_cell_formula_units_Z 112
_cell_length_a 15.835182
_cell_length_b 10.156708
_cell_length_c 29.179057
_cell_angle_alpha 90.000000
_cell_angle_beta 90.000000
_cell_angle_gamma 90.000000
_cell_volume 4692.964603
_symmetry_space_group_name_H-M "C M C A"
_symmetry_group_IT_number 64
_symmetry_cell_setting 'orthorhombic'
loop_
_space_group_symop_operation_xyz
x,y,z
-x,1/2-y,1/2+z
x,-y,-z
-x,1/2+y,1/2-z
-x,-y,-z
x,1/2+y,1/2-z
-x,y,z
x,1/2-y,1/2+z
1/2+x,1/2+y,z
1/2-x,-y,1/2+z
1/2+x,1/2-y,-z
1/2-x,y,1/2-z
1/2-x,1/2-y,-z
1/2+x,y,1/2-z
1/2-x,1/2+y,z
1/2+x,-y,1/2+z
loop_
_atom_site_type_symbol
_atom_site_label
_atom_site_fract_x
_atom_site_fract_y
_atom_site_fract_z
Si Si1 0.845203 0.076767 0.438863
Si Si2 0.593955 0.281440 0.208602
Si Si3 0.095889 0.208530 0.005610
Si Si4 0.149186 0.531446 0.240753
Si Si5 0.095903 0.907575 0.356649
Si Si6 0.329225 0.002972 0.563873
Si Si7 0.277328 0.798792 0.369906
O O1 0.882681 0.152145 0.482423
O O2 0.902473 0.998134 0.402795
O O3 0.767790 0.981954 0.451603
O O4 0.802326 0.192511 0.408152
O O5 0.500000 0.259622 0.189054
O O6 0.612274 0.176462 0.248468
O O7 0.603661 0.426872 0.227284
O O8 0.672040 0.258894 0.174835
O O9 0.000000 0.212014 0.019603
O O10 0.112204 0.102319 0.964850
O O11 0.144282 0.142735 0.048231
O O12 0.250000 0.525354 0.250000
O O13 0.121510 0.489597 0.188995
O O14 0.000000 0.855983 0.351491
O O15 0.177502 0.813192 0.362647
O O16 0.319656 0.060620 0.614737
#
# Coordination Sequence:
#
# PCOD9477809 Si02
#       7
#    16  16  16  16  16  16  16
#     4  10  20  36  62  86 120 162 213 252 318 383
#     4  12  25  43  67  97 129 168 218 268 327 397
#     4  10  19  34  58  89 123 160 205 259 313 375
#     4  12  25  44  68  94 129 168 212 272 329 389
#     4  11  22  41  63  88 121 163 212 263 318 386
#     4   9  19  34  55  86 120 157 200 254 308 370
#     4  10  22  38  60  90 121 167 206 263 321 384
#
# _framework density 23.865511000000001
#
# number of rings (size 3 to 8) (size 9 to 14) (size 15 to 20)
#    0.000    1.429    2.857    3.429    0.000    2.857 
#    0.000    1.429    0.000    0.000    0.000   16.000 
#    0.000    0.000    0.000    0.000    0.000    0.000 
#
# Total GULP energy -312636.810147 kJ/mol
# GULP energy per Si atom -5582.800181 kJ/mol
# Density = 2.381119 g / cm^3
# Si number density = 23.865511 Si / 1000 Ang^3
#
#
#
# Elastic Constant Matrix: (Units=GPa)
#
#
# Indices 1 2 3 4 5 6 
#
# 1 172.6170 28.9811 26.4027 0.0000 0.0000 0.0000
# 2 28.9811 37.7828 13.4082 0.0000 0.0000 0.0000
# 3 26.4027 13.4082 44.2920 0.0000 0.0000 0.0000
# 4 0.0000 0.0000 0.0000 31.4890 0.0000 0.0000
# 5 0.0000 0.0000 0.0000 0.0000 25.5253 0.0000
# 6 0.0000 0.0000 0.0000 0.0000 0.0000 8.9734
#
#
#
# Elastic Compliance Matrix: (Units=1/GPa)
#
#
# Indices 1 2 3 4 5 6 
#
# 1 0.006953 -0.004327 -0.002835 0.000000 0.000000 0.000000
# 2 -0.004327 0.032346 -0.007212 0.000000 0.000000 0.000000
# 3 -0.002835 -0.007212 0.026451 0.000000 0.000000 0.000000
# 4 0.000000 0.000000 0.000000 0.031757 0.000000 0.000000
# 5 0.000000 0.000000 0.000000 0.000000 0.039177 0.000000
# 6 0.000000 0.000000 0.000000 0.000000 0.000000 0.111441
#
#
# Mechanical properties :
#
#
# Convention : Reuss Voigt Hill
#
# Bulk Modulus (GPa) = 27.02652 43.58618 35.30635
# Shear Modulus (GPa) = 17.28863 25.59086 21.43975
#
# Velocity S-wave (km/s) = 2.69442 3.27814 3.00051
# Velocity P-wave (km/s) = 4.58574 5.71237 5.17978
#
# Compressibility (1/GPa) = 0.03700069
#
# Stress axis : x y z
#
# Youngs Moduli (GPa) = 143.81597 30.91587 37.80627
#
# Poissons Ratio (x) = 0.13379 0.10718
# Poissons Ratio (y) = 0.62236 0.27267
# Poissons Ratio (z) = 0.40770 0.22297
#
# Static dielectric constant tensor:
#      x y z
#    x 1.853180 0.000000 0.000000 
#    y 0.000000 2.049200 0.000000 
#    z 0.000000 0.000000 1.953160 
# 
# From -- ./inp_files/53295.got.cif
#   From: 2010.05.17/outbox.cif.g08.bks.cpg/sg64_27_cif.got.tgz:53295.got - 2010.06.03 16:29:19.
