data_PCOD9477513
_publ_section_title
;
Structure prediction by ZEFSAII (Michael W. Deem and Ramdas Pophale) SiO2 
 PCOD9477513
Probable space group: C M C A
;
_chemical_formula_sum "Si O2"
_cell_formula_units_Z 120
_cell_length_a 19.469692
_cell_length_b 11.740470
_cell_length_c 25.802378
_cell_angle_alpha 90.000000
_cell_angle_beta 90.000000
_cell_angle_gamma 90.000000
_cell_volume 5897.993610
_symmetry_space_group_name_H-M "C M C A"
_symmetry_group_IT_number 64
_symmetry_cell_setting 'orthorhombic'
loop_
_space_group_symop_operation_xyz
x,y,z
-x,1/2-y,1/2+z
x,-y,-z
-x,1/2+y,1/2-z
-x,-y,-z
x,1/2+y,1/2-z
-x,y,z
x,1/2-y,1/2+z
1/2+x,1/2+y,z
1/2-x,-y,1/2+z
1/2+x,1/2-y,-z
1/2-x,y,1/2-z
1/2-x,1/2-y,-z
1/2+x,y,1/2-z
1/2-x,1/2+y,z
1/2+x,-y,1/2+z
loop_
_atom_site_type_symbol
_atom_site_label
_atom_site_fract_x
_atom_site_fract_y
_atom_site_fract_z
Si Si1 0.577228 0.171391 0.323883
Si Si2 0.877383 0.183556 0.929697
Si Si3 0.075855 0.099248 0.819671
Si Si4 0.164868 0.311712 0.578355
Si Si5 0.110799 0.000000 0.000000
Si Si6 0.722858 0.085964 0.950593
Si Si7 0.326671 0.232166 0.228351
Si Si8 0.687613 0.886132 0.881649
O O1 0.500000 0.214412 0.316799
O O2 0.608738 0.212847 0.378067
O O3 0.625021 0.195944 0.275290
O O4 0.576066 0.034972 0.326090
O O5 0.911333 0.150110 0.875893
O O6 0.800017 0.132052 0.939109
O O7 0.862820 0.317485 0.920968
O O8 0.920830 0.109447 0.970700
O O9 0.140550 0.147136 0.788253
O O10 0.000000 0.134175 0.799676
O O11 0.146696 0.423705 0.545455
O O12 0.178858 0.201477 0.542663
O O13 0.235823 0.337683 0.608136
O O14 0.694061 0.015920 0.901055
O O15 0.721331 0.000000 0.000000
O O16 0.250000 0.239650 0.250000
O O17 0.329757 0.148394 0.177712
#
# Coordination Sequence:
#
# PCOD9477513 Si02
#       8
#    16  16  16  16   8  16  16  16
#     4  11  23  43  63  88 126 165 215 268 320 382
#     4  10  19  32  56  82 121 159 202 252 297 370
#     4  10  22  41  60  84 123 167 207 260 314 377
#     4  11  22  36  58  91 127 167 208 263 312 380
#     4  12  18  34  57  88 126 160 207 250 318 368
#     4  11  20  35  60  91 131 167 204 257 324 384
#     4  11  23  39  63  93 122 161 213 270 331 377
#     4  10  20  36  54  87 126 164 204 253 318 376
#
# _framework density 20.345901999999999
#
# number of rings (size 3 to 8) (size 9 to 14) (size 15 to 20)
#    0.000    1.333    4.667    1.200    0.000    3.733 
#    0.000    1.333    0.000    3.600    0.000    0.000 
#    0.000    0.000    0.000    0.000    0.000    0.000 
#
# Total GULP energy -334071.937434 kJ/mol
# GULP energy per Si atom -5567.865624 kJ/mol
# Density = 2.029959 g / cm^3
# Si number density = 20.345902 Si / 1000 Ang^3
#
#
#
# Elastic Constant Matrix: (Units=GPa)
#
#
# Indices 1 2 3 4 5 6 
#
# 1 88.9283 13.4018 31.1741 0.0000 0.0000 0.0000
# 2 13.4018 52.9600 11.3431 0.0000 0.0000 0.0000
# 3 31.1741 11.3431 73.0256 0.0000 0.0000 0.0000
# 4 0.0000 0.0000 0.0000 27.9869 0.0000 0.0000
# 5 0.0000 0.0000 0.0000 0.0000 16.4221 0.0000
# 6 0.0000 0.0000 0.0000 0.0000 0.0000 12.4299
#
#
#
# Elastic Compliance Matrix: (Units=1/GPa)
#
#
# Indices 1 2 3 4 5 6 
#
# 1 0.013479 -0.002253 -0.005404 0.000000 0.000000 0.000000
# 2 -0.002253 0.019909 -0.002130 0.000000 0.000000 0.000000
# 3 -0.005404 -0.002130 0.016332 0.000000 0.000000 0.000000
# 4 0.000000 0.000000 0.000000 0.035731 0.000000 0.000000
# 5 0.000000 0.000000 0.000000 0.000000 0.060894 0.000000
# 6 0.000000 0.000000 0.000000 0.000000 0.000000 0.080451
#
#
# Mechanical properties :
#
#
# Convention : Reuss Voigt Hill
#
# Bulk Modulus (GPa) = 33.17465 36.30577 34.74021
# Shear Modulus (GPa) = 19.49930 21.96742 20.73336
#
# Velocity S-wave (km/s) = 3.09915 3.28944 3.19571
# Velocity P-wave (km/s) = 5.39880 5.68421 5.54334
#
# Compressibility (1/GPa) = 0.03014350
#
# Stress axis : x y z
#
# Youngs Moduli (GPa) = 74.18930 50.22918 61.23052
#
# Poissons Ratio (x) = 0.11319 0.33089
# Poissons Ratio (y) = 0.16718 0.13045
# Poissons Ratio (z) = 0.40092 0.10701
#
# Static dielectric constant tensor:
#      x y z
#    x 1.788010 0.000000 0.000000 
#    y 0.000000 1.760750 0.000000 
#    z 0.000000 0.000000 1.812860 
# 
# From -- ./inp_files/50887.got.cif
#   From: 2010.05.17/outbox.cif.g08.bks.cpg/sg64_26_cif.got.tgz:50887.got - 2010.06.03 16:29:19.
