data_PCOD9477429
_publ_section_title
;
Structure prediction by ZEFSAII (Michael W. Deem and Ramdas Pophale) SiO2 
 PCOD9477429
Probable space group: C M C A
;
_chemical_formula_sum "Si O2"
_cell_formula_units_Z 96
_cell_length_a 8.674873
_cell_length_b 32.404740
_cell_length_c 19.548875
_cell_angle_alpha 90.000000
_cell_angle_beta 90.000000
_cell_angle_gamma 90.000000
_cell_volume 5495.325685
_symmetry_space_group_name_H-M "C M C A"
_symmetry_group_IT_number 64
_symmetry_cell_setting 'orthorhombic'
loop_
_space_group_symop_operation_xyz
x,y,z
-x,1/2-y,1/2+z
x,-y,-z
-x,1/2+y,1/2-z
-x,-y,-z
x,1/2+y,1/2-z
-x,y,z
x,1/2-y,1/2+z
1/2+x,1/2+y,z
1/2-x,-y,1/2+z
1/2+x,1/2-y,-z
1/2-x,y,1/2-z
1/2-x,1/2-y,-z
1/2+x,y,1/2-z
1/2-x,1/2+y,z
1/2+x,-y,1/2+z
loop_
_atom_site_type_symbol
_atom_site_label
_atom_site_fract_x
_atom_site_fract_y
_atom_site_fract_z
Si Si1 0.814610 0.953278 0.172306
Si Si2 0.815396 0.202472 0.426473
Si Si3 0.816804 0.131984 0.673251
Si Si4 0.685455 0.957527 0.672914
Si Si5 0.684103 0.797243 0.421840
Si Si6 0.814370 0.633076 0.327207
O O1 0.750000 0.954149 0.250000
O O2 0.746419 0.911216 0.142360
O O3 0.000000 0.950133 0.173833
O O4 0.769923 0.998055 0.141253
O O5 0.740499 0.195696 0.500717
O O6 0.777475 0.249543 0.404770
O O7 0.753380 0.169139 0.373398
O O8 0.000000 0.199574 0.432403
O O9 0.750000 0.136033 0.750000
O O10 0.763025 0.170407 0.628317
O O11 0.000000 0.129876 0.677364
O O12 0.500000 0.957877 0.676456
O O13 0.750000 0.957594 0.750000
O O14 0.730009 0.912687 0.644221
O O15 0.500000 0.802095 0.418182
O O16 0.750000 0.636134 0.250000
O O17 0.000000 0.635746 0.325411
#
# Coordination Sequence:
#
# PCOD9477429 Si02
#       6
#    16  16  16  16  16  16
#     4   9  15  26  44  68  99 132 166 203 245 292
#     4  10  21  37  56  77 100 130 168 207 251 305
#     4  11  21  33  51  77 106 134 168 209 253 297
#     4   8  15  26  43  68  98 132 167 202 242 291
#     4  10  21  38  57  75  98 131 169 207 251 304
#     4  10  19  32  51  77 107 137 170 209 252 294
#
# _framework density 17.469391999999999
#
# number of rings (size 3 to 8) (size 9 to 14) (size 15 to 20)
#    0.000    2.333    0.000    4.500    0.000    4.000 
#    0.000    0.000    0.000    1.000    0.000    7.000 
#    0.000    0.000    0.000    0.000    0.000    0.000 
#
# Total GULP energy -267465.913780 kJ/mol
# GULP energy per Si atom -5572.206537 kJ/mol
# Density = 1.742963 g / cm^3
# Si number density = 17.469392 Si / 1000 Ang^3
#
#
#
# Elastic Constant Matrix: (Units=GPa)
#
#
# Indices 1 2 3 4 5 6 
#
# 1 79.0062 65.1626 26.8408 0.0000 0.0000 0.0000
# 2 65.1626 187.7505 70.6028 0.0000 0.0000 0.0000
# 3 26.8408 70.6028 40.8602 0.0000 0.0000 0.0000
# 4 0.0000 0.0000 0.0000 -13.8848 0.0000 0.0000
# 5 0.0000 0.0000 0.0000 0.0000 25.5804 0.0000
# 6 0.0000 0.0000 0.0000 0.0000 0.0000 24.0582
#
#
#
# Elastic Compliance Matrix: (Units=1/GPa)
#
#
# Indices 1 2 3 4 5 6 
#
# 1 0.017854 -0.005100 -0.002915 0.000000 0.000000 0.000000
# 2 -0.005100 0.016665 -0.025445 0.000000 0.000000 0.000000
# 3 -0.002915 -0.025445 0.070356 0.000000 0.000000 0.000000
# 4 0.000000 0.000000 0.000000 -0.072021 0.000000 0.000000
# 5 0.000000 0.000000 0.000000 0.000000 0.039092 0.000000
# 6 0.000000 0.000000 0.000000 0.000000 0.000000 0.041566
#
#
# Mechanical properties :
#
#
# Convention : Reuss Voigt Hill
#
# Bulk Modulus (GPa) = 26.34829 70.31438 48.33134
# Shear Modulus (GPa) = 25.89538 16.81815 21.35676
#
# Velocity S-wave (km/s) = 3.85428 3.10614 3.50026
# Velocity P-wave (km/s) = 5.90953 7.29394 6.63793
#
# Compressibility (1/GPa) = 0.03795312
#
# Stress axis : x y z
#
# Youngs Moduli (GPa) = 56.00867 60.00624 14.21352
#
# Poissons Ratio (x) = 0.30606 0.04144
# Poissons Ratio (y) = 0.28567 0.36166
# Poissons Ratio (z) = 0.16329 1.52686
#
# Static dielectric constant tensor:
#      x y z
#    x 1.582570 0.000000 0.000000 
#    y 0.000000 1.654630 0.000000 
#    z 0.000000 0.000000 1.546950 
# 
# From -- ./inp_files/37072.got.cif
#   From: 2010.05.17/outbox.cif.g08.bks.cpg/sg64_19_cif.got.tgz:37072.got - 2010.06.03 16:29:19.
