data_PCOD9477728
_publ_section_title
;
Structure prediction by ZEFSAII (Michael W. Deem and Ramdas Pophale) SiO2 
 PCOD9477728
Probable space group: C M C A
;
_chemical_formula_sum "Si O2"
_cell_formula_units_Z 116
_cell_length_a 7.566635
_cell_length_b 26.561867
_cell_length_c 26.259568
_cell_angle_alpha 90.000000
_cell_angle_beta 90.000000
_cell_angle_gamma 90.000000
_cell_volume 5277.751768
_symmetry_space_group_name_H-M "C M C A"
_symmetry_group_IT_number 64
_symmetry_cell_setting 'orthorhombic'
loop_
_space_group_symop_operation_xyz
x,y,z
-x,1/2-y,1/2+z
x,-y,-z
-x,1/2+y,1/2-z
-x,-y,-z
x,1/2+y,1/2-z
-x,y,z
x,1/2-y,1/2+z
1/2+x,1/2+y,z
1/2-x,-y,1/2+z
1/2+x,1/2-y,-z
1/2-x,y,1/2-z
1/2-x,1/2-y,-z
1/2+x,y,1/2-z
1/2-x,1/2+y,z
1/2+x,-y,1/2+z
loop_
_atom_site_type_symbol
_atom_site_label
_atom_site_fract_x
_atom_site_fract_y
_atom_site_fract_z
Si Si1 0.297299 0.622949 0.459819
Si Si2 0.210763 0.480202 0.305880
Si Si3 0.705574 0.129806 0.676805
Si Si4 0.710445 0.240494 0.695294
Si Si5 0.000000 0.000000 0.000000
Si Si6 0.298231 0.272836 0.913921
Si Si7 0.783797 0.839588 0.435001
Si Si8 0.208194 0.983070 0.581490
O O1 0.500000 0.610499 0.469974
O O2 0.291533 0.676189 0.431443
O O3 0.215338 0.633108 0.514838
O O4 0.231471 0.575140 0.428739
O O5 0.250000 0.502958 0.250000
O O6 0.284732 0.422828 0.305723
O O7 0.274678 0.505215 0.358392
O O8 0.000000 0.477753 0.310762
O O9 0.500000 0.130049 0.691923
O O10 0.783160 0.183035 0.695070
O O11 0.720221 0.133631 0.615902
O O12 0.500000 0.238629 0.687096
O O13 0.750000 0.263420 0.750000
O O14 0.790254 0.268152 0.646969
O O15 0.842294 0.988693 0.043551
O O16 0.500000 0.276467 0.931279
O O17 0.226516 0.219225 0.934028
O O18 0.000000 0.838873 0.433839
O O19 0.000000 0.991424 0.568671
#
# Coordination Sequence:
#
# PCOD9477728 Si02
#       8
#    16  16  16  16   4  16  16  16
#     4  10  22  39  59  84 120 159 203 253 309 371
#     4  11  23  42  65  93 130 173 221 275 332 397
#     4   9  20  34  55  86 120 158 201 249 311 377
#     4  10  19  34  54  80 114 151 195 247 301 361
#     4  12  26  48  72  98 140 168 218 278 332 402
#     4  10  20  34  56  83 115 153 197 242 295 365
#     4   9  19  34  54  85 120 158 197 244 301 369
#     4  11  26  45  69 101 132 174 220 273 334 395
#
# _framework density 21.979054999999999
#
# number of rings (size 3 to 8) (size 9 to 14) (size 15 to 20)
#    0.000    1.931    0.690    2.276    2.897    2.759 
#    0.000    0.690    0.000    3.310    0.000    0.000 
#    0.000    0.000    0.000    0.000    0.000    0.000 
#
# Total GULP energy -323327.102036 kJ/mol
# GULP energy per Si atom -5574.605208 kJ/mol
# Density = 2.192903 g / cm^3
# Si number density = 21.979055 Si / 1000 Ang^3
#
#
#
# Elastic Constant Matrix: (Units=GPa)
#
#
# Indices 1 2 3 4 5 6 
#
# 1 102.9470 -2.8732 3.1870 0.0000 0.0000 0.0000
# 2 -2.8732 60.2784 34.5688 0.0000 0.0000 0.0000
# 3 3.1870 34.5688 144.7528 0.0000 0.0000 0.0000
# 4 0.0000 0.0000 0.0000 5.9351 0.0000 0.0000
# 5 0.0000 0.0000 0.0000 0.0000 27.1756 0.0000
# 6 0.0000 0.0000 0.0000 0.0000 0.0000 4.9206
#
#
#
# Elastic Compliance Matrix: (Units=1/GPa)
#
#
# Indices 1 2 3 4 5 6 
#
# 1 0.009744 0.000681 -0.000377 0.000000 0.000000 0.000000
# 2 0.000681 0.019270 -0.004617 0.000000 0.000000 0.000000
# 3 -0.000377 -0.004617 0.008019 0.000000 0.000000 0.000000
# 4 0.000000 0.000000 0.000000 0.168490 0.000000 0.000000
# 5 0.000000 0.000000 0.000000 0.000000 0.036798 0.000000
# 6 0.000000 0.000000 0.000000 0.000000 0.000000 0.203226
#
#
# Mechanical properties :
#
#
# Convention : Reuss Voigt Hill
#
# Bulk Modulus (GPa) = 35.20263 41.97149 38.58706
# Shear Modulus (GPa) = 10.78415 25.81263 18.29839
#
# Velocity S-wave (km/s) = 2.21748 3.43070 2.88850
# Velocity P-wave (km/s) = 4.75473 5.90174 5.35901
#
# Compressibility (1/GPa) = 0.02840697
#
# Stress axis : x y z
#
# Youngs Moduli (GPa) = 102.62294 51.89454 124.70074
#
# Poissons Ratio (x) = -0.03533 0.04703
# Poissons Ratio (y) = -0.06986 0.57573
# Poissons Ratio (z) = 0.03870 0.23959
#
# Static dielectric constant tensor:
#      x y z
#    x 1.840320 0.000000 0.000000 
#    y 0.000000 1.837880 0.000000 
#    z 0.000000 0.000000 1.812200 
# 
# From -- ./inp_files/43546.got.cif
#   From: 2010.05.17/outbox.cif.g08.bks.cpg/sg64_22_cif.got.tgz:43546.got - 2010.06.03 16:29:19.
