data_PCOD9477597
_publ_section_title
;
Structure prediction by ZEFSAII (Michael W. Deem and Ramdas Pophale) SiO2 
 PCOD9477597
Probable space group: C M C A
;
_chemical_formula_sum "Si O2"
_cell_formula_units_Z 52
_cell_length_a 24.795667
_cell_length_b 17.593697
_cell_length_c 5.007649
_cell_angle_alpha 90.000000
_cell_angle_beta 90.000000
_cell_angle_gamma 90.000000
_cell_volume 2184.574117
_symmetry_space_group_name_H-M "C M C A"
_symmetry_group_IT_number 64
_symmetry_cell_setting 'orthorhombic'
loop_
_space_group_symop_operation_xyz
x,y,z
-x,1/2-y,1/2+z
x,-y,-z
-x,1/2+y,1/2-z
-x,-y,-z
x,1/2+y,1/2-z
-x,y,z
x,1/2-y,1/2+z
1/2+x,1/2+y,z
1/2-x,-y,1/2+z
1/2+x,1/2-y,-z
1/2-x,y,1/2-z
1/2-x,1/2-y,-z
1/2+x,y,1/2-z
1/2-x,1/2+y,z
1/2+x,-y,1/2+z
loop_
_atom_site_type_symbol
_atom_site_label
_atom_site_fract_x
_atom_site_fract_y
_atom_site_fract_z
Si Si1 0.311069 0.696562 0.203093
Si Si2 0.890730 0.920565 0.545353
Si Si3 0.061794 0.195565 0.834692
Si Si4 0.500000 0.500000 0.500000
O O1 0.317222 0.766310 0.412861
O O2 0.250000 0.668684 0.250000
O O3 0.353677 0.632119 0.274273
O O4 0.903204 0.873674 0.275358
O O5 0.950852 0.947492 0.637787
O O6 0.861169 0.000000 0.500000
O O7 0.067996 0.236738 0.117093
O O8 0.000000 0.167916 0.817417
#
# Coordination Sequence:
#
# PCOD9477597 Si02
#       4
#    16  16  16   4
#     4  10  22  43  69  95 126 171 228 284 332 392
#     4  10  19  38  62  93 135 173 212 273 340 413
#     4  10  19  33  54  81 114 159 209 252 305 382
#     4   8  20  36  64  94 148 170 218 268 356 422
#
# _framework density 23.803267000000002
#
# number of rings (size 3 to 8) (size 9 to 14) (size 15 to 20)
#    0.923    1.231    1.538    1.846    0.000    0.000 
#    0.000   10.769    0.000   12.923    0.000    0.000 
#    0.000    0.000    0.000    0.000    0.000    0.000 
#
# Total GULP energy -144854.163444 kJ/mol
# GULP energy per Si atom -5571.313979 kJ/mol
# Density = 2.374909 g / cm^3
# Si number density = 23.803267 Si / 1000 Ang^3
#
#
#
# Elastic Constant Matrix: (Units=GPa)
#
#
# Indices 1 2 3 4 5 6 
#
# 1 149.9104 63.8804 33.3277 0.0000 0.0000 0.0000
# 2 63.8804 128.7846 29.7901 0.0000 0.0000 0.0000
# 3 33.3277 29.7901 95.8943 0.0000 0.0000 0.0000
# 4 0.0000 0.0000 0.0000 10.3107 0.0000 0.0000
# 5 0.0000 0.0000 0.0000 0.0000 32.3214 0.0000
# 6 0.0000 0.0000 0.0000 0.0000 0.0000 47.3624
#
#
#
# Elastic Compliance Matrix: (Units=1/GPa)
#
#
# Indices 1 2 3 4 5 6 
#
# 1 0.008745 -0.003916 -0.001823 0.000000 0.000000 0.000000
# 2 -0.003916 0.010120 -0.001783 0.000000 0.000000 0.000000
# 3 -0.001823 -0.001783 0.011615 0.000000 0.000000 0.000000
# 4 0.000000 0.000000 0.000000 0.096986 0.000000 0.000000
# 5 0.000000 0.000000 0.000000 0.000000 0.030939 0.000000
# 6 0.000000 0.000000 0.000000 0.000000 0.000000 0.021114
#
#
# Mechanical properties :
#
#
# Convention : Reuss Voigt Hill
#
# Bulk Modulus (GPa) = 64.77937 69.84284 67.31111
# Shear Modulus (GPa) = 25.03666 34.50500 29.77083
#
# Velocity S-wave (km/s) = 3.24669 3.81148 3.54037
# Velocity P-wave (km/s) = 6.42870 6.98393 6.71206
#
# Compressibility (1/GPa) = 0.01543701
#
# Stress axis : x y z
#
# Youngs Moduli (GPa) = 114.35749 98.81743 86.09241
#
# Poissons Ratio (x) = 0.38696 0.15691
# Poissons Ratio (y) = 0.44781 0.15348
# Poissons Ratio (z) = 0.20843 0.17617
#
# Static dielectric constant tensor:
#      x y z
#    x 2.005620 0.000000 0.000000 
#    y 0.000000 1.938300 0.000000 
#    z 0.000000 0.000000 1.988270 
# 
# From -- ./inp_files/2600.got.cif
#   From: 2010.05.17/outbox.cif.g08.bks.cpg/sg64_2_cif.got.tgz:2600.got - 2010.06.03 16:29:19.
