data_PCOD9477024
_publ_section_title
;
Structure prediction by ZEFSAII (Michael W. Deem and Ramdas Pophale) SiO2 
 PCOD9477024
Probable space group: C M C A
;
_chemical_formula_sum "Si O2"
_cell_formula_units_Z 56
_cell_length_a 22.107811
_cell_length_b 22.258304
_cell_length_c 4.873720
_cell_angle_alpha 90.000000
_cell_angle_beta 90.000000
_cell_angle_gamma 90.000000
_cell_volume 2398.271727
_symmetry_space_group_name_H-M "C M C A"
_symmetry_group_IT_number 64
_symmetry_cell_setting 'orthorhombic'
loop_
_space_group_symop_operation_xyz
x,y,z
-x,1/2-y,1/2+z
x,-y,-z
-x,1/2+y,1/2-z
-x,-y,-z
x,1/2+y,1/2-z
-x,y,z
x,1/2-y,1/2+z
1/2+x,1/2+y,z
1/2-x,-y,1/2+z
1/2+x,1/2-y,-z
1/2-x,y,1/2-z
1/2-x,1/2-y,-z
1/2+x,y,1/2-z
1/2-x,1/2+y,z
1/2+x,-y,1/2+z
loop_
_atom_site_type_symbol
_atom_site_label
_atom_site_fract_x
_atom_site_fract_y
_atom_site_fract_z
Si Si1 0.860418 0.394037 0.795474
Si Si2 0.821497 0.285394 0.079957
Si Si3 0.571238 0.350745 0.240516
Si Si4 0.790022 0.000000 0.000000
O O1 0.894596 0.293928 0.120825
O O2 0.898772 0.362224 0.554461
O O3 0.829393 0.450272 0.655161
O O4 0.905769 0.403623 0.052124
O O5 0.803320 0.269617 0.386975
O O6 0.810845 0.348616 0.931162
O O7 0.500000 0.345787 0.228518
O O8 0.750000 0.026775 0.750000
#
# Coordination Sequence:
#
# PCOD9477024 Si02
#       4
#    16  16  16   8
#     4  10  22  39  59  91 124 150 211 246 299 351
#     4  10  18  34  56  86 127 167 194 238 283 344
#     4  10  20  35  56  89 129 166 197 229 284 354
#     4  12  26  46  73  88 105 152 210 268 314 360
#
# _framework density 23.350149999999999
#
# number of rings (size 3 to 8) (size 9 to 14) (size 15 to 20)
#    1.714    0.000    2.857    2.571    0.000    1.143 
#    0.000    4.286    0.000    5.143    0.000    0.000 
#    0.000    0.000    0.000    0.000    0.000    0.000 
#
# Total GULP energy -155997.417600 kJ/mol
# GULP energy per Si atom -5571.336343 kJ/mol
# Density = 2.329700 g / cm^3
# Si number density = 23.350150 Si / 1000 Ang^3
#
#
#
# Elastic Constant Matrix: (Units=GPa)
#
#
# Indices 1 2 3 4 5 6 
#
# 1 95.8943 23.5223 34.7611 0.0000 0.0000 0.0000
# 2 23.5223 70.6825 42.1435 0.0000 0.0000 0.0000
# 3 34.7611 42.1435 171.6400 0.0000 0.0000 0.0000
# 4 0.0000 0.0000 0.0000 40.0227 0.0000 0.0000
# 5 0.0000 0.0000 0.0000 0.0000 29.2991 0.0000
# 6 0.0000 0.0000 0.0000 0.0000 0.0000 17.2871
#
#
#
# Elastic Compliance Matrix: (Units=1/GPa)
#
#
# Indices 1 2 3 4 5 6 
#
# 1 0.011747 -0.002918 -0.001663 0.000000 0.000000 0.000000
# 2 -0.002918 0.017299 -0.003657 0.000000 0.000000 0.000000
# 3 -0.001663 -0.003657 0.007061 0.000000 0.000000 0.000000
# 4 0.000000 0.000000 0.000000 0.024986 0.000000 0.000000
# 5 0.000000 0.000000 0.000000 0.000000 0.034131 0.000000
# 6 0.000000 0.000000 0.000000 0.000000 0.000000 0.057847
#
#
# Mechanical properties :
#
#
# Convention : Reuss Voigt Hill
#
# Bulk Modulus (GPa) = 50.93645 59.89675 55.41660
# Shear Modulus (GPa) = 28.39502 33.17444 30.78473
#
# Velocity S-wave (km/s) = 3.49098 3.77336 3.63491
# Velocity P-wave (km/s) = 6.17339 6.68517 6.43437
#
# Compressibility (1/GPa) = 0.01963231
#
# Stress axis : x y z
#
# Youngs Moduli (GPa) = 85.13144 57.80686 141.62991
#
# Poissons Ratio (x) = 0.16867 0.23546
# Poissons Ratio (y) = 0.24840 0.51788
# Poissons Ratio (z) = 0.14153 0.21137
#
# Static dielectric constant tensor:
#      x y z
#    x 1.945770 0.000000 0.000000 
#    y 0.000000 1.955060 0.000000 
#    z 0.000000 0.000000 1.877620 
# 
# From -- ./inp_files/2166.got.cif
#   From: 2010.05.17/outbox.cif.g08.bks.cpg/sg64_2_cif.got.tgz:2166.got - 2010.06.03 16:29:19.
