data_PCOD9477185
_publ_section_title
;
Structure prediction by ZEFSAII (Michael W. Deem and Ramdas Pophale) SiO2 
 PCOD9477185
Probable space group: C M C A
;
_chemical_formula_sum "Si O2"
_cell_formula_units_Z 96
_cell_length_a 7.717699
_cell_length_b 28.617123
_cell_length_c 24.500989
_cell_angle_alpha 90.000000
_cell_angle_beta 90.000000
_cell_angle_gamma 90.000000
_cell_volume 5411.247797
_symmetry_space_group_name_H-M "C M C A"
_symmetry_group_IT_number 64
_symmetry_cell_setting 'orthorhombic'
loop_
_space_group_symop_operation_xyz
x,y,z
-x,1/2-y,1/2+z
x,-y,-z
-x,1/2+y,1/2-z
-x,-y,-z
x,1/2+y,1/2-z
-x,y,z
x,1/2-y,1/2+z
1/2+x,1/2+y,z
1/2-x,-y,1/2+z
1/2+x,1/2-y,-z
1/2-x,y,1/2-z
1/2-x,1/2-y,-z
1/2+x,y,1/2-z
1/2-x,1/2+y,z
1/2+x,-y,1/2+z
loop_
_atom_site_type_symbol
_atom_site_label
_atom_site_fract_x
_atom_site_fract_y
_atom_site_fract_z
Si Si1 0.787961 0.072168 0.026650
Si Si2 0.211439 0.020395 0.915803
Si Si3 0.702094 0.823910 0.528150
Si Si4 0.796167 0.728141 0.923031
Si Si5 0.293627 0.682475 0.811271
Si Si6 0.708210 0.924340 0.311108
O O1 0.723184 0.124532 0.036574
O O2 0.000000 0.073302 0.026727
O O3 0.733953 0.032289 0.069498
O O4 0.737939 0.053162 0.966797
O O5 0.272895 0.042340 0.859207
O O6 0.000000 0.019963 0.914967
O O7 0.500000 0.827055 0.543350
O O8 0.714023 0.809254 0.464541
O O9 0.775022 0.779496 0.561271
O O10 0.772929 0.713875 0.860636
O O11 0.000000 0.728135 0.936068
O O12 0.500000 0.681044 0.816251
O O13 0.250000 0.698494 0.750000
O O14 0.226178 0.629064 0.817020
O O15 0.500000 0.922271 0.315793
O O16 0.750000 0.940410 0.250000
#
# Coordination Sequence:
#
# PCOD9477185 Si02
#       6
#    16  16  16  16  16  16
#     4   8  13  23  41  64  86 108 138 176 213 250
#     4   8  13  22  40  65  87 107 136 173 211 251
#     4   9  17  29  45  65  89 117 148 181 216 254
#     4  10  19  29  43  65  91 118 148 180 216 258
#     4  10  19  31  47  66  89 115 144 179 218 260
#     4   9  17  28  43  64  87 111 138 170 210 255
#
# _framework density 17.740825000000001
#
# number of rings (size 3 to 8) (size 9 to 14) (size 15 to 20)
#    0.000    3.000    0.000    3.000    0.000    4.000 
#    0.000    0.000    0.000    2.000    0.000    5.833 
#    0.000    0.000    0.000    0.000    0.000    0.000 
#
# Total GULP energy -267515.345956 kJ/mol
# GULP energy per Si atom -5573.236374 kJ/mol
# Density = 1.770045 g / cm^3
# Si number density = 17.740825 Si / 1000 Ang^3
#
#
#
# Elastic Constant Matrix: (Units=GPa)
#
#
# Indices 1 2 3 4 5 6 
#
# 1 28.9944 2.9359 -5.7604 0.0000 0.0000 0.0000
# 2 2.9359 122.2059 69.2836 0.0000 0.0000 0.0000
# 3 -5.7604 69.2836 130.9020 0.0000 0.0000 0.0000
# 4 0.0000 0.0000 0.0000 17.9012 0.0000 0.0000
# 5 0.0000 0.0000 0.0000 0.0000 19.5312 0.0000
# 6 0.0000 0.0000 0.0000 0.0000 0.0000 5.5899
#
#
#
# Elastic Compliance Matrix: (Units=1/GPa)
#
#
# Indices 1 2 3 4 5 6 
#
# 1 0.035308 -0.002470 0.002861 0.000000 0.000000 0.000000
# 2 -0.002470 0.011864 -0.006388 0.000000 0.000000 0.000000
# 3 0.002861 -0.006388 0.011146 0.000000 0.000000 0.000000
# 4 0.000000 0.000000 0.000000 0.055862 0.000000 0.000000
# 5 0.000000 0.000000 0.000000 0.000000 0.051200 0.000000
# 6 0.000000 0.000000 0.000000 0.000000 0.000000 0.178894
#
#
# Mechanical properties :
#
#
# Convention : Reuss Voigt Hill
#
# Bulk Modulus (GPa) = 21.58713 46.11337 33.85025
# Shear Modulus (GPa) = 13.45134 22.98068 18.21601
#
# Velocity S-wave (km/s) = 2.75656 3.60301 3.20782
# Velocity P-wave (km/s) = 4.72503 6.58469 5.73080
#
# Compressibility (1/GPa) = 0.04632390
#
# Stress axis : x y z
#
# Youngs Moduli (GPa) = 28.32215 84.28948 89.71632
#
# Poissons Ratio (x) = 0.20823 -0.25670
# Poissons Ratio (y) = 0.06997 0.57311
# Poissons Ratio (z) = -0.08104 0.53844
#
# Static dielectric constant tensor:
#      x y z
#    x 1.670220 0.000000 0.000000 
#    y 0.000000 1.627150 0.000000 
#    z 0.000000 0.000000 1.586320 
# 
# From -- ./inp_files/43233.got.cif
#   From: 2010.05.17/outbox.cif.g08.bks.cpg/sg64_22_cif.got.tgz:43233.got - 2010.06.03 16:29:19.
