data_PCOD9477445
_publ_section_title
;
Structure prediction by ZEFSAII (Michael W. Deem and Ramdas Pophale) SiO2 
 PCOD9477445
Probable space group: C M C A
;
_chemical_formula_sum "Si O2"
_cell_formula_units_Z 80
_cell_length_a 8.816068
_cell_length_b 26.853253
_cell_length_c 19.280368
_cell_angle_alpha 90.000000
_cell_angle_beta 90.000000
_cell_angle_gamma 90.000000
_cell_volume 4564.436335
_symmetry_space_group_name_H-M "C M C A"
_symmetry_group_IT_number 64
_symmetry_cell_setting 'orthorhombic'
loop_
_space_group_symop_operation_xyz
x,y,z
-x,1/2-y,1/2+z
x,-y,-z
-x,1/2+y,1/2-z
-x,-y,-z
x,1/2+y,1/2-z
-x,y,z
x,1/2-y,1/2+z
1/2+x,1/2+y,z
1/2-x,-y,1/2+z
1/2+x,1/2-y,-z
1/2-x,y,1/2-z
1/2-x,1/2-y,-z
1/2+x,y,1/2-z
1/2-x,1/2+y,z
1/2+x,-y,1/2+z
loop_
_atom_site_type_symbol
_atom_site_label
_atom_site_fract_x
_atom_site_fract_y
_atom_site_fract_z
Si Si1 0.682124 0.300681 0.581062
Si Si2 0.318372 0.997254 0.672364
Si Si3 0.681068 0.695092 0.581057
Si Si4 0.682042 0.603939 0.327309
Si Si5 0.681463 0.607652 0.827290
O O1 0.500000 0.294273 0.584815
O O2 0.722018 0.309764 0.500422
O O3 0.760049 0.249395 0.603890
O O4 0.723867 0.348067 0.627366
O O5 0.500000 0.991823 0.675402
O O6 0.250000 0.998489 0.750000
O O7 0.282325 0.052149 0.643427
O O8 0.246209 0.947538 0.640681
O O9 0.500000 0.692962 0.587282
O O10 0.754181 0.651171 0.625217
O O11 0.500000 0.600623 0.322855
O O12 0.750000 0.609100 0.250000
O O13 0.500000 0.611298 0.822261
O O14 0.750000 0.611499 0.750000
#
# Coordination Sequence:
#
# PCOD9477445 Si02
#       5
#    16  16  16  16  16
#     4   9  20  37  53  72 101 136 171 207 252 304
#     4   9  17  30  49  73 101 132 164 200 247 297
#     4  10  20  35  55  75  98 133 172 210 254 300
#     4  10  19  32  52  76 102 131 165 206 248 294
#     4  10  20  34  53  77 104 133 166 207 251 298
#
# _framework density 17.526807999999999
#
# number of rings (size 3 to 8) (size 9 to 14) (size 15 to 20)
#    0.000    2.400    0.000    3.600    0.000    5.600 
#    0.000    3.000    0.000    6.000    0.000    0.000 
#    0.000    0.000    0.000    0.000    0.000    0.000 
#
# Total GULP energy -223037.405303 kJ/mol
# GULP energy per Si atom -5575.935133 kJ/mol
# Density = 1.748692 g / cm^3
# Si number density = 17.526808 Si / 1000 Ang^3
#
#
#
# Elastic Constant Matrix: (Units=GPa)
#
#
# Indices 1 2 3 4 5 6 
#
# 1 60.2704 75.5730 31.3388 0.0000 0.0000 0.0000
# 2 75.5730 221.2741 77.0715 0.0000 0.0000 0.0000
# 3 31.3388 77.0715 47.1473 0.0000 0.0000 0.0000
# 4 0.0000 0.0000 0.0000 -105.8140 0.0000 0.0000
# 5 0.0000 0.0000 0.0000 0.0000 22.7698 0.0000
# 6 0.0000 0.0000 0.0000 0.0000 0.0000 33.1169
#
#
#
# Elastic Compliance Matrix: (Units=1/GPa)
#
#
# Indices 1 2 3 4 5 6 
#
# 1 0.030102 -0.007690 -0.007437 0.000000 0.000000 0.000000
# 2 -0.007690 0.012460 -0.015256 0.000000 0.000000 0.000000
# 3 -0.007437 -0.015256 0.051092 0.000000 0.000000 0.000000
# 4 0.000000 0.000000 0.000000 -0.009451 0.000000 0.000000
# 5 0.000000 0.000000 0.000000 0.000000 0.043918 0.000000
# 6 0.000000 0.000000 0.000000 0.000000 0.000000 0.030196
#
#
# Mechanical properties :
#
#
# Convention : Reuss Voigt Hill
#
# Bulk Modulus (GPa) = 30.40732 77.40648 53.90690
# Shear Modulus (GPa) = 21.73478 -0.33823 10.69828
#
# Velocity S-wave (km/s) = 3.52531 -0.43977 2.47330
# Velocity P-wave (km/s) = 5.82727 6.63345 6.24339
#
# Compressibility (1/GPa) = 0.03288682
#
# Stress axis : x y z
#
# Youngs Moduli (GPa) = 33.22023 80.25997 19.57256
#
# Poissons Ratio (x) = 0.61724 0.14557
# Poissons Ratio (y) = 0.25548 0.29859
# Poissons Ratio (z) = 0.24707 1.22442
#
# Static dielectric constant tensor:
#      x y z
#    x 1.589360 0.000000 0.000000 
#    y 0.000000 1.620280 0.000000 
#    z 0.000000 0.000000 1.572090 
# 
# From -- ./inp_files/29765.got.cif
#   From: 2010.05.17/outbox.cif.g08.bks.cpg/sg64_15_cif.got.tgz:29765.got - 2010.06.03 16:29:19.
