data_PCOD9477222
_publ_section_title
;
Structure prediction by ZEFSAII (Michael W. Deem and Ramdas Pophale) SiO2 
 PCOD9477222
Probable space group: C M C A
;
_chemical_formula_sum "Si O2"
_cell_formula_units_Z 96
_cell_length_a 7.678977
_cell_length_b 34.451693
_cell_length_c 18.675160
_cell_angle_alpha 90.000000
_cell_angle_beta 90.000000
_cell_angle_gamma 90.000000
_cell_volume 4940.583762
_symmetry_space_group_name_H-M "C M C A"
_symmetry_group_IT_number 64
_symmetry_cell_setting 'orthorhombic'
loop_
_space_group_symop_operation_xyz
x,y,z
-x,1/2-y,1/2+z
x,-y,-z
-x,1/2+y,1/2-z
-x,-y,-z
x,1/2+y,1/2-z
-x,y,z
x,1/2-y,1/2+z
1/2+x,1/2+y,z
1/2-x,-y,1/2+z
1/2+x,1/2-y,-z
1/2-x,y,1/2-z
1/2-x,1/2-y,-z
1/2+x,y,1/2-z
1/2-x,1/2+y,z
1/2+x,-y,1/2+z
loop_
_atom_site_type_symbol
_atom_site_label
_atom_site_fract_x
_atom_site_fract_y
_atom_site_fract_z
Si Si1 0.713495 0.542124 0.026391
Si Si2 0.703542 0.839244 0.910865
Si Si3 0.792605 0.415300 0.669000
Si Si4 0.700663 0.117561 0.552024
Si Si5 0.290512 0.763036 0.833512
Si Si6 0.209913 0.823549 0.166868
O O1 0.500000 0.542349 0.025722
O O2 0.766290 0.554959 0.106691
O O3 0.770288 0.500000 0.000000
O O4 0.775871 0.576469 0.973591
O O5 0.500000 0.834583 0.928593
O O6 0.718466 0.872974 0.851159
O O7 0.774730 0.798730 0.880939
O O8 0.795055 0.855579 0.981367
O O9 0.750000 0.426562 0.750000
O O10 0.000000 0.411958 0.662661
O O11 0.500000 0.109595 0.571509
O O12 0.780080 0.142536 0.616139
O O13 0.500000 0.762909 0.840166
O O14 0.250000 0.769751 0.750000
O O15 0.225735 0.719837 0.852468
O O16 0.250000 0.830123 0.250000
O O17 0.000000 0.822673 0.158639
#
# Coordination Sequence:
#
# PCOD9477222 Si02
#       6
#    16  16  16  16  16  16
#     4   8  15  30  51  71  91 120 156 189 226 277
#     4  10  19  30  46  69  96 124 156 193 232 276
#     4  10  19  31  49  72  98 127 157 191 234 281
#     4   9  18  32  50  70  92 121 155 192 236 283
#     4   9  18  30  44  64  91 124 158 192 229 270
#     4   9  18  33  49  66  91 122 158 195 231 273
#
# _framework density 19.430902
#
# number of rings (size 3 to 8) (size 9 to 14) (size 15 to 20)
#    0.000    2.833    0.000    2.500    0.000    4.000 
#    0.000    0.833    0.000   12.500    0.000    0.000 
#    0.000    0.000    0.000    0.000    0.000    0.000 
#
# Total GULP energy -267632.690084 kJ/mol
# GULP energy per Si atom -5575.681043 kJ/mol
# Density = 1.938668 g / cm^3
# Si number density = 19.430902 Si / 1000 Ang^3
#
#
#
# Elastic Constant Matrix: (Units=GPa)
#
#
# Indices 1 2 3 4 5 6 
#
# 1 38.4423 0.5880 -7.0340 0.0000 0.0000 0.0000
# 2 0.5880 179.0099 103.4862 0.0000 0.0000 0.0000
# 3 -7.0340 103.4862 94.6265 0.0000 0.0000 0.0000
# 4 0.0000 0.0000 0.0000 22.2891 0.0000 0.0000
# 5 0.0000 0.0000 0.0000 0.0000 16.9917 0.0000
# 6 0.0000 0.0000 0.0000 0.0000 0.0000 2.6332
#
#
#
# Elastic Compliance Matrix: (Units=1/GPa)
#
#
# Indices 1 2 3 4 5 6 
#
# 1 0.027116 -0.003411 0.005746 0.000000 0.000000 0.000000
# 2 -0.003411 0.015619 -0.017334 0.000000 0.000000 0.000000
# 3 0.005746 -0.017334 0.029952 0.000000 0.000000 0.000000
# 4 0.000000 0.000000 0.000000 0.044865 0.000000 0.000000
# 5 0.000000 0.000000 0.000000 0.000000 0.058852 0.000000
# 6 0.000000 0.000000 0.000000 0.000000 0.000000 0.379760
#
#
# Mechanical properties :
#
#
# Convention : Reuss Voigt Hill
#
# Bulk Modulus (GPa) = 23.42543 56.23993 39.83268
# Shear Modulus (GPa) = 8.32787 22.71873 15.52330
#
# Velocity S-wave (km/s) = 2.07249 3.42308 2.82954
# Velocity P-wave (km/s) = 4.22005 6.68054 5.58742
#
# Compressibility (1/GPa) = 0.04268865
#
# Stress axis : x y z
#
# Youngs Moduli (GPa) = 36.87793 64.02615 33.38623
#
# Poissons Ratio (x) = 0.21837 -0.19183
# Poissons Ratio (y) = 0.12578 0.57873
# Poissons Ratio (z) = -0.21189 1.10986
#
# Static dielectric constant tensor:
#      x y z
#    x 1.724940 0.000000 0.000000 
#    y 0.000000 1.687200 0.000000 
#    z 0.000000 0.000000 1.666460 
# 
# From -- ./inp_files/37059.got.cif
#   From: 2010.05.17/outbox.cif.g08.bks.cpg/sg64_19_cif.got.tgz:37059.got - 2010.06.03 16:29:19.
