data_PCOD9477141
_publ_section_title
;
Structure prediction by ZEFSAII (Michael W. Deem and Ramdas Pophale) SiO2 
 PCOD9477141
Probable space group: C M C A
;
_chemical_formula_sum "Si O2"
_cell_formula_units_Z 64
_cell_length_a 23.162407
_cell_length_b 14.345558
_cell_length_c 7.513195
_cell_angle_alpha 90.000000
_cell_angle_beta 90.000000
_cell_angle_gamma 90.000000
_cell_volume 2496.466801
_symmetry_space_group_name_H-M "C M C A"
_symmetry_group_IT_number 64
_symmetry_cell_setting 'orthorhombic'
loop_
_space_group_symop_operation_xyz
x,y,z
-x,1/2-y,1/2+z
x,-y,-z
-x,1/2+y,1/2-z
-x,-y,-z
x,1/2+y,1/2-z
-x,y,z
x,1/2-y,1/2+z
1/2+x,1/2+y,z
1/2-x,-y,1/2+z
1/2+x,1/2-y,-z
1/2-x,y,1/2-z
1/2-x,1/2-y,-z
1/2+x,y,1/2-z
1/2-x,1/2+y,z
1/2+x,-y,1/2+z
loop_
_atom_site_type_symbol
_atom_site_label
_atom_site_fract_x
_atom_site_fract_y
_atom_site_fract_z
Si Si1 0.732111 0.604391 0.486996
Si Si2 0.111253 0.871378 0.390674
Si Si3 0.934390 0.951767 0.768328
Si Si4 0.659479 0.831668 0.635007
O O1 0.756712 0.500000 0.500000
O O2 0.678253 0.596380 0.620370
O O3 0.696002 0.637032 0.310797
O O4 0.787920 0.670447 0.505988
O O5 0.082991 0.897076 0.583245
O O6 0.121718 0.762385 0.356066
O O7 0.074336 0.938961 0.267336
O O8 0.887115 0.910494 0.899097
O O9 0.000000 0.931624 0.815373
#
# Coordination Sequence:
#
# PCOD9477141 Si02
#       4
#    16  16  16  16
#     4  10  19  40  59  88 126 156 192 251 314 365
#     4  10  18  38  60  87 119 155 202 248 302 356
#     4  10  21  39  60  86 120 162 204 248 300 361
#     4  10  21  36  60  93 116 158 203 248 304 364
#
# _framework density 25.636230999999999
#
# number of rings (size 3 to 8) (size 9 to 14) (size 15 to 20)
#    0.000    2.000    5.000    2.250    0.000    2.000 
#   18.000    0.000    0.000    0.750    0.000    0.000 
#    0.000    0.000    0.000    0.000    0.000    0.000 
#
# Total GULP energy -178448.929980 kJ/mol
# GULP energy per Si atom -5576.529062 kJ/mol
# Density = 2.557788 g / cm^3
# Si number density = 25.636231 Si / 1000 Ang^3
#
#
#
# Elastic Constant Matrix: (Units=GPa)
#
#
# Indices 1 2 3 4 5 6 
#
# 1 206.7383 37.3500 9.4970 0.0000 0.0000 0.0000
# 2 37.3500 167.5443 20.4998 0.0000 0.0000 0.0000
# 3 9.4970 20.4998 81.4404 0.0000 0.0000 0.0000
# 4 0.0000 0.0000 0.0000 21.6024 0.0000 0.0000
# 5 0.0000 0.0000 0.0000 0.0000 12.0695 0.0000
# 6 0.0000 0.0000 0.0000 0.0000 0.0000 35.1730
#
#
#
# Elastic Compliance Matrix: (Units=1/GPa)
#
#
# Indices 1 2 3 4 5 6 
#
# 1 0.005048 -0.001087 -0.000315 0.000000 0.000000 0.000000
# 2 -0.001087 0.006392 -0.001482 0.000000 0.000000 0.000000
# 3 -0.000315 -0.001482 0.012689 0.000000 0.000000 0.000000
# 4 0.000000 0.000000 0.000000 0.046291 0.000000 0.000000
# 5 0.000000 0.000000 0.000000 0.000000 0.082853 0.000000
# 6 0.000000 0.000000 0.000000 0.000000 0.000000 0.028431
#
#
# Mechanical properties :
#
#
# Convention : Reuss Voigt Hill
#
# Bulk Modulus (GPa) = 54.46453 65.60184 60.03318
# Shear Modulus (GPa) = 25.82744 39.66075 32.74409
#
# Velocity S-wave (km/s) = 3.17749 3.93753 3.57775
# Velocity P-wave (km/s) = 5.89518 6.80568 6.36673
#
# Compressibility (1/GPa) = 0.01836057
#
# Stress axis : x y z
#
# Youngs Moduli (GPa) = 198.10451 156.44069 78.80981
#
# Poissons Ratio (x) = 0.17001 0.02483
# Poissons Ratio (y) = 0.21529 0.11682
# Poissons Ratio (z) = 0.06242 0.23189
#
# Static dielectric constant tensor:
#      x y z
#    x 1.931550 0.000000 0.000000 
#    y 0.000000 2.113910 0.000000 
#    z 0.000000 0.000000 2.392290 
# 
# From -- ./inp_files/17895.got.cif
#   From: 2010.05.17/outbox.cif.g08.bks.cpg/sg64_9_cif.got.tgz:17895.got - 2010.06.03 16:29:19.
