data_PCOD9477028
_publ_section_title
;
Structure prediction by ZEFSAII (Michael W. Deem and Ramdas Pophale) SiO2 
 PCOD9477028
Probable space group: C M C A
;
_chemical_formula_sum "Si O2"
_cell_formula_units_Z 80
_cell_length_a 14.452894
_cell_length_b 18.385599
_cell_length_c 17.827139
_cell_angle_alpha 90.000000
_cell_angle_beta 90.000000
_cell_angle_gamma 90.000000
_cell_volume 4737.118534
_symmetry_space_group_name_H-M "C M C A"
_symmetry_group_IT_number 64
_symmetry_cell_setting 'orthorhombic'
loop_
_space_group_symop_operation_xyz
x,y,z
-x,1/2-y,1/2+z
x,-y,-z
-x,1/2+y,1/2-z
-x,-y,-z
x,1/2+y,1/2-z
-x,y,z
x,1/2-y,1/2+z
1/2+x,1/2+y,z
1/2-x,-y,1/2+z
1/2+x,1/2-y,-z
1/2-x,y,1/2-z
1/2-x,1/2-y,-z
1/2+x,y,1/2-z
1/2-x,1/2+y,z
1/2+x,-y,1/2+z
loop_
_atom_site_type_symbol
_atom_site_label
_atom_site_fract_x
_atom_site_fract_y
_atom_site_fract_z
Si Si1 0.393156 0.196897 0.978604
Si Si2 0.275897 0.971889 0.663568
Si Si3 0.605599 0.565255 0.938681
Si Si4 0.600273 0.963021 0.081861
Si Si5 0.791573 0.162291 0.055997
O O1 0.500000 0.207109 0.003278
O O2 0.391425 0.123125 0.930229
O O3 0.355084 0.266861 0.934360
O O4 0.315524 0.184209 0.042869
O O5 0.250000 0.963785 0.750000
O O6 0.299557 0.895955 0.622411
O O7 0.353971 0.030067 0.637340
O O8 0.183834 0.003343 0.625872
O O9 0.500000 0.591130 0.930019
O O10 0.605181 0.500000 0.000000
O O11 0.671093 0.624581 0.978770
O O12 0.500000 0.979488 0.115947
O O13 0.602593 0.000000 0.000000
#
# Coordination Sequence:
#
# PCOD9477028 Si02
#       5
#    16  16  16  16  16
#     4  10  19  32  58  83 102 134 180 233 276 311
#     4  11  21  34  51  80 114 146 177 216 274 332
#     4   9  17  32  53  76 105 139 179 224 265 313
#     4  10  18  34  57  79 104 135 182 229 265 314
#     4  10  19  34  55  81 108 138 187 230 269 322
#
# _framework density 16.887903999999999
#
# number of rings (size 3 to 8) (size 9 to 14) (size 15 to 20)
#    0.000    2.000    4.000    1.200    0.000    1.600 
#    0.000    1.000    0.000    0.000    0.000    0.000 
#    0.000    0.000    0.000    0.000    0.000    0.000 
#
# Total GULP energy -222792.829071 kJ/mol
# GULP energy per Si atom -5569.820727 kJ/mol
# Density = 1.684947 g / cm^3
# Si number density = 16.887904 Si / 1000 Ang^3
#
#
#
# Elastic Constant Matrix: (Units=GPa)
#
#
# Indices 1 2 3 4 5 6 
#
# 1 125.5318 32.6374 22.7149 0.0000 0.0000 0.0000
# 2 32.6374 104.7328 29.6089 0.0000 0.0000 0.0000
# 3 22.7149 29.6089 71.7703 0.0000 0.0000 0.0000
# 4 0.0000 0.0000 0.0000 11.4523 0.0000 0.0000
# 5 0.0000 0.0000 0.0000 0.0000 115.5185 0.0000
# 6 0.0000 0.0000 0.0000 0.0000 0.0000 34.1936
#
#
#
# Elastic Compliance Matrix: (Units=1/GPa)
#
#
# Indices 1 2 3 4 5 6 
#
# 1 0.008890 -0.002236 -0.001891 0.000000 0.000000 0.000000
# 2 -0.002236 0.011371 -0.003984 0.000000 0.000000 0.000000
# 3 -0.001891 -0.003984 0.016175 0.000000 0.000000 0.000000
# 4 0.000000 0.000000 0.000000 0.087319 0.000000 0.000000
# 5 0.000000 0.000000 0.000000 0.000000 0.008657 0.000000
# 6 0.000000 0.000000 0.000000 0.000000 0.000000 0.029245
#
#
# Mechanical properties :
#
#
# Convention : Reuss Voigt Hill
#
# Bulk Modulus (GPa) = 49.46779 52.43971 50.95375
# Shear Modulus (GPa) = 27.08330 46.70446 36.89388
#
# Velocity S-wave (km/s) = 4.00898 5.26456 4.67908
# Velocity P-wave (km/s) = 7.12634 8.25065 7.70902
#
# Compressibility (1/GPa) = 0.02021518
#
# Stress axis : x y z
#
# Youngs Moduli (GPa) = 112.49170 87.94343 61.82258
#
# Poissons Ratio (x) = 0.19660 0.11692
# Poissons Ratio (y) = 0.25148 0.24627
# Poissons Ratio (z) = 0.21275 0.35033
#
# Static dielectric constant tensor:
#      x y z
#    x 1.608080 0.000000 0.000000 
#    y 0.000000 1.595720 0.000000 
#    z 0.000000 0.000000 1.506390 
# 
# From -- ./inp_files/32027.got.cif
#   From: 2010.05.17/outbox.cif.g08.bks.cpg/sg64_17_cif.got.tgz:32027.got - 2010.06.03 16:29:19.
