data_PCOD9477431
_publ_section_title
;
Structure prediction by ZEFSAII (Michael W. Deem and Ramdas Pophale) SiO2 
 PCOD9477431
Probable space group: C M C A
;
_chemical_formula_sum "Si O2"
_cell_formula_units_Z 96
_cell_length_a 8.586848
_cell_length_b 30.676005
_cell_length_c 19.300817
_cell_angle_alpha 90.000000
_cell_angle_beta 90.000000
_cell_angle_gamma 90.000000
_cell_volume 5084.031915
_symmetry_space_group_name_H-M "C M C A"
_symmetry_group_IT_number 64
_symmetry_cell_setting 'orthorhombic'
loop_
_space_group_symop_operation_xyz
x,y,z
-x,1/2-y,1/2+z
x,-y,-z
-x,1/2+y,1/2-z
-x,-y,-z
x,1/2+y,1/2-z
-x,y,z
x,1/2-y,1/2+z
1/2+x,1/2+y,z
1/2-x,-y,1/2+z
1/2+x,1/2-y,-z
1/2-x,y,1/2-z
1/2-x,1/2-y,-z
1/2+x,y,1/2-z
1/2-x,1/2+y,z
1/2+x,-y,1/2+z
loop_
_atom_site_type_symbol
_atom_site_label
_atom_site_fract_x
_atom_site_fract_y
_atom_site_fract_z
Si Si1 0.185966 0.159384 0.925051
Si Si2 0.187333 0.610970 0.176314
Si Si3 0.812068 0.265281 0.327022
Si Si4 0.689246 0.028721 0.098847
Si Si5 0.687962 0.313079 0.571459
Si Si6 0.187891 0.436703 0.054479
O O1 0.237815 0.188503 0.859753
O O2 0.247366 0.110088 0.925389
O O3 0.000000 0.158425 0.925172
O O4 0.241189 0.183095 0.995454
O O5 0.250000 0.625656 0.250000
O O6 0.243282 0.562335 0.157077
O O7 0.231929 0.643958 0.115281
O O8 0.000000 0.610875 0.178941
O O9 0.750000 0.257936 0.250000
O O10 0.763665 0.228030 0.381906
O O11 0.000000 0.263999 0.324111
O O12 0.500000 0.027838 0.100648
O O13 0.740448 0.978492 0.099723
O O14 0.730038 0.050005 0.024449
O O15 0.500000 0.312319 0.564674
O O16 0.000000 0.434241 0.056694
#
# Coordination Sequence:
#
# PCOD9477431 Si02
#       6
#    16  16  16  16  16  16
#     4  11  22  35  54  85 116 139 177 230 276 320
#     4  10  19  32  51  78 109 140 177 221 271 328
#     4  10  23  40  57  80 110 145 183 226 272 324
#     4   8  15  30  53  77 101 135 181 222 258 317
#     4  10  20  37  59  80 105 142 186 225 268 326
#     4   9  16  32  57  78 100 138 182 221 264 315
#
# _framework density 18.882650000000002
#
# number of rings (size 3 to 8) (size 9 to 14) (size 15 to 20)
#    0.000    2.333    1.667    2.500    0.000    2.667 
#    0.000    3.333    0.000    4.000    0.000    0.000 
#    0.000    0.000    0.000    0.000    0.000    0.000 
#
# Total GULP energy -267756.886034 kJ/mol
# GULP energy per Si atom -5578.268459 kJ/mol
# Density = 1.883967 g / cm^3
# Si number density = 18.882650 Si / 1000 Ang^3
#
#
#
# Elastic Constant Matrix: (Units=GPa)
#
#
# Indices 1 2 3 4 5 6 
#
# 1 8.7732 20.3367 7.9240 0.0000 0.0000 0.0000
# 2 20.3367 125.4349 19.8818 0.0000 0.0000 0.0000
# 3 7.9240 19.8818 38.9919 0.0000 0.0000 0.0000
# 4 0.0000 0.0000 0.0000 18.6901 0.0000 0.0000
# 5 0.0000 0.0000 0.0000 0.0000 19.7362 0.0000
# 6 0.0000 0.0000 0.0000 0.0000 0.0000 23.5630
#
#
#
# Elastic Compliance Matrix: (Units=1/GPa)
#
#
# Indices 1 2 3 4 5 6 
#
# 1 0.205782 -0.029086 -0.026989 0.000000 0.000000 0.000000
# 2 -0.029086 0.012784 -0.000608 0.000000 0.000000 0.000000
# 3 -0.026989 -0.000608 0.031441 0.000000 0.000000 0.000000
# 4 0.000000 0.000000 0.000000 0.053504 0.000000 0.000000
# 5 0.000000 0.000000 0.000000 0.000000 0.050668 0.000000
# 6 0.000000 0.000000 0.000000 0.000000 0.000000 0.042439
#
#
# Mechanical properties :
#
#
# Convention : Reuss Voigt Hill
#
# Bulk Modulus (GPa) = 7.31832 29.94274 18.63053
# Shear Modulus (GPa) = 9.00040 20.73503 14.86771
#
# Velocity S-wave (km/s) = 2.18560 3.31735 2.80906
# Velocity P-wave (km/s) = 3.20206 5.52855 4.51763
#
# Compressibility (1/GPa) = 0.13664333
#
# Stress axis : x y z
#
# Youngs Moduli (GPa) = 4.85951 78.22143 31.80572
#
# Poissons Ratio (x) = 2.27511 0.85839
# Poissons Ratio (y) = 0.14134 0.01933
# Poissons Ratio (z) = 0.13115 0.04755
#
# Static dielectric constant tensor:
#      x y z
#    x 1.647110 0.000000 0.000000 
#    y 0.000000 1.692120 0.000000 
#    z 0.000000 0.000000 1.622010 
# 
# From -- ./inp_files/37053.got.cif
#   From: 2010.05.17/outbox.cif.g08.bks.cpg/sg64_19_cif.got.tgz:37053.got - 2010.06.03 16:29:19.
