data_PCOD9477357
_publ_section_title
;
Structure prediction by ZEFSAII (Michael W. Deem and Ramdas Pophale) SiO2 
 PCOD9477357
Probable space group: C M C A
;
_chemical_formula_sum "Si O2"
_cell_formula_units_Z 80
_cell_length_a 13.054788
_cell_length_b 16.735654
_cell_length_c 15.073544
_cell_angle_alpha 90.000000
_cell_angle_beta 90.000000
_cell_angle_gamma 90.000000
_cell_volume 3293.274149
_symmetry_space_group_name_H-M "C M C A"
_symmetry_group_IT_number 64
_symmetry_cell_setting 'orthorhombic'
loop_
_space_group_symop_operation_xyz
x,y,z
-x,1/2-y,1/2+z
x,-y,-z
-x,1/2+y,1/2-z
-x,-y,-z
x,1/2+y,1/2-z
-x,y,z
x,1/2-y,1/2+z
1/2+x,1/2+y,z
1/2-x,-y,1/2+z
1/2+x,1/2-y,-z
1/2-x,y,1/2-z
1/2-x,1/2-y,-z
1/2+x,y,1/2-z
1/2-x,1/2+y,z
1/2+x,-y,1/2+z
loop_
_atom_site_type_symbol
_atom_site_label
_atom_site_fract_x
_atom_site_fract_y
_atom_site_fract_z
Si Si1 0.766212 0.050641 0.414287
Si Si2 0.327197 0.709186 0.367021
Si Si3 0.390184 0.837690 0.483729
Si Si4 0.384400 0.791863 0.189728
Si Si5 0.615702 0.558268 0.804498
O O1 0.839239 0.113690 0.366583
O O2 0.691174 0.114755 0.460447
O O3 0.804155 0.000000 0.500000
O O4 0.700076 0.002911 0.341533
O O5 0.371057 0.746664 0.457078
O O6 0.384704 0.742089 0.281049
O O7 0.213132 0.751218 0.358188
O O8 0.500000 0.849592 0.526598
O O9 0.390875 0.881846 0.388565
O O10 0.500000 0.790198 0.151904
O O11 0.362622 0.884118 0.219789
O O12 0.500000 0.524518 0.793012
#
# Coordination Sequence:
#
# PCOD9477357 Si02
#       5
#    16  16  16  16  16
#     4  10  19  31  51  79 109 140 177 218 265 317
#     4  10  19  33  53  79 109 141 177 216 264 320
#     4   9  17  31  53  79 107 138 176 220 260 307
#     4   9  19  36  56  77 103 138 182 227 266 310
#     4   8  15  30  51  74 101 134 173 220 267 306
#
# _framework density 24.291934999999999
#
# number of rings (size 3 to 8) (size 9 to 14) (size 15 to 20)
#    0.000    2.800    0.000    3.000    0.000    4.000 
#    0.000   12.000    0.000    2.400    0.000   22.400 
#    0.000    0.000    0.000    0.000    0.000    0.000 
#
# Total GULP energy -223035.607676 kJ/mol
# GULP energy per Si atom -5575.890192 kJ/mol
# Density = 2.423665 g / cm^3
# Si number density = 24.291935 Si / 1000 Ang^3
#
#
#
# Elastic Constant Matrix: (Units=GPa)
#
#
# Indices 1 2 3 4 5 6 
#
# 1 59.2680 -0.5039 -5.0000 0.0000 0.0000 0.0000
# 2 -0.5039 112.5015 6.0705 0.0000 0.0000 0.0000
# 3 -5.0000 6.0705 50.6541 0.0000 0.0000 0.0000
# 4 0.0000 0.0000 0.0000 43.3382 0.0000 0.0000
# 5 0.0000 0.0000 0.0000 0.0000 -45.7143 0.0000
# 6 0.0000 0.0000 0.0000 0.0000 0.0000 12.5360
#
#
#
# Elastic Compliance Matrix: (Units=1/GPa)
#
#
# Indices 1 2 3 4 5 6 
#
# 1 0.017014 -0.000015 0.001681 0.000000 0.000000 0.000000
# 2 -0.000015 0.008947 -0.001074 0.000000 0.000000 0.000000
# 3 0.001681 -0.001074 0.020036 0.000000 0.000000 0.000000
# 4 0.000000 0.000000 0.000000 0.023074 0.000000 0.000000
# 5 0.000000 0.000000 0.000000 0.000000 -0.021875 0.000000
# 6 0.000000 0.000000 0.000000 0.000000 0.000000 0.079770
#
#
# Mechanical properties :
#
#
# Convention : Reuss Voigt Hill
#
# Bulk Modulus (GPa) = 21.19393 24.83965 23.01679
# Shear Modulus (GPa) = 35.33362 16.82245 26.07804
#
# Velocity S-wave (km/s) = 3.81798 2.63442 3.28003
# Velocity P-wave (km/s) = 5.30845 4.41602 4.88266
#
# Compressibility (1/GPa) = 0.04718332
#
# Stress axis : x y z
#
# Youngs Moduli (GPa) = 58.77439 111.77384 49.90929
#
# Poissons Ratio (x) = 0.00162 -0.08391
# Poissons Ratio (y) = 0.00085 0.05358
# Poissons Ratio (z) = -0.09881 0.12000
#
# Static dielectric constant tensor:
#      x y z
#    x 2.058790 0.000000 0.000000 
#    y 0.000000 1.978860 0.000000 
#    z 0.000000 0.000000 2.001830 
# 
# From -- ./inp_files/38972.got.cif
#   From: 2010.05.17/outbox.cif.g08.bks.cpg/sg64_20_cif.got.tgz:38972.got - 2010.06.03 16:29:19.
