data_PCOD9477476
_publ_section_title
;
Structure prediction by ZEFSAII (Michael W. Deem and Ramdas Pophale) SiO2 
 PCOD9477476
Probable space group: C M C A
;
_chemical_formula_sum "Si O2"
_cell_formula_units_Z 112
_cell_length_a 14.261774
_cell_length_b 14.976095
_cell_length_c 26.334903
_cell_angle_alpha 90.000000
_cell_angle_beta 90.000000
_cell_angle_gamma 90.000000
_cell_volume 5624.758225
_symmetry_space_group_name_H-M "C M C A"
_symmetry_group_IT_number 64
_symmetry_cell_setting 'orthorhombic'
loop_
_space_group_symop_operation_xyz
x,y,z
-x,1/2-y,1/2+z
x,-y,-z
-x,1/2+y,1/2-z
-x,-y,-z
x,1/2+y,1/2-z
-x,y,z
x,1/2-y,1/2+z
1/2+x,1/2+y,z
1/2-x,-y,1/2+z
1/2+x,1/2-y,-z
1/2-x,y,1/2-z
1/2-x,1/2-y,-z
1/2+x,y,1/2-z
1/2-x,1/2+y,z
1/2+x,-y,1/2+z
loop_
_atom_site_type_symbol
_atom_site_label
_atom_site_fract_x
_atom_site_fract_y
_atom_site_fract_z
Si Si1 0.395416 0.808381 0.671860
Si Si2 0.855765 0.634587 0.767570
Si Si3 0.293938 0.228130 0.920099
Si Si4 0.303976 0.453730 0.370049
Si Si5 0.893496 0.238863 0.976887
Si Si6 0.393613 0.052937 0.047259
Si Si7 0.602307 0.985512 0.326927
O O1 0.500000 0.801971 0.647999
O O2 0.392676 0.730842 0.714354
O O3 0.316444 0.784572 0.630340
O O4 0.384506 0.910614 0.689727
O O5 0.750000 0.651336 0.750000
O O6 0.852239 0.569357 0.816494
O O7 0.899426 0.581018 0.720963
O O8 0.330425 0.129761 0.905943
O O9 0.186224 0.212346 0.936418
O O10 0.348449 0.272727 0.967225
O O11 0.339222 0.538942 0.400531
O O12 0.193054 0.460239 0.359753
O O13 0.898354 0.345031 0.968511
O O14 0.000000 0.203236 0.972373
O O15 0.500000 0.018708 0.054498
O O16 0.349394 0.000000 0.000000
O O17 0.500000 0.979901 0.352645
#
# Coordination Sequence:
#
# PCOD9477476 Si02
#       7
#    16  16  16  16  16  16  16
#     4  10  20  35  58  82 108 146 187 225 276 335
#     4   9  20  36  56  82 109 144 186 231 280 331
#     4  10  20  34  54  78 107 146 185 228 274 331
#     4  10  20  35  55  79 109 145 182 226 281 333
#     4  10  20  34  52  77 110 143 184 231 278 324
#     4  10  19  32  53  80 106 137 178 231 281 320
#     4  10  21  37  56  81 114 147 185 230 277 335
#
# _framework density 19.911968000000002
#
# number of rings (size 3 to 8) (size 9 to 14) (size 15 to 20)
#    0.000    2.143    1.429    1.714    0.000    5.143 
#    0.000    1.429    0.000    5.571    0.000    0.000 
#    0.000    0.000    0.000    0.000    0.000    0.000 
#
# Total GULP energy -311995.126725 kJ/mol
# GULP energy per Si atom -5571.341549 kJ/mol
# Density = 1.986665 g / cm^3
# Si number density = 19.911968 Si / 1000 Ang^3
#
#
#
# Elastic Constant Matrix: (Units=GPa)
#
#
# Indices 1 2 3 4 5 6 
#
# 1 82.3854 -5.4039 23.6287 0.0000 0.0000 0.0000
# 2 -5.4039 57.1558 13.2090 0.0000 0.0000 0.0000
# 3 23.6287 13.2090 66.1460 0.0000 0.0000 0.0000
# 4 0.0000 0.0000 0.0000 21.4398 0.0000 0.0000
# 5 0.0000 0.0000 0.0000 0.0000 -5.1503 0.0000
# 6 0.0000 0.0000 0.0000 0.0000 0.0000 24.2403
#
#
#
# Elastic Compliance Matrix: (Units=1/GPa)
#
#
# Indices 1 2 3 4 5 6 
#
# 1 0.013876 0.002576 -0.005471 0.000000 0.000000 0.000000
# 2 0.002576 0.018821 -0.004679 0.000000 0.000000 0.000000
# 3 -0.005471 -0.004679 0.018007 0.000000 0.000000 0.000000
# 4 0.000000 0.000000 0.000000 0.046642 0.000000 0.000000
# 5 0.000000 0.000000 0.000000 0.000000 -0.194164 0.000000
# 6 0.000000 0.000000 0.000000 0.000000 0.000000 0.041254
#
#
# Mechanical properties :
#
#
# Convention : Reuss Voigt Hill
#
# Bulk Modulus (GPa) = 28.12417 29.83942 28.98179
# Shear Modulus (GPa) = -175.04110 19.72286 -77.65912
#
# Velocity S-wave (km/s) = -9.38607 3.15064 -6.25187
# Velocity P-wave (km/s) = 10.16413 5.31541 6.12601
#
# Compressibility (1/GPa) = 0.03555661
#
# Stress axis : x y z
#
# Youngs Moduli (GPa) = 72.06530 53.13230 55.53426
#
# Poissons Ratio (x) = -0.13689 0.30385
# Poissons Ratio (y) = -0.18567 0.25983
# Poissons Ratio (z) = 0.39430 0.24860
#
# Static dielectric constant tensor:
#      x y z
#    x 1.813760 0.000000 0.000000 
#    y 0.000000 1.710870 0.000000 
#    z 0.000000 0.000000 1.705950 
# 
# From -- ./inp_files/45300.got.cif
#   From: 2010.05.17/outbox.cif.g08.bks.cpg/sg64_23_cif.got.tgz:45300.got - 2010.06.03 16:29:19.
