data_PCOD9477500
_publ_section_title
;
Structure prediction by ZEFSAII (Michael W. Deem and Ramdas Pophale) SiO2 
 PCOD9477500
Probable space group: C M C A
;
_chemical_formula_sum "Si O2"
_cell_formula_units_Z 96
_cell_length_a 7.590805
_cell_length_b 25.401063
_cell_length_c 22.041567
_cell_angle_alpha 90.000000
_cell_angle_beta 90.000000
_cell_angle_gamma 90.000000
_cell_volume 4249.934074
_symmetry_space_group_name_H-M "C M C A"
_symmetry_group_IT_number 64
_symmetry_cell_setting 'orthorhombic'
loop_
_space_group_symop_operation_xyz
x,y,z
-x,1/2-y,1/2+z
x,-y,-z
-x,1/2+y,1/2-z
-x,-y,-z
x,1/2+y,1/2-z
-x,y,z
x,1/2-y,1/2+z
1/2+x,1/2+y,z
1/2-x,-y,1/2+z
1/2+x,1/2-y,-z
1/2-x,y,1/2-z
1/2-x,1/2-y,-z
1/2+x,y,1/2-z
1/2-x,1/2+y,z
1/2+x,-y,1/2+z
loop_
_atom_site_type_symbol
_atom_site_label
_atom_site_fract_x
_atom_site_fract_y
_atom_site_fract_z
Si Si1 0.708861 0.449811 0.315578
Si Si2 0.298452 0.934526 0.834264
Si Si3 0.211821 0.745314 0.572271
Si Si4 0.793089 0.870691 0.077949
Si Si5 0.787841 0.681462 0.183007
Si Si6 0.285980 0.943082 0.527927
O O1 0.500000 0.453929 0.324476
O O2 0.750000 0.426627 0.250000
O O3 0.784672 0.509307 0.316788
O O4 0.776511 0.412432 0.368276
O O5 0.500000 0.934808 0.811417
O O6 0.216695 0.878615 0.816630
O O7 0.296065 0.935944 0.906823
O O8 0.250000 0.750000 0.500000
O O9 0.278416 0.687123 0.590788
O O10 0.276846 0.787277 0.622901
O O11 0.000000 0.747645 0.577182
O O12 0.000000 0.863292 0.066421
O O13 0.721526 0.898077 0.017602
O O14 0.750000 0.705010 0.250000
O O15 0.000000 0.678241 0.177443
O O16 0.500000 0.941012 0.533510
O O17 0.242838 0.000000 0.500000
#
# Coordination Sequence:
#
# PCOD9477500 Si02
#       6
#    16  16  16  16  16  16
#     4  11  23  37  55  80 110 148 187 228 280 337
#     4  10  21  36  56  83 115 148 187 235 286 342
#     4  10  22  40  63  89 119 154 196 246 297 350
#     4  10  21  38  57  82 115 148 185 230 281 339
#     4  10  22  40  60  86 117 153 199 248 297 353
#     4  10  19  32  54  83 114 149 185 225 278 340
#
# _framework density 22.588585999999999
#
# number of rings (size 3 to 8) (size 9 to 14) (size 15 to 20)
#    0.000    1.833    1.667    2.000    0.000    4.333 
#    0.000    1.667    0.000    0.000    0.000    0.000 
#    0.000    0.000    0.000    0.000    0.000    0.000 
#
# Total GULP energy -268055.530417 kJ/mol
# GULP energy per Si atom -5584.490217 kJ/mol
# Density = 2.253717 g / cm^3
# Si number density = 22.588586 Si / 1000 Ang^3
#
#
#
# Elastic Constant Matrix: (Units=GPa)
#
#
# Indices 1 2 3 4 5 6 
#
# 1 49.5987 7.7374 -14.8119 0.0000 0.0000 0.0000
# 2 7.7374 127.8293 48.4829 0.0000 0.0000 0.0000
# 3 -14.8119 48.4829 152.1839 0.0000 0.0000 0.0000
# 4 0.0000 0.0000 0.0000 17.5639 0.0000 0.0000
# 5 0.0000 0.0000 0.0000 0.0000 26.8068 0.0000
# 6 0.0000 0.0000 0.0000 0.0000 0.0000 6.5793
#
#
#
# Elastic Compliance Matrix: (Units=1/GPa)
#
#
# Indices 1 2 3 4 5 6 
#
# 1 0.021378 -0.002369 0.002836 0.000000 0.000000 0.000000
# 2 -0.002369 0.009161 -0.003149 0.000000 0.000000 0.000000
# 3 0.002836 -0.003149 0.007850 0.000000 0.000000 0.000000
# 4 0.000000 0.000000 0.000000 0.056935 0.000000 0.000000
# 5 0.000000 0.000000 0.000000 0.000000 0.037304 0.000000
# 6 0.000000 0.000000 0.000000 0.000000 0.000000 0.151992
#
#
# Mechanical properties :
#
#
# Convention : Reuss Voigt Hill
#
# Bulk Modulus (GPa) = 30.28161 45.82541 38.05351
# Shear Modulus (GPa) = 16.61164 29.40356 23.00760
#
# Velocity S-wave (km/s) = 2.71477 3.61182 3.19493
# Velocity P-wave (km/s) = 4.82301 6.14204 5.52205
#
# Compressibility (1/GPa) = 0.03302334
#
# Stress axis : x y z
#
# Youngs Moduli (GPa) = 46.77643 109.16166 127.38508
#
# Poissons Ratio (x) = 0.25866 -0.36121
# Poissons Ratio (y) = 0.11084 0.40114
# Poissons Ratio (z) = -0.13264 0.34376
#
# Static dielectric constant tensor:
#      x y z
#    x 2.002900 0.000000 0.000000 
#    y 0.000000 1.867640 0.000000 
#    z 0.000000 0.000000 2.205880 
# 
# From -- ./inp_files/37009.got.cif
#   From: 2010.05.17/outbox.cif.g08.bks.cpg/sg64_19_cif.got.tgz:37009.got - 2010.06.03 16:29:19.
