data_PCOD9477886
_publ_section_title
;
Structure prediction by ZEFSAII (Michael W. Deem and Ramdas Pophale) SiO2 
 PCOD9477886
Probable space group: C M C A
;
_chemical_formula_sum "Si O2"
_cell_formula_units_Z 96
_cell_length_a 10.874255
_cell_length_b 14.771134
_cell_length_c 29.109630
_cell_angle_alpha 90.000000
_cell_angle_beta 90.000000
_cell_angle_gamma 90.000000
_cell_volume 4675.736582
_symmetry_space_group_name_H-M "C M C A"
_symmetry_group_IT_number 64
_symmetry_cell_setting 'orthorhombic'
loop_
_space_group_symop_operation_xyz
x,y,z
-x,1/2-y,1/2+z
x,-y,-z
-x,1/2+y,1/2-z
-x,-y,-z
x,1/2+y,1/2-z
-x,y,z
x,1/2-y,1/2+z
1/2+x,1/2+y,z
1/2-x,-y,1/2+z
1/2+x,1/2-y,-z
1/2-x,y,1/2-z
1/2-x,1/2-y,-z
1/2+x,y,1/2-z
1/2-x,1/2+y,z
1/2+x,-y,1/2+z
loop_
_atom_site_type_symbol
_atom_site_label
_atom_site_fract_x
_atom_site_fract_y
_atom_site_fract_z
Si Si1 0.304677 0.000000 0.500000
Si Si2 0.000000 0.090443 0.785274
Si Si3 0.000000 0.190358 0.688436
Si Si4 0.727105 0.356752 0.150125
Si Si5 0.303438 0.957718 0.598998
Si Si6 0.693836 0.781658 0.924329
Si Si7 0.500000 0.397878 0.827079
Si Si8 0.131839 0.670706 0.978126
O O1 0.364383 0.026542 0.451230
O O2 0.224448 0.087876 0.514205
O O3 0.873467 0.122811 0.810273
O O4 0.000000 0.131050 0.734654
O O5 0.000000 0.981200 0.791270
O O6 0.133717 0.169422 0.664941
O O7 0.000000 0.299185 0.695000
O O8 0.736852 0.446902 0.119344
O O9 0.662538 0.281026 0.118092
O O10 0.196136 0.885870 0.589535
O O11 0.386745 0.912174 0.637963
O O12 0.826883 0.741717 0.939618
O O13 0.627842 0.775944 0.973358
O O14 0.000000 0.631930 0.966741
#
# Coordination Sequence:
#
# PCOD9477886 Si02
#       8
#     8   8   8  16  16  16   8  16
#     4  10  19  35  56  88 134 170 223 269 326 372
#     4  10  26  48  69 101 133 162 211 284 355 402
#     4  12  24  48  77 100 126 176 223 279 341 418
#     4  11  23  44  70  97 134 171 221 274 337 404
#     4  10  21  39  59  95 131 175 221 267 319 388
#     4  10  21  37  56  91 127 173 223 266 327 383
#     4  10  22  43  70  94 133 173 218 272 332 417
#     4  10  21  34  55  84 129 176 224 272 316 386
#
# _framework density 20.531524999999998
#
# number of rings (size 3 to 8) (size 9 to 14) (size 15 to 20)
#    0.000    1.667    3.333    0.750    3.500    0.333 
#    9.000    1.667    0.000    0.000    0.000    0.000 
#    0.000    0.000    0.000    0.000    0.000    0.000 
#
# Total GULP energy -267358.072161 kJ/mol
# GULP energy per Si atom -5569.959837 kJ/mol
# Density = 2.048479 g / cm^3
# Si number density = 20.531525 Si / 1000 Ang^3
#
#
#
# Elastic Constant Matrix: (Units=GPa)
#
#
# Indices 1 2 3 4 5 6 
#
# 1 80.0387 20.0976 13.4299 0.0000 0.0000 0.0000
# 2 20.0976 110.7353 41.3189 0.0000 0.0000 0.0000
# 3 13.4299 41.3189 98.8918 0.0000 0.0000 0.0000
# 4 0.0000 0.0000 0.0000 35.9225 0.0000 0.0000
# 5 0.0000 0.0000 0.0000 0.0000 433.6526 0.0000
# 6 0.0000 0.0000 0.0000 0.0000 0.0000 -1.1735
#
#
#
# Elastic Compliance Matrix: (Units=1/GPa)
#
#
# Indices 1 2 3 4 5 6 
#
# 1 0.013163 -0.002040 -0.000935 0.000000 0.000000 0.000000
# 2 -0.002040 0.011015 -0.004325 0.000000 0.000000 0.000000
# 3 -0.000935 -0.004325 0.012046 0.000000 0.000000 0.000000
# 4 0.000000 0.000000 0.000000 0.027838 0.000000 0.000000
# 5 0.000000 0.000000 0.000000 0.000000 0.002306 0.000000
# 6 0.000000 0.000000 0.000000 0.000000 0.000000 -0.852168
#
#
# Mechanical properties :
#
#
# Convention : Reuss Voigt Hill
#
# Bulk Modulus (GPa) = 46.24657 48.81761 47.53209
# Shear Modulus (GPa) = -6.54457 108.00162 50.72853
#
# Velocity S-wave (km/s) = -1.78731 7.26065 4.97607
# Velocity P-wave (km/s) = 4.27951 9.70144 7.49774
#
# Compressibility (1/GPa) = 0.02162322
#
# Stress axis : x y z
#
# Youngs Moduli (GPa) = 75.96974 90.78839 83.01396
#
# Poissons Ratio (x) = 0.18521 0.07764
# Poissons Ratio (y) = 0.15498 0.35904
# Poissons Ratio (z) = 0.07105 0.39267
#
# Static dielectric constant tensor:
#      x y z
#    x 1.801510 0.000000 0.000000 
#    y 0.000000 1.726500 0.000000 
#    z 0.000000 0.000000 1.745810 
# 
# From -- ./inp_files/52812.got.cif
#   From: 2010.05.17/outbox.cif.g08.bks.cpg/sg64_27_cif.got.tgz:52812.got - 2010.06.03 16:29:19.
