data_PCOD9477400
_publ_section_title
;
Structure prediction by ZEFSAII (Michael W. Deem and Ramdas Pophale) SiO2 
 PCOD9477400
Probable space group: C M C A
;
_chemical_formula_sum "Si O2"
_cell_formula_units_Z 96
_cell_length_a 8.721898
_cell_length_b 27.758276
_cell_length_c 24.506949
_cell_angle_alpha 90.000000
_cell_angle_beta 90.000000
_cell_angle_gamma 90.000000
_cell_volume 5933.251259
_symmetry_space_group_name_H-M "C M C A"
_symmetry_group_IT_number 64
_symmetry_cell_setting 'orthorhombic'
loop_
_space_group_symop_operation_xyz
x,y,z
-x,1/2-y,1/2+z
x,-y,-z
-x,1/2+y,1/2-z
-x,-y,-z
x,1/2+y,1/2-z
-x,y,z
x,1/2-y,1/2+z
1/2+x,1/2+y,z
1/2-x,-y,1/2+z
1/2+x,1/2-y,-z
1/2-x,y,1/2-z
1/2-x,1/2-y,-z
1/2+x,y,1/2-z
1/2-x,1/2+y,z
1/2+x,-y,1/2+z
loop_
_atom_site_type_symbol
_atom_site_label
_atom_site_fract_x
_atom_site_fract_y
_atom_site_fract_z
Si Si1 0.816858 0.772613 0.582355
Si Si2 0.684876 0.020932 0.418785
Si Si3 0.183979 0.185732 0.191244
Si Si4 0.682780 0.674148 0.979139
Si Si5 0.817138 0.429380 0.025893
Si Si6 0.184173 0.073342 0.191687
O O1 0.752179 0.783856 0.641760
O O2 0.740794 0.808464 0.538400
O O3 0.782800 0.718549 0.561443
O O4 0.000000 0.779115 0.581113
O O5 0.500000 0.021064 0.422364
O O6 0.750766 0.054476 0.467008
O O7 0.732038 0.041626 0.360061
O O8 0.747744 0.967819 0.431661
O O9 0.250000 0.200369 0.250000
O O10 0.228210 0.129379 0.182904
O O11 0.000000 0.188773 0.191466
O O12 0.500000 0.666982 0.980927
O O13 0.764186 0.624804 0.963045
O O14 0.000000 0.433362 0.025117
O O15 0.250000 0.057715 0.250000
O O16 0.000000 0.071810 0.194631
#
# Coordination Sequence:
#
# PCOD9477400 Si02
#       6
#    16  16  16  16  16  16
#     4  10  20  33  51  75 100 128 164 204 246 293
#     4  10  19  33  51  72 100 132 163 198 245 294
#     4  10  19  32  50  73 102 133 165 200 242 291
#     4  10  20  34  51  72 100 132 163 199 246 296
#     4  11  21  32  49  74 100 129 165 203 243 287
#     4   9  19  32  49  72  97 128 161 195 237 285
#
# _framework density 16.179998000000001
#
# number of rings (size 3 to 8) (size 9 to 14) (size 15 to 20)
#    0.000    2.000    0.000    5.500    0.000    5.333 
#    0.000    0.000    0.000    1.000    0.000    4.667 
#    0.000    0.000    0.000    0.000    0.000    0.000 
#
# Total GULP energy -267975.537997 kJ/mol
# GULP energy per Si atom -5582.823708 kJ/mol
# Density = 1.614317 g / cm^3
# Si number density = 16.179998 Si / 1000 Ang^3
#
#
#
# Elastic Constant Matrix: (Units=GPa)
#
#
# Indices 1 2 3 4 5 6 
#
# 1 70.6298 38.9147 44.3087 0.0000 0.0000 0.0000
# 2 38.9147 77.5009 56.3069 0.0000 0.0000 0.0000
# 3 44.3087 56.3069 142.1105 0.0000 0.0000 0.0000
# 4 0.0000 0.0000 0.0000 19.4942 0.0000 0.0000
# 5 0.0000 0.0000 0.0000 0.0000 29.3296 0.0000
# 6 0.0000 0.0000 0.0000 0.0000 0.0000 23.9446
#
#
#
# Elastic Compliance Matrix: (Units=1/GPa)
#
#
# Indices 1 2 3 4 5 6 
#
# 1 0.020598 -0.007971 -0.003264 0.000000 0.000000 0.000000
# 2 -0.007971 0.021204 -0.005916 0.000000 0.000000 0.000000
# 3 -0.003264 -0.005916 0.010398 0.000000 0.000000 0.000000
# 4 0.000000 0.000000 0.000000 0.051297 0.000000 0.000000
# 5 0.000000 0.000000 0.000000 0.000000 0.034095 0.000000
# 6 0.000000 0.000000 0.000000 0.000000 0.000000 0.041763
#
#
# Mechanical properties :
#
#
# Convention : Reuss Voigt Hill
#
# Bulk Modulus (GPa) = 55.87271 63.25575 59.56423
# Shear Modulus (GPa) = 22.76621 24.60107 23.68364
#
# Velocity S-wave (km/s) = 3.75515 3.90354 3.83006
# Velocity P-wave (km/s) = 7.30811 7.71341 7.51349
#
# Compressibility (1/GPa) = 0.01789783
#
# Stress axis : x y z
#
# Youngs Moduli (GPa) = 48.54898 47.16148 96.16851
#
# Poissons Ratio (x) = 0.37594 0.31388
# Poissons Ratio (y) = 0.38700 0.56893
# Poissons Ratio (z) = 0.15845 0.27901
#
# Static dielectric constant tensor:
#      x y z
#    x 1.541220 0.000000 0.000000 
#    y 0.000000 1.535730 0.000000 
#    z 0.000000 0.000000 1.520180 
# 
# From -- ./inp_files/43201.got.cif
#   From: 2010.05.17/outbox.cif.g08.bks.cpg/sg64_22_cif.got.tgz:43201.got - 2010.06.03 16:29:19.
