data_PCOD9477362
_publ_section_title
;
Structure prediction by ZEFSAII (Michael W. Deem and Ramdas Pophale) SiO2 
 PCOD9477362
Probable space group: C M C A
;
_chemical_formula_sum "Si O2"
_cell_formula_units_Z 96
_cell_length_a 14.552672
_cell_length_b 17.861620
_cell_length_c 15.861014
_cell_angle_alpha 90.000000
_cell_angle_beta 90.000000
_cell_angle_gamma 90.000000
_cell_volume 4122.821528
_symmetry_space_group_name_H-M "C M C A"
_symmetry_group_IT_number 64
_symmetry_cell_setting 'orthorhombic'
loop_
_space_group_symop_operation_xyz
x,y,z
-x,1/2-y,1/2+z
x,-y,-z
-x,1/2+y,1/2-z
-x,-y,-z
x,1/2+y,1/2-z
-x,y,z
x,1/2-y,1/2+z
1/2+x,1/2+y,z
1/2-x,-y,1/2+z
1/2+x,1/2-y,-z
1/2-x,y,1/2-z
1/2-x,1/2-y,-z
1/2+x,y,1/2-z
1/2-x,1/2+y,z
1/2+x,-y,1/2+z
loop_
_atom_site_type_symbol
_atom_site_label
_atom_site_fract_x
_atom_site_fract_y
_atom_site_fract_z
Si Si1 0.611564 0.072525 0.554036
Si Si2 0.353422 0.219108 0.444271
Si Si3 0.389214 0.526309 0.406060
Si Si4 0.107777 0.014705 0.768461
Si Si5 0.139558 0.835559 0.767181
Si Si6 0.149701 0.806080 0.592879
O O1 0.500000 0.075555 0.555281
O O2 0.642788 0.145368 0.503233
O O3 0.638480 0.000000 0.500000
O O4 0.644811 0.058491 0.650080
O O5 0.394386 0.201830 0.353060
O O6 0.247850 0.233783 0.416864
O O7 0.394976 0.282889 0.504315
O O8 0.374572 0.500000 0.500000
O O9 0.500000 0.539864 0.395957
O O10 0.358910 0.474340 0.327886
O O11 0.337805 0.605075 0.401760
O O12 0.117404 0.924094 0.777624
O O13 0.000000 0.032315 0.767981
O O14 0.250000 0.831502 0.750000
O O15 0.102972 0.793745 0.683152
#
# Coordination Sequence:
#
# PCOD9477362 Si02
#       6
#    16  16  16  16  16  16
#     4  10  19  31  52  81 106 130 163 208 265 313
#     4  10  19  34  52  72 105 137 167 212 256 301
#     4   9  18  35  56  74  99 136 175 213 253 303
#     4   9  17  32  52  75 103 130 164 210 257 305
#     4   9  17  32  52  70  97 136 173 204 247 308
#     4   9  20  35  51  74 100 137 174 208 252 305
#
# _framework density 23.285025000000001
#
# number of rings (size 3 to 8) (size 9 to 14) (size 15 to 20)
#    0.000    2.667    1.667    0.000    0.000    1.333 
#    6.000    0.000    0.000    0.000    0.000    0.000 
#    0.000    0.000    0.000    0.000    0.000    0.000 
#
# Total GULP energy -267352.974755 kJ/mol
# GULP energy per Si atom -5569.853641 kJ/mol
# Density = 2.323203 g / cm^3
# Si number density = 23.285025 Si / 1000 Ang^3
#
#
#
# Elastic Constant Matrix: (Units=GPa)
#
#
# Indices 1 2 3 4 5 6 
#
# 1 81.1666 -1.7032 11.0794 0.0000 0.0000 0.0000
# 2 -1.7032 23.0848 45.1582 0.0000 0.0000 0.0000
# 3 11.0794 45.1582 274.9841 0.0000 0.0000 0.0000
# 4 0.0000 0.0000 0.0000 46.4673 0.0000 0.0000
# 5 0.0000 0.0000 0.0000 0.0000 -57.9542 0.0000
# 6 0.0000 0.0000 0.0000 0.0000 0.0000 23.6770
#
#
#
# Elastic Compliance Matrix: (Units=1/GPa)
#
#
# Indices 1 2 3 4 5 6 
#
# 1 0.012511 0.002813 -0.000966 0.000000 0.000000 0.000000
# 2 0.002813 0.064453 -0.010698 0.000000 0.000000 0.000000
# 3 -0.000966 -0.010698 0.005432 0.000000 0.000000 0.000000
# 4 0.000000 0.000000 0.000000 0.021520 0.000000 0.000000
# 5 0.000000 0.000000 0.000000 0.000000 -0.017255 0.000000
# 6 0.000000 0.000000 0.000000 0.000000 0.000000 0.042235
#
#
# Mechanical properties :
#
#
# Convention : Reuss Voigt Hill
#
# Bulk Modulus (GPa) = 15.45729 54.25603 34.85666
# Shear Modulus (GPa) = 29.73283 24.08476 26.90880
#
# Velocity S-wave (km/s) = 3.57726 3.21961 3.40314
# Velocity P-wave (km/s) = 4.86982 6.09694 5.51760
#
# Compressibility (1/GPa) = 0.06469440
#
# Stress axis : x y z
#
# Youngs Moduli (GPa) = 79.92822 15.51516 184.08360
#
# Poissons Ratio (x) = -0.04364 0.17783
# Poissons Ratio (y) = -0.22482 1.96931
# Poissons Ratio (z) = 0.07721 0.16598
#
# Static dielectric constant tensor:
#      x y z
#    x 1.905250 0.000000 0.000000 
#    y 0.000000 1.857180 0.000000 
#    z 0.000000 0.000000 2.048990 
# 
# From -- ./inp_files/26660.got.cif
#   From: 2010.05.17/outbox.cif.g08.bks.cpg/sg64_14_cif.got.tgz:26660.got - 2010.06.03 16:29:19.
