data_PCOD9477729
_publ_section_title
;
Structure prediction by ZEFSAII (Michael W. Deem and Ramdas Pophale) SiO2 
 PCOD9477729
Probable space group: C M C A
;
_chemical_formula_sum "Si O2"
_cell_formula_units_Z 104
_cell_length_a 23.617218
_cell_length_b 22.470887
_cell_length_c 8.755409
_cell_angle_alpha 90.000000
_cell_angle_beta 90.000000
_cell_angle_gamma 90.000000
_cell_volume 4646.494129
_symmetry_space_group_name_H-M "C M C A"
_symmetry_group_IT_number 64
_symmetry_cell_setting 'orthorhombic'
loop_
_space_group_symop_operation_xyz
x,y,z
-x,1/2-y,1/2+z
x,-y,-z
-x,1/2+y,1/2-z
-x,-y,-z
x,1/2+y,1/2-z
-x,y,z
x,1/2-y,1/2+z
1/2+x,1/2+y,z
1/2-x,-y,1/2+z
1/2+x,1/2-y,-z
1/2-x,y,1/2-z
1/2-x,1/2-y,-z
1/2+x,y,1/2-z
1/2-x,1/2+y,z
1/2+x,-y,1/2+z
loop_
_atom_site_type_symbol
_atom_site_label
_atom_site_fract_x
_atom_site_fract_y
_atom_site_fract_z
Si Si1 0.568292 0.183795 0.613800
Si Si2 0.395938 0.500000 0.500000
Si Si3 0.591527 0.434574 0.951901
Si Si4 0.321573 0.669417 0.378788
Si Si5 0.059080 0.384475 0.875380
Si Si6 0.810341 0.458865 0.757653
Si Si7 0.644331 0.255354 0.369305
O O1 0.500000 0.194366 0.618745
O O2 0.579098 0.113973 0.579951
O O3 0.601749 0.216889 0.475517
O O4 0.603105 0.205748 0.761419
O O5 0.432143 0.559585 0.486779
O O6 0.355074 0.497430 0.646769
O O7 0.562615 0.411068 0.795896
O O8 0.657474 0.440686 0.897814
O O9 0.572422 0.500000 0.000000
O O10 0.389390 0.659091 0.391834
O O11 0.299784 0.602862 0.351617
O O12 0.317698 0.710356 0.230907
O O13 0.311809 0.704969 0.532831
O O14 0.000000 0.353802 0.901599
O O15 0.750000 0.489428 0.750000
#
# Coordination Sequence:
#
# PCOD9477729 Si02
#       7
#    16   8  16  16  16  16  16
#     4  11  21  35  57  88 120 161 200 234 288 347
#     4   8  19  36  56  84 104 144 193 238 286 352
#     4  10  22  37  54  82 118 152 193 241 291 355
#     4   9  20  37  57  83 116 154 191 240 290 343
#     4  10  19  34  54  80 120 157 189 230 288 349
#     4  10  21  40  62  81 108 147 194 253 306 350
#     4  10  20  36  58  82 121 154 198 243 281 342
#
# _framework density 22.382466999999998
#
# number of rings (size 3 to 8) (size 9 to 14) (size 15 to 20)
#    0.000    2.462    3.077    1.154    1.077    9.231 
#    0.000    0.769    0.000    0.000    0.000    0.000 
#    0.000    0.000    0.000    0.000    0.000    0.000 
#
# Total GULP energy -290213.255367 kJ/mol
# GULP energy per Si atom -5581.024142 kJ/mol
# Density = 2.233152 g / cm^3
# Si number density = 22.382467 Si / 1000 Ang^3
#
#
#
# Elastic Constant Matrix: (Units=GPa)
#
#
# Indices 1 2 3 4 5 6 
#
# 1 68.9569 -34.0207 -13.8310 0.0000 0.0000 0.0000
# 2 -34.0207 94.2067 26.5150 0.0000 0.0000 0.0000
# 3 -13.8310 26.5150 74.4143 0.0000 0.0000 0.0000
# 4 0.0000 0.0000 0.0000 34.1358 0.0000 0.0000
# 5 0.0000 0.0000 0.0000 0.0000 -4.3799 0.0000
# 6 0.0000 0.0000 0.0000 0.0000 0.0000 -7.1511
#
#
#
# Elastic Compliance Matrix: (Units=1/GPa)
#
#
# Indices 1 2 3 4 5 6 
#
# 1 0.017730 0.006086 0.001127 0.000000 0.000000 0.000000
# 2 0.006086 0.013887 -0.003817 0.000000 0.000000 0.000000
# 3 0.001127 -0.003817 0.015008 0.000000 0.000000 0.000000
# 4 0.000000 0.000000 0.000000 0.029295 0.000000 0.000000
# 5 0.000000 0.000000 0.000000 0.000000 -0.228317 0.000000
# 6 0.000000 0.000000 0.000000 0.000000 0.000000 -0.139839
#
#
# Mechanical properties :
#
#
# Convention : Reuss Voigt Hill
#
# Bulk Modulus (GPa) = 18.72079 21.65605 20.18842
# Shear Modulus (GPa) = -17.77953 21.78196 2.00121
#
# Velocity S-wave (km/s) = -2.82148 3.12295 0.94659
# Velocity P-wave (km/s) = 1.49403 4.76448 3.19907
#
# Compressibility (1/GPa) = 0.05341654
#
# Stress axis : x y z
#
# Youngs Moduli (GPa) = 56.40053 72.00972 66.63199
#
# Poissons Ratio (x) = -0.43823 -0.07509
# Poissons Ratio (y) = -0.34324 0.25434
# Poissons Ratio (z) = -0.06356 0.27486
#
# Static dielectric constant tensor:
#      x y z
#    x 1.828680 0.000000 0.000000 
#    y 0.000000 1.835190 0.000000 
#    z 0.000000 0.000000 1.905030 
# 
# From -- ./inp_files/10604.got.cif
#   From: 2010.05.17/outbox.cif.g08.bks.cpg/sg64_6_cif.got.tgz:10604.got - 2010.06.03 16:29:19.
