data_PCOD9477882
_publ_section_title
;
Structure prediction by ZEFSAII (Michael W. Deem and Ramdas Pophale) SiO2 
 PCOD9477882
Probable space group: C M C A
;
_chemical_formula_sum "Si O2"
_cell_formula_units_Z 96
_cell_length_a 15.983030
_cell_length_b 9.078706
_cell_length_c 27.024428
_cell_angle_alpha 90.000000
_cell_angle_beta 90.000000
_cell_angle_gamma 90.000000
_cell_volume 3921.385850
_symmetry_space_group_name_H-M "C M C A"
_symmetry_group_IT_number 64
_symmetry_cell_setting 'orthorhombic'
loop_
_space_group_symop_operation_xyz
x,y,z
-x,1/2-y,1/2+z
x,-y,-z
-x,1/2+y,1/2-z
-x,-y,-z
x,1/2+y,1/2-z
-x,y,z
x,1/2-y,1/2+z
1/2+x,1/2+y,z
1/2-x,-y,1/2+z
1/2+x,1/2-y,-z
1/2-x,y,1/2-z
1/2-x,1/2-y,-z
1/2+x,y,1/2-z
1/2-x,1/2+y,z
1/2+x,-y,1/2+z
loop_
_atom_site_type_symbol
_atom_site_label
_atom_site_fract_x
_atom_site_fract_y
_atom_site_fract_z
Si Si1 0.411227 0.090701 0.052241
Si Si2 0.231598 0.088172 0.050920
Si Si3 0.500000 0.655462 0.824537
Si Si4 0.500000 0.349921 0.759086
Si Si5 0.841393 0.201370 0.184948
Si Si6 0.410640 0.222098 0.917064
Si Si7 0.311982 0.404860 0.150067
O O1 0.500000 0.169831 0.056581
O O2 0.408318 0.952555 0.089596
O O3 0.322139 0.163746 0.057995
O O4 0.412041 0.000000 0.000000
O O5 0.162486 0.214293 0.049989
O O6 0.214439 0.981315 0.097880
O O7 0.230255 0.000000 0.000000
O O8 0.500000 0.511491 0.785910
O O9 0.500000 0.817422 0.799108
O O10 0.409489 0.645359 0.851865
O O11 0.412222 0.269060 0.774411
O O12 0.898542 0.205561 0.135689
O O13 0.759495 0.294047 0.169616
O O14 0.810446 0.035545 0.190572
O O15 0.500000 0.262157 0.938953
#
# Coordination Sequence:
#
# PCOD9477882 Si02
#       7
#    16  16   8   8  16  16  16
#     4   9  18  33  53  76 110 153 203 258 303 352
#     4  10  21  34  56  87 121 163 214 256 302 362
#     4  10  24  44  69  92 132 156 201 258 316 380
#     4  10  22  42  70  96 117 164 201 246 314 384
#     4  10  20  39  64  91 119 163 205 247 308 376
#     4  10  19  35  56  79 113 159 204 253 300 361
#     4  10  22  41  62  91 129 167 203 259 310 360
#
# _framework density 24.481141999999998
#
# number of rings (size 3 to 8) (size 9 to 14) (size 15 to 20)
#    0.000    2.167    2.500    0.000    3.500    5.000 
#    0.000    3.333    5.500    1.000    0.000    0.000 
#    0.000    0.000    0.000    0.000    0.000    0.000 
#
# Total GULP energy -267724.729573 kJ/mol
# GULP energy per Si atom -5577.598533 kJ/mol
# Density = 2.442542 g / cm^3
# Si number density = 24.481142 Si / 1000 Ang^3
#
#
#
# Elastic Constant Matrix: (Units=GPa)
#
#
# Indices 1 2 3 4 5 6 
#
# 1 283.5536 54.3371 30.6283 0.0000 0.0000 0.0000
# 2 54.3371 45.3700 4.7138 0.0000 0.0000 0.0000
# 3 30.6283 4.7138 37.3785 0.0000 0.0000 0.0000
# 4 0.0000 0.0000 0.0000 27.6178 0.0000 0.0000
# 5 0.0000 0.0000 0.0000 0.0000 30.4977 0.0000
# 6 0.0000 0.0000 0.0000 0.0000 0.0000 -34.0538
#
#
#
# Elastic Compliance Matrix: (Units=1/GPa)
#
#
# Indices 1 2 3 4 5 6 
#
# 1 0.004961 -0.005593 -0.003360 0.000000 0.000000 0.000000
# 2 -0.005593 0.028638 0.000971 0.000000 0.000000 0.000000
# 3 -0.003360 0.000971 0.029384 0.000000 0.000000 0.000000
# 4 0.000000 0.000000 0.000000 0.036208 0.000000 0.000000
# 5 0.000000 0.000000 0.000000 0.000000 0.032789 0.000000
# 6 0.000000 0.000000 0.000000 0.000000 0.000000 -0.029365
#
#
# Mechanical properties :
#
#
# Convention : Reuss Voigt Hill
#
# Bulk Modulus (GPa) = 21.26734 60.62895 40.94815
# Shear Modulus (GPa) = 37.24304 23.25386 30.24845
#
# Velocity S-wave (km/s) = 3.90461 3.08534 3.51890
# Velocity P-wave (km/s) = 5.38833 6.12468 5.76827
#
# Compressibility (1/GPa) = 0.04702045
#
# Stress axis : x y z
#
# Youngs Moduli (GPa) = 201.55749 34.91821 34.03201
#
# Poissons Ratio (x) = 0.19529 0.11435
# Poissons Ratio (y) = 1.12728 -0.03305
# Poissons Ratio (z) = 0.67725 -0.03391
#
# Static dielectric constant tensor:
#      x y z
#    x 2.005060 0.000000 0.000000 
#    y 0.000000 2.024730 0.000000 
#    z 0.000000 0.000000 1.992370 
# 
# From -- ./inp_files/53218.got.cif
#   From: 2010.05.17/outbox.cif.g08.bks.cpg/sg64_27_cif.got.tgz:53218.got - 2010.06.03 16:29:19.
