data_PCOD9477377
_publ_section_title
;
Structure prediction by ZEFSAII (Michael W. Deem and Ramdas Pophale) SiO2 
 PCOD9477377
Probable space group: C M C A
;
_chemical_formula_sum "Si O2"
_cell_formula_units_Z 128
_cell_length_a 18.489511
_cell_length_b 22.362052
_cell_length_c 16.658181
_cell_angle_alpha 90.000000
_cell_angle_beta 90.000000
_cell_angle_gamma 90.000000
_cell_volume 6887.548261
_symmetry_space_group_name_H-M "C M C A"
_symmetry_group_IT_number 64
_symmetry_cell_setting 'orthorhombic'
loop_
_space_group_symop_operation_xyz
x,y,z
-x,1/2-y,1/2+z
x,-y,-z
-x,1/2+y,1/2-z
-x,-y,-z
x,1/2+y,1/2-z
-x,y,z
x,1/2-y,1/2+z
1/2+x,1/2+y,z
1/2-x,-y,1/2+z
1/2+x,1/2-y,-z
1/2-x,y,1/2-z
1/2-x,1/2-y,-z
1/2+x,y,1/2-z
1/2-x,1/2+y,z
1/2+x,-y,1/2+z
loop_
_atom_site_type_symbol
_atom_site_label
_atom_site_fract_x
_atom_site_fract_y
_atom_site_fract_z
Si Si1 0.158630 0.528696 0.084520
Si Si2 0.180019 0.174589 0.016694
Si Si3 0.916827 0.846121 0.582330
Si Si4 0.164258 0.305043 0.062670
Si Si5 0.414510 0.780924 0.366938
Si Si6 0.168015 0.459699 0.575032
Si Si7 0.331959 0.849351 0.236985
Si Si8 0.334430 0.011919 0.742203
O O1 0.132688 0.596580 0.090288
O O2 0.245822 0.526442 0.080596
O O3 0.133658 0.499862 0.169025
O O4 0.132315 0.500000 0.000000
O O5 0.171388 0.233281 0.073021
O O6 0.161386 0.110731 0.055212
O O7 0.262487 0.175111 0.983829
O O8 0.129992 0.188763 0.939462
O O9 0.903121 0.819497 0.493925
O O10 0.896300 0.789538 0.636779
O O11 0.000000 0.862113 0.595260
O O12 0.156747 0.342637 0.142813
O O13 0.500000 0.786181 0.381034
O O14 0.389187 0.811390 0.285822
O O15 0.140518 0.500000 0.500000
O O16 0.136780 0.479183 0.662120
O O17 0.250000 0.826982 0.250000
O O18 0.335660 0.916867 0.269217
O O19 0.250000 0.993695 0.750000
#
# Coordination Sequence:
#
# PCOD9477377 Si02
#       8
#    16  16  16  16  16  16  16  16
#     4  10  19  33  53  78 112 149 186 231 283 339
#     4  10  19  35  56  81 109 141 188 232 277 331
#     4  10  21  37  54  76 112 148 180 224 285 342
#     4  10  20  33  56  85 105 138 188 236 274 329
#     4  10  22  38  56  81 113 148 182 229 287 340
#     4  10  19  31  55  81 112 148 183 239 288 329
#     4  11  20  34  58  83 112 144 186 232 281 329
#     4   9  20  32  50  84 113 142 190 238 281 333
#
# _framework density 18.584261999999999
#
# number of rings (size 3 to 8) (size 9 to 14) (size 15 to 20)
#    0.000    2.000    2.500    1.500    3.500    1.750 
#    0.000    1.875    0.000    4.125    0.000    0.000 
#    0.000    0.000    0.000    0.000    0.000    0.000 
#
# Total GULP energy -356666.227488 kJ/mol
# GULP energy per Si atom -5572.909805 kJ/mol
# Density = 1.854196 g / cm^3
# Si number density = 18.584262 Si / 1000 Ang^3
#
#
#
# Elastic Constant Matrix: (Units=GPa)
#
#
# Indices 1 2 3 4 5 6 
#
# 1 17.1760 8.8221 7.1767 0.0000 0.0000 0.0000
# 2 8.8221 61.1042 29.4915 0.0000 0.0000 0.0000
# 3 7.1767 29.4915 75.5051 0.0000 0.0000 0.0000
# 4 0.0000 0.0000 0.0000 31.0133 0.0000 0.0000
# 5 0.0000 0.0000 0.0000 0.0000 9.0416 0.0000
# 6 0.0000 0.0000 0.0000 0.0000 0.0000 -3.3019
#
#
#
# Elastic Compliance Matrix: (Units=1/GPa)
#
#
# Indices 1 2 3 4 5 6 
#
# 1 0.063439 -0.007701 -0.003022 0.000000 0.000000 0.000000
# 2 -0.007701 0.021102 -0.007510 0.000000 0.000000 0.000000
# 3 -0.003022 -0.007510 0.016465 0.000000 0.000000 0.000000
# 4 0.000000 0.000000 0.000000 0.032244 0.000000 0.000000
# 5 0.000000 0.000000 0.000000 0.000000 0.110600 0.000000
# 6 0.000000 0.000000 0.000000 0.000000 0.000000 -0.302860
#
#
# Mechanical properties :
#
#
# Convention : Reuss Voigt Hill
#
# Bulk Modulus (GPa) = 15.49431 27.19622 21.34527
# Shear Modulus (GPa) = -4851.09322 14.57026 -2418.26148
#
# Velocity S-wave (km/s) = -51.14675 2.80306 -36.11186
# Velocity P-wave (km/s) = 58.98840 5.01417 41.56013
#
# Compressibility (1/GPa) = 0.06453981
#
# Stress axis : x y z
#
# Youngs Moduli (GPa) = 15.76323 47.38871 60.73550
#
# Poissons Ratio (x) = 0.36492 0.18355
# Poissons Ratio (y) = 0.12139 0.45614
# Poissons Ratio (z) = 0.04764 0.35590
#
# Static dielectric constant tensor:
#      x y z
#    x 1.619350 0.000000 0.000000 
#    y 0.000000 1.655950 0.000000 
#    z 0.000000 0.000000 2.133180 
# 
# From -- ./inp_files/34681.got.cif
#   From: 2010.05.17/outbox.cif.g08.bks.cpg/sg64_18_cif.got.tgz:34681.got - 2010.06.03 16:29:19.
