data_PCOD9477905
_publ_section_title
;
Structure prediction by ZEFSAII (Michael W. Deem and Ramdas Pophale) SiO2 
 PCOD9477905
Probable space group: C M C A
;
_chemical_formula_sum "Si O2"
_cell_formula_units_Z 96
_cell_length_a 8.526776
_cell_length_b 21.221033
_cell_length_c 29.053855
_cell_angle_alpha 90.000000
_cell_angle_beta 90.000000
_cell_angle_gamma 90.000000
_cell_volume 5257.207752
_symmetry_space_group_name_H-M "C M C A"
_symmetry_group_IT_number 64
_symmetry_cell_setting 'orthorhombic'
loop_
_space_group_symop_operation_xyz
x,y,z
-x,1/2-y,1/2+z
x,-y,-z
-x,1/2+y,1/2-z
-x,-y,-z
x,1/2+y,1/2-z
-x,y,z
x,1/2-y,1/2+z
1/2+x,1/2+y,z
1/2-x,-y,1/2+z
1/2+x,1/2-y,-z
1/2-x,y,1/2-z
1/2-x,1/2-y,-z
1/2+x,y,1/2-z
1/2-x,1/2+y,z
1/2+x,-y,1/2+z
loop_
_atom_site_type_symbol
_atom_site_label
_atom_site_fract_x
_atom_site_fract_y
_atom_site_fract_z
Si Si1 0.308834 0.127145 0.950842
Si Si2 0.312030 0.250049 0.893716
Si Si3 0.687798 0.198674 0.700072
Si Si4 0.687527 0.447908 0.200154
Si Si5 0.189539 0.996096 0.394170
Si Si6 0.310161 0.374713 0.557074
O O1 0.500000 0.126732 0.950781
O O2 0.257915 0.189969 0.924141
O O3 0.257564 0.064601 0.923741
O O4 0.257888 0.126784 0.003859
O O5 0.500000 0.250560 0.893884
O O6 0.252886 0.238920 0.842022
O O7 0.249835 0.313909 0.916015
O O8 0.500000 0.200483 0.699999
O O9 0.750000 0.218789 0.750000
O O10 0.738399 0.125365 0.693417
O O11 0.500000 0.449340 0.200508
O O12 0.750000 0.468268 0.250000
O O13 0.750990 0.487788 0.157625
O O14 0.000000 0.995433 0.393669
O O15 0.240549 0.060746 0.418226
O O16 0.500000 0.373830 0.557088
#
# Coordination Sequence:
#
# PCOD9477905 Si02
#       6
#    16  16  16  16  16  16
#     4   9  18  34  57  82 107 145 193 231 269 321
#     4  11  21  35  56  82 114 148 183 229 276 326
#     4  10  20  35  57  84 111 141 180 226 275 328
#     4  10  20  34  56  84 112 141 178 226 275 327
#     4  10  19  35  58  82 111 146 186 229 273 324
#     4  10  21  36  55  80 113 151 188 228 274 326
#
# _framework density 18.260643999999999
#
# number of rings (size 3 to 8) (size 9 to 14) (size 15 to 20)
#    0.000    2.000    1.667    2.500    0.000    4.000 
#    0.000    2.500    0.000    6.000    0.000    0.000 
#    0.000    0.000    0.000    0.000    0.000    0.000 
#
# Total GULP energy -268068.799840 kJ/mol
# GULP energy per Si atom -5584.766663 kJ/mol
# Density = 1.821908 g / cm^3
# Si number density = 18.260644 Si / 1000 Ang^3
#
#
#
# Elastic Constant Matrix: (Units=GPa)
#
#
# Indices 1 2 3 4 5 6 
#
# 1 19.0064 23.4607 25.6102 0.0000 0.0000 0.0000
# 2 23.4607 141.9339 93.9266 0.0000 0.0000 0.0000
# 3 25.6102 93.9266 191.8739 0.0000 0.0000 0.0000
# 4 0.0000 0.0000 0.0000 1.1688 0.0000 0.0000
# 5 0.0000 0.0000 0.0000 0.0000 22.2980 0.0000
# 6 0.0000 0.0000 0.0000 0.0000 0.0000 21.6285
#
#
#
# Elastic Compliance Matrix: (Units=1/GPa)
#
#
# Indices 1 2 3 4 5 6 
#
# 1 0.069713 -0.007937 -0.005420 0.000000 0.000000 0.000000
# 2 -0.007937 0.011325 -0.004485 0.000000 0.000000 0.000000
# 3 -0.005420 -0.004485 0.008130 0.000000 0.000000 0.000000
# 4 0.000000 0.000000 0.000000 0.855557 0.000000 0.000000
# 5 0.000000 0.000000 0.000000 0.000000 0.044847 0.000000
# 6 0.000000 0.000000 0.000000 0.000000 0.000000 0.046235
#
#
# Mechanical properties :
#
#
# Convention : Reuss Voigt Hill
#
# Bulk Modulus (GPa) = 18.69608 70.97882 44.83745
# Shear Modulus (GPa) = 4.59002 23.00684 13.79843
#
# Velocity S-wave (km/s) = 1.58716 3.55338 2.75187
# Velocity P-wave (km/s) = 3.69045 7.46924 5.89105
#
# Compressibility (1/GPa) = 0.05348715
#
# Stress axis : x y z
#
# Youngs Moduli (GPa) = 14.34443 88.29931 122.99403
#
# Poissons Ratio (x) = 0.70079 0.66661
# Poissons Ratio (y) = 0.11384 0.55158
# Poissons Ratio (z) = 0.07774 0.39599
#
# Static dielectric constant tensor:
#      x y z
#    x 1.622050 0.000000 0.000000 
#    y 0.000000 1.607190 0.000000 
#    z 0.000000 0.000000 1.603280 
# 
# From -- ./inp_files/48027.got.cif
#   From: 2010.05.17/outbox.cif.g08.bks.cpg/sg64_25_cif.got.tgz:48027.got - 2010.06.03 16:29:19.
