data_PCOD9477755
_publ_section_title
;
Structure prediction by ZEFSAII (Michael W. Deem and Ramdas Pophale) SiO2 
 PCOD9477755
Probable space group: C M C A
;
_chemical_formula_sum "Si O2"
_cell_formula_units_Z 116
_cell_length_a 14.944027
_cell_length_b 25.893805
_cell_length_c 16.594459
_cell_angle_alpha 90.000000
_cell_angle_beta 90.000000
_cell_angle_gamma 90.000000
_cell_volume 6421.354037
_symmetry_space_group_name_H-M "C M C A"
_symmetry_group_IT_number 64
_symmetry_cell_setting 'orthorhombic'
loop_
_space_group_symop_operation_xyz
x,y,z
-x,1/2-y,1/2+z
x,-y,-z
-x,1/2+y,1/2-z
-x,-y,-z
x,1/2+y,1/2-z
-x,y,z
x,1/2-y,1/2+z
1/2+x,1/2+y,z
1/2-x,-y,1/2+z
1/2+x,1/2-y,-z
1/2-x,y,1/2-z
1/2-x,1/2-y,-z
1/2+x,y,1/2-z
1/2-x,1/2+y,z
1/2+x,-y,1/2+z
loop_
_atom_site_type_symbol
_atom_site_label
_atom_site_fract_x
_atom_site_fract_y
_atom_site_fract_z
Si Si1 0.608224 0.782251 0.727668
Si Si2 0.740992 0.162203 0.990119
Si Si3 0.848810 0.569785 0.434137
Si Si4 0.899057 0.421223 0.054416
Si Si5 0.162501 0.028380 0.391966
Si Si6 0.897024 0.096406 0.247043
Si Si7 0.000000 0.000000 0.000000
Si Si8 0.779416 0.243674 0.377609
O O1 0.500000 0.775615 0.714463
O O2 0.625834 0.843042 0.745520
O O3 0.678214 0.765598 0.657449
O O4 0.648219 0.754201 0.806384
O O5 0.812318 0.122979 0.028685
O O6 0.700139 0.195382 0.063770
O O7 0.667997 0.126693 0.945760
O O8 0.780309 0.204389 0.929636
O O9 0.763527 0.532882 0.422329
O O10 0.886690 0.578056 0.344491
O O11 0.922412 0.544032 0.488758
O O12 0.868658 0.469205 0.110373
O O13 0.000000 0.406387 0.073597
O O14 0.893604 0.443705 0.962935
O O15 0.155865 0.061242 0.310320
O O16 0.000000 0.091478 0.272044
#
# Coordination Sequence:
#
# PCOD9477755 Si02
#       8
#    16  16  16  16  16  16   4  16
#     4  10  21  37  60  90 119 152 194 251 310 356
#     4  10  21  38  60  87 117 161 201 243 300 360
#     4  11  21  37  58  85 117 159 194 247 295 359
#     4  10  19  34  55  85 119 158 190 238 289 345
#     4  10  20  33  57  86 121 153 195 238 298 352
#     4  11  20  34  59  92 118 145 193 249 302 348
#     4  12  24  40  60  84 126 154 208 244 308 358
#     4  10  21  38  62  87 122 154 200 256 301 357
#
# _framework density 18.064724999999999
#
# number of rings (size 3 to 8) (size 9 to 14) (size 15 to 20)
#    0.000    1.655    2.069    5.379    1.931    2.207 
#    1.241    1.379   12.138    0.000    0.000    0.000 
#    0.000    0.000    0.000    0.000    0.000    0.000 
#
# Total GULP energy -322960.183820 kJ/mol
# GULP energy per Si atom -5568.279031 kJ/mol
# Density = 1.802361 g / cm^3
# Si number density = 18.064725 Si / 1000 Ang^3
#
#
#
# Elastic Constant Matrix: (Units=GPa)
#
#
# Indices 1 2 3 4 5 6 
#
# 1 76.0198 15.6369 -3.4349 0.0000 0.0000 0.0000
# 2 15.6369 73.8363 13.4248 0.0000 0.0000 0.0000
# 3 -3.4349 13.4248 35.0289 0.0000 0.0000 0.0000
# 4 0.0000 0.0000 0.0000 19.8785 0.0000 0.0000
# 5 0.0000 0.0000 0.0000 0.0000 19.6416 0.0000
# 6 0.0000 0.0000 0.0000 0.0000 0.0000 1.2585
#
#
#
# Elastic Compliance Matrix: (Units=1/GPa)
#
#
# Indices 1 2 3 4 5 6 
#
# 1 0.013986 -0.003452 0.002694 0.000000 0.000000 0.000000
# 2 -0.003452 0.015410 -0.006244 0.000000 0.000000 0.000000
# 3 0.002694 -0.006244 0.031205 0.000000 0.000000 0.000000
# 4 0.000000 0.000000 0.000000 0.050305 0.000000 0.000000
# 5 0.000000 0.000000 0.000000 0.000000 0.050912 0.000000
# 6 0.000000 0.000000 0.000000 0.000000 0.000000 0.794622
#
#
# Mechanical properties :
#
#
# Convention : Reuss Voigt Hill
#
# Bulk Modulus (GPa) = 21.46027 26.23761 23.84894
# Shear Modulus (GPa) = 5.07111 18.77295 11.92203
#
# Velocity S-wave (km/s) = 1.67728 3.22717 2.57176
# Velocity P-wave (km/s) = 3.95683 5.33309 4.69566
#
# Compressibility (1/GPa) = 0.04659773
#
# Stress axis : x y z
#
# Youngs Moduli (GPa) = 71.49889 64.89366 32.04598
#
# Poissons Ratio (x) = 0.22400 -0.08634
# Poissons Ratio (y) = 0.24680 0.20010
# Poissons Ratio (z) = -0.19265 0.40521
#
# Static dielectric constant tensor:
#      x y z
#    x 1.650580 0.000000 0.000000 
#    y 0.000000 1.609990 0.000000 
#    z 0.000000 0.000000 1.634880 
# 
# From -- ./inp_files/32521.got.cif
#   From: 2010.05.17/outbox.cif.g08.bks.cpg/sg64_17_cif.got.tgz:32521.got - 2010.06.03 16:29:19.
