data_PCOD9477516
_publ_section_title
;
Structure prediction by ZEFSAII (Michael W. Deem and Ramdas Pophale) SiO2 
 PCOD9477516
Probable space group: C M C A
;
_chemical_formula_sum "Si O2"
_cell_formula_units_Z 104
_cell_length_a 12.710167
_cell_length_b 18.323454
_cell_length_c 24.278329
_cell_angle_alpha 90.000000
_cell_angle_beta 90.000000
_cell_angle_gamma 90.000000
_cell_volume 5654.281047
_symmetry_space_group_name_H-M "C M C A"
_symmetry_group_IT_number 64
_symmetry_cell_setting 'orthorhombic'
loop_
_space_group_symop_operation_xyz
x,y,z
-x,1/2-y,1/2+z
x,-y,-z
-x,1/2+y,1/2-z
-x,-y,-z
x,1/2+y,1/2-z
-x,y,z
x,1/2-y,1/2+z
1/2+x,1/2+y,z
1/2-x,-y,1/2+z
1/2+x,1/2-y,-z
1/2-x,y,1/2-z
1/2-x,1/2-y,-z
1/2+x,y,1/2-z
1/2-x,1/2+y,z
1/2+x,-y,1/2+z
loop_
_atom_site_type_symbol
_atom_site_label
_atom_site_fract_x
_atom_site_fract_y
_atom_site_fract_z
Si Si1 0.124626 0.422265 0.970182
Si Si2 0.878307 0.360002 0.083317
Si Si3 0.204175 0.399326 0.622565
Si Si4 0.750000 0.658374 0.750000
Si Si5 0.000000 0.905990 0.948319
Si Si6 0.876443 0.737128 0.328654
Si Si7 0.000000 0.419409 0.428562
Si Si8 0.695566 0.565190 0.853311
O O1 0.194789 0.406764 0.916897
O O2 0.000000 0.423390 0.957598
O O3 0.151215 0.500000 0.000000
O O4 0.145730 0.363331 0.018533
O O5 0.866634 0.283508 0.114571
O O6 0.803565 0.415606 0.115486
O O7 0.000000 0.382960 0.088811
O O8 0.197242 0.333629 0.665695
O O9 0.185644 0.478045 0.650408
O O10 0.105100 0.382767 0.582648
O O11 0.833710 0.709351 0.781356
O O12 0.696667 0.606791 0.795655
O O13 0.000000 0.994062 0.942313
O O14 0.000000 0.882692 0.011780
O O15 0.000000 0.719247 0.320496
O O16 0.897306 0.405390 0.392372
#
# Coordination Sequence:
#
# PCOD9477516 Si02
#       8
#    16  16  16   8   8  16   8  16
#     4  10  19  32  56  89 125 163 194 235 284 347
#     4   9  18  35  58  83 120 161 197 225 282 356
#     4  11  20  34  60  88 122 150 196 242 296 357
#     4  10  24  42  62  76 108 160 202 248 304 340
#     4   9  18  30  51  90 120 152 169 227 308 352
#     4  10  22  41  59  82 116 157 195 245 303 362
#     4   9  18  30  53  84 124 136 180 233 294 346
#     4  10  20  35  58  89 106 146 198 250 286 342
#
# _framework density 18.393142000000001
#
# number of rings (size 3 to 8) (size 9 to 14) (size 15 to 20)
#    0.000    2.154    2.308    0.923    3.231    1.231 
#    0.000    0.769    1.692    0.000    0.000    0.000 
#    0.000    0.000    0.000    0.000    0.000    0.000 
#
# Total GULP energy -289969.172088 kJ/mol
# GULP energy per Si atom -5576.330232 kJ/mol
# Density = 1.835128 g / cm^3
# Si number density = 18.393142 Si / 1000 Ang^3
#
#
#
# Elastic Constant Matrix: (Units=GPa)
#
#
# Indices 1 2 3 4 5 6 
#
# 1 68.3867 39.5605 37.9882 0.0000 0.0000 0.0000
# 2 39.5605 87.1221 50.6934 0.0000 0.0000 0.0000
# 3 37.9882 50.6934 100.0712 0.0000 0.0000 0.0000
# 4 0.0000 0.0000 0.0000 23.8368 0.0000 0.0000
# 5 0.0000 0.0000 0.0000 0.0000 16.4139 0.0000
# 6 0.0000 0.0000 0.0000 0.0000 0.0000 17.7785
#
#
#
# Elastic Compliance Matrix: (Units=1/GPa)
#
#
# Indices 1 2 3 4 5 6 
#
# 1 0.021165 -0.006998 -0.004489 0.000000 0.000000 0.000000
# 2 -0.006998 0.018590 -0.006760 0.000000 0.000000 0.000000
# 3 -0.004489 -0.006760 0.015122 0.000000 0.000000 0.000000
# 4 0.000000 0.000000 0.000000 0.041952 0.000000 0.000000
# 5 0.000000 0.000000 0.000000 0.000000 0.060924 0.000000
# 6 0.000000 0.000000 0.000000 0.000000 0.000000 0.056248
#
#
# Mechanical properties :
#
#
# Convention : Reuss Voigt Hill
#
# Bulk Modulus (GPa) = 54.40636 56.89601 55.65118
# Shear Modulus (GPa) = 19.48387 20.09503 19.78945
#
# Velocity S-wave (km/s) = 3.25822 3.30893 3.28367
# Velocity P-wave (km/s) = 6.61805 6.75271 6.68572
#
# Compressibility (1/GPa) = 0.01838020
#
# Stress axis : x y z
#
# Youngs Moduli (GPa) = 47.24792 53.79343 66.13037
#
# Poissons Ratio (x) = 0.37647 0.29687
# Poissons Ratio (y) = 0.33066 0.44706
# Poissons Ratio (z) = 0.21211 0.36366
#
# Static dielectric constant tensor:
#      x y z
#    x 1.629790 0.000000 0.000000 
#    y 0.000000 1.664700 0.000000 
#    z 0.000000 0.000000 1.638680 
# 
# From -- ./inp_files/49417.got.cif
#   From: 2010.05.17/outbox.cif.g08.bks.cpg/sg64_25_cif.got.tgz:49417.got - 2010.06.03 16:29:19.
