data_PCOD9477105
_publ_section_title
;
Structure prediction by ZEFSAII (Michael W. Deem and Ramdas Pophale) SiO2 
 PCOD9477105
Probable space group: C M C A
;
_chemical_formula_sum "Si O2"
_cell_formula_units_Z 88
_cell_length_a 14.981659
_cell_length_b 30.248727
_cell_length_c 9.009741
_cell_angle_alpha 90.000000
_cell_angle_beta 90.000000
_cell_angle_gamma 90.000000
_cell_volume 4082.999406
_symmetry_space_group_name_H-M "C M C A"
_symmetry_group_IT_number 64
_symmetry_cell_setting 'orthorhombic'
loop_
_space_group_symop_operation_xyz
x,y,z
-x,1/2-y,1/2+z
x,-y,-z
-x,1/2+y,1/2-z
-x,-y,-z
x,1/2+y,1/2-z
-x,y,z
x,1/2-y,1/2+z
1/2+x,1/2+y,z
1/2-x,-y,1/2+z
1/2+x,1/2-y,-z
1/2-x,y,1/2-z
1/2-x,1/2-y,-z
1/2+x,y,1/2-z
1/2-x,1/2+y,z
1/2+x,-y,1/2+z
loop_
_atom_site_type_symbol
_atom_site_label
_atom_site_fract_x
_atom_site_fract_y
_atom_site_fract_z
Si Si1 0.500000 0.118437 0.473714
Si Si2 0.643471 0.323740 0.111406
Si Si3 0.500000 0.684192 0.447610
Si Si4 0.000000 0.261173 0.253241
Si Si5 0.500000 0.050975 0.222310
Si Si6 0.676921 0.143427 0.935179
Si Si7 0.000000 0.545224 0.731539
Si Si8 0.345983 0.048037 0.979704
O O1 0.415269 0.149430 0.496747
O O2 0.500000 0.093627 0.320987
O O3 0.500000 0.081480 0.604171
O O4 0.587840 0.281509 0.165997
O O5 0.649990 0.352747 0.262363
O O6 0.743513 0.321032 0.050254
O O7 0.500000 0.709872 0.292470
O O8 0.500000 0.720325 0.585104
O O9 0.411124 0.655693 0.473384
O O10 0.500000 0.005886 0.316936
O O11 0.413831 0.050139 0.117425
O O12 0.708405 0.093637 0.971919
O O13 0.912548 0.549518 0.837449
O O14 0.299786 0.000000 0.000000
#
# Coordination Sequence:
#
# PCOD9477105 Si02
#       8
#     8  16   8   8   8  16   8  16
#     4  11  17  33  51  74 107 146 172 231 274 326
#     4   9  20  34  59  80 111 139 192 228 261 327
#     4  10  20  36  64  81 114 135 184 224 277 346
#     4   9  20  39  56  91 106 143 174 227 282 327
#     4   9  19  27  47  78 110 139 179 232 280 318
#     4  10  18  36  60  85 101 152 193 224 262 327
#     4   9  15  29  51  74  98 142 193 227 263 320
#     4   9  17  32  53  78 109 145 192 232 263 318
#
# _framework density 21.552783999999999
#
# number of rings (size 3 to 8) (size 9 to 14) (size 15 to 20)
#    0.000    2.545    1.818    3.000    0.000    0.727 
#    6.545    2.727    0.000    0.000    0.000    0.000 
#    0.000    0.000    0.000    0.000    0.000    0.000 
#
# Total GULP energy -245472.375090 kJ/mol
# GULP energy per Si atom -5578.917616 kJ/mol
# Density = 2.150373 g / cm^3
# Si number density = 21.552784 Si / 1000 Ang^3
#
#
#
# Elastic Constant Matrix: (Units=GPa)
#
#
# Indices 1 2 3 4 5 6 
#
# 1 76.5447 11.0614 0.3891 0.0000 0.0000 0.0000
# 2 11.0614 62.6880 14.6360 0.0000 0.0000 0.0000
# 3 0.3891 14.6360 43.7258 0.0000 0.0000 0.0000
# 4 0.0000 0.0000 0.0000 40.4172 0.0000 0.0000
# 5 0.0000 0.0000 0.0000 0.0000 1.2482 0.0000
# 6 0.0000 0.0000 0.0000 0.0000 0.0000 5.5768
#
#
#
# Elastic Compliance Matrix: (Units=1/GPa)
#
#
# Indices 1 2 3 4 5 6 
#
# 1 0.013428 -0.002540 0.000731 0.000000 0.000000 0.000000
# 2 -0.002540 0.017785 -0.005930 0.000000 0.000000 0.000000
# 3 0.000731 -0.005930 0.024848 0.000000 0.000000 0.000000
# 4 0.000000 0.000000 0.000000 0.024742 0.000000 0.000000
# 5 0.000000 0.000000 0.000000 0.000000 0.801152 0.000000
# 6 0.000000 0.000000 0.000000 0.000000 0.000000 0.179314
#
#
# Mechanical properties :
#
#
# Convention : Reuss Voigt Hill
#
# Bulk Modulus (GPa) = 24.64180 26.12574 25.38377
# Shear Modulus (GPa) = 4.58600 19.90659 12.24630
#
# Velocity S-wave (km/s) = 1.46028 3.04241 2.38628
# Velocity P-wave (km/s) = 3.78170 4.94871 4.40403
#
# Compressibility (1/GPa) = 0.04058145
#
# Stress axis : x y z
#
# Youngs Moduli (GPa) = 74.47359 56.22792 40.24423
#
# Poissons Ratio (x) = 0.14281 -0.02941
# Poissons Ratio (y) = 0.18916 0.23866
# Poissons Ratio (z) = -0.05442 0.33345
#
# Static dielectric constant tensor:
#      x y z
#    x 1.800720 0.000000 0.000000 
#    y 0.000000 1.815560 0.000000 
#    z 0.000000 0.000000 1.764760 
# 
# From -- ./inp_files/7367.got.cif
#   From: 2010.05.17/outbox.cif.g08.bks.cpg/sg64_4_cif.got.tgz:7367.got - 2010.06.03 16:29:19.
