data_PCOD9477765
_publ_section_title
;
Structure prediction by ZEFSAII (Michael W. Deem and Ramdas Pophale) SiO2 
 PCOD9477765
Probable space group: C M C A
;
_chemical_formula_sum "Si O2"
_cell_formula_units_Z 96
_cell_length_a 8.878823
_cell_length_b 30.729063
_cell_length_c 20.869672
_cell_angle_alpha 90.000000
_cell_angle_beta 90.000000
_cell_angle_gamma 90.000000
_cell_volume 5694.037719
_symmetry_space_group_name_H-M "C M C A"
_symmetry_group_IT_number 64
_symmetry_cell_setting 'orthorhombic'
loop_
_space_group_symop_operation_xyz
x,y,z
-x,1/2-y,1/2+z
x,-y,-z
-x,1/2+y,1/2-z
-x,-y,-z
x,1/2+y,1/2-z
-x,y,z
x,1/2-y,1/2+z
1/2+x,1/2+y,z
1/2-x,-y,1/2+z
1/2+x,1/2-y,-z
1/2-x,y,1/2-z
1/2-x,1/2-y,-z
1/2+x,y,1/2-z
1/2-x,1/2+y,z
1/2+x,-y,1/2+z
loop_
_atom_site_type_symbol
_atom_site_label
_atom_site_fract_x
_atom_site_fract_y
_atom_site_fract_z
Si Si1 0.321698 0.191457 0.684495
Si Si2 0.181410 0.789611 0.039892
Si Si3 0.673278 0.100964 0.842565
Si Si4 0.174469 0.881138 0.492741
Si Si5 0.819302 0.964449 0.945209
Si Si6 0.180783 0.498041 0.184016
O O1 0.500000 0.195636 0.688740
O O2 0.250000 0.209327 0.750000
O O3 0.272721 0.211158 0.615566
O O4 0.275937 0.140605 0.679876
O O5 0.242820 0.834792 0.010602
O O6 0.000000 0.788990 0.037460
O O7 0.250000 0.750000 0.000000
O O8 0.500000 0.109164 0.822086
O O9 0.675807 0.101550 0.919631
O O10 0.720848 0.053279 0.820820
O O11 0.256626 0.917490 0.534526
O O12 0.000000 0.875793 0.512077
O O13 0.000000 0.963553 0.940954
O O14 0.748411 0.979066 0.878216
O O15 0.777962 0.000000 0.000000
O O16 0.250000 0.515329 0.250000
O O17 0.000000 0.501273 0.183911
#
# Coordination Sequence:
#
# PCOD9477765 Si02
#       6
#    16  16  16  16  16  16
#     4  10  20  32  50  76 108 141 175 214 263 322
#     4  10  21  37  57  83 111 142 180 224 273 328
#     4   9  18  31  49  74 105 141 177 214 263 320
#     4  10  19  34  56  81 108 141 180 224 272 323
#     4  11  22  35  54  79 108 144 186 228 269 320
#     4  11  22  35  50  73 106 145 187 230 275 324
#
# _framework density 16.859742000000001
#
# number of rings (size 3 to 8) (size 9 to 14) (size 15 to 20)
#    0.000    1.833    1.667    3.000    0.000    6.000 
#    0.000    0.000    0.000    1.000    0.000    4.667 
#    0.000    0.000    0.000    0.000    0.000    0.000 
#
# Total GULP energy -267934.825469 kJ/mol
# GULP energy per Si atom -5581.975531 kJ/mol
# Density = 1.682137 g / cm^3
# Si number density = 16.859742 Si / 1000 Ang^3
#
#
#
# Elastic Constant Matrix: (Units=GPa)
#
#
# Indices 1 2 3 4 5 6 
#
# 1 65.3934 44.6768 58.8770 0.0000 0.0000 0.0000
# 2 44.6768 98.2558 73.6862 0.0000 0.0000 0.0000
# 3 58.8770 73.6862 145.4676 0.0000 0.0000 0.0000
# 4 0.0000 0.0000 0.0000 17.9340 0.0000 0.0000
# 5 0.0000 0.0000 0.0000 0.0000 29.7228 0.0000
# 6 0.0000 0.0000 0.0000 0.0000 0.0000 25.7061
#
#
#
# Elastic Compliance Matrix: (Units=1/GPa)
#
#
# Indices 1 2 3 4 5 6 
#
# 1 0.026356 -0.006425 -0.007413 0.000000 0.000000 0.000000
# 2 -0.006425 0.017978 -0.006507 0.000000 0.000000 0.000000
# 3 -0.007413 -0.006507 0.013171 0.000000 0.000000 0.000000
# 4 0.000000 0.000000 0.000000 0.055760 0.000000 0.000000
# 5 0.000000 0.000000 0.000000 0.000000 0.033644 0.000000
# 6 0.000000 0.000000 0.000000 0.000000 0.000000 0.038901
#
#
# Mechanical properties :
#
#
# Convention : Reuss Voigt Hill
#
# Bulk Modulus (GPa) = 59.46581 73.73298 66.59940
# Shear Modulus (GPa) = 21.54211 23.46435 22.50323
#
# Velocity S-wave (km/s) = 3.57841 3.73465 3.65736
# Velocity P-wave (km/s) = 7.24022 7.90094 7.57779
#
# Compressibility (1/GPa) = 0.01681639
#
# Stress axis : x y z
#
# Youngs Moduli (GPa) = 37.94268 55.62256 75.92695
#
# Poissons Ratio (x) = 0.35735 0.56284
# Poissons Ratio (y) = 0.24377 0.49402
# Poissons Ratio (z) = 0.28126 0.36191
#
# Static dielectric constant tensor:
#      x y z
#    x 1.568180 0.000000 0.000000 
#    y 0.000000 1.535480 0.000000 
#    z 0.000000 0.000000 1.589810 
# 
# From -- ./inp_files/37028.got.cif
#   From: 2010.05.17/outbox.cif.g08.bks.cpg/sg64_19_cif.got.tgz:37028.got - 2010.06.03 16:29:19.
