data_PCOD9477896
_publ_section_title
;
Structure prediction by ZEFSAII (Michael W. Deem and Ramdas Pophale) SiO2 
 PCOD9477896
Probable space group: C M C A
;
_chemical_formula_sum "Si O2"
_cell_formula_units_Z 80
_cell_length_a 13.859253
_cell_length_b 28.131394
_cell_length_c 7.734437
_cell_angle_alpha 90.000000
_cell_angle_beta 90.000000
_cell_angle_gamma 90.000000
_cell_volume 3015.503123
_symmetry_space_group_name_H-M "C M C A"
_symmetry_group_IT_number 64
_symmetry_cell_setting 'orthorhombic'
loop_
_space_group_symop_operation_xyz
x,y,z
-x,1/2-y,1/2+z
x,-y,-z
-x,1/2+y,1/2-z
-x,-y,-z
x,1/2+y,1/2-z
-x,y,z
x,1/2-y,1/2+z
1/2+x,1/2+y,z
1/2-x,-y,1/2+z
1/2+x,1/2-y,-z
1/2-x,y,1/2-z
1/2-x,1/2-y,-z
1/2+x,y,1/2-z
1/2-x,1/2+y,z
1/2+x,-y,1/2+z
loop_
_atom_site_type_symbol
_atom_site_label
_atom_site_fract_x
_atom_site_fract_y
_atom_site_fract_z
Si Si1 0.108645 0.393125 0.676609
Si Si2 0.660395 0.710299 0.120050
Si Si3 0.617730 0.092161 0.950923
Si Si4 0.382723 0.456955 0.121626
Si Si5 0.888633 0.689525 0.755037
O O1 0.105336 0.336470 0.684310
O O2 0.144828 0.410581 0.491270
O O3 0.000000 0.412597 0.679724
O O4 0.155411 0.410882 0.854050
O O5 0.750000 0.710980 0.250000
O O6 0.612330 0.761798 0.135692
O O7 0.673982 0.699887 0.916520
O O8 0.500000 0.090738 0.960613
O O9 0.649760 0.051424 0.817890
O O10 0.639030 0.143510 0.866035
O O11 0.500000 0.460435 0.136466
O O12 0.351071 0.500000 0.000000
O O13 0.000000 0.681394 0.695365
#
# Coordination Sequence:
#
# PCOD9477896 Si02
#       5
#    16  16  16  16  16
#     4  10  19  35  57  82 116 155 197 242 295 361
#     4  12  24  37  55  86 120 156 197 248 296 352
#     4   9  18  32  54  84 113 148 192 238 290 350
#     4   9  17  31  54  86 118 146 187 250 308 348
#     4  11  21  37  58  81 117 160 201 241 290 358
#
# _framework density 26.529568000000001
#
# number of rings (size 3 to 8) (size 9 to 14) (size 15 to 20)
#    0.000    1.800    2.000    3.600    0.000    2.400 
#    0.000    4.000    0.000    0.000    5.200    0.000 
#    0.000    0.000    0.000    0.000    0.000    0.000 
#
# Total GULP energy -223867.186989 kJ/mol
# GULP energy per Si atom -5596.679675 kJ/mol
# Density = 2.646919 g / cm^3
# Si number density = 26.529568 Si / 1000 Ang^3
#
#
#
# Elastic Constant Matrix: (Units=GPa)
#
#
# Indices 1 2 3 4 5 6 
#
# 1 71.2623 -11.3275 -7.8943 0.0000 0.0000 0.0000
# 2 -11.3275 88.4783 26.5048 0.0000 0.0000 0.0000
# 3 -7.8943 26.5048 177.8740 0.0000 0.0000 0.0000
# 4 0.0000 0.0000 0.0000 36.6700 0.0000 0.0000
# 5 0.0000 0.0000 0.0000 0.0000 28.8033 0.0000
# 6 0.0000 0.0000 0.0000 0.0000 0.0000 8.5664
#
#
#
# Elastic Compliance Matrix: (Units=1/GPa)
#
#
# Indices 1 2 3 4 5 6 
#
# 1 0.014349 0.001723 0.000380 0.000000 0.000000 0.000000
# 2 0.001723 0.012037 -0.001717 0.000000 0.000000 0.000000
# 3 0.000380 -0.001717 0.005895 0.000000 0.000000 0.000000
# 4 0.000000 0.000000 0.000000 0.027270 0.000000 0.000000
# 5 0.000000 0.000000 0.000000 0.000000 0.034718 0.000000
# 6 0.000000 0.000000 0.000000 0.000000 0.000000 0.116736
#
#
# Mechanical properties :
#
#
# Convention : Reuss Voigt Hill
#
# Bulk Modulus (GPa) = 30.25477 39.13118 34.69298
# Shear Modulus (GPa) = 22.59885 36.83003 29.71444
#
# Velocity S-wave (km/s) = 2.92179 3.72998 3.35035
# Velocity P-wave (km/s) = 4.77613 5.77342 5.29829
#
# Compressibility (1/GPa) = 0.03305263
#
# Stress axis : x y z
#
# Youngs Moduli (GPa) = 69.69285 83.07570 169.64394
#
# Poissons Ratio (x) = -0.14315 -0.06447
# Poissons Ratio (y) = -0.12009 0.29131
# Poissons Ratio (z) = -0.02649 0.14266
#
# Static dielectric constant tensor:
#      x y z
#    x 2.165700 0.000000 0.000000 
#    y 0.000000 2.047000 0.000000 
#    z 0.000000 0.000000 2.029820 
# 
# From -- ./inp_files/7042.got.cif
#   From: 2010.05.17/outbox.cif.g08.bks.cpg/sg64_4_cif.got.tgz:7042.got - 2010.06.03 16:29:19.
