data_PCOD9477559
_publ_section_title
;
Structure prediction by ZEFSAII (Michael W. Deem and Ramdas Pophale) SiO2 
 PCOD9477559
Probable space group: C M C A
;
_chemical_formula_sum "Si O2"
_cell_formula_units_Z 88
_cell_length_a 29.922444
_cell_length_b 20.830142
_cell_length_c 8.184976
_cell_angle_alpha 90.000000
_cell_angle_beta 90.000000
_cell_angle_gamma 90.000000
_cell_volume 5101.603521
_symmetry_space_group_name_H-M "C M C A"
_symmetry_group_IT_number 64
_symmetry_cell_setting 'orthorhombic'
loop_
_space_group_symop_operation_xyz
x,y,z
-x,1/2-y,1/2+z
x,-y,-z
-x,1/2+y,1/2-z
-x,-y,-z
x,1/2+y,1/2-z
-x,y,z
x,1/2-y,1/2+z
1/2+x,1/2+y,z
1/2-x,-y,1/2+z
1/2+x,1/2-y,-z
1/2-x,y,1/2-z
1/2-x,1/2-y,-z
1/2+x,y,1/2-z
1/2-x,1/2+y,z
1/2+x,-y,1/2+z
loop_
_atom_site_type_symbol
_atom_site_label
_atom_site_fract_x
_atom_site_fract_y
_atom_site_fract_z
Si Si1 0.906325 0.778954 0.052381
Si Si2 0.250000 0.846405 0.750000
Si Si3 0.149731 0.676887 0.262041
Si Si4 0.551450 0.164076 0.858128
Si Si5 0.273038 0.072234 0.927353
Si Si6 0.628557 0.076063 0.000968
O O1 0.874358 0.819328 0.935109
O O2 0.938081 0.731302 0.949906
O O3 0.874313 0.731758 0.155616
O O4 0.935319 0.822469 0.171601
O O5 0.202654 0.810647 0.764454
O O6 0.246140 0.885997 0.578868
O O7 0.139794 0.608552 0.175986
O O8 0.500000 0.146254 0.878410
O O9 0.585922 0.112433 0.929711
O O10 0.250000 0.077227 0.750000
O O11 0.325377 0.089624 0.903986
O O12 0.271281 0.000000 0.000000
O O13 0.621654 0.000000 0.000000
#
# Coordination Sequence:
#
# PCOD9477559 Si02
#       6
#    16   8  16  16  16  16
#     4   9  19  35  54  77 106 136 183 229 267 320
#     4  10  20  32  50  80 110 144 188 220 276 336
#     4   9  19  35  53  77 107 142 177 223 270 322
#     4  10  19  34  57  79 103 141 182 226 277 325
#     4  10  19  33  52  77 108 151 192 224 264 327
#     4   9  20  36  52  80 111 138 180 223 275 329
#
# _framework density 17.249478
#
# number of rings (size 3 to 8) (size 9 to 14) (size 15 to 20)
#    0.000    2.545    0.909    0.545    2.545    1.091 
#    0.000    1.818    0.000    1.091    0.000    0.000 
#    0.000    0.000    0.000    0.000    0.000    0.000 
#
# Total GULP energy -245108.822793 kJ/mol
# GULP energy per Si atom -5570.655063 kJ/mol
# Density = 1.721022 g / cm^3
# Si number density = 17.249478 Si / 1000 Ang^3
#
#
#
# Elastic Constant Matrix: (Units=GPa)
#
#
# Indices 1 2 3 4 5 6 
#
# 1 149.8382 26.0910 52.9408 0.0000 0.0000 0.0000
# 2 26.0910 36.5426 7.7434 0.0000 0.0000 0.0000
# 3 52.9408 7.7434 89.6710 0.0000 0.0000 0.0000
# 4 0.0000 0.0000 0.0000 10.0224 0.0000 0.0000
# 5 0.0000 0.0000 0.0000 0.0000 20.4542 0.0000
# 6 0.0000 0.0000 0.0000 0.0000 0.0000 12.2304
#
#
#
# Elastic Compliance Matrix: (Units=1/GPa)
#
#
# Indices 1 2 3 4 5 6 
#
# 1 0.009463 -0.005677 -0.005097 0.000000 0.000000 0.000000
# 2 -0.005677 0.031281 0.000650 0.000000 0.000000 0.000000
# 3 -0.005097 0.000650 0.014105 0.000000 0.000000 0.000000
# 4 0.000000 0.000000 0.000000 0.099776 0.000000 0.000000
# 5 0.000000 0.000000 0.000000 0.000000 0.048890 0.000000
# 6 0.000000 0.000000 0.000000 0.000000 0.000000 0.081763
#
#
# Mechanical properties :
#
#
# Convention : Reuss Voigt Hill
#
# Bulk Modulus (GPa) = 28.89987 49.95582 39.42784
# Shear Modulus (GPa) = 15.76999 21.15984 18.46492
#
# Velocity S-wave (km/s) = 3.02690 3.50622 3.27534
# Velocity P-wave (km/s) = 5.38578 6.73907 6.10007
#
# Compressibility (1/GPa) = 0.03460224
#
# Stress axis : x y z
#
# Youngs Moduli (GPa) = 105.67383 31.96876 70.89800
#
# Poissons Ratio (x) = 0.18147 0.36135
# Poissons Ratio (y) = 0.59986 -0.04610
# Poissons Ratio (z) = 0.53859 -0.02079
#
# Static dielectric constant tensor:
#      x y z
#    x 1.578640 0.000000 0.000000 
#    y 0.000000 1.581130 0.000000 
#    z 0.000000 0.000000 1.600400 
# 
# From -- ./inp_files/11090.got.cif
#   From: 2010.05.17/outbox.cif.g08.bks.cpg/sg64_6_cif.got.tgz:11090.got - 2010.06.03 16:29:19.
