data_PCOD9477030
_publ_section_title
;
Structure prediction by ZEFSAII (Michael W. Deem and Ramdas Pophale) SiO2 
 PCOD9477030
Probable space group: C M C A
;
_chemical_formula_sum "Si O2"
_cell_formula_units_Z 88
_cell_length_a 13.890855
_cell_length_b 12.362639
_cell_length_c 20.870789
_cell_angle_alpha 90.000000
_cell_angle_beta 90.000000
_cell_angle_gamma 90.000000
_cell_volume 3584.091043
_symmetry_space_group_name_H-M "C M C A"
_symmetry_group_IT_number 64
_symmetry_cell_setting 'orthorhombic'
loop_
_space_group_symop_operation_xyz
x,y,z
-x,1/2-y,1/2+z
x,-y,-z
-x,1/2+y,1/2-z
-x,-y,-z
x,1/2+y,1/2-z
-x,y,z
x,1/2-y,1/2+z
1/2+x,1/2+y,z
1/2-x,-y,1/2+z
1/2+x,1/2-y,-z
1/2-x,y,1/2-z
1/2-x,1/2-y,-z
1/2+x,y,1/2-z
1/2-x,1/2+y,z
1/2+x,-y,1/2+z
loop_
_atom_site_type_symbol
_atom_site_label
_atom_site_fract_x
_atom_site_fract_y
_atom_site_fract_z
Si Si1 0.889346 0.047114 0.802373
Si Si2 0.112587 0.726593 0.594481
Si Si3 0.703772 0.000000 0.000000
Si Si4 0.613308 0.777328 0.041890
Si Si5 0.385084 0.139202 0.828955
Si Si6 0.268214 0.072142 0.135086
O O1 0.882097 0.116243 0.866997
O O2 0.862699 0.133595 0.746618
O O3 0.000000 0.012541 0.791818
O O4 0.817703 0.947334 0.814325
O O5 0.149473 0.714217 0.521313
O O6 0.170614 0.819233 0.631046
O O7 0.000000 0.758881 0.591789
O O8 0.761379 0.043322 0.061719
O O9 0.635157 0.900644 0.020856
O O10 0.500000 0.752718 0.045533
O O11 0.649470 0.776278 0.115932
O O12 0.500000 0.142304 0.833361
O O13 0.343489 0.023046 0.848365
#
# Coordination Sequence:
#
# PCOD9477030 Si02
#       6
#    16  16   8  16  16  16
#     4  10  21  36  55  82 116 152 188 227 278 341
#     4   9  18  34  59  87 111 142 189 237 280 333
#     4   8  15  26  47  80 106 134 180 230 274 324
#     4   8  13  25  49  79 107 137 179 233 284 324
#     4   9  17  31  53  80 110 144 184 233 285 332
#     4  10  18  34  57  80 109 148 186 228 280 333
#
# _framework density 24.552948000000001
#
# number of rings (size 3 to 8) (size 9 to 14) (size 15 to 20)
#    0.000    2.909    0.000    1.364    0.000    4.364 
#    0.000   12.273    0.000    8.727    0.000    0.000 
#    0.000    0.000    0.000    0.000    0.000    0.000 
#
# Total GULP energy -245440.097037 kJ/mol
# GULP energy per Si atom -5578.184024 kJ/mol
# Density = 2.449706 g / cm^3
# Si number density = 24.552948 Si / 1000 Ang^3
#
#
#
# Elastic Constant Matrix: (Units=GPa)
#
#
# Indices 1 2 3 4 5 6 
#
# 1 86.0534 22.9059 41.7648 0.0000 0.0000 0.0000
# 2 22.9059 21.2423 17.8616 0.0000 0.0000 0.0000
# 3 41.7648 17.8616 112.6435 0.0000 0.0000 0.0000
# 4 0.0000 0.0000 0.0000 26.2277 0.0000 0.0000
# 5 0.0000 0.0000 0.0000 0.0000 36.1034 0.0000
# 6 0.0000 0.0000 0.0000 0.0000 0.0000 14.8277
#
#
#
# Elastic Compliance Matrix: (Units=1/GPa)
#
#
# Indices 1 2 3 4 5 6 
#
# 1 0.017804 -0.015748 -0.004104 0.000000 0.000000 0.000000
# 2 -0.015748 0.068247 -0.004983 0.000000 0.000000 0.000000
# 3 -0.004104 -0.004983 0.011189 0.000000 0.000000 0.000000
# 4 0.000000 0.000000 0.000000 0.038128 0.000000 0.000000
# 5 0.000000 0.000000 0.000000 0.000000 0.027698 0.000000
# 6 0.000000 0.000000 0.000000 0.000000 0.000000 0.067441
#
#
# Mechanical properties :
#
#
# Convention : Reuss Voigt Hill
#
# Bulk Modulus (GPa) = 21.02129 42.77819 31.89974
# Shear Modulus (GPa) = 16.88994 24.59224 20.74109
#
# Velocity S-wave (km/s) = 2.62563 3.16824 2.90961
# Velocity P-wave (km/s) = 4.21570 5.55377 4.93034
#
# Compressibility (1/GPa) = 0.04757083
#
# Stress axis : x y z
#
# Youngs Moduli (GPa) = 56.16600 14.65271 89.37003
#
# Poissons Ratio (x) = 0.23075 0.36680
# Poissons Ratio (y) = 0.88448 0.44533
# Poissons Ratio (z) = 0.23052 0.07301
#
# Static dielectric constant tensor:
#      x y z
#    x 1.967530 0.000000 0.000000 
#    y 0.000000 1.918050 0.000000 
#    z 0.000000 0.000000 2.082150 
# 
# From -- ./inp_files/39053.got.cif
#   From: 2010.05.17/outbox.cif.g08.bks.cpg/sg64_20_cif.got.tgz:39053.got - 2010.06.03 16:29:19.
