data_PCOD9477901
_publ_section_title
;
Structure prediction by ZEFSAII (Michael W. Deem and Ramdas Pophale) SiO2 
 PCOD9477901
Probable space group: C M C A
;
_chemical_formula_sum "Si O2"
_cell_formula_units_Z 88
_cell_length_a 12.164768
_cell_length_b 21.383662
_cell_length_c 15.730570
_cell_angle_alpha 90.000000
_cell_angle_beta 90.000000
_cell_angle_gamma 90.000000
_cell_volume 4091.950501
_symmetry_space_group_name_H-M "C M C A"
_symmetry_group_IT_number 64
_symmetry_cell_setting 'orthorhombic'
loop_
_space_group_symop_operation_xyz
x,y,z
-x,1/2-y,1/2+z
x,-y,-z
-x,1/2+y,1/2-z
-x,-y,-z
x,1/2+y,1/2-z
-x,y,z
x,1/2-y,1/2+z
1/2+x,1/2+y,z
1/2-x,-y,1/2+z
1/2+x,1/2-y,-z
1/2-x,y,1/2-z
1/2-x,1/2-y,-z
1/2+x,y,1/2-z
1/2-x,1/2+y,z
1/2+x,-y,1/2+z
loop_
_atom_site_type_symbol
_atom_site_label
_atom_site_fract_x
_atom_site_fract_y
_atom_site_fract_z
Si Si1 0.750000 0.046511 0.250000
Si Si2 0.872770 0.739766 0.730175
Si Si3 0.279100 0.648694 0.973614
Si Si4 0.615621 0.745569 0.083348
Si Si5 0.625833 0.635431 0.371851
Si Si6 0.130658 0.473283 0.403442
O O1 0.661530 0.091618 0.205475
O O2 0.805512 0.007214 0.173362
O O3 0.750000 0.708197 0.750000
O O4 0.883350 0.776153 0.819645
O O5 0.861732 0.791726 0.656570
O O6 0.000000 0.710736 0.719830
O O7 0.372477 0.686819 0.022651
O O8 0.203097 0.621289 0.048277
O O9 0.207004 0.702649 0.931241
O O10 0.326479 0.597763 0.910810
O O11 0.500000 0.777990 0.066214
O O12 0.500000 0.624758 0.393492
O O13 0.148746 0.500000 0.500000
O O14 0.000000 0.476250 0.387908
#
# Coordination Sequence:
#
# PCOD9477901 Si02
#       6
#     8  16  16  16  16  16
#     4  12  22  44  66  96 132 172 226 278 344 410
#     4  10  19  35  57  91 125 163 217 275 333 392
#     4  11  21  41  62  94 133 167 224 270 336 399
#     4  10  21  37  62  90 127 171 215 271 335 402
#     4  11  21  36  63  93 127 170 227 284 330 394
#     4  11  25  45  71  99 131 174 221 282 343 411
#
# _framework density 21.505637
#
# number of rings (size 3 to 8) (size 9 to 14) (size 15 to 20)
#    0.000    1.273    4.545    1.636    0.000    0.000 
#    1.636    5.455    0.000    0.000    0.000    0.000 
#    0.000    0.000    0.000    0.000    0.000    0.000 
#
# Total GULP energy -245197.220046 kJ/mol
# GULP energy per Si atom -5572.664092 kJ/mol
# Density = 2.145669 g / cm^3
# Si number density = 21.505637 Si / 1000 Ang^3
#
#
#
# Elastic Constant Matrix: (Units=GPa)
#
#
# Indices 1 2 3 4 5 6 
#
# 1 144.5952 28.0445 38.8293 0.0000 0.0000 0.0000
# 2 28.0445 60.8752 29.3230 0.0000 0.0000 0.0000
# 3 38.8293 29.3230 103.0159 0.0000 0.0000 0.0000
# 4 0.0000 0.0000 0.0000 14.0120 0.0000 0.0000
# 5 0.0000 0.0000 0.0000 0.0000 -17.3166 0.0000
# 6 0.0000 0.0000 0.0000 0.0000 0.0000 25.7562
#
#
#
# Elastic Compliance Matrix: (Units=1/GPa)
#
#
# Indices 1 2 3 4 5 6 
#
# 1 0.008035 -0.002599 -0.002289 0.000000 0.000000 0.000000
# 2 -0.002599 0.019878 -0.004679 0.000000 0.000000 0.000000
# 3 -0.002289 -0.004679 0.011902 0.000000 0.000000 0.000000
# 4 0.000000 0.000000 0.000000 0.071368 0.000000 0.000000
# 5 0.000000 0.000000 0.000000 0.000000 -0.057748 0.000000
# 6 0.000000 0.000000 0.000000 0.000000 0.000000 0.038826
#
#
# Mechanical properties :
#
#
# Convention : Reuss Voigt Hill
#
# Bulk Modulus (GPa) = 48.35175 55.65334 52.00254
# Shear Modulus (GPa) = 42.27067 18.64296 30.45681
#
# Velocity S-wave (km/s) = 4.43828 2.94749 3.76736
# Velocity P-wave (km/s) = 6.98545 6.12521 6.56943
#
# Compressibility (1/GPa) = 0.02068177
#
# Stress axis : x y z
#
# Youngs Moduli (GPa) = 124.46294 50.30688 84.02233
#
# Poissons Ratio (x) = 0.13075 0.19230
# Poissons Ratio (y) = 0.32348 0.39310
# Poissons Ratio (z) = 0.28485 0.23536
#
# Static dielectric constant tensor:
#      x y z
#    x 1.889360 0.000000 0.000000 
#    y 0.000000 1.766790 0.000000 
#    z 0.000000 0.000000 1.822020 
# 
# From -- ./inp_files/30932.got.cif
#   From: 2010.05.17/outbox.cif.g08.bks.cpg/sg64_16_cif.got.tgz:30932.got - 2010.06.03 16:29:19.
