data_PCOD9477673
_publ_section_title
;
Structure prediction by ZEFSAII (Michael W. Deem and Ramdas Pophale) SiO2 
 PCOD9477673
Probable space group: C M C A
;
_chemical_formula_sum "Si O2"
_cell_formula_units_Z 88
_cell_length_a 14.237079
_cell_length_b 19.530757
_cell_length_c 15.716392
_cell_angle_alpha 90.000000
_cell_angle_beta 90.000000
_cell_angle_gamma 90.000000
_cell_volume 4370.114581
_symmetry_space_group_name_H-M "C M C A"
_symmetry_group_IT_number 64
_symmetry_cell_setting 'orthorhombic'
loop_
_space_group_symop_operation_xyz
x,y,z
-x,1/2-y,1/2+z
x,-y,-z
-x,1/2+y,1/2-z
-x,-y,-z
x,1/2+y,1/2-z
-x,y,z
x,1/2-y,1/2+z
1/2+x,1/2+y,z
1/2-x,-y,1/2+z
1/2+x,1/2-y,-z
1/2-x,y,1/2-z
1/2-x,1/2-y,-z
1/2+x,y,1/2-z
1/2-x,1/2+y,z
1/2+x,-y,1/2+z
loop_
_atom_site_type_symbol
_atom_site_label
_atom_site_fract_x
_atom_site_fract_y
_atom_site_fract_z
Si Si1 0.500000 0.242082 0.169506
Si Si2 0.000000 0.448393 0.264175
Si Si3 0.343363 0.071195 0.043026
Si Si4 0.500000 0.374123 0.416384
Si Si5 0.837824 0.149166 0.814092
Si Si6 0.000000 0.728441 0.466900
Si Si7 0.500000 0.918017 0.817097
Si Si8 0.299849 0.323568 0.992900
O O1 0.407547 0.285086 0.196467
O O2 0.500000 0.242976 0.065226
O O3 0.500000 0.163399 0.198234
O O4 0.000000 0.417879 0.168354
O O5 0.093559 0.415692 0.303507
O O6 0.000000 0.530012 0.261118
O O7 0.409436 0.063262 0.124943
O O8 0.410062 0.107005 0.972765
O O9 0.259710 0.123087 0.061232
O O10 0.313779 0.000000 0.000000
O O11 0.500000 0.292900 0.404031
O O12 0.750000 0.149667 0.750000
O O13 0.802900 0.149613 0.910617
O O14 0.904727 0.686593 0.459233
O O15 0.250000 0.250000 0.000000
#
# Coordination Sequence:
#
# PCOD9477673 Si02
#       8
#     8   8  16   8  16   8   8  16
#     4   9  18  37  56  80 114 154 195 253 297 347
#     4  11  22  36  59  85 124 163 190 242 307 377
#     4  11  19  31  57  92 116 140 198 265 299 346
#     4  11  16  32  56  89 117 141 198 255 305 346
#     4  10  22  37  57  86 122 155 198 244 309 377
#     4  10  19  33  57  87 116 154 204 254 301 350
#     4  11  19  35  61  87 116 149 197 255 310 345
#     4  11  21  37  62  88 118 160 204 256 305 361
#
# _framework density 20.136771
#
# number of rings (size 3 to 8) (size 9 to 14) (size 15 to 20)
#    0.000    1.455    5.455    3.273    0.000    0.000 
#    0.000    1.364    4.000    0.000    0.000    0.000 
#    0.000    0.000    0.000    0.000    0.000    0.000 
#
# Total GULP energy -245872.385969 kJ/mol
# GULP energy per Si atom -5588.008772 kJ/mol
# Density = 2.009094 g / cm^3
# Si number density = 20.136771 Si / 1000 Ang^3
#
#
#
# Elastic Constant Matrix: (Units=GPa)
#
#
# Indices 1 2 3 4 5 6 
#
# 1 124.4565 51.8109 6.8162 0.0000 0.0000 0.0000
# 2 51.8109 134.2458 0.2588 0.0000 0.0000 0.0000
# 3 6.8162 0.2588 22.6980 0.0000 0.0000 0.0000
# 4 0.0000 0.0000 0.0000 24.4662 0.0000 0.0000
# 5 0.0000 0.0000 0.0000 0.0000 7.8274 0.0000
# 6 0.0000 0.0000 0.0000 0.0000 0.0000 9.3680
#
#
#
# Elastic Compliance Matrix: (Units=1/GPa)
#
#
# Indices 1 2 3 4 5 6 
#
# 1 0.009759 -0.003761 -0.002888 0.000000 0.000000 0.000000
# 2 -0.003761 0.008898 0.001028 0.000000 0.000000 0.000000
# 3 -0.002888 0.001028 0.044912 0.000000 0.000000 0.000000
# 4 0.000000 0.000000 0.000000 0.040873 0.000000 0.000000
# 5 0.000000 0.000000 0.000000 0.000000 0.127756 0.000000
# 6 0.000000 0.000000 0.000000 0.000000 0.000000 0.106746
#
#
# Mechanical properties :
#
#
# Convention : Reuss Voigt Hill
#
# Bulk Modulus (GPa) = 19.11013 44.35246 31.73129
# Shear Modulus (GPa) = 13.60073 23.16663 18.38368
#
# Velocity S-wave (km/s) = 2.60170 3.39553 3.02477
# Velocity P-wave (km/s) = 4.30533 6.11933 5.29066
#
# Compressibility (1/GPa) = 0.05232828
#
# Stress axis : x y z
#
# Youngs Moduli (GPa) = 102.47312 112.37915 22.26572
#
# Poissons Ratio (x) = 0.42262 0.06430
# Poissons Ratio (y) = 0.38537 -0.02289
# Poissons Ratio (z) = 0.29590 -0.11551
#
# Static dielectric constant tensor:
#      x y z
#    x 1.707560 0.000000 0.000000 
#    y 0.000000 1.719940 0.000000 
#    z 0.000000 0.000000 1.710440 
# 
# From -- ./inp_files/32223.got.cif
#   From: 2010.05.17/outbox.cif.g08.bks.cpg/sg64_17_cif.got.tgz:32223.got - 2010.06.03 16:29:19.
