data_PCOD9477421
_publ_section_title
;
Structure prediction by ZEFSAII (Michael W. Deem and Ramdas Pophale) SiO2 
 PCOD9477421
Probable space group: C M C A
;
_chemical_formula_sum "Si O2"
_cell_formula_units_Z 96
_cell_length_a 15.348748
_cell_length_b 14.971903
_cell_length_c 22.835891
_cell_angle_alpha 90.000000
_cell_angle_beta 90.000000
_cell_angle_gamma 90.000000
_cell_volume 5247.686981
_symmetry_space_group_name_H-M "C M C A"
_symmetry_group_IT_number 64
_symmetry_cell_setting 'orthorhombic'
loop_
_space_group_symop_operation_xyz
x,y,z
-x,1/2-y,1/2+z
x,-y,-z
-x,1/2+y,1/2-z
-x,-y,-z
x,1/2+y,1/2-z
-x,y,z
x,1/2-y,1/2+z
1/2+x,1/2+y,z
1/2-x,-y,1/2+z
1/2+x,1/2-y,-z
1/2-x,y,1/2-z
1/2-x,1/2-y,-z
1/2+x,y,1/2-z
1/2-x,1/2+y,z
1/2+x,-y,1/2+z
loop_
_atom_site_type_symbol
_atom_site_label
_atom_site_fract_x
_atom_site_fract_y
_atom_site_fract_z
Si Si1 0.813822 0.300968 0.043507
Si Si2 0.407694 0.087909 0.040455
Si Si3 0.897852 0.581466 0.790957
Si Si4 0.102268 0.269913 0.660405
Si Si5 0.601387 0.027355 0.327783
Si Si6 0.271704 0.515947 0.606541
O O1 0.842623 0.248147 0.101552
O O2 0.775782 0.396280 0.065605
O O3 0.750000 0.250000 0.000000
O O4 0.894924 0.329737 0.002984
O O5 0.500000 0.094916 0.073312
O O6 0.321798 0.068207 0.078052
O O7 0.413258 0.000000 0.000000
O O8 0.882200 0.688047 0.794943
O O9 0.885103 0.536082 0.728255
O O10 0.831617 0.539614 0.837439
O O11 0.000000 0.566767 0.807662
O O12 0.116866 0.368008 0.686460
O O13 0.000000 0.264869 0.644067
O O14 0.500000 0.018147 0.346073
O O15 0.673250 0.003049 0.375650
#
# Coordination Sequence:
#
# PCOD9477421 Si02
#       6
#    16  16  16  16  16  16
#     4  10  19  32  51  75 105 138 175 215 260 313
#     4   9  17  30  51  76 100 130 172 221 263 299
#     4   9  18  34  56  79 102 132 174 220 265 314
#     4   9  18  34  55  76 101 137 177 216 262 316
#     4  10  20  35  54  77 107 142 177 214 262 323
#     4  10  19  33  52  75 105 137 172 217 266 311
#
# _framework density 18.293775
#
# number of rings (size 3 to 8) (size 9 to 14) (size 15 to 20)
#    0.000    2.500    0.000    2.500    0.000    4.000 
#    0.000   10.000    0.000    8.500    0.000    0.000 
#    0.000    0.000    0.000    0.000    0.000    0.000 
#
# Total GULP energy -267324.353587 kJ/mol
# GULP energy per Si atom -5569.257366 kJ/mol
# Density = 1.825214 g / cm^3
# Si number density = 18.293775 Si / 1000 Ang^3
#
#
#
# Elastic Constant Matrix: (Units=GPa)
#
#
# Indices 1 2 3 4 5 6 
#
# 1 92.3498 46.9249 51.6849 0.0000 0.0000 0.0000
# 2 46.9249 84.7186 45.7825 0.0000 0.0000 0.0000
# 3 51.6849 45.7825 64.8618 0.0000 0.0000 0.0000
# 4 0.0000 0.0000 0.0000 26.4231 0.0000 0.0000
# 5 0.0000 0.0000 0.0000 0.0000 33.9410 0.0000
# 6 0.0000 0.0000 0.0000 0.0000 0.0000 5.6477
#
#
#
# Elastic Compliance Matrix: (Units=1/GPa)
#
#
# Indices 1 2 3 4 5 6 
#
# 1 0.020373 -0.004060 -0.013369 0.000000 0.000000 0.000000
# 2 -0.004060 0.019892 -0.010805 0.000000 0.000000 0.000000
# 3 -0.013369 -0.010805 0.033697 0.000000 0.000000 0.000000
# 4 0.000000 0.000000 0.000000 0.037846 0.000000 0.000000
# 5 0.000000 0.000000 0.000000 0.000000 0.029463 0.000000
# 6 0.000000 0.000000 0.000000 0.000000 0.000000 0.177064
#
#
# Mechanical properties :
#
#
# Convention : Reuss Voigt Hill
#
# Bulk Modulus (GPa) = 57.16198 58.96832 58.06515
# Shear Modulus (GPa) = 13.13598 19.70489 16.42043
#
# Velocity S-wave (km/s) = 2.68257 3.28554 2.99924
# Velocity P-wave (km/s) = 6.39605 6.83352 6.61840
#
# Compressibility (1/GPa) = 0.01749415
#
# Stress axis : x y z
#
# Youngs Moduli (GPa) = 49.08370 50.27158 29.67621
#
# Poissons Ratio (x) = 0.20411 0.39673
# Poissons Ratio (y) = 0.19929 0.32066
# Poissons Ratio (z) = 0.65618 0.54320
#
# Static dielectric constant tensor:
#      x y z
#    x 1.655980 0.000000 0.000000 
#    y 0.000000 1.639420 0.000000 
#    z 0.000000 0.000000 1.623020 
# 
# From -- ./inp_files/39191.got.cif
#   From: 2010.05.17/outbox.cif.g08.bks.cpg/sg64_20_cif.got.tgz:39191.got - 2010.06.03 16:29:19.
