data_PCOD9477462
_publ_section_title
;
Structure prediction by ZEFSAII (Michael W. Deem and Ramdas Pophale) SiO2 
 PCOD9477462
Probable space group: C M C A
;
_chemical_formula_sum "Si O2"
_cell_formula_units_Z 112
_cell_length_a 15.968000
_cell_length_b 24.344980
_cell_length_c 12.740478
_cell_angle_alpha 90.000000
_cell_angle_beta 90.000000
_cell_angle_gamma 90.000000
_cell_volume 4952.741580
_symmetry_space_group_name_H-M "C M C A"
_symmetry_group_IT_number 64
_symmetry_cell_setting 'orthorhombic'
loop_
_space_group_symop_operation_xyz
x,y,z
-x,1/2-y,1/2+z
x,-y,-z
-x,1/2+y,1/2-z
-x,-y,-z
x,1/2+y,1/2-z
-x,y,z
x,1/2-y,1/2+z
1/2+x,1/2+y,z
1/2-x,-y,1/2+z
1/2+x,1/2-y,-z
1/2-x,y,1/2-z
1/2-x,1/2-y,-z
1/2+x,y,1/2-z
1/2-x,1/2+y,z
1/2+x,-y,1/2+z
loop_
_atom_site_type_symbol
_atom_site_label
_atom_site_fract_x
_atom_site_fract_y
_atom_site_fract_z
Si Si1 0.397780 0.468181 0.732292
Si Si2 0.096165 0.908377 0.527149
Si Si3 0.901147 0.666222 0.605304
Si Si4 0.194106 0.234278 0.155762
Si Si5 0.602575 0.091658 0.790903
Si Si6 0.899113 0.869278 0.874830
Si Si7 0.141338 0.211840 0.459417
O O1 0.500000 0.465513 0.730105
O O2 0.367420 0.446495 0.618570
O O3 0.376372 0.531139 0.752117
O O4 0.369884 0.424934 0.820090
O O5 0.134442 0.907384 0.410820
O O6 0.097055 0.845021 0.564135
O O7 0.000000 0.926913 0.514402
O O8 0.866340 0.637725 0.709731
O O9 0.872783 0.638287 0.496223
O O10 0.890390 0.731773 0.592980
O O11 0.000000 0.656482 0.608919
O O12 0.250000 0.256457 0.250000
O O13 0.135687 0.183682 0.187466
O O14 0.236777 0.207794 0.421871
O O15 0.141903 0.276195 0.084710
O O16 0.500000 0.096483 0.797031
O O17 0.000000 0.867379 0.872078
#
# Coordination Sequence:
#
# PCOD9477462 Si02
#       7
#    16  16  16  16  16  16  16
#     4   9  17  31  52  82 113 143 186 232 283 332
#     4  10  19  32  52  83 115 150 189 232 278 327
#     4   9  18  33  52  82 120 149 187 233 277 330
#     4  10  21  36  53  79 109 148 182 227 278 334
#     4   9  18  31  51  82 117 150 184 234 286 325
#     4   9  18  34  57  83 109 142 186 236 279 332
#     4  10  21  34  53  80 108 153 191 225 278 337
#
# _framework density 22.613738000000001
#
# number of rings (size 3 to 8) (size 9 to 14) (size 15 to 20)
#    0.000    2.571    0.000    1.714    2.000    2.857 
#    0.000    3.571    0.000    0.857   52.000    0.000 
#    0.000    0.000    0.000    0.000    0.000    0.000 
#
# Total GULP energy -312459.331163 kJ/mol
# GULP energy per Si atom -5579.630914 kJ/mol
# Density = 2.256227 g / cm^3
# Si number density = 22.613738 Si / 1000 Ang^3
#
#
#
# Elastic Constant Matrix: (Units=GPa)
#
#
# Indices 1 2 3 4 5 6 
#
# 1 11.0566 -0.1118 15.8790 0.0000 0.0000 0.0000
# 2 -0.1118 97.7593 42.3681 0.0000 0.0000 0.0000
# 3 15.8790 42.3681 93.9535 0.0000 0.0000 0.0000
# 4 0.0000 0.0000 0.0000 36.0551 0.0000 0.0000
# 5 0.0000 0.0000 0.0000 0.0000 15.5699 0.0000
# 6 0.0000 0.0000 0.0000 0.0000 0.0000 -4.7696
#
#
#
# Elastic Compliance Matrix: (Units=1/GPa)
#
#
# Indices 1 2 3 4 5 6 
#
# 1 0.129862 0.012007 -0.027362 0.000000 0.000000 0.000000
# 2 0.012007 0.013824 -0.008263 0.000000 0.000000 0.000000
# 3 -0.027362 -0.008263 0.018994 0.000000 0.000000 0.000000
# 4 0.000000 0.000000 0.000000 0.027735 0.000000 0.000000
# 5 0.000000 0.000000 0.000000 0.000000 0.064227 0.000000
# 6 0.000000 0.000000 0.000000 0.000000 0.000000 -0.209661
#
#
# Mechanical properties :
#
#
# Convention : Reuss Voigt Hill
#
# Bulk Modulus (GPa) = 8.66226 35.44889 22.05558
# Shear Modulus (GPa) = 38.25584 19.01334 28.63459
#
# Velocity S-wave (km/s) = 4.11750 2.90278 3.56230
# Velocity P-wave (km/s) = 5.14237 5.19083 5.16665
#
# Compressibility (1/GPa) = 0.11544326
#
# Stress axis : x y z
#
# Youngs Moduli (GPa) = 7.70049 72.33712 52.64733
#
# Poissons Ratio (x) = -0.86856 1.44055
# Poissons Ratio (y) = -0.09246 0.43504
# Poissons Ratio (z) = 0.21070 0.59774
#
# Static dielectric constant tensor:
#      x y z
#    x 1.835190 0.000000 0.000000 
#    y 0.000000 1.828620 0.000000 
#    z 0.000000 0.000000 1.922740 
# 
# From -- ./inp_files/17532.got.cif
#   From: 2010.05.17/outbox.cif.g08.bks.cpg/sg64_9_cif.got.tgz:17532.got - 2010.06.03 16:29:19.
