data_PCOD9477935
_publ_section_title
;
Structure prediction by ZEFSAII (Michael W. Deem and Ramdas Pophale) SiO2 
 PCOD9477935
Probable space group: C M C A
;
_chemical_formula_sum "Si O2"
_cell_formula_units_Z 96
_cell_length_a 17.840706
_cell_length_b 22.735161
_cell_length_c 11.613612
_cell_angle_alpha 90.000000
_cell_angle_beta 90.000000
_cell_angle_gamma 90.000000
_cell_volume 4710.612531
_symmetry_space_group_name_H-M "C M C A"
_symmetry_group_IT_number 64
_symmetry_cell_setting 'orthorhombic'
loop_
_space_group_symop_operation_xyz
x,y,z
-x,1/2-y,1/2+z
x,-y,-z
-x,1/2+y,1/2-z
-x,-y,-z
x,1/2+y,1/2-z
-x,y,z
x,1/2-y,1/2+z
1/2+x,1/2+y,z
1/2-x,-y,1/2+z
1/2+x,1/2-y,-z
1/2-x,y,1/2-z
1/2-x,1/2-y,-z
1/2+x,y,1/2-z
1/2-x,1/2+y,z
1/2+x,-y,1/2+z
loop_
_atom_site_type_symbol
_atom_site_label
_atom_site_fract_x
_atom_site_fract_y
_atom_site_fract_z
Si Si1 0.417693 0.646391 0.157517
Si Si2 0.200455 0.607481 0.991072
Si Si3 0.416908 0.049422 0.140995
Si Si4 0.766447 0.284941 0.620341
Si Si5 0.084777 0.911143 0.303146
Si Si6 0.130586 0.932974 0.044635
O O1 0.500000 0.673173 0.174615
O O2 0.406884 0.597120 0.257165
O O3 0.351716 0.693118 0.138231
O O4 0.413408 0.607265 0.044125
O O5 0.149542 0.560709 0.054963
O O6 0.217115 0.657507 0.087161
O O7 0.148461 0.621507 0.879599
O O8 0.280894 0.581911 0.958116
O O9 0.500000 0.060742 0.090627
O O10 0.414335 0.981577 0.174474
O O11 0.750000 0.260180 0.750000
O O12 0.750000 0.250000 0.500000
O O13 0.102932 0.912508 0.168734
O O14 0.000000 0.889306 0.325580
O O15 0.120184 0.000000 0.000000
#
# Coordination Sequence:
#
# PCOD9477935 Si02
#       6
#    16  16  16  16  16  16
#     4  10  21  39  64  92 124 166 212 259 317 391
#     4  11  23  38  59  89 124 162 215 268 328 386
#     4  10  19  35  60  88 126 167 209 252 309 389
#     4  11  25  47  71  94 123 165 219 281 345 394
#     4  11  22  35  55  91 134 175 215 256 312 384
#     4  11  21  33  55  86 130 175 214 255 310 385
#
# _framework density 20.379515000000001
#
# number of rings (size 3 to 8) (size 9 to 14) (size 15 to 20)
#    0.000    1.333    3.333    3.000    0.000    4.667 
#    0.000    2.500    0.000    0.000    0.000    0.000 
#    0.000    0.000    0.000    0.000    0.000    0.000 
#
# Total GULP energy -267368.901577 kJ/mol
# GULP energy per Si atom -5570.185450 kJ/mol
# Density = 2.033313 g / cm^3
# Si number density = 20.379515 Si / 1000 Ang^3
#
#
#
# Elastic Constant Matrix: (Units=GPa)
#
#
# Indices 1 2 3 4 5 6 
#
# 1 108.5793 21.8132 40.7085 0.0000 0.0000 0.0000
# 2 21.8132 19.2135 11.1771 0.0000 0.0000 0.0000
# 3 40.7085 11.1771 125.7792 0.0000 0.0000 0.0000
# 4 0.0000 0.0000 0.0000 37.7925 0.0000 0.0000
# 5 0.0000 0.0000 0.0000 0.0000 32.8493 0.0000
# 6 0.0000 0.0000 0.0000 0.0000 0.0000 21.6381
#
#
#
# Elastic Compliance Matrix: (Units=1/GPa)
#
#
# Indices 1 2 3 4 5 6 
#
# 1 0.012948 -0.012930 -0.003042 0.000000 0.000000 0.000000
# 2 -0.012930 0.067797 -0.001840 0.000000 0.000000 0.000000
# 3 -0.003042 -0.001840 0.009098 0.000000 0.000000 0.000000
# 4 0.000000 0.000000 0.000000 0.026460 0.000000 0.000000
# 5 0.000000 0.000000 0.000000 0.000000 0.030442 0.000000
# 6 0.000000 0.000000 0.000000 0.000000 0.000000 0.046215
#
#
# Mechanical properties :
#
#
# Convention : Reuss Voigt Hill
#
# Bulk Modulus (GPa) = 18.44343 44.55216 31.49779
# Shear Modulus (GPa) = 20.27106 30.44753 25.35929
#
# Velocity S-wave (km/s) = 3.15727 3.86946 3.53136
# Velocity P-wave (km/s) = 4.72872 6.47088 5.66715
#
# Compressibility (1/GPa) = 0.05421986
#
# Stress axis : x y z
#
# Youngs Moduli (GPa) = 77.23275 14.74990 109.91043
#
# Poissons Ratio (x) = 0.19072 0.33430
# Poissons Ratio (y) = 0.99865 0.20220
# Poissons Ratio (z) = 0.23491 0.02714
#
# Static dielectric constant tensor:
#      x y z
#    x 1.740480 0.000000 0.000000 
#    y 0.000000 1.751450 0.000000 
#    z 0.000000 0.000000 -7.402050 
# 
# From -- ./inp_files/16198.got.cif
#   From: 2010.05.17/outbox.cif.g08.bks.cpg/sg64_9_cif.got.tgz:16198.got - 2010.06.03 16:29:19.
