data_PCOD9477009
_publ_section_title
;
Structure prediction by ZEFSAII (Michael W. Deem and Ramdas Pophale) SiO2 
 PCOD9477009
Probable space group: C M C A
;
_chemical_formula_sum "Si O2"
_cell_formula_units_Z 112
_cell_length_a 19.449500
_cell_length_b 17.558057
_cell_length_c 18.967711
_cell_angle_alpha 90.000000
_cell_angle_beta 90.000000
_cell_angle_gamma 90.000000
_cell_volume 6477.386617
_symmetry_space_group_name_H-M "C M C A"
_symmetry_group_IT_number 64
_symmetry_cell_setting 'orthorhombic'
loop_
_space_group_symop_operation_xyz
x,y,z
-x,1/2-y,1/2+z
x,-y,-z
-x,1/2+y,1/2-z
-x,-y,-z
x,1/2+y,1/2-z
-x,y,z
x,1/2-y,1/2+z
1/2+x,1/2+y,z
1/2-x,-y,1/2+z
1/2+x,1/2-y,-z
1/2-x,y,1/2-z
1/2-x,1/2-y,-z
1/2+x,y,1/2-z
1/2-x,1/2+y,z
1/2+x,-y,1/2+z
loop_
_atom_site_type_symbol
_atom_site_label
_atom_site_fract_x
_atom_site_fract_y
_atom_site_fract_z
Si Si1 0.176727 0.928131 0.287863
Si Si2 0.422269 0.152717 0.397864
Si Si3 0.078433 0.212500 0.711969
Si Si4 0.756839 0.963555 0.428047
Si Si5 0.382227 0.989427 0.352186
Si Si6 0.690467 0.190935 0.517958
Si Si7 0.423291 0.186703 0.624970
O O1 0.250000 0.909369 0.250000
O O2 0.133658 0.852515 0.303884
O O3 0.192029 0.966111 0.362525
O O4 0.137380 0.979135 0.230025
O O5 0.500000 0.167603 0.426285
O O6 0.410548 0.211709 0.333492
O O7 0.422387 0.066013 0.369605
O O8 0.360949 0.166143 0.454283
O O9 0.082792 0.220134 0.796449
O O10 0.000000 0.186103 0.697164
O O11 0.731634 0.879451 0.448260
O O12 0.782389 0.000000 0.500000
O O13 0.686781 0.000022 0.398298
O O14 0.413748 0.906227 0.371614
O O15 0.750000 0.250000 0.500000
O O16 0.636889 0.219004 0.576950
O O17 0.500000 0.202168 0.598768
#
# Coordination Sequence:
#
# PCOD9477009 Si02
#       7
#    16  16  16  16  16  16  16
#     4   9  18  34  56  77 103 142 182 215 263 326
#     4  11  21  34  54  83 113 140 179 231 278 322
#     4   9  19  35  54  76 103 139 180 222 266 319
#     4  10  18  34  51  73 109 139 175 220 260 316
#     4   9  18  33  53  82 107 136 175 223 277 322
#     4  11  22  35  52  80 112 144 181 220 273 324
#     4   9  18  35  57  78 105 144 181 219 274 334
#
# _framework density 17.290922999999999
#
# number of rings (size 3 to 8) (size 9 to 14) (size 15 to 20)
#    0.000    2.286    1.429    2.571    0.000    0.571 
#    2.571    4.286    0.000    0.429    0.000    0.000 
#    0.000    0.000    0.000    0.000    0.000    0.000 
#
# Total GULP energy -311815.031798 kJ/mol
# GULP energy per Si atom -5568.125568 kJ/mol
# Density = 1.725157 g / cm^3
# Si number density = 17.290923 Si / 1000 Ang^3
#
#
#
# Elastic Constant Matrix: (Units=GPa)
#
#
# Indices 1 2 3 4 5 6 
#
# 1 71.7967 10.2062 28.4135 0.0000 0.0000 0.0000
# 2 10.2062 23.4607 17.1901 0.0000 0.0000 0.0000
# 3 28.4135 17.1901 78.5377 0.0000 0.0000 0.0000
# 4 0.0000 0.0000 0.0000 19.3598 0.0000 0.0000
# 5 0.0000 0.0000 0.0000 0.0000 2.1046 0.0000
# 6 0.0000 0.0000 0.0000 0.0000 0.0000 19.3027
#
#
#
# Elastic Compliance Matrix: (Units=1/GPa)
#
#
# Indices 1 2 3 4 5 6 
#
# 1 0.016472 -0.003334 -0.005229 0.000000 0.000000 0.000000
# 2 -0.003334 0.051441 -0.010053 0.000000 0.000000 0.000000
# 3 -0.005229 -0.010053 0.016825 0.000000 0.000000 0.000000
# 4 0.000000 0.000000 0.000000 0.051653 0.000000 0.000000
# 5 0.000000 0.000000 0.000000 0.000000 0.475152 0.000000
# 6 0.000000 0.000000 0.000000 0.000000 0.000000 0.051806
#
#
# Mechanical properties :
#
#
# Convention : Reuss Voigt Hill
#
# Bulk Modulus (GPa) = 21.05055 31.71275 26.38165
# Shear Modulus (GPa) = 6.97917 16.01912 11.49915
#
# Velocity S-wave (km/s) = 2.01124 3.04706 2.58163
# Velocity P-wave (km/s) = 4.19454 5.54617 4.91702
#
# Compressibility (1/GPa) = 0.04750470
#
# Stress axis : x y z
#
# Youngs Moduli (GPa) = 60.71022 19.43972 59.43524
#
# Poissons Ratio (x) = 0.06481 0.31081
# Poissons Ratio (y) = 0.20241 0.59751
# Poissons Ratio (z) = 0.31748 0.19543
#
# Static dielectric constant tensor:
#      x y z
#    x 1.603220 0.000000 0.000000 
#    y 0.000000 1.579470 0.000000 
#    z 0.000000 0.000000 1.604960 
# 
# From -- ./inp_files/34471.got.cif
#   From: 2010.05.17/outbox.cif.g08.bks.cpg/sg64_18_cif.got.tgz:34471.got - 2010.06.03 16:29:19.
