data_PCOD9477149
_publ_section_title
;
Structure prediction by ZEFSAII (Michael W. Deem and Ramdas Pophale) SiO2 
 PCOD9477149
Probable space group: C M C A
;
_chemical_formula_sum "Si O2"
_cell_formula_units_Z 104
_cell_length_a 22.513523
_cell_length_b 25.463940
_cell_length_c 7.837991
_cell_angle_alpha 90.000000
_cell_angle_beta 90.000000
_cell_angle_gamma 90.000000
_cell_volume 4493.386986
_symmetry_space_group_name_H-M "C M C A"
_symmetry_group_IT_number 64
_symmetry_cell_setting 'orthorhombic'
loop_
_space_group_symop_operation_xyz
x,y,z
-x,1/2-y,1/2+z
x,-y,-z
-x,1/2+y,1/2-z
-x,-y,-z
x,1/2+y,1/2-z
-x,y,z
x,1/2-y,1/2+z
1/2+x,1/2+y,z
1/2-x,-y,1/2+z
1/2+x,1/2-y,-z
1/2-x,y,1/2-z
1/2-x,1/2-y,-z
1/2+x,y,1/2-z
1/2-x,1/2+y,z
1/2+x,-y,1/2+z
loop_
_atom_site_type_symbol
_atom_site_label
_atom_site_fract_x
_atom_site_fract_y
_atom_site_fract_z
Si Si1 0.000000 0.876957 0.649259
Si Si2 0.869158 0.224290 0.178428
Si Si3 0.691945 0.185864 0.633074
Si Si4 0.683003 0.488873 0.701045
Si Si5 0.000000 0.291778 0.554189
Si Si6 0.500000 0.642324 0.734391
Si Si7 0.373552 0.908162 0.265231
Si Si8 0.630052 0.114153 0.126733
O O1 0.937817 0.906750 0.643735
O O2 0.000000 0.845352 0.468153
O O3 0.000000 0.841862 0.817695
O O4 0.855507 0.278919 0.266048
O O5 0.869983 0.173713 0.304824
O O6 0.813517 0.212160 0.052305
O O7 0.934093 0.230309 0.092152
O O8 0.750000 0.185739 0.750000
O O9 0.666391 0.127555 0.613230
O O10 0.675127 0.500000 0.500000
O O11 0.750000 0.501649 0.750000
O O12 0.639875 0.530872 0.789299
O O13 0.669575 0.427645 0.727367
O O14 0.000000 0.307829 0.356764
O O15 0.558299 0.608595 0.778110
O O16 0.354362 0.889898 0.073146
#
# Coordination Sequence:
#
# PCOD9477149 Si02
#       8
#     8  16  16  16   8   8  16  16
#     4   8  18  35  63  94 127 160 209 258 328 388
#     4  11  24  41  64  92 124 165 211 267 327 387
#     4  12  25  41  61  88 126 167 214 261 316 392
#     4  10  22  39  60  90 126 169 216 261 319 383
#     4  10  20  41  65  96 130 159 214 268 329 392
#     4  10  18  38  66  91 125 167 203 271 329 387
#     4  10  21  39  63  91 123 165 214 261 324 390
#     4   9  20  39  63  90 125 163 207 266 322 385
#
# _framework density 23.145125
#
# number of rings (size 3 to 8) (size 9 to 14) (size 15 to 20)
#    0.000    1.846    1.538    1.846    0.000    6.154 
#    0.000    4.615    0.000    1.846    0.000    0.000 
#    0.000    0.000    0.000    0.000    0.000    0.000 
#
# Total GULP energy -290461.767749 kJ/mol
# GULP energy per Si atom -5585.803226 kJ/mol
# Density = 2.309245 g / cm^3
# Si number density = 23.145125 Si / 1000 Ang^3
#
#
#
# Elastic Constant Matrix: (Units=GPa)
#
#
# Indices 1 2 3 4 5 6 
#
# 1 69.7492 25.0908 6.3577 0.0000 0.0000 0.0000
# 2 25.0908 82.5992 4.9984 0.0000 0.0000 0.0000
# 3 6.3577 4.9984 49.8356 0.0000 0.0000 0.0000
# 4 0.0000 0.0000 0.0000 -30.7361 0.0000 0.0000
# 5 0.0000 0.0000 0.0000 0.0000 21.8230 0.0000
# 6 0.0000 0.0000 0.0000 0.0000 0.0000 20.2136
#
#
#
# Elastic Compliance Matrix: (Units=1/GPa)
#
#
# Indices 1 2 3 4 5 6 
#
# 1 0.016219 -0.004831 -0.001585 0.000000 0.000000 0.000000
# 2 -0.004831 0.013620 -0.000750 0.000000 0.000000 0.000000
# 3 -0.001585 -0.000750 0.020343 0.000000 0.000000 0.000000
# 4 0.000000 0.000000 0.000000 -0.032535 0.000000 0.000000
# 5 0.000000 0.000000 0.000000 0.000000 0.045823 0.000000
# 6 0.000000 0.000000 0.000000 0.000000 0.000000 0.049472
#
#
# Mechanical properties :
#
#
# Convention : Reuss Voigt Hill
#
# Bulk Modulus (GPa) = 27.89278 30.56420 29.22849
# Shear Modulus (GPa) = 35.91354 13.30923 24.61139
#
# Velocity S-wave (km/s) = 3.94339 2.40059 3.26444
# Velocity P-wave (km/s) = 5.72811 4.57361 5.18310
#
# Compressibility (1/GPa) = 0.03585157
#
# Stress axis : x y z
#
# Youngs Moduli (GPa) = 61.65468 73.42406 49.15615
#
# Poissons Ratio (x) = 0.35471 0.07789
# Poissons Ratio (y) = 0.29785 0.03685
# Poissons Ratio (z) = 0.09770 0.05505
#
# Static dielectric constant tensor:
#      x y z
#    x 1.844600 0.000000 0.000000 
#    y 0.000000 1.837100 0.000000 
#    z 0.000000 0.000000 1.907490 
# 
# From -- ./inp_files/8582.got.cif
#   From: 2010.05.17/outbox.cif.g08.bks.cpg/sg64_5_cif.got.tgz:8582.got - 2010.06.03 16:29:19.
