data_PCOD9477289
_publ_section_title
;
Structure prediction by ZEFSAII (Michael W. Deem and Ramdas Pophale) SiO2 
 PCOD9477289
Probable space group: C M C A
;
_chemical_formula_sum "Si O2"
_cell_formula_units_Z 96
_cell_length_a 8.734480
_cell_length_b 27.877210
_cell_length_c 24.527651
_cell_angle_alpha 90.000000
_cell_angle_beta 90.000000
_cell_angle_gamma 90.000000
_cell_volume 5972.309687
_symmetry_space_group_name_H-M "C M C A"
_symmetry_group_IT_number 64
_symmetry_cell_setting 'orthorhombic'
loop_
_space_group_symop_operation_xyz
x,y,z
-x,1/2-y,1/2+z
x,-y,-z
-x,1/2+y,1/2-z
-x,-y,-z
x,1/2+y,1/2-z
-x,y,z
x,1/2-y,1/2+z
1/2+x,1/2+y,z
1/2-x,-y,1/2+z
1/2+x,1/2-y,-z
1/2-x,y,1/2-z
1/2-x,1/2-y,-z
1/2+x,y,1/2-z
1/2-x,1/2+y,z
1/2+x,-y,1/2+z
loop_
_atom_site_type_symbol
_atom_site_label
_atom_site_fract_x
_atom_site_fract_y
_atom_site_fract_z
Si Si1 0.816412 0.572010 0.692194
Si Si2 0.816092 0.227076 0.579919
Si Si3 0.683816 0.019869 0.580787
Si Si4 0.683483 0.321344 0.307638
Si Si5 0.182380 0.928959 0.524208
Si Si6 0.182349 0.825654 0.976586
O O1 0.750000 0.554745 0.750000
O O2 0.776443 0.538950 0.640728
O O3 0.749575 0.625298 0.683087
O O4 0.000000 0.575244 0.695933
O O5 0.775774 0.211656 0.640956
O O6 0.778638 0.281825 0.564110
O O7 0.734311 0.193054 0.536015
O O8 0.000000 0.221357 0.573212
O O9 0.500000 0.018965 0.575431
O O10 0.750825 0.055271 0.534657
O O11 0.750391 0.967771 0.566395
O O12 0.500000 0.324411 0.303850
O O13 0.750000 0.304088 0.250000
O O14 0.235014 0.875209 0.536553
O O15 0.000000 0.932679 0.522758
O O16 0.000000 0.832877 0.975976
#
# Coordination Sequence:
#
# PCOD9477289 Si02
#       6
#    16  16  16  16  16  16
#     4  10  20  32  49  72  97 126 158 193 235 282
#     4   9  19  33  49  71  97 126 159 196 238 281
#     4  10  20  34  51  72  97 127 161 196 238 284
#     4  10  19  31  48  70  97 126 157 193 233 279
#     4  11  21  32  49  73  99 128 160 196 239 284
#     4  10  19  32  50  71  97 127 159 196 238 285
#
# _framework density 16.074183999999999
#
# number of rings (size 3 to 8) (size 9 to 14) (size 15 to 20)
#    0.000    2.000    0.000    6.500    0.000    7.333 
#    0.000    0.000    0.000    1.000    0.000    2.333 
#    0.000    0.000    0.000    0.000    0.000    0.000 
#
# Total GULP energy -267931.891529 kJ/mol
# GULP energy per Si atom -5581.914407 kJ/mol
# Density = 1.603760 g / cm^3
# Si number density = 16.074184 Si / 1000 Ang^3
#
#
#
# Elastic Constant Matrix: (Units=GPa)
#
#
# Indices 1 2 3 4 5 6 
#
# 1 72.9359 45.3947 57.3528 0.0000 0.0000 0.0000
# 2 45.3947 93.9135 74.7729 0.0000 0.0000 0.0000
# 3 57.3528 74.7729 155.8657 0.0000 0.0000 0.0000
# 4 0.0000 0.0000 0.0000 18.4675 0.0000 0.0000
# 5 0.0000 0.0000 0.0000 0.0000 20.9579 0.0000
# 6 0.0000 0.0000 0.0000 0.0000 0.0000 23.8241
#
#
#
# Elastic Compliance Matrix: (Units=1/GPa)
#
#
# Indices 1 2 3 4 5 6 
#
# 1 0.021587 -0.006650 -0.004753 0.000000 0.000000 0.000000
# 2 -0.006650 0.019277 -0.006801 0.000000 0.000000 0.000000
# 3 -0.004753 -0.006801 0.011427 0.000000 0.000000 0.000000
# 4 0.000000 0.000000 0.000000 0.054149 0.000000 0.000000
# 5 0.000000 0.000000 0.000000 0.000000 0.047715 0.000000
# 6 0.000000 0.000000 0.000000 0.000000 0.000000 0.041974
#
#
# Mechanical properties :
#
#
# Convention : Reuss Voigt Hill
#
# Bulk Modulus (GPa) = 62.95773 75.30623 69.13198
# Shear Modulus (GPa) = 21.02317 22.32954 21.67635
#
# Velocity S-wave (km/s) = 3.62039 3.73118 3.67620
# Velocity P-wave (km/s) = 7.53182 8.09402 7.81798
#
# Compressibility (1/GPa) = 0.01588367
#
# Stress axis : x y z
#
# Youngs Moduli (GPa) = 46.32364 51.87438 87.51029
#
# Poissons Ratio (x) = 0.34498 0.41594
# Poissons Ratio (y) = 0.30807 0.59514
# Poissons Ratio (z) = 0.22018 0.35279
#
# Static dielectric constant tensor:
#      x y z
#    x 1.538990 0.000000 0.000000 
#    y 0.000000 1.522420 0.000000 
#    z 0.000000 0.000000 1.529640 
# 
# From -- ./inp_files/43222.got.cif
#   From: 2010.05.17/outbox.cif.g08.bks.cpg/sg64_22_cif.got.tgz:43222.got - 2010.06.03 16:29:19.
