data_PCOD9477004
_publ_section_title
;
Structure prediction by ZEFSAII (Michael W. Deem and Ramdas Pophale) SiO2 
 PCOD9477004
Probable space group: C M C A
;
_chemical_formula_sum "Si O2"
_cell_formula_units_Z 72
_cell_length_a 11.199706
_cell_length_b 27.965521
_cell_length_c 9.429483
_cell_angle_alpha 90.000000
_cell_angle_beta 90.000000
_cell_angle_gamma 90.000000
_cell_volume 2953.367006
_symmetry_space_group_name_H-M "C M C A"
_symmetry_group_IT_number 64
_symmetry_cell_setting 'orthorhombic'
loop_
_space_group_symop_operation_xyz
x,y,z
-x,1/2-y,1/2+z
x,-y,-z
-x,1/2+y,1/2-z
-x,-y,-z
x,1/2+y,1/2-z
-x,y,z
x,1/2-y,1/2+z
1/2+x,1/2+y,z
1/2-x,-y,1/2+z
1/2+x,1/2-y,-z
1/2-x,y,1/2-z
1/2-x,1/2-y,-z
1/2+x,y,1/2-z
1/2-x,1/2+y,z
1/2+x,-y,1/2+z
loop_
_atom_site_type_symbol
_atom_site_label
_atom_site_fract_x
_atom_site_fract_y
_atom_site_fract_z
Si Si1 0.500000 0.659598 0.967885
Si Si2 0.000000 0.392513 0.772868
Si Si3 0.000000 0.257199 0.669320
Si Si4 0.240538 0.374649 0.477462
Si Si5 0.750000 0.697109 0.250000
Si Si6 0.304317 0.535179 0.384674
Si Si7 0.000000 0.350069 0.065115
O O1 0.500000 0.630387 0.119035
O O2 0.500000 0.714087 0.018770
O O3 0.376010 0.644750 0.897515
O O4 0.890882 0.426858 0.810327
O O5 0.000000 0.351429 0.891919
O O6 0.127540 0.272085 0.739953
O O7 0.000000 0.201536 0.634500
O O8 0.248065 0.337537 0.611836
O O9 0.218187 0.429037 0.528307
O O10 0.371490 0.374564 0.407430
O O11 0.358417 0.500000 0.500000
O O12 0.250000 0.508004 0.250000
#
# Coordination Sequence:
#
# PCOD9477004 Si02
#       7
#     8   8   8  16   8  16   8
#     4  10  18  33  62  82 122 151 208 255 303 367
#     4  10  19  38  60  83 122 159 212 245 316 385
#     4  10  20  32  52  88 104 150 209 259 300 354
#     4  10  18  36  56  85 118 160 201 250 314 375
#     4  10  18  34  58  76 118 152 206 260 298 372
#     4  11  20  35  61  94 120 162 215 261 309 381
#     4  10  20  31  54  81 117 152 201 248 306 379
#
# _framework density 24.378955999999999
#
# number of rings (size 3 to 8) (size 9 to 14) (size 15 to 20)
#    0.000    1.778    3.333    5.000    0.000    3.556 
#    0.000    3.333    9.778    0.000    0.000    0.000 
#    0.000    0.000    0.000    0.000    0.000    0.000 
#
# Total GULP energy -200816.969890 kJ/mol
# GULP energy per Si atom -5578.249164 kJ/mol
# Density = 2.432347 g / cm^3
# Si number density = 24.378956 Si / 1000 Ang^3
#
#
#
# Elastic Constant Matrix: (Units=GPa)
#
#
# Indices 1 2 3 4 5 6 
#
# 1 176.8015 13.7991 16.7087 0.0000 0.0000 0.0000
# 2 13.7991 76.6650 31.2201 0.0000 0.0000 0.0000
# 3 16.7087 31.2201 115.1160 0.0000 0.0000 0.0000
# 4 0.0000 0.0000 0.0000 29.5928 0.0000 0.0000
# 5 0.0000 0.0000 0.0000 0.0000 -33.4408 0.0000
# 6 0.0000 0.0000 0.0000 0.0000 0.0000 10.5309
#
#
#
# Elastic Compliance Matrix: (Units=1/GPa)
#
#
# Indices 1 2 3 4 5 6 
#
# 1 0.005776 -0.000785 -0.000626 0.000000 0.000000 0.000000
# 2 -0.000785 0.014770 -0.003892 0.000000 0.000000 0.000000
# 3 -0.000626 -0.003892 0.009833 0.000000 0.000000 0.000000
# 4 0.000000 0.000000 0.000000 0.033792 0.000000 0.000000
# 5 0.000000 0.000000 0.000000 0.000000 -0.029904 0.000000
# 6 0.000000 0.000000 0.000000 0.000000 0.000000 0.094958
#
#
# Mechanical properties :
#
#
# Convention : Reuss Voigt Hill
#
# Bulk Modulus (GPa) = 50.56898 54.67090 52.61994
# Shear Modulus (GPa) = 34.14782 21.79357 27.97070
#
# Velocity S-wave (km/s) = 3.74666 2.99314 3.39090
# Velocity P-wave (km/s) = 6.28527 5.86680 6.07963
#
# Compressibility (1/GPa) = 0.01977497
#
# Stress axis : x y z
#
# Youngs Moduli (GPa) = 173.11694 67.70536 101.69689
#
# Poissons Ratio (x) = 0.05315 0.06362
# Poissons Ratio (y) = 0.13589 0.39578
# Poissons Ratio (z) = 0.10829 0.26349
#
# Static dielectric constant tensor:
#      x y z
#    x 2.088730 0.000000 0.000000 
#    y 0.000000 1.902050 0.000000 
#    z 0.000000 0.000000 1.989440 
# 
# From -- ./inp_files/13138.got.cif
#   From: 2010.05.17/outbox.cif.g08.bks.cpg/sg64_7_cif.got.tgz:13138.got - 2010.06.03 16:29:19.
