data_PCOD9477503
_publ_section_title
;
Structure prediction by ZEFSAII (Michael W. Deem and Ramdas Pophale) SiO2 
 PCOD9477503
Probable space group: C M C A
;
_chemical_formula_sum "Si O2"
_cell_formula_units_Z 96
_cell_length_a 14.607880
_cell_length_b 22.213644
_cell_length_c 15.299617
_cell_angle_alpha 90.000000
_cell_angle_beta 90.000000
_cell_angle_gamma 90.000000
_cell_volume 4964.637681
_symmetry_space_group_name_H-M "C M C A"
_symmetry_group_IT_number 64
_symmetry_cell_setting 'orthorhombic'
loop_
_space_group_symop_operation_xyz
x,y,z
-x,1/2-y,1/2+z
x,-y,-z
-x,1/2+y,1/2-z
-x,-y,-z
x,1/2+y,1/2-z
-x,y,z
x,1/2-y,1/2+z
1/2+x,1/2+y,z
1/2-x,-y,1/2+z
1/2+x,1/2-y,-z
1/2-x,y,1/2-z
1/2-x,1/2-y,-z
1/2+x,y,1/2-z
1/2-x,1/2+y,z
1/2+x,-y,1/2+z
loop_
_atom_site_type_symbol
_atom_site_label
_atom_site_fract_x
_atom_site_fract_y
_atom_site_fract_z
Si Si1 0.000000 0.936992 0.101879
Si Si2 0.896600 0.256466 0.957370
Si Si3 0.259387 0.156457 0.986451
Si Si4 0.392934 0.759336 0.254604
Si Si5 0.816520 0.388381 0.315491
Si Si6 0.315510 0.358787 0.829388
Si Si7 0.000000 0.918932 0.898252
O O1 0.911048 0.915802 0.153491
O O2 0.000000 0.008900 0.101432
O O3 0.000000 0.907600 0.004023
O O4 0.857608 0.312006 0.011702
O O5 0.892573 0.268504 0.853125
O O6 0.000000 0.239943 0.979815
O O7 0.823384 0.204594 0.975130
O O8 0.241352 0.131549 0.082145
O O9 0.243729 0.116618 0.902964
O O10 0.500000 0.766413 0.229415
O O11 0.344857 0.824182 0.269507
O O12 0.341778 0.711760 0.191623
O O13 0.750000 0.422661 0.250000
O O14 0.250000 0.378319 0.750000
O O15 0.411234 0.392123 0.849236
#
# Coordination Sequence:
#
# PCOD9477503 Si02
#       7
#     8  16  16  16  16  16   8
#     4  11  24  49  68  89 117 164 232 263 311 368
#     4   9  19  32  48  75 127 174 197 239 299 374
#     4  10  21  35  52  85 126 169 206 250 305 373
#     4  10  19  32  54  87 126 162 193 236 311 385
#     4  11  23  40  63  90 125 166 207 261 313 374
#     4  12  22  37  61  97 130 159 204 259 320 375
#     4  11  26  43  72  91 115 170 220 269 311 366
#
# _framework density 19.336760000000002
#
# number of rings (size 3 to 8) (size 9 to 14) (size 15 to 20)
#    0.000    1.500    5.000    0.500    7.000    0.667 
#    1.500    0.000    0.000    0.000    0.000    1.167 
#    0.000    0.000    0.000    0.000    0.000    0.000 
#
# Total GULP energy -267754.884197 kJ/mol
# GULP energy per Si atom -5578.226754 kJ/mol
# Density = 1.929275 g / cm^3
# Si number density = 19.336760 Si / 1000 Ang^3
#
#
#
# Elastic Constant Matrix: (Units=GPa)
#
#
# Indices 1 2 3 4 5 6 
#
# 1 105.2823 18.5198 43.8215 0.0000 0.0000 0.0000
# 2 18.5198 47.4159 18.4704 0.0000 0.0000 0.0000
# 3 43.8215 18.4704 120.6881 0.0000 0.0000 0.0000
# 4 0.0000 0.0000 0.0000 14.1932 0.0000 0.0000
# 5 0.0000 0.0000 0.0000 0.0000 29.3200 0.0000
# 6 0.0000 0.0000 0.0000 0.0000 0.0000 -18.0596
#
#
#
# Elastic Compliance Matrix: (Units=1/GPa)
#
#
# Indices 1 2 3 4 5 6 
#
# 1 0.011595 -0.003072 -0.003740 0.000000 0.000000 0.000000
# 2 -0.003072 0.023241 -0.002441 0.000000 0.000000 0.000000
# 3 -0.003740 -0.002441 0.010017 0.000000 0.000000 0.000000
# 4 0.000000 0.000000 0.000000 0.070456 0.000000 0.000000
# 5 0.000000 0.000000 0.000000 0.000000 0.034106 0.000000
# 6 0.000000 0.000000 0.000000 0.000000 0.000000 -0.055372
#
#
# Mechanical properties :
#
#
# Convention : Reuss Voigt Hill
#
# Bulk Modulus (GPa) = 37.95546 48.33444 43.14495
# Shear Modulus (GPa) = 41.20869 17.92901 29.56885
#
# Velocity S-wave (km/s) = 4.62140 3.04830 3.91468
# Velocity P-wave (km/s) = 6.93885 6.11881 6.54170
#
# Compressibility (1/GPa) = 0.02634667
#
# Stress axis : x y z
#
# Youngs Moduli (GPa) = 86.24105 43.02767 99.82555
#
# Poissons Ratio (x) = 0.13218 0.37336
# Poissons Ratio (y) = 0.26494 0.24371
# Poissons Ratio (z) = 0.32255 0.10505
#
# Static dielectric constant tensor:
#      x y z
#    x 1.689160 0.000000 0.000000 
#    y 0.000000 1.691190 0.000000 
#    z 0.000000 0.000000 1.735750 
# 
# From -- ./inp_files/24143.got.cif
#   From: 2010.05.17/outbox.cif.g08.bks.cpg/sg64_13_cif.got.tgz:24143.got - 2010.06.03 16:29:19.
