data_PCOD9477629
_publ_section_title
;
Structure prediction by ZEFSAII (Michael W. Deem and Ramdas Pophale) SiO2 
 PCOD9477629
Probable space group: C M C A
;
_chemical_formula_sum "Si O2"
_cell_formula_units_Z 104
_cell_length_a 24.475541
_cell_length_b 9.257589
_cell_length_c 27.062215
_cell_angle_alpha 90.000000
_cell_angle_beta 90.000000
_cell_angle_gamma 90.000000
_cell_volume 6131.878431
_symmetry_space_group_name_H-M "C M C A"
_symmetry_group_IT_number 64
_symmetry_cell_setting 'orthorhombic'
loop_
_space_group_symop_operation_xyz
x,y,z
-x,1/2-y,1/2+z
x,-y,-z
-x,1/2+y,1/2-z
-x,-y,-z
x,1/2+y,1/2-z
-x,y,z
x,1/2-y,1/2+z
1/2+x,1/2+y,z
1/2-x,-y,1/2+z
1/2+x,1/2-y,-z
1/2-x,y,1/2-z
1/2-x,1/2-y,-z
1/2+x,y,1/2-z
1/2-x,1/2+y,z
1/2+x,-y,1/2+z
loop_
_atom_site_type_symbol
_atom_site_label
_atom_site_fract_x
_atom_site_fract_y
_atom_site_fract_z
Si Si1 0.206394 0.026006 0.317306
Si Si2 0.000000 0.276090 0.030256
Si Si3 0.622133 0.759399 0.055812
Si Si4 0.116292 0.936099 0.610208
Si Si5 0.282630 0.425398 0.913839
Si Si6 0.500000 0.598977 0.423785
Si Si7 0.312089 0.263456 0.046140
Si Si8 0.750000 0.226887 0.750000
O O1 0.146053 0.021327 0.339719
O O2 0.249670 0.044544 0.362944
O O3 0.213119 0.164378 0.282052
O O4 0.219627 0.880825 0.287533
O O5 0.941479 0.213408 0.048506
O O6 0.000000 0.439543 0.051496
O O7 0.000000 0.292227 0.970586
O O8 0.660866 0.663680 0.091355
O O9 0.622960 0.924903 0.074231
O O10 0.652922 0.750481 0.003419
O O11 0.149468 0.802082 0.588511
O O12 0.053653 0.892959 0.609101
O O13 0.296191 0.574827 0.940324
O O14 0.242118 0.333975 0.949150
#
# Coordination Sequence:
#
# PCOD9477629 Si02
#       8
#    16   8  16  16  16   8  16   8
#     4  10  20  35  53  80  99 130 162 214 271 333
#     4   9  18  32  50  73 104 147 199 204 243 276
#     4  11  20  33  50  73 107 149 180 217 240 288
#     4  10  19  33  56  76 104 135 183 217 250 298
#     4  11  22  34  50  75 108 134 177 213 262 310
#     4   9  16  32  53  76 101 144 182 223 230 293
#     4  11  21  33  47  73 107 147 177 212 251 294
#     4  10  20  36  58  74 102 122 158 210 284 340
#
# _framework density 16.960543999999999
#
# number of rings (size 3 to 8) (size 9 to 14) (size 15 to 20)
#    0.000    1.692    1.538    6.000    0.000    2.462 
#    0.000    2.308    0.000    0.923    0.000    4.308 
#    0.000    0.000    0.000    0.000    0.000    0.000 
#
# Total GULP energy -290059.648954 kJ/mol
# GULP energy per Si atom -5578.070172 kJ/mol
# Density = 1.692194 g / cm^3
# Si number density = 16.960544 Si / 1000 Ang^3
#
#
#
# Elastic Constant Matrix: (Units=GPa)
#
#
# Indices 1 2 3 4 5 6 
#
# 1 151.9377 34.4468 29.1809 0.0000 0.0000 0.0000
# 2 34.4468 77.2093 5.6549 0.0000 0.0000 0.0000
# 3 29.1809 5.6549 56.4109 0.0000 0.0000 0.0000
# 4 0.0000 0.0000 0.0000 21.0078 0.0000 0.0000
# 5 0.0000 0.0000 0.0000 0.0000 18.8502 0.0000
# 6 0.0000 0.0000 0.0000 0.0000 0.0000 17.4637
#
#
#
# Elastic Compliance Matrix: (Units=1/GPa)
#
#
# Indices 1 2 3 4 5 6 
#
# 1 0.008072 -0.003320 -0.003843 0.000000 0.000000 0.000000
# 2 -0.003320 0.014413 0.000273 0.000000 0.000000 0.000000
# 3 -0.003843 0.000273 0.019688 0.000000 0.000000 0.000000
# 4 0.000000 0.000000 0.000000 0.047601 0.000000 0.000000
# 5 0.000000 0.000000 0.000000 0.000000 0.053050 0.000000
# 6 0.000000 0.000000 0.000000 0.000000 0.000000 0.057262
#
#
# Mechanical properties :
#
#
# Convention : Reuss Voigt Hill
#
# Bulk Modulus (GPa) = 35.22077 47.12479 41.17278
# Shear Modulus (GPa) = 22.38828 25.88268 24.13548
#
# Velocity S-wave (km/s) = 3.63715 3.91071 3.77641
# Velocity P-wave (km/s) = 6.20080 6.94527 6.58357
#
# Compressibility (1/GPa) = 0.02839234
#
# Stress axis : x y z
#
# Youngs Moduli (GPa) = 123.87838 69.38143 50.79313
#
# Poissons Ratio (x) = 0.23035 0.19520
# Poissons Ratio (y) = 0.41128 -0.01385
# Poissons Ratio (z) = 0.47606 -0.01891
#
# Static dielectric constant tensor:
#      x y z
#    x 1.601900 0.000000 0.000000 
#    y 0.000000 1.575920 0.000000 
#    z 0.000000 0.000000 1.586990 
# 
# From -- ./inp_files/51063.got.cif
#   From: 2010.05.17/outbox.cif.g08.bks.cpg/sg64_26_cif.got.tgz:51063.got - 2010.06.03 16:29:19.
