data_PCOD9477638
_publ_section_title
;
Structure prediction by ZEFSAII (Michael W. Deem and Ramdas Pophale) SiO2 
 PCOD9477638
Probable space group: C M C A
;
_chemical_formula_sum "Si O2"
_cell_formula_units_Z 96
_cell_length_a 8.829339
_cell_length_b 21.071046
_cell_length_c 29.019268
_cell_angle_alpha 90.000000
_cell_angle_beta 90.000000
_cell_angle_gamma 90.000000
_cell_volume 5398.843523
_symmetry_space_group_name_H-M "C M C A"
_symmetry_group_IT_number 64
_symmetry_cell_setting 'orthorhombic'
loop_
_space_group_symop_operation_xyz
x,y,z
-x,1/2-y,1/2+z
x,-y,-z
-x,1/2+y,1/2-z
-x,-y,-z
x,1/2+y,1/2-z
-x,y,z
x,1/2-y,1/2+z
1/2+x,1/2+y,z
1/2-x,-y,1/2+z
1/2+x,1/2-y,-z
1/2-x,y,1/2-z
1/2-x,1/2-y,-z
1/2+x,y,1/2-z
1/2-x,1/2+y,z
1/2+x,-y,1/2+z
loop_
_atom_site_type_symbol
_atom_site_label
_atom_site_fract_x
_atom_site_fract_y
_atom_site_fract_z
Si Si1 0.317199 0.870363 0.946268
Si Si2 0.182452 0.242933 0.892408
Si Si3 0.681776 0.449508 0.298503
Si Si4 0.682974 0.501204 0.603124
Si Si5 0.818429 0.619244 0.547939
Si Si6 0.818909 0.300615 0.201206
O O1 0.500000 0.869871 0.951424
O O2 0.272822 0.806433 0.919515
O O3 0.275690 0.932768 0.917055
O O4 0.244060 0.873887 0.996474
O O5 0.225845 0.180967 0.922095
O O6 0.255198 0.237127 0.842221
O O7 0.000000 0.243006 0.887725
O O8 0.500000 0.452392 0.295334
O O9 0.750000 0.471299 0.250000
O O10 0.730381 0.487523 0.343911
O O11 0.724128 0.375210 0.305026
O O12 0.500000 0.506856 0.601504
O O13 0.752094 0.556758 0.572008
O O14 0.000000 0.615637 0.547054
O O15 0.750000 0.279841 0.250000
O O16 0.000000 0.296899 0.202743
#
# Coordination Sequence:
#
# PCOD9477638 Si02
#       6
#    16  16  16  16  16  16
#     4  10  22  38  56  76 108 148 183 221 267 323
#     4  10  21  37  55  80 110 144 182 222 269 319
#     4   9  18  32  53  80 105 132 172 217 262 311
#     4  10  20  37  57  79 107 143 182 219 266 323
#     4  11  22  35  55  81 109 140 182 230 270 315
#     4  10  19  33  56  83 109 139 177 223 268 317
#
# _framework density 17.781585
#
# number of rings (size 3 to 8) (size 9 to 14) (size 15 to 20)
#    0.000    2.000    1.667    2.000    0.000    5.333 
#    0.000    0.833    0.000    2.000    0.000    0.000 
#    0.000    0.000    0.000    0.000    0.000    0.000 
#
# Total GULP energy -268034.371747 kJ/mol
# GULP energy per Si atom -5584.049411 kJ/mol
# Density = 1.774111 g / cm^3
# Si number density = 17.781585 Si / 1000 Ang^3
#
#
#
# Elastic Constant Matrix: (Units=GPa)
#
#
# Indices 1 2 3 4 5 6 
#
# 1 11.9210 23.6045 31.4578 0.0000 0.0000 0.0000
# 2 23.6045 97.1354 49.9115 0.0000 0.0000 0.0000
# 3 31.4578 49.9115 157.7216 0.0000 0.0000 0.0000
# 4 0.0000 0.0000 0.0000 -4.6947 0.0000 0.0000
# 5 0.0000 0.0000 0.0000 0.0000 37.8896 0.0000
# 6 0.0000 0.0000 0.0000 0.0000 0.0000 15.9120
#
#
#
# Elastic Compliance Matrix: (Units=1/GPa)
#
#
# Indices 1 2 3 4 5 6 
#
# 1 0.297958 -0.050000 -0.043606 0.000000 0.000000 0.000000
# 2 -0.050000 0.020684 0.003427 0.000000 0.000000 0.000000
# 3 -0.043606 0.003427 0.013953 0.000000 0.000000 0.000000
# 4 0.000000 0.000000 0.000000 -0.213006 0.000000 0.000000
# 5 0.000000 0.000000 0.000000 0.000000 0.026392 0.000000
# 6 0.000000 0.000000 0.000000 0.000000 0.000000 0.062846
#
#
# Mechanical properties :
#
#
# Convention : Reuss Voigt Hill
#
# Bulk Modulus (GPa) = 6.56863 52.96953 29.76908
# Shear Modulus (GPa) = 11.36542 20.60831 15.98686
#
# Velocity S-wave (km/s) = 2.53092 3.40806 3.00170
# Velocity P-wave (km/s) = 3.49897 6.73351 5.36577
#
# Compressibility (1/GPa) = 0.15223878
#
# Stress axis : x y z
#
# Youngs Moduli (GPa) = 3.35617 48.34586 71.66892
#
# Poissons Ratio (x) = 2.41728 3.12517
# Poissons Ratio (y) = 0.16781 -0.24560
# Poissons Ratio (z) = 0.14635 -0.16568
#
# Static dielectric constant tensor:
#      x y z
#    x 1.599970 0.000000 0.000000 
#    y 0.000000 1.590890 0.000000 
#    z 0.000000 0.000000 1.583550 
# 
# From -- ./inp_files/48023.got.cif
#   From: 2010.05.17/outbox.cif.g08.bks.cpg/sg64_25_cif.got.tgz:48023.got - 2010.06.03 16:29:19.
