data_PCOD9477352
_publ_section_title
;
Structure prediction by ZEFSAII (Michael W. Deem and Ramdas Pophale) SiO2 
 PCOD9477352
Probable space group: C M C A
;
_chemical_formula_sum "Si O2"
_cell_formula_units_Z 96
_cell_length_a 24.456115
_cell_length_b 17.694772
_cell_length_c 9.568076
_cell_angle_alpha 90.000000
_cell_angle_beta 90.000000
_cell_angle_gamma 90.000000
_cell_volume 4140.540674
_symmetry_space_group_name_H-M "C M C A"
_symmetry_group_IT_number 64
_symmetry_cell_setting 'orthorhombic'
loop_
_space_group_symop_operation_xyz
x,y,z
-x,1/2-y,1/2+z
x,-y,-z
-x,1/2+y,1/2-z
-x,-y,-z
x,1/2+y,1/2-z
-x,y,z
x,1/2-y,1/2+z
1/2+x,1/2+y,z
1/2-x,-y,1/2+z
1/2+x,1/2-y,-z
1/2-x,y,1/2-z
1/2-x,1/2-y,-z
1/2+x,y,1/2-z
1/2-x,1/2+y,z
1/2+x,-y,1/2+z
loop_
_atom_site_type_symbol
_atom_site_label
_atom_site_fract_x
_atom_site_fract_y
_atom_site_fract_z
Si Si1 0.409092 0.937942 0.684629
Si Si2 0.704657 0.189304 0.634463
Si Si3 0.438047 0.081811 0.019659
Si Si4 0.589317 0.391398 0.126420
Si Si5 0.062201 0.777471 0.345360
Si Si6 0.329994 0.820024 0.671209
O O1 0.438900 0.902037 0.816277
O O2 0.427345 0.912831 0.530912
O O3 0.346223 0.907388 0.694646
O O4 0.417445 0.027658 0.700101
O O5 0.750000 0.163899 0.750000
O O6 0.652625 0.132979 0.641751
O O7 0.689150 0.271984 0.696119
O O8 0.708635 0.191951 0.464304
O O9 0.500000 0.075409 0.964143
O O10 0.415570 0.154340 0.942873
O O11 0.410756 0.000000 0.000000
O O12 0.560220 0.319541 0.195034
O O13 0.110091 0.716932 0.357317
O O14 0.000000 0.755184 0.382371
#
# Coordination Sequence:
#
# PCOD9477352 Si02
#       6
#    16  16  16  16  16  16
#     4  10  19  35  53  77 111 145 188 238 280 343
#     4  10  20  38  60  82 109 144 186 236 295 353
#     4  10  19  31  51  76 106 148 195 238 281 331
#     4   9  20  35  56  79 107 148 189 234 290 340
#     4  10  20  36  54  80 117 152 192 239 285 342
#     4  10  21  36  58  85 113 151 190 235 294 350
#
# _framework density 23.185379999999999
#
# number of rings (size 3 to 8) (size 9 to 14) (size 15 to 20)
#    0.000    2.167    1.667    1.500    0.000    1.333 
#    0.000   12.500    0.000   14.000    0.000    0.000 
#    0.000    0.000    0.000    0.000    0.000    0.000 
#
# Total GULP energy -267421.821086 kJ/mol
# GULP energy per Si atom -5571.287939 kJ/mol
# Density = 2.313261 g / cm^3
# Si number density = 23.185380 Si / 1000 Ang^3
#
#
#
# Elastic Constant Matrix: (Units=GPa)
#
#
# Indices 1 2 3 4 5 6 
#
# 1 85.7830 12.6660 16.4523 0.0000 0.0000 0.0000
# 2 12.6660 56.9694 2.3043 0.0000 0.0000 0.0000
# 3 16.4523 2.3043 98.7763 0.0000 0.0000 0.0000
# 4 0.0000 0.0000 0.0000 31.8447 0.0000 0.0000
# 5 0.0000 0.0000 0.0000 0.0000 29.8373 0.0000
# 6 0.0000 0.0000 0.0000 0.0000 0.0000 86.9076
#
#
#
# Elastic Compliance Matrix: (Units=1/GPa)
#
#
# Indices 1 2 3 4 5 6 
#
# 1 0.012439 -0.002684 -0.002009 0.000000 0.000000 0.000000
# 2 -0.002684 0.018149 0.000024 0.000000 0.000000 0.000000
# 3 -0.002009 0.000024 0.010458 0.000000 0.000000 0.000000
# 4 0.000000 0.000000 0.000000 0.031402 0.000000 0.000000
# 5 0.000000 0.000000 0.000000 0.000000 0.033515 0.000000
# 6 0.000000 0.000000 0.000000 0.000000 0.000000 0.011506
#
#
# Mechanical properties :
#
#
# Convention : Reuss Voigt Hill
#
# Bulk Modulus (GPa) = 31.53929 33.81932 32.67930
# Shear Modulus (GPa) = 36.39577 43.72499 40.06038
#
# Velocity S-wave (km/s) = 3.96633 4.34739 4.16123
# Velocity P-wave (km/s) = 5.88289 6.31014 6.10026
#
# Compressibility (1/GPa) = 0.03170649
#
# Stress axis : x y z
#
# Youngs Moduli (GPa) = 80.39224 55.09908 95.62065
#
# Poissons Ratio (x) = 0.14790 0.19212
# Poissons Ratio (y) = 0.21580 -0.00227
# Poissons Ratio (z) = 0.16153 -0.00131
#
# Static dielectric constant tensor:
#      x y z
#    x 1.915550 0.000000 0.000000 
#    y 0.000000 1.987950 0.000000 
#    z 0.000000 0.000000 1.983960 
# 
# From -- ./inp_files/10343.got.cif
#   From: 2010.05.17/outbox.cif.g08.bks.cpg/sg64_6_cif.got.tgz:10343.got - 2010.06.03 16:29:19.
