data_PCOD9477803
_publ_section_title
;
Structure prediction by ZEFSAII (Michael W. Deem and Ramdas Pophale) SiO2 
 PCOD9477803
Probable space group: C M C A
;
_chemical_formula_sum "Si O2"
_cell_formula_units_Z 88
_cell_length_a 13.794131
_cell_length_b 13.466437
_cell_length_c 24.477483
_cell_angle_alpha 90.000000
_cell_angle_beta 90.000000
_cell_angle_gamma 90.000000
_cell_volume 4546.883296
_symmetry_space_group_name_H-M "C M C A"
_symmetry_group_IT_number 64
_symmetry_cell_setting 'orthorhombic'
loop_
_space_group_symop_operation_xyz
x,y,z
-x,1/2-y,1/2+z
x,-y,-z
-x,1/2+y,1/2-z
-x,-y,-z
x,1/2+y,1/2-z
-x,y,z
x,1/2-y,1/2+z
1/2+x,1/2+y,z
1/2-x,-y,1/2+z
1/2+x,1/2-y,-z
1/2-x,y,1/2-z
1/2-x,1/2-y,-z
1/2+x,y,1/2-z
1/2-x,1/2+y,z
1/2+x,-y,1/2+z
loop_
_atom_site_type_symbol
_atom_site_label
_atom_site_fract_x
_atom_site_fract_y
_atom_site_fract_z
Si Si1 0.111300 0.488340 0.306738
Si Si2 0.394238 0.601695 0.926961
Si Si3 0.770066 0.000000 0.500000
Si Si4 0.193714 0.801668 0.550329
Si Si5 0.887146 0.286436 0.254130
Si Si6 0.771818 0.683099 0.329272
O O1 0.111767 0.429315 0.364047
O O2 0.132411 0.402839 0.263159
O O3 0.188812 0.575652 0.311191
O O4 0.000000 0.526065 0.298583
O O5 0.500000 0.568622 0.947365
O O6 0.304263 0.550366 0.957097
O O7 0.386116 0.720106 0.934373
O O8 0.829708 0.912157 0.529085
O O9 0.250000 0.750000 0.500000
O O10 0.255858 0.812904 0.606001
O O11 0.854286 0.256550 0.193602
O O12 0.823239 0.220433 0.296256
O O13 0.000000 0.269305 0.263843
#
# Coordination Sequence:
#
# PCOD9477803 Si02
#       6
#    16  16   8  16  16  16
#     4  10  20  37  60  89 120 156 204 247 297 364
#     4  10  19  34  58  84 117 156 199 247 293 349
#     4  10  19  36  57  86 116 156 206 250 291 362
#     4  10  21  36  57  89 120 154 200 247 305 358
#     4  10  23  40  61  89 119 158 205 252 301 361
#     4  11  21  38  62  87 121 162 197 248 306 360
#
# _framework density 19.353916000000002
#
# number of rings (size 3 to 8) (size 9 to 14) (size 15 to 20)
#    0.000    1.818    3.636    0.818    0.000    2.909 
#    0.000    1.364    0.000    1.091    0.000    0.000 
#    0.000    0.000    0.000    0.000    0.000    0.000 
#
# Total GULP energy -245246.398937 kJ/mol
# GULP energy per Si atom -5573.781794 kJ/mol
# Density = 1.930987 g / cm^3
# Si number density = 19.353916 Si / 1000 Ang^3
#
#
#
# Elastic Constant Matrix: (Units=GPa)
#
#
# Indices 1 2 3 4 5 6 
#
# 1 75.5589 24.6824 5.4104 0.0000 0.0000 0.0000
# 2 24.6824 97.2008 32.7257 0.0000 0.0000 0.0000
# 3 5.4104 32.7257 84.4386 0.0000 0.0000 0.0000
# 4 0.0000 0.0000 0.0000 37.8686 0.0000 0.0000
# 5 0.0000 0.0000 0.0000 0.0000 11.5762 0.0000
# 6 0.0000 0.0000 0.0000 0.0000 0.0000 9.1843
#
#
#
# Elastic Compliance Matrix: (Units=1/GPa)
#
#
# Indices 1 2 3 4 5 6 
#
# 1 0.014456 -0.003863 0.000571 0.000000 0.000000 0.000000
# 2 -0.003863 0.012864 -0.004738 0.000000 0.000000 0.000000
# 3 0.000571 -0.004738 0.013643 0.000000 0.000000 0.000000
# 4 0.000000 0.000000 0.000000 0.026407 0.000000 0.000000
# 5 0.000000 0.000000 0.000000 0.000000 0.086384 0.000000
# 6 0.000000 0.000000 0.000000 0.000000 0.000000 0.108881
#
#
# Mechanical properties :
#
#
# Convention : Reuss Voigt Hill
#
# Bulk Modulus (GPa) = 40.15733 42.53726 41.34730
# Shear Modulus (GPa) = 17.42181 24.68447 21.05314
#
# Velocity S-wave (km/s) = 3.00354 3.57518 3.30176
# Velocity P-wave (km/s) = 5.72908 6.25051 5.99547
#
# Compressibility (1/GPa) = 0.02490205
#
# Stress axis : x y z
#
# Youngs Moduli (GPa) = 69.17670 77.73514 73.29914
#
# Poissons Ratio (x) = 0.30029 -0.04185
# Poissons Ratio (y) = 0.26723 0.34731
# Poissons Ratio (z) = -0.03949 0.36833
#
# Static dielectric constant tensor:
#      x y z
#    x 1.695270 0.000000 0.000000 
#    y 0.000000 1.717620 0.000000 
#    z 0.000000 0.000000 1.694660 
# 
# From -- ./inp_files/49943.got.cif
#   From: 2010.05.17/outbox.cif.g08.bks.cpg/sg64_25_cif.got.tgz:49943.got - 2010.06.03 16:29:19.
