data_PCOD9477207
_publ_section_title
;
Structure prediction by ZEFSAII (Michael W. Deem and Ramdas Pophale) SiO2 
 PCOD9477207
Probable space group: C M C A
;
_chemical_formula_sum "Si O2"
_cell_formula_units_Z 112
_cell_length_a 7.611900
_cell_length_b 26.580929
_cell_length_c 29.951913
_cell_angle_alpha 90.000000
_cell_angle_beta 90.000000
_cell_angle_gamma 90.000000
_cell_volume 6060.211695
_symmetry_space_group_name_H-M "C M C A"
_symmetry_group_IT_number 64
_symmetry_cell_setting 'orthorhombic'
loop_
_space_group_symop_operation_xyz
x,y,z
-x,1/2-y,1/2+z
x,-y,-z
-x,1/2+y,1/2-z
-x,-y,-z
x,1/2+y,1/2-z
-x,y,z
x,1/2-y,1/2+z
1/2+x,1/2+y,z
1/2-x,-y,1/2+z
1/2+x,1/2-y,-z
1/2-x,y,1/2-z
1/2-x,1/2-y,-z
1/2+x,y,1/2-z
1/2-x,1/2+y,z
1/2+x,-y,1/2+z
loop_
_atom_site_type_symbol
_atom_site_label
_atom_site_fract_x
_atom_site_fract_y
_atom_site_fract_z
Si Si1 0.289319 0.191725 0.200559
Si Si2 0.789312 0.752613 0.552290
Si Si3 0.215326 0.154088 0.893280
Si Si4 0.789601 0.192850 0.799441
Si Si5 0.289922 0.945905 0.551293
Si Si6 0.714907 0.559117 0.949907
Si Si7 0.289148 0.151128 0.107478
O O1 0.500000 0.194308 0.197222
O O2 0.250000 0.171835 0.250000
O O3 0.222309 0.249452 0.197877
O O4 0.224427 0.160748 0.157880
O O5 0.750000 0.750000 0.500000
O O6 0.727597 0.702931 0.578405
O O7 0.722640 0.803613 0.575702
O O8 0.000000 0.752913 0.556927
O O9 0.272822 0.161698 0.842155
O O10 0.274724 0.103132 0.917200
O O11 0.000000 0.153583 0.893769
O O12 0.750000 0.173056 0.750000
O O13 0.000000 0.195628 0.803176
O O14 0.500000 0.949311 0.548239
O O15 0.228719 0.931724 0.501236
O O16 0.249420 0.902739 0.586405
O O17 0.227829 0.002432 0.562149
O O18 0.500000 0.559982 0.949292
O O19 0.500000 0.155468 0.108556
#
# Coordination Sequence:
#
# PCOD9477207 Si02
#       7
#    16  16  16  16  16  16  16
#     4   9  17  30  46  66  91 119 151 186 224 271
#     4  10  19  30  44  66  95 123 149 178 219 273
#     4   9  15  27  47  66  88 121 151 178 224 277
#     4   9  16  28  46  66  88 116 149 183 223 272
#     4   9  17  30  48  70  91 117 160 200 223 254
#     4   8  15  28  47  69  91 117 156 200 226 254
#     4  10  19  31  46  67  97 125 148 182 232 282
#
# _framework density 18.481203000000001
#
# number of rings (size 3 to 8) (size 9 to 14) (size 15 to 20)
#    0.000    2.857    1.429    1.714    0.000    2.286 
#    0.000    2.143    0.000    3.429    0.000    4.000 
#    0.000    0.000    0.000    0.000    0.000    0.000 
#
# Total GULP energy -312259.688724 kJ/mol
# GULP energy per Si atom -5576.065870 kJ/mol
# Density = 1.843914 g / cm^3
# Si number density = 18.481203 Si / 1000 Ang^3
#
#
#
# Elastic Constant Matrix: (Units=GPa)
#
#
# Indices 1 2 3 4 5 6 
#
# 1 34.1905 4.7047 2.7347 0.0000 0.0000 0.0000
# 2 4.7047 124.3529 103.2325 0.0000 0.0000 0.0000
# 3 2.7347 103.2325 185.0611 0.0000 0.0000 0.0000
# 4 0.0000 0.0000 0.0000 22.3703 0.0000 0.0000
# 5 0.0000 0.0000 0.0000 0.0000 19.2748 0.0000
# 6 0.0000 0.0000 0.0000 0.0000 0.0000 9.3845
#
#
#
# Elastic Compliance Matrix: (Units=1/GPa)
#
#
# Indices 1 2 3 4 5 6 
#
# 1 0.029413 -0.001401 0.000347 0.000000 0.000000 0.000000
# 2 -0.001401 0.015044 -0.008371 0.000000 0.000000 0.000000
# 3 0.000347 -0.008371 0.010068 0.000000 0.000000 0.000000
# 4 0.000000 0.000000 0.000000 0.044702 0.000000 0.000000
# 5 0.000000 0.000000 0.000000 0.000000 0.051881 0.000000
# 6 0.000000 0.000000 0.000000 0.000000 0.000000 0.106559
#
#
# Mechanical properties :
#
#
# Convention : Reuss Voigt Hill
#
# Bulk Modulus (GPa) = 28.03105 62.77203 45.40154
# Shear Modulus (GPa) = 17.33646 25.73477 21.53561
#
# Velocity S-wave (km/s) = 3.06610 3.73565 3.41731
# Velocity P-wave (km/s) = 5.26639 7.25574 6.33959
#
# Compressibility (1/GPa) = 0.03567473
#
# Stress axis : x y z
#
# Youngs Moduli (GPa) = 33.99875 66.47086 99.32164
#
# Poissons Ratio (x) = 0.09309 -0.03443
# Poissons Ratio (y) = 0.04762 0.83146
# Poissons Ratio (z) = -0.01178 0.55645
#
# Static dielectric constant tensor:
#      x y z
#    x 1.689240 0.000000 0.000000 
#    y 0.000000 1.624860 0.000000 
#    z 0.000000 0.000000 1.641030 
# 
# From -- ./inp_files/44526.got.cif
#   From: 2010.05.17/outbox.cif.g08.bks.cpg/sg64_23_cif.got.tgz:44526.got - 2010.06.03 16:29:19.
