data_PCOD9477704
_publ_section_title
;
Structure prediction by ZEFSAII (Michael W. Deem and Ramdas Pophale) SiO2 
 PCOD9477704
Probable space group: C M C A
;
_chemical_formula_sum "Si O2"
_cell_formula_units_Z 112
_cell_length_a 22.222518
_cell_length_b 26.797550
_cell_length_c 9.717359
_cell_angle_alpha 90.000000
_cell_angle_beta 90.000000
_cell_angle_gamma 90.000000
_cell_volume 5786.775103
_symmetry_space_group_name_H-M "C M C A"
_symmetry_group_IT_number 64
_symmetry_cell_setting 'orthorhombic'
loop_
_space_group_symop_operation_xyz
x,y,z
-x,1/2-y,1/2+z
x,-y,-z
-x,1/2+y,1/2-z
-x,-y,-z
x,1/2+y,1/2-z
-x,y,z
x,1/2-y,1/2+z
1/2+x,1/2+y,z
1/2-x,-y,1/2+z
1/2+x,1/2-y,-z
1/2-x,y,1/2-z
1/2-x,1/2-y,-z
1/2+x,y,1/2-z
1/2-x,1/2+y,z
1/2+x,-y,1/2+z
loop_
_atom_site_type_symbol
_atom_site_label
_atom_site_fract_x
_atom_site_fract_y
_atom_site_fract_z
Si Si1 0.934603 0.515738 0.339274
Si Si2 0.195344 0.480127 0.342627
Si Si3 0.433036 0.732319 0.082398
Si Si4 0.703350 0.868158 0.426990
Si Si5 0.700813 0.164709 0.130501
Si Si6 0.144604 0.270827 0.319007
Si Si7 0.393624 0.373109 0.823723
O O1 0.935092 0.500000 0.500000
O O2 0.870913 0.494287 0.286214
O O3 0.928662 0.575365 0.328260
O O4 0.000000 0.499792 0.281335
O O5 0.200247 0.500000 0.500000
O O6 0.250000 0.500641 0.250000
O O7 0.201293 0.420621 0.351502
O O8 0.500000 0.753237 0.092978
O O9 0.383007 0.762098 0.169002
O O10 0.431116 0.676690 0.146128
O O11 0.410884 0.728774 0.926113
O O12 0.767640 0.854326 0.492963
O O13 0.680725 0.821646 0.337837
O O14 0.656027 0.873813 0.553847
O O15 0.750000 0.156939 0.250000
O O16 0.684747 0.223305 0.136838
O O17 0.641897 0.135285 0.180975
#
# Coordination Sequence:
#
# PCOD9477704 Si02
#       7
#    16  16  16  16  16  16  16
#     4  10  19  34  57  84 116 149 194 247 291 346
#     4  11  24  38  59  88 118 153 194 249 299 351
#     4  10  20  35  54  79 111 149 191 238 284 340
#     4  10  19  34  52  82 113 148 187 230 297 345
#     4   9  19  32  56  82 114 148 182 237 284 353
#     4  10  21  35  55  81 114 148 194 230 287 354
#     4   9  17  32  53  83 108 144 190 235 287 341
#
# _framework density 19.354475999999998
#
# number of rings (size 3 to 8) (size 9 to 14) (size 15 to 20)
#    0.000    2.143    2.857    2.143    2.000    1.714 
#    0.000    0.714    0.000    0.429    0.000    0.000 
#    0.000    0.000    0.000    0.000    0.000    0.000 
#
# Total GULP energy -312397.512755 kJ/mol
# GULP energy per Si atom -5578.527013 kJ/mol
# Density = 1.931042 g / cm^3
# Si number density = 19.354476 Si / 1000 Ang^3
#
#
#
# Elastic Constant Matrix: (Units=GPa)
#
#
# Indices 1 2 3 4 5 6 
#
# 1 103.3073 10.0967 19.5869 0.0000 0.0000 0.0000
# 2 10.0967 86.3473 8.8231 0.0000 0.0000 0.0000
# 3 19.5869 8.8231 38.2309 0.0000 0.0000 0.0000
# 4 0.0000 0.0000 0.0000 15.2804 0.0000 0.0000
# 5 0.0000 0.0000 0.0000 0.0000 14.7784 0.0000
# 6 0.0000 0.0000 0.0000 0.0000 0.0000 -13.7816
#
#
#
# Elastic Compliance Matrix: (Units=1/GPa)
#
#
# Indices 1 2 3 4 5 6 
#
# 1 0.010764 -0.000712 -0.005350 0.000000 0.000000 0.000000
# 2 -0.000712 0.011908 -0.002383 0.000000 0.000000 0.000000
# 3 -0.005350 -0.002383 0.029448 0.000000 0.000000 0.000000
# 4 0.000000 0.000000 0.000000 0.065443 0.000000 0.000000
# 5 0.000000 0.000000 0.000000 0.000000 0.067666 0.000000
# 6 0.000000 0.000000 0.000000 0.000000 0.000000 -0.072561
#
#
# Mechanical properties :
#
#
# Convention : Reuss Voigt Hill
#
# Bulk Modulus (GPa) = 28.38614 33.87765 31.13189
# Shear Modulus (GPa) = 35.38495 15.88070 25.63282
#
# Velocity S-wave (km/s) = 4.28045 2.86758 3.64316
# Velocity P-wave (km/s) = 6.25523 5.33908 5.81523
#
# Compressibility (1/GPa) = 0.03522846
#
# Stress axis : x y z
#
# Youngs Moduli (GPa) = 92.90349 83.97767 33.95804
#
# Poissons Ratio (x) = 0.05979 0.18169
# Poissons Ratio (y) = 0.06614 0.08094
# Poissons Ratio (z) = 0.49707 0.20015
#
# Static dielectric constant tensor:
#      x y z
#    x 1.716940 0.000000 0.000000 
#    y 0.000000 1.661890 0.000000 
#    z 0.000000 0.000000 1.750560 
# 
# From -- ./inp_files/17690.got.cif
#   From: 2010.05.17/outbox.cif.g08.bks.cpg/sg64_9_cif.got.tgz:17690.got - 2010.06.03 16:29:19.
