data_PCOD9477480
_publ_section_title
;
Structure prediction by ZEFSAII (Michael W. Deem and Ramdas Pophale) SiO2 
 PCOD9477480
Probable space group: C M C A
;
_chemical_formula_sum "Si O2"
_cell_formula_units_Z 112
_cell_length_a 14.444834
_cell_length_b 30.078118
_cell_length_c 11.978355
_cell_angle_alpha 90.000000
_cell_angle_beta 90.000000
_cell_angle_gamma 90.000000
_cell_volume 5204.276881
_symmetry_space_group_name_H-M "C M C A"
_symmetry_group_IT_number 64
_symmetry_cell_setting 'orthorhombic'
loop_
_space_group_symop_operation_xyz
x,y,z
-x,1/2-y,1/2+z
x,-y,-z
-x,1/2+y,1/2-z
-x,-y,-z
x,1/2+y,1/2-z
-x,y,z
x,1/2-y,1/2+z
1/2+x,1/2+y,z
1/2-x,-y,1/2+z
1/2+x,1/2-y,-z
1/2-x,y,1/2-z
1/2-x,1/2-y,-z
1/2+x,y,1/2-z
1/2-x,1/2+y,z
1/2+x,-y,1/2+z
loop_
_atom_site_type_symbol
_atom_site_label
_atom_site_fract_x
_atom_site_fract_y
_atom_site_fract_z
Si Si1 0.599773 0.293517 0.300343
Si Si2 0.393714 0.920354 0.963575
Si Si3 0.107006 0.398810 0.701079
Si Si4 0.832391 0.126007 0.840984
Si Si5 0.799530 0.829891 0.492601
Si Si6 0.892791 0.695259 0.205906
Si Si7 0.307321 0.949064 0.494918
O O1 0.500000 0.295171 0.357483
O O2 0.606455 0.336173 0.218254
O O3 0.677666 0.297243 0.392601
O O4 0.608101 0.245544 0.246016
O O5 0.500000 0.933896 0.989133
O O6 0.383752 0.916737 0.828620
O O7 0.305622 0.946612 0.013562
O O8 0.373460 0.870662 0.009279
O O9 0.126029 0.345869 0.710784
O O10 0.167644 0.424819 0.611531
O O11 0.000000 0.404249 0.667801
O O12 0.750000 0.119637 0.750000
O O13 0.795851 0.148812 0.955056
O O14 0.854911 0.077528 0.891207
O O15 0.816744 0.808431 0.610062
O O16 0.000000 0.686690 0.166903
O O17 0.336437 0.000000 0.500000
#
# Coordination Sequence:
#
# PCOD9477480 Si02
#       7
#    16  16  16  16  16  16  16
#     4  10  19  32  53  80 111 147 186 231 286 343
#     4   9  18  36  61  82 104 140 190 245 290 335
#     4   9  19  37  58  83 116 149 187 235 286 345
#     4   9  21  38  52  74 108 145 186 235 283 334
#     4   9  17  34  54  73 104 143 183 228 281 335
#     4   9  18  32  55  85 111 143 189 236 279 334
#     4  11  23  37  58  84 115 154 193 237 294 353
#
# _framework density 21.520762000000001
#
# number of rings (size 3 to 8) (size 9 to 14) (size 15 to 20)
#    0.000    2.571    0.000    2.571    0.000    4.000 
#    0.000   14.286    0.000    3.429    0.000    0.000 
#    0.000    0.000    0.000    0.000    0.000    0.000 
#
# Total GULP energy -312026.075036 kJ/mol
# GULP energy per Si atom -5571.894197 kJ/mol
# Density = 2.147178 g / cm^3
# Si number density = 21.520762 Si / 1000 Ang^3
#
#
#
# Elastic Constant Matrix: (Units=GPa)
#
#
# Indices 1 2 3 4 5 6 
#
# 1 47.8407 3.0500 2.7436 0.0000 0.0000 0.0000
# 2 3.0500 102.9343 9.0055 0.0000 0.0000 0.0000
# 3 2.7436 9.0055 45.1698 0.0000 0.0000 0.0000
# 4 0.0000 0.0000 0.0000 19.4690 0.0000 0.0000
# 5 0.0000 0.0000 0.0000 0.0000 6.2735 0.0000
# 6 0.0000 0.0000 0.0000 0.0000 0.0000 16.1364
#
#
#
# Elastic Compliance Matrix: (Units=1/GPa)
#
#
# Indices 1 2 3 4 5 6 
#
# 1 0.021003 -0.000520 -0.001172 0.000000 0.000000 0.000000
# 2 -0.000520 0.009900 -0.001942 0.000000 0.000000 0.000000
# 3 -0.001172 -0.001942 0.022597 0.000000 0.000000 0.000000
# 4 0.000000 0.000000 0.000000 0.051364 0.000000 0.000000
# 5 0.000000 0.000000 0.000000 0.000000 0.159400 0.000000
# 6 0.000000 0.000000 0.000000 0.000000 0.000000 0.061972
#
#
# Mechanical properties :
#
#
# Convention : Reuss Voigt Hill
#
# Bulk Modulus (GPa) = 21.62996 25.06034 23.34515
# Shear Modulus (GPa) = 14.33017 20.45218 17.39118
#
# Velocity S-wave (km/s) = 2.58326 3.08611 2.84581
# Velocity P-wave (km/s) = 4.35548 4.93648 4.65505
#
# Compressibility (1/GPa) = 0.04623217
#
# Stress axis : x y z
#
# Youngs Moduli (GPa) = 47.61214 101.00749 44.25345
#
# Poissons Ratio (x) = 0.05250 0.05187
# Poissons Ratio (y) = 0.02475 0.08595
# Poissons Ratio (z) = 0.05581 0.19618
#
# Static dielectric constant tensor:
#      x y z
#    x 1.826330 0.000000 0.000000 
#    y 0.000000 1.826990 0.000000 
#    z 0.000000 0.000000 1.786640 
# 
# From -- ./inp_files/15013.got.cif
#   From: 2010.05.17/outbox.cif.g08.bks.cpg/sg64_8_cif.got.tgz:15013.got - 2010.06.03 16:29:19.
