data_PCOD9477466
_publ_section_title
;
Structure prediction by ZEFSAII (Michael W. Deem and Ramdas Pophale) SiO2 
 PCOD9477466
Probable space group: C M C A
;
_chemical_formula_sum "Si O2"
_cell_formula_units_Z 112
_cell_length_a 16.381068
_cell_length_b 23.594924
_cell_length_c 15.053901
_cell_angle_alpha 90.000000
_cell_angle_beta 90.000000
_cell_angle_gamma 90.000000
_cell_volume 5818.484096
_symmetry_space_group_name_H-M "C M C A"
_symmetry_group_IT_number 64
_symmetry_cell_setting 'orthorhombic'
loop_
_space_group_symop_operation_xyz
x,y,z
-x,1/2-y,1/2+z
x,-y,-z
-x,1/2+y,1/2-z
-x,-y,-z
x,1/2+y,1/2-z
-x,y,z
x,1/2-y,1/2+z
1/2+x,1/2+y,z
1/2-x,-y,1/2+z
1/2+x,1/2-y,-z
1/2-x,y,1/2-z
1/2-x,1/2-y,-z
1/2+x,y,1/2-z
1/2-x,1/2+y,z
1/2+x,-y,1/2+z
loop_
_atom_site_type_symbol
_atom_site_label
_atom_site_fract_x
_atom_site_fract_y
_atom_site_fract_z
Si Si1 0.909067 0.564262 0.905058
Si Si2 0.236923 0.847548 0.645405
Si Si3 0.907703 0.436800 0.881607
Si Si4 0.345211 0.235011 0.577193
Si Si5 0.217562 0.153041 0.660415
Si Si6 0.091453 0.170410 0.090027
Si Si7 0.085999 0.262060 0.234392
O O1 0.891537 0.503047 0.860949
O O2 0.840039 0.609447 0.887173
O O3 0.000000 0.581156 0.874701
O O4 0.912343 0.561481 0.011545
O O5 0.250000 0.831759 0.750000
O O6 0.165219 0.894459 0.643786
O O7 0.207052 0.793036 0.586862
O O8 0.324902 0.865455 0.603227
O O9 0.000000 0.421070 0.849435
O O10 0.287693 0.181780 0.602562
O O11 0.389350 0.218013 0.485972
O O12 0.405908 0.242023 0.660269
O O13 0.250000 0.124405 0.750000
O O14 0.161979 0.204019 0.696840
O O15 0.085960 0.202866 0.183743
O O16 0.000000 0.146091 0.072008
O O17 0.000000 0.290730 0.211944
#
# Coordination Sequence:
#
# PCOD9477466 Si02
#       7
#    16  16  16  16  16  16  16
#     4   9  18  37  56  82 111 136 186 245 282 339
#     4  12  22  38  56  81 121 152 190 241 287 349
#     4   9  21  36  58  84 109 144 188 236 295 342
#     4  11  21  37  52  80 115 150 188 234 281 344
#     4  10  19  32  53  77 107 144 184 223 281 333
#     4  11  23  36  54  79 111 155 193 230 281 339
#     4  10  20  34  50  78 111 145 186 225 277 335
#
# _framework density 19.248999999999999
#
# number of rings (size 3 to 8) (size 9 to 14) (size 15 to 20)
#    0.000    1.714    2.857    3.429    2.000    2.286 
#    0.000    0.000    0.000    0.000    0.000    9.000 
#    0.000    0.000    0.000    0.000    0.000    0.000 
#
# Total GULP energy -311934.734313 kJ/mol
# GULP energy per Si atom -5570.263113 kJ/mol
# Density = 1.920519 g / cm^3
# Si number density = 19.249000 Si / 1000 Ang^3
#
#
#
# Elastic Constant Matrix: (Units=GPa)
#
#
# Indices 1 2 3 4 5 6 
#
# 1 131.7231 37.6498 21.8855 0.0000 0.0000 0.0000
# 2 37.6498 57.0682 6.7489 0.0000 0.0000 0.0000
# 3 21.8855 6.7489 54.5390 0.0000 0.0000 0.0000
# 4 0.0000 0.0000 0.0000 12.4017 0.0000 0.0000
# 5 0.0000 0.0000 0.0000 0.0000 18.2170 0.0000
# 6 0.0000 0.0000 0.0000 0.0000 0.0000 59.9510
#
#
#
# Elastic Compliance Matrix: (Units=1/GPa)
#
#
# Indices 1 2 3 4 5 6 
#
# 1 0.009879 -0.006138 -0.003205 0.000000 0.000000 0.000000
# 2 -0.006138 0.021597 -0.000209 0.000000 0.000000 0.000000
# 3 -0.003205 -0.000209 0.019647 0.000000 0.000000 0.000000
# 4 0.000000 0.000000 0.000000 0.080634 0.000000 0.000000
# 5 0.000000 0.000000 0.000000 0.000000 0.054894 0.000000
# 6 0.000000 0.000000 0.000000 0.000000 0.000000 0.016680
#
#
# Mechanical properties :
#
#
# Convention : Reuss Voigt Hill
#
# Bulk Modulus (GPa) = 31.23158 41.76653 36.49905
# Shear Modulus (GPa) = 21.44921 29.91700 25.68311
#
# Velocity S-wave (km/s) = 3.34174 3.94662 3.65671
# Velocity P-wave (km/s) = 5.58121 6.52019 6.06889
#
# Compressibility (1/GPa) = 0.03201887
#
# Stress axis : x y z
#
# Youngs Moduli (GPa) = 101.22921 46.30220 50.89749
#
# Poissons Ratio (x) = 0.28421 0.16310
# Poissons Ratio (y) = 0.62137 0.01066
# Poissons Ratio (z) = 0.32439 0.00969
#
# Static dielectric constant tensor:
#      x y z
#    x 1.841760 0.000000 0.000000 
#    y 0.000000 1.661660 0.000000 
#    z 0.000000 0.000000 1.719810 
# 
# From -- ./inp_files/24245.got.cif
#   From: 2010.05.17/outbox.cif.g08.bks.cpg/sg64_13_cif.got.tgz:24245.got - 2010.06.03 16:29:19.
