data_PCOD9477633
_publ_section_title
;
Structure prediction by ZEFSAII (Michael W. Deem and Ramdas Pophale) SiO2 
 PCOD9477633
Probable space group: C M C A
;
_chemical_formula_sum "Si O2"
_cell_formula_units_Z 96
_cell_length_a 16.287144
_cell_length_b 20.376354
_cell_length_c 15.270799
_cell_angle_alpha 90.000000
_cell_angle_beta 90.000000
_cell_angle_gamma 90.000000
_cell_volume 5067.959948
_symmetry_space_group_name_H-M "C M C A"
_symmetry_group_IT_number 64
_symmetry_cell_setting 'orthorhombic'
loop_
_space_group_symop_operation_xyz
x,y,z
-x,1/2-y,1/2+z
x,-y,-z
-x,1/2+y,1/2-z
-x,-y,-z
x,1/2+y,1/2-z
-x,y,z
x,1/2-y,1/2+z
1/2+x,1/2+y,z
1/2-x,-y,1/2+z
1/2+x,1/2-y,-z
1/2-x,y,1/2-z
1/2-x,1/2-y,-z
1/2+x,y,1/2-z
1/2-x,1/2+y,z
1/2+x,-y,1/2+z
loop_
_atom_site_type_symbol
_atom_site_label
_atom_site_fract_x
_atom_site_fract_y
_atom_site_fract_z
Si Si1 0.597779 0.958793 0.420015
Si Si2 0.598943 0.442231 0.564692
Si Si3 0.399545 0.195793 0.976516
Si Si4 0.402966 0.812013 0.397034
Si Si5 0.846709 0.013967 0.733817
Si Si6 0.657106 0.665418 0.713674
O O1 0.500000 0.952729 0.432630
O O2 0.632673 0.884877 0.414583
O O3 0.611916 0.994421 0.328081
O O4 0.633192 0.000000 0.500000
O O5 0.627796 0.500000 0.500000
O O6 0.500000 0.443627 0.566487
O O7 0.622839 0.371862 0.525943
O O8 0.628949 0.461733 0.660960
O O9 0.500000 0.196709 0.966682
O O10 0.359201 0.196924 0.880466
O O11 0.372052 0.256002 0.038079
O O12 0.500000 0.814958 0.413028
O O13 0.391197 0.800732 0.293566
O O14 0.750000 0.012378 0.750000
O O15 0.869373 0.088660 0.705003
O O16 0.750000 0.666330 0.750000
#
# Coordination Sequence:
#
# PCOD9477633 Si02
#       6
#    16  16  16  16  16  16
#     4   9  18  35  57  78 103 141 183 221 268 323
#     4  10  19  33  56  82 105 137 181 228 273 314
#     4  10  20  36  58  82 108 140 183 231 272 316
#     4   9  19  36  56  79 106 139 182 226 269 321
#     4  10  20  34  52  80 110 142 177 220 271 322
#     4  10  20  35  55  79 108 144 180 215 270 329
#
# _framework density 18.942533999999998
#
# number of rings (size 3 to 8) (size 9 to 14) (size 15 to 20)
#    0.000    2.333    1.667    1.000    0.000    2.667 
#    6.000    0.833    0.000    0.000    0.000    0.000 
#    0.000    0.000    0.000    0.000    0.000    0.000 
#
# Total GULP energy -267667.533013 kJ/mol
# GULP energy per Si atom -5576.406938 kJ/mol
# Density = 1.889942 g / cm^3
# Si number density = 18.942534 Si / 1000 Ang^3
#
#
#
# Elastic Constant Matrix: (Units=GPa)
#
#
# Indices 1 2 3 4 5 6 
#
# 1 11.6988 18.8509 13.6783 0.0000 0.0000 0.0000
# 2 18.8509 90.6529 102.1479 0.0000 0.0000 0.0000
# 3 13.6783 102.1479 193.9937 0.0000 0.0000 0.0000
# 4 0.0000 0.0000 0.0000 77.5161 0.0000 0.0000
# 5 0.0000 0.0000 0.0000 0.0000 -16.7343 0.0000
# 6 0.0000 0.0000 0.0000 0.0000 0.0000 2.4538
#
#
#
# Elastic Compliance Matrix: (Units=1/GPa)
#
#
# Indices 1 2 3 4 5 6 
#
# 1 0.141768 -0.044794 0.013590 0.000000 0.000000 0.000000
# 2 -0.044794 0.041278 -0.018577 0.000000 0.000000 0.000000
# 3 0.013590 -0.018577 0.013978 0.000000 0.000000 0.000000
# 4 0.000000 0.000000 0.000000 0.012901 0.000000 0.000000
# 5 0.000000 0.000000 0.000000 0.000000 -0.059757 0.000000
# 6 0.000000 0.000000 0.000000 0.000000 0.000000 0.407530
#
#
# Mechanical properties :
#
#
# Convention : Reuss Voigt Hill
#
# Bulk Modulus (GPa) = 10.26020 62.85552 36.55786
# Shear Modulus (GPa) = 7.24905 23.42499 15.33702
#
# Velocity S-wave (km/s) = 1.95836 3.52040 2.84854
# Velocity P-wave (km/s) = 3.24682 7.05539 5.49183
#
# Compressibility (1/GPa) = 0.09746396
#
# Stress axis : x y z
#
# Youngs Moduli (GPa) = 7.05378 24.22591 71.54000
#
# Poissons Ratio (x) = 1.08517 -0.97225
# Poissons Ratio (y) = 0.31597 1.32898
# Poissons Ratio (z) = -0.09586 0.45004
#
# Static dielectric constant tensor:
#      x y z
#    x 2.152520 0.000000 0.000000 
#    y 0.000000 1.668130 0.000000 
#    z 0.000000 0.000000 1.650790 
# 
# From -- ./inp_files/23857.got.cif
#   From: 2010.05.17/outbox.cif.g08.bks.cpg/sg64_12_cif.got.tgz:23857.got - 2010.06.03 16:29:19.
