data_PCOD9477197
_publ_section_title
;
Structure prediction by ZEFSAII (Michael W. Deem and Ramdas Pophale) SiO2 
 PCOD9477197
Probable space group: C M C A
;
_chemical_formula_sum "Si O2"
_cell_formula_units_Z 112
_cell_length_a 7.474141
_cell_length_b 25.980042
_cell_length_c 30.212343
_cell_angle_alpha 90.000000
_cell_angle_beta 90.000000
_cell_angle_gamma 90.000000
_cell_volume 5866.587357
_symmetry_space_group_name_H-M "C M C A"
_symmetry_group_IT_number 64
_symmetry_cell_setting 'orthorhombic'
loop_
_space_group_symop_operation_xyz
x,y,z
-x,1/2-y,1/2+z
x,-y,-z
-x,1/2+y,1/2-z
-x,-y,-z
x,1/2+y,1/2-z
-x,y,z
x,1/2-y,1/2+z
1/2+x,1/2+y,z
1/2-x,-y,1/2+z
1/2+x,1/2-y,-z
1/2-x,y,1/2-z
1/2-x,1/2-y,-z
1/2+x,y,1/2-z
1/2-x,1/2+y,z
1/2+x,-y,1/2+z
loop_
_atom_site_type_symbol
_atom_site_label
_atom_site_fract_x
_atom_site_fract_y
_atom_site_fract_z
Si Si1 0.215080 0.768223 0.392168
Si Si2 0.285917 0.228849 0.299225
Si Si3 0.286147 0.889101 0.700868
Si Si4 0.712625 0.360509 0.044461
Si Si5 0.781634 0.068833 0.108925
Si Si6 0.718363 0.169434 0.447738
Si Si7 0.718554 0.477022 0.047679
O O1 0.279898 0.759950 0.341902
O O2 0.258587 0.821797 0.415314
O O3 0.279815 0.720827 0.422771
O O4 0.000000 0.764624 0.391245
O O5 0.500000 0.225929 0.303064
O O6 0.250000 0.249404 0.250000
O O7 0.216966 0.169835 0.301403
O O8 0.500000 0.885907 0.696257
O O9 0.250000 0.909473 0.750000
O O10 0.220755 0.921565 0.659098
O O11 0.500000 0.365786 0.038235
O O12 0.781173 0.418316 0.051844
O O13 0.780665 0.336266 0.998303
O O14 0.730490 0.118468 0.079602
O O15 0.000000 0.067876 0.108767
O O16 0.721609 0.016536 0.085511
O O17 0.500000 0.170974 0.447671
O O18 0.500000 0.476752 0.048655
O O19 0.769579 0.500000 0.000000
#
# Coordination Sequence:
#
# PCOD9477197 Si02
#       7
#    16  16  16  16  16  16  16
#     4  10  19  31  46  65  94 128 153 177 225 288
#     4   9  17  29  46  67  89 116 149 185 227 274
#     4   9  16  27  45  68  92 116 145 183 229 277
#     4  10  19  29  45  70  95 121 157 196 223 253
#     4   9  14  24  45  69  92 118 148 186 229 269
#     4   9  15  26  44  67  94 122 151 183 223 270
#     4   9  15  25  44  70  93 115 151 196 230 256
#
# _framework density 19.091168
#
# number of rings (size 3 to 8) (size 9 to 14) (size 15 to 20)
#    0.000    2.714    2.857    0.429    0.000    0.571 
#    0.000    0.000    0.000    3.000    0.000    4.000 
#    0.000    0.000    0.000    0.000    0.000    0.000 
#
# Total GULP energy -312432.972958 kJ/mol
# GULP energy per Si atom -5579.160231 kJ/mol
# Density = 1.904772 g / cm^3
# Si number density = 19.091168 Si / 1000 Ang^3
#
#
#
# Elastic Constant Matrix: (Units=GPa)
#
#
# Indices 1 2 3 4 5 6 
#
# 1 51.4619 2.0079 -0.1246 0.0000 0.0000 0.0000
# 2 2.0079 145.4201 100.5870 0.0000 0.0000 0.0000
# 3 -0.1246 100.5870 198.8518 0.0000 0.0000 0.0000
# 4 0.0000 0.0000 0.0000 26.1866 0.0000 0.0000
# 5 0.0000 0.0000 0.0000 0.0000 9.4178 0.0000
# 6 0.0000 0.0000 0.0000 0.0000 0.0000 -153.9419
#
#
#
# Elastic Compliance Matrix: (Units=1/GPa)
#
#
# Indices 1 2 3 4 5 6 
#
# 1 0.019449 -0.000426 0.000228 0.000000 0.000000 0.000000
# 2 -0.000426 0.010587 -0.005356 0.000000 0.000000 0.000000
# 3 0.000228 -0.005356 0.007738 0.000000 0.000000 0.000000
# 4 0.000000 0.000000 0.000000 0.038187 0.000000 0.000000
# 5 0.000000 0.000000 0.000000 0.000000 0.106182 0.000000
# 6 0.000000 0.000000 0.000000 0.000000 0.000000 -0.006496
#
#
# Mechanical properties :
#
#
# Convention : Reuss Voigt Hill
#
# Bulk Modulus (GPa) = 37.50063 66.74160 52.12112
# Shear Modulus (GPa) = 25.55657 -4.11661 10.71998
#
# Velocity S-wave (km/s) = 3.66274 -1.47002 2.37220
# Velocity P-wave (km/s) = 6.12969 5.67045 5.90454
#
# Compressibility (1/GPa) = 0.02666622
#
# Stress axis : x y z
#
# Youngs Moduli (GPa) = 51.41648 94.45591 129.23121
#
# Poissons Ratio (x) = 0.04024 -0.02943
# Poissons Ratio (y) = 0.02191 0.69211
# Poissons Ratio (z) = -0.01171 0.50586
#
# Static dielectric constant tensor:
#      x y z
#    x 1.749420 0.000000 0.000000 
#    y 0.000000 1.633990 0.000000 
#    z 0.000000 0.000000 1.673970 
# 
# From -- ./inp_files/49586.got.cif
#   From: 2010.05.17/outbox.cif.g08.bks.cpg/sg64_25_cif.got.tgz:49586.got - 2010.06.03 16:29:19.
