data_PCOD9477939
_publ_section_title
;
Structure prediction by ZEFSAII (Michael W. Deem and Ramdas Pophale) SiO2 
 PCOD9477939
Probable space group: C M C A
;
_chemical_formula_sum "Si O2"
_cell_formula_units_Z 80
_cell_length_a 25.914904
_cell_length_b 17.081536
_cell_length_c 9.474713
_cell_angle_alpha 90.000000
_cell_angle_beta 90.000000
_cell_angle_gamma 90.000000
_cell_volume 4194.136769
_symmetry_space_group_name_H-M "C M C A"
_symmetry_group_IT_number 64
_symmetry_cell_setting 'orthorhombic'
loop_
_space_group_symop_operation_xyz
x,y,z
-x,1/2-y,1/2+z
x,-y,-z
-x,1/2+y,1/2-z
-x,-y,-z
x,1/2+y,1/2-z
-x,y,z
x,1/2-y,1/2+z
1/2+x,1/2+y,z
1/2-x,-y,1/2+z
1/2+x,1/2-y,-z
1/2-x,y,1/2-z
1/2-x,1/2-y,-z
1/2+x,y,1/2-z
1/2-x,1/2+y,z
1/2+x,-y,1/2+z
loop_
_atom_site_type_symbol
_atom_site_label
_atom_site_fract_x
_atom_site_fract_y
_atom_site_fract_z
Si Si1 0.059440 0.081419 0.183631
Si Si2 0.311146 0.321013 0.236124
Si Si3 0.138982 0.697523 0.444634
Si Si4 0.055280 0.678561 0.028526
Si Si5 0.611016 0.051946 0.861735
O O1 0.102369 0.123918 0.089105
O O2 0.055595 0.139283 0.318750
O O3 0.000000 0.071167 0.131647
O O4 0.085248 0.002534 0.243599
O O5 0.250000 0.326324 0.250000
O O6 0.333286 0.242169 0.313804
O O7 0.342516 0.393746 0.305840
O O8 0.322139 0.321288 0.069648
O O9 0.100159 0.760462 0.511173
O O10 0.000000 0.716204 0.000823
O O11 0.066609 0.609844 0.918115
O O12 0.626216 0.000000 0.000000
#
# Coordination Sequence:
#
# PCOD9477939 Si02
#       5
#    16  16  16  16  16
#     4  10  19  35  60  92 125 157 191 236 300 365
#     4  11  24  43  63  85 115 160 207 255 302 341
#     4  11  21  39  61  91 122 150 203 253 295 358
#     4   9  17  33  59  88 121 162 194 232 297 366
#     4   9  20  39  60  85 124 159 203 244 291 369
#
# _framework density 19.074247
#
# number of rings (size 3 to 8) (size 9 to 14) (size 15 to 20)
#    0.000    2.000    2.000    1.800    0.000    3.200 
#    3.600    4.000    0.000    0.000    0.000    0.000 
#    0.000    0.000    0.000    0.000    0.000    0.000 
#
# Total GULP energy -223051.045612 kJ/mol
# GULP energy per Si atom -5576.276140 kJ/mol
# Density = 1.903083 g / cm^3
# Si number density = 19.074247 Si / 1000 Ang^3
#
#
#
# Elastic Constant Matrix: (Units=GPa)
#
#
# Indices 1 2 3 4 5 6 
#
# 1 137.8848 22.5171 50.7857 0.0000 0.0000 0.0000
# 2 22.5171 46.6594 26.0303 0.0000 0.0000 0.0000
# 3 50.7857 26.0303 72.3961 0.0000 0.0000 0.0000
# 4 0.0000 0.0000 0.0000 22.0994 0.0000 0.0000
# 5 0.0000 0.0000 0.0000 0.0000 -1.8432 0.0000
# 6 0.0000 0.0000 0.0000 0.0000 0.0000 11.3640
#
#
#
# Elastic Compliance Matrix: (Units=1/GPa)
#
#
# Indices 1 2 3 4 5 6 
#
# 1 0.009826 -0.001121 -0.006490 0.000000 0.000000 0.000000
# 2 -0.001121 0.026938 -0.008899 0.000000 0.000000 0.000000
# 3 -0.006490 -0.008899 0.021565 0.000000 0.000000 0.000000
# 4 0.000000 0.000000 0.000000 0.045250 0.000000 0.000000
# 5 0.000000 0.000000 0.000000 0.000000 -0.542522 0.000000
# 6 0.000000 0.000000 0.000000 0.000000 0.000000 0.087997
#
#
# Mechanical properties :
#
#
# Convention : Reuss Voigt Hill
#
# Bulk Modulus (GPa) = 39.51216 50.62294 45.06755
# Shear Modulus (GPa) = -16.15559 16.83118 0.33780
#
# Velocity S-wave (km/s) = -2.91346 2.97375 0.42128
# Velocity P-wave (km/s) = 3.07283 6.19584 4.89033
#
# Compressibility (1/GPa) = 0.02530867
#
# Stress axis : x y z
#
# Youngs Moduli (GPa) = 101.77283 37.12293 46.37154
#
# Poissons Ratio (x) = 0.04163 0.30093
# Poissons Ratio (y) = 0.11412 0.41265
# Poissons Ratio (z) = 0.66046 0.33035
#
# Static dielectric constant tensor:
#      x y z
#    x 1.567770 0.000000 0.000000 
#    y 0.000000 1.681260 0.000000 
#    z 0.000000 0.000000 1.697430 
# 
# From -- ./inp_files/10172.got.cif
#   From: 2010.05.17/outbox.cif.g08.bks.cpg/sg64_6_cif.got.tgz:10172.got - 2010.06.03 16:29:19.
