data_PCOD9477998
_publ_section_title
;
Structure prediction by ZEFSAII (Michael W. Deem and Ramdas Pophale) SiO2 
 PCOD9477998
Probable space group: C M C A
;
_chemical_formula_sum "Si O2"
_cell_formula_units_Z 96
_cell_length_a 8.528411
_cell_length_b 24.216828
_cell_length_c 26.168282
_cell_angle_alpha 90.000000
_cell_angle_beta 90.000000
_cell_angle_gamma 90.000000
_cell_volume 5404.563080
_symmetry_space_group_name_H-M "C M C A"
_symmetry_group_IT_number 64
_symmetry_cell_setting 'orthorhombic'
loop_
_space_group_symop_operation_xyz
x,y,z
-x,1/2-y,1/2+z
x,-y,-z
-x,1/2+y,1/2-z
-x,-y,-z
x,1/2+y,1/2-z
-x,y,z
x,1/2-y,1/2+z
1/2+x,1/2+y,z
1/2-x,-y,1/2+z
1/2+x,1/2-y,-z
1/2-x,y,1/2-z
1/2-x,1/2-y,-z
1/2+x,y,1/2-z
1/2-x,1/2+y,z
1/2+x,-y,1/2+z
loop_
_atom_site_type_symbol
_atom_site_label
_atom_site_fract_x
_atom_site_fract_y
_atom_site_fract_z
Si Si1 0.189000 0.187779 0.806176
Si Si2 0.809036 0.499786 0.559405
Si Si3 0.688352 0.119588 0.402683
Si Si4 0.312943 0.687838 0.499195
Si Si5 0.688069 0.184843 0.193590
Si Si6 0.309794 0.619303 0.904187
O O1 0.250000 0.172952 0.750000
O O2 0.236960 0.251356 0.817161
O O3 0.242068 0.147129 0.851161
O O4 0.000000 0.186875 0.804982
O O5 0.758394 0.500000 0.500000
O O6 0.759415 0.443395 0.586787
O O7 0.759034 0.556089 0.587043
O O8 0.000000 0.499865 0.558825
O O9 0.500000 0.120857 0.404055
O O10 0.752276 0.156823 0.448814
O O11 0.746530 0.144728 0.349601
O O12 0.500000 0.688383 0.499169
O O13 0.250000 0.750000 0.500000
O O14 0.250689 0.655250 0.548528
O O15 0.500000 0.182962 0.193291
O O16 0.750000 0.170965 0.250000
O O17 0.500000 0.620486 0.905298
#
# Coordination Sequence:
#
# PCOD9477998 Si02
#       6
#    16  16  16  16  16  16
#     4   9  19  34  56  80 107 141 178 225 277 332
#     4   9  17  33  57  81 109 151 191 222 269 336
#     4  11  21  36  58  83 112 149 189 230 278 336
#     4  12  24  36  53  81 113 145 181 230 285 339
#     4  10  20  36  56  82 112 146 188 234 287 340
#     4  10  19  36  58  81 110 146 187 228 275 332
#
# _framework density 17.762768999999999
#
# number of rings (size 3 to 8) (size 9 to 14) (size 15 to 20)
#    0.000    1.833    1.667    3.500    0.000    2.667 
#    0.000    3.333    0.000    2.000    0.000    0.000 
#    0.000    0.000    0.000    0.000    0.000    0.000 
#
# Total GULP energy -268071.667485 kJ/mol
# GULP energy per Si atom -5584.826406 kJ/mol
# Density = 1.772234 g / cm^3
# Si number density = 17.762769 Si / 1000 Ang^3
#
#
#
# Elastic Constant Matrix: (Units=GPa)
#
#
# Indices 1 2 3 4 5 6 
#
# 1 37.0762 36.1020 31.0007 0.0000 0.0000 0.0000
# 2 36.1020 188.2544 123.9570 0.0000 0.0000 0.0000
# 3 31.0007 123.9570 172.2006 0.0000 0.0000 0.0000
# 4 0.0000 0.0000 0.0000 5.5298 0.0000 0.0000
# 5 0.0000 0.0000 0.0000 0.0000 32.3959 0.0000
# 6 0.0000 0.0000 0.0000 0.0000 0.0000 16.4562
#
#
#
# Elastic Compliance Matrix: (Units=1/GPa)
#
#
# Indices 1 2 3 4 5 6 
#
# 1 0.033811 -0.004707 -0.002698 0.000000 0.000000 0.000000
# 2 -0.004707 0.010754 -0.006894 0.000000 0.000000 0.000000
# 3 -0.002698 -0.006894 0.011255 0.000000 0.000000 0.000000
# 4 0.000000 0.000000 0.000000 0.180838 0.000000 0.000000
# 5 0.000000 0.000000 0.000000 0.000000 0.030868 0.000000
# 6 0.000000 0.000000 0.000000 0.000000 0.000000 0.060767
#
#
# Mechanical properties :
#
#
# Convention : Reuss Voigt Hill
#
# Bulk Modulus (GPa) = 36.73531 86.62788 61.68159
# Shear Modulus (GPa) = 13.66247 24.64115 19.15181
#
# Velocity S-wave (km/s) = 2.77639 3.72860 3.28716
# Velocity P-wave (km/s) = 5.56810 8.21047 7.01483
#
# Compressibility (1/GPa) = 0.02722177
#
# Stress axis : x y z
#
# Youngs Moduli (GPa) = 29.57585 92.99035 88.84734
#
# Poissons Ratio (x) = 0.43773 0.23975
# Poissons Ratio (y) = 0.13922 0.61248
# Poissons Ratio (z) = 0.07981 0.64104
#
# Static dielectric constant tensor:
#      x y z
#    x 1.603770 0.000000 0.000000 
#    y 0.000000 1.600830 0.000000 
#    z 0.000000 0.000000 1.571480 
# 
# From -- ./inp_files/43001.got.cif
#   From: 2010.05.17/outbox.cif.g08.bks.cpg/sg64_22_cif.got.tgz:43001.got - 2010.06.03 16:29:19.
