data_PCOD9477251
_publ_section_title
;
Structure prediction by ZEFSAII (Michael W. Deem and Ramdas Pophale) SiO2 
 PCOD9477251
Probable space group: C M C A
;
_chemical_formula_sum "Si O2"
_cell_formula_units_Z 96
_cell_length_a 8.848645
_cell_length_b 24.381337
_cell_length_c 26.111355
_cell_angle_alpha 90.000000
_cell_angle_beta 90.000000
_cell_angle_gamma 90.000000
_cell_volume 5633.310617
_symmetry_space_group_name_H-M "C M C A"
_symmetry_group_IT_number 64
_symmetry_cell_setting 'orthorhombic'
loop_
_space_group_symop_operation_xyz
x,y,z
-x,1/2-y,1/2+z
x,-y,-z
-x,1/2+y,1/2-z
-x,-y,-z
x,1/2+y,1/2-z
-x,y,z
x,1/2-y,1/2+z
1/2+x,1/2+y,z
1/2-x,-y,1/2+z
1/2+x,1/2-y,-z
1/2-x,y,1/2-z
1/2-x,1/2-y,-z
1/2+x,y,1/2-z
1/2-x,1/2+y,z
1/2+x,-y,1/2+z
loop_
_atom_site_type_symbol
_atom_site_label
_atom_site_fract_x
_atom_site_fract_y
_atom_site_fract_z
Si Si1 0.322297 0.619224 0.429983
Si Si2 0.673262 0.074474 0.530141
Si Si3 0.679502 0.735952 0.055752
Si Si4 0.319144 0.493928 0.608387
Si Si5 0.825492 0.832595 0.117893
Si Si6 0.319334 0.582715 0.693960
O O1 0.500000 0.631964 0.427125
O O2 0.282577 0.591626 0.484467
O O3 0.229241 0.675070 0.427860
O O4 0.285362 0.570737 0.389836
O O5 0.500000 0.067992 0.512361
O O6 0.730826 0.021969 0.561405
O O7 0.676007 0.124075 0.570990
O O8 0.500000 0.739487 0.051096
O O9 0.740395 0.779420 0.096998
O O10 0.750000 0.750000 0.000000
O O11 0.500000 0.499364 0.599106
O O12 0.282453 0.529738 0.658498
O O13 0.746868 0.864350 0.164548
O O14 0.000000 0.820060 0.129927
O O15 0.500000 0.587034 0.696756
O O16 0.250000 0.577592 0.750000
#
# Coordination Sequence:
#
# PCOD9477251 Si02
#       6
#    16  16  16  16  16  16
#     4  11  21  33  50  72 105 147 184 218 262 318
#     4  10  19  30  48  74 106 141 178 219 262 312
#     4  12  23  35  52  76 108 148 187 225 266 320
#     4   9  20  35  51  74 105 140 177 218 269 323
#     4  10  20  35  54  79 109 142 181 224 270 319
#     4  10  20  37  60  84 108 136 175 224 277 327
#
# _framework density 17.041488999999999
#
# number of rings (size 3 to 8) (size 9 to 14) (size 15 to 20)
#    0.000    1.667    1.667    4.000    0.000    5.333 
#    0.000    0.000    0.000    1.000    0.000    4.667 
#    0.000    0.000    0.000    0.000    0.000    0.000 
#
# Total GULP energy -268027.040057 kJ/mol
# GULP energy per Si atom -5583.896668 kJ/mol
# Density = 1.700270 g / cm^3
# Si number density = 17.041489 Si / 1000 Ang^3
#
#
#
# Elastic Constant Matrix: (Units=GPa)
#
#
# Indices 1 2 3 4 5 6 
#
# 1 102.0713 60.3616 41.1091 0.0000 0.0000 0.0000
# 2 60.3616 135.3768 43.6720 0.0000 0.0000 0.0000
# 3 41.1091 43.6720 80.4057 0.0000 0.0000 0.0000
# 4 0.0000 0.0000 0.0000 10.7963 0.0000 0.0000
# 5 0.0000 0.0000 0.0000 0.0000 25.6304 0.0000
# 6 0.0000 0.0000 0.0000 0.0000 0.0000 29.0203
#
#
#
# Elastic Compliance Matrix: (Units=1/GPa)
#
#
# Indices 1 2 3 4 5 6 
#
# 1 0.014685 -0.005002 -0.004791 0.000000 0.000000 0.000000
# 2 -0.005002 0.010660 -0.003232 0.000000 0.000000 0.000000
# 3 -0.004791 -0.003232 0.016642 0.000000 0.000000 0.000000
# 4 0.000000 0.000000 0.000000 0.092624 0.000000 0.000000
# 5 0.000000 0.000000 0.000000 0.000000 0.039016 0.000000
# 6 0.000000 0.000000 0.000000 0.000000 0.000000 0.034459
#
#
# Mechanical properties :
#
#
# Convention : Reuss Voigt Hill
#
# Bulk Modulus (GPa) = 62.75237 67.57105 65.16171
# Shear Modulus (GPa) = 20.88131 24.60347 22.74239
#
# Velocity S-wave (km/s) = 3.50426 3.80378 3.65709
# Velocity P-wave (km/s) = 7.29906 7.68301 7.49350
#
# Compressibility (1/GPa) = 0.01593565
#
# Stress axis : x y z
#
# Youngs Moduli (GPa) = 68.09817 93.80982 60.08836
#
# Poissons Ratio (x) = 0.46924 0.28789
# Poissons Ratio (y) = 0.34063 0.19423
# Poissons Ratio (z) = 0.32626 0.30324
#
# Static dielectric constant tensor:
#      x y z
#    x 1.572580 0.000000 0.000000 
#    y 0.000000 1.598320 0.000000 
#    z 0.000000 0.000000 1.550140 
# 
# From -- ./inp_files/42970.got.cif
#   From: 2010.05.17/outbox.cif.g08.bks.cpg/sg64_22_cif.got.tgz:42970.got - 2010.06.03 16:29:19.
