data_PCOD9477041
_publ_section_title
;
Structure prediction by ZEFSAII (Michael W. Deem and Ramdas Pophale) SiO2 
 PCOD9477041
Probable space group: C M C A
;
_chemical_formula_sum "Si O2"
_cell_formula_units_Z 84
_cell_length_a 22.069081
_cell_length_b 20.914121
_cell_length_c 9.762673
_cell_angle_alpha 90.000000
_cell_angle_beta 90.000000
_cell_angle_gamma 90.000000
_cell_volume 4506.014738
_symmetry_space_group_name_H-M "C M C A"
_symmetry_group_IT_number 64
_symmetry_cell_setting 'orthorhombic'
loop_
_space_group_symop_operation_xyz
x,y,z
-x,1/2-y,1/2+z
x,-y,-z
-x,1/2+y,1/2-z
-x,-y,-z
x,1/2+y,1/2-z
-x,y,z
x,1/2-y,1/2+z
1/2+x,1/2+y,z
1/2-x,-y,1/2+z
1/2+x,1/2-y,-z
1/2-x,y,1/2-z
1/2-x,1/2-y,-z
1/2+x,y,1/2-z
1/2-x,1/2+y,z
1/2+x,-y,1/2+z
loop_
_atom_site_type_symbol
_atom_site_label
_atom_site_fract_x
_atom_site_fract_y
_atom_site_fract_z
Si Si1 0.099221 0.612402 0.517258
Si Si2 0.893454 0.428575 0.977805
Si Si3 0.816718 0.554362 0.293486
Si Si4 0.000000 0.701685 0.378134
Si Si5 0.500000 0.500000 0.000000
Si Si6 0.181440 0.905688 0.250450
Si Si7 0.000000 0.672020 0.054125
O O1 0.154193 0.589963 0.420708
O O2 0.058850 0.665115 0.439797
O O3 0.053185 0.553123 0.537270
O O4 0.131539 0.630979 0.659479
O O5 0.860401 0.432501 0.833356
O O6 0.942769 0.373716 0.970527
O O7 0.920144 0.500000 0.000000
O O8 0.845165 0.414991 0.097755
O O9 0.750000 0.575595 0.250000
O O10 0.814460 0.477633 0.312802
O O11 0.000000 0.696663 0.212545
O O12 0.000000 0.771573 0.443753
O O13 0.250000 0.879576 0.250000
#
# Coordination Sequence:
#
# PCOD9477041 Si02
#       7
#    16  16  16   8   4  16   8
#     4  11  20  37  58  89 120 165 205 248 304 366
#     4  10  22  37  63  94 126 160 194 260 313 359
#     4  10  18  34  58  90 126 163 197 250 311 361
#     4  11  28  41  67  83 119 169 207 254 310 365
#     4  10  20  30  56  84 124 152 204 248 286 346
#     4  10  20  34  58  96 130 157 197 251 310 368
#     4  12  25  47  61  90 122 158 215 255 304 378
#
# _framework density 18.641750999999999
#
# number of rings (size 3 to 8) (size 9 to 14) (size 15 to 20)
#    0.000    1.524    3.810    1.429    2.667    3.810 
#    0.000    0.000    0.000    6.857    0.000    0.000 
#    0.000    0.000    0.000    0.000    0.000    0.000 
#
# Total GULP energy -233862.511840 kJ/mol
# GULP energy per Si atom -5568.155044 kJ/mol
# Density = 1.859932 g / cm^3
# Si number density = 18.641751 Si / 1000 Ang^3
#
#
#
# Elastic Constant Matrix: (Units=GPa)
#
#
# Indices 1 2 3 4 5 6 
#
# 1 105.4772 33.1538 7.5781 0.0000 0.0000 0.0000
# 2 33.1538 65.7352 25.0936 0.0000 0.0000 0.0000
# 3 7.5781 25.0936 77.5827 0.0000 0.0000 0.0000
# 4 0.0000 0.0000 0.0000 17.6913 0.0000 0.0000
# 5 0.0000 0.0000 0.0000 0.0000 11.6583 0.0000
# 6 0.0000 0.0000 0.0000 0.0000 0.0000-1436.2311
#
#
#
# Elastic Compliance Matrix: (Units=1/GPa)
#
#
# Indices 1 2 3 4 5 6 
#
# 1 0.011315 -0.006029 0.000845 0.000000 0.000000 0.000000
# 2 -0.006029 0.020568 -0.006064 0.000000 0.000000 0.000000
# 3 0.000845 -0.006064 0.014768 0.000000 0.000000 0.000000
# 4 0.000000 0.000000 0.000000 0.056525 0.000000 0.000000
# 5 0.000000 0.000000 0.000000 0.000000 0.085776 0.000000
# 6 0.000000 0.000000 0.000000 0.000000 0.000000 -0.000696
#
#
# Mechanical properties :
#
#
# Convention : Reuss Voigt Hill
#
# Bulk Modulus (GPa) = 41.39887 42.27180 41.83534
# Shear Modulus (GPa) = 22.85144 -269.17833 -123.16344
#
# Velocity S-wave (km/s) = 3.50497 -12.02950 -8.13708
# Velocity P-wave (km/s) = 6.21575 13.04684 8.11124
#
# Compressibility (1/GPa) = 0.02415525
#
# Stress axis : x y z
#
# Youngs Moduli (GPa) = 88.37678 48.61867 67.71305
#
# Poissons Ratio (x) = 0.29314 -0.05721
# Poissons Ratio (y) = 0.53286 0.41059
# Poissons Ratio (z) = -0.07467 0.29481
#
# Static dielectric constant tensor:
#      x y z
#    x 1.680690 0.000000 0.000000 
#    y 0.000000 1.638640 0.000000 
#    z 0.000000 0.000000 1.646210 
# 
# From -- ./inp_files/8164.got.cif
#   From: 2010.05.17/outbox.cif.g08.bks.cpg/sg64_5_cif.got.tgz:8164.got - 2010.06.03 16:29:19.
