data_PCOD9477964
_publ_section_title
;
Structure prediction by ZEFSAII (Michael W. Deem and Ramdas Pophale) SiO2 
 PCOD9477964
Probable space group: C M C A
;
_chemical_formula_sum "Si O2"
_cell_formula_units_Z 96
_cell_length_a 19.765925
_cell_length_b 13.666489
_cell_length_c 13.518523
_cell_angle_alpha 90.000000
_cell_angle_beta 90.000000
_cell_angle_gamma 90.000000
_cell_volume 3651.769387
_symmetry_space_group_name_H-M "C M C A"
_symmetry_group_IT_number 64
_symmetry_cell_setting 'orthorhombic'
loop_
_space_group_symop_operation_xyz
x,y,z
-x,1/2-y,1/2+z
x,-y,-z
-x,1/2+y,1/2-z
-x,-y,-z
x,1/2+y,1/2-z
-x,y,z
x,1/2-y,1/2+z
1/2+x,1/2+y,z
1/2-x,-y,1/2+z
1/2+x,1/2-y,-z
1/2-x,y,1/2-z
1/2-x,1/2-y,-z
1/2+x,y,1/2-z
1/2-x,1/2+y,z
1/2+x,-y,1/2+z
loop_
_atom_site_type_symbol
_atom_site_label
_atom_site_fract_x
_atom_site_fract_y
_atom_site_fract_z
Si Si1 0.577680 0.318897 0.916092
Si Si2 0.689451 0.170914 0.940087
Si Si3 0.422590 0.516463 0.832758
Si Si4 0.719484 0.669576 0.350835
Si Si5 0.925548 0.960987 0.387358
Si Si6 0.422888 0.745148 0.807864
O O1 0.500000 0.322087 0.953623
O O2 0.632009 0.251961 0.971623
O O3 0.607241 0.428011 0.897212
O O4 0.573866 0.266382 0.809306
O O5 0.740221 0.228740 0.869596
O O6 0.645645 0.092876 0.883294
O O7 0.723638 0.126302 0.038142
O O8 0.500000 0.517014 0.866759
O O9 0.424811 0.483287 0.717407
O O10 0.404617 0.631237 0.831729
O O11 0.750000 0.624381 0.250000
O O12 0.640727 0.690152 0.337642
O O13 0.000000 0.909986 0.382150
O O14 0.925768 0.000000 0.500000
O O15 0.500000 0.766333 0.844740
#
# Coordination Sequence:
#
# PCOD9477964 Si02
#       6
#    16  16  16  16  16  16
#     4  10  19  35  63  94 126 168 217 264 321 389
#     4  11  23  39  62  89 128 178 215 262 328 394
#     4   9  18  34  58  92 126 161 209 265 322 380
#     4  11  23  41  63  89 126 169 215 268 326 391
#     4  10  20  34  57  92 132 165 213 277 325 381
#     4  10  20  38  65  90 121 164 209 262 327 387
#
# _framework density 26.288627999999999
#
# number of rings (size 3 to 8) (size 9 to 14) (size 15 to 20)
#    0.000    1.833    3.333    0.500    2.333    1.333 
#    0.000    4.167    7.333    3.000    0.000    0.000 
#    0.000    0.000    0.000    0.000    0.000    0.000 
#
# Total GULP energy -267652.785962 kJ/mol
# GULP energy per Si atom -5576.099708 kJ/mol
# Density = 2.622879 g / cm^3
# Si number density = 26.288628 Si / 1000 Ang^3
#
#
#
# Elastic Constant Matrix: (Units=GPa)
#
#
# Indices 1 2 3 4 5 6 
#
# 1 96.6269 -11.1473 -2.2031 0.0000 0.0000 0.0000
# 2 -11.1473 43.5126 -19.5053 0.0000 0.0000 0.0000
# 3 -2.2031 -19.5053 89.7840 0.0000 0.0000 0.0000
# 4 0.0000 0.0000 0.0000 17.6767 0.0000 0.0000
# 5 0.0000 0.0000 0.0000 0.0000 13.7468 0.0000
# 6 0.0000 0.0000 0.0000 0.0000 0.0000 15.9610
#
#
#
# Elastic Compliance Matrix: (Units=1/GPa)
#
#
# Indices 1 2 3 4 5 6 
#
# 1 0.010738 0.003178 0.000954 0.000000 0.000000 0.000000
# 2 0.003178 0.026402 0.005814 0.000000 0.000000 0.000000
# 3 0.000954 0.005814 0.012424 0.000000 0.000000 0.000000
# 4 0.000000 0.000000 0.000000 0.056572 0.000000 0.000000
# 5 0.000000 0.000000 0.000000 0.000000 0.072744 0.000000
# 6 0.000000 0.000000 0.000000 0.000000 0.000000 0.062653
#
#
# Mechanical properties :
#
#
# Convention : Reuss Voigt Hill
#
# Bulk Modulus (GPa) = 14.39750 18.24578 16.32164
# Shear Modulus (GPa) = 20.42547 26.99551 23.71049
#
# Velocity S-wave (km/s) = 2.79044 3.20799 3.00647
# Velocity P-wave (km/s) = 3.98380 4.54722 4.27480
#
# Compressibility (1/GPa) = 0.06945652
#
# Stress axis : x y z
#
# Youngs Moduli (GPa) = 93.13140 37.87553 80.48755
#
# Poissons Ratio (x) = -0.12038 -0.07678
# Poissons Ratio (y) = -0.29601 -0.46794
# Poissons Ratio (z) = -0.08885 -0.22020
#
# Static dielectric constant tensor:
#      x y z
#    x 2.038900 0.000000 0.000000 
#    y 0.000000 2.207910 0.000000 
#    z 0.000000 0.000000 2.080680 
# 
# From -- ./inp_files/26343.got.cif
#   From: 2010.05.17/outbox.cif.g08.bks.cpg/sg64_14_cif.got.tgz:26343.got - 2010.06.03 16:29:19.
