data_PCOD9477556
_publ_section_title
;
Structure prediction by ZEFSAII (Michael W. Deem and Ramdas Pophale) SiO2 
 PCOD9477556
Probable space group: C M C A
;
_chemical_formula_sum "Si O2"
_cell_formula_units_Z 96
_cell_length_a 7.691049
_cell_length_b 24.345551
_cell_length_c 26.428680
_cell_angle_alpha 90.000000
_cell_angle_beta 90.000000
_cell_angle_gamma 90.000000
_cell_volume 4948.580722
_symmetry_space_group_name_H-M "C M C A"
_symmetry_group_IT_number 64
_symmetry_cell_setting 'orthorhombic'
loop_
_space_group_symop_operation_xyz
x,y,z
-x,1/2-y,1/2+z
x,-y,-z
-x,1/2+y,1/2-z
-x,-y,-z
x,1/2+y,1/2-z
-x,y,z
x,1/2-y,1/2+z
1/2+x,1/2+y,z
1/2-x,-y,1/2+z
1/2+x,1/2-y,-z
1/2-x,y,1/2-z
1/2-x,1/2-y,-z
1/2+x,y,1/2-z
1/2-x,1/2+y,z
1/2+x,-y,1/2+z
loop_
_atom_site_type_symbol
_atom_site_label
_atom_site_fract_x
_atom_site_fract_y
_atom_site_fract_z
Si Si1 0.706488 0.250397 0.059711
Si Si2 0.707734 0.369632 0.903036
Si Si3 0.709124 0.936739 0.692498
Si Si4 0.708821 0.437931 0.192462
Si Si5 0.213101 0.132808 0.901653
Si Si6 0.287347 0.563019 0.999528
O O1 0.500000 0.252938 0.062684
O O2 0.761487 0.194257 0.086538
O O3 0.774926 0.305599 0.086487
O O4 0.750000 0.250000 0.000000
O O5 0.500000 0.377125 0.902561
O O6 0.774671 0.395426 0.850643
O O7 0.773977 0.404157 0.951141
O O8 0.500000 0.938838 0.688764
O O9 0.750000 0.920401 0.750000
O O10 0.773766 0.999431 0.684408
O O11 0.500000 0.440128 0.187653
O O12 0.750000 0.422034 0.250000
O O13 0.772491 0.395468 0.150251
O O14 0.264418 0.094561 0.948794
O O15 0.000000 0.133923 0.900743
O O16 0.500000 0.563122 0.000230
O O17 0.231152 0.500000 0.000000
#
# Coordination Sequence:
#
# PCOD9477556 Si02
#       6
#    16  16  16  16  16  16
#     4  11  21  35  53  74 102 139 174 211 257 308
#     4  10  19  33  52  77 103 131 173 215 254 303
#     4   9  18  32  53  78 104 133 167 209 255 305
#     4   9  17  32  53  77 102 131 167 208 255 303
#     4   9  17  30  49  73  99 129 168 207 246 299
#     4   9  15  25  47  76 100 123 159 209 255 298
#
# _framework density 19.399501000000001
#
# number of rings (size 3 to 8) (size 9 to 14) (size 15 to 20)
#    0.000    2.500    1.667    1.500    0.000    4.667 
#    0.000    2.500    0.000    4.500    0.000    0.000 
#    0.000    0.000    0.000    0.000    0.000    0.000 
#
# Total GULP energy -267862.211775 kJ/mol
# GULP energy per Si atom -5580.462745 kJ/mol
# Density = 1.935535 g / cm^3
# Si number density = 19.399501 Si / 1000 Ang^3
#
#
#
# Elastic Constant Matrix: (Units=GPa)
#
#
# Indices 1 2 3 4 5 6 
#
# 1 30.8534 1.5098 6.0587 0.0000 0.0000 0.0000
# 2 1.5098 193.0919 138.6615 0.0000 0.0000 0.0000
# 3 6.0587 138.6615 202.7942 0.0000 0.0000 0.0000
# 4 0.0000 0.0000 0.0000 26.4198 0.0000 0.0000
# 5 0.0000 0.0000 0.0000 0.0000 21.2399 0.0000
# 6 0.0000 0.0000 0.0000 0.0000 0.0000 21.5050
#
#
#
# Elastic Compliance Matrix: (Units=1/GPa)
#
#
# Indices 1 2 3 4 5 6 
#
# 1 0.032678 0.000875 -0.001575 0.000000 0.000000 0.000000
# 2 0.000875 0.010198 -0.006999 0.000000 0.000000 0.000000
# 3 -0.001575 -0.006999 0.009764 0.000000 0.000000 0.000000
# 4 0.000000 0.000000 0.000000 0.037850 0.000000 0.000000
# 5 0.000000 0.000000 0.000000 0.000000 0.047081 0.000000
# 6 0.000000 0.000000 0.000000 0.000000 0.000000 0.046501
#
#
# Mechanical properties :
#
#
# Convention : Reuss Voigt Hill
#
# Bulk Modulus (GPa) = 26.85098 79.91104 53.38101
# Shear Modulus (GPa) = 23.59779 32.53356 28.06568
#
# Velocity S-wave (km/s) = 3.49149 4.09960 3.80771
# Velocity P-wave (km/s) = 5.48864 7.98065 6.84894
#
# Compressibility (1/GPa) = 0.03724258
#
# Stress axis : x y z
#
# Youngs Moduli (GPa) = 30.60182 98.05548 102.41750
#
# Poissons Ratio (x) = -0.08584 0.16129
# Poissons Ratio (y) = -0.02679 0.71685
# Poissons Ratio (z) = 0.04819 0.68632
#
# Static dielectric constant tensor:
#      x y z
#    x 1.738920 0.000000 0.000000 
#    y 0.000000 1.655790 0.000000 
#    z 0.000000 0.000000 1.649400 
# 
# From -- ./inp_files/43006.got.cif
#   From: 2010.05.17/outbox.cif.g08.bks.cpg/sg64_22_cif.got.tgz:43006.got - 2010.06.03 16:29:19.
