data_PCOD9477474
_publ_section_title
;
Structure prediction by ZEFSAII (Michael W. Deem and Ramdas Pophale) SiO2 
 PCOD9477474
Probable space group: C M C A
;
_chemical_formula_sum "Si O2"
_cell_formula_units_Z 112
_cell_length_a 13.411858
_cell_length_b 10.988229
_cell_length_c 34.727650
_cell_angle_alpha 90.000000
_cell_angle_beta 90.000000
_cell_angle_gamma 90.000000
_cell_volume 5117.902927
_symmetry_space_group_name_H-M "C M C A"
_symmetry_group_IT_number 64
_symmetry_cell_setting 'orthorhombic'
loop_
_space_group_symop_operation_xyz
x,y,z
-x,1/2-y,1/2+z
x,-y,-z
-x,1/2+y,1/2-z
-x,-y,-z
x,1/2+y,1/2-z
-x,y,z
x,1/2-y,1/2+z
1/2+x,1/2+y,z
1/2-x,-y,1/2+z
1/2+x,1/2-y,-z
1/2-x,y,1/2-z
1/2-x,1/2-y,-z
1/2+x,y,1/2-z
1/2-x,1/2+y,z
1/2+x,-y,1/2+z
loop_
_atom_site_type_symbol
_atom_site_label
_atom_site_fract_x
_atom_site_fract_y
_atom_site_fract_z
Si Si1 0.189205 0.510072 0.634430
Si Si2 0.611169 0.756669 0.645975
Si Si3 0.880366 0.814888 0.768171
Si Si4 0.769063 0.695274 0.579811
Si Si5 0.120757 0.093789 0.786973
Si Si6 0.389541 0.597931 0.533247
Si Si7 0.110707 0.919603 0.606023
O O1 0.112436 0.400609 0.638485
O O2 0.179140 0.570183 0.592524
O O3 0.164190 0.596593 0.669949
O O4 0.302309 0.456274 0.635990
O O5 0.500000 0.704869 0.640298
O O6 0.639913 0.750526 0.690662
O O7 0.691105 0.711443 0.615389
O O8 0.849916 0.717043 0.735712
O O9 0.848986 0.958573 0.769958
O O10 0.000000 0.822284 0.765395
O O11 0.702261 0.687458 0.541775
O O12 0.848144 0.801609 0.583776
O O13 0.000000 0.092695 0.788396
O O14 0.370484 0.500000 0.500000
O O15 0.500000 0.652839 0.526665
O O16 0.394794 0.521093 0.572862
O O17 0.000000 0.900939 0.622420
#
# Coordination Sequence:
#
# PCOD9477474 Si02
#       7
#    16  16  16  16  16  16  16
#     4   9  18  32  51  77 105 137 176 220 271 325
#     4   9  17  32  53  76 103 136 176 222 270 327
#     4   8  15  28  49  76 106 138 174 224 284 337
#     4  10  19  32  53  79 105 137 180 223 268 321
#     4   9  16  30  52  80 111 142 182 232 286 343
#     4   9  18  34  55  79 109 142 173 212 267 331
#     4   9  19  34  52  78 110 141 179 224 269 322
#
# _framework density 21.883965
#
# number of rings (size 3 to 8) (size 9 to 14) (size 15 to 20)
#    0.000    3.000    0.000    1.714    0.000    2.286 
#    0.000    5.000    0.000   10.714    0.000    9.000 
#    0.000    0.000    0.000    0.000    0.000    0.000 
#
# Total GULP energy -312011.106996 kJ/mol
# GULP energy per Si atom -5571.626911 kJ/mol
# Density = 2.183416 g / cm^3
# Si number density = 21.883965 Si / 1000 Ang^3
#
#
#
# Elastic Constant Matrix: (Units=GPa)
#
#
# Indices 1 2 3 4 5 6 
#
# 1 104.8047 4.5072 11.7421 0.0000 0.0000 0.0000
# 2 4.5072 45.2034 -0.6997 0.0000 0.0000 0.0000
# 3 11.7421 -0.6997 41.8666 0.0000 0.0000 0.0000
# 4 0.0000 0.0000 0.0000 18.4681 0.0000 0.0000
# 5 0.0000 0.0000 0.0000 0.0000 18.9444 0.0000
# 6 0.0000 0.0000 0.0000 0.0000 0.0000 8.1035
#
#
#
# Elastic Compliance Matrix: (Units=1/GPa)
#
#
# Indices 1 2 3 4 5 6 
#
# 1 0.009899 -0.001030 -0.002793 0.000000 0.000000 0.000000
# 2 -0.001030 0.022235 0.000661 0.000000 0.000000 0.000000
# 3 -0.002793 0.000661 0.024680 0.000000 0.000000 0.000000
# 4 0.000000 0.000000 0.000000 0.054147 0.000000 0.000000
# 5 0.000000 0.000000 0.000000 0.000000 0.052786 0.000000
# 6 0.000000 0.000000 0.000000 0.000000 0.000000 0.123404
#
#
# Mechanical properties :
#
#
# Convention : Reuss Voigt Hill
#
# Bulk Modulus (GPa) = 19.80687 24.77489 22.29088
# Shear Modulus (GPa) = 16.11310 20.85820 18.48565
#
# Velocity S-wave (km/s) = 2.71642 3.09063 2.90955
# Velocity P-wave (km/s) = 4.34846 4.90730 4.63631
#
# Compressibility (1/GPa) = 0.05048754
#
# Stress axis : x y z
#
# Youngs Moduli (GPa) = 101.02193 44.97373 40.51882
#
# Poissons Ratio (x) = 0.04633 0.11319
# Poissons Ratio (y) = 0.10408 -0.02676
# Poissons Ratio (z) = 0.28220 -0.02971
#
# Static dielectric constant tensor:
#      x y z
#    x 1.846790 0.000000 0.000000 
#    y 0.000000 1.906440 0.000000 
#    z 0.000000 0.000000 1.787960 
# 
# From -- ./inp_files/53284.got.cif
#   From: 2010.05.17/outbox.cif.g08.bks.cpg/sg64_27_cif.got.tgz:53284.got - 2010.06.03 16:29:19.
