data_PCOD9477985
_publ_section_title
;
Structure prediction by ZEFSAII (Michael W. Deem and Ramdas Pophale) SiO2 
 PCOD9477985
Probable space group: C M C A
;
_chemical_formula_sum "Si O2"
_cell_formula_units_Z 72
_cell_length_a 15.944528
_cell_length_b 10.019238
_cell_length_c 22.507956
_cell_angle_alpha 90.000000
_cell_angle_beta 90.000000
_cell_angle_gamma 90.000000
_cell_volume 3595.691456
_symmetry_space_group_name_H-M "C M C A"
_symmetry_group_IT_number 64
_symmetry_cell_setting 'orthorhombic'
loop_
_space_group_symop_operation_xyz
x,y,z
-x,1/2-y,1/2+z
x,-y,-z
-x,1/2+y,1/2-z
-x,-y,-z
x,1/2+y,1/2-z
-x,y,z
x,1/2-y,1/2+z
1/2+x,1/2+y,z
1/2-x,-y,1/2+z
1/2+x,1/2-y,-z
1/2-x,y,1/2-z
1/2-x,1/2-y,-z
1/2+x,y,1/2-z
1/2-x,1/2+y,z
1/2+x,-y,1/2+z
loop_
_atom_site_type_symbol
_atom_site_label
_atom_site_fract_x
_atom_site_fract_y
_atom_site_fract_z
Si Si1 0.405447 0.137909 0.901203
Si Si2 0.794539 0.000000 0.500000
Si Si3 0.864900 0.074282 0.055890
Si Si4 0.397809 0.530623 0.819466
Si Si5 0.897737 0.238793 0.723945
O O1 0.500000 0.083309 0.899081
O O2 0.407394 0.290034 0.924486
O O3 0.371969 0.153307 0.834114
O O4 0.350140 0.058903 0.947759
O O5 0.729102 0.899215 0.531729
O O6 0.863755 0.980719 0.113803
O O7 0.905638 0.000000 0.000000
O O8 0.500000 0.531305 0.823219
O O9 0.370573 0.660463 0.782684
O O10 0.373189 0.392942 0.785520
O O11 0.000000 0.238235 0.723394
#
# Coordination Sequence:
#
# PCOD9477985 Si02
#       5
#    16   8  16  16  16
#     4  10  19  36  57  79 108 146 183 226 272 324
#     4  10  21  36  53  78 114 144 182 218 279 324
#     4   9  20  34  56  78 114 143 181 220 277 323
#     4   9  16  32  53  80 109 142 180 229 273 327
#     4   8  16  30  52  77 107 137 180 230 278 315
#
# _framework density 20.023966000000001
#
# number of rings (size 3 to 8) (size 9 to 14) (size 15 to 20)
#    0.667    2.222    0.000    3.000    0.000    1.778 
#    4.000    1.111    0.000    5.333    0.000    0.000 
#    0.000    0.000    0.000    0.000    0.000    0.000 
#
# Total GULP energy -200503.171029 kJ/mol
# GULP energy per Si atom -5569.532529 kJ/mol
# Density = 1.997839 g / cm^3
# Si number density = 20.023966 Si / 1000 Ang^3
#
#
#
# Elastic Constant Matrix: (Units=GPa)
#
#
# Indices 1 2 3 4 5 6 
#
# 1 34.5332 -6.8183 2.2953 0.0000 0.0000 0.0000
# 2 -6.8183 26.0574 33.8867 0.0000 0.0000 0.0000
# 3 2.2953 33.8867 101.7969 0.0000 0.0000 0.0000
# 4 0.0000 0.0000 0.0000 35.4582 0.0000 0.0000
# 5 0.0000 0.0000 0.0000 0.0000 29.9918 0.0000
# 6 0.0000 0.0000 0.0000 0.0000 0.0000 12.1554
#
#
#
# Elastic Compliance Matrix: (Units=1/GPa)
#
#
# Indices 1 2 3 4 5 6 
#
# 1 0.032690 0.016774 -0.006321 0.000000 0.000000 0.000000
# 2 0.016774 0.076280 -0.025771 0.000000 0.000000 0.000000
# 3 -0.006321 -0.025771 0.018545 0.000000 0.000000 0.000000
# 4 0.000000 0.000000 0.000000 0.028202 0.000000 0.000000
# 5 0.000000 0.000000 0.000000 0.000000 0.033342 0.000000
# 6 0.000000 0.000000 0.000000 0.000000 0.000000 0.082268
#
#
# Mechanical properties :
#
#
# Convention : Reuss Voigt Hill
#
# Bulk Modulus (GPa) = 10.32221 24.56832 17.44527
# Shear Modulus (GPa) = 14.95866 24.38933 19.67399
#
# Velocity S-wave (km/s) = 2.73616 3.49378 3.13792
# Velocity P-wave (km/s) = 3.89207 5.34523 4.67545
#
# Compressibility (1/GPa) = 0.09687850
#
# Stress axis : x y z
#
# Youngs Moduli (GPa) = 30.59078 13.10967 53.92387
#
# Poissons Ratio (x) = -0.21990 0.34084
# Poissons Ratio (y) = -0.51312 1.38965
# Poissons Ratio (z) = 0.19336 0.33784
#
# Static dielectric constant tensor:
#      x y z
#    x 1.726750 0.000000 0.000000 
#    y 0.000000 1.715020 0.000000 
#    z 0.000000 0.000000 1.704940 
# 
# From -- ./inp_files/32820.got.cif
#   From: 2010.05.17/outbox.cif.g08.bks.cpg/sg64_17_cif.got.tgz:32820.got - 2010.06.03 16:29:19.
