data_PCOD9477440
_publ_section_title
;
Structure prediction by ZEFSAII (Michael W. Deem and Ramdas Pophale) SiO2 
 PCOD9477440
Probable space group: C M C A
;
_chemical_formula_sum "Si O2"
_cell_formula_units_Z 64
_cell_length_a 8.273578
_cell_length_b 25.814119
_cell_length_c 15.102395
_cell_angle_alpha 90.000000
_cell_angle_beta 90.000000
_cell_angle_gamma 90.000000
_cell_volume 3225.495931
_symmetry_space_group_name_H-M "C M C A"
_symmetry_group_IT_number 64
_symmetry_cell_setting 'orthorhombic'
loop_
_space_group_symop_operation_xyz
x,y,z
-x,1/2-y,1/2+z
x,-y,-z
-x,1/2+y,1/2-z
-x,-y,-z
x,1/2+y,1/2-z
-x,y,z
x,1/2-y,1/2+z
1/2+x,1/2+y,z
1/2-x,-y,1/2+z
1/2+x,1/2-y,-z
1/2-x,y,1/2-z
1/2-x,1/2-y,-z
1/2+x,y,1/2-z
1/2-x,1/2+y,z
1/2+x,-y,1/2+z
loop_
_atom_site_type_symbol
_atom_site_label
_atom_site_fract_x
_atom_site_fract_y
_atom_site_fract_z
Si Si1 0.692264 0.638086 0.648814
Si Si2 0.193336 0.248170 0.852376
Si Si3 0.695249 0.361763 0.648710
Si Si4 0.301980 0.059355 0.999309
O O1 0.500000 0.636324 0.650175
O O2 0.750000 0.633666 0.750000
O O3 0.740091 0.694438 0.610323
O O4 0.751782 0.591760 0.586580
O O5 0.250000 0.247942 0.750000
O O6 0.248029 0.304649 0.885613
O O7 0.000000 0.245818 0.855917
O O8 0.500000 0.361326 0.648225
O O9 0.750000 0.368104 0.750000
O O10 0.750018 0.407761 0.584987
O O11 0.500000 0.058966 0.999045
O O12 0.247933 0.000000 0.000000
#
# Coordination Sequence:
#
# PCOD9477440 Si02
#       4
#    16  16  16  16
#     4  10  19  32  52  75 100 131 164 200 244 293
#     4   9  16  28  48  74 102 127 157 199 245 295
#     4   9  18  33  53  76 100 129 164 201 245 294
#     4   9  19  35  52  71  98 133 170 203 241 294
#
# _framework density 19.841909999999999
#
# number of rings (size 3 to 8) (size 9 to 14) (size 15 to 20)
#    0.000    2.750    0.000    3.000    0.000    3.000 
#    0.000    2.500    0.000    5.250    0.000    0.000 
#    0.000    0.000    0.000    0.000    0.000    0.000 
#
# Total GULP energy -178428.238584 kJ/mol
# GULP energy per Si atom -5575.882456 kJ/mol
# Density = 1.979675 g / cm^3
# Si number density = 19.841910 Si / 1000 Ang^3
#
#
#
# Elastic Constant Matrix: (Units=GPa)
#
#
# Indices 1 2 3 4 5 6 
#
# 1 20.8395 22.2526 9.2359 0.0000 0.0000 0.0000
# 2 22.2526 240.3838 98.7326 0.0000 0.0000 0.0000
# 3 9.2359 98.7326 110.3570 0.0000 0.0000 0.0000
# 4 0.0000 0.0000 0.0000 35.5260 0.0000 0.0000
# 5 0.0000 0.0000 0.0000 0.0000 -3.8658 0.0000
# 6 0.0000 0.0000 0.0000 0.0000 0.0000 22.4889
#
#
#
# Elastic Compliance Matrix: (Units=1/GPa)
#
#
# Indices 1 2 3 4 5 6 
#
# 1 0.053250 -0.004899 -0.000073 0.000000 0.000000 0.000000
# 2 -0.004899 0.007027 -0.005877 0.000000 0.000000 0.000000
# 3 -0.000073 -0.005877 0.014326 0.000000 0.000000 0.000000
# 4 0.000000 0.000000 0.000000 0.028148 0.000000 0.000000
# 5 0.000000 0.000000 0.000000 0.000000 -0.258676 0.000000
# 6 0.000000 0.000000 0.000000 0.000000 0.000000 0.044466
#
#
# Mechanical properties :
#
#
# Convention : Reuss Voigt Hill
#
# Bulk Modulus (GPa) = 18.90235 70.22472 44.56354
# Shear Modulus (GPa) = -69.32490 26.92042 -21.20224
#
# Velocity S-wave (km/s) = -5.91730 3.68740 -3.27243
# Velocity P-wave (km/s) = 6.09416 7.32108 2.86874
#
# Compressibility (1/GPa) = 0.05290348
#
# Stress axis : x y z
#
# Youngs Moduli (GPa) = 18.77938 142.29818 69.80414
#
# Poissons Ratio (x) = 0.69716 0.00512
# Poissons Ratio (y) = 0.09201 0.41025
# Poissons Ratio (z) = 0.00138 0.83632
#
# Static dielectric constant tensor:
#      x y z
#    x 1.688240 0.000000 0.000000 
#    y 0.000000 1.726510 0.000000 
#    z 0.000000 0.000000 1.689810 
# 
# From -- ./inp_files/20864.got.cif
#   From: 2010.05.17/outbox.cif.g08.bks.cpg/sg64_11_cif.got.tgz:20864.got - 2010.06.03 16:29:19.
