data_PCOD9477053
_publ_section_title
;
Structure prediction by ZEFSAII (Michael W. Deem and Ramdas Pophale) SiO2 
 PCOD9477053
Probable space group: C M C A
;
_chemical_formula_sum "Si O2"
_cell_formula_units_Z 120
_cell_length_a 21.517849
_cell_length_b 20.446828
_cell_length_c 14.546263
_cell_angle_alpha 90.000000
_cell_angle_beta 90.000000
_cell_angle_gamma 90.000000
_cell_volume 6399.944896
_symmetry_space_group_name_H-M "C M C A"
_symmetry_group_IT_number 64
_symmetry_cell_setting 'orthorhombic'
loop_
_space_group_symop_operation_xyz
x,y,z
-x,1/2-y,1/2+z
x,-y,-z
-x,1/2+y,1/2-z
-x,-y,-z
x,1/2+y,1/2-z
-x,y,z
x,1/2-y,1/2+z
1/2+x,1/2+y,z
1/2-x,-y,1/2+z
1/2+x,1/2-y,-z
1/2-x,y,1/2-z
1/2-x,1/2-y,-z
1/2+x,y,1/2-z
1/2-x,1/2+y,z
1/2+x,-y,1/2+z
loop_
_atom_site_type_symbol
_atom_site_label
_atom_site_fract_x
_atom_site_fract_y
_atom_site_fract_z
Si Si1 0.384551 0.685188 0.987081
Si Si2 0.179688 0.246732 0.155063
Si Si3 0.500000 0.740472 0.400617
Si Si4 0.393470 0.835111 0.794594
Si Si5 0.230071 0.626713 0.109863
Si Si6 0.260773 0.362192 0.102705
Si Si7 0.572221 0.073029 0.374656
Si Si8 0.808448 0.999705 0.888911
O O1 0.362037 0.737821 0.063477
O O2 0.399998 0.618584 0.043435
O O3 0.445483 0.710171 0.938514
O O4 0.326292 0.672986 0.920406
O O5 0.137433 0.226178 0.240294
O O6 0.231783 0.190329 0.142902
O O7 0.214206 0.315622 0.157583
O O8 0.554114 0.691225 0.360795
O O9 0.338111 0.870412 0.848789
O O10 0.420754 0.882378 0.716077
O O11 0.268854 0.563347 0.140883
O O12 0.230678 0.628212 0.999060
O O13 0.278378 0.432620 0.142770
O O14 0.500000 0.056972 0.390496
O O15 0.619583 0.012619 0.364375
O O16 0.805646 0.000000 0.000000
#
# Coordination Sequence:
#
# PCOD9477053 Si02
#       8
#    16  16   8  16  16  16  16  16
#     4  10  19  33  57  84 116 150 189 245 290 346
#     4  10  19  33  58  81 118 147 188 239 309 344
#     4  12  22  34  54  81 120 148 207 238 279 352
#     4  11  22  34  56  86 114 163 191 238 299 361
#     4  10  18  34  61  84 113 147 197 240 295 354
#     4  10  19  36  57  92 112 143 193 255 293 352
#     4  11  20  37  56  84 119 157 200 236 286 361
#     4  10  19  35  60  87 109 143 196 244 295 346
#
# _framework density 18.750160999999999
#
# number of rings (size 3 to 8) (size 9 to 14) (size 15 to 20)
#    0.000    1.600    6.667    3.600    0.000    0.267 
#    1.200    0.000   11.733    0.000    0.000   11.667 
#    0.000    0.000    0.000    0.000    0.000    0.000 
#
# Total GULP energy -334125.661483 kJ/mol
# GULP energy per Si atom -5568.761025 kJ/mol
# Density = 1.870748 g / cm^3
# Si number density = 18.750161 Si / 1000 Ang^3
#
#
#
# Elastic Constant Matrix: (Units=GPa)
#
#
# Indices 1 2 3 4 5 6 
#
# 1 132.3509 41.0128 10.9045 0.0000 0.0000 0.0000
# 2 41.0128 100.9055 5.9692 0.0000 0.0000 0.0000
# 3 10.9045 5.9692 22.6400 0.0000 0.0000 0.0000
# 4 0.0000 0.0000 0.0000 7.0666 0.0000 0.0000
# 5 0.0000 0.0000 0.0000 0.0000 12.6237 0.0000
# 6 0.0000 0.0000 0.0000 0.0000 0.0000 22.8270
#
#
#
# Elastic Compliance Matrix: (Units=1/GPa)
#
#
# Indices 1 2 3 4 5 6 
#
# 1 0.008892 -0.003414 -0.003383 0.000000 0.000000 0.000000
# 2 -0.003414 0.011378 -0.001356 0.000000 0.000000 0.000000
# 3 -0.003383 -0.001356 0.046156 0.000000 0.000000 0.000000
# 4 0.000000 0.000000 0.000000 0.141510 0.000000 0.000000
# 5 0.000000 0.000000 0.000000 0.000000 0.079216 0.000000
# 6 0.000000 0.000000 0.000000 0.000000 0.000000 0.043808
#
#
# Mechanical properties :
#
#
# Convention : Reuss Voigt Hill
#
# Bulk Modulus (GPa) = 19.95141 41.29661 30.62401
# Shear Modulus (GPa) = 13.73729 21.70414 17.72072
#
# Velocity S-wave (km/s) = 2.70969 3.40596 3.07758
# Velocity P-wave (km/s) = 4.52257 6.12698 5.38487
#
# Compressibility (1/GPa) = 0.05012176
#
# Stress axis : x y z
#
# Youngs Moduli (GPa) = 112.45609 87.88797 21.66554
#
# Poissons Ratio (x) = 0.30006 0.07329
# Poissons Ratio (y) = 0.38394 0.02937
# Poissons Ratio (z) = 0.38042 0.11913
#
# Static dielectric constant tensor:
#      x y z
#    x 1.624590 0.000000 0.000000 
#    y 0.000000 1.669210 0.000000 
#    z 0.000000 0.000000 1.705840 
# 
# From -- ./inp_files/26743.got.cif
#   From: 2010.05.17/outbox.cif.g08.bks.cpg/sg64_14_cif.got.tgz:26743.got - 2010.06.03 16:29:19.
