data_PCOD9477401
_publ_section_title
;
Structure prediction by ZEFSAII (Michael W. Deem and Ramdas Pophale) SiO2 
 PCOD9477401
Probable space group: C M C A
;
_chemical_formula_sum "Si O2"
_cell_formula_units_Z 96
_cell_length_a 8.938477
_cell_length_b 27.345826
_cell_length_c 23.526293
_cell_angle_alpha 90.000000
_cell_angle_beta 90.000000
_cell_angle_gamma 90.000000
_cell_volume 5750.532663
_symmetry_space_group_name_H-M "C M C A"
_symmetry_group_IT_number 64
_symmetry_cell_setting 'orthorhombic'
loop_
_space_group_symop_operation_xyz
x,y,z
-x,1/2-y,1/2+z
x,-y,-z
-x,1/2+y,1/2-z
-x,-y,-z
x,1/2+y,1/2-z
-x,y,z
x,1/2-y,1/2+z
1/2+x,1/2+y,z
1/2-x,-y,1/2+z
1/2+x,1/2-y,-z
1/2-x,y,1/2-z
1/2-x,1/2-y,-z
1/2+x,y,1/2-z
1/2-x,1/2+y,z
1/2+x,-y,1/2+z
loop_
_atom_site_type_symbol
_atom_site_label
_atom_site_fract_x
_atom_site_fract_y
_atom_site_fract_z
Si Si1 0.163495 0.555935 0.514526
Si Si2 0.179784 0.303392 0.995521
Si Si3 0.829074 0.373537 0.592691
Si Si4 0.826833 0.379134 0.093153
Si Si5 0.681000 0.448999 0.812696
Si Si6 0.178393 0.060058 0.812223
O O1 0.173618 0.500000 0.500000
O O2 0.162550 0.585730 0.456452
O O3 0.298565 0.574661 0.552123
O O4 0.000000 0.565040 0.543302
O O5 0.236787 0.330740 0.938323
O O6 0.000000 0.301719 0.994913
O O7 0.250000 0.250000 0.000000
O O8 0.225324 0.334803 0.051987
O O9 0.770007 0.404080 0.646835
O O10 0.000000 0.356685 0.604347
O O11 0.738037 0.395945 0.148709
O O12 0.000000 0.371719 0.106733
O O13 0.500000 0.446692 0.810138
O O14 0.750000 0.444290 0.750000
O O15 0.717535 0.504519 0.833888
O O16 0.250000 0.063748 0.750000
O O17 0.000000 0.062263 0.808181
#
# Coordination Sequence:
#
# PCOD9477401 Si02
#       6
#    16  16  16  16  16  16
#     4   9  16  27  44  66  94 128 162 195 236 289
#     4  10  21  36  54  75  97 123 159 204 255 304
#     4   9  17  30  48  70  97 128 162 200 242 288
#     4  10  20  32  47  71  99 126 160 202 247 295
#     4   9  18  31  48  72 102 137 172 202 234 278
#     4  10  19  32  50  73 103 139 174 203 235 280
#
# _framework density 16.694105
#
# number of rings (size 3 to 8) (size 9 to 14) (size 15 to 20)
#    0.000    2.500    0.000    2.500    0.000    6.333 
#    0.000    3.333    0.000    1.000    0.000    4.667 
#    0.000    0.000    0.000    0.000    0.000    0.000 
#
# Total GULP energy -267206.727757 kJ/mol
# GULP energy per Si atom -5566.806828 kJ/mol
# Density = 1.665611 g / cm^3
# Si number density = 16.694105 Si / 1000 Ang^3
#
#
#
# Elastic Constant Matrix: (Units=GPa)
#
#
# Indices 1 2 3 4 5 6 
#
# 1 40.7093 43.3821 32.3816 0.0000 0.0000 0.0000
# 2 43.3821 111.4625 49.5368 0.0000 0.0000 0.0000
# 3 32.3816 49.5368 79.4287 0.0000 0.0000 0.0000
# 4 0.0000 0.0000 0.0000 23.3783 0.0000 0.0000
# 5 0.0000 0.0000 0.0000 0.0000 28.0503 0.0000
# 6 0.0000 0.0000 0.0000 0.0000 0.0000 14.4933
#
#
#
# Elastic Compliance Matrix: (Units=1/GPa)
#
#
# Indices 1 2 3 4 5 6 
#
# 1 0.047996 -0.013813 -0.010953 0.000000 0.000000 0.000000
# 2 -0.013813 0.016387 -0.004589 0.000000 0.000000 0.000000
# 3 -0.010953 -0.004589 0.019917 0.000000 0.000000 0.000000
# 4 0.000000 0.000000 0.000000 0.042775 0.000000 0.000000
# 5 0.000000 0.000000 0.000000 0.000000 0.035650 0.000000
# 6 0.000000 0.000000 0.000000 0.000000 0.000000 0.068998
#
#
# Mechanical properties :
#
#
# Convention : Reuss Voigt Hill
#
# Bulk Modulus (GPa) = 39.07509 53.57795 46.32652
# Shear Modulus (GPa) = 16.72454 20.27104 18.49779
#
# Velocity S-wave (km/s) = 3.16859 3.48841 3.33234
# Velocity P-wave (km/s) = 6.06992 6.95622 6.52813
#
# Compressibility (1/GPa) = 0.02559175
#
# Stress axis : x y z
#
# Youngs Moduli (GPa) = 20.83495 61.02367 50.20862
#
# Poissons Ratio (x) = 0.84292 0.54991
# Poissons Ratio (y) = 0.28779 0.23039
# Poissons Ratio (z) = 0.22820 0.28002
#
# Static dielectric constant tensor:
#      x y z
#    x 1.589240 0.000000 0.000000 
#    y 0.000000 1.576530 0.000000 
#    z 0.000000 0.000000 1.602800 
# 
# From -- ./inp_files/43156.got.cif
#   From: 2010.05.17/outbox.cif.g08.bks.cpg/sg64_22_cif.got.tgz:43156.got - 2010.06.03 16:29:19.
