data_PCOD9477987
_publ_section_title
;
Structure prediction by ZEFSAII (Michael W. Deem and Ramdas Pophale) SiO2 
 PCOD9477987
Probable space group: C M C A
;
_chemical_formula_sum "Si O2"
_cell_formula_units_Z 80
_cell_length_a 18.962258
_cell_length_b 19.047567
_cell_length_c 10.438495
_cell_angle_alpha 90.000000
_cell_angle_beta 90.000000
_cell_angle_gamma 90.000000
_cell_volume 3770.226561
_symmetry_space_group_name_H-M "C M C A"
_symmetry_group_IT_number 64
_symmetry_cell_setting 'orthorhombic'
loop_
_space_group_symop_operation_xyz
x,y,z
-x,1/2-y,1/2+z
x,-y,-z
-x,1/2+y,1/2-z
-x,-y,-z
x,1/2+y,1/2-z
-x,y,z
x,1/2-y,1/2+z
1/2+x,1/2+y,z
1/2-x,-y,1/2+z
1/2+x,1/2-y,-z
1/2-x,y,1/2-z
1/2-x,1/2-y,-z
1/2+x,y,1/2-z
1/2-x,1/2+y,z
1/2+x,-y,1/2+z
loop_
_atom_site_type_symbol
_atom_site_label
_atom_site_fract_x
_atom_site_fract_y
_atom_site_fract_z
Si Si1 0.500000 0.316992 0.459603
Si Si2 0.809549 0.974903 0.141246
Si Si3 0.138679 0.615766 0.286426
Si Si4 0.308358 0.328302 0.051829
Si Si5 0.000000 0.705571 0.241687
Si Si6 0.656343 0.671107 0.475903
O O1 0.500000 0.270562 0.334667
O O2 0.500000 0.273781 0.593095
O O3 0.579384 0.349944 0.468677
O O4 0.750000 0.977130 0.250000
O O5 0.837377 0.895670 0.126573
O O6 0.865946 0.034355 0.177433
O O7 0.782608 0.000000 0.000000
O O8 0.177812 0.655370 0.401870
O O9 0.066236 0.656504 0.269718
O O10 0.172831 0.622945 0.146546
O O11 0.341071 0.252038 0.075973
O O12 0.223399 0.329627 0.070614
#
# Coordination Sequence:
#
# PCOD9477987 Si02
#       6
#     8  16  16  16   8  16
#     4  10  20  38  55  87 123 159 189 245 295 355
#     4  10  21  38  57  82 117 153 193 241 294 350
#     4  10  19  36  57  81 117 155 194 239 298 354
#     4  10  20  34  56  88 115 148 201 246 292 345
#     4  10  20  36  60  82 120 158 197 239 301 357
#     4  10  20  34  59  85 119 152 197 242 298 350
#
# _framework density 21.218886000000001
#
# number of rings (size 3 to 8) (size 9 to 14) (size 15 to 20)
#    0.000    2.000    2.000    3.000    0.000    3.200 
#    0.000    5.500    0.000    1.200    0.000   11.200 
#    0.000    0.000    0.000    0.000    0.000    0.000 
#
# Total GULP energy -222902.550764 kJ/mol
# GULP energy per Si atom -5572.563769 kJ/mol
# Density = 2.117059 g / cm^3
# Si number density = 21.218886 Si / 1000 Ang^3
#
#
#
# Elastic Constant Matrix: (Units=GPa)
#
#
# Indices 1 2 3 4 5 6 
#
# 1 54.1432 -33.7892 -7.9123 0.0000 0.0000 0.0000
# 2 -33.7892 76.3383 -8.1263 0.0000 0.0000 0.0000
# 3 -7.9123 -8.1263 39.6873 0.0000 0.0000 0.0000
# 4 0.0000 0.0000 0.0000 25.7976 0.0000 0.0000
# 5 0.0000 0.0000 0.0000 0.0000 14.8496 0.0000
# 6 0.0000 0.0000 0.0000 0.0000 0.0000 24.9710
#
#
#
# Elastic Compliance Matrix: (Units=1/GPa)
#
#
# Indices 1 2 3 4 5 6 
#
# 1 0.027952 0.013254 0.008287 0.000000 0.000000 0.000000
# 2 0.013254 0.019677 0.006671 0.000000 0.000000 0.000000
# 3 0.008287 0.006671 0.028215 0.000000 0.000000 0.000000
# 4 0.000000 0.000000 0.000000 0.038763 0.000000 0.000000
# 5 0.000000 0.000000 0.000000 0.000000 0.067342 0.000000
# 6 0.000000 0.000000 0.000000 0.000000 0.000000 0.040046
#
#
# Mechanical properties :
#
#
# Convention : Reuss Voigt Hill
#
# Bulk Modulus (GPa) = 7.56035 7.83480 7.69758
# Shear Modulus (GPa) = 23.84813 27.79007 25.81910
#
# Velocity S-wave (km/s) = 3.35611 3.62288 3.49205
# Velocity P-wave (km/s) = 4.31147 4.60443 4.46036
#
# Compressibility (1/GPa) = 0.13226906
#
# Stress axis : x y z
#
# Youngs Moduli (GPa) = 35.77524 50.82199 35.44206
#
# Poissons Ratio (x) = -0.67362 -0.29370
# Poissons Ratio (y) = -0.47418 -0.23645
# Poissons Ratio (z) = -0.29646 -0.33905
#
# Static dielectric constant tensor:
#      x y z
#    x 1.812460 0.000000 0.000000 
#    y 0.000000 1.777250 0.000000 
#    z 0.000000 0.000000 1.807030 
# 
# From -- ./inp_files/15949.got.cif
#   From: 2010.05.17/outbox.cif.g08.bks.cpg/sg64_8_cif.got.tgz:15949.got - 2010.06.03 16:29:19.
