data_PCOD9477340
_publ_section_title
;
Structure prediction by ZEFSAII (Michael W. Deem and Ramdas Pophale) SiO2 
 PCOD9477340
Probable space group: C M C A
;
_chemical_formula_sum "Si O2"
_cell_formula_units_Z 80
_cell_length_a 8.952934
_cell_length_b 19.840743
_cell_length_c 26.281073
_cell_angle_alpha 90.000000
_cell_angle_beta 90.000000
_cell_angle_gamma 90.000000
_cell_volume 4668.382229
_symmetry_space_group_name_H-M "C M C A"
_symmetry_group_IT_number 64
_symmetry_cell_setting 'orthorhombic'
loop_
_space_group_symop_operation_xyz
x,y,z
-x,1/2-y,1/2+z
x,-y,-z
-x,1/2+y,1/2-z
-x,-y,-z
x,1/2+y,1/2-z
-x,y,z
x,1/2-y,1/2+z
1/2+x,1/2+y,z
1/2-x,-y,1/2+z
1/2+x,1/2-y,-z
1/2-x,y,1/2-z
1/2-x,1/2-y,-z
1/2+x,y,1/2-z
1/2-x,1/2+y,z
1/2+x,-y,1/2+z
loop_
_atom_site_type_symbol
_atom_site_label
_atom_site_fract_x
_atom_site_fract_y
_atom_site_fract_z
Si Si1 0.321167 0.616838 0.965692
Si Si2 0.321214 0.484458 0.386928
Si Si3 0.178787 0.373552 0.194831
Si Si4 0.180019 0.726512 0.894469
Si Si5 0.320928 0.120320 0.414714
O O1 0.500000 0.614664 0.960422
O O2 0.249872 0.554749 0.934940
O O3 0.257585 0.684152 0.939250
O O4 0.284521 0.615229 0.025262
O O5 0.500000 0.483083 0.391662
O O6 0.279435 0.440249 0.337420
O O7 0.260656 0.559914 0.386113
O O8 0.250000 0.370845 0.250000
O O9 0.219818 0.310926 0.158144
O O10 0.000000 0.373279 0.200025
O O11 0.219737 0.804886 0.896141
O O12 0.000000 0.720798 0.901021
O O13 0.500000 0.112429 0.409509
#
# Coordination Sequence:
#
# PCOD9477340 Si02
#       5
#    16  16  16  16  16
#     4  10  19  31  50  76 104 138 176 204 237 292
#     4  10  21  35  51  74 103 134 170 209 249 296
#     4   9  19  36  56  74  93 124 166 209 254 303
#     4   9  19  35  52  74 104 134 166 205 250 297
#     4  10  20  33  50  75 108 139 166 204 249 292
#
# _framework density 17.136558000000001
#
# number of rings (size 3 to 8) (size 9 to 14) (size 15 to 20)
#    0.000    2.400    0.000    3.600    0.000    8.800 
#    0.000    1.000    0.000    4.800    0.000    0.000 
#    0.000    0.000    0.000    0.000    0.000    0.000 
#
# Total GULP energy -223237.137475 kJ/mol
# GULP energy per Si atom -5580.928437 kJ/mol
# Density = 1.709755 g / cm^3
# Si number density = 17.136558 Si / 1000 Ang^3
#
#
#
# Elastic Constant Matrix: (Units=GPa)
#
#
# Indices 1 2 3 4 5 6 
#
# 1 24.4578 31.2036 29.7478 0.0000 0.0000 0.0000
# 2 31.2036 124.7322 39.5140 0.0000 0.0000 0.0000
# 3 29.7478 39.5140 95.7923 0.0000 0.0000 0.0000
# 4 0.0000 0.0000 0.0000 4.0570 0.0000 0.0000
# 5 0.0000 0.0000 0.0000 0.0000 26.1593 0.0000
# 6 0.0000 0.0000 0.0000 0.0000 0.0000 32.5692
#
#
#
# Elastic Compliance Matrix: (Units=1/GPa)
#
#
# Indices 1 2 3 4 5 6 
#
# 1 0.083934 -0.014655 -0.020020 0.000000 0.000000 0.000000
# 2 -0.014655 0.011781 -0.000309 0.000000 0.000000 0.000000
# 3 -0.020020 -0.000309 0.016784 0.000000 0.000000 0.000000
# 4 0.000000 0.000000 0.000000 0.246487 0.000000 0.000000
# 5 0.000000 0.000000 0.000000 0.000000 0.038227 0.000000
# 6 0.000000 0.000000 0.000000 0.000000 0.000000 0.030704
#
#
# Mechanical properties :
#
#
# Convention : Reuss Voigt Hill
#
# Bulk Modulus (GPa) = 23.51210 49.54589 36.52899
# Shear Modulus (GPa) = 9.76443 22.19156 15.97799
#
# Velocity S-wave (km/s) = 2.38964 3.60249 3.05682
# Velocity P-wave (km/s) = 4.62213 6.80287 5.81563
#
# Compressibility (1/GPa) = 0.04253129
#
# Stress axis : x y z
#
# Youngs Moduli (GPa) = 11.91408 84.88138 59.58173
#
# Poissons Ratio (x) = 1.24396 1.19283
# Poissons Ratio (y) = 0.17460 0.01839
# Poissons Ratio (z) = 0.23852 0.02619
#
# Static dielectric constant tensor:
#      x y z
#    x 1.573860 0.000000 0.000000 
#    y 0.000000 1.584470 0.000000 
#    z 0.000000 0.000000 1.551480 
# 
# From -- ./inp_files/47789.got.cif
#   From: 2010.05.17/outbox.cif.g08.bks.cpg/sg64_24_cif.got.tgz:47789.got - 2010.06.03 16:29:19.
