data_PCOD9477042
_publ_section_title
;
Structure prediction by ZEFSAII (Michael W. Deem and Ramdas Pophale) SiO2 
 PCOD9477042
Probable space group: C M C A
;
_chemical_formula_sum "Si O2"
_cell_formula_units_Z 88
_cell_length_a 15.627992
_cell_length_b 16.522611
_cell_length_c 17.342314
_cell_angle_alpha 90.000000
_cell_angle_beta 90.000000
_cell_angle_gamma 90.000000
_cell_volume 4478.049642
_symmetry_space_group_name_H-M "C M C A"
_symmetry_group_IT_number 64
_symmetry_cell_setting 'orthorhombic'
loop_
_space_group_symop_operation_xyz
x,y,z
-x,1/2-y,1/2+z
x,-y,-z
-x,1/2+y,1/2-z
-x,-y,-z
x,1/2+y,1/2-z
-x,y,z
x,1/2-y,1/2+z
1/2+x,1/2+y,z
1/2-x,-y,1/2+z
1/2+x,1/2-y,-z
1/2-x,y,1/2-z
1/2-x,1/2-y,-z
1/2+x,y,1/2-z
1/2-x,1/2+y,z
1/2+x,-y,1/2+z
loop_
_atom_site_type_symbol
_atom_site_label
_atom_site_fract_x
_atom_site_fract_y
_atom_site_fract_z
Si Si1 0.404051 0.434063 0.068675
Si Si2 0.750000 0.680647 0.750000
Si Si3 0.316354 0.453650 0.816657
Si Si4 0.801709 0.350631 0.922419
Si Si5 0.400952 0.309236 0.721814
Si Si6 0.257571 0.330780 0.418524
O O1 0.500000 0.401989 0.072642
O O2 0.378046 0.479546 0.147495
O O3 0.335030 0.364436 0.056386
O O4 0.400157 0.500000 0.000000
O O5 0.666295 0.736328 0.765762
O O6 0.728655 0.639010 0.668461
O O7 0.250000 0.478620 0.750000
O O8 0.257776 0.419906 0.886399
O O9 0.370782 0.379991 0.780025
O O10 0.881187 0.340157 0.864971
O O11 0.747911 0.266399 0.915862
O O12 0.819235 0.359813 0.013083
O O13 0.500000 0.288444 0.732308
#
# Coordination Sequence:
#
# PCOD9477042 Si02
#       6
#    16   8  16  16  16  16
#     4  11  23  35  53  87 120 149 191 244 295 348
#     4  10  20  36  56  86 116 148 188 240 296 344
#     4  10  18  36  56  83 113 155 194 230 284 345
#     4   9  18  35  57  77 107 149 197 228 278 338
#     4  10  18  34  59  83 113 145 191 244 280 334
#     4  10  19  35  56  77 113 152 181 235 287 342
#
# _framework density 19.651412000000001
#
# number of rings (size 3 to 8) (size 9 to 14) (size 15 to 20)
#    0.000    2.000    6.364    0.545    1.273    2.909 
#    0.000    0.909    0.000    0.000    0.000    2.545 
#    0.000    0.000    0.000    0.000    0.000    0.000 
#
# Total GULP energy -245295.192175 kJ/mol
# GULP energy per Si atom -5574.890731 kJ/mol
# Density = 1.960668 g / cm^3
# Si number density = 19.651412 Si / 1000 Ang^3
#
#
#
# Elastic Constant Matrix: (Units=GPa)
#
#
# Indices 1 2 3 4 5 6 
#
# 1 91.3925 0.8242 17.8706 0.0000 0.0000 0.0000
# 2 0.8242 25.6665 3.5583 0.0000 0.0000 0.0000
# 3 17.8706 3.5583 136.3096 0.0000 0.0000 0.0000
# 4 0.0000 0.0000 0.0000 24.5117 0.0000 0.0000
# 5 0.0000 0.0000 0.0000 0.0000 17.6682 0.0000
# 6 0.0000 0.0000 0.0000 0.0000 0.0000 17.8794
#
#
#
# Elastic Compliance Matrix: (Units=1/GPa)
#
#
# Indices 1 2 3 4 5 6 
#
# 1 0.011230 -0.000157 -0.001468 0.000000 0.000000 0.000000
# 2 -0.000157 0.039105 -0.001000 0.000000 0.000000 0.000000
# 3 -0.001468 -0.001000 0.007555 0.000000 0.000000 0.000000
# 4 0.000000 0.000000 0.000000 0.040797 0.000000 0.000000
# 5 0.000000 0.000000 0.000000 0.000000 0.056599 0.000000
# 6 0.000000 0.000000 0.000000 0.000000 0.000000 0.055930
#
#
# Mechanical properties :
#
#
# Convention : Reuss Voigt Hill
#
# Bulk Modulus (GPa) = 18.99727 33.09720 26.04724
# Shear Modulus (GPa) = 21.36627 27.41955 24.39291
#
# Velocity S-wave (km/s) = 3.30095 3.73942 3.52700
# Velocity P-wave (km/s) = 4.92102 5.96012 5.46532
#
# Compressibility (1/GPa) = 0.05263914
#
# Stress axis : x y z
#
# Youngs Moduli (GPa) = 89.04460 25.57214 132.36548
#
# Poissons Ratio (x) = 0.00402 0.19434
# Poissons Ratio (y) = 0.01399 0.13240
# Poissons Ratio (z) = 0.13074 0.02558
#
# Static dielectric constant tensor:
#      x y z
#    x 1.642240 0.000000 0.000000 
#    y 0.000000 1.718580 0.000000 
#    z 0.000000 0.000000 1.776830 
# 
# From -- ./inp_files/32179.got.cif
#   From: 2010.05.17/outbox.cif.g08.bks.cpg/sg64_17_cif.got.tgz:32179.got - 2010.06.03 16:29:19.
