data_PCOD9477697
_publ_section_title
;
Structure prediction by ZEFSAII (Michael W. Deem and Ramdas Pophale) SiO2 
 PCOD9477697
Probable space group: C M C A
;
_chemical_formula_sum "Si O2"
_cell_formula_units_Z 88
_cell_length_a 24.030443
_cell_length_b 14.336686
_cell_length_c 11.704169
_cell_angle_alpha 90.000000
_cell_angle_beta 90.000000
_cell_angle_gamma 90.000000
_cell_volume 4032.284205
_symmetry_space_group_name_H-M "C M C A"
_symmetry_group_IT_number 64
_symmetry_cell_setting 'orthorhombic'
loop_
_space_group_symop_operation_xyz
x,y,z
-x,1/2-y,1/2+z
x,-y,-z
-x,1/2+y,1/2-z
-x,-y,-z
x,1/2+y,1/2-z
-x,y,z
x,1/2-y,1/2+z
1/2+x,1/2+y,z
1/2-x,-y,1/2+z
1/2+x,1/2-y,-z
1/2-x,y,1/2-z
1/2-x,1/2-y,-z
1/2+x,y,1/2-z
1/2-x,1/2+y,z
1/2+x,-y,1/2+z
loop_
_atom_site_type_symbol
_atom_site_label
_atom_site_fract_x
_atom_site_fract_y
_atom_site_fract_z
Si Si1 0.685280 0.821678 0.276083
Si Si2 0.500000 0.102718 0.830417
Si Si3 0.377171 0.859059 0.738865
Si Si4 0.619447 0.609130 0.979212
Si Si5 0.622626 0.041125 0.878832
Si Si6 0.000000 0.626957 0.569203
Si Si7 0.500000 0.825664 0.685665
O O1 0.750000 0.819967 0.250000
O O2 0.660007 0.719416 0.296280
O O3 0.668240 0.879883 0.388440
O O4 0.653460 0.868053 0.168685
O O5 0.500000 0.078396 0.694279
O O6 0.500000 0.215405 0.844409
O O7 0.556885 0.063583 0.881386
O O8 0.366586 0.852753 0.603446
O O9 0.365475 0.960564 0.786986
O O10 0.443432 0.843737 0.753032
O O11 0.564439 0.661153 0.929210
O O12 0.604343 0.500000 0.000000
O O13 0.640473 0.000000 0.000000
O O14 0.000000 0.610559 0.429808
#
# Coordination Sequence:
#
# PCOD9477697 Si02
#       7
#    16   8  16  16  16   8   8
#     4  12  28  47  69  98 136 190 240 283 339 402
#     4  12  20  43  67 100 147 175 214 280 359 426
#     4  11  24  45  71 104 137 179 228 286 348 414
#     4  11  21  43  72 100 134 176 232 285 337 410
#     4  12  27  46  70 104 143 176 225 290 360 416
#     4  10  19  33  70 101 132 174 220 276 340 411
#     4  10  21  36  72 107 137 178 223 275 351 421
#
# _framework density 21.823858999999999
#
# number of rings (size 3 to 8) (size 9 to 14) (size 15 to 20)
#    0.000    0.727    5.455    1.091    2.545    5.091 
#    0.000    0.000    0.000    0.000    0.000    0.000 
#    0.000    0.000    0.000    0.000    0.000    0.000 
#
# Total GULP energy -245557.281525 kJ/mol
# GULP energy per Si atom -5580.847307 kJ/mol
# Density = 2.177419 g / cm^3
# Si number density = 21.823859 Si / 1000 Ang^3
#
#
#
# Elastic Constant Matrix: (Units=GPa)
#
#
# Indices 1 2 3 4 5 6 
#
# 1 130.1699 16.0398 16.3751 0.0000 0.0000 0.0000
# 2 16.0398 87.3594 -2.7475 0.0000 0.0000 0.0000
# 3 16.3751 -2.7475 53.7569 0.0000 0.0000 0.0000
# 4 0.0000 0.0000 0.0000 23.7460 0.0000 0.0000
# 5 0.0000 0.0000 0.0000 0.0000 -3.4366 0.0000
# 6 0.0000 0.0000 0.0000 0.0000 0.0000 -1.0579
#
#
#
# Elastic Compliance Matrix: (Units=1/GPa)
#
#
# Indices 1 2 3 4 5 6 
#
# 1 0.008202 -0.001587 -0.002580 0.000000 0.000000 0.000000
# 2 -0.001587 0.011773 0.001085 0.000000 0.000000 0.000000
# 3 -0.002580 0.001085 0.019444 0.000000 0.000000 0.000000
# 4 0.000000 0.000000 0.000000 0.042112 0.000000 0.000000
# 5 0.000000 0.000000 0.000000 0.000000 -0.290983 0.000000
# 6 0.000000 0.000000 0.000000 0.000000 0.000000 -0.945263
#
#
# Mechanical properties :
#
#
# Convention : Reuss Voigt Hill
#
# Bulk Modulus (GPa) = 30.07059 36.73567 33.40313
# Shear Modulus (GPa) = -4.39573 19.95822 7.78124
#
# Velocity S-wave (km/s) = -1.42076 3.02737 1.89030
# Velocity P-wave (km/s) = 3.33426 5.39345 4.48367
#
# Compressibility (1/GPa) = 0.03325508
#
# Stress axis : x y z
#
# Youngs Moduli (GPa) = 121.91620 84.94369 51.43098
#
# Poissons Ratio (x) = 0.13482 0.13267
# Poissons Ratio (y) = 0.19350 -0.05581
# Poissons Ratio (z) = 0.31450 -0.09218
#
# Static dielectric constant tensor:
#      x y z
#    x 1.760430 0.000000 0.000000 
#    y 0.000000 1.823810 0.000000 
#    z 0.000000 0.000000 1.800850 
# 
# From -- ./inp_files/18275.got.cif
#   From: 2010.05.17/outbox.cif.g08.bks.cpg/sg64_10_cif.got.tgz:18275.got - 2010.06.03 16:29:19.
