data_PCOD9477238
_publ_section_title
;
Structure prediction by ZEFSAII (Michael W. Deem and Ramdas Pophale) SiO2 
 PCOD9477238
Probable space group: C M C A
;
_chemical_formula_sum "Si O2"
_cell_formula_units_Z 112
_cell_length_a 18.256379
_cell_length_b 20.183618
_cell_length_c 19.199413
_cell_angle_alpha 90.000000
_cell_angle_beta 90.000000
_cell_angle_gamma 90.000000
_cell_volume 7074.595475
_symmetry_space_group_name_H-M "C M C A"
_symmetry_group_IT_number 64
_symmetry_cell_setting 'orthorhombic'
loop_
_space_group_symop_operation_xyz
x,y,z
-x,1/2-y,1/2+z
x,-y,-z
-x,1/2+y,1/2-z
-x,-y,-z
x,1/2+y,1/2-z
-x,y,z
x,1/2-y,1/2+z
1/2+x,1/2+y,z
1/2-x,-y,1/2+z
1/2+x,1/2-y,-z
1/2-x,y,1/2-z
1/2-x,1/2-y,-z
1/2+x,y,1/2-z
1/2-x,1/2+y,z
1/2+x,-y,1/2+z
loop_
_atom_site_type_symbol
_atom_site_label
_atom_site_fract_x
_atom_site_fract_y
_atom_site_fract_z
Si Si1 0.914578 0.695413 0.724127
Si Si2 0.583430 0.240180 0.070566
Si Si3 0.734877 0.189537 0.050745
Si Si4 0.088529 0.937007 0.147327
Si Si5 0.415159 0.086224 0.349247
Si Si6 0.314788 0.295053 0.804052
Si Si7 0.866941 0.378303 0.497653
O O1 0.911440 0.735502 0.650813
O O2 0.891494 0.621026 0.701692
O O3 0.862467 0.732188 0.778881
O O4 0.000000 0.694803 0.746612
O O5 0.500000 0.219047 0.056944
O O6 0.647499 0.186671 0.059064
O O7 0.601406 0.305542 0.023869
O O8 0.774174 0.210397 0.122263
O O9 0.750000 0.250000 0.000000
O O10 0.781687 0.129465 0.019006
O O11 0.121048 0.921215 0.071257
O O12 0.000000 0.933284 0.139674
O O13 0.107930 0.011363 0.168720
O O14 0.500000 0.094602 0.331092
O O15 0.367848 0.142005 0.311548
O O16 0.406290 0.095817 0.432857
O O17 0.250000 0.306395 0.750000
#
# Coordination Sequence:
#
# PCOD9477238 Si02
#       7
#    16  16  16  16  16  16  16
#     4   9  17  30  49  70  94 128 166 200 240 294
#     4   9  15  26  44  67  96 131 166 199 238 290
#     4   9  18  30  45  70  99 128 161 203 243 291
#     4   9  17  30  49  73 101 131 164 197 245 309
#     4  10  19  30  47  72 100 130 161 201 252 303
#     4  11  20  32  48  69 102 128 162 206 250 285
#     4   9  16  26  46  71 101 126 155 201 251 296
#
# _framework density 15.831293000000001
#
# number of rings (size 3 to 8) (size 9 to 14) (size 15 to 20)
#    0.000    2.571    1.429    3.000    0.000    1.143 
#    0.000    1.429    0.000    0.000    0.000    0.000 
#    0.000    9.143    0.000    0.429    0.000    0.000 
#
# Total GULP energy -311803.247976 kJ/mol
# GULP energy per Si atom -5567.915142 kJ/mol
# Density = 1.579526 g / cm^3
# Si number density = 15.831293 Si / 1000 Ang^3
#
#
#
# Elastic Constant Matrix: (Units=GPa)
#
#
# Indices 1 2 3 4 5 6 
#
# 1 101.7882 41.2627 25.0605 0.0000 0.0000 0.0000
# 2 41.2627 75.5533 37.1390 0.0000 0.0000 0.0000
# 3 25.0605 37.1390 52.9530 0.0000 0.0000 0.0000
# 4 0.0000 0.0000 0.0000 13.5752 0.0000 0.0000
# 5 0.0000 0.0000 0.0000 0.0000 11.5966 0.0000
# 6 0.0000 0.0000 0.0000 0.0000 0.0000 7.9703
#
#
#
# Elastic Compliance Matrix: (Units=1/GPa)
#
#
# Indices 1 2 3 4 5 6 
#
# 1 0.012723 -0.006088 -0.001752 0.000000 0.000000 0.000000
# 2 -0.006088 0.023112 -0.013329 0.000000 0.000000 0.000000
# 3 -0.001752 -0.013329 0.029062 0.000000 0.000000 0.000000
# 4 0.000000 0.000000 0.000000 0.073663 0.000000 0.000000
# 5 0.000000 0.000000 0.000000 0.000000 0.086232 0.000000
# 6 0.000000 0.000000 0.000000 0.000000 0.000000 0.125465
#
#
# Mechanical properties :
#
#
# Convention : Reuss Voigt Hill
#
# Bulk Modulus (GPa) = 44.32441 48.57989 46.45215
# Shear Modulus (GPa) = 12.49636 15.08392 13.79014
#
# Velocity S-wave (km/s) = 2.81258 3.09008 2.95459
# Velocity P-wave (km/s) = 6.21339 6.59425 6.40665
#
# Compressibility (1/GPa) = 0.02256093
#
# Stress axis : x y z
#
# Youngs Moduli (GPa) = 78.59518 43.26675 34.40896
#
# Poissons Ratio (x) = 0.26339 0.06028
# Poissons Ratio (y) = 0.47846 0.45864
# Poissons Ratio (z) = 0.13769 0.57671
#
# Static dielectric constant tensor:
#      x y z
#    x 1.558340 0.000000 0.000000 
#    y 0.000000 1.530150 0.000000 
#    z 0.000000 0.000000 1.514920 
# 
# From -- ./inp_files/33590.got.cif
#   From: 2010.05.17/outbox.cif.g08.bks.cpg/sg64_17_cif.got.tgz:33590.got - 2010.06.03 16:29:19.
