data_PCOD9477770
_publ_section_title
;
Structure prediction by ZEFSAII (Michael W. Deem and Ramdas Pophale) SiO2 
 PCOD9477770
Probable space group: C M C A
;
_chemical_formula_sum "Si O2"
_cell_formula_units_Z 80
_cell_length_a 11.328890
_cell_length_b 23.982442
_cell_length_c 14.447885
_cell_angle_alpha 90.000000
_cell_angle_beta 90.000000
_cell_angle_gamma 90.000000
_cell_volume 3925.410130
_symmetry_space_group_name_H-M "C M C A"
_symmetry_group_IT_number 64
_symmetry_cell_setting 'orthorhombic'
loop_
_space_group_symop_operation_xyz
x,y,z
-x,1/2-y,1/2+z
x,-y,-z
-x,1/2+y,1/2-z
-x,-y,-z
x,1/2+y,1/2-z
-x,y,z
x,1/2-y,1/2+z
1/2+x,1/2+y,z
1/2-x,-y,1/2+z
1/2+x,1/2-y,-z
1/2-x,y,1/2-z
1/2-x,1/2-y,-z
1/2+x,y,1/2-z
1/2-x,1/2+y,z
1/2+x,-y,1/2+z
loop_
_atom_site_type_symbol
_atom_site_label
_atom_site_fract_x
_atom_site_fract_y
_atom_site_fract_z
Si Si1 0.365023 0.153556 0.979322
Si Si2 0.374221 0.984589 0.608925
Si Si3 0.869331 0.030958 0.599654
Si Si4 0.866282 0.262446 0.185597
Si Si5 0.192685 0.637958 0.348997
O O1 0.500000 0.157047 0.011266
O O2 0.353222 0.096226 0.921559
O O3 0.343006 0.204154 0.909296
O O4 0.284983 0.150354 0.069208
O O5 0.500000 0.006371 0.645975
O O6 0.372286 0.918093 0.620616
O O7 0.373214 0.000000 0.500000
O O8 0.249627 0.007989 0.645906
O O9 0.000000 0.021658 0.641745
O O10 0.874545 0.000000 0.500000
O O11 0.750000 0.271790 0.250000
O O12 0.871929 0.196455 0.166597
O O13 0.000000 0.279626 0.218822
O O14 0.250000 0.624669 0.250000
#
# Coordination Sequence:
#
# PCOD9477770 Si02
#       5
#    16  16  16  16  16
#     4  10  20  38  65  92 120 164 212 260 312 372
#     4  10  19  34  56  83 119 155 194 247 306 355
#     4   9  16  32  59  84 110 152 201 242 292 358
#     4  10  23  43  65  92 126 161 211 265 320 380
#     4  11  22  37  60  92 125 164 209 255 309 373
#
# _framework density 20.380037000000002
#
# number of rings (size 3 to 8) (size 9 to 14) (size 15 to 20)
#    0.000    2.000    4.000    1.200    0.000    4.000 
#    0.000    4.000    0.000    2.400    0.000    0.000 
#    0.000    0.000    0.000    0.000    0.000    0.000 
#
# Total GULP energy -222854.845027 kJ/mol
# GULP energy per Si atom -5571.371126 kJ/mol
# Density = 2.033365 g / cm^3
# Si number density = 20.380037 Si / 1000 Ang^3
#
#
#
# Elastic Constant Matrix: (Units=GPa)
#
#
# Indices 1 2 3 4 5 6 
#
# 1 215.9449 16.7828 63.6611 0.0000 0.0000 0.0000
# 2 16.7828 71.6429 33.1600 0.0000 0.0000 0.0000
# 3 63.6611 33.1600 91.1075 0.0000 0.0000 0.0000
# 4 0.0000 0.0000 0.0000 47.6545 0.0000 0.0000
# 5 0.0000 0.0000 0.0000 0.0000 -20.8602 0.0000
# 6 0.0000 0.0000 0.0000 0.0000 0.0000 -76.3568
#
#
#
# Elastic Compliance Matrix: (Units=1/GPa)
#
#
# Indices 1 2 3 4 5 6 
#
# 1 0.005856 0.000628 -0.004320 0.000000 0.000000 0.000000
# 2 0.000628 0.016853 -0.006573 0.000000 0.000000 0.000000
# 3 -0.004320 -0.006573 0.016387 0.000000 0.000000 0.000000
# 4 0.000000 0.000000 0.000000 0.020984 0.000000 0.000000
# 5 0.000000 0.000000 0.000000 0.000000 -0.047938 0.000000
# 6 0.000000 0.000000 0.000000 0.000000 0.000000 -0.013096
#
#
# Mechanical properties :
#
#
# Convention : Reuss Voigt Hill
#
# Bulk Modulus (GPa) = 53.86229 67.32257 60.59243
# Shear Modulus (GPa) = 194.06878 7.76026 100.91452
#
# Velocity S-wave (km/s) = 9.76891 1.95347 7.04442
# Velocity P-wave (km/s) = 12.39873 6.18008 9.79597
#
# Compressibility (1/GPa) = 0.01856586
#
# Stress axis : x y z
#
# Youngs Moduli (GPa) = 170.77704 59.33581 61.02429
#
# Poissons Ratio (x) = -0.03725 0.26363
# Poissons Ratio (y) = -0.10722 0.40109
# Poissons Ratio (z) = 0.73777 0.39000
#
# Static dielectric constant tensor:
#      x y z
#    x 1.816660 0.000000 0.000000 
#    y 0.000000 1.718070 0.000000 
#    z 0.000000 0.000000 1.668790 
# 
# From -- ./inp_files/22335.got.cif
#   From: 2010.05.17/outbox.cif.g08.bks.cpg/sg64_12_cif.got.tgz:22335.got - 2010.06.03 16:29:19.
