data_PCOD9477636
_publ_section_title
;
Structure prediction by ZEFSAII (Michael W. Deem and Ramdas Pophale) SiO2 
 PCOD9477636
Probable space group: C M C A
;
_chemical_formula_sum "Si O2"
_cell_formula_units_Z 88
_cell_length_a 11.945412
_cell_length_b 24.464107
_cell_length_c 14.705788
_cell_angle_alpha 90.000000
_cell_angle_beta 90.000000
_cell_angle_gamma 90.000000
_cell_volume 4297.528858
_symmetry_space_group_name_H-M "C M C A"
_symmetry_group_IT_number 64
_symmetry_cell_setting 'orthorhombic'
loop_
_space_group_symop_operation_xyz
x,y,z
-x,1/2-y,1/2+z
x,-y,-z
-x,1/2+y,1/2-z
-x,-y,-z
x,1/2+y,1/2-z
-x,y,z
x,1/2-y,1/2+z
1/2+x,1/2+y,z
1/2-x,-y,1/2+z
1/2+x,1/2-y,-z
1/2-x,y,1/2-z
1/2-x,1/2-y,-z
1/2+x,y,1/2-z
1/2-x,1/2+y,z
1/2+x,-y,1/2+z
loop_
_atom_site_type_symbol
_atom_site_label
_atom_site_fract_x
_atom_site_fract_y
_atom_site_fract_z
Si Si1 0.368800 0.450107 0.429375
Si Si2 0.750000 0.927688 0.250000
Si Si3 0.784849 0.638703 0.470966
Si Si4 0.874764 0.671162 0.655750
Si Si5 0.128016 0.103122 0.215099
Si Si6 0.129604 0.207891 0.342873
O O1 0.359840 0.500000 0.500000
O O2 0.500000 0.436917 0.418488
O O3 0.314732 0.459783 0.329701
O O4 0.300556 0.401501 0.477181
O O5 0.828351 0.884195 0.198533
O O6 0.861752 0.664913 0.547655
O O7 0.855290 0.608135 0.392899
O O8 0.708862 0.682561 0.419158
O O9 0.829377 0.731218 0.678654
O O10 0.000000 0.673598 0.688505
O O11 0.250000 0.079415 0.250000
O O12 0.128130 0.163688 0.261042
O O13 0.000000 0.080827 0.235601
O O14 0.000000 0.211570 0.374494
#
# Coordination Sequence:
#
# PCOD9477636 Si02
#       6
#    16   8  16  16  16  16
#     4  10  22  43  67  90 119 159 209 267 325 382
#     4  10  22  38  64  88 118 152 204 252 312 378
#     4  10  19  33  56  82 114 153 201 252 304 366
#     4  10  20  33  53  80 116 155 192 240 297 365
#     4   9  18  32  52  77 118 162 202 250 301 363
#     4   9  18  32  49  80 120 159 199 238 294 363
#
# _framework density 20.476883999999998
#
# number of rings (size 3 to 8) (size 9 to 14) (size 15 to 20)
#    0.000    2.364    0.000    2.182    3.818    0.727 
#    4.909    0.000    0.000   18.545    0.000    0.000 
#    0.000    0.000    0.000    0.000    0.000    0.000 
#
# Total GULP energy -244989.264196 kJ/mol
# GULP energy per Si atom -5567.937823 kJ/mol
# Density = 2.043028 g / cm^3
# Si number density = 20.476884 Si / 1000 Ang^3
#
#
#
# Elastic Constant Matrix: (Units=GPa)
#
#
# Indices 1 2 3 4 5 6 
#
# 1 84.3382 24.9171 24.4310 0.0000 0.0000 0.0000
# 2 24.9171 48.5132 13.6036 0.0000 0.0000 0.0000
# 3 24.4310 13.6036 104.4011 0.0000 0.0000 0.0000
# 4 0.0000 0.0000 0.0000 6.1449 0.0000 0.0000
# 5 0.0000 0.0000 0.0000 0.0000 16.8277 0.0000
# 6 0.0000 0.0000 0.0000 0.0000 0.0000 22.8699
#
#
#
# Elastic Compliance Matrix: (Units=1/GPa)
#
#
# Indices 1 2 3 4 5 6 
#
# 1 0.014595 -0.006787 -0.002531 0.000000 0.000000 0.000000
# 2 -0.006787 0.024550 -0.001611 0.000000 0.000000 0.000000
# 3 -0.002531 -0.001611 0.010381 0.000000 0.000000 0.000000
# 4 0.000000 0.000000 0.000000 0.162737 0.000000 0.000000
# 5 0.000000 0.000000 0.000000 0.000000 0.059426 0.000000
# 6 0.000000 0.000000 0.000000 0.000000 0.000000 0.043726
#
#
# Mechanical properties :
#
#
# Convention : Reuss Voigt Hill
#
# Bulk Modulus (GPa) = 36.14129 40.35065 38.24597
# Shear Modulus (GPa) = 14.43024 20.78855 17.60940
#
# Velocity S-wave (km/s) = 2.65752 3.18971 2.93570
# Velocity P-wave (km/s) = 5.20621 5.77182 5.49630
#
# Compressibility (1/GPa) = 0.02766918
#
# Stress axis : x y z
#
# Youngs Moduli (GPa) = 68.51526 40.73262 96.33306
#
# Poissons Ratio (x) = 0.27644 0.24383
# Poissons Ratio (y) = 0.46499 0.15517
# Poissons Ratio (z) = 0.17342 0.06561
#
# Static dielectric constant tensor:
#      x y z
#    x 1.680470 0.000000 0.000000 
#    y 0.000000 1.745160 0.000000 
#    z 0.000000 0.000000 1.766050 
# 
# From -- ./inp_files/22609.got.cif
#   From: 2010.05.17/outbox.cif.g08.bks.cpg/sg64_12_cif.got.tgz:22609.got - 2010.06.03 16:29:19.
