data_PCOD9477762
_publ_section_title
;
Structure prediction by ZEFSAII (Michael W. Deem and Ramdas Pophale) SiO2 
 PCOD9477762
Probable space group: C M C A
;
_chemical_formula_sum "Si O2"
_cell_formula_units_Z 88
_cell_length_a 8.925590
_cell_length_b 18.152196
_cell_length_c 26.809989
_cell_angle_alpha 90.000000
_cell_angle_beta 90.000000
_cell_angle_gamma 90.000000
_cell_volume 4343.729192
_symmetry_space_group_name_H-M "C M C A"
_symmetry_group_IT_number 64
_symmetry_cell_setting 'orthorhombic'
loop_
_space_group_symop_operation_xyz
x,y,z
-x,1/2-y,1/2+z
x,-y,-z
-x,1/2+y,1/2-z
-x,-y,-z
x,1/2+y,1/2-z
-x,y,z
x,1/2-y,1/2+z
1/2+x,1/2+y,z
1/2-x,-y,1/2+z
1/2+x,1/2-y,-z
1/2-x,y,1/2-z
1/2-x,1/2-y,-z
1/2+x,y,1/2-z
1/2-x,1/2+y,z
1/2+x,-y,1/2+z
loop_
_atom_site_type_symbol
_atom_site_label
_atom_site_fract_x
_atom_site_fract_y
_atom_site_fract_z
Si Si1 0.676227 0.924010 0.409012
Si Si2 0.750000 0.968188 0.250000
Si Si3 0.320786 0.788628 0.047927
Si Si4 0.326021 0.437376 0.847052
Si Si5 0.821660 0.718006 0.148075
Si Si6 0.165348 0.153060 0.680418
O O1 0.500000 0.919778 0.420331
O O2 0.769287 0.874656 0.447818
O O3 0.715273 0.882632 0.357358
O O4 0.713502 0.007779 0.393257
O O5 0.852018 0.907493 0.277147
O O6 0.688333 0.018957 0.294500
O O7 0.500000 0.782977 0.046914
O O8 0.250131 0.746879 0.095979
O O9 0.250000 0.750000 0.000000
O O10 0.500000 0.415716 0.853227
O O11 0.220570 0.366944 0.845996
O O12 0.736771 0.767370 0.189756
O O13 0.000000 0.729058 0.148815
O O14 0.000000 0.162569 0.657356
#
# Coordination Sequence:
#
# PCOD9477762 Si02
#       6
#    16   8  16  16  16  16
#     4   9  18  34  56  82 113 147 183 226 279 334
#     4  10  22  36  58  84 110 146 194 238 278 334
#     4  11  21  37  62  88 115 147 188 233 278 336
#     4  10  21  38  58  82 116 153 189 234 288 339
#     4  11  23  38  57  83 115 149 186 232 284 335
#     4  10  19  34  56  79 106 143 187 230 275 328
#
# _framework density 20.25909
#
# number of rings (size 3 to 8) (size 9 to 14) (size 15 to 20)
#    0.000    1.818    0.000    7.091    0.000    7.273 
#    0.000    0.909    0.000    5.455    0.000    0.000 
#    0.000    0.000    0.000    0.000    0.000    0.000 
#
# Total GULP energy -245000.878926 kJ/mol
# GULP energy per Si atom -5568.201794 kJ/mol
# Density = 2.021298 g / cm^3
# Si number density = 20.259090 Si / 1000 Ang^3
#
#
#
# Elastic Constant Matrix: (Units=GPa)
#
#
# Indices 1 2 3 4 5 6 
#
# 1 112.6258 46.5867 15.0875 0.0000 0.0000 0.0000
# 2 46.5867 104.6380 8.6205 0.0000 0.0000 0.0000
# 3 15.0875 8.6205 50.3237 0.0000 0.0000 0.0000
# 4 0.0000 0.0000 0.0000 19.2331 0.0000 0.0000
# 5 0.0000 0.0000 0.0000 0.0000 4.0515 0.0000
# 6 0.0000 0.0000 0.0000 0.0000 0.0000 83.3321
#
#
#
# Elastic Compliance Matrix: (Units=1/GPa)
#
#
# Indices 1 2 3 4 5 6 
#
# 1 0.011194 -0.004775 -0.002538 0.000000 0.000000 0.000000
# 2 -0.004775 0.011730 -0.000578 0.000000 0.000000 0.000000
# 3 -0.002538 -0.000578 0.020731 0.000000 0.000000 0.000000
# 4 0.000000 0.000000 0.000000 0.051994 0.000000 0.000000
# 5 0.000000 0.000000 0.000000 0.000000 0.246824 0.000000
# 6 0.000000 0.000000 0.000000 0.000000 0.000000 0.012000
#
#
# Mechanical properties :
#
#
# Convention : Reuss Voigt Hill
#
# Bulk Modulus (GPa) = 35.87572 45.35300 40.61436
# Shear Modulus (GPa) = 13.17362 34.47618 23.82490
#
# Velocity S-wave (km/s) = 2.55278 4.12972 3.43302
# Velocity P-wave (km/s) = 5.14158 6.72120 5.98374
#
# Compressibility (1/GPa) = 0.02787400
#
# Stress axis : x y z
#
# Youngs Moduli (GPa) = 89.33384 85.25059 48.23619
#
# Poissons Ratio (x) = 0.40704 0.12243
# Poissons Ratio (y) = 0.42654 0.02788
# Poissons Ratio (z) = 0.22674 0.04927
#
# Static dielectric constant tensor:
#      x y z
#    x 1.662320 0.000000 0.000000 
#    y 0.000000 1.774530 0.000000 
#    z 0.000000 0.000000 1.777210 
# 
# From -- ./inp_files/51807.got.cif
#   From: 2010.05.17/outbox.cif.g08.bks.cpg/sg64_26_cif.got.tgz:51807.got - 2010.06.03 16:29:19.
