data_PCOD9477687
_publ_section_title
;
Structure prediction by ZEFSAII (Michael W. Deem and Ramdas Pophale) SiO2 
 PCOD9477687
Probable space group: C M C A
;
_chemical_formula_sum "Si O2"
_cell_formula_units_Z 120
_cell_length_a 9.696031
_cell_length_b 25.051578
_cell_length_c 24.364426
_cell_angle_alpha 90.000000
_cell_angle_beta 90.000000
_cell_angle_gamma 90.000000
_cell_volume 5918.140440
_symmetry_space_group_name_H-M "C M C A"
_symmetry_group_IT_number 64
_symmetry_cell_setting 'orthorhombic'
loop_
_space_group_symop_operation_xyz
x,y,z
-x,1/2-y,1/2+z
x,-y,-z
-x,1/2+y,1/2-z
-x,-y,-z
x,1/2+y,1/2-z
-x,y,z
x,1/2-y,1/2+z
1/2+x,1/2+y,z
1/2-x,-y,1/2+z
1/2+x,1/2-y,-z
1/2-x,y,1/2-z
1/2-x,1/2-y,-z
1/2+x,y,1/2-z
1/2-x,1/2+y,z
1/2+x,-y,1/2+z
loop_
_atom_site_type_symbol
_atom_site_label
_atom_site_fract_x
_atom_site_fract_y
_atom_site_fract_z
Si Si1 0.343662 0.877876 0.093371
Si Si2 0.000000 0.721808 0.243984
Si Si3 0.340642 0.063365 0.509329
Si Si4 0.758570 0.206773 0.164748
Si Si5 0.342071 0.510312 0.198856
Si Si6 0.655289 0.761111 0.051636
Si Si7 0.834327 0.097150 0.112546
Si Si8 0.661222 0.381439 0.197186
O O1 0.500000 0.893709 0.110222
O O2 0.263992 0.921020 0.057020
O O3 0.353576 0.824535 0.058104
O O4 0.247049 0.863784 0.144744
O O5 0.881086 0.717688 0.292569
O O6 0.879791 0.721694 0.196115
O O7 0.500000 0.078091 0.523671
O O8 0.301931 0.091724 0.451814
O O9 0.339219 0.000000 0.500000
O O10 0.784542 0.237987 0.108072
O O11 0.762538 0.144633 0.145617
O O12 0.500000 0.524406 0.211214
O O13 0.250000 0.527291 0.250000
O O14 0.303478 0.541517 0.143733
O O15 0.335329 0.446311 0.194069
O O16 0.500000 0.739116 0.044383
O O17 0.750000 0.750000 0.000000
O O18 0.000000 0.105668 0.115747
O O19 0.500000 0.364833 0.200019
O O20 0.750000 0.364503 0.250000
#
# Coordination Sequence:
#
# PCOD9477687 Si02
#       8
#    16   8  16  16  16  16  16  16
#     4  11  24  41  62  90 123 156 199 251 308 365
#     4  10  24  40  66  88 128 164 210 266 326 388
#     4  10  21  40  64  90 121 165 213 259 311 377
#     4  11  22  43  62  93 126 169 207 266 325 389
#     4   9  19  32  53  82 116 152 196 241 293 353
#     4  11  25  45  67  94 127 164 212 264 316 383
#     4  10  19  33  59  87 118 158 205 252 308 374
#     4  10  20  39  60  86 119 157 199 248 296 361
#
# _framework density 20.27664
#
# number of rings (size 3 to 8) (size 9 to 14) (size 15 to 20)
#    0.000    1.733    1.333    2.400    2.800    5.067 
#    3.600    0.000    0.000    0.000    0.000    0.000 
#    0.000    0.000    0.000    0.000    0.000    0.000 
#
# Total GULP energy -334135.905026 kJ/mol
# GULP energy per Si atom -5568.931750 kJ/mol
# Density = 2.023049 g / cm^3
# Si number density = 20.276640 Si / 1000 Ang^3
#
#
#
# Elastic Constant Matrix: (Units=GPa)
#
#
# Indices 1 2 3 4 5 6 
#
# 1 177.8039 21.2192 91.7185 0.0000 0.0000 0.0000
# 2 21.2192 21.7148 14.4694 0.0000 0.0000 0.0000
# 3 91.7185 14.4694 140.4324 0.0000 0.0000 0.0000
# 4 0.0000 0.0000 0.0000 13.1270 0.0000 0.0000
# 5 0.0000 0.0000 0.0000 0.0000 34.6660 0.0000
# 6 0.0000 0.0000 0.0000 0.0000 0.0000 4.0028
#
#
#
# Elastic Compliance Matrix: (Units=1/GPa)
#
#
# Indices 1 2 3 4 5 6 
#
# 1 0.009005 -0.005240 -0.005341 0.000000 0.000000 0.000000
# 2 -0.005240 0.052496 -0.001986 0.000000 0.000000 0.000000
# 3 -0.005341 -0.001986 0.010814 0.000000 0.000000 0.000000
# 4 0.000000 0.000000 0.000000 0.076179 0.000000 0.000000
# 5 0.000000 0.000000 0.000000 0.000000 0.028847 0.000000
# 6 0.000000 0.000000 0.000000 0.000000 0.000000 0.249825
#
#
# Mechanical properties :
#
#
# Convention : Reuss Voigt Hill
#
# Bulk Modulus (GPa) = 21.19599 66.08503 43.64051
# Shear Modulus (GPa) = 10.68315 24.52878 17.60596
#
# Velocity S-wave (km/s) = 2.29785 3.48186 2.94987
# Velocity P-wave (km/s) = 4.18525 6.98762 5.75948
#
# Compressibility (1/GPa) = 0.04717873
#
# Stress axis : x y z
#
# Youngs Moduli (GPa) = 111.05237 19.04919 92.47303
#
# Poissons Ratio (x) = 0.09982 0.49392
# Poissons Ratio (y) = 0.58194 0.18369
# Poissons Ratio (z) = 0.59316 0.03784
#
# Static dielectric constant tensor:
#      x y z
#    x 1.707900 0.000000 0.000000 
#    y 0.000000 1.333500 0.000000 
#    z 0.000000 0.000000 22.629560 
# 
# From -- ./inp_files/43353.got.cif
#   From: 2010.05.17/outbox.cif.g08.bks.cpg/sg64_22_cif.got.tgz:43353.got - 2010.06.03 16:29:19.
