data_PCOD9477732
_publ_section_title
;
Structure prediction by ZEFSAII (Michael W. Deem and Ramdas Pophale) SiO2 
 PCOD9477732
Probable space group: C M C A
;
_chemical_formula_sum "Si O2"
_cell_formula_units_Z 116
_cell_length_a 14.935928
_cell_length_b 22.128709
_cell_length_c 18.573055
_cell_angle_alpha 90.000000
_cell_angle_beta 90.000000
_cell_angle_gamma 90.000000
_cell_volume 6138.632494
_symmetry_space_group_name_H-M "C M C A"
_symmetry_group_IT_number 64
_symmetry_cell_setting 'orthorhombic'
loop_
_space_group_symop_operation_xyz
x,y,z
-x,1/2-y,1/2+z
x,-y,-z
-x,1/2+y,1/2-z
-x,-y,-z
x,1/2+y,1/2-z
-x,y,z
x,1/2-y,1/2+z
1/2+x,1/2+y,z
1/2-x,-y,1/2+z
1/2+x,1/2-y,-z
1/2-x,y,1/2-z
1/2-x,1/2-y,-z
1/2+x,y,1/2-z
1/2-x,1/2+y,z
1/2+x,-y,1/2+z
loop_
_atom_site_type_symbol
_atom_site_label
_atom_site_fract_x
_atom_site_fract_y
_atom_site_fract_z
Si Si1 0.724280 0.301687 0.323661
Si Si2 0.500000 0.000000 0.500000
Si Si3 0.393609 0.223861 0.954534
Si Si4 0.897264 0.321778 0.422289
Si Si5 0.602712 0.085364 0.767798
Si Si6 0.397336 0.903119 0.982054
Si Si7 0.864423 0.952079 0.102253
Si Si8 0.339886 0.990495 0.106458
O O1 0.750000 0.268388 0.250000
O O2 0.660263 0.269556 0.380823
O O3 0.817985 0.313407 0.364627
O O4 0.670321 0.362365 0.296980
O O5 0.577105 0.002139 0.436138
O O6 0.500000 0.217127 0.940353
O O7 0.381443 0.277859 0.010687
O O8 0.361006 0.161464 0.992352
O O9 0.890318 0.391970 0.442819
O O10 0.000000 0.310910 0.395945
O O11 0.500000 0.105144 0.779412
O O12 0.613582 0.066767 0.684525
O O13 0.623984 0.026479 0.815488
O O14 0.500000 0.893964 0.960101
O O15 0.349613 0.940901 0.919536
O O16 0.393439 0.947370 0.051055
O O17 0.761567 0.969061 0.099321
#
# Coordination Sequence:
#
# PCOD9477732 Si02
#       8
#    16   4  16  16  16  16  16  16
#     4  12  22  35  60  93 127 154 202 271 320 369
#     4  12  24  40  60  84 134 166 208 254 316 372
#     4  10  22  39  63  90 129 166 208 262 314 382
#     4  11  22  40  61  91 126 165 216 257 315 386
#     4  12  21  36  60  93 126 159 209 268 327 367
#     4  10  19  34  54  89 121 161 205 252 323 370
#     4  12  23  39  58  92 122 166 209 261 315 376
#     4  11  20  33  58  88 124 160 201 264 318 378
#
# _framework density 18.896716000000001
#
# number of rings (size 3 to 8) (size 9 to 14) (size 15 to 20)
#    0.000    0.828    5.517    3.724    0.000    0.552 
#    0.000    0.000    0.000    3.310    3.586    0.000 
#    0.000    0.000    0.000    0.000    0.000    0.000 
#
# Total GULP energy -323136.288505 kJ/mol
# GULP energy per Si atom -5571.315319 kJ/mol
# Density = 1.885371 g / cm^3
# Si number density = 18.896716 Si / 1000 Ang^3
#
#
#
# Elastic Constant Matrix: (Units=GPa)
#
#
# Indices 1 2 3 4 5 6 
#
# 1 134.8172 17.1290 54.2075 0.0000 0.0000 0.0000
# 2 17.1290 54.0743 44.2529 0.0000 0.0000 0.0000
# 3 54.2075 44.2529 118.5458 0.0000 0.0000 0.0000
# 4 0.0000 0.0000 0.0000 25.2610 0.0000 0.0000
# 5 0.0000 0.0000 0.0000 0.0000 35.0478 0.0000
# 6 0.0000 0.0000 0.0000 0.0000 0.0000 23.8502
#
#
#
# Elastic Compliance Matrix: (Units=1/GPa)
#
#
# Indices 1 2 3 4 5 6 
#
# 1 0.009110 0.000754 -0.004447 0.000000 0.000000 0.000000
# 2 0.000754 0.026690 -0.010308 0.000000 0.000000 0.000000
# 3 -0.004447 -0.010308 0.014317 0.000000 0.000000 0.000000
# 4 0.000000 0.000000 0.000000 0.039587 0.000000 0.000000
# 5 0.000000 0.000000 0.000000 0.000000 0.028532 0.000000
# 6 0.000000 0.000000 0.000000 0.000000 0.000000 0.041928
#
#
# Mechanical properties :
#
#
# Convention : Reuss Voigt Hill
#
# Bulk Modulus (GPa) = 45.21985 59.84625 52.53305
# Shear Modulus (GPa) = 25.57045 29.62167 27.59606
#
# Velocity S-wave (km/s) = 3.68254 3.96353 3.82562
# Velocity P-wave (km/s) = 6.48563 7.25845 6.88289
#
# Compressibility (1/GPa) = 0.02211418
#
# Stress axis : x y z
#
# Youngs Moduli (GPa) = 109.77271 37.46706 69.84738
#
# Poissons Ratio (x) = -0.02823 0.31061
# Poissons Ratio (y) = -0.08272 0.71998
# Poissons Ratio (z) = 0.48815 0.38621
#
# Static dielectric constant tensor:
#      x y z
#    x 1.698390 0.000000 0.000000 
#    y 0.000000 1.689950 0.000000 
#    z 0.000000 0.000000 1.679690 
# 
# From -- ./inp_files/32511.got.cif
#   From: 2010.05.17/outbox.cif.g08.bks.cpg/sg64_17_cif.got.tgz:32511.got - 2010.06.03 16:29:19.
