data_PCOD9477561
_publ_section_title
;
Structure prediction by ZEFSAII (Michael W. Deem and Ramdas Pophale) SiO2 
 PCOD9477561
Probable space group: C M C A
;
_chemical_formula_sum "Si O2"
_cell_formula_units_Z 96
_cell_length_a 8.566029
_cell_length_b 30.629433
_cell_length_c 21.098649
_cell_angle_alpha 90.000000
_cell_angle_beta 90.000000
_cell_angle_gamma 90.000000
_cell_volume 5535.707634
_symmetry_space_group_name_H-M "C M C A"
_symmetry_group_IT_number 64
_symmetry_cell_setting 'orthorhombic'
loop_
_space_group_symop_operation_xyz
x,y,z
-x,1/2-y,1/2+z
x,-y,-z
-x,1/2+y,1/2-z
-x,-y,-z
x,1/2+y,1/2-z
-x,y,z
x,1/2-y,1/2+z
1/2+x,1/2+y,z
1/2-x,-y,1/2+z
1/2+x,1/2-y,-z
1/2-x,y,1/2-z
1/2-x,1/2-y,-z
1/2+x,y,1/2-z
1/2-x,1/2+y,z
1/2+x,-y,1/2+z
loop_
_atom_site_type_symbol
_atom_site_label
_atom_site_fract_x
_atom_site_fract_y
_atom_site_fract_z
Si Si1 0.312489 0.498003 0.684564
Si Si2 0.817268 0.097605 0.342114
Si Si3 0.188416 0.305527 0.816531
Si Si4 0.317860 0.118636 0.011154
Si Si5 0.814040 0.712487 0.454136
Si Si6 0.813215 0.465067 0.446053
O O1 0.500000 0.496898 0.684973
O O2 0.250000 0.517575 0.750000
O O3 0.248451 0.448009 0.680514
O O4 0.256761 0.521885 0.621449
O O5 0.750966 0.143979 0.319897
O O6 0.809584 0.098586 0.418084
O O7 0.000000 0.097927 0.323800
O O8 0.250000 0.286701 0.750000
O O9 0.245728 0.284592 0.882495
O O10 0.000000 0.305590 0.817091
O O11 0.500000 0.124433 0.995181
O O12 0.237980 0.165718 0.017202
O O13 0.239369 0.083273 0.966013
O O14 0.750000 0.750000 0.500000
O O15 0.000000 0.714578 0.450578
O O16 0.760628 0.500000 0.500000
O O17 0.000000 0.467233 0.443032
#
# Coordination Sequence:
#
# PCOD9477561 Si02
#       6
#    16  16  16  16  16  16
#     4  11  21  34  50  73 106 148 189 233 280 327
#     4   8  16  29  48  74 106 142 179 217 267 325
#     4  10  19  33  52  80 113 149 184 224 275 336
#     4  10  19  35  57  82 109 143 184 229 278 330
#     4  11  22  38  59  85 114 147 185 232 282 335
#     4  11  22  35  53  80 110 145 189 231 271 325
#
# _framework density 17.341956
#
# number of rings (size 3 to 8) (size 9 to 14) (size 15 to 20)
#    0.000    1.833    1.667    5.000    0.000    0.667 
#    0.000    1.667    0.000    1.000    0.000    7.000 
#    0.000    0.000    0.000    0.000    0.000    0.000 
#
# Total GULP energy -267808.605836 kJ/mol
# GULP energy per Si atom -5579.345955 kJ/mol
# Density = 1.730248 g / cm^3
# Si number density = 17.341956 Si / 1000 Ang^3
#
#
#
# Elastic Constant Matrix: (Units=GPa)
#
#
# Indices 1 2 3 4 5 6 
#
# 1 91.6669 34.3968 56.9582 0.0000 0.0000 0.0000
# 2 34.3968 79.0091 65.4680 0.0000 0.0000 0.0000
# 3 56.9582 65.4680 150.0911 0.0000 0.0000 0.0000
# 4 0.0000 0.0000 0.0000 12.0454 0.0000 0.0000
# 5 0.0000 0.0000 0.0000 0.0000 28.8147 0.0000
# 6 0.0000 0.0000 0.0000 0.0000 0.0000 22.5870
#
#
#
# Elastic Compliance Matrix: (Units=1/GPa)
#
#
# Indices 1 2 3 4 5 6 
#
# 1 0.014653 -0.002774 -0.004351 0.000000 0.000000 0.000000
# 2 -0.002774 0.020346 -0.007822 0.000000 0.000000 0.000000
# 3 -0.004351 -0.007822 0.011725 0.000000 0.000000 0.000000
# 4 0.000000 0.000000 0.000000 0.083019 0.000000 0.000000
# 5 0.000000 0.000000 0.000000 0.000000 0.034705 0.000000
# 6 0.000000 0.000000 0.000000 0.000000 0.000000 0.044273
#
#
# Mechanical properties :
#
#
# Convention : Reuss Voigt Hill
#
# Bulk Modulus (GPa) = 59.41404 70.49034 64.95219
# Shear Modulus (GPa) = 20.47287 23.61903 22.04595
#
# Velocity S-wave (km/s) = 3.43963 3.69448 3.56933
# Velocity P-wave (km/s) = 7.07880 7.67687 7.38389
#
# Compressibility (1/GPa) = 0.01683104
#
# Stress axis : x y z
#
# Youngs Moduli (GPa) = 68.24326 49.15015 85.28466
#
# Poissons Ratio (x) = 0.13636 0.37105
# Poissons Ratio (y) = 0.18933 0.66708
# Poissons Ratio (z) = 0.29691 0.38444
#
# Static dielectric constant tensor:
#      x y z
#    x 1.586680 0.000000 0.000000 
#    y 0.000000 1.584320 0.000000 
#    z 0.000000 0.000000 1.599020 
# 
# From -- ./inp_files/37126.got.cif
#   From: 2010.05.17/outbox.cif.g08.bks.cpg/sg64_19_cif.got.tgz:37126.got - 2010.06.03 16:29:19.
