data_PCOD9477123
_publ_section_title
;
Structure prediction by ZEFSAII (Michael W. Deem and Ramdas Pophale) SiO2 
 PCOD9477123
Probable space group: C M C A
;
_chemical_formula_sum "Si O2"
_cell_formula_units_Z 96
_cell_length_a 25.935429
_cell_length_b 21.847517
_cell_length_c 8.714663
_cell_angle_alpha 90.000000
_cell_angle_beta 90.000000
_cell_angle_gamma 90.000000
_cell_volume 4937.943534
_symmetry_space_group_name_H-M "C M C A"
_symmetry_group_IT_number 64
_symmetry_cell_setting 'orthorhombic'
loop_
_space_group_symop_operation_xyz
x,y,z
-x,1/2-y,1/2+z
x,-y,-z
-x,1/2+y,1/2-z
-x,-y,-z
x,1/2+y,1/2-z
-x,y,z
x,1/2-y,1/2+z
1/2+x,1/2+y,z
1/2-x,-y,1/2+z
1/2+x,1/2-y,-z
1/2-x,y,1/2-z
1/2-x,1/2-y,-z
1/2+x,y,1/2-z
1/2-x,1/2+y,z
1/2+x,-y,1/2+z
loop_
_atom_site_type_symbol
_atom_site_label
_atom_site_fract_x
_atom_site_fract_y
_atom_site_fract_z
Si Si1 0.166243 0.937812 0.178283
Si Si2 0.599304 0.161560 0.306226
Si Si3 0.695798 0.423751 0.832427
Si Si4 0.629008 0.743793 0.441189
Si Si5 0.444370 0.428281 0.036885
Si Si6 0.193278 0.182659 0.690876
O O1 0.186538 0.890515 0.303063
O O2 0.173523 0.009291 0.214548
O O3 0.197014 0.925888 0.018429
O O4 0.106825 0.921229 0.139214
O O5 0.655635 0.129848 0.295214
O O6 0.600630 0.213976 0.435759
O O7 0.592367 0.195119 0.144514
O O8 0.563807 0.109155 0.378812
O O9 0.750000 0.414538 0.750000
O O10 0.675553 0.709930 0.529744
O O11 0.654140 0.787754 0.314138
O O12 0.500000 0.410939 0.104854
O O13 0.444978 0.500000 0.000000
O O14 0.250000 0.198432 0.750000
#
# Coordination Sequence:
#
# PCOD9477123 Si02
#       6
#    16  16  16  16  16  16
#     4  10  19  37  52  84 116 141 196 244 281 356
#     4  10  20  38  55  82 114 144 194 237 277 343
#     4  10  19  32  54  74 114 150 183 234 286 326
#     4  10  22  35  54  75 118 156 191 232 280 329
#     4  10  18  36  67  88 104 142 191 244 294 339
#     4  11  21  34  53  80 115 157 196 230 277 344
#
# _framework density 19.441292000000001
#
# number of rings (size 3 to 8) (size 9 to 14) (size 15 to 20)
#    0.000    1.833    6.667    1.000    2.333    2.667 
#    0.000    0.833    0.000    1.000    0.000    2.333 
#    0.000    0.000    0.000    0.000    0.000    0.000 
#
# Total GULP energy -267644.831291 kJ/mol
# GULP energy per Si atom -5575.933985 kJ/mol
# Density = 1.939704 g / cm^3
# Si number density = 19.441292 Si / 1000 Ang^3
#
#
#
# Elastic Constant Matrix: (Units=GPa)
#
#
# Indices 1 2 3 4 5 6 
#
# 1 84.0061 6.5779 13.8646 0.0000 0.0000 0.0000
# 2 6.5779 108.9427 38.3741 0.0000 0.0000 0.0000
# 3 13.8646 38.3741 47.2128 0.0000 0.0000 0.0000
# 4 0.0000 0.0000 0.0000 15.2808 0.0000 0.0000
# 5 0.0000 0.0000 0.0000 0.0000 11.2892 0.0000
# 6 0.0000 0.0000 0.0000 0.0000 0.0000 -21.1111
#
#
#
# Elastic Compliance Matrix: (Units=1/GPa)
#
#
# Indices 1 2 3 4 5 6 
#
# 1 0.012555 0.000757 -0.004302 0.000000 0.000000 0.000000
# 2 0.000757 0.012907 -0.010713 0.000000 0.000000 0.000000
# 3 -0.004302 -0.010713 0.031152 0.000000 0.000000 0.000000
# 4 0.000000 0.000000 0.000000 0.065442 0.000000 0.000000
# 5 0.000000 0.000000 0.000000 0.000000 0.088580 0.000000
# 6 0.000000 0.000000 0.000000 0.000000 0.000000 -0.047369
#
#
# Mechanical properties :
#
#
# Convention : Reuss Voigt Hill
#
# Bulk Modulus (GPa) = 35.59089 39.75497 37.67293
# Shear Modulus (GPa) = 24.85725 13.18146 19.01936
#
# Velocity S-wave (km/s) = 3.57960 2.60669 3.13117
# Velocity P-wave (km/s) = 5.95242 5.43626 5.70019
#
# Compressibility (1/GPa) = 0.02809708
#
# Stress axis : x y z
#
# Youngs Moduli (GPa) = 79.65159 77.47732 32.10101
#
# Poissons Ratio (x) = -0.05869 0.13811
# Poissons Ratio (y) = -0.06033 0.34390
# Poissons Ratio (z) = 0.34270 0.83002
#
# Static dielectric constant tensor:
#      x y z
#    x 1.709040 0.000000 0.000000 
#    y 0.000000 1.716800 0.000000 
#    z 0.000000 0.000000 1.687430 
# 
# From -- ./inp_files/10540.got.cif
#   From: 2010.05.17/outbox.cif.g08.bks.cpg/sg64_6_cif.got.tgz:10540.got - 2010.06.03 16:29:19.
