data_PCOD9477283
_publ_section_title
;
Structure prediction by ZEFSAII (Michael W. Deem and Ramdas Pophale) SiO2 
 PCOD9477283
Probable space group: C M C A
;
_chemical_formula_sum "Si O2"
_cell_formula_units_Z 64
_cell_length_a 14.307707
_cell_length_b 35.235748
_cell_length_c 5.030301
_cell_angle_alpha 90.000000
_cell_angle_beta 90.000000
_cell_angle_gamma 90.000000
_cell_volume 2535.989821
_symmetry_space_group_name_H-M "C M C A"
_symmetry_group_IT_number 64
_symmetry_cell_setting 'orthorhombic'
loop_
_space_group_symop_operation_xyz
x,y,z
-x,1/2-y,1/2+z
x,-y,-z
-x,1/2+y,1/2-z
-x,-y,-z
x,1/2+y,1/2-z
-x,y,z
x,1/2-y,1/2+z
1/2+x,1/2+y,z
1/2-x,-y,1/2+z
1/2+x,1/2-y,-z
1/2-x,y,1/2-z
1/2-x,1/2-y,-z
1/2+x,y,1/2-z
1/2-x,1/2+y,z
1/2+x,-y,1/2+z
loop_
_atom_site_type_symbol
_atom_site_label
_atom_site_fract_x
_atom_site_fract_y
_atom_site_fract_z
Si Si1 0.108201 0.025265 0.261426
Si Si2 0.853065 0.265417 0.863418
Si Si3 0.390724 0.657397 0.656514
Si Si4 0.109790 0.891977 0.864001
O O1 0.000000 0.033694 0.348893
O O2 0.151101 0.000000 0.500000
O O3 0.148480 0.065716 0.169307
O O4 0.105143 0.000000 0.000000
O O5 0.898313 0.264315 0.569903
O O6 0.750000 0.256219 0.750000
O O7 0.850979 0.304681 0.022004
O O8 0.500000 0.666224 0.704907
O O9 0.349436 0.637748 0.920912
O O10 0.385880 0.626397 0.424513
O O11 0.000000 0.896121 0.944506
#
# Coordination Sequence:
#
# PCOD9477283 Si02
#       4
#    16  16  16  16
#     4   9  15  23  37  58  88 127 163 192 228 276
#     4  10  21  36  52  70  93 122 158 203 253 304
#     4  10  19  31  48  69  95 126 159 201 251 299
#     4   9  17  28  42  65  96 127 161 200 241 284
#
# _framework density 25.236692999999999
#
# number of rings (size 3 to 8) (size 9 to 14) (size 15 to 20)
#    0.000    2.500    0.000    3.000    0.000    7.000 
#    0.000    0.000    0.000    0.000    0.000    0.000 
#    0.000    6.000    0.000    0.500    0.000    0.250 
#
# Total GULP energy -178587.187037 kJ/mol
# GULP energy per Si atom -5580.849595 kJ/mol
# Density = 2.517925 g / cm^3
# Si number density = 25.236693 Si / 1000 Ang^3
#
#
#
# Elastic Constant Matrix: (Units=GPa)
#
#
# Indices 1 2 3 4 5 6 
#
# 1 80.1014 21.6674 10.9339 0.0000 0.0000 0.0000
# 2 21.6674 167.4889 45.6277 0.0000 0.0000 0.0000
# 3 10.9339 45.6277 170.3547 0.0000 0.0000 0.0000
# 4 0.0000 0.0000 0.0000 41.4128 0.0000 0.0000
# 5 0.0000 0.0000 0.0000 0.0000 3.4383 0.0000
# 6 0.0000 0.0000 0.0000 0.0000 0.0000 5.7624
#
#
#
# Elastic Compliance Matrix: (Units=1/GPa)
#
#
# Indices 1 2 3 4 5 6 
#
# 1 0.012964 -0.001565 -0.000413 0.000000 0.000000 0.000000
# 2 -0.001565 0.006629 -0.001675 0.000000 0.000000 0.000000
# 3 -0.000413 -0.001675 0.006345 0.000000 0.000000 0.000000
# 4 0.000000 0.000000 0.000000 0.024147 0.000000 0.000000
# 5 0.000000 0.000000 0.000000 0.000000 0.290839 0.000000
# 6 0.000000 0.000000 0.000000 0.000000 0.000000 0.173540
#
#
# Mechanical properties :
#
#
# Convention : Reuss Voigt Hill
#
# Bulk Modulus (GPa) = 53.66854 63.82254 58.74554
# Shear Modulus (GPa) = 9.47003 32.77044 21.12024
#
# Velocity S-wave (km/s) = 1.93924 3.60741 2.89604
# Velocity P-wave (km/s) = 5.13093 6.53420 5.87461
#
# Compressibility (1/GPa) = 0.01863289
#
# Stress axis : x y z
#
# Youngs Moduli (GPa) = 77.13808 150.84556 157.59727
#
# Poissons Ratio (x) = 0.23601 0.06509
# Poissons Ratio (y) = 0.12069 0.26400
# Poissons Ratio (z) = 0.03186 0.25269
#
# Static dielectric constant tensor:
#      x y z
#    x 2.336790 0.000000 0.000000 
#    y 0.000000 2.015930 0.000000 
#    z 0.000000 0.000000 2.137880 
# 
# From -- ./inp_files/1786.got.cif
#   From: 2010.05.17/outbox.cif.g08.bks.cpg/sg64_1_cif.got.tgz:1786.got - 2010.06.03 16:29:19.
