data_PCOD9477295
_publ_section_title
;
Structure prediction by ZEFSAII (Michael W. Deem and Ramdas Pophale) SiO2 
 PCOD9477295
Probable space group: C M C A
;
_chemical_formula_sum "Si O2"
_cell_formula_units_Z 80
_cell_length_a 8.573148
_cell_length_b 28.120196
_cell_length_c 18.764458
_cell_angle_alpha 90.000000
_cell_angle_beta 90.000000
_cell_angle_gamma 90.000000
_cell_volume 4523.709304
_symmetry_space_group_name_H-M "C M C A"
_symmetry_group_IT_number 64
_symmetry_cell_setting 'orthorhombic'
loop_
_space_group_symop_operation_xyz
x,y,z
-x,1/2-y,1/2+z
x,-y,-z
-x,1/2+y,1/2-z
-x,-y,-z
x,1/2+y,1/2-z
-x,y,z
x,1/2-y,1/2+z
1/2+x,1/2+y,z
1/2-x,-y,1/2+z
1/2+x,1/2-y,-z
1/2-x,y,1/2-z
1/2-x,1/2-y,-z
1/2+x,y,1/2-z
1/2-x,1/2+y,z
1/2+x,-y,1/2+z
loop_
_atom_site_type_symbol
_atom_site_label
_atom_site_fract_x
_atom_site_fract_y
_atom_site_fract_z
Si Si1 0.812878 0.700607 0.470626
Si Si2 0.189396 0.601083 0.535547
Si Si3 0.185394 0.840625 0.673710
Si Si4 0.311303 0.457169 0.171425
Si Si5 0.688665 0.438858 0.883858
O O1 0.750000 0.750000 0.500000
O O2 0.760865 0.654859 0.517632
O O3 0.753712 0.690050 0.391085
O O4 0.000000 0.701047 0.470515
O O5 0.243435 0.579025 0.609863
O O6 0.232206 0.568907 0.466915
O O7 0.000000 0.601077 0.537591
O O8 0.250000 0.825312 0.750000
O O9 0.239870 0.894771 0.658765
O O10 0.000000 0.838363 0.673012
O O11 0.500000 0.456290 0.172730
O O12 0.250000 0.446551 0.250000
O O13 0.263908 0.510371 0.147229
O O14 0.500000 0.435362 0.879657
#
# Coordination Sequence:
#
# PCOD9477295 Si02
#       5
#    16  16  16  16  16
#     4  10  20  37  59  80 102 132 173 218 266 316
#     4   8  16  32  53  73  96 132 174 211 249 303
#     4  11  21  34  53  79 109 137 169 212 262 311
#     4  10  19  31  48  72 103 138 173 207 247 298
#     4   9  17  31  52  75 100 133 173 213 253 300
#
# _framework density 17.684602999999999
#
# number of rings (size 3 to 8) (size 9 to 14) (size 15 to 20)
#    0.000    2.400    0.000    4.800    0.000    4.800 
#    0.000    6.000    0.000    8.400    0.000    0.000 
#    0.000    0.000    0.000    0.000    0.000    0.000 
#
# Total GULP energy -223210.973563 kJ/mol
# GULP energy per Si atom -5580.274339 kJ/mol
# Density = 1.764435 g / cm^3
# Si number density = 17.684603 Si / 1000 Ang^3
#
#
#
# Elastic Constant Matrix: (Units=GPa)
#
#
# Indices 1 2 3 4 5 6 
#
# 1 45.8539 32.1499 37.0169 0.0000 0.0000 0.0000
# 2 32.1499 101.0975 90.0188 0.0000 0.0000 0.0000
# 3 37.0169 90.0188 165.0534 0.0000 0.0000 0.0000
# 4 0.0000 0.0000 0.0000 17.0729 0.0000 0.0000
# 5 0.0000 0.0000 0.0000 0.0000 30.5481 0.0000
# 6 0.0000 0.0000 0.0000 0.0000 0.0000 1.3892
#
#
#
# Elastic Compliance Matrix: (Units=1/GPa)
#
#
# Indices 1 2 3 4 5 6 
#
# 1 0.028735 -0.006609 -0.002840 0.000000 0.000000 0.000000
# 2 -0.006609 0.020750 -0.009835 0.000000 0.000000 0.000000
# 3 -0.002840 -0.009835 0.012059 0.000000 0.000000 0.000000
# 4 0.000000 0.000000 0.000000 0.058572 0.000000 0.000000
# 5 0.000000 0.000000 0.000000 0.000000 0.032735 0.000000
# 6 0.000000 0.000000 0.000000 0.000000 0.000000 0.719848
#
#
# Mechanical properties :
#
#
# Convention : Reuss Voigt Hill
#
# Bulk Modulus (GPa) = 43.52218 70.04177 56.78197
# Shear Modulus (GPa) = 5.44113 19.98999 12.71556
#
# Velocity S-wave (km/s) = 1.75597 3.36573 2.68436
# Velocity P-wave (km/s) = 5.36422 7.40245 6.46418
#
# Compressibility (1/GPa) = 0.02297679
#
# Stress axis : x y z
#
# Youngs Moduli (GPa) = 34.80078 48.19197 82.92345
#
# Poissons Ratio (x) = 0.31852 0.23548
# Poissons Ratio (y) = 0.23001 0.81553
# Poissons Ratio (z) = 0.09882 0.47396
#
# Static dielectric constant tensor:
#      x y z
#    x 1.603160 0.000000 0.000000 
#    y 0.000000 1.586280 0.000000 
#    z 0.000000 0.000000 1.596900 
# 
# From -- ./inp_files/29698.got.cif
#   From: 2010.05.17/outbox.cif.g08.bks.cpg/sg64_15_cif.got.tgz:29698.got - 2010.06.03 16:29:19.
