data_PCOD9477562
_publ_section_title
;
Structure prediction by ZEFSAII (Michael W. Deem and Ramdas Pophale) SiO2 
 PCOD9477562
Probable space group: C M C A
;
_chemical_formula_sum "Si O2"
_cell_formula_units_Z 116
_cell_length_a 9.186177
_cell_length_b 24.806080
_cell_length_c 29.320877
_cell_angle_alpha 90.000000
_cell_angle_beta 90.000000
_cell_angle_gamma 90.000000
_cell_volume 6681.437423
_symmetry_space_group_name_H-M "C M C A"
_symmetry_group_IT_number 64
_symmetry_cell_setting 'orthorhombic'
loop_
_space_group_symop_operation_xyz
x,y,z
-x,1/2-y,1/2+z
x,-y,-z
-x,1/2+y,1/2-z
-x,-y,-z
x,1/2+y,1/2-z
-x,y,z
x,1/2-y,1/2+z
1/2+x,1/2+y,z
1/2-x,-y,1/2+z
1/2+x,1/2-y,-z
1/2-x,y,1/2-z
1/2-x,1/2-y,-z
1/2+x,y,1/2-z
1/2-x,1/2+y,z
1/2+x,-y,1/2+z
loop_
_atom_site_type_symbol
_atom_site_label
_atom_site_fract_x
_atom_site_fract_y
_atom_site_fract_z
Si Si1 0.172864 0.768609 0.953418
Si Si2 0.826064 0.362026 0.294906
Si Si3 0.177408 0.979183 0.296287
Si Si4 0.166600 0.182799 0.894960
Si Si5 0.168931 0.979886 0.607889
Si Si6 0.000000 0.500000 0.500000
Si Si7 0.257853 0.077414 0.546608
Si Si8 0.831908 0.880046 0.548719
O O1 0.224277 0.726677 0.915081
O O2 0.232220 0.828312 0.943930
O O3 0.000000 0.768430 0.958929
O O4 0.250000 0.750000 0.000000
O O5 0.750000 0.337251 0.250000
O O6 0.742869 0.418972 0.301279
O O7 0.809485 0.329246 0.341638
O O8 0.000000 0.370655 0.287525
O O9 0.250000 0.000964 0.250000
O O10 0.000000 0.977644 0.293681
O O11 0.227078 0.011226 0.341335
O O12 0.184481 0.127033 0.923087
O O13 0.000000 0.201489 0.901541
O O14 0.228406 0.930492 0.578138
O O15 0.000000 0.967204 0.613493
O O16 0.178880 0.035696 0.580264
O O17 0.123536 0.460080 0.477554
O O18 0.170506 0.102737 0.504372
O O19 0.000000 0.867949 0.560708
#
# Coordination Sequence:
#
# PCOD9477562 Si02
#       8
#    16  16  16  16  16   4  16  16
#     4  12  26  40  59  82 112 151 194 240 286 338
#     4  10  20  35  56  84 114 148 184 232 285 341
#     4  10  19  33  52  81 114 148 184 226 278 338
#     4  11  23  38  58  83 117 153 191 235 286 340
#     4  10  21  36  56  81 111 149 188 230 280 336
#     4  12  24  32  50  88 120 164 182 240 266 348
#     4  12  21  34  54  81 119 152 191 226 282 329
#     4  11  23  39  58  80 111 152 197 238 282 338
#
# _framework density 17.361532
#
# number of rings (size 3 to 8) (size 9 to 14) (size 15 to 20)
#    0.000    1.103    4.828    3.310    0.966    2.759 
#    1.241    0.000    0.000    0.828    0.000    1.931 
#    0.000    0.000    0.000    0.000    0.000    0.000 
#
# Total GULP energy -323034.571980 kJ/mol
# GULP energy per Si atom -5569.561586 kJ/mol
# Density = 1.732202 g / cm^3
# Si number density = 17.361532 Si / 1000 Ang^3
#
#
#
# Elastic Constant Matrix: (Units=GPa)
#
#
# Indices 1 2 3 4 5 6 
#
# 1 109.4413 39.5936 49.6696 0.0000 0.0000 0.0000
# 2 39.5936 90.3219 50.7110 0.0000 0.0000 0.0000
# 3 49.6696 50.7110 129.0000 0.0000 0.0000 0.0000
# 4 0.0000 0.0000 0.0000 18.9599 0.0000 0.0000
# 5 0.0000 0.0000 0.0000 0.0000 -65.8983 0.0000
# 6 0.0000 0.0000 0.0000 0.0000 0.0000 32.9230
#
#
#
# Elastic Compliance Matrix: (Units=1/GPa)
#
#
# Indices 1 2 3 4 5 6 
#
# 1 0.011821 -0.003370 -0.003227 0.000000 0.000000 0.000000
# 2 -0.003370 0.015168 -0.004665 0.000000 0.000000 0.000000
# 3 -0.003227 -0.004665 0.010828 0.000000 0.000000 0.000000
# 4 0.000000 0.000000 0.000000 0.052743 0.000000 0.000000
# 5 0.000000 0.000000 0.000000 0.000000 -0.015175 0.000000
# 6 0.000000 0.000000 0.000000 0.000000 0.000000 0.030374
#
#
# Mechanical properties :
#
#
# Convention : Reuss Voigt Hill
#
# Bulk Modulus (GPa) = 65.38773 67.63463 66.51118
# Shear Modulus (GPa) = 37.48665 9.78286 23.63475
#
# Velocity S-wave (km/s) = 4.65174 2.37635 3.69362
# Velocity P-wave (km/s) = 8.16062 6.82426 7.52218
#
# Compressibility (1/GPa) = 0.01529339
#
# Stress axis : x y z
#
# Youngs Moduli (GPa) = 84.59512 65.92797 92.35184
#
# Poissons Ratio (x) = 0.22220 0.29798
# Poissons Ratio (y) = 0.28511 0.43082
# Poissons Ratio (z) = 0.27296 0.30755
#
# Static dielectric constant tensor:
#      x y z
#    x 1.600170 0.000000 0.000000 
#    y 0.000000 1.578870 0.000000 
#    z 0.000000 0.000000 1.622390 
# 
# From -- ./inp_files/52268.got.cif
#   From: 2010.05.17/outbox.cif.g08.bks.cpg/sg64_27_cif.got.tgz:52268.got - 2010.06.03 16:29:19.
