data_PCOD9477128
_publ_section_title
;
Structure prediction by ZEFSAII (Michael W. Deem and Ramdas Pophale) SiO2 
 PCOD9477128
Probable space group: C M C A
;
_chemical_formula_sum "Si O2"
_cell_formula_units_Z 80
_cell_length_a 11.266380
_cell_length_b 14.720083
_cell_length_c 23.139522
_cell_angle_alpha 90.000000
_cell_angle_beta 90.000000
_cell_angle_gamma 90.000000
_cell_volume 3837.505735
_symmetry_space_group_name_H-M "C M C A"
_symmetry_group_IT_number 64
_symmetry_cell_setting 'orthorhombic'
loop_
_space_group_symop_operation_xyz
x,y,z
-x,1/2-y,1/2+z
x,-y,-z
-x,1/2+y,1/2-z
-x,-y,-z
x,1/2+y,1/2-z
-x,y,z
x,1/2-y,1/2+z
1/2+x,1/2+y,z
1/2-x,-y,1/2+z
1/2+x,1/2-y,-z
1/2-x,y,1/2-z
1/2-x,1/2-y,-z
1/2+x,y,1/2-z
1/2-x,1/2+y,z
1/2+x,-y,1/2+z
loop_
_atom_site_type_symbol
_atom_site_label
_atom_site_fract_x
_atom_site_fract_y
_atom_site_fract_z
Si Si1 0.250000 0.110095 0.250000
Si Si2 0.500000 0.737233 0.647580
Si Si3 0.500000 0.943168 0.196607
Si Si4 0.500000 0.876746 0.737568
Si Si5 0.236928 0.176403 0.580203
Si Si6 0.358924 0.859229 0.954191
Si Si7 0.760020 0.501281 0.136382
O O1 0.374476 0.158505 0.235402
O O2 0.285261 0.051453 0.306262
O O3 0.500000 0.665312 0.701405
O O4 0.500000 0.837550 0.673222
O O5 0.620504 0.717861 0.612385
O O6 0.500000 0.015395 0.248250
O O7 0.387984 0.967893 0.158122
O O8 0.326958 0.257810 0.567285
O O9 0.185705 0.136669 0.520122
O O10 0.296100 0.092677 0.614677
O O11 0.500000 0.877129 0.950484
O O12 0.283979 0.928298 0.914803
#
# Coordination Sequence:
#
# PCOD9477128 Si02
#       7
#     8   8   8   8  16  16  16
#     4  10  22  40  62  86 122 164 212 252 308 380
#     4  10  18  37  60  84 122 160 192 255 324 364
#     4   8  18  33  56  83 108 151 209 243 279 370
#     4  10  20  38  58  83 118 161 202 256 312 368
#     4  10  22  36  60  93 121 157 204 253 318 374
#     4  11  21  37  63  93 123 156 208 262 304 368
#     4  10  19  38  61  86 120 160 203 252 304 367
#
# _framework density 20.846875000000001
#
# number of rings (size 3 to 8) (size 9 to 14) (size 15 to 20)
#    0.000    2.000    2.000    1.800    0.000    0.800 
#    1.800   22.000    0.000    2.400    0.000    0.000 
#    0.000    0.000    0.000    0.000    0.000    0.000 
#
# Total GULP energy -222784.233584 kJ/mol
# GULP energy per Si atom -5569.605840 kJ/mol
# Density = 2.079943 g / cm^3
# Si number density = 20.846875 Si / 1000 Ang^3
#
#
#
# Elastic Constant Matrix: (Units=GPa)
#
#
# Indices 1 2 3 4 5 6 
#
# 1 62.4808 -5.6933 -3.9855 0.0000 0.0000 0.0000
# 2 -5.6933 69.7559 45.8799 0.0000 0.0000 0.0000
# 3 -3.9855 45.8799 87.7225 0.0000 0.0000 0.0000
# 4 0.0000 0.0000 0.0000 39.6886 0.0000 0.0000
# 5 0.0000 0.0000 0.0000 0.0000 16.7108 0.0000
# 6 0.0000 0.0000 0.0000 0.0000 0.0000 16.4284
#
#
#
# Elastic Compliance Matrix: (Units=1/GPa)
#
#
# Indices 1 2 3 4 5 6 
#
# 1 0.016125 0.001272 0.000068 0.000000 0.000000 0.000000
# 2 0.001272 0.021953 -0.011424 0.000000 0.000000 0.000000
# 3 0.000068 -0.011424 0.017378 0.000000 0.000000 0.000000
# 4 0.000000 0.000000 0.000000 0.025196 0.000000 0.000000
# 5 0.000000 0.000000 0.000000 0.000000 0.059842 0.000000
# 6 0.000000 0.000000 0.000000 0.000000 0.000000 0.060870
#
#
# Mechanical properties :
#
#
# Convention : Reuss Voigt Hill
#
# Bulk Modulus (GPa) = 28.33966 32.48460 30.41213
# Shear Modulus (GPa) = 21.43202 26.81609 24.12406
#
# Velocity S-wave (km/s) = 3.20983 3.59044 3.40546
# Velocity P-wave (km/s) = 5.23078 5.72754 5.48479
#
# Compressibility (1/GPa) = 0.03528624
#
# Stress axis : x y z
#
# Youngs Moduli (GPa) = 62.01513 45.55116 57.54541
#
# Poissons Ratio (x) = -0.05793 -0.00388
# Poissons Ratio (y) = -0.07886 0.65740
# Poissons Ratio (z) = -0.00419 0.52038
#
# Static dielectric constant tensor:
#      x y z
#    x 2.614410 0.000000 0.000000 
#    y 0.000000 1.786880 0.000000 
#    z 0.000000 0.000000 1.789820 
# 
# From -- ./inp_files/44022.got.cif
#   From: 2010.05.17/outbox.cif.g08.bks.cpg/sg64_23_cif.got.tgz:44022.got - 2010.06.03 16:29:19.
