data_PCOD9477927
_publ_section_title
;
Structure prediction by ZEFSAII (Michael W. Deem and Ramdas Pophale) SiO2 
 PCOD9477927
Probable space group: C M C A
;
_chemical_formula_sum "Si O2"
_cell_formula_units_Z 96
_cell_length_a 8.668261
_cell_length_b 20.163815
_cell_length_c 28.430699
_cell_angle_alpha 90.000000
_cell_angle_beta 90.000000
_cell_angle_gamma 90.000000
_cell_volume 4969.265729
_symmetry_space_group_name_H-M "C M C A"
_symmetry_group_IT_number 64
_symmetry_cell_setting 'orthorhombic'
loop_
_space_group_symop_operation_xyz
x,y,z
-x,1/2-y,1/2+z
x,-y,-z
-x,1/2+y,1/2-z
-x,-y,-z
x,1/2+y,1/2-z
-x,y,z
x,1/2-y,1/2+z
1/2+x,1/2+y,z
1/2-x,-y,1/2+z
1/2+x,1/2-y,-z
1/2-x,y,1/2-z
1/2-x,1/2-y,-z
1/2+x,y,1/2-z
1/2-x,1/2+y,z
1/2+x,-y,1/2+z
loop_
_atom_site_type_symbol
_atom_site_label
_atom_site_fract_x
_atom_site_fract_y
_atom_site_fract_z
Si Si1 0.685329 0.297346 0.799619
Si Si2 0.182908 0.346443 0.951657
Si Si3 0.815893 0.226219 0.604579
Si Si4 0.316350 0.482466 0.601561
Si Si5 0.182205 0.892909 0.050502
Si Si6 0.685132 0.047535 0.300156
O O1 0.500000 0.296477 0.797947
O O2 0.750000 0.272689 0.750000
O O3 0.733625 0.255466 0.844927
O O4 0.732492 0.374607 0.804660
O O5 0.273656 0.282382 0.933636
O O6 0.216135 0.408428 0.917300
O O7 0.000000 0.332685 0.950645
O O8 0.232926 0.368973 0.003356
O O9 0.729639 0.159420 0.590617
O O10 0.000000 0.215387 0.604804
O O11 0.500000 0.492394 0.600911
O O12 0.238265 0.535211 0.567092
O O13 0.252488 0.488700 0.654335
O O14 0.000000 0.892597 0.042633
O O15 0.500000 0.043958 0.300296
O O16 0.750000 0.023895 0.250000
#
# Coordination Sequence:
#
# PCOD9477927 Si02
#       6
#    16  16  16  16  16  16
#     4   9  19  34  58  88 118 151 190 238 289 343
#     4  11  23  40  63  89 117 154 200 247 295 351
#     4  11  22  40  62  88 121 157 198 244 294 351
#     4  11  23  40  62  89 120 156 198 246 297 351
#     4  12  26  41  59  85 120 160 199 245 299 356
#     4  10  19  35  59  90 121 153 195 241 294 347
#
# _framework density 19.318750999999999
#
# number of rings (size 3 to 8) (size 9 to 14) (size 15 to 20)
#    0.000    1.333    1.667    4.500    0.000    6.000 
#    0.000    0.833    0.000    2.000    0.000    0.000 
#    0.000    0.000    0.000    0.000    0.000    0.000 
#
# Total GULP energy -268405.779827 kJ/mol
# GULP energy per Si atom -5591.787080 kJ/mol
# Density = 1.927478 g / cm^3
# Si number density = 19.318751 Si / 1000 Ang^3
#
#
#
# Elastic Constant Matrix: (Units=GPa)
#
#
# Indices 1 2 3 4 5 6 
#
# 1 20.3876 9.0420 -3.9343 0.0000 0.0000 0.0000
# 2 9.0420 22.4588 -18.5631 0.0000 0.0000 0.0000
# 3 -3.9343 -18.5631 77.9731 0.0000 0.0000 0.0000
# 4 0.0000 0.0000 0.0000 4.9531 0.0000 0.0000
# 5 0.0000 0.0000 0.0000 0.0000 33.3022 0.0000
# 6 0.0000 0.0000 0.0000 0.0000 0.0000 29.0608
#
#
#
# Elastic Compliance Matrix: (Units=1/GPa)
#
#
# Indices 1 2 3 4 5 6 
#
# 1 0.060433 -0.027153 -0.003415 0.000000 0.000000 0.000000
# 2 -0.027153 0.067634 0.014732 0.000000 0.000000 0.000000
# 3 -0.003415 0.014732 0.016160 0.000000 0.000000 0.000000
# 4 0.000000 0.000000 0.000000 0.201893 0.000000 0.000000
# 5 0.000000 0.000000 0.000000 0.000000 0.030028 0.000000
# 6 0.000000 0.000000 0.000000 0.000000 0.000000 0.034411
#
#
# Mechanical properties :
#
#
# Convention : Reuss Voigt Hill
#
# Bulk Modulus (GPa) = 8.88465 10.43429 9.65947
# Shear Modulus (GPa) = 10.42211 22.41491 16.41851
#
# Velocity S-wave (km/s) = 2.32519 3.40996 2.91842
# Velocity P-wave (km/s) = 3.43768 4.57347 4.04563
#
# Compressibility (1/GPa) = 0.11255369
#
# Stress axis : x y z
#
# Youngs Moduli (GPa) = 16.54724 14.78545 61.88204
#
# Poissons Ratio (x) = 0.40147 0.21133
# Poissons Ratio (y) = 0.44931 -0.91162
# Poissons Ratio (z) = 0.05651 -0.21781
#
# Static dielectric constant tensor:
#      x y z
#    x 1.640580 0.000000 0.000000 
#    y 0.000000 1.658030 0.000000 
#    z 0.000000 0.000000 1.671340 
# 
# From -- ./inp_files/48066.got.cif
#   From: 2010.05.17/outbox.cif.g08.bks.cpg/sg64_25_cif.got.tgz:48066.got - 2010.06.03 16:29:19.
