data_PCOD9477956
_publ_section_title
;
Structure prediction by ZEFSAII (Michael W. Deem and Ramdas Pophale) SiO2 
 PCOD9477956
Probable space group: C M C A
;
_chemical_formula_sum "Si O2"
_cell_formula_units_Z 96
_cell_length_a 17.883803
_cell_length_b 9.414841
_cell_length_c 27.903884
_cell_angle_alpha 90.000000
_cell_angle_beta 90.000000
_cell_angle_gamma 90.000000
_cell_volume 4698.265173
_symmetry_space_group_name_H-M "C M C A"
_symmetry_group_IT_number 64
_symmetry_cell_setting 'orthorhombic'
loop_
_space_group_symop_operation_xyz
x,y,z
-x,1/2-y,1/2+z
x,-y,-z
-x,1/2+y,1/2-z
-x,-y,-z
x,1/2+y,1/2-z
-x,y,z
x,1/2-y,1/2+z
1/2+x,1/2+y,z
1/2-x,-y,1/2+z
1/2+x,1/2-y,-z
1/2-x,y,1/2-z
1/2-x,1/2-y,-z
1/2+x,y,1/2-z
1/2-x,1/2+y,z
1/2+x,-y,1/2+z
loop_
_atom_site_type_symbol
_atom_site_label
_atom_site_fract_x
_atom_site_fract_y
_atom_site_fract_z
Si Si1 0.801301 0.540985 0.056271
Si Si2 0.090219 0.186314 0.792938
Si Si3 0.329493 0.760408 0.599415
Si Si4 0.908528 0.352388 0.696161
Si Si5 0.087566 0.472333 0.551436
Si Si6 0.089900 0.252982 0.896082
O O1 0.734420 0.636040 0.078097
O O2 0.807471 0.398264 0.087344
O O3 0.873792 0.636712 0.067601
O O4 0.795047 0.500000 0.000000
O O5 0.110482 0.264042 0.743925
O O6 0.116757 0.266483 0.841083
O O7 0.000000 0.191404 0.794794
O O8 0.108706 0.019214 0.795728
O O9 0.358439 0.792568 0.652746
O O10 0.399160 0.813105 0.567557
O O11 0.000000 0.341203 0.686928
O O12 0.122785 0.500000 0.500000
O O13 0.112906 0.593546 0.588206
O O14 0.000000 0.497185 0.548261
O O15 0.000000 0.265359 0.897028
#
# Coordination Sequence:
#
# PCOD9477956 Si02
#       6
#    16  16  16  16  16  16
#     4  12  27  44  64  90 127 175 222 271 327 385
#     4   9  19  37  64  97 128 160 201 256 321 381
#     4  12  24  41  64  88 126 169 217 265 317 390
#     4  10  21  39  69 100 127 165 211 262 320 388
#     4  10  19  35  62  92 122 160 205 256 315 378
#     4  10  21  40  65  92 128 163 206 270 327 384
#
# _framework density 20.433073
#
# number of rings (size 3 to 8) (size 9 to 14) (size 15 to 20)
#    0.000    1.500    1.667    3.500    2.333    1.667 
#    0.000    0.833    0.000    0.000    0.000    0.000 
#    0.000    0.000    0.000    0.000    0.000    0.000 
#
# Total GULP energy -267766.365952 kJ/mol
# GULP energy per Si atom -5578.465957 kJ/mol
# Density = 2.038657 g / cm^3
# Si number density = 20.433073 Si / 1000 Ang^3
#
#
#
# Elastic Constant Matrix: (Units=GPa)
#
#
# Indices 1 2 3 4 5 6 
#
# 1 46.1946 29.8113 45.4274 0.0000 0.0000 0.0000
# 2 29.8113 83.3460 8.7072 0.0000 0.0000 0.0000
# 3 45.4274 8.7072 100.2319 0.0000 0.0000 0.0000
# 4 0.0000 0.0000 0.0000 36.6411 0.0000 0.0000
# 5 0.0000 0.0000 0.0000 0.0000 21.0342 0.0000
# 6 0.0000 0.0000 0.0000 0.0000 0.0000 11.9417
#
#
#
# Elastic Compliance Matrix: (Units=1/GPa)
#
#
# Indices 1 2 3 4 5 6 
#
# 1 0.057125 -0.017890 -0.024336 0.000000 0.000000 0.000000
# 2 -0.017890 0.017711 0.006570 0.000000 0.000000 0.000000
# 3 -0.024336 0.006570 0.020436 0.000000 0.000000 0.000000
# 4 0.000000 0.000000 0.000000 0.027292 0.000000 0.000000
# 5 0.000000 0.000000 0.000000 0.000000 0.047542 0.000000
# 6 0.000000 0.000000 0.000000 0.000000 0.000000 0.083740
#
#
# Mechanical properties :
#
#
# Convention : Reuss Voigt Hill
#
# Bulk Modulus (GPa) = 41.73919 44.18491 42.96205
# Shear Modulus (GPa) = 15.00854 23.64517 19.32686
#
# Velocity S-wave (km/s) = 2.71315 3.40546 3.07882
# Velocity P-wave (km/s) = 5.50332 6.09377 5.80605
#
# Compressibility (1/GPa) = 0.02395830
#
# Stress axis : x y z
#
# Youngs Moduli (GPa) = 17.50560 56.46289 48.93371
#
# Poissons Ratio (x) = 1.01012 1.19085
# Poissons Ratio (y) = 0.31317 -0.32147
# Poissons Ratio (z) = 0.42602 -0.37094
#
# Static dielectric constant tensor:
#      x y z
#    x 1.818910 0.000000 0.000000 
#    y 0.000000 1.705320 0.000000 
#    z 0.000000 0.000000 1.771780 
# 
# From -- ./inp_files/50671.got.cif
#   From: 2010.05.17/outbox.cif.g08.bks.cpg/sg64_26_cif.got.tgz:50671.got - 2010.06.03 16:29:19.
