data_PCOD9477537
_publ_section_title
;
Structure prediction by ZEFSAII (Michael W. Deem and Ramdas Pophale) SiO2 
 PCOD9477537
Probable space group: C M C A
;
_chemical_formula_sum "Si O2"
_cell_formula_units_Z 96
_cell_length_a 8.612135
_cell_length_b 28.238278
_cell_length_c 24.465578
_cell_angle_alpha 90.000000
_cell_angle_beta 90.000000
_cell_angle_gamma 90.000000
_cell_volume 5949.829476
_symmetry_space_group_name_H-M "C M C A"
_symmetry_group_IT_number 64
_symmetry_cell_setting 'orthorhombic'
loop_
_space_group_symop_operation_xyz
x,y,z
-x,1/2-y,1/2+z
x,-y,-z
-x,1/2+y,1/2-z
-x,-y,-z
x,1/2+y,1/2-z
-x,y,z
x,1/2-y,1/2+z
1/2+x,1/2+y,z
1/2-x,-y,1/2+z
1/2+x,1/2-y,-z
1/2-x,y,1/2-z
1/2-x,1/2-y,-z
1/2+x,y,1/2-z
1/2-x,1/2+y,z
1/2+x,-y,1/2+z
loop_
_atom_site_type_symbol
_atom_site_label
_atom_site_fract_x
_atom_site_fract_y
_atom_site_fract_z
Si Si1 0.186499 0.065818 0.309659
Si Si2 0.687384 0.731761 0.415876
Si Si3 0.814781 0.018950 0.082687
Si Si4 0.312922 0.676134 0.309199
Si Si5 0.186955 0.070739 0.522897
Si Si6 0.312833 0.320898 0.472952
O O1 0.250000 0.052304 0.250000
O O2 0.256301 0.034812 0.358183
O O3 0.231111 0.121119 0.318700
O O4 0.000000 0.062759 0.310340
O O5 0.500000 0.732544 0.415329
O O6 0.741283 0.708697 0.359227
O O7 0.735746 0.699106 0.467455
O O8 0.747879 0.784149 0.428796
O O9 0.000000 0.020787 0.079490
O O10 0.756565 0.966898 0.065310
O O11 0.743474 0.053915 0.036816
O O12 0.500000 0.677698 0.307747
O O13 0.250000 0.690520 0.250000
O O14 0.235216 0.124741 0.533682
O O15 0.000000 0.067851 0.524180
O O16 0.500000 0.319432 0.471205
#
# Coordination Sequence:
#
# PCOD9477537 Si02
#       6
#    16  16  16  16  16  16
#     4  10  19  33  51  72  99 129 161 196 237 283
#     4   9  17  30  47  69  97 125 153 190 235 279
#     4  11  21  32  48  73 100 126 160 198 239 287
#     4   9  18  31  48  70  96 126 158 192 231 278
#     4  10  19  33  51  70  96 129 161 197 242 286
#     4   9  18  31  48  70  94 123 158 193 233 282
#
# _framework density 16.134916
#
# number of rings (size 3 to 8) (size 9 to 14) (size 15 to 20)
#    0.000    2.333    0.000    4.500    0.000    5.333 
#    0.000    3.333    0.000    1.000    0.000    2.333 
#    0.000    0.000    0.000    0.000    0.000    0.000 
#
# Total GULP energy -267787.823720 kJ/mol
# GULP energy per Si atom -5578.912994 kJ/mol
# Density = 1.609819 g / cm^3
# Si number density = 16.134916 Si / 1000 Ang^3
#
#
#
# Elastic Constant Matrix: (Units=GPa)
#
#
# Indices 1 2 3 4 5 6 
#
# 1 39.5462 25.7110 30.3730 0.0000 0.0000 0.0000
# 2 25.7110 117.1082 79.7132 0.0000 0.0000 0.0000
# 3 30.3730 79.7132 141.2031 0.0000 0.0000 0.0000
# 4 0.0000 0.0000 0.0000 23.2068 0.0000 0.0000
# 5 0.0000 0.0000 0.0000 0.0000 28.8718 0.0000
# 6 0.0000 0.0000 0.0000 0.0000 0.0000 23.7552
#
#
#
# Elastic Compliance Matrix: (Units=1/GPa)
#
#
# Indices 1 2 3 4 5 6 
#
# 1 0.031254 -0.003712 -0.004627 0.000000 0.000000 0.000000
# 2 -0.003712 0.014309 -0.007279 0.000000 0.000000 0.000000
# 3 -0.004627 -0.007279 0.012187 0.000000 0.000000 0.000000
# 4 0.000000 0.000000 0.000000 0.043091 0.000000 0.000000
# 5 0.000000 0.000000 0.000000 0.000000 0.034636 0.000000
# 6 0.000000 0.000000 0.000000 0.000000 0.000000 0.042096
#
#
# Mechanical properties :
#
#
# Convention : Reuss Voigt Hill
#
# Bulk Modulus (GPa) = 37.71808 63.27244 50.49526
# Shear Modulus (GPa) = 22.97289 25.97076 24.47183
#
# Velocity S-wave (km/s) = 3.77742 4.01633 3.89871
# Velocity P-wave (km/s) = 6.51557 7.79793 7.18541
#
# Compressibility (1/GPa) = 0.02651248
#
# Stress axis : x y z
#
# Youngs Moduli (GPa) = 31.99565 69.88589 82.05649
#
# Poissons Ratio (x) = 0.25943 0.37969
# Poissons Ratio (y) = 0.11877 0.59732
# Poissons Ratio (z) = 0.14805 0.50872
#
# Static dielectric constant tensor:
#      x y z
#    x 1.545910 0.000000 0.000000 
#    y 0.000000 1.531400 0.000000 
#    z 0.000000 0.000000 1.521250 
# 
# From -- ./inp_files/43193.got.cif
#   From: 2010.05.17/outbox.cif.g08.bks.cpg/sg64_22_cif.got.tgz:43193.got - 2010.06.03 16:29:19.
