data_PCOD9477155
_publ_section_title
;
Structure prediction by ZEFSAII (Michael W. Deem and Ramdas Pophale) SiO2 
 PCOD9477155
Probable space group: C M C A
;
_chemical_formula_sum "Si O2"
_cell_formula_units_Z 88
_cell_length_a 15.993833
_cell_length_b 10.266415
_cell_length_c 24.003667
_cell_angle_alpha 90.000000
_cell_angle_beta 90.000000
_cell_angle_gamma 90.000000
_cell_volume 3941.385967
_symmetry_space_group_name_H-M "C M C A"
_symmetry_group_IT_number 64
_symmetry_cell_setting 'orthorhombic'
loop_
_space_group_symop_operation_xyz
x,y,z
-x,1/2-y,1/2+z
x,-y,-z
-x,1/2+y,1/2-z
-x,-y,-z
x,1/2+y,1/2-z
-x,y,z
x,1/2-y,1/2+z
1/2+x,1/2+y,z
1/2-x,-y,1/2+z
1/2+x,1/2-y,-z
1/2-x,y,1/2-z
1/2-x,1/2-y,-z
1/2+x,y,1/2-z
1/2-x,1/2+y,z
1/2+x,-y,1/2+z
loop_
_atom_site_type_symbol
_atom_site_label
_atom_site_fract_x
_atom_site_fract_y
_atom_site_fract_z
Si Si1 0.861282 0.323516 0.049800
Si Si2 0.097412 0.458209 0.300298
Si Si3 0.363337 0.238447 0.287949
Si Si4 0.286817 0.201516 0.633483
Si Si5 0.596425 0.387319 0.575250
Si Si6 0.000000 0.781414 0.886753
O O1 0.772192 0.312632 0.079554
O O2 0.901781 0.456254 0.075449
O O3 0.925193 0.210494 0.066010
O O4 0.863888 0.345314 0.983855
O O5 0.106685 0.336961 0.259045
O O6 0.131087 0.587594 0.270498
O O7 0.155567 0.423167 0.352880
O O8 0.000000 0.477112 0.316739
O O9 0.273994 0.274741 0.314136
O O10 0.427365 0.243037 0.339297
O O11 0.348592 0.322057 0.622900
O O12 0.500000 0.345266 0.578411
#
# Coordination Sequence:
#
# PCOD9477155 Si02
#       6
#    16  16  16  16  16   8
#     4  10  20  38  64  91 131 172 218 268 321 387
#     4  12  24  46  65  95 129 171 219 272 326 394
#     4  11  25  44  68  94 131 174 218 268 331 393
#     4  11  25  38  64  95 136 168 213 274 333 384
#     4  11  20  39  64  99 125 170 226 269 313 386
#     4  10  18  39  62  93 116 166 208 262 320 374
#
# _framework density 22.327171
#
# number of rings (size 3 to 8) (size 9 to 14) (size 15 to 20)
#    0.000    1.091    3.636    3.273    0.000    5.818 
#    3.273    0.000    0.000    1.091    0.000    0.000 
#    0.000    0.000    0.000    0.000    0.000    0.000 
#
# Total GULP energy -244974.866674 kJ/mol
# GULP energy per Si atom -5567.610606 kJ/mol
# Density = 2.227635 g / cm^3
# Si number density = 22.327171 Si / 1000 Ang^3
#
#
#
# Elastic Constant Matrix: (Units=GPa)
#
#
# Indices 1 2 3 4 5 6 
#
# 1 153.1630 28.7428 31.8777 0.0000 0.0000 0.0000
# 2 28.7428 28.2241 -0.9851 0.0000 0.0000 0.0000
# 3 31.8777 -0.9851 38.3619 0.0000 0.0000 0.0000
# 4 0.0000 0.0000 0.0000 14.2392 0.0000 0.0000
# 5 0.0000 0.0000 0.0000 0.0000 335.6513 0.0000
# 6 0.0000 0.0000 0.0000 0.0000 0.0000 24.8330
#
#
#
# Elastic Compliance Matrix: (Units=1/GPa)
#
#
# Indices 1 2 3 4 5 6 
#
# 1 0.010451 -0.010956 -0.008966 0.000000 0.000000 0.000000
# 2 -0.010956 0.046948 0.010310 0.000000 0.000000 0.000000
# 3 -0.008966 0.010310 0.033783 0.000000 0.000000 0.000000
# 4 0.000000 0.000000 0.000000 0.070229 0.000000 0.000000
# 5 0.000000 0.000000 0.000000 0.000000 0.002979 0.000000
# 6 0.000000 0.000000 0.000000 0.000000 0.000000 0.040269
#
#
# Mechanical properties :
#
#
# Convention : Reuss Voigt Hill
#
# Bulk Modulus (GPa) = 13.89712 37.66887 25.78300
# Shear Modulus (GPa) = 20.17193 85.61893 52.89543
#
# Velocity S-wave (km/s) = 3.00904 6.19925 4.87263
# Velocity P-wave (km/s) = 4.27905 8.25523 6.57492
#
# Compressibility (1/GPa) = 0.07195736
#
# Stress axis : x y z
#
# Youngs Moduli (GPa) = 95.68361 21.30016 29.60094
#
# Poissons Ratio (x) = 0.23337 0.26540
# Poissons Ratio (y) = 1.04832 -0.30518
# Poissons Ratio (z) = 0.85789 -0.21960
#
# Static dielectric constant tensor:
#      x y z
#    x 1.977870 0.000000 0.000000 
#    y 0.000000 1.882560 0.000000 
#    z 0.000000 0.000000 1.832420 
# 
# From -- ./inp_files/45042.got.cif
#   From: 2010.05.17/outbox.cif.g08.bks.cpg/sg64_23_cif.got.tgz:45042.got - 2010.06.03 16:29:19.
