data_PCOD9477333
_publ_section_title
;
Structure prediction by ZEFSAII (Michael W. Deem and Ramdas Pophale) SiO2 
 PCOD9477333
Probable space group: C M C A
;
_chemical_formula_sum "Si O2"
_cell_formula_units_Z 80
_cell_length_a 7.708554
_cell_length_b 26.695844
_cell_length_c 20.596653
_cell_angle_alpha 90.000000
_cell_angle_beta 90.000000
_cell_angle_gamma 90.000000
_cell_volume 4238.510147
_symmetry_space_group_name_H-M "C M C A"
_symmetry_group_IT_number 64
_symmetry_cell_setting 'orthorhombic'
loop_
_space_group_symop_operation_xyz
x,y,z
-x,1/2-y,1/2+z
x,-y,-z
-x,1/2+y,1/2-z
-x,-y,-z
x,1/2+y,1/2-z
-x,y,z
x,1/2-y,1/2+z
1/2+x,1/2+y,z
1/2-x,-y,1/2+z
1/2+x,1/2-y,-z
1/2-x,y,1/2-z
1/2-x,1/2-y,-z
1/2+x,y,1/2-z
1/2-x,1/2+y,z
1/2+x,-y,1/2+z
loop_
_atom_site_type_symbol
_atom_site_label
_atom_site_fract_x
_atom_site_fract_y
_atom_site_fract_z
Si Si1 0.708848 0.729383 0.571504
Si Si2 0.205596 0.308942 0.675642
Si Si3 0.298283 0.512135 0.577503
Si Si4 0.292654 0.405473 0.598486
Si Si5 0.786815 0.119009 0.547485
O O1 0.500000 0.727740 0.577118
O O2 0.750000 0.750000 0.500000
O O3 0.778391 0.767374 0.625883
O O4 0.770861 0.671995 0.575935
O O5 0.250000 0.299258 0.750000
O O6 0.259710 0.364151 0.652432
O O7 0.000000 0.307342 0.669344
O O8 0.296228 0.500000 0.500000
O O9 0.500000 0.515823 0.597623
O O10 0.222128 0.461810 0.609243
O O11 0.225141 0.568173 0.582764
O O12 0.500000 0.411033 0.592176
O O13 0.231927 0.385004 0.528217
O O14 0.000000 0.118164 0.547915
#
# Coordination Sequence:
#
# PCOD9477333 Si02
#       5
#    16  16  16  16  16
#     4  10  19  31  50  74  98 127 164 206 248 293
#     4  11  23  35  48  69  98 132 169 203 245 297
#     4   7  11  20  40  71  97 119 151 185 224 280
#     4   9  15  27  49  72  96 125 157 196 241 286
#     4   8  13  24  45  73 100 123 153 195 240 287
#
# _framework density 18.874556999999999
#
# number of rings (size 3 to 8) (size 9 to 14) (size 15 to 20)
#    0.000    3.000    2.000    3.000    0.000    0.800 
#    0.000    0.000    0.000    7.800    0.000    2.800 
#    0.000    0.000    0.000    0.000    0.000    0.000 
#
# Total GULP energy -222765.885572 kJ/mol
# GULP energy per Si atom -5569.147139 kJ/mol
# Density = 1.883160 g / cm^3
# Si number density = 18.874557 Si / 1000 Ang^3
#
#
#
# Elastic Constant Matrix: (Units=GPa)
#
#
# Indices 1 2 3 4 5 6 
#
# 1 27.8699 6.2773 -3.1339 0.0000 0.0000 0.0000
# 2 6.2773 208.7922 72.1150 0.0000 0.0000 0.0000
# 3 -3.1339 72.1150 87.1771 0.0000 0.0000 0.0000
# 4 0.0000 0.0000 0.0000 22.2670 0.0000 0.0000
# 5 0.0000 0.0000 0.0000 0.0000 0.5757 0.0000
# 6 0.0000 0.0000 0.0000 0.0000 0.0000 7.5420
#
#
#
# Elastic Compliance Matrix: (Units=1/GPa)
#
#
# Indices 1 2 3 4 5 6 
#
# 1 0.036725 -0.002184 0.003127 0.000000 0.000000 0.000000
# 2 -0.002184 0.006835 -0.005733 0.000000 0.000000 0.000000
# 3 0.003127 -0.005733 0.016326 0.000000 0.000000 0.000000
# 4 0.000000 0.000000 0.000000 0.044909 0.000000 0.000000
# 5 0.000000 0.000000 0.000000 0.000000 1.737138 0.000000
# 6 0.000000 0.000000 0.000000 0.000000 0.000000 0.132591
#
#
# Mechanical properties :
#
#
# Convention : Reuss Voigt Hill
#
# Bulk Modulus (GPa) = 19.87856 52.70622 36.29239
# Shear Modulus (GPa) = 2.49891 22.64899 12.57395
#
# Velocity S-wave (km/s) = 1.15188 3.46782 2.58386
# Velocity P-wave (km/s) = 3.51054 6.63472 5.30770
#
# Compressibility (1/GPa) = 0.05030547
#
# Stress axis : x y z
#
# Youngs Moduli (GPa) = 27.22973 146.30273 61.25372
#
# Poissons Ratio (x) = 0.31954 -0.19154
# Poissons Ratio (y) = 0.05947 0.35115
# Poissons Ratio (z) = -0.08515 0.83871
#
# Static dielectric constant tensor:
#      x y z
#    x 1.712260 0.000000 0.000000 
#    y 0.000000 1.734800 0.000000 
#    z 0.000000 0.000000 1.599630 
# 
# From -- ./inp_files/29816.got.cif
#   From: 2010.05.17/outbox.cif.g08.bks.cpg/sg64_15_cif.got.tgz:29816.got - 2010.06.03 16:29:19.
