data_PCOD9477297
_publ_section_title
;
Structure prediction by ZEFSAII (Michael W. Deem and Ramdas Pophale) SiO2 
 PCOD9477297
Probable space group: C M C A
;
_chemical_formula_sum "Si O2"
_cell_formula_units_Z 96
_cell_length_a 8.664952
_cell_length_b 32.835954
_cell_length_c 19.127975
_cell_angle_alpha 90.000000
_cell_angle_beta 90.000000
_cell_angle_gamma 90.000000
_cell_volume 5442.329039
_symmetry_space_group_name_H-M "C M C A"
_symmetry_group_IT_number 64
_symmetry_cell_setting 'orthorhombic'
loop_
_space_group_symop_operation_xyz
x,y,z
-x,1/2-y,1/2+z
x,-y,-z
-x,1/2+y,1/2-z
-x,-y,-z
x,1/2+y,1/2-z
-x,y,z
x,1/2-y,1/2+z
1/2+x,1/2+y,z
1/2-x,-y,1/2+z
1/2+x,1/2-y,-z
1/2-x,y,1/2-z
1/2-x,1/2-y,-z
1/2+x,y,1/2-z
1/2-x,1/2+y,z
1/2+x,-y,1/2+z
loop_
_atom_site_type_symbol
_atom_site_label
_atom_site_fract_x
_atom_site_fract_y
_atom_site_fract_z
Si Si1 0.314444 0.954532 0.829499
Si Si2 0.685284 0.368359 0.328794
Si Si3 0.684443 0.205426 0.581338
Si Si4 0.314063 0.292216 0.918614
Si Si5 0.685878 0.542575 0.671057
Si Si6 0.685172 0.370370 0.828605
O O1 0.500000 0.951562 0.827823
O O2 0.250000 0.955274 0.750000
O O3 0.246512 0.912977 0.860265
O O4 0.269284 0.998705 0.861109
O O5 0.500000 0.366644 0.326063
O O6 0.750000 0.365248 0.250000
O O7 0.747512 0.331533 0.374684
O O8 0.731929 0.413253 0.358348
O O9 0.500000 0.204382 0.585224
O O10 0.731122 0.201872 0.499732
O O11 0.743608 0.249527 0.606297
O O12 0.500000 0.289019 0.915900
O O13 0.267089 0.331123 0.873232
O O14 0.500000 0.542267 0.674265
O O15 0.750000 0.542516 0.750000
O O16 0.500000 0.372101 0.825590
O O17 0.750000 0.366686 0.750000
#
# Coordination Sequence:
#
# PCOD9477297 Si02
#       6
#    16  16  16  16  16  16
#     4   9  15  25  42  66  95 125 157 191 230 276
#     4  10  19  32  50  74 102 129 159 197 241 284
#     4  10  20  35  54  73  93 123 163 202 242 289
#     4   9  20  37  53  69  94 128 163 198 239 291
#     4   8  15  26  42  65  94 126 157 190 229 277
#     4  10  19  31  48  72  99 125 156 195 238 281
#
# _framework density 17.639506999999998
#
# number of rings (size 3 to 8) (size 9 to 14) (size 15 to 20)
#    0.000    2.667    0.000    3.000    0.000    4.000 
#    0.000    1.667    0.000    1.000    0.000    7.000 
#    0.000    0.000    0.000    0.000    0.000    0.000 
#
# Total GULP energy -267319.169521 kJ/mol
# GULP energy per Si atom -5569.149365 kJ/mol
# Density = 1.759936 g / cm^3
# Si number density = 17.639507 Si / 1000 Ang^3
#
#
#
# Elastic Constant Matrix: (Units=GPa)
#
#
# Indices 1 2 3 4 5 6 
#
# 1 35.0032 50.7617 16.3772 0.0000 0.0000 0.0000
# 2 50.7617 240.1872 63.2610 0.0000 0.0000 0.0000
# 3 16.3772 63.2610 31.7234 0.0000 0.0000 0.0000
# 4 0.0000 0.0000 0.0000 -15.0666 0.0000 0.0000
# 5 0.0000 0.0000 0.0000 0.0000 17.7321 0.0000
# 6 0.0000 0.0000 0.0000 0.0000 0.0000 24.3144
#
#
#
# Elastic Compliance Matrix: (Units=1/GPa)
#
#
# Indices 1 2 3 4 5 6 
#
# 1 0.042239 -0.006705 -0.008434 0.000000 0.000000 0.000000
# 2 -0.006705 0.009834 -0.016148 0.000000 0.000000 0.000000
# 3 -0.008434 -0.016148 0.068078 0.000000 0.000000 0.000000
# 4 0.000000 0.000000 0.000000 -0.066372 0.000000 0.000000
# 5 0.000000 0.000000 0.000000 0.000000 0.056395 0.000000
# 6 0.000000 0.000000 0.000000 0.000000 0.000000 0.041128
#
#
# Mechanical properties :
#
#
# Convention : Reuss Voigt Hill
#
# Bulk Modulus (GPa) = 17.36851 63.07929 40.22390
# Shear Modulus (GPa) = 21.45280 17.16359 19.30819
#
# Velocity S-wave (km/s) = 3.49116 3.12271 3.31206
# Velocity P-wave (km/s) = 5.11064 6.98854 6.12202
#
# Compressibility (1/GPa) = 0.05757545
#
# Stress axis : x y z
#
# Youngs Moduli (GPa) = 23.67462 101.69138 14.68895
#
# Poissons Ratio (x) = 0.68189 0.12389
# Poissons Ratio (y) = 0.15875 0.23720
# Poissons Ratio (z) = 0.19968 1.64212
#
# Static dielectric constant tensor:
#      x y z
#    x 1.627600 0.000000 0.000000 
#    y 0.000000 1.658720 0.000000 
#    z 0.000000 0.000000 1.565200 
# 
# From -- ./inp_files/43207.got.cif
#   From: 2010.05.17/outbox.cif.g08.bks.cpg/sg64_22_cif.got.tgz:43207.got - 2010.06.03 16:29:19.
