data_PCOD9477867
_publ_section_title
;
Structure prediction by ZEFSAII (Michael W. Deem and Ramdas Pophale) SiO2 
 PCOD9477867
Probable space group: C M C A
;
_chemical_formula_sum "Si O2"
_cell_formula_units_Z 80
_cell_length_a 14.376383
_cell_length_b 20.236684
_cell_length_c 12.587488
_cell_angle_alpha 90.000000
_cell_angle_beta 90.000000
_cell_angle_gamma 90.000000
_cell_volume 3662.081910
_symmetry_space_group_name_H-M "C M C A"
_symmetry_group_IT_number 64
_symmetry_cell_setting 'orthorhombic'
loop_
_space_group_symop_operation_xyz
x,y,z
-x,1/2-y,1/2+z
x,-y,-z
-x,1/2+y,1/2-z
-x,-y,-z
x,1/2+y,1/2-z
-x,y,z
x,1/2-y,1/2+z
1/2+x,1/2+y,z
1/2-x,-y,1/2+z
1/2+x,1/2-y,-z
1/2-x,y,1/2-z
1/2-x,1/2-y,-z
1/2+x,y,1/2-z
1/2-x,1/2+y,z
1/2+x,-y,1/2+z
loop_
_atom_site_type_symbol
_atom_site_label
_atom_site_fract_x
_atom_site_fract_y
_atom_site_fract_z
Si Si1 0.337963 0.517980 0.673691
Si Si2 0.897440 0.857763 0.216819
Si Si3 0.390434 0.291463 0.425681
Si Si4 0.697623 0.096185 0.046461
Si Si5 0.891266 0.362130 0.526167
O O1 0.250000 0.514128 0.750000
O O2 0.402830 0.567904 0.737863
O O3 0.360861 0.444386 0.633983
O O4 0.315468 0.556832 0.564309
O O5 0.852043 0.815899 0.311454
O O6 0.861058 0.860272 0.097977
O O7 0.000000 0.828164 0.202851
O O8 0.500000 0.311470 0.430999
O O9 0.338104 0.330466 0.519476
O O10 0.386711 0.213124 0.434661
O O11 0.806926 0.096860 0.077883
O O12 0.000000 0.384827 0.534969
#
# Coordination Sequence:
#
# PCOD9477867 Si02
#       5
#    16  16  16  16  16
#     4  10  19  35  53  74 106 138 182 227 264 326
#     4   9  18  34  57  78 103 146 184 221 275 326
#     4   9  19  34  54  81 109 138 180 226 271 328
#     4  10  20  34  55  79 106 143 182 225 278 313
#     4  10  19  35  56  80 111 146 184 222 270 332
#
# _framework density 21.845497000000002
#
# number of rings (size 3 to 8) (size 9 to 14) (size 15 to 20)
#    0.000    2.400    2.000    0.600    0.000    0.800 
#    3.600    7.000    0.000    0.000    0.000    0.000 
#    0.000    0.000    0.000    0.000    0.000    0.000 
#
# Total GULP energy -222738.676803 kJ/mol
# GULP energy per Si atom -5568.466920 kJ/mol
# Density = 2.179578 g / cm^3
# Si number density = 21.845497 Si / 1000 Ang^3
#
#
#
# Elastic Constant Matrix: (Units=GPa)
#
#
# Indices 1 2 3 4 5 6 
#
# 1 62.2321 1.8798 2.0823 0.0000 0.0000 0.0000
# 2 1.8798 39.4629 13.8403 0.0000 0.0000 0.0000
# 3 2.0823 13.8403 49.2779 0.0000 0.0000 0.0000
# 4 0.0000 0.0000 0.0000 5.3126 0.0000 0.0000
# 5 0.0000 0.0000 0.0000 0.0000 12.8216 0.0000
# 6 0.0000 0.0000 0.0000 0.0000 0.0000 21.5679
#
#
#
# Elastic Compliance Matrix: (Units=1/GPa)
#
#
# Indices 1 2 3 4 5 6 
#
# 1 0.016104 -0.000586 -0.000516 0.000000 0.000000 0.000000
# 2 -0.000586 0.028130 -0.007876 0.000000 0.000000 0.000000
# 3 -0.000516 -0.007876 0.022527 0.000000 0.000000 0.000000
# 4 0.000000 0.000000 0.000000 0.188231 0.000000 0.000000
# 5 0.000000 0.000000 0.000000 0.000000 0.077994 0.000000
# 6 0.000000 0.000000 0.000000 0.000000 0.000000 0.046365
#
#
# Mechanical properties :
#
#
# Convention : Reuss Voigt Hill
#
# Bulk Modulus (GPa) = 20.48963 20.73085 20.61024
# Shear Modulus (GPa) = 12.08968 16.81844 14.45406
#
# Velocity S-wave (km/s) = 2.35504 2.77768 2.57505
# Velocity P-wave (km/s) = 4.09812 4.44946 4.27740
#
# Compressibility (1/GPa) = 0.04880516
#
# Stress axis : x y z
#
# Youngs Moduli (GPa) = 62.09697 35.54865 44.39128
#
# Poissons Ratio (x) = 0.02084 0.02290
# Poissons Ratio (y) = 0.03640 0.34963
# Poissons Ratio (z) = 0.03203 0.27998
#
# Static dielectric constant tensor:
#      x y z
#    x 3.500870 0.000000 0.000000 
#    y 0.000000 1.826530 0.000000 
#    z 0.000000 0.000000 1.811840 
# 
# From -- ./inp_files/23648.got.cif
#   From: 2010.05.17/outbox.cif.g08.bks.cpg/sg64_12_cif.got.tgz:23648.got - 2010.06.03 16:29:19.
