data_PCOD9477177
_publ_section_title
;
Structure prediction by ZEFSAII (Michael W. Deem and Ramdas Pophale) SiO2 
 PCOD9477177
Probable space group: C M C A
;
_chemical_formula_sum "Si O2"
_cell_formula_units_Z 80
_cell_length_a 10.115924
_cell_length_b 9.477630
_cell_length_c 27.924720
_cell_angle_alpha 90.000000
_cell_angle_beta 90.000000
_cell_angle_gamma 90.000000
_cell_volume 2677.282105
_symmetry_space_group_name_H-M "C M C A"
_symmetry_group_IT_number 64
_symmetry_cell_setting 'orthorhombic'
loop_
_space_group_symop_operation_xyz
x,y,z
-x,1/2-y,1/2+z
x,-y,-z
-x,1/2+y,1/2-z
-x,-y,-z
x,1/2+y,1/2-z
-x,y,z
x,1/2-y,1/2+z
1/2+x,1/2+y,z
1/2-x,-y,1/2+z
1/2+x,1/2-y,-z
1/2-x,y,1/2-z
1/2-x,1/2-y,-z
1/2+x,y,1/2-z
1/2-x,1/2+y,z
1/2+x,-y,1/2+z
loop_
_atom_site_type_symbol
_atom_site_label
_atom_site_fract_x
_atom_site_fract_y
_atom_site_fract_z
Si Si1 0.000000 0.632165 0.829687
Si Si2 0.241296 0.438980 0.954128
Si Si3 0.500000 0.146310 0.729883
Si Si4 0.000000 0.220288 0.975214
Si Si5 0.734549 0.848641 0.649257
Si Si6 0.500000 0.673669 0.871385
Si Si7 0.250000 0.650988 0.250000
Si Si8 0.000000 0.370009 0.066398
O O1 0.125968 0.732175 0.838032
O O2 0.000000 0.555009 0.778854
O O3 0.000000 0.557906 0.880270
O O4 0.137777 0.309998 0.964592
O O5 0.301402 0.419318 0.901174
O O6 0.137634 0.566394 0.949583
O O7 0.324476 0.500000 0.000000
O O8 0.500000 0.078861 0.677139
O O9 0.373673 0.246960 0.738633
O O10 0.000000 0.127210 0.926523
O O11 0.000000 0.224056 0.034325
O O12 0.871017 0.769634 0.637979
O O13 0.739300 0.932845 0.699731
#
# Coordination Sequence:
#
# PCOD9477177 Si02
#       8
#     8  16   8   8  16   8   8   8
#     4  10  19  28  42  73 101 113 137 193 239 261
#     4   8  14  27  46  64  85 120 158 186 214 264
#     4   8  14  24  40  63  88 110 140 184 226 254
#     4   7  12  24  44  67  84 108 157 198 209 243
#     4   9  16  28  47  70  91 116 154 190 221 264
#     4   8  13  26  47  65  80 114 159 186 205 257
#     4   8  14  24  42  66  88 112 150 190 216 254
#     4   9  16  28  46  68  93 119 150 187 227 267
#
# _framework density 29.881049999999998
#
# number of rings (size 3 to 8) (size 9 to 14) (size 15 to 20)
#    0.000    3.600    0.000    1.800    0.000    0.000 
#    0.000    9.500    0.000    8.400    0.000    0.000 
#    0.000    0.000    0.000    0.000    0.000    0.000 
#
# Total GULP energy -222963.386500 kJ/mol
# GULP energy per Si atom -5574.084662 kJ/mol
# Density = 2.981304 g / cm^3
# Si number density = 29.881050 Si / 1000 Ang^3
#
#
#
# Elastic Constant Matrix: (Units=GPa)
#
#
# Indices 1 2 3 4 5 6 
#
# 1 123.5714 30.9683 31.1879 0.0000 0.0000 0.0000
# 2 30.9683 45.6679 6.6360 0.0000 0.0000 0.0000
# 3 31.1879 6.6360 289.5372 0.0000 0.0000 0.0000
# 4 0.0000 0.0000 0.0000 17.7578 0.0000 0.0000
# 5 0.0000 0.0000 0.0000 0.0000 14.6047 0.0000
# 6 0.0000 0.0000 0.0000 0.0000 0.0000 59.7346
#
#
#
# Elastic Compliance Matrix: (Units=1/GPa)
#
#
# Indices 1 2 3 4 5 6 
#
# 1 0.009990 -0.006640 -0.000924 0.000000 0.000000 0.000000
# 2 -0.006640 0.026384 0.000111 0.000000 0.000000 0.000000
# 3 -0.000924 0.000111 0.003551 0.000000 0.000000 0.000000
# 4 0.000000 0.000000 0.000000 0.056313 0.000000 0.000000
# 5 0.000000 0.000000 0.000000 0.000000 0.068471 0.000000
# 6 0.000000 0.000000 0.000000 0.000000 0.000000 0.016741
#
#
# Mechanical properties :
#
#
# Convention : Reuss Voigt Hill
#
# Bulk Modulus (GPa) = 39.97167 66.26231 53.11699
# Shear Modulus (GPa) = 24.42654 44.41836 34.42245
#
# Velocity S-wave (km/s) = 2.86223 3.85971 3.39777
# Velocity P-wave (km/s) = 4.93245 6.48742 5.76263
#
# Compressibility (1/GPa) = 0.02501772
#
# Stress axis : x y z
#
# Youngs Moduli (GPa) = 100.10312 37.90199 281.62900
#
# Poissons Ratio (x) = 0.25167 0.26019
# Poissons Ratio (y) = 0.66468 -0.03113
# Poissons Ratio (z) = 0.09248 -0.00419
#
# Static dielectric constant tensor:
#      x y z
#    x 2.472760 0.000000 0.000000 
#    y 0.000000 2.350450 0.000000 
#    z 0.000000 0.000000 2.666400 
# 
# From -- ./inp_files/44040.got.cif
#   From: 2010.05.17/outbox.cif.g08.bks.cpg/sg64_23_cif.got.tgz:44040.got - 2010.06.03 16:29:19.
