data_PCOD9477161
_publ_section_title
;
Structure prediction by ZEFSAII (Michael W. Deem and Ramdas Pophale) SiO2 
 PCOD9477161
Probable space group: C M C A
;
_chemical_formula_sum "Si O2"
_cell_formula_units_Z 72
_cell_length_a 25.157483
_cell_length_b 14.794282
_cell_length_c 7.584939
_cell_angle_alpha 90.000000
_cell_angle_beta 90.000000
_cell_angle_gamma 90.000000
_cell_volume 2823.014917
_symmetry_space_group_name_H-M "C M C A"
_symmetry_group_IT_number 64
_symmetry_cell_setting 'orthorhombic'
loop_
_space_group_symop_operation_xyz
x,y,z
-x,1/2-y,1/2+z
x,-y,-z
-x,1/2+y,1/2-z
-x,-y,-z
x,1/2+y,1/2-z
-x,y,z
x,1/2-y,1/2+z
1/2+x,1/2+y,z
1/2-x,-y,1/2+z
1/2+x,1/2-y,-z
1/2-x,y,1/2-z
1/2-x,1/2-y,-z
1/2+x,y,1/2-z
1/2-x,1/2+y,z
1/2+x,-y,1/2+z
loop_
_atom_site_type_symbol
_atom_site_label
_atom_site_fract_x
_atom_site_fract_y
_atom_site_fract_z
Si Si1 0.000000 0.887069 0.852292
Si Si2 0.383585 0.313514 0.270951
Si Si3 0.000000 0.186552 0.748906
Si Si4 0.383456 0.890764 0.631096
Si Si5 0.704878 0.500000 0.000000
Si Si6 0.775358 0.655846 0.939515
O O1 0.000000 0.795400 0.738916
O O2 0.942213 0.930621 0.829778
O O3 0.000000 0.854137 0.055811
O O4 0.443244 0.335460 0.336126
O O5 0.377178 0.203821 0.264859
O O6 0.337476 0.344806 0.401702
O O7 0.378525 0.353783 0.073153
O O8 0.339335 0.967783 0.646877
O O9 0.747086 0.578262 0.044515
O O10 0.750000 0.636966 0.750000
O O11 0.750000 0.750000 0.000000
#
# Coordination Sequence:
#
# PCOD9477161 Si02
#       6
#     8  16   8  16   8  16
#     4   8  16  31  56  88 116 158 193 255 298 360
#     4  10  18  40  58  89 119 160 200 255 298 365
#     4   8  16  28  62  83 112 154 203 240 304 353
#     4  10  20  37  61  88 125 156 209 248 309 367
#     4  12  24  37  58  93 122 162 206 248 308 378
#     4  12  24  43  64  89 125 164 207 256 314 370
#
# _framework density 25.504646000000001
#
# number of rings (size 3 to 8) (size 9 to 14) (size 15 to 20)
#    0.000    1.778    4.444    0.000    0.000    1.333 
#    4.000    0.000    0.000    0.667    0.000    0.000 
#    0.000    0.000    0.000    0.000    0.000    0.000 
#
# Total GULP energy -200709.632015 kJ/mol
# GULP energy per Si atom -5575.267556 kJ/mol
# Density = 2.544660 g / cm^3
# Si number density = 25.504646 Si / 1000 Ang^3
#
#
#
# Elastic Constant Matrix: (Units=GPa)
#
#
# Indices 1 2 3 4 5 6 
#
# 1 218.5200 31.8715 60.4832 0.0000 0.0000 0.0000
# 2 31.8715 104.5736 5.3313 0.0000 0.0000 0.0000
# 3 60.4832 5.3313 52.0716 0.0000 0.0000 0.0000
# 4 0.0000 0.0000 0.0000 1.8787 0.0000 0.0000
# 5 0.0000 0.0000 0.0000 0.0000 19.3316 0.0000
# 6 0.0000 0.0000 0.0000 0.0000 0.0000 24.5495
#
#
#
# Elastic Compliance Matrix: (Units=1/GPa)
#
#
# Indices 1 2 3 4 5 6 
#
# 1 0.007046 -0.001739 -0.008006 0.000000 0.000000 0.000000
# 2 -0.001739 0.010042 0.000992 0.000000 0.000000 0.000000
# 3 -0.008006 0.000992 0.028402 0.000000 0.000000 0.000000
# 4 0.000000 0.000000 0.000000 0.532271 0.000000 0.000000
# 5 0.000000 0.000000 0.000000 0.000000 0.051729 0.000000
# 6 0.000000 0.000000 0.000000 0.000000 0.000000 0.040734
#
#
# Mechanical properties :
#
#
# Convention : Reuss Voigt Hill
#
# Bulk Modulus (GPa) = 35.73515 63.39303 49.56409
# Shear Modulus (GPa) = 7.17300 27.65057 17.41179
#
# Velocity S-wave (km/s) = 1.67885 3.29620 2.61567
# Velocity P-wave (km/s) = 4.21897 6.27662 5.34770
#
# Compressibility (1/GPa) = 0.02798365
#
# Stress axis : x y z
#
# Youngs Moduli (GPa) = 141.92763 99.58027 35.20881
#
# Poissons Ratio (x) = 0.17319 0.28188
# Poissons Ratio (y) = 0.24685 -0.03493
# Poissons Ratio (z) = 1.13627 -0.09879
#
# Static dielectric constant tensor:
#      x y z
#    x 1.998820 0.000000 0.000000 
#    y 0.000000 1.991800 0.000000 
#    z 0.000000 0.000000 1.925520 
# 
# From -- ./inp_files/10052.got.cif
#   From: 2010.05.17/outbox.cif.g08.bks.cpg/sg64_6_cif.got.tgz:10052.got - 2010.06.03 16:29:19.
