data_PCOD9477938
_publ_section_title
;
Structure prediction by ZEFSAII (Michael W. Deem and Ramdas Pophale) SiO2 
 PCOD9477938
Probable space group: C M C A
;
_chemical_formula_sum "Si O2"
_cell_formula_units_Z 128
_cell_length_a 23.801884
_cell_length_b 21.924009
_cell_length_c 11.462883
_cell_angle_alpha 90.000000
_cell_angle_beta 90.000000
_cell_angle_gamma 90.000000
_cell_volume 5981.707404
_symmetry_space_group_name_H-M "C M C A"
_symmetry_group_IT_number 64
_symmetry_cell_setting 'orthorhombic'
loop_
_space_group_symop_operation_xyz
x,y,z
-x,1/2-y,1/2+z
x,-y,-z
-x,1/2+y,1/2-z
-x,-y,-z
x,1/2+y,1/2-z
-x,y,z
x,1/2-y,1/2+z
1/2+x,1/2+y,z
1/2-x,-y,1/2+z
1/2+x,1/2-y,-z
1/2-x,y,1/2-z
1/2-x,1/2-y,-z
1/2+x,y,1/2-z
1/2-x,1/2+y,z
1/2+x,-y,1/2+z
loop_
_atom_site_type_symbol
_atom_site_label
_atom_site_fract_x
_atom_site_fract_y
_atom_site_fract_z
Si Si1 0.937533 0.338603 0.858452
Si Si2 0.375695 0.960545 0.113149
Si Si3 0.215472 0.874670 0.509001
Si Si4 0.560119 0.224250 0.792165
Si Si5 0.352970 0.735909 0.523184
Si Si6 0.657994 0.577789 0.272236
Si Si7 0.840776 0.618343 0.495693
Si Si8 0.563007 0.099301 0.674103
O O1 0.943163 0.293442 0.749643
O O2 0.899920 0.297060 0.943178
O O3 0.901125 0.396182 0.821868
O O4 0.000000 0.354075 0.900653
O O5 0.420301 0.928950 0.199524
O O6 0.341667 0.007037 0.195791
O O7 0.332862 0.911130 0.060145
O O8 0.396114 0.000000 0.000000
O O9 0.202961 0.803096 0.494976
O O10 0.204992 0.890950 0.645389
O O11 0.276704 0.892761 0.464967
O O12 0.500000 0.213085 0.856984
O O13 0.560618 0.172415 0.693942
O O14 0.620173 0.221502 0.852146
O O15 0.348407 0.807974 0.506283
O O16 0.658037 0.593782 0.136800
O O17 0.888649 0.589334 0.577842
O O18 0.500000 0.078904 0.640516
#
# Coordination Sequence:
#
# PCOD9477938 Si02
#       8
#    16  16  16  16  16  16  16  16
#     4  10  20  35  61  96 132 171 217 269 332 401
#     4  10  23  49  70  95 127 174 234 283 322 390
#     4  10  23  44  66  94 129 175 227 275 329 394
#     4  10  19  35  60  91 131 175 213 261 329 406
#     4  11  20  37  62  94 133 172 218 274 336 397
#     4  10  23  43  66  96 130 171 228 276 333 395
#     4  12  24  41  65 102 135 171 213 280 347 406
#     4  11  25  44  67  98 136 177 223 275 340 405
#
# _framework density 21.398572999999999
#
# number of rings (size 3 to 8) (size 9 to 14) (size 15 to 20)
#    0.000    1.500    3.750    1.125    0.000    2.750 
#   11.250    0.625    0.000    0.000    0.000    0.000 
#    0.000    0.000    0.000    0.000    0.000    0.000 
#
# Total GULP energy -356775.626404 kJ/mol
# GULP energy per Si atom -5574.619163 kJ/mol
# Density = 2.134987 g / cm^3
# Si number density = 21.398573 Si / 1000 Ang^3
#
#
#
# Elastic Constant Matrix: (Units=GPa)
#
#
# Indices 1 2 3 4 5 6 
#
# 1 133.5046 9.4796 53.4447 0.0000 0.0000 0.0000
# 2 9.4796 67.0668 30.5328 0.0000 0.0000 0.0000
# 3 53.4447 30.5328 82.7282 0.0000 0.0000 0.0000
# 4 0.0000 0.0000 0.0000 29.7510 0.0000 0.0000
# 5 0.0000 0.0000 0.0000 0.0000 -19.1427 0.0000
# 6 0.0000 0.0000 0.0000 0.0000 0.0000 5.6190
#
#
#
# Elastic Compliance Matrix: (Units=1/GPa)
#
#
# Indices 1 2 3 4 5 6 
#
# 1 0.010299 0.001891 -0.007351 0.000000 0.000000 0.000000
# 2 0.001891 0.018269 -0.007964 0.000000 0.000000 0.000000
# 3 -0.007351 -0.007964 0.019776 0.000000 0.000000 0.000000
# 4 0.000000 0.000000 0.000000 0.033612 0.000000 0.000000
# 5 0.000000 0.000000 0.000000 0.000000 -0.052239 0.000000
# 6 0.000000 0.000000 0.000000 0.000000 0.000000 0.177969
#
#
# Mechanical properties :
#
#
# Convention : Reuss Voigt Hill
#
# Bulk Modulus (GPa) = 46.52200 52.24595 49.38398
# Shear Modulus (GPa) = 20.68673 15.90164 18.29418
#
# Velocity S-wave (km/s) = 3.11261 2.72897 2.92708
# Velocity P-wave (km/s) = 5.89115 5.86501 5.87810
#
# Compressibility (1/GPa) = 0.02149520
#
# Stress axis : x y z
#
# Youngs Moduli (GPa) = 97.09668 54.73745 50.56538
#
# Poissons Ratio (x) = -0.10351 0.37173
# Poissons Ratio (y) = -0.18362 0.40272
# Poissons Ratio (z) = 0.71379 0.43594
#
# Static dielectric constant tensor:
#      x y z
#    x 1.813290 0.000000 0.000000 
#    y 0.000000 1.757620 0.000000 
#    z 0.000000 0.000000 1.864180 
# 
# From -- ./inp_files/18691.got.cif
#   From: 2010.05.17/outbox.cif.g08.bks.cpg/sg64_10_cif.got.tgz:18691.got - 2010.06.03 16:29:19.
