data_PCOD9477114
_publ_section_title
;
Structure prediction by ZEFSAII (Michael W. Deem and Ramdas Pophale) SiO2 
 PCOD9477114
Probable space group: C M C A
;
_chemical_formula_sum "Si O2"
_cell_formula_units_Z 112
_cell_length_a 21.994807
_cell_length_b 10.508404
_cell_length_c 19.143690
_cell_angle_alpha 90.000000
_cell_angle_beta 90.000000
_cell_angle_gamma 90.000000
_cell_volume 4424.687155
_symmetry_space_group_name_H-M "C M C A"
_symmetry_group_IT_number 64
_symmetry_cell_setting 'orthorhombic'
loop_
_space_group_symop_operation_xyz
x,y,z
-x,1/2-y,1/2+z
x,-y,-z
-x,1/2+y,1/2-z
-x,-y,-z
x,1/2+y,1/2-z
-x,y,z
x,1/2-y,1/2+z
1/2+x,1/2+y,z
1/2-x,-y,1/2+z
1/2+x,1/2-y,-z
1/2-x,y,1/2-z
1/2-x,1/2-y,-z
1/2+x,y,1/2-z
1/2-x,1/2+y,z
1/2+x,-y,1/2+z
loop_
_atom_site_type_symbol
_atom_site_label
_atom_site_fract_x
_atom_site_fract_y
_atom_site_fract_z
Si Si1 0.834128 0.863630 0.715637
Si Si2 0.065531 0.489054 0.145180
Si Si3 0.237462 0.788091 0.106888
Si Si4 0.147822 0.001550 0.857236
Si Si5 0.836944 0.647383 0.993691
Si Si6 0.429912 0.284229 0.932404
Si Si7 0.066272 0.668506 0.721184
O O1 0.779621 0.783094 0.679630
O O2 0.824702 0.958990 0.780897
O O3 0.882901 0.764655 0.747324
O O4 0.873848 0.926516 0.651839
O O5 0.069357 0.352599 0.107410
O O6 0.060438 0.447700 0.225856
O O7 0.000000 0.545318 0.121858
O O8 0.304748 0.822301 0.081350
O O9 0.201515 0.922129 0.105016
O O10 0.212238 0.689451 0.050077
O O11 0.113086 0.888818 0.896427
O O12 0.095378 0.106728 0.846373
O O13 0.894987 0.738981 0.001747
O O14 0.853024 0.500000 0.000000
O O15 0.500000 0.325968 0.938234
O O16 0.000000 0.727890 0.714661
#
# Coordination Sequence:
#
# PCOD9477114 Si02
#       7
#    16  16  16  16  16  16  16
#     4  10  18  36  63  98 140 177 227 289 351 420
#     4   9  17  29  53  88 131 181 227 269 332 412
#     4  10  25  45  73 103 135 189 241 288 354 425
#     4  10  21  37  66 104 146 179 225 293 357 425
#     4  11  26  49  76  96 134 188 248 298 345 417
#     4  11  23  41  69 103 141 184 235 294 357 412
#     4   9  16  28  52  89 137 189 226 264 338 423
#
# _framework density 25.312522000000001
#
# number of rings (size 3 to 8) (size 9 to 14) (size 15 to 20)
#    0.000    2.000    1.429    1.714    4.000    1.429 
#    0.000    5.714    3.143    0.000    0.000    0.000 
#    0.000    0.000    0.000    0.000    0.000    0.000 
#
# Total GULP energy -312460.153182 kJ/mol
# GULP energy per Si atom -5579.645593 kJ/mol
# Density = 2.525491 g / cm^3
# Si number density = 25.312522 Si / 1000 Ang^3
#
#
#
# Elastic Constant Matrix: (Units=GPa)
#
#
# Indices 1 2 3 4 5 6 
#
# 1 85.5699 2.1700 19.5929 0.0000 0.0000 0.0000
# 2 2.1700 67.7301 10.4739 0.0000 0.0000 0.0000
# 3 19.5929 10.4739 37.2281 0.0000 0.0000 0.0000
# 4 0.0000 0.0000 0.0000 30.9490 0.0000 0.0000
# 5 0.0000 0.0000 0.0000 0.0000 4.8916 0.0000
# 6 0.0000 0.0000 0.0000 0.0000 0.0000 11.1675
#
#
#
# Elastic Compliance Matrix: (Units=1/GPa)
#
#
# Indices 1 2 3 4 5 6 
#
# 1 0.013318 0.000687 -0.007203 0.000000 0.000000 0.000000
# 2 0.000687 0.015472 -0.004714 0.000000 0.000000 0.000000
# 3 -0.007203 -0.004714 0.031978 0.000000 0.000000 0.000000
# 4 0.000000 0.000000 0.000000 0.032311 0.000000 0.000000
# 5 0.000000 0.000000 0.000000 0.000000 0.204432 0.000000
# 6 0.000000 0.000000 0.000000 0.000000 0.000000 0.089546
#
#
# Mechanical properties :
#
#
# Convention : Reuss Voigt Hill
#
# Bulk Modulus (GPa) = 26.10396 28.33351 27.21874
# Shear Modulus (GPa) = 11.84030 19.95437 15.89734
#
# Velocity S-wave (km/s) = 2.16513 2.81075 2.50880
# Velocity P-wave (km/s) = 4.07252 4.66385 4.37818
#
# Compressibility (1/GPa) = 0.03830836
#
# Stress axis : x y z
#
# Youngs Moduli (GPa) = 75.08588 64.63488 31.27107
#
# Poissons Ratio (x) = -0.04441 0.22523
# Poissons Ratio (y) = -0.05159 0.14743
# Poissons Ratio (z) = 0.54081 0.30472
#
# Static dielectric constant tensor:
#      x y z
#    x 2.078200 0.000000 0.000000 
#    y 0.000000 2.013970 0.000000 
#    z 0.000000 0.000000 2.057290 
# 
# From -- ./inp_files/41555.got.cif
#   From: 2010.05.17/outbox.cif.g08.bks.cpg/sg64_21_cif.got.tgz:41555.got - 2010.06.03 16:29:19.
