data_PCOD9477298
_publ_section_title
;
Structure prediction by ZEFSAII (Michael W. Deem and Ramdas Pophale) SiO2 
 PCOD9477298
Probable space group: C M C A
;
_chemical_formula_sum "Si O2"
_cell_formula_units_Z 96
_cell_length_a 8.720486
_cell_length_b 26.124735
_cell_length_c 25.783765
_cell_angle_alpha 90.000000
_cell_angle_beta 90.000000
_cell_angle_gamma 90.000000
_cell_volume 5874.067290
_symmetry_space_group_name_H-M "C M C A"
_symmetry_group_IT_number 64
_symmetry_cell_setting 'orthorhombic'
loop_
_space_group_symop_operation_xyz
x,y,z
-x,1/2-y,1/2+z
x,-y,-z
-x,1/2+y,1/2-z
-x,-y,-z
x,1/2+y,1/2-z
-x,y,z
x,1/2-y,1/2+z
1/2+x,1/2+y,z
1/2-x,-y,1/2+z
1/2+x,1/2-y,-z
1/2-x,y,1/2-z
1/2-x,1/2-y,-z
1/2+x,y,1/2-z
1/2-x,1/2+y,z
1/2+x,-y,1/2+z
loop_
_atom_site_type_symbol
_atom_site_label
_atom_site_fract_x
_atom_site_fract_y
_atom_site_fract_z
Si Si1 0.815923 0.254711 0.808384
Si Si2 0.316948 0.360336 0.808311
Si Si3 0.315306 0.358604 0.192043
Si Si4 0.323791 0.937919 0.002428
Si Si5 0.815221 0.441959 0.887328
Si Si6 0.317080 0.444125 0.110328
O O1 0.500000 0.260237 0.692596
O O2 0.750000 0.253206 0.750000
O O3 0.742673 0.306060 0.831184
O O4 0.776301 0.198270 0.829408
O O5 0.500000 0.360102 0.805538
O O6 0.250000 0.365217 0.750000
O O7 0.256266 0.406258 0.843622
O O8 0.500000 0.360304 0.195847
O O9 0.250000 0.364498 0.250000
O O10 0.265359 0.403518 0.153591
O O11 0.500000 0.921315 0.009681
O O12 0.226671 0.924432 0.052861
O O13 0.269003 0.922593 0.945112
O O14 0.324857 0.000000 0.000000
O O15 0.760062 0.500526 0.881808
O O16 0.000000 0.440863 0.885177
O O17 0.500000 0.450239 0.113673
#
# Coordination Sequence:
#
# PCOD9477298 Si02
#       6
#    16  16  16  16  16  16
#     4   9  16  30  49  68  92 123 159 195 231 274
#     4  11  21  33  50  73  98 125 158 195 238 284
#     4   9  19  32  48  71  98 128 159 193 234 280
#     4   8  16  31  49  68  91 123 162 198 236 282
#     4  10  20  34  50  70  97 128 161 197 238 284
#     4  10  19  31  48  73 101 127 159 198 239 283
#
# _framework density 16.343021
#
# number of rings (size 3 to 8) (size 9 to 14) (size 15 to 20)
#    0.000    2.500    0.000    5.000    0.000    6.333 
#    0.000    1.667    0.000    1.000    0.000    0.000 
#    0.000    0.000    0.000    0.000    0.000    0.000 
#
# Total GULP energy -267379.495963 kJ/mol
# GULP energy per Si atom -5570.406166 kJ/mol
# Density = 1.630582 g / cm^3
# Si number density = 16.343021 Si / 1000 Ang^3
#
#
#
# Elastic Constant Matrix: (Units=GPa)
#
#
# Indices 1 2 3 4 5 6 
#
# 1 71.5713 44.7975 38.8769 0.0000 0.0000 0.0000
# 2 44.7975 112.1320 68.1870 0.0000 0.0000 0.0000
# 3 38.8769 68.1870 97.0444 0.0000 0.0000 0.0000
# 4 0.0000 0.0000 0.0000 -3.9679 0.0000 0.0000
# 5 0.0000 0.0000 0.0000 0.0000 25.7763 0.0000
# 6 0.0000 0.0000 0.0000 0.0000 0.0000 19.9844
#
#
#
# Elastic Compliance Matrix: (Units=1/GPa)
#
#
# Indices 1 2 3 4 5 6 
#
# 1 0.019517 -0.005312 -0.004086 0.000000 0.000000 0.000000
# 2 -0.005312 0.017017 -0.009829 0.000000 0.000000 0.000000
# 3 -0.004086 -0.009829 0.018847 0.000000 0.000000 0.000000
# 4 0.000000 0.000000 0.000000 -0.252020 0.000000 0.000000
# 5 0.000000 0.000000 0.000000 0.000000 0.038795 0.000000
# 6 0.000000 0.000000 0.000000 0.000000 0.000000 0.050039
#
#
# Mechanical properties :
#
#
# Convention : Reuss Voigt Hill
#
# Bulk Modulus (GPa) = 59.07631 64.94118 62.00875
# Shear Modulus (GPa) = -78.48282 16.95096 -30.76593
#
# Velocity S-wave (km/s) = -6.93732 3.22405 -4.34350
# Velocity P-wave (km/s) = 5.28606 7.32680 3.58744
#
# Compressibility (1/GPa) = 0.01692726
#
# Stress axis : x y z
#
# Youngs Moduli (GPa) = 51.23844 58.76400 53.05772
#
# Poissons Ratio (x) = 0.31218 0.21678
# Poissons Ratio (y) = 0.27220 0.52149
# Poissons Ratio (z) = 0.20935 0.57757
#
# Static dielectric constant tensor:
#      x y z
#    x 1.548790 0.000000 0.000000 
#    y 0.000000 1.564130 0.000000 
#    z 0.000000 0.000000 1.565850 
# 
# From -- ./inp_files/48351.got.cif
#   From: 2010.05.17/outbox.cif.g08.bks.cpg/sg64_25_cif.got.tgz:48351.got - 2010.06.03 16:29:19.
