data_PCOD9477709
_publ_section_title
;
Structure prediction by ZEFSAII (Michael W. Deem and Ramdas Pophale) SiO2 
 PCOD9477709
Probable space group: C M C A
;
_chemical_formula_sum "Si O2"
_cell_formula_units_Z 88
_cell_length_a 28.099910
_cell_length_b 8.185401
_cell_length_c 20.173994
_cell_angle_alpha 90.000000
_cell_angle_beta 90.000000
_cell_angle_gamma 90.000000
_cell_volume 4640.200820
_symmetry_space_group_name_H-M "C M C A"
_symmetry_group_IT_number 64
_symmetry_cell_setting 'orthorhombic'
loop_
_space_group_symop_operation_xyz
x,y,z
-x,1/2-y,1/2+z
x,-y,-z
-x,1/2+y,1/2-z
-x,-y,-z
x,1/2+y,1/2-z
-x,y,z
x,1/2-y,1/2+z
1/2+x,1/2+y,z
1/2-x,-y,1/2+z
1/2+x,1/2-y,-z
1/2-x,y,1/2-z
1/2-x,1/2-y,-z
1/2+x,y,1/2-z
1/2-x,1/2+y,z
1/2+x,-y,1/2+z
loop_
_atom_site_type_symbol
_atom_site_label
_atom_site_fract_x
_atom_site_fract_y
_atom_site_fract_z
Si Si1 0.285261 0.146778 0.953465
Si Si2 0.250000 0.586203 0.250000
Si Si3 0.883469 0.800749 0.926318
Si Si4 0.109991 0.667167 0.585545
Si Si5 0.054859 0.007915 0.419048
Si Si6 0.710027 0.147160 0.655075
O O1 0.327543 0.254112 0.921806
O O2 0.250341 0.086409 0.895945
O O3 0.250000 0.250000 0.000000
O O4 0.305055 0.000000 0.000000
O O5 0.291398 0.480972 0.215291
O O6 0.271600 0.694167 0.307712
O O7 0.913466 0.648246 0.899289
O O8 0.900309 0.976162 0.898481
O O9 0.889188 0.817996 0.005855
O O10 0.162424 0.686155 0.615709
O O11 0.076596 0.819214 0.605157
O O12 0.000000 0.992484 0.398778
O O13 0.055734 0.000000 0.500000
#
# Coordination Sequence:
#
# PCOD9477709 Si02
#       6
#    16   8  16  16  16  16
#     4  12  21  31  53  84 114 149 185 237 290 340
#     4  10  24  38  50  70 114 158 198 230 276 338
#     4  10  20  31  50  86 116 147 185 224 291 344
#     4  10  19  34  53  78 112 145 188 233 275 339
#     4   9  19  34  52  79 118 155 184 222 285 357
#     4  11  22  37  52  77 112 153 196 230 279 346
#
# _framework density 18.964697000000001
#
# number of rings (size 3 to 8) (size 9 to 14) (size 15 to 20)
#    0.000    1.636    1.818    4.909    2.545    0.727 
#    0.000    3.636    0.000    0.000    0.000    1.273 
#    0.000    0.000    0.000    0.000    0.000    0.000 
#
# Total GULP energy -245246.774546 kJ/mol
# GULP energy per Si atom -5573.790331 kJ/mol
# Density = 1.892153 g / cm^3
# Si number density = 18.964697 Si / 1000 Ang^3
#
#
#
# Elastic Constant Matrix: (Units=GPa)
#
#
# Indices 1 2 3 4 5 6 
#
# 1 110.2870 77.6679 4.7428 0.0000 0.0000 0.0000
# 2 77.6679 149.5856 27.3417 0.0000 0.0000 0.0000
# 3 4.7428 27.3417 35.1564 0.0000 0.0000 0.0000
# 4 0.0000 0.0000 0.0000 17.3997 0.0000 0.0000
# 5 0.0000 0.0000 0.0000 0.0000 3.1456 0.0000
# 6 0.0000 0.0000 0.0000 0.0000 0.0000 18.2149
#
#
#
# Elastic Compliance Matrix: (Units=1/GPa)
#
#
# Indices 1 2 3 4 5 6 
#
# 1 0.014926 -0.008605 0.004679 0.000000 0.000000 0.000000
# 2 -0.008605 0.012754 -0.008758 0.000000 0.000000 0.000000
# 3 0.004679 -0.008758 0.034624 0.000000 0.000000 0.000000
# 4 0.000000 0.000000 0.000000 0.057472 0.000000 0.000000
# 5 0.000000 0.000000 0.000000 0.000000 0.317906 0.000000
# 6 0.000000 0.000000 0.000000 0.000000 0.000000 0.054900
#
#
# Mechanical properties :
#
#
# Convention : Reuss Voigt Hill
#
# Bulk Modulus (GPa) = 27.07420 57.17041 42.12230
# Shear Modulus (GPa) = 9.42929 20.10382 14.76655
#
# Velocity S-wave (km/s) = 2.23222 3.25940 2.79343
# Velocity P-wave (km/s) = 4.57721 6.66153 5.71519
#
# Compressibility (1/GPa) = 0.03693553
#
# Stress axis : x y z
#
# Youngs Moduli (GPa) = 66.99696 78.40744 28.88134
#
# Poissons Ratio (x) = 0.67470 -0.13513
# Poissons Ratio (y) = 0.57652 0.25294
# Poissons Ratio (z) = -0.31346 0.68669
#
# Static dielectric constant tensor:
#      x y z
#    x 1.650670 0.000000 0.000000 
#    y 0.000000 1.749090 0.000000 
#    z 0.000000 0.000000 1.593170 
# 
# From -- ./inp_files/41354.got.cif
#   From: 2010.05.17/outbox.cif.g08.bks.cpg/sg64_21_cif.got.tgz:41354.got - 2010.06.03 16:29:19.
