data_PCOD9477885
_publ_section_title
;
Structure prediction by ZEFSAII (Michael W. Deem and Ramdas Pophale) SiO2 
 PCOD9477885
Probable space group: C M C A
;
_chemical_formula_sum "Si O2"
_cell_formula_units_Z 104
_cell_length_a 23.405560
_cell_length_b 17.537909
_cell_length_c 14.349040
_cell_angle_alpha 90.000000
_cell_angle_beta 90.000000
_cell_angle_gamma 90.000000
_cell_volume 5890.059678
_symmetry_space_group_name_H-M "C M C A"
_symmetry_group_IT_number 64
_symmetry_cell_setting 'orthorhombic'
loop_
_space_group_symop_operation_xyz
x,y,z
-x,1/2-y,1/2+z
x,-y,-z
-x,1/2+y,1/2-z
-x,-y,-z
x,1/2+y,1/2-z
-x,y,z
x,1/2-y,1/2+z
1/2+x,1/2+y,z
1/2-x,-y,1/2+z
1/2+x,1/2-y,-z
1/2-x,y,1/2-z
1/2-x,1/2-y,-z
1/2+x,y,1/2-z
1/2-x,1/2+y,z
1/2+x,-y,1/2+z
loop_
_atom_site_type_symbol
_atom_site_label
_atom_site_fract_x
_atom_site_fract_y
_atom_site_fract_z
Si Si1 0.644991 0.191609 0.309718
Si Si2 0.067723 0.655532 0.475743
Si Si3 0.760889 0.186358 0.640940
Si Si4 0.136679 0.000000 0.000000
Si Si5 0.358237 0.234878 0.098707
Si Si6 0.282769 0.041567 0.339425
Si Si7 0.186743 0.914880 0.512909
O O1 0.590458 0.182617 0.375087
O O2 0.689767 0.249349 0.357895
O O3 0.630700 0.221043 0.207493
O O4 0.678343 0.111310 0.302332
O O5 0.097831 0.574196 0.491407
O O6 0.094716 0.713273 0.550322
O O7 0.000000 0.651062 0.481104
O O8 0.750000 0.169815 0.750000
O O9 0.703570 0.222275 0.596053
O O10 0.783620 0.115493 0.581449
O O11 0.176413 0.993158 0.092325
O O12 0.353377 0.153143 0.048012
O O13 0.250000 0.007963 0.250000
O O14 0.235642 0.076072 0.409064
O O15 0.162002 0.000000 0.500000
#
# Coordination Sequence:
#
# PCOD9477885 Si02
#       7
#    16  16  16   8  16  16  16
#     4  10  19  36  61  86 114 158 198 249 299 361
#     4  11  24  42  64  84 117 162 210 256 292 348
#     4  10  19  35  56  88 121 152 192 241 307 373
#     4  10  23  40  60  94 124 156 197 246 300 362
#     4  11  21  38  60  87 119 155 201 245 300 363
#     4  11  19  34  55  87 124 157 185 231 301 371
#     4  12  22  33  53  87 128 158 187 231 293 376
#
# _framework density 17.656866999999998
#
# number of rings (size 3 to 8) (size 9 to 14) (size 15 to 20)
#    0.000    1.231    5.385    3.000    0.000    1.231 
#    2.769    0.000    0.000    0.462    0.000    0.000 
#    0.000    0.000    0.000    0.154    0.000    0.000 
#
# Total GULP energy -290489.938884 kJ/mol
# GULP energy per Si atom -5586.344979 kJ/mol
# Density = 1.761668 g / cm^3
# Si number density = 17.656867 Si / 1000 Ang^3
#
#
#
# Elastic Constant Matrix: (Units=GPa)
#
#
# Indices 1 2 3 4 5 6 
#
# 1 117.1948 51.0372 59.4472 0.0000 0.0000 0.0000
# 2 51.0372 105.7669 47.1248 0.0000 0.0000 0.0000
# 3 59.4472 47.1248 118.8183 0.0000 0.0000 0.0000
# 4 0.0000 0.0000 0.0000 28.1477 0.0000 0.0000
# 5 0.0000 0.0000 0.0000 0.0000 13.2240 0.0000
# 6 0.0000 0.0000 0.0000 0.0000 0.0000 13.6810
#
#
#
# Elastic Compliance Matrix: (Units=1/GPa)
#
#
# Indices 1 2 3 4 5 6 
#
# 1 0.012692 -0.004002 -0.004762 0.000000 0.000000 0.000000
# 2 -0.004002 0.012746 -0.003053 0.000000 0.000000 0.000000
# 3 -0.004762 -0.003053 0.012010 0.000000 0.000000 0.000000
# 4 0.000000 0.000000 0.000000 0.035527 0.000000 0.000000
# 5 0.000000 0.000000 0.000000 0.000000 0.075620 0.000000
# 6 0.000000 0.000000 0.000000 0.000000 0.000000 0.073094
#
#
# Mechanical properties :
#
#
# Convention : Reuss Voigt Hill
#
# Bulk Modulus (GPa) = 72.39942 72.99982 72.69962
# Shear Modulus (GPa) = 20.00574 23.28858 21.64716
#
# Velocity S-wave (km/s) = 3.36970 3.63568 3.50521
# Velocity P-wave (km/s) = 7.49883 7.68489 7.59243
#
# Compressibility (1/GPa) = 0.01381226
#
# Stress axis : x y z
#
# Youngs Moduli (GPa) = 78.79267 78.45431 83.26538
#
# Poissons Ratio (x) = 0.31400 0.39655
# Poissons Ratio (y) = 0.31535 0.25420
# Poissons Ratio (z) = 0.37525 0.23951
#
# Static dielectric constant tensor:
#      x y z
#    x 1.558040 0.000000 0.000000 
#    y 0.000000 1.637870 0.000000 
#    z 0.000000 0.000000 1.623070 
# 
# From -- ./inp_files/27537.got.cif
#   From: 2010.05.17/outbox.cif.g08.bks.cpg/sg64_14_cif.got.tgz:27537.got - 2010.06.03 16:29:19.
