data_PCOD9477684
_publ_section_title
;
Structure prediction by ZEFSAII (Michael W. Deem and Ramdas Pophale) SiO2 
 PCOD9477684
Probable space group: C M C A
;
_chemical_formula_sum "Si O2"
_cell_formula_units_Z 112
_cell_length_a 14.927479
_cell_length_b 34.947297
_cell_length_c 10.310537
_cell_angle_alpha 90.000000
_cell_angle_beta 90.000000
_cell_angle_gamma 90.000000
_cell_volume 5378.749823
_symmetry_space_group_name_H-M "C M C A"
_symmetry_group_IT_number 64
_symmetry_cell_setting 'orthorhombic'
loop_
_space_group_symop_operation_xyz
x,y,z
-x,1/2-y,1/2+z
x,-y,-z
-x,1/2+y,1/2-z
-x,-y,-z
x,1/2+y,1/2-z
-x,y,z
x,1/2-y,1/2+z
1/2+x,1/2+y,z
1/2-x,-y,1/2+z
1/2+x,1/2-y,-z
1/2-x,y,1/2-z
1/2-x,1/2-y,-z
1/2+x,y,1/2-z
1/2-x,1/2+y,z
1/2+x,-y,1/2+z
loop_
_atom_site_type_symbol
_atom_site_label
_atom_site_fract_x
_atom_site_fract_y
_atom_site_fract_z
Si Si1 0.395548 0.896423 0.452489
Si Si2 0.690933 0.758362 0.873302
Si Si3 0.098071 0.437351 0.186624
Si Si4 0.394466 0.832242 0.983425
Si Si5 0.318247 0.512518 0.362284
Si Si6 0.293718 0.906766 0.951952
Si Si7 0.607019 0.321228 0.217185
O O1 0.500000 0.895113 0.498370
O O2 0.391215 0.927604 0.336924
O O3 0.314135 0.904933 0.549850
O O4 0.373177 0.856378 0.379258
O O5 0.750000 0.770748 0.750000
O O6 0.645541 0.718559 0.832814
O O7 0.750000 0.750000 0.000000
O O8 0.624142 0.792201 0.912917
O O9 0.102283 0.482534 0.158623
O O10 0.172708 0.417304 0.098183
O O11 0.000000 0.421978 0.147977
O O12 0.500000 0.840794 0.981008
O O13 0.337846 0.866373 0.920018
O O14 0.363813 0.828750 0.134454
O O15 0.277321 0.500000 0.500000
O O16 0.250000 0.503688 0.250000
O O17 0.332637 0.557728 0.370051
O O18 0.500000 0.318327 0.221913
#
# Coordination Sequence:
#
# PCOD9477684 Si02
#       7
#    16  16  16  16  16  16  16
#     4  10  20  35  61  94 125 165 218 270 322 383
#     4  12  24  40  63  92 128 171 217 266 326 387
#     4  10  19  33  58  92 122 158 211 266 314 371
#     4  11  23  40  64  96 130 172 221 269 326 390
#     4  10  22  39  61  90 124 164 207 257 317 381
#     4  11  21  35  61  86 128 167 210 267 322 383
#     4  10  21  39  62  92 126 164 218 275 324 385
#
# _framework density 20.822683999999999
#
# number of rings (size 3 to 8) (size 9 to 14) (size 15 to 20)
#    0.000    1.429    2.857    3.857    0.000    3.714 
#    0.000    0.714    0.000   10.286    0.000    0.000 
#    0.000    0.000    0.000    0.000    0.000    0.000 
#
# Total GULP energy -312736.693909 kJ/mol
# GULP energy per Si atom -5584.583820 kJ/mol
# Density = 2.077529 g / cm^3
# Si number density = 20.822684 Si / 1000 Ang^3
#
#
#
# Elastic Constant Matrix: (Units=GPa)
#
#
# Indices 1 2 3 4 5 6 
#
# 1 83.9195 40.4223 9.9419 0.0000 0.0000 0.0000
# 2 40.4223 139.9734 20.1065 0.0000 0.0000 0.0000
# 3 9.9419 20.1065 40.7293 0.0000 0.0000 0.0000
# 4 0.0000 0.0000 0.0000 21.5309 0.0000 0.0000
# 5 0.0000 0.0000 0.0000 0.0000 17.8109 0.0000
# 6 0.0000 0.0000 0.0000 0.0000 0.0000 20.5776
#
#
#
# Elastic Compliance Matrix: (Units=1/GPa)
#
#
# Indices 1 2 3 4 5 6 
#
# 1 0.013929 -0.003804 -0.001522 0.000000 0.000000 0.000000
# 2 -0.003804 0.008728 -0.003380 0.000000 0.000000 0.000000
# 3 -0.001522 -0.003380 0.026593 0.000000 0.000000 0.000000
# 4 0.000000 0.000000 0.000000 0.046445 0.000000 0.000000
# 5 0.000000 0.000000 0.000000 0.000000 0.056145 0.000000
# 6 0.000000 0.000000 0.000000 0.000000 0.000000 0.048597
#
#
# Mechanical properties :
#
#
# Convention : Reuss Voigt Hill
#
# Bulk Modulus (GPa) = 31.40990 45.06262 38.23626
# Shear Modulus (GPa) = 21.88553 24.92730 23.40641
#
# Velocity S-wave (km/s) = 3.24550 3.46370 3.35637
# Velocity P-wave (km/s) = 5.40014 6.13876 5.78126
#
# Compressibility (1/GPa) = 0.03183710
#
# Stress axis : x y z
#
# Youngs Moduli (GPa) = 71.79414 114.57046 37.60434
#
# Poissons Ratio (x) = 0.43580 0.05724
# Poissons Ratio (y) = 0.27309 0.12712
# Poissons Ratio (z) = 0.10928 0.38729
#
# Static dielectric constant tensor:
#      x y z
#    x 1.733080 0.000000 0.000000 
#    y 0.000000 1.772980 0.000000 
#    z 0.000000 0.000000 1.746270 
# 
# From -- ./inp_files/14990.got.cif
#   From: 2010.05.17/outbox.cif.g08.bks.cpg/sg64_8_cif.got.tgz:14990.got - 2010.06.03 16:29:19.
