data_PCOD9477744
_publ_section_title
;
Structure prediction by ZEFSAII (Michael W. Deem and Ramdas Pophale) SiO2 
 PCOD9477744
Probable space group: C M C A
;
_chemical_formula_sum "Si O2"
_cell_formula_units_Z 96
_cell_length_a 15.106264
_cell_length_b 20.961334
_cell_length_c 14.783130
_cell_angle_alpha 90.000000
_cell_angle_beta 90.000000
_cell_angle_gamma 90.000000
_cell_volume 4681.040347
_symmetry_space_group_name_H-M "C M C A"
_symmetry_group_IT_number 64
_symmetry_cell_setting 'orthorhombic'
loop_
_space_group_symop_operation_xyz
x,y,z
-x,1/2-y,1/2+z
x,-y,-z
-x,1/2+y,1/2-z
-x,-y,-z
x,1/2+y,1/2-z
-x,y,z
x,1/2-y,1/2+z
1/2+x,1/2+y,z
1/2-x,-y,1/2+z
1/2+x,1/2-y,-z
1/2-x,y,1/2-z
1/2-x,1/2-y,-z
1/2+x,y,1/2-z
1/2-x,1/2+y,z
1/2+x,-y,1/2+z
loop_
_atom_site_type_symbol
_atom_site_label
_atom_site_fract_x
_atom_site_fract_y
_atom_site_fract_z
Si Si1 0.101397 0.671471 0.657881
Si Si2 0.891188 0.063930 0.710107
Si Si3 0.892610 0.765782 0.978566
Si Si4 0.108021 0.381676 0.015565
Si Si5 0.393459 0.423997 0.679023
Si Si6 0.850280 0.709336 0.273051
O O1 0.141606 0.613140 0.714034
O O2 0.142389 0.692795 0.562609
O O3 0.098355 0.733811 0.722336
O O4 0.000000 0.652892 0.637839
O O5 0.864291 0.087962 0.610413
O O6 0.000000 0.066542 0.711211
O O7 0.863569 0.990687 0.721724
O O8 0.865123 0.692246 0.990228
O O9 0.866545 0.789188 0.879678
O O10 0.000000 0.765912 0.982934
O O11 0.000000 0.383222 0.015274
O O12 0.138198 0.417123 0.924737
O O13 0.500000 0.426698 0.675467
O O14 0.370392 0.360021 0.732577
O O15 0.750000 0.724747 0.250000
#
# Coordination Sequence:
#
# PCOD9477744 Si02
#       6
#    16  16  16  16  16  16
#     4  10  19  36  59  83 109 141 183 234 283 332
#     4   9  17  30  55  86 111 133 177 236 288 331
#     4  10  19  34  59  86 110 139 185 235 278 330
#     4   9  15  27  54  87 109 129 172 237 285 321
#     4  10  19  34  55  80 108 144 183 228 281 331
#     4  12  24  36  53  79 114 151 184 225 273 335
#
# _framework density 20.508261999999998
#
# number of rings (size 3 to 8) (size 9 to 14) (size 15 to 20)
#    0.000    2.000    3.333    2.000    0.000    2.667 
#    0.000    1.667    0.000    6.000    0.000    0.000 
#    0.000    0.000    0.000    0.000    0.000    0.000 
#
# Total GULP energy -268041.244955 kJ/mol
# GULP energy per Si atom -5584.192603 kJ/mol
# Density = 2.046158 g / cm^3
# Si number density = 20.508262 Si / 1000 Ang^3
#
#
#
# Elastic Constant Matrix: (Units=GPa)
#
#
# Indices 1 2 3 4 5 6 
#
# 1 32.5222 -0.9281 1.1817 0.0000 0.0000 0.0000
# 2 -0.9281 24.1115 3.2278 0.0000 0.0000 0.0000
# 3 1.1817 3.2278 108.4781 0.0000 0.0000 0.0000
# 4 0.0000 0.0000 0.0000 27.6517 0.0000 0.0000
# 5 0.0000 0.0000 0.0000 0.0000 -95.3346 0.0000
# 6 0.0000 0.0000 0.0000 0.0000 0.0000 -8.6421
#
#
#
# Elastic Compliance Matrix: (Units=1/GPa)
#
#
# Indices 1 2 3 4 5 6 
#
# 1 0.030797 0.001235 -0.000372 0.000000 0.000000 0.000000
# 2 0.001235 0.041689 -0.001254 0.000000 0.000000 0.000000
# 3 -0.000372 -0.001254 0.009260 0.000000 0.000000 0.000000
# 4 0.000000 0.000000 0.000000 0.036164 0.000000 0.000000
# 5 0.000000 0.000000 0.000000 0.000000 -0.010489 0.000000
# 6 0.000000 0.000000 0.000000 0.000000 0.000000 -0.115712
#
#
# Mechanical properties :
#
#
# Convention : Reuss Voigt Hill
#
# Bulk Modulus (GPa) = 12.35111 19.11941 15.73526
# Shear Modulus (GPa) = 256.68797 -4.48966 126.09916
#
# Velocity S-wave (km/s) = 11.19977 -1.48120 7.84987
# Velocity P-wave (km/s) = 13.16367 2.53333 9.47892
#
# Compressibility (1/GPa) = 0.08096438
#
# Stress axis : x y z
#
# Youngs Moduli (GPa) = 32.47065 23.98689 107.99350
#
# Poissons Ratio (x) = -0.02963 0.04020
# Poissons Ratio (y) = -0.04011 0.13542
# Poissons Ratio (z) = 0.01209 0.03008
#
# Static dielectric constant tensor:
#      x y z
#    x 1.746690 0.000000 0.000000 
#    y 0.000000 1.733540 0.000000 
#    z 0.000000 0.000000 1.724110 
# 
# From -- ./inp_files/23846.got.cif
#   From: 2010.05.17/outbox.cif.g08.bks.cpg/sg64_12_cif.got.tgz:23846.got - 2010.06.03 16:29:19.
