data_PCOD9477461
_publ_section_title
;
Structure prediction by ZEFSAII (Michael W. Deem and Ramdas Pophale) SiO2 
 PCOD9477461
Probable space group: C M C A
;
_chemical_formula_sum "Si O2"
_cell_formula_units_Z 96
_cell_length_a 11.241931
_cell_length_b 23.340764
_cell_length_c 16.955985
_cell_angle_alpha 90.000000
_cell_angle_beta 90.000000
_cell_angle_gamma 90.000000
_cell_volume 4449.170065
_symmetry_space_group_name_H-M "C M C A"
_symmetry_group_IT_number 64
_symmetry_cell_setting 'orthorhombic'
loop_
_space_group_symop_operation_xyz
x,y,z
-x,1/2-y,1/2+z
x,-y,-z
-x,1/2+y,1/2-z
-x,-y,-z
x,1/2+y,1/2-z
-x,y,z
x,1/2-y,1/2+z
1/2+x,1/2+y,z
1/2-x,-y,1/2+z
1/2+x,1/2-y,-z
1/2-x,y,1/2-z
1/2-x,1/2-y,-z
1/2+x,y,1/2-z
1/2-x,1/2+y,z
1/2+x,-y,1/2+z
loop_
_atom_site_type_symbol
_atom_site_label
_atom_site_fract_x
_atom_site_fract_y
_atom_site_fract_z
Si Si1 0.500000 0.589175 0.451453
Si Si2 0.128312 0.866563 0.204764
Si Si3 0.236821 0.588130 0.443199
Si Si4 0.628140 0.757551 0.401746
Si Si5 0.371297 0.207355 0.417203
Si Si6 0.500000 0.040734 0.881435
Si Si7 0.263785 0.534777 0.880078
O O1 0.370886 0.612179 0.428103
O O2 0.500000 0.523380 0.419763
O O3 0.500000 0.585453 0.546261
O O4 0.250000 0.854022 0.250000
O O5 0.128455 0.821461 0.133046
O O6 0.142301 0.929729 0.168953
O O7 0.000000 0.860195 0.246571
O O8 0.146775 0.639735 0.431905
O O9 0.214672 0.532723 0.388815
O O10 0.237372 0.562291 0.531882
O O11 0.500000 0.731497 0.377635
O O12 0.627446 0.762386 0.496772
O O13 0.751552 0.729009 0.375477
O O14 0.500000 0.218689 0.379327
O O15 0.630878 0.044833 0.844646
#
# Coordination Sequence:
#
# PCOD9477461 Si02
#       7
#     8  16  16  16  16   8  16
#     4   7  12  22  38  72 107 138 172 200 249 319
#     4  11  24  40  57  79 109 148 192 230 268 320
#     4   9  16  28  52  83 115 148 173 217 278 333
#     4   9  20  38  53  74 108 143 184 229 274 327
#     4  10  19  32  52  83 113 139 174 224 282 337
#     4   7  12  24  42  68 105 136 172 215 246 308
#     4   9  17  31  51  80 115 146 182 221 269 327
#
# _framework density 21.577057
#
# number of rings (size 3 to 8) (size 9 to 14) (size 15 to 20)
#    0.000    2.833    1.667    2.000    2.333    1.333 
#    0.000    1.667    0.000    1.000    0.000    2.333 
#    0.000    0.000    0.000    0.000    0.000    0.000 
#
# Total GULP energy -267445.632292 kJ/mol
# GULP energy per Si atom -5571.784006 kJ/mol
# Density = 2.152795 g / cm^3
# Si number density = 21.577057 Si / 1000 Ang^3
#
#
#
# Elastic Constant Matrix: (Units=GPa)
#
#
# Indices 1 2 3 4 5 6 
#
# 1 187.4851 39.8747 13.4703 0.0000 0.0000 0.0000
# 2 39.8747 50.7537 0.3107 0.0000 0.0000 0.0000
# 3 13.4703 0.3107 21.6003 0.0000 0.0000 0.0000
# 4 0.0000 0.0000 0.0000 7.2510 0.0000 0.0000
# 5 0.0000 0.0000 0.0000 0.0000 15.7212 0.0000
# 6 0.0000 0.0000 0.0000 0.0000 0.0000 31.1648
#
#
#
# Elastic Compliance Matrix: (Units=1/GPa)
#
#
# Indices 1 2 3 4 5 6 
#
# 1 0.006754 -0.005281 -0.004136 0.000000 0.000000 0.000000
# 2 -0.005281 0.023834 0.002951 0.000000 0.000000 0.000000
# 3 -0.004136 0.002951 0.048832 0.000000 0.000000 0.000000
# 4 0.000000 0.000000 0.000000 0.137913 0.000000 0.000000
# 5 0.000000 0.000000 0.000000 0.000000 0.063608 0.000000
# 6 0.000000 0.000000 0.000000 0.000000 0.000000 0.032087
#
#
# Mechanical properties :
#
#
# Convention : Reuss Voigt Hill
#
# Bulk Modulus (GPa) = 15.04041 40.79450 27.91745
# Shear Modulus (GPa) = 14.36267 24.57295 19.46781
#
# Velocity S-wave (km/s) = 2.58281 3.37834 3.00700
# Velocity P-wave (km/s) = 3.98500 5.84509 5.00226
#
# Compressibility (1/GPa) = 0.06648755
#
# Stress axis : x y z
#
# Youngs Moduli (GPa) = 148.05810 41.95683 20.47817
#
# Poissons Ratio (x) = 0.22158 0.08470
# Poissons Ratio (y) = 0.78190 -0.06042
# Poissons Ratio (z) = 0.61237 -0.12380
#
# Static dielectric constant tensor:
#      x y z
#    x 1.855880 0.000000 0.000000 
#    y 0.000000 1.776670 0.000000 
#    z 0.000000 0.000000 1.821400 
# 
# From -- ./inp_files/38420.got.cif
#   From: 2010.05.17/outbox.cif.g08.bks.cpg/sg64_20_cif.got.tgz:38420.got - 2010.06.03 16:29:19.
