data_PCOD9477713
_publ_section_title
;
Structure prediction by ZEFSAII (Michael W. Deem and Ramdas Pophale) SiO2 
 PCOD9477713
Probable space group: C M C A
;
_chemical_formula_sum "Si O2"
_cell_formula_units_Z 72
_cell_length_a 29.506830
_cell_length_b 5.609073
_cell_length_c 18.595115
_cell_angle_alpha 90.000000
_cell_angle_beta 90.000000
_cell_angle_gamma 90.000000
_cell_volume 3077.602424
_symmetry_space_group_name_H-M "C M C A"
_symmetry_group_IT_number 64
_symmetry_cell_setting 'orthorhombic'
loop_
_space_group_symop_operation_xyz
x,y,z
-x,1/2-y,1/2+z
x,-y,-z
-x,1/2+y,1/2-z
-x,-y,-z
x,1/2+y,1/2-z
-x,y,z
x,1/2-y,1/2+z
1/2+x,1/2+y,z
1/2-x,-y,1/2+z
1/2+x,1/2-y,-z
1/2-x,y,1/2-z
1/2-x,1/2-y,-z
1/2+x,y,1/2-z
1/2-x,1/2+y,z
1/2+x,-y,1/2+z
loop_
_atom_site_type_symbol
_atom_site_label
_atom_site_fract_x
_atom_site_fract_y
_atom_site_fract_z
Si Si1 0.232687 0.753405 0.166745
Si Si2 0.132858 0.327859 0.888365
Si Si3 0.000000 0.747451 0.456220
Si Si4 0.430789 0.154960 0.246649
Si Si5 0.101889 0.177405 0.099420
O O1 0.250000 0.765722 0.250000
O O2 0.255959 0.514573 0.135506
O O3 0.179850 0.709493 0.153216
O O4 0.093944 0.350677 0.828931
O O5 0.130209 0.590003 0.924445
O O6 0.118850 0.081717 0.927583
O O7 0.000000 0.500000 0.500000
O O8 0.951534 0.728517 0.415525
O O9 0.000000 0.000000 0.500000
O O10 0.455170 0.405413 0.247670
O O11 0.395204 0.157703 0.313101
#
# Coordination Sequence:
#
# PCOD9477713 Si02
#       5
#    16  16   8  16  16
#     4  10  21  27  46  80 124 173 201 217 263 299
#     4  10  19  34  53  83 127 164 189 225 268 353
#     4  12  26  46  66  86 112 132 198 280 320 342
#     4   8  16  27  49  73 107 153 177 213 258 327
#     4  10  21  36  59  80 109 158 190 239 297 356
#
# _framework density 23.394836000000002
#
# number of rings (size 3 to 8) (size 9 to 14) (size 15 to 20)
#    0.000    2.222    0.000    2.667   18.667    0.000 
#    0.000   10.000    0.000    0.000    0.000    0.000 
#    0.000   62.222    0.000    0.000    0.000    0.000 
#
# Total GULP energy -200470.661744 kJ/mol
# GULP energy per Si atom -5568.629493 kJ/mol
# Density = 2.334159 g / cm^3
# Si number density = 23.394836 Si / 1000 Ang^3
#
#
#
# Elastic Constant Matrix: (Units=GPa)
#
#
# Indices 1 2 3 4 5 6 
#
# 1 94.3589 17.0516 -4.9317 0.0000 0.0000 0.0000
# 2 17.0516 265.7213 11.9107 0.0000 0.0000 0.0000
# 3 -4.9317 11.9107 34.6750 0.0000 0.0000 0.0000
# 4 0.0000 0.0000 0.0000 15.7824 0.0000 0.0000
# 5 0.0000 0.0000 0.0000 0.0000 -0.6224 0.0000
# 6 0.0000 0.0000 0.0000 0.0000 0.0000 83.2114
#
#
#
# Elastic Compliance Matrix: (Units=1/GPa)
#
#
# Indices 1 2 3 4 5 6 
#
# 1 0.010833 -0.000776 0.001807 0.000000 0.000000 0.000000
# 2 -0.000776 0.003878 -0.001442 0.000000 0.000000 0.000000
# 3 0.001807 -0.001442 0.029592 0.000000 0.000000 0.000000
# 4 0.000000 0.000000 0.000000 0.063362 0.000000 0.000000
# 5 0.000000 0.000000 0.000000 0.000000 -1.606577 0.000000
# 6 0.000000 0.000000 0.000000 0.000000 0.000000 0.012018
#
#
# Mechanical properties :
#
#
# Convention : Reuss Voigt Hill
#
# Bulk Modulus (GPa) = 22.99933 49.20182 36.10057
# Shear Modulus (GPa) = -3.39771 44.38925 20.49577
#
# Velocity S-wave (km/s) = -1.20644 4.36064 2.96308
# Velocity P-wave (km/s) = 2.81276 6.81397 5.21257
#
# Compressibility (1/GPa) = 0.04347953
#
# Stress axis : x y z
#
# Youngs Moduli (GPa) = 92.31436 257.87802 33.79327
#
# Poissons Ratio (x) = 0.20015 -0.06107
# Poissons Ratio (y) = 0.07165 0.04874
# Poissons Ratio (z) = -0.16684 0.37196
#
# Static dielectric constant tensor:
#      x y z
#    x 1.853690 0.000000 0.000000 
#    y 0.000000 2.062700 0.000000 
#    z 0.000000 0.000000 1.910890 
# 
# From -- ./inp_files/46818.got.cif
#   From: 2010.05.17/outbox.cif.g08.bks.cpg/sg64_24_cif.got.tgz:46818.got - 2010.06.03 16:29:19.
