data_PCOD9477386
_publ_section_title
;
Structure prediction by ZEFSAII (Michael W. Deem and Ramdas Pophale) SiO2 
 PCOD9477386
Probable space group: C M C A
;
_chemical_formula_sum "Si O2"
_cell_formula_units_Z 112
_cell_length_a 28.251393
_cell_length_b 16.730806
_cell_length_c 12.589634
_cell_angle_alpha 90.000000
_cell_angle_beta 90.000000
_cell_angle_gamma 90.000000
_cell_volume 5950.724369
_symmetry_space_group_name_H-M "C M C A"
_symmetry_group_IT_number 64
_symmetry_cell_setting 'orthorhombic'
loop_
_space_group_symop_operation_xyz
x,y,z
-x,1/2-y,1/2+z
x,-y,-z
-x,1/2+y,1/2-z
-x,-y,-z
x,1/2+y,1/2-z
-x,y,z
x,1/2-y,1/2+z
1/2+x,1/2+y,z
1/2-x,-y,1/2+z
1/2+x,1/2-y,-z
1/2-x,y,1/2-z
1/2-x,1/2-y,-z
1/2+x,y,1/2-z
1/2-x,1/2+y,z
1/2+x,-y,1/2+z
loop_
_atom_site_type_symbol
_atom_site_label
_atom_site_fract_x
_atom_site_fract_y
_atom_site_fract_z
Si Si1 0.697391 0.128687 0.297615
Si Si2 0.679041 0.731727 0.550153
Si Si3 0.677120 0.048909 0.706234
Si Si4 0.601090 0.159402 0.789223
Si Si5 0.735296 0.575954 0.577748
Si Si6 0.381006 0.295013 0.642259
Si Si7 0.055405 0.407056 0.005908
O O1 0.750000 0.119501 0.250000
O O2 0.700865 0.192260 0.392266
O O3 0.658357 0.161241 0.214519
O O4 0.678305 0.042277 0.331760
O O5 0.642153 0.696306 0.636160
O O6 0.713684 0.656936 0.530019
O O7 0.649705 0.751723 0.445611
O O8 0.626586 0.089873 0.721384
O O9 0.701961 0.050833 0.822641
O O10 0.713514 0.093491 0.628370
O O11 0.588611 0.232584 0.711681
O O12 0.564325 0.125055 0.874334
O O13 0.736395 0.500000 0.500000
O O14 0.413159 0.356938 0.576981
O O15 0.000000 0.400886 0.979933
O O16 0.069859 0.500000 0.000000
#
# Coordination Sequence:
#
# PCOD9477386 Si02
#       7
#    16  16  16  16  16  16  16
#     4  11  21  33  50  77 111 157 206 246 287 343
#     4   9  21  32  52  73 108 150 200 242 283 337
#     4  10  20  34  46  72 108 144 197 237 279 341
#     4   9  20  37  56  82 116 150 182 242 301 353
#     4  10  19  32  48  69  98 148 200 245 278 321
#     4  10  21  38  56  82 117 155 191 244 308 352
#     4  10  21  40  68  96 114 142 194 250 313 377
#
# _framework density 18.821238000000001
#
# number of rings (size 3 to 8) (size 9 to 14) (size 15 to 20)
#    0.000    2.143    1.429    1.714    6.000    6.286 
#    0.000    0.000    0.000    0.000    0.000    0.000 
#    0.000   13.143    0.000    0.000    0.000    0.000 
#
# Total GULP energy -312558.298355 kJ/mol
# GULP energy per Si atom -5581.398185 kJ/mol
# Density = 1.877840 g / cm^3
# Si number density = 18.821238 Si / 1000 Ang^3
#
#
#
# Elastic Constant Matrix: (Units=GPa)
#
#
# Indices 1 2 3 4 5 6 
#
# 1 50.9360 36.5080 27.8038 0.0000 0.0000 0.0000
# 2 36.5080 107.7183 46.7431 0.0000 0.0000 0.0000
# 3 27.8038 46.7431 79.1325 0.0000 0.0000 0.0000
# 4 0.0000 0.0000 0.0000 31.1792 0.0000 0.0000
# 5 0.0000 0.0000 0.0000 0.0000 24.4467 0.0000
# 6 0.0000 0.0000 0.0000 0.0000 0.0000 12.9912
#
#
#
# Elastic Compliance Matrix: (Units=1/GPa)
#
#
# Indices 1 2 3 4 5 6 
#
# 1 0.027677 -0.006939 -0.005626 0.000000 0.000000 0.000000
# 2 -0.006939 0.014223 -0.005963 0.000000 0.000000 0.000000
# 3 -0.005626 -0.005963 0.018136 0.000000 0.000000 0.000000
# 4 0.000000 0.000000 0.000000 0.032073 0.000000 0.000000
# 5 0.000000 0.000000 0.000000 0.000000 0.040905 0.000000
# 6 0.000000 0.000000 0.000000 0.000000 0.000000 0.076975
#
#
# Mechanical properties :
#
#
# Convention : Reuss Voigt Hill
#
# Bulk Modulus (GPa) = 43.51629 51.09965 47.30797
# Shear Modulus (GPa) = 19.63055 22.17222 20.90138
#
# Velocity S-wave (km/s) = 3.23305 3.43599 3.33606
# Velocity P-wave (km/s) = 6.09162 6.55364 6.32685
#
# Compressibility (1/GPa) = 0.02297990
#
# Stress axis : x y z
#
# Youngs Moduli (GPa) = 36.13142 70.30862 55.13860
#
# Poissons Ratio (x) = 0.48788 0.31018
# Poissons Ratio (y) = 0.25072 0.32881
# Poissons Ratio (z) = 0.20326 0.41927
#
# Static dielectric constant tensor:
#      x y z
#    x 1.630080 0.000000 0.000000 
#    y 0.000000 1.673400 0.000000 
#    z 0.000000 0.000000 1.694660 
# 
# From -- ./inp_files/19861.got.cif
#   From: 2010.05.17/outbox.cif.g08.bks.cpg/sg64_10_cif.got.tgz:19861.got - 2010.06.03 16:29:19.
