data_PCOD9477740
_publ_section_title
;
Structure prediction by ZEFSAII (Michael W. Deem and Ramdas Pophale) SiO2 
 PCOD9477740
Probable space group: C M C A
;
_chemical_formula_sum "Si O2"
_cell_formula_units_Z 64
_cell_length_a 16.518361
_cell_length_b 20.384524
_cell_length_c 8.008115
_cell_angle_alpha 90.000000
_cell_angle_beta 90.000000
_cell_angle_gamma 90.000000
_cell_volume 2696.483884
_symmetry_space_group_name_H-M "C M C A"
_symmetry_group_IT_number 64
_symmetry_cell_setting 'orthorhombic'
loop_
_space_group_symop_operation_xyz
x,y,z
-x,1/2-y,1/2+z
x,-y,-z
-x,1/2+y,1/2-z
-x,-y,-z
x,1/2+y,1/2-z
-x,y,z
x,1/2-y,1/2+z
1/2+x,1/2+y,z
1/2-x,-y,1/2+z
1/2+x,1/2-y,-z
1/2-x,y,1/2-z
1/2-x,1/2-y,-z
1/2+x,y,1/2-z
1/2-x,1/2+y,z
1/2+x,-y,1/2+z
loop_
_atom_site_type_symbol
_atom_site_label
_atom_site_fract_x
_atom_site_fract_y
_atom_site_fract_z
Si Si1 0.339447 0.272732 0.042535
Si Si2 0.594788 0.472318 0.257276
Si Si3 0.095228 0.659464 0.869055
Si Si4 0.404795 0.900178 0.605537
O O1 0.394011 0.207843 0.023144
O O2 0.363149 0.330554 0.913979
O O3 0.250000 0.250000 0.000000
O O4 0.355276 0.305220 0.221493
O O5 0.500000 0.483443 0.295817
O O6 0.624833 0.415851 0.382372
O O7 0.630069 0.544641 0.230482
O O8 0.598581 0.435426 0.077368
O O9 0.000000 0.657070 0.823562
O O10 0.500000 0.889485 0.641278
#
# Coordination Sequence:
#
# PCOD9477740 Si02
#       4
#    16  16  16  16
#     4  11  21  32  50  78 113 144 172 218 274 322
#     4   7  12  24  48  75  94 119 174 229 253 288
#     4  10  19  34  55  79 104 141 185 225 266 319
#     4   8  13  26  48  74  98 130 173 214 253 309
#
# _framework density 23.734611999999998
#
# number of rings (size 3 to 8) (size 9 to 14) (size 15 to 20)
#    0.000    3.000    0.000    6.000    0.000    0.000 
#    0.000    0.000    0.000   25.500    0.000    7.000 
#    0.000    0.000    0.000    0.000    0.000    0.000 
#
# Total GULP energy -178559.819534 kJ/mol
# GULP energy per Si atom -5579.994360 kJ/mol
# Density = 2.368059 g / cm^3
# Si number density = 23.734612 Si / 1000 Ang^3
#
#
#
# Elastic Constant Matrix: (Units=GPa)
#
#
# Indices 1 2 3 4 5 6 
#
# 1 68.4274 32.4289 6.8885 0.0000 0.0000 0.0000
# 2 32.4289 171.6156 27.6708 0.0000 0.0000 0.0000
# 3 6.8885 27.6708 73.1456 0.0000 0.0000 0.0000
# 4 0.0000 0.0000 0.0000 15.0897 0.0000 0.0000
# 5 0.0000 0.0000 0.0000 0.0000 12.8179 0.0000
# 6 0.0000 0.0000 0.0000 0.0000 0.0000 -18.0581
#
#
#
# Elastic Compliance Matrix: (Units=1/GPa)
#
#
# Indices 1 2 3 4 5 6 
#
# 1 0.016062 -0.002973 -0.000388 0.000000 0.000000 0.000000
# 2 -0.002973 0.006756 -0.002276 0.000000 0.000000 0.000000
# 3 -0.000388 -0.002276 0.014569 0.000000 0.000000 0.000000
# 4 0.000000 0.000000 0.000000 0.066270 0.000000 0.000000
# 5 0.000000 0.000000 0.000000 0.000000 0.078016 0.000000
# 6 0.000000 0.000000 0.000000 0.000000 0.000000 -0.055377
#
#
# Mechanical properties :
#
#
# Convention : Reuss Voigt Hill
#
# Bulk Modulus (GPa) = 38.29430 49.68502 43.98966
# Shear Modulus (GPa) = 34.18273 18.38326 26.28299
#
# Velocity S-wave (km/s) = 3.79912 2.78606 3.33133
# Velocity P-wave (km/s) = 5.95095 5.59719 5.77678
#
# Compressibility (1/GPa) = 0.02611355
#
# Stress axis : x y z
#
# Youngs Moduli (GPa) = 62.25945 148.02547 68.63985
#
# Poissons Ratio (x) = 0.44001 0.02664
# Poissons Ratio (y) = 0.18507 0.15620
# Poissons Ratio (z) = 0.02417 0.33686
#
# Static dielectric constant tensor:
#      x y z
#    x 1.894150 0.000000 0.000000 
#    y 0.000000 1.953810 0.000000 
#    z 0.000000 0.000000 2.052630 
# 
# From -- ./inp_files/6591.got.cif
#   From: 2010.05.17/outbox.cif.g08.bks.cpg/sg64_4_cif.got.tgz:6591.got - 2010.06.03 16:29:19.
