data_PCOD9477005
_publ_section_title
;
Structure prediction by ZEFSAII (Michael W. Deem and Ramdas Pophale) SiO2 
 PCOD9477005
Probable space group: C M C A
;
_chemical_formula_sum "Si O2"
_cell_formula_units_Z 96
_cell_length_a 18.890392
_cell_length_b 15.088523
_cell_length_c 16.110152
_cell_angle_alpha 90.000000
_cell_angle_beta 90.000000
_cell_angle_gamma 90.000000
_cell_volume 4591.846244
_symmetry_space_group_name_H-M "C M C A"
_symmetry_group_IT_number 64
_symmetry_cell_setting 'orthorhombic'
loop_
_space_group_symop_operation_xyz
x,y,z
-x,1/2-y,1/2+z
x,-y,-z
-x,1/2+y,1/2-z
-x,-y,-z
x,1/2+y,1/2-z
-x,y,z
x,1/2-y,1/2+z
1/2+x,1/2+y,z
1/2-x,-y,1/2+z
1/2+x,1/2-y,-z
1/2-x,y,1/2-z
1/2-x,1/2-y,-z
1/2+x,y,1/2-z
1/2-x,1/2+y,z
1/2+x,-y,1/2+z
loop_
_atom_site_type_symbol
_atom_site_label
_atom_site_fract_x
_atom_site_fract_y
_atom_site_fract_z
Si Si1 0.304700 0.745763 0.386327
Si Si2 0.215700 0.553332 0.662869
Si Si3 0.919785 0.531951 0.404517
Si Si4 0.355637 0.781302 0.564577
Si Si5 0.340610 0.059406 0.103754
Si Si6 0.416635 0.099651 0.927777
O O1 0.287767 0.839940 0.344356
O O2 0.354495 0.772309 0.464328
O O3 0.227347 0.712324 0.415400
O O4 0.335067 0.653494 0.348258
O O5 0.250000 0.529800 0.750000
O O6 0.137129 0.519339 0.649567
O O7 0.266932 0.496256 0.601380
O O8 0.913043 0.500000 0.500000
O O9 0.898388 0.634456 0.406140
O O10 0.000000 0.518129 0.377588
O O11 0.389004 0.693339 0.604366
O O12 0.395848 0.983047 0.130215
O O13 0.371361 0.087184 0.013098
O O14 0.500000 0.100678 0.945097
#
# Coordination Sequence:
#
# PCOD9477005 Si02
#       6
#    16  16  16  16  16  16
#     4  10  20  34  59  92 121 156 209 266 308 373
#     4  12  25  41  61  90 124 172 215 258 319 385
#     4  11  23  40  66  97 130 167 212 269 326 383
#     4  10  18  33  64  93 124 159 201 270 319 370
#     4  10  20  35  58  86 121 158 203 253 310 370
#     4  10  20  34  58  97 128 154 197 258 329 376
#
# _framework density 20.906623
#
# number of rings (size 3 to 8) (size 9 to 14) (size 15 to 20)
#    0.000    1.500    5.000    1.500    4.667    0.667 
#    0.000    2.500    0.000    0.000    0.000    0.000 
#    0.000    0.000    0.000    0.000    0.000    0.000 
#
# Total GULP energy -267419.496863 kJ/mol
# GULP energy per Si atom -5571.239518 kJ/mol
# Density = 2.085904 g / cm^3
# Si number density = 20.906623 Si / 1000 Ang^3
#
#
#
# Elastic Constant Matrix: (Units=GPa)
#
#
# Indices 1 2 3 4 5 6 
#
# 1 127.7973 41.7814 34.2829 0.0000 0.0000 0.0000
# 2 41.7814 162.2455 12.4770 0.0000 0.0000 0.0000
# 3 34.2829 12.4770 30.3466 0.0000 0.0000 0.0000
# 4 0.0000 0.0000 0.0000 7.8169 0.0000 0.0000
# 5 0.0000 0.0000 0.0000 0.0000 8.4937 0.0000
# 6 0.0000 0.0000 0.0000 0.0000 0.0000 25.5254
#
#
#
# Elastic Compliance Matrix: (Units=1/GPa)
#
#
# Indices 1 2 3 4 5 6 
#
# 1 0.011878 -0.002093 -0.012558 0.000000 0.000000 0.000000
# 2 -0.002093 0.006734 -0.000404 0.000000 0.000000 0.000000
# 3 -0.012558 -0.000404 0.047306 0.000000 0.000000 0.000000
# 4 0.000000 0.000000 0.000000 0.127928 0.000000 0.000000
# 5 0.000000 0.000000 0.000000 0.000000 0.117734 0.000000
# 6 0.000000 0.000000 0.000000 0.000000 0.000000 0.039177
#
#
# Mechanical properties :
#
#
# Convention : Reuss Voigt Hill
#
# Bulk Modulus (GPa) = 27.92749 55.27468 41.60109
# Shear Modulus (GPa) = 12.72904 23.82373 18.27639
#
# Velocity S-wave (km/s) = 2.47017 3.37936 2.95988
# Velocity P-wave (km/s) = 4.63927 6.45933 5.62342
#
# Compressibility (1/GPa) = 0.03580701
#
# Stress axis : x y z
#
# Youngs Moduli (GPa) = 84.18888 148.50960 21.13906
#
# Poissons Ratio (x) = 0.31084 0.26547
# Poissons Ratio (y) = 0.17621 0.00854
# Poissons Ratio (z) = 1.05726 0.05999
#
# Static dielectric constant tensor:
#      x y z
#    x 1.727230 0.000000 0.000000 
#    y 0.000000 1.829080 0.000000 
#    z 0.000000 0.000000 1.818990 
# 
# From -- ./inp_files/33293.got.cif
#   From: 2010.05.17/outbox.cif.g08.bks.cpg/sg64_17_cif.got.tgz:33293.got - 2010.06.03 16:29:19.
