data_PCOD9477667
_publ_section_title
;
Structure prediction by ZEFSAII (Michael W. Deem and Ramdas Pophale) SiO2 
 PCOD9477667
Probable space group: C M C A
;
_chemical_formula_sum "Si O2"
_cell_formula_units_Z 72
_cell_length_a 13.356573
_cell_length_b 27.759776
_cell_length_c 11.141476
_cell_angle_alpha 90.000000
_cell_angle_beta 90.000000
_cell_angle_gamma 90.000000
_cell_volume 4130.986052
_symmetry_space_group_name_H-M "C M C A"
_symmetry_group_IT_number 64
_symmetry_cell_setting 'orthorhombic'
loop_
_space_group_symop_operation_xyz
x,y,z
-x,1/2-y,1/2+z
x,-y,-z
-x,1/2+y,1/2-z
-x,-y,-z
x,1/2+y,1/2-z
-x,y,z
x,1/2-y,1/2+z
1/2+x,1/2+y,z
1/2-x,-y,1/2+z
1/2+x,1/2-y,-z
1/2-x,y,1/2-z
1/2-x,1/2-y,-z
1/2+x,y,1/2-z
1/2-x,1/2+y,z
1/2+x,-y,1/2+z
loop_
_atom_site_type_symbol
_atom_site_label
_atom_site_fract_x
_atom_site_fract_y
_atom_site_fract_z
Si Si1 0.750000 0.406627 0.250000
Si Si2 0.384211 0.554855 0.543238
Si Si3 0.784848 0.636091 0.116725
Si Si4 0.811487 0.242711 0.375655
Si Si5 0.886203 0.343870 0.422334
O O1 0.688732 0.437646 0.344800
O O2 0.830221 0.373241 0.318105
O O3 0.377260 0.500000 0.500000
O O4 0.500000 0.564946 0.573680
O O5 0.346555 0.593580 0.445144
O O6 0.750000 0.623463 0.250000
O O7 0.844893 0.686967 0.121419
O O8 0.685401 0.647385 0.037366
O O9 0.750000 0.247550 0.250000
O O10 0.750000 0.250000 0.500000
O O11 0.885404 0.287793 0.383509
O O12 0.000000 0.359612 0.442741
#
# Coordination Sequence:
#
# PCOD9477667 Si02
#       5
#     8  16  16  16  16
#     4  10  20  38  58  78 116 142 178 234 284 318
#     4  10  22  38  59  83 106 142 191 231 278 337
#     4   9  20  36  57  79 118 148 177 232 282 324
#     4   9  17  33  52  77 114 148 182 223 273 327
#     4  10  19  33  57  85 111 149 188 221 268 337
#
# _framework density 17.429252000000002
#
# number of rings (size 3 to 8) (size 9 to 14) (size 15 to 20)
#    0.000    2.444    1.111    0.667    1.556    1.778 
#    0.000    8.889    0.000    3.333    0.000    0.000 
#    0.000    0.000    0.000    0.000    0.000    0.000 
#
# Total GULP energy -200479.814587 kJ/mol
# GULP energy per Si atom -5568.883739 kJ/mol
# Density = 1.738958 g / cm^3
# Si number density = 17.429252 Si / 1000 Ang^3
#
#
#
# Elastic Constant Matrix: (Units=GPa)
#
#
# Indices 1 2 3 4 5 6 
#
# 1 98.9542 54.4403 21.2562 0.0000 0.0000 0.0000
# 2 54.4403 96.8747 35.1222 0.0000 0.0000 0.0000
# 3 21.2562 35.1222 94.1891 0.0000 0.0000 0.0000
# 4 0.0000 0.0000 0.0000 13.2261 0.0000 0.0000
# 5 0.0000 0.0000 0.0000 0.0000 7.8586 0.0000
# 6 0.0000 0.0000 0.0000 0.0000 0.0000 7.6020
#
#
#
# Elastic Compliance Matrix: (Units=1/GPa)
#
#
# Indices 1 2 3 4 5 6 
#
# 1 0.014634 -0.008125 -0.000273 0.000000 0.000000 0.000000
# 2 -0.008125 0.016447 -0.004299 0.000000 0.000000 0.000000
# 3 -0.000273 -0.004299 0.012282 0.000000 0.000000 0.000000
# 4 0.000000 0.000000 0.000000 0.075608 0.000000 0.000000
# 5 0.000000 0.000000 0.000000 0.000000 0.127249 0.000000
# 6 0.000000 0.000000 0.000000 0.000000 0.000000 0.131545
#
#
# Mechanical properties :
#
#
# Convention : Reuss Voigt Hill
#
# Bulk Modulus (GPa) = 55.65222 56.85060 56.25141
# Shear Modulus (GPa) = 12.22047 17.68397 14.95222
#
# Velocity S-wave (km/s) = 2.65079 3.18876 2.93214
# Velocity P-wave (km/s) = 6.43184 6.80046 6.61872
#
# Compressibility (1/GPa) = 0.01796873
#
# Stress axis : x y z
#
# Youngs Moduli (GPa) = 68.33235 60.79989 81.42172
#
# Poissons Ratio (x) = 0.49400 0.02222
# Poissons Ratio (y) = 0.55521 0.35007
# Poissons Ratio (z) = 0.01865 0.26140
#
# Static dielectric constant tensor:
#      x y z
#    x 1.541800 0.000000 0.000000 
#    y 0.000000 1.596350 0.000000 
#    z 0.000000 0.000000 1.546600 
# 
# From -- ./inp_files/13073.got.cif
#   From: 2010.05.17/outbox.cif.g08.bks.cpg/sg64_7_cif.got.tgz:13073.got - 2010.06.03 16:29:19.
