data_PCOD9477566
_publ_section_title
;
Structure prediction by ZEFSAII (Michael W. Deem and Ramdas Pophale) SiO2 
 PCOD9477566
Probable space group: C M C A
;
_chemical_formula_sum "Si O2"
_cell_formula_units_Z 96
_cell_length_a 7.533711
_cell_length_b 20.472384
_cell_length_c 30.110568
_cell_angle_alpha 90.000000
_cell_angle_beta 90.000000
_cell_angle_gamma 90.000000
_cell_volume 4644.043973
_symmetry_space_group_name_H-M "C M C A"
_symmetry_group_IT_number 64
_symmetry_cell_setting 'orthorhombic'
loop_
_space_group_symop_operation_xyz
x,y,z
-x,1/2-y,1/2+z
x,-y,-z
-x,1/2+y,1/2-z
-x,-y,-z
x,1/2+y,1/2-z
-x,y,z
x,1/2-y,1/2+z
1/2+x,1/2+y,z
1/2-x,-y,1/2+z
1/2+x,1/2-y,-z
1/2-x,y,1/2-z
1/2-x,1/2-y,-z
1/2+x,y,1/2-z
1/2-x,1/2+y,z
1/2+x,-y,1/2+z
loop_
_atom_site_type_symbol
_atom_site_label
_atom_site_fract_x
_atom_site_fract_y
_atom_site_fract_z
Si Si1 0.212443 0.857289 0.198876
Si Si2 0.717530 0.931552 0.521451
Si Si3 0.786670 0.994806 0.801529
Si Si4 0.211167 0.899186 0.878832
Si Si5 0.785251 0.753870 0.127379
Si Si6 0.712100 0.191945 0.533786
O O1 0.250000 0.842385 0.250000
O O2 0.279174 0.799898 0.167222
O O3 0.000000 0.860107 0.192936
O O4 0.279922 0.931063 0.190056
O O5 0.500000 0.929990 0.522426
O O6 0.778549 0.918975 0.572055
O O7 0.779142 0.873840 0.488978
O O8 0.770177 0.000000 0.500000
O O9 0.750000 0.977692 0.750000
O O10 0.719344 0.943689 0.838281
O O11 0.000000 0.996632 0.805258
O O12 0.237771 0.822267 0.870571
O O13 0.000000 0.910211 0.880391
O O14 0.719526 0.786292 0.081641
O O15 0.000000 0.755483 0.127120
O O16 0.500000 0.184330 0.538351
O O17 0.750000 0.250000 0.500000
#
# Coordination Sequence:
#
# PCOD9477566 Si02
#       6
#    16  16  16  16  16  16
#     4   9  19  36  55  77 103 133 171 213 257 305
#     4   9  18  31  51  78 103 130 169 212 249 293
#     4   9  19  35  55  76 101 132 169 212 256 302
#     4  10  20  34  53  78 104 133 171 212 252 301
#     4  10  21  34  52  77 106 137 168 209 257 303
#     4  10  19  33  53  76 104 137 169 206 252 301
#
# _framework density 20.67164
#
# number of rings (size 3 to 8) (size 9 to 14) (size 15 to 20)
#    0.000    2.500    1.667    0.000    2.333    2.000 
#    0.000    3.333    0.000    2.000    0.000    0.000 
#    0.000    0.000    0.000    0.000    0.000    0.000 
#
# Total GULP energy -267906.268882 kJ/mol
# GULP energy per Si atom -5581.380602 kJ/mol
# Density = 2.062459 g / cm^3
# Si number density = 20.671640 Si / 1000 Ang^3
#
#
#
# Elastic Constant Matrix: (Units=GPa)
#
#
# Indices 1 2 3 4 5 6 
#
# 1 50.6128 -2.7345 0.7508 0.0000 0.0000 0.0000
# 2 -2.7345 215.3502 153.8651 0.0000 0.0000 0.0000
# 3 0.7508 153.8651 198.5116 0.0000 0.0000 0.0000
# 4 0.0000 0.0000 0.0000 40.4609 0.0000 0.0000
# 5 0.0000 0.0000 0.0000 0.0000 11.0865 0.0000
# 6 0.0000 0.0000 0.0000 0.0000 0.0000 12.3524
#
#
#
# Elastic Compliance Matrix: (Units=1/GPa)
#
#
# Indices 1 2 3 4 5 6 
#
# 1 0.019804 0.000683 -0.000605 0.000000 0.000000 0.000000
# 2 0.000683 0.010430 -0.008087 0.000000 0.000000 0.000000
# 3 -0.000605 -0.008087 0.011308 0.000000 0.000000 0.000000
# 4 0.000000 0.000000 0.000000 0.024715 0.000000 0.000000
# 5 0.000000 0.000000 0.000000 0.000000 0.090200 0.000000
# 6 0.000000 0.000000 0.000000 0.000000 0.000000 0.080956
#
#
# Mechanical properties :
#
#
# Convention : Reuss Voigt Hill
#
# Bulk Modulus (GPa) = 39.17632 85.35970 62.26801
# Shear Modulus (GPa) = 19.08847 33.61950 26.35399
#
# Velocity S-wave (km/s) = 3.04207 4.03719 3.57443
# Velocity P-wave (km/s) = 5.59748 7.94447 6.87191
#
# Compressibility (1/GPa) = 0.02552562
#
# Stress axis : x y z
#
# Youngs Moduli (GPa) = 50.49545 95.87299 88.43221
#
# Poissons Ratio (x) = -0.06553 0.05347
# Poissons Ratio (y) = -0.03451 0.71517
# Poissons Ratio (z) = 0.03053 0.77534
#
# Static dielectric constant tensor:
#      x y z
#    x 1.801360 0.000000 0.000000 
#    y 0.000000 1.720330 0.000000 
#    z 0.000000 0.000000 1.702350 
# 
# From -- ./inp_files/48092.got.cif
#   From: 2010.05.17/outbox.cif.g08.bks.cpg/sg64_25_cif.got.tgz:48092.got - 2010.06.03 16:29:19.
