data_PCOD9477006
_publ_section_title
;
Structure prediction by ZEFSAII (Michael W. Deem and Ramdas Pophale) SiO2 
 PCOD9477006
Probable space group: C M C A
;
_chemical_formula_sum "Si O2"
_cell_formula_units_Z 44
_cell_length_a 15.463510
_cell_length_b 24.855332
_cell_length_c 5.255977
_cell_angle_alpha 90.000000
_cell_angle_beta 90.000000
_cell_angle_gamma 90.000000
_cell_volume 2020.138307
_symmetry_space_group_name_H-M "C M C A"
_symmetry_group_IT_number 64
_symmetry_cell_setting 'orthorhombic'
loop_
_space_group_symop_operation_xyz
x,y,z
-x,1/2-y,1/2+z
x,-y,-z
-x,1/2+y,1/2-z
-x,-y,-z
x,1/2+y,1/2-z
-x,y,z
x,1/2-y,1/2+z
1/2+x,1/2+y,z
1/2-x,-y,1/2+z
1/2+x,1/2-y,-z
1/2-x,y,1/2-z
1/2-x,1/2-y,-z
1/2+x,y,1/2-z
1/2-x,1/2+y,z
1/2+x,-y,1/2+z
loop_
_atom_site_type_symbol
_atom_site_label
_atom_site_fract_x
_atom_site_fract_y
_atom_site_fract_z
Si Si1 0.000000 0.000000 0.500000
Si Si2 0.598630 0.888990 0.789016
Si Si3 0.000000 0.714931 0.305457
Si Si4 0.844582 0.556554 0.726122
O O1 0.077952 0.017277 0.705203
O O2 0.500000 0.913803 0.836791
O O3 0.579398 0.826634 0.733014
O O4 0.639932 0.915666 0.543826
O O5 0.648747 0.899047 0.048044
O O6 0.000000 0.741417 0.581872
O O7 0.750000 0.531378 0.750000
#
# Coordination Sequence:
#
# PCOD9477006 Si02
#       4
#     4  16   8  16
#     4  12  24  48  64 100 132 162 228 284 320 384
#     4  10  21  42  64  93 132 175 212 271 327 396
#     4  10  18  33  68 101 122 171 226 263 332 394
#     4  12  25  42  68  95 133 179 219 273 339 396
#
# _framework density 21.780685999999999
#
# number of rings (size 3 to 8) (size 9 to 14) (size 15 to 20)
#    1.091    0.000    3.636    3.273    0.000    5.818 
#    0.000    0.000    0.000   21.818    0.000    0.000 
#    0.000    0.000    0.000    0.000    0.000    0.000 
#
# Total GULP energy -122649.698789 kJ/mol
# GULP energy per Si atom -5574.986309 kJ/mol
# Density = 2.173111 g / cm^3
# Si number density = 21.780686 Si / 1000 Ang^3
#
#
#
# Elastic Constant Matrix: (Units=GPa)
#
#
# Indices 1 2 3 4 5 6 
#
# 1 162.0914 16.9921 9.7870 0.0000 0.0000 0.0000
# 2 16.9921 62.0901 7.1519 0.0000 0.0000 0.0000
# 3 9.7870 7.1519 126.6213 0.0000 0.0000 0.0000
# 4 0.0000 0.0000 0.0000 46.7510 0.0000 0.0000
# 5 0.0000 0.0000 0.0000 0.0000 -27.4064 0.0000
# 6 0.0000 0.0000 0.0000 0.0000 0.0000 -329.1173
#
#
#
# Elastic Compliance Matrix: (Units=1/GPa)
#
#
# Indices 1 2 3 4 5 6 
#
# 1 0.006371 -0.001698 -0.000397 0.000000 0.000000 0.000000
# 2 -0.001698 0.016664 -0.000810 0.000000 0.000000 0.000000
# 3 -0.000397 -0.000810 0.007974 0.000000 0.000000 0.000000
# 4 0.000000 0.000000 0.000000 0.021390 0.000000 0.000000
# 5 0.000000 0.000000 0.000000 0.000000 -0.036488 0.000000
# 6 0.000000 0.000000 0.000000 0.000000 0.000000 -0.003038
#
#
# Mechanical properties :
#
#
# Convention : Reuss Voigt Hill
#
# Bulk Modulus (GPa) = 39.68266 46.51833 43.10049
# Shear Modulus (GPa) = 184.62838 -40.82976 71.89931
#
# Velocity S-wave (km/s) = 9.21689 -4.33435 5.75172
# Velocity P-wave (km/s) = 11.46851 1.90913 7.99631
#
# Compressibility (1/GPa) = 0.02519992
#
# Stress axis : x y z
#
# Youngs Moduli (GPa) = 156.95390 60.01108 125.40816
#
# Poissons Ratio (x) = 0.10190 0.04973
# Poissons Ratio (y) = 0.26650 0.10158
# Poissons Ratio (z) = 0.06224 0.04861
#
# Static dielectric constant tensor:
#      x y z
#    x 1.812240 0.000000 0.000000 
#    y 0.000000 1.391680 0.000000 
#    z 0.000000 0.000000 1.751360 
# 
# From -- ./inp_files/797.got.cif
#   From: 2010.05.17/outbox.cif.g08.bks.cpg/sg64_1_cif.got.tgz:797.got - 2010.06.03 16:29:19.
