data_PCOD9477219
_publ_section_title
;
Structure prediction by ZEFSAII (Michael W. Deem and Ramdas Pophale) SiO2 
 PCOD9477219
Probable space group: C M C A
;
_chemical_formula_sum "Si O2"
_cell_formula_units_Z 64
_cell_length_a 5.621934
_cell_length_b 19.272412
_cell_length_c 23.989453
_cell_angle_alpha 90.000000
_cell_angle_beta 90.000000
_cell_angle_gamma 90.000000
_cell_volume 2599.214730
_symmetry_space_group_name_H-M "C M C A"
_symmetry_group_IT_number 64
_symmetry_cell_setting 'orthorhombic'
loop_
_space_group_symop_operation_xyz
x,y,z
-x,1/2-y,1/2+z
x,-y,-z
-x,1/2+y,1/2-z
-x,-y,-z
x,1/2+y,1/2-z
-x,y,z
x,1/2-y,1/2+z
1/2+x,1/2+y,z
1/2-x,-y,1/2+z
1/2+x,1/2-y,-z
1/2-x,y,1/2-z
1/2-x,1/2-y,-z
1/2+x,y,1/2-z
1/2-x,1/2+y,z
1/2+x,-y,1/2+z
loop_
_atom_site_type_symbol
_atom_site_label
_atom_site_fract_x
_atom_site_fract_y
_atom_site_fract_z
Si Si1 0.000000 0.930461 0.952922
Si Si2 0.500000 0.964104 0.284494
Si Si3 0.000000 0.818005 0.046565
Si Si4 0.000000 0.691125 0.714959
Si Si5 0.000000 0.335968 0.835390
Si Si6 0.000000 0.575796 0.051635
Si Si7 0.000000 0.307923 0.042948
Si Si8 0.000000 0.109709 0.165073
O O1 0.254908 0.966324 0.946096
O O2 0.000000 0.875753 0.901403
O O3 0.000000 0.888984 0.010756
O O4 0.250000 0.970743 0.250000
O O5 0.500000 0.886845 0.309059
O O6 0.500000 0.027069 0.327506
O O7 0.000000 0.758316 0.998299
O O8 0.746386 0.809969 0.075779
O O9 0.250000 0.696609 0.750000
O O10 0.000000 0.754452 0.672469
O O11 0.747514 0.362174 0.811373
O O12 0.000000 0.370806 0.896521
O O13 0.000000 0.625507 0.998057
#
# Coordination Sequence:
#
# PCOD9477219 Si02
#       8
#     8   8   8   8   8   8   8   8
#     4   8  14  23  34  52  77 101 127 161 198 232
#     4  10  21  35  48  63  85 111 138 171 210 250
#     4   8  12  18  29  45  68  99 128 152 185 230
#     4  10  21  35  48  63  85 111 138 171 210 250
#     4  10  19  30  46  66  86 109 138 173 209 246
#     4   8  14  23  34  52  77 101 127 161 198 232
#     4   8  12  18  29  45  68  99 128 152 185 230
#     4  10  19  30  46  66  86 109 138 173 209 246
#
# _framework density 24.622820999999998
#
# number of rings (size 3 to 8) (size 9 to 14) (size 15 to 20)
#    0.000    3.000    0.000    1.500    0.000    3.000 
#    0.000    0.000    0.000    0.000    0.000    0.000 
#    0.000    1.000    0.000    0.000    0.000  254.000 
#
# Total GULP energy -178375.289084 kJ/mol
# GULP energy per Si atom -5574.227784 kJ/mol
# Density = 2.456678 g / cm^3
# Si number density = 24.622821 Si / 1000 Ang^3
#
#
#
# Elastic Constant Matrix: (Units=GPa)
#
#
# Indices 1 2 3 4 5 6 
#
# 1 329.6956 43.4248 31.1154 0.0000 0.0000 0.0000
# 2 43.4248 129.4638 39.4157 0.0000 0.0000 0.0000
# 3 31.1154 39.4157 53.7793 0.0000 0.0000 0.0000
# 4 0.0000 0.0000 0.0000 17.0544 0.0000 0.0000
# 5 0.0000 0.0000 0.0000 0.0000 14.8126 0.0000
# 6 0.0000 0.0000 0.0000 0.0000 0.0000 10.0894
#
#
#
# Elastic Compliance Matrix: (Units=1/GPa)
#
#
# Indices 1 2 3 4 5 6 
#
# 1 0.003252 -0.000667 -0.001393 0.000000 0.000000 0.000000
# 2 -0.000667 0.010079 -0.007002 0.000000 0.000000 0.000000
# 3 -0.001393 -0.007002 0.024532 0.000000 0.000000 0.000000
# 4 0.000000 0.000000 0.000000 0.058636 0.000000 0.000000
# 5 0.000000 0.000000 0.000000 0.000000 0.067510 0.000000
# 6 0.000000 0.000000 0.000000 0.000000 0.000000 0.099113
#
#
# Mechanical properties :
#
#
# Convention : Reuss Voigt Hill
#
# Bulk Modulus (GPa) = 50.65588 82.31671 66.48630
# Shear Modulus (GPa) = 17.37156 34.99014 26.18085
#
# Velocity S-wave (km/s) = 2.65902 3.77376 3.26433
# Velocity P-wave (km/s) = 5.48129 7.24514 6.42404
#
# Compressibility (1/GPa) = 0.01974104
#
# Stress axis : x y z
#
# Youngs Moduli (GPa) = 307.46553 99.21131 40.76290
#
# Poissons Ratio (x) = 0.06615 0.05678
# Poissons Ratio (y) = 0.20502 0.28541
# Poissons Ratio (z) = 0.42831 0.69464
#
# Static dielectric constant tensor:
#      x y z
#    x 2.011580 0.000000 0.000000 
#    y 0.000000 1.882140 0.000000 
#    z 0.000000 0.000000 1.913600 
# 
# From -- ./inp_files/51417.got.cif
#   From: 2010.05.17/outbox.cif.g08.bks.cpg/sg64_26_cif.got.tgz:51417.got - 2010.06.03 16:29:19.
