data_PCOD9477680
_publ_section_title
;
Structure prediction by ZEFSAII (Michael W. Deem and Ramdas Pophale) SiO2 
 PCOD9477680
Probable space group: C M C A
;
_chemical_formula_sum "Si O2"
_cell_formula_units_Z 112
_cell_length_a 26.562172
_cell_length_b 14.467155
_cell_length_c 13.734214
_cell_angle_alpha 90.000000
_cell_angle_beta 90.000000
_cell_angle_gamma 90.000000
_cell_volume 5277.770838
_symmetry_space_group_name_H-M "C M C A"
_symmetry_group_IT_number 64
_symmetry_cell_setting 'orthorhombic'
loop_
_space_group_symop_operation_xyz
x,y,z
-x,1/2-y,1/2+z
x,-y,-z
-x,1/2+y,1/2-z
-x,-y,-z
x,1/2+y,1/2-z
-x,y,z
x,1/2-y,1/2+z
1/2+x,1/2+y,z
1/2-x,-y,1/2+z
1/2+x,1/2-y,-z
1/2-x,y,1/2-z
1/2-x,1/2-y,-z
1/2+x,y,1/2-z
1/2-x,1/2+y,z
1/2+x,-y,1/2+z
loop_
_atom_site_type_symbol
_atom_site_label
_atom_site_fract_x
_atom_site_fract_y
_atom_site_fract_z
Si Si1 0.269120 0.825169 0.858377
Si Si2 0.871302 0.061808 0.838539
Si Si3 0.941556 0.545085 0.905402
Si Si4 0.704878 0.982023 0.172059
Si Si5 0.441994 0.912523 0.717512
Si Si6 0.439455 0.301115 0.260545
Si Si7 0.281257 0.129289 0.544971
O O1 0.250000 0.805077 0.750000
O O2 0.286767 0.730435 0.906717
O O3 0.306803 0.912443 0.857884
O O4 0.224953 0.860781 0.929942
O O5 0.840066 0.057864 0.736174
O O6 0.909757 0.146805 0.825128
O O7 0.829624 0.074833 0.919792
O O8 0.903671 0.969180 0.848920
O O9 0.940845 0.469810 0.818876
O O10 0.925142 0.642231 0.858670
O O11 0.000000 0.563116 0.931145
O O12 0.916031 0.500000 0.000000
O O13 0.750000 0.992135 0.250000
O O14 0.730317 0.918699 0.088848
O O15 0.500000 0.915473 0.682675
O O16 0.427530 0.806463 0.732273
O O17 0.500000 0.311433 0.247150
#
# Coordination Sequence:
#
# PCOD9477680 Si02
#       7
#    16  16  16  16  16  16  16
#     4  10  20  37  63  82 118 165 195 241 309 373
#     4  10  19  33  58  87 126 166 212 259 315 381
#     4   8  14  28  52  79 112 155 203 256 312 375
#     4   9  19  35  55  84 116 156 192 251 304 368
#     4   9  18  33  56  89 125 166 209 262 328 378
#     4   9  18  33  57  89 128 169 213 266 326 381
#     4  10  21  37  58  91 120 158 205 254 309 379
#
# _framework density 21.221080000000001
#
# number of rings (size 3 to 8) (size 9 to 14) (size 15 to 20)
#    0.000    2.714    0.000    3.000    2.000    0.000 
#    2.571    5.714    6.286    3.429    0.000    3.000 
#    0.000   69.714    0.000    1.143    0.000    0.000 
#
# Total GULP energy -312336.840784 kJ/mol
# GULP energy per Si atom -5577.443585 kJ/mol
# Density = 2.117278 g / cm^3
# Si number density = 21.221080 Si / 1000 Ang^3
#
#
#
# Elastic Constant Matrix: (Units=GPa)
#
#
# Indices 1 2 3 4 5 6 
#
# 1 76.7681 42.4416 17.1493 0.0000 0.0000 0.0000
# 2 42.4416 142.5978 17.8466 0.0000 0.0000 0.0000
# 3 17.1493 17.8466 86.0852 0.0000 0.0000 0.0000
# 4 0.0000 0.0000 0.0000 19.2075 0.0000 0.0000
# 5 0.0000 0.0000 0.0000 0.0000 7.8496 0.0000
# 6 0.0000 0.0000 0.0000 0.0000 0.0000 16.1158
#
#
#
# Elastic Compliance Matrix: (Units=1/GPa)
#
#
# Indices 1 2 3 4 5 6 
#
# 1 0.016009 -0.004482 -0.002260 0.000000 0.000000 0.000000
# 2 -0.004482 0.008454 -0.000860 0.000000 0.000000 0.000000
# 3 -0.002260 -0.000860 0.012245 0.000000 0.000000 0.000000
# 4 0.000000 0.000000 0.000000 0.052063 0.000000 0.000000
# 5 0.000000 0.000000 0.000000 0.000000 0.127395 0.000000
# 6 0.000000 0.000000 0.000000 0.000000 0.000000 0.062051
#
#
# Mechanical properties :
#
#
# Convention : Reuss Voigt Hill
#
# Bulk Modulus (GPa) = 46.50172 51.14733 48.82453
# Shear Modulus (GPa) = 16.63401 23.83548 20.23475
#
# Velocity S-wave (km/s) = 2.80276 3.35505 3.09126
# Velocity P-wave (km/s) = 5.69513 6.25803 5.98320
#
# Compressibility (1/GPa) = 0.02150458
#
# Stress axis : x y z
#
# Youngs Moduli (GPa) = 62.46506 118.28296 81.66682
#
# Poissons Ratio (x) = 0.53013 0.18457
# Poissons Ratio (y) = 0.27996 0.07022
# Poissons Ratio (z) = 0.14117 0.10170
#
# Static dielectric constant tensor:
#      x y z
#    x 1.800540 0.000000 0.000000 
#    y 0.000000 1.803850 0.000000 
#    z 0.000000 0.000000 1.786120 
# 
# From -- ./inp_files/28062.got.cif
#   From: 2010.05.17/outbox.cif.g08.bks.cpg/sg64_15_cif.got.tgz:28062.got - 2010.06.03 16:29:19.
