data_PCOD9477783
_publ_section_title
;
Structure prediction by ZEFSAII (Michael W. Deem and Ramdas Pophale) SiO2 
 PCOD9477783
Probable space group: C M C A
;
_chemical_formula_sum "Si O2"
_cell_formula_units_Z 80
_cell_length_a 17.112231
_cell_length_b 14.672723
_cell_length_c 17.857574
_cell_angle_alpha 90.000000
_cell_angle_beta 90.000000
_cell_angle_gamma 90.000000
_cell_volume 4483.733706
_symmetry_space_group_name_H-M "C M C A"
_symmetry_group_IT_number 64
_symmetry_cell_setting 'orthorhombic'
loop_
_space_group_symop_operation_xyz
x,y,z
-x,1/2-y,1/2+z
x,-y,-z
-x,1/2+y,1/2-z
-x,-y,-z
x,1/2+y,1/2-z
-x,y,z
x,1/2-y,1/2+z
1/2+x,1/2+y,z
1/2-x,-y,1/2+z
1/2+x,1/2-y,-z
1/2-x,y,1/2-z
1/2-x,1/2-y,-z
1/2+x,y,1/2-z
1/2-x,1/2+y,z
1/2+x,-y,1/2+z
loop_
_atom_site_type_symbol
_atom_site_label
_atom_site_fract_x
_atom_site_fract_y
_atom_site_fract_z
Si Si1 0.259395 0.448349 0.663092
Si Si2 0.267310 0.656633 0.836808
Si Si3 0.310085 0.213478 0.437039
Si Si4 0.088066 0.271722 0.431593
Si Si5 0.411070 0.945861 0.925465
O O1 0.250000 0.421966 0.750000
O O2 0.224621 0.548800 0.651141
O O3 0.221643 0.373436 0.608273
O O4 0.349992 0.459271 0.640827
O O5 0.250000 0.672878 0.750000
O O6 0.193724 0.701930 0.880000
O O7 0.346396 0.701478 0.870210
O O8 0.250000 0.250000 0.500000
O O9 0.385717 0.192133 0.486575
O O10 0.088847 0.162247 0.440220
O O11 0.000000 0.299901 0.411537
O O12 0.500000 0.974362 0.908349
O O13 0.385386 0.000000 0.000000
#
# Coordination Sequence:
#
# PCOD9477783 Si02
#       5
#    16  16  16  16  16
#     4  11  22  36  58  89 117 151 196 240 294 349
#     4  10  21  37  58  84 114 155 196 236 288 348
#     4  10  19  34  57  82 111 150 192 235 277 350
#     4  10  21  37  56  85 115 149 189 239 292 337
#     4  10  20  35  59  87 115 147 194 251 292 334
#
# _framework density 17.842272999999999
#
# number of rings (size 3 to 8) (size 9 to 14) (size 15 to 20)
#    0.000    1.800    4.000    1.800    2.800    0.000 
#    0.000    8.000    0.000    0.000    0.000    0.000 
#    0.000    0.000    0.000    0.000    0.000    0.000 
#
# Total GULP energy -222814.754489 kJ/mol
# GULP energy per Si atom -5570.368862 kJ/mol
# Density = 1.780166 g / cm^3
# Si number density = 17.842273 Si / 1000 Ang^3
#
#
#
# Elastic Constant Matrix: (Units=GPa)
#
#
# Indices 1 2 3 4 5 6 
#
# 1 96.1576 13.9642 54.4777 0.0000 0.0000 0.0000
# 2 13.9642 87.1165 49.0841 0.0000 0.0000 0.0000
# 3 54.4777 49.0841 130.5180 0.0000 0.0000 0.0000
# 4 0.0000 0.0000 0.0000 26.5348 0.0000 0.0000
# 5 0.0000 0.0000 0.0000 0.0000 20.8271 0.0000
# 6 0.0000 0.0000 0.0000 0.0000 0.0000 21.7066
#
#
#
# Elastic Compliance Matrix: (Units=1/GPa)
#
#
# Indices 1 2 3 4 5 6 
#
# 1 0.013736 0.001305 -0.006224 0.000000 0.000000 0.000000
# 2 0.001305 0.014689 -0.006069 0.000000 0.000000 0.000000
# 3 -0.006224 -0.006069 0.012542 0.000000 0.000000 0.000000
# 4 0.000000 0.000000 0.000000 0.037686 0.000000 0.000000
# 5 0.000000 0.000000 0.000000 0.000000 0.048014 0.000000
# 6 0.000000 0.000000 0.000000 0.000000 0.000000 0.046069
#
#
# Mechanical properties :
#
#
# Convention : Reuss Voigt Hill
#
# Bulk Modulus (GPa) = 52.65539 60.98268 56.81904
# Shear Modulus (GPa) = 24.87019 26.89813 25.88416
#
# Velocity S-wave (km/s) = 3.73754 3.88693 3.81297
# Velocity P-wave (km/s) = 6.94271 7.37545 7.16235
#
# Compressibility (1/GPa) = 0.01899141
#
# Stress axis : x y z
#
# Youngs Moduli (GPa) = 72.79903 68.07781 79.73120
#
# Poissons Ratio (x) = -0.08885 0.49628
# Poissons Ratio (y) = -0.09501 0.48388
# Poissons Ratio (z) = 0.45313 0.41316
#
# Static dielectric constant tensor:
#      x y z
#    x 1.652860 0.000000 0.000000 
#    y 0.000000 1.633600 0.000000 
#    z 0.000000 0.000000 1.524220 
# 
# From -- ./inp_files/32980.got.cif
#   From: 2010.05.17/outbox.cif.g08.bks.cpg/sg64_17_cif.got.tgz:32980.got - 2010.06.03 16:29:19.
