data_PCOD9477471
_publ_section_title
;
Structure prediction by ZEFSAII (Michael W. Deem and Ramdas Pophale) SiO2 
 PCOD9477471
Probable space group: C M C A
;
_chemical_formula_sum "Si O2"
_cell_formula_units_Z 96
_cell_length_a 10.815579
_cell_length_b 25.988256
_cell_length_c 17.884798
_cell_angle_alpha 90.000000
_cell_angle_beta 90.000000
_cell_angle_gamma 90.000000
_cell_volume 5027.023893
_symmetry_space_group_name_H-M "C M C A"
_symmetry_group_IT_number 64
_symmetry_cell_setting 'orthorhombic'
loop_
_space_group_symop_operation_xyz
x,y,z
-x,1/2-y,1/2+z
x,-y,-z
-x,1/2+y,1/2-z
-x,-y,-z
x,1/2+y,1/2-z
-x,y,z
x,1/2-y,1/2+z
1/2+x,1/2+y,z
1/2-x,-y,1/2+z
1/2+x,1/2-y,-z
1/2-x,y,1/2-z
1/2-x,1/2-y,-z
1/2+x,y,1/2-z
1/2-x,1/2+y,z
1/2+x,-y,1/2+z
loop_
_atom_site_type_symbol
_atom_site_label
_atom_site_fract_x
_atom_site_fract_y
_atom_site_fract_z
Si Si1 0.697592 0.501859 0.911042
Si Si2 0.765807 0.236267 0.587421
Si Si3 0.000000 0.913651 0.088700
Si Si4 0.000000 0.198272 0.092500
Si Si5 0.365709 0.532906 0.700243
Si Si6 0.641222 0.343710 0.308175
Si Si7 0.000000 0.081285 0.092615
Si Si8 0.000000 0.294571 0.408680
O O1 0.619264 0.553068 0.887893
O O2 0.833025 0.507027 0.878282
O O3 0.619230 0.452345 0.886085
O O4 0.698387 0.500000 0.000000
O O5 0.750000 0.250000 0.500000
O O6 0.872531 0.274296 0.616993
O O7 0.819733 0.180555 0.611853
O O8 0.624576 0.234235 0.615706
O O9 0.000000 0.854903 0.115678
O O10 0.000000 0.914785 0.998401
O O11 0.000000 0.139574 0.118263
O O12 0.000000 0.202046 0.000545
O O13 0.500000 0.518223 0.728868
O O14 0.250000 0.516682 0.750000
O O15 0.362166 0.594544 0.691482
O O16 0.500000 0.326718 0.290182
O O17 0.750000 0.328348 0.250000
#
# Coordination Sequence:
#
# PCOD9477471 Si02
#       8
#    16  16   8   8  16  16   8   8
#     4   9  17  31  54  81 108 138 186 230 275 324
#     4  10  19  32  53  78 109 146 187 232 276 323
#     4   8  14  27  48  79 106 135 173 223 272 334
#     4   9  17  32  48  72 106 141 183 225 270 311
#     4  10  22  36  55  84 118 148 176 221 286 347
#     4  10  21  37  54  82 117 150 181 222 282 346
#     4   8  16  29  52  76  98 140 183 224 268 318
#     4   9  17  26  48  79 108 136 175 220 281 331
#
# _framework density 19.096786999999999
#
# number of rings (size 3 to 8) (size 9 to 14) (size 15 to 20)
#    0.000    2.667    0.833    2.000    3.500    1.667 
#    0.000    0.000    1.833    1.000    0.000    0.000 
#    0.000    0.000    0.000    0.000    0.000    0.000 
#
# Total GULP energy -267290.756075 kJ/mol
# GULP energy per Si atom -5568.557418 kJ/mol
# Density = 1.905332 g / cm^3
# Si number density = 19.096787 Si / 1000 Ang^3
#
#
#
# Elastic Constant Matrix: (Units=GPa)
#
#
# Indices 1 2 3 4 5 6 
#
# 1 182.1621 56.0111 33.1988 0.0000 0.0000 0.0000
# 2 56.0111 76.6510 10.5953 0.0000 0.0000 0.0000
# 3 33.1988 10.5953 39.0368 0.0000 0.0000 0.0000
# 4 0.0000 0.0000 0.0000 19.5198 0.0000 0.0000
# 5 0.0000 0.0000 0.0000 0.0000 22.9870 0.0000
# 6 0.0000 0.0000 0.0000 0.0000 0.0000 19.5596
#
#
#
# Elastic Compliance Matrix: (Units=1/GPa)
#
#
# Indices 1 2 3 4 5 6 
#
# 1 0.008065 -0.005138 -0.005465 0.000000 0.000000 0.000000
# 2 -0.005138 0.016828 -0.000198 0.000000 0.000000 0.000000
# 3 -0.005465 -0.000198 0.030318 0.000000 0.000000 0.000000
# 4 0.000000 0.000000 0.000000 0.051230 0.000000 0.000000
# 5 0.000000 0.000000 0.000000 0.000000 0.043503 0.000000
# 6 0.000000 0.000000 0.000000 0.000000 0.000000 0.051126
#
#
# Mechanical properties :
#
#
# Convention : Reuss Voigt Hill
#
# Bulk Modulus (GPa) = 29.75268 55.27336 42.51302
# Shear Modulus (GPa) = 21.37898 25.61627 23.49762
#
# Velocity S-wave (km/s) = 3.34953 3.66647 3.51158
# Velocity P-wave (km/s) = 5.52928 6.85060 6.22509
#
# Compressibility (1/GPa) = 0.03361042
#
# Stress axis : x y z
#
# Youngs Moduli (GPa) = 123.98548 59.42423 32.98388
#
# Poissons Ratio (x) = 0.30534 0.18024
# Poissons Ratio (y) = 0.63707 0.00652
# Poissons Ratio (z) = 0.67753 0.01174
#
# Static dielectric constant tensor:
#      x y z
#    x 1.701960 0.000000 0.000000 
#    y 0.000000 1.656980 0.000000 
#    z 0.000000 0.000000 1.755350 
# 
# From -- ./inp_files/31217.got.cif
#   From: 2010.05.17/outbox.cif.g08.bks.cpg/sg64_16_cif.got.tgz:31217.got - 2010.06.03 16:29:19.
