data_PCOD9477721
_publ_section_title
;
Structure prediction by ZEFSAII (Michael W. Deem and Ramdas Pophale) SiO2 
 PCOD9477721
Probable space group: C M C A
;
_chemical_formula_sum "Si O2"
_cell_formula_units_Z 72
_cell_length_a 18.648963
_cell_length_b 12.743469
_cell_length_c 17.222807
_cell_angle_alpha 90.000000
_cell_angle_beta 90.000000
_cell_angle_gamma 90.000000
_cell_volume 4093.042828
_symmetry_space_group_name_H-M "C M C A"
_symmetry_group_IT_number 64
_symmetry_cell_setting 'orthorhombic'
loop_
_space_group_symop_operation_xyz
x,y,z
-x,1/2-y,1/2+z
x,-y,-z
-x,1/2+y,1/2-z
-x,-y,-z
x,1/2+y,1/2-z
-x,y,z
x,1/2-y,1/2+z
1/2+x,1/2+y,z
1/2-x,-y,1/2+z
1/2+x,1/2-y,-z
1/2-x,y,1/2-z
1/2-x,1/2-y,-z
1/2+x,y,1/2-z
1/2-x,1/2+y,z
1/2+x,-y,1/2+z
loop_
_atom_site_type_symbol
_atom_site_label
_atom_site_fract_x
_atom_site_fract_y
_atom_site_fract_z
Si Si1 0.650975 0.349731 0.117380
Si Si2 0.859649 0.050759 0.213394
Si Si3 0.262817 0.000000 0.500000
Si Si4 0.500000 0.588066 0.118743
Si Si5 0.000000 0.848850 0.052812
Si Si6 0.789066 0.374114 0.860630
O O1 0.641728 0.427508 0.190747
O O2 0.574291 0.307846 0.087573
O O3 0.698955 0.249575 0.134715
O O4 0.686372 0.423500 0.051055
O O5 0.929847 0.097480 0.172146
O O6 0.848332 0.074907 0.303729
O O7 0.789159 0.101178 0.174593
O O8 0.214495 0.070425 0.443754
O O9 0.500000 0.470234 0.082697
O O10 0.500000 0.656950 0.040609
#
# Coordination Sequence:
#
# PCOD9477721 Si02
#       6
#    16  16   8   8   8  16
#     4  10  19  34  54  78 104 134 176 213 253 304
#     4   9  20  34  53  78 102 136 173 212 256 302
#     4  10  20  33  52  77 102 134 174 216 258 303
#     4   9  16  33  54  75 104 130 173 220 249 294
#     4   9  16  29  54  79 100 135 173 214 251 293
#     4  10  20  33  52  79 109 137 167 212 263 309
#
# _framework density 17.590824999999999
#
# number of rings (size 3 to 8) (size 9 to 14) (size 15 to 20)
#    0.000    2.444    0.000    4.667    0.000    8.000 
#    0.000    0.000    0.000    2.667    0.000    6.222 
#    0.000    0.000    0.000    0.000    0.000    0.000 
#
# Total GULP energy -200611.876359 kJ/mol
# GULP energy per Si atom -5572.552121 kJ/mol
# Density = 1.755079 g / cm^3
# Si number density = 17.590825 Si / 1000 Ang^3
#
#
#
# Elastic Constant Matrix: (Units=GPa)
#
#
# Indices 1 2 3 4 5 6 
#
# 1 89.6552 20.0542 20.1452 0.0000 0.0000 0.0000
# 2 20.0542 69.1166 23.4496 0.0000 0.0000 0.0000
# 3 20.1452 23.4496 71.5851 0.0000 0.0000 0.0000
# 4 0.0000 0.0000 0.0000 15.8671 0.0000 0.0000
# 5 0.0000 0.0000 0.0000 0.0000 16.9769 0.0000
# 6 0.0000 0.0000 0.0000 0.0000 0.0000 4.0608
#
#
#
# Elastic Compliance Matrix: (Units=1/GPa)
#
#
# Indices 1 2 3 4 5 6 
#
# 1 0.012340 -0.002703 -0.002587 0.000000 0.000000 0.000000
# 2 -0.002703 0.016869 -0.004765 0.000000 0.000000 0.000000
# 3 -0.002587 -0.004765 0.016259 0.000000 0.000000 0.000000
# 4 0.000000 0.000000 0.000000 0.063023 0.000000 0.000000
# 5 0.000000 0.000000 0.000000 0.000000 0.058904 0.000000
# 6 0.000000 0.000000 0.000000 0.000000 0.000000 0.246255
#
#
# Mechanical properties :
#
#
# Convention : Reuss Voigt Hill
#
# Bulk Modulus (GPa) = 39.43697 39.73945 39.58821
# Shear Modulus (GPa) = 11.30677 18.49483 14.90080
#
# Velocity S-wave (km/s) = 2.53803 3.24603 2.91362
# Velocity P-wave (km/s) = 5.57284 6.05715 5.82003
#
# Compressibility (1/GPa) = 0.02535692
#
# Stress axis : x y z
#
# Youngs Moduli (GPa) = 81.03920 59.27947 61.50621
#
# Poissons Ratio (x) = 0.16021 0.15913
# Poissons Ratio (y) = 0.21901 0.29310
# Poissons Ratio (z) = 0.20967 0.28249
#
# Static dielectric constant tensor:
#      x y z
#    x 1.606630 0.000000 0.000000 
#    y 0.000000 1.574580 0.000000 
#    z 0.000000 0.000000 1.654140 
# 
# From -- ./inp_files/32883.got.cif
#   From: 2010.05.17/outbox.cif.g08.bks.cpg/sg64_17_cif.got.tgz:32883.got - 2010.06.03 16:29:19.
