data_PCOD9477507
_publ_section_title
;
Structure prediction by ZEFSAII (Michael W. Deem and Ramdas Pophale) SiO2 
 PCOD9477507
Probable space group: C M C A
;
_chemical_formula_sum "Si O2"
_cell_formula_units_Z 96
_cell_length_a 16.768513
_cell_length_b 24.777582
_cell_length_c 10.573147
_cell_angle_alpha 90.000000
_cell_angle_beta 90.000000
_cell_angle_gamma 90.000000
_cell_volume 4392.965012
_symmetry_space_group_name_H-M "C M C A"
_symmetry_group_IT_number 64
_symmetry_cell_setting 'orthorhombic'
loop_
_space_group_symop_operation_xyz
x,y,z
-x,1/2-y,1/2+z
x,-y,-z
-x,1/2+y,1/2-z
-x,-y,-z
x,1/2+y,1/2-z
-x,y,z
x,1/2-y,1/2+z
1/2+x,1/2+y,z
1/2-x,-y,1/2+z
1/2+x,1/2-y,-z
1/2-x,y,1/2-z
1/2-x,1/2-y,-z
1/2+x,y,1/2-z
1/2-x,1/2+y,z
1/2+x,-y,1/2+z
loop_
_atom_site_type_symbol
_atom_site_label
_atom_site_fract_x
_atom_site_fract_y
_atom_site_fract_z
Si Si1 0.845522 0.200749 0.255086
Si Si2 0.908534 0.916576 0.749154
Si Si3 0.593403 0.964523 0.201991
Si Si4 0.652125 0.439731 0.018974
Si Si5 0.707714 0.625122 0.613933
Si Si6 0.656144 0.237363 0.983620
O O1 0.750000 0.208380 0.250000
O O2 0.862108 0.137966 0.278888
O O3 0.877855 0.234676 0.374854
O O4 0.878032 0.222013 0.120819
O O5 0.000000 0.909024 0.711322
O O6 0.879271 0.973199 0.691460
O O7 0.902925 0.927035 0.899922
O O8 0.500000 0.961823 0.171201
O O9 0.606746 0.944883 0.347444
O O10 0.648184 0.924964 0.123045
O O11 0.719554 0.393830 0.025596
O O12 0.687491 0.500000 0.000000
O O13 0.750000 0.634905 0.750000
O O14 0.659103 0.677228 0.572714
O O15 0.750000 0.250000 0.000000
#
# Coordination Sequence:
#
# PCOD9477507 Si02
#       6
#    16  16  16  16  16  16
#     4  10  21  37  59  83 112 151 197 247 298 354
#     4  10  20  36  57  82 115 153 194 242 299 357
#     4   9  19  34  52  81 120 156 188 234 300 363
#     4   9  17  30  53  82 111 147 197 245 287 347
#     4  10  19  32  55  84 114 150 196 246 293 348
#     4  10  20  36  58  83 113 149 194 246 297 345
#
# _framework density 21.853121000000002
#
# number of rings (size 3 to 8) (size 9 to 14) (size 15 to 20)
#    0.000    2.333    0.000    4.000    0.000    8.000 
#    0.000    2.500    0.000    2.500    0.000    0.000 
#    0.000    0.000    0.000    0.000    0.000    0.000 
#
# Total GULP energy -268028.959679 kJ/mol
# GULP energy per Si atom -5583.936660 kJ/mol
# Density = 2.180338 g / cm^3
# Si number density = 21.853121 Si / 1000 Ang^3
#
#
#
# Elastic Constant Matrix: (Units=GPa)
#
#
# Indices 1 2 3 4 5 6 
#
# 1 25.1899 14.1773 12.4721 0.0000 0.0000 0.0000
# 2 14.1773 93.1868 33.2459 0.0000 0.0000 0.0000
# 3 12.4721 33.2459 61.0598 0.0000 0.0000 0.0000
# 4 0.0000 0.0000 0.0000 28.5938 0.0000 0.0000
# 5 0.0000 0.0000 0.0000 0.0000 6.2552 0.0000
# 6 0.0000 0.0000 0.0000 0.0000 0.0000 3.7394
#
#
#
# Elastic Compliance Matrix: (Units=1/GPa)
#
#
# Indices 1 2 3 4 5 6 
#
# 1 0.045629 -0.004489 -0.006876 0.000000 0.000000 0.000000
# 2 -0.004489 0.013760 -0.006575 0.000000 0.000000 0.000000
# 3 -0.006876 -0.006575 0.021362 0.000000 0.000000 0.000000
# 4 0.000000 0.000000 0.000000 0.034973 0.000000 0.000000
# 5 0.000000 0.000000 0.000000 0.000000 0.159866 0.000000
# 6 0.000000 0.000000 0.000000 0.000000 0.000000 0.267422
#
#
# Mechanical properties :
#
#
# Convention : Reuss Voigt Hill
#
# Bulk Modulus (GPa) = 22.28610 33.24745 27.76677
# Shear Modulus (GPa) = 8.41964 15.68710 12.05337
#
# Velocity S-wave (km/s) = 1.96499 2.68216 2.35109
# Velocity P-wave (km/s) = 3.92027 4.98388 4.48373
#
# Compressibility (1/GPa) = 0.04487102
#
# Stress axis : x y z
#
# Youngs Moduli (GPa) = 21.91565 72.67540 46.81224
#
# Poissons Ratio (x) = 0.32623 0.32189
# Poissons Ratio (y) = 0.09838 0.30779
# Poissons Ratio (z) = 0.15070 0.47785
#
# Static dielectric constant tensor:
#      x y z
#    x 1.808250 0.000000 0.000000 
#    y 0.000000 1.818360 0.000000 
#    z 0.000000 0.000000 1.867250 
# 
# From -- ./inp_files/17476.got.cif
#   From: 2010.05.17/outbox.cif.g08.bks.cpg/sg64_9_cif.got.tgz:17476.got - 2010.06.03 16:29:19.
