data_PCOD9477794
_publ_section_title
;
Structure prediction by ZEFSAII (Michael W. Deem and Ramdas Pophale) SiO2 
 PCOD9477794
Probable space group: C M C A
;
_chemical_formula_sum "Si O2"
_cell_formula_units_Z 96
_cell_length_a 19.629653
_cell_length_b 17.526378
_cell_length_c 15.724414
_cell_angle_alpha 90.000000
_cell_angle_beta 90.000000
_cell_angle_gamma 90.000000
_cell_volume 5409.775793
_symmetry_space_group_name_H-M "C M C A"
_symmetry_group_IT_number 64
_symmetry_cell_setting 'orthorhombic'
loop_
_space_group_symop_operation_xyz
x,y,z
-x,1/2-y,1/2+z
x,-y,-z
-x,1/2+y,1/2-z
-x,-y,-z
x,1/2+y,1/2-z
-x,y,z
x,1/2-y,1/2+z
1/2+x,1/2+y,z
1/2-x,-y,1/2+z
1/2+x,1/2-y,-z
1/2-x,y,1/2-z
1/2-x,1/2-y,-z
1/2+x,y,1/2-z
1/2-x,1/2+y,z
1/2+x,-y,1/2+z
loop_
_atom_site_type_symbol
_atom_site_label
_atom_site_fract_x
_atom_site_fract_y
_atom_site_fract_z
Si Si1 0.199568 0.602944 0.326227
Si Si2 0.079637 0.780452 0.802838
Si Si3 0.576374 0.801076 0.013698
Si Si4 0.677001 0.450825 0.086533
Si Si5 0.227281 0.838940 0.504412
Si Si6 0.077973 0.180867 0.859092
O O1 0.250000 0.618695 0.250000
O O2 0.128877 0.647297 0.312431
O O3 0.189426 0.513430 0.341686
O O4 0.237893 0.633101 0.409508
O O5 0.103304 0.727834 0.723530
O O6 0.000000 0.800973 0.787711
O O7 0.082369 0.735177 0.892207
O O8 0.500000 0.836326 0.007141
O O9 0.645721 0.847431 0.998008
O O10 0.579401 0.735756 0.941417
O O11 0.617753 0.394568 0.115602
O O12 0.662390 0.500000 0.000000
O O13 0.739477 0.393549 0.066693
O O14 0.250000 0.750000 0.500000
O O15 0.000000 0.161365 0.839901
#
# Coordination Sequence:
#
# PCOD9477794 Si02
#       6
#    16  16  16  16  16  16
#     4  11  23  37  55  85 118 152 193 240 298 350
#     4  10  21  36  57  86 117 152 198 243 287 353
#     4  10  19  34  57  86 115 146 194 243 286 336
#     4  10  22  37  55  83 120 151 188 247 305 354
#     4  11  19  37  61  85 112 151 196 241 284 347
#     4  10  20  35  58  88 117 154 201 239 287 356
#
# _framework density 17.745652
#
# number of rings (size 3 to 8) (size 9 to 14) (size 15 to 20)
#    0.000    1.667    3.333    2.000    0.000    2.333 
#    0.000    0.000    0.000    5.500    0.000    0.000 
#    0.000    0.000    0.000    0.000    0.000    0.000 
#
# Total GULP energy -267565.064197 kJ/mol
# GULP energy per Si atom -5574.272171 kJ/mol
# Density = 1.770526 g / cm^3
# Si number density = 17.745652 Si / 1000 Ang^3
#
#
#
# Elastic Constant Matrix: (Units=GPa)
#
#
# Indices 1 2 3 4 5 6 
#
# 1 127.6601 63.2331 18.9883 0.0000 0.0000 0.0000
# 2 63.2331 87.8842 22.7196 0.0000 0.0000 0.0000
# 3 18.9883 22.7196 64.6569 0.0000 0.0000 0.0000
# 4 0.0000 0.0000 0.0000 16.7522 0.0000 0.0000
# 5 0.0000 0.0000 0.0000 0.0000 15.4178 0.0000
# 6 0.0000 0.0000 0.0000 0.0000 0.0000 29.0581
#
#
#
# Elastic Compliance Matrix: (Units=1/GPa)
#
#
# Indices 1 2 3 4 5 6 
#
# 1 0.012188 -0.008628 -0.000548 0.000000 0.000000 0.000000
# 2 -0.008628 0.018623 -0.004010 0.000000 0.000000 0.000000
# 3 -0.000548 -0.004010 0.017036 0.000000 0.000000 0.000000
# 4 0.000000 0.000000 0.000000 0.059694 0.000000 0.000000
# 5 0.000000 0.000000 0.000000 0.000000 0.064860 0.000000
# 6 0.000000 0.000000 0.000000 0.000000 0.000000 0.034414
#
#
# Mechanical properties :
#
#
# Convention : Reuss Voigt Hill
#
# Bulk Modulus (GPa) = 46.56319 54.45369 50.50844
# Shear Modulus (GPa) = 20.80336 23.92963 22.36649
#
# Velocity S-wave (km/s) = 3.42761 3.67615 3.55405
# Velocity P-wave (km/s) = 6.47772 6.98362 6.73542
#
# Compressibility (1/GPa) = 0.02147619
#
# Stress axis : x y z
#
# Youngs Moduli (GPa) = 82.04486 53.69644 58.69854
#
# Poissons Ratio (x) = 0.46330 0.03215
# Poissons Ratio (y) = 0.70789 0.23539
# Poissons Ratio (z) = 0.04494 0.21533
#
# Static dielectric constant tensor:
#      x y z
#    x 1.633560 0.000000 0.000000 
#    y 0.000000 1.600750 0.000000 
#    z 0.000000 0.000000 1.600980 
# 
# From -- ./inp_files/26342.got.cif
#   From: 2010.05.17/outbox.cif.g08.bks.cpg/sg64_14_cif.got.tgz:26342.got - 2010.06.03 16:29:19.
