data_PCOD9477870
_publ_section_title
;
Structure prediction by ZEFSAII (Michael W. Deem and Ramdas Pophale) SiO2 
 PCOD9477870
Probable space group: C M C A
;
_chemical_formula_sum "Si O2"
_cell_formula_units_Z 104
_cell_length_a 7.633823
_cell_length_b 28.018793
_cell_length_c 25.022232
_cell_angle_alpha 90.000000
_cell_angle_beta 90.000000
_cell_angle_gamma 90.000000
_cell_volume 5352.017875
_symmetry_space_group_name_H-M "C M C A"
_symmetry_group_IT_number 64
_symmetry_cell_setting 'orthorhombic'
loop_
_space_group_symop_operation_xyz
x,y,z
-x,1/2-y,1/2+z
x,-y,-z
-x,1/2+y,1/2-z
-x,-y,-z
x,1/2+y,1/2-z
-x,y,z
x,1/2-y,1/2+z
1/2+x,1/2+y,z
1/2-x,-y,1/2+z
1/2+x,1/2-y,-z
1/2-x,y,1/2-z
1/2-x,1/2-y,-z
1/2+x,y,1/2-z
1/2-x,1/2+y,z
1/2+x,-y,1/2+z
loop_
_atom_site_type_symbol
_atom_site_label
_atom_site_fract_x
_atom_site_fract_y
_atom_site_fract_z
Si Si1 0.295085 0.575032 0.106758
Si Si2 0.791123 0.845689 0.812182
Si Si3 0.799725 0.340935 0.099868
Si Si4 0.288703 0.656505 0.475400
Si Si5 0.800523 0.979054 0.441642
Si Si6 0.000000 0.091819 0.895075
Si Si7 0.797224 0.264967 0.893131
O O1 0.500000 0.564601 0.114885
O O2 0.228380 0.607367 0.155797
O O3 0.276708 0.609644 0.055253
O O4 0.201600 0.525341 0.096657
O O5 0.750000 0.847234 0.750000
O O6 0.715178 0.799696 0.842228
O O7 0.000000 0.843693 0.819766
O O8 0.655536 0.372602 0.128579
O O9 0.794442 0.285225 0.114773
O O10 0.000000 0.357496 0.104587
O O11 0.740027 0.342560 0.037182
O O12 0.500000 0.656081 0.472245
O O13 0.226457 0.702936 0.442463
O O14 0.655843 0.942341 0.421474
O O15 0.000000 0.959714 0.445258
O O16 0.754766 0.000000 0.500000
O O17 0.000000 0.254437 0.904604
#
# Coordination Sequence:
#
# PCOD9477870 Si02
#       7
#    16  16  16  16  16   8  16
#     4  10  20  34  55  82 116 153 191 238 295 354
#     4  10  21  37  59  89 120 147 186 237 298 363
#     4  11  22  35  51  77 113 153 205 240 277 333
#     4   9  19  31  49  76 110 152 193 233 281 341
#     4  11  23  37  55  81 117 155 203 244 289 348
#     4  12  23  36  52  76 108 154 194 242 283 326
#     4  10  19  35  54  78 113 152 187 237 288 341
#
# _framework density 19.431923000000001
#
# number of rings (size 3 to 8) (size 9 to 14) (size 15 to 20)
#    0.000    1.692    1.538    3.462    3.231    4.923 
#    0.000    0.000    0.000    0.000    0.000    1.077 
#    0.000    0.000    0.000    0.000    0.000    0.000 
#
# Total GULP energy -289470.508143 kJ/mol
# GULP energy per Si atom -5566.740541 kJ/mol
# Density = 1.938769 g / cm^3
# Si number density = 19.431923 Si / 1000 Ang^3
#
#
#
# Elastic Constant Matrix: (Units=GPa)
#
#
# Indices 1 2 3 4 5 6 
#
# 1 94.7799 24.2488 -8.8516 0.0000 0.0000 0.0000
# 2 24.2488 100.0902 8.0814 0.0000 0.0000 0.0000
# 3 -8.8516 8.0814 53.3412 0.0000 0.0000 0.0000
# 4 0.0000 0.0000 0.0000 5.7719 0.0000 0.0000
# 5 0.0000 0.0000 0.0000 0.0000 -1.0242 0.0000
# 6 0.0000 0.0000 0.0000 0.0000 0.0000 80.9137
#
#
#
# Elastic Compliance Matrix: (Units=1/GPa)
#
#
# Indices 1 2 3 4 5 6 
#
# 1 0.011536 -0.002986 0.002367 0.000000 0.000000 0.000000
# 2 -0.002986 0.010888 -0.002145 0.000000 0.000000 0.000000
# 3 0.002367 -0.002145 0.019465 0.000000 0.000000 0.000000
# 4 0.000000 0.000000 0.000000 0.173254 0.000000 0.000000
# 5 0.000000 0.000000 0.000000 0.000000 -0.976394 0.000000
# 6 0.000000 0.000000 0.000000 0.000000 0.000000 0.012359
#
#
# Mechanical properties :
#
#
# Convention : Reuss Voigt Hill
#
# Bulk Modulus (GPa) = 27.50290 32.79651 30.14971
# Shear Modulus (GPa) = -6.83766 32.11446 12.63840
#
# Velocity S-wave (km/s) = -1.87788 4.06971 2.55305
# Velocity P-wave (km/s) = 3.07933 6.24481 4.92341
#
# Compressibility (1/GPa) = 0.03635980
#
# Stress axis : x y z
#
# Youngs Moduli (GPa) = 86.68755 91.84804 51.37446
#
# Poissons Ratio (x) = 0.27424 -0.12158
# Poissons Ratio (y) = 0.25883 0.11020
# Poissons Ratio (z) = -0.20516 0.19701
#
# Static dielectric constant tensor:
#      x y z
#    x 1.703690 0.000000 0.000000 
#    y 0.000000 1.709730 0.000000 
#    z 0.000000 0.000000 1.661890 
# 
# From -- ./inp_files/48695.got.cif
#   From: 2010.05.17/outbox.cif.g08.bks.cpg/sg64_25_cif.got.tgz:48695.got - 2010.06.03 16:29:19.
