data_PCOD9477911
_publ_section_title
;
Structure prediction by ZEFSAII (Michael W. Deem and Ramdas Pophale) SiO2 
 PCOD9477911
Probable space group: C M C A
;
_chemical_formula_sum "Si O2"
_cell_formula_units_Z 72
_cell_length_a 14.162124
_cell_length_b 15.442388
_cell_length_c 18.279597
_cell_angle_alpha 90.000000
_cell_angle_beta 90.000000
_cell_angle_gamma 90.000000
_cell_volume 3997.693276
_symmetry_space_group_name_H-M "C M C A"
_symmetry_group_IT_number 64
_symmetry_cell_setting 'orthorhombic'
loop_
_space_group_symop_operation_xyz
x,y,z
-x,1/2-y,1/2+z
x,-y,-z
-x,1/2+y,1/2-z
-x,-y,-z
x,1/2+y,1/2-z
-x,y,z
x,1/2-y,1/2+z
1/2+x,1/2+y,z
1/2-x,-y,1/2+z
1/2+x,1/2-y,-z
1/2-x,y,1/2-z
1/2-x,1/2-y,-z
1/2+x,y,1/2-z
1/2-x,1/2+y,z
1/2+x,-y,1/2+z
loop_
_atom_site_type_symbol
_atom_site_label
_atom_site_fract_x
_atom_site_fract_y
_atom_site_fract_z
Si Si1 0.500000 0.556284 0.314613
Si Si2 0.709466 0.284953 0.576624
Si Si3 0.321497 0.520719 0.417198
Si Si4 0.500000 0.121764 0.760508
Si Si5 0.797633 0.141413 0.673137
Si Si6 0.500000 0.760325 0.864033
O O1 0.409925 0.536175 0.364531
O O2 0.500000 0.483312 0.251937
O O3 0.500000 0.659612 0.305311
O O4 0.750000 0.250000 0.500000
O O5 0.730804 0.387235 0.582335
O O6 0.758806 0.230212 0.640421
O O7 0.596004 0.270572 0.588272
O O8 0.350733 0.500000 0.500000
O O9 0.273573 0.435570 0.383533
O O10 0.591737 0.145753 0.808229
O O11 0.500000 0.173350 0.684277
O O12 0.750000 0.120796 0.750000
#
# Coordination Sequence:
#
# PCOD9477911 Si02
#       6
#     8  16  16   8  16   8
#     4   8  19  32  56  86 109 149 200 244 286 348
#     4  11  22  38  62  89 119 157 201 249 302 355
#     4  10  19  35  58  84 115 150 197 245 294 351
#     4  10  20  38  58  83 121 153 192 248 299 349
#     4  11  22  38  61  88 116 156 200 247 302 359
#     4  10  20  38  60  88 124 153 199 249 300 358
#
# _framework density 18.010386
#
# number of rings (size 3 to 8) (size 9 to 14) (size 15 to 20)
#    0.000    1.778    4.444    0.333    0.000    1.778 
#    4.000    0.000    0.000    4.000    0.000    0.000 
#    0.000    0.000    0.000    0.000    0.000    0.000 
#
# Total GULP energy -200546.139784 kJ/mol
# GULP energy per Si atom -5570.726105 kJ/mol
# Density = 1.796939 g / cm^3
# Si number density = 18.010386 Si / 1000 Ang^3
#
#
#
# Elastic Constant Matrix: (Units=GPa)
#
#
# Indices 1 2 3 4 5 6 
#
# 1 88.5815 18.5780 6.7096 0.0000 0.0000 0.0000
# 2 18.5780 107.8775 19.3502 0.0000 0.0000 0.0000
# 3 6.7096 19.3502 57.1760 0.0000 0.0000 0.0000
# 4 0.0000 0.0000 0.0000 37.4279 0.0000 0.0000
# 5 0.0000 0.0000 0.0000 0.0000 42.1070 0.0000
# 6 0.0000 0.0000 0.0000 0.0000 0.0000 34.0952
#
#
#
# Elastic Compliance Matrix: (Units=1/GPa)
#
#
# Indices 1 2 3 4 5 6 
#
# 1 0.011741 -0.001890 -0.000738 0.000000 0.000000 0.000000
# 2 -0.001890 0.010173 -0.003221 0.000000 0.000000 0.000000
# 3 -0.000738 -0.003221 0.018667 0.000000 0.000000 0.000000
# 4 0.000000 0.000000 0.000000 0.026718 0.000000 0.000000
# 5 0.000000 0.000000 0.000000 0.000000 0.023749 0.000000
# 6 0.000000 0.000000 0.000000 0.000000 0.000000 0.029330
#
#
# Mechanical properties :
#
#
# Convention : Reuss Voigt Hill
#
# Bulk Modulus (GPa) = 34.62270 38.10119 36.36194
# Shear Modulus (GPa) = 35.28500 36.65915 35.97208
#
# Velocity S-wave (km/s) = 4.43103 4.51649 4.47396
# Velocity P-wave (km/s) = 6.74123 6.95696 6.84994
#
# Compressibility (1/GPa) = 0.02888279
#
# Stress axis : x y z
#
# Youngs Moduli (GPa) = 85.16969 98.29978 53.57150
#
# Poissons Ratio (x) = 0.18574 0.03955
# Poissons Ratio (y) = 0.16093 0.17256
# Poissons Ratio (z) = 0.06289 0.31663
#
# Static dielectric constant tensor:
#      x y z
#    x 0.045200 0.000000 0.000000 
#    y 0.000000 1.670180 0.000000 
#    z 0.000000 0.000000 1.594120 
# 
# From -- ./inp_files/31933.got.cif
#   From: 2010.05.17/outbox.cif.g08.bks.cpg/sg64_16_cif.got.tgz:31933.got - 2010.06.03 16:29:19.
