data_PCOD9477235
_publ_section_title
;
Structure prediction by ZEFSAII (Michael W. Deem and Ramdas Pophale) SiO2 
 PCOD9477235
Probable space group: C M C A
;
_chemical_formula_sum "Si O2"
_cell_formula_units_Z 96
_cell_length_a 9.074027
_cell_length_b 27.942089
_cell_length_c 24.355725
_cell_angle_alpha 90.000000
_cell_angle_beta 90.000000
_cell_angle_gamma 90.000000
_cell_volume 6175.327583
_symmetry_space_group_name_H-M "C M C A"
_symmetry_group_IT_number 64
_symmetry_cell_setting 'orthorhombic'
loop_
_space_group_symop_operation_xyz
x,y,z
-x,1/2-y,1/2+z
x,-y,-z
-x,1/2+y,1/2-z
-x,-y,-z
x,1/2+y,1/2-z
-x,y,z
x,1/2-y,1/2+z
1/2+x,1/2+y,z
1/2-x,-y,1/2+z
1/2+x,1/2-y,-z
1/2-x,y,1/2-z
1/2-x,1/2-y,-z
1/2+x,y,1/2-z
1/2-x,1/2+y,z
1/2+x,-y,1/2+z
loop_
_atom_site_type_symbol
_atom_site_label
_atom_site_fract_x
_atom_site_fract_y
_atom_site_fract_z
Si Si1 0.823778 0.565544 0.807907
Si Si2 0.176623 0.423926 0.523231
Si Si3 0.823181 0.480367 0.412438
Si Si4 0.677090 0.233772 0.916367
Si Si5 0.676812 0.322244 0.307499
Si Si6 0.675751 0.822068 0.971754
O O1 0.750000 0.552232 0.750000
O O2 0.759842 0.535056 0.857871
O O3 0.787645 0.621792 0.817882
O O4 0.000000 0.561065 0.804522
O O5 0.212735 0.466433 0.565841
O O6 0.213512 0.444532 0.462743
O O7 0.257571 0.374562 0.534560
O O8 0.000000 0.416947 0.524818
O O9 0.000000 0.478039 0.404300
O O10 0.500000 0.240349 0.915654
O O11 0.723108 0.209758 0.859191
O O12 0.754589 0.283736 0.930066
O O13 0.710979 0.198187 0.967160
O O14 0.500000 0.318929 0.302476
O O15 0.750000 0.308169 0.250000
O O16 0.500000 0.823038 0.965991
#
# Coordination Sequence:
#
# PCOD9477235 Si02
#       6
#    16  16  16  16  16  16
#     4  10  19  31  48  71  98 126 156 192 233 276
#     4   9  18  32  49  69  96 127 155 188 234 282
#     4   9  18  32  49  70  95 125 159 191 229 279
#     4   9  18  32  47  66  95 126 153 187 233 277
#     4   9  18  31  47  68  94 123 154 188 228 274
#     4  10  19  30  47  71  95 121 157 194 228 274
#
# _framework density 15.545733
#
# number of rings (size 3 to 8) (size 9 to 14) (size 15 to 20)
#    0.000    2.667    0.000    3.000    0.000    4.667 
#    0.000    1.667    0.000    1.000    0.000    4.667 
#    0.000    0.000    0.000    0.000    0.000    0.000 
#
# Total GULP energy -267676.548094 kJ/mol
# GULP energy per Si atom -5576.594752 kJ/mol
# Density = 1.551035 g / cm^3
# Si number density = 15.545733 Si / 1000 Ang^3
#
#
#
# Elastic Constant Matrix: (Units=GPa)
#
#
# Indices 1 2 3 4 5 6 
#
# 1 38.7646 52.4213 57.1658 0.0000 0.0000 0.0000
# 2 52.4213 117.8558 81.2753 0.0000 0.0000 0.0000
# 3 57.1658 81.2753 145.0338 0.0000 0.0000 0.0000
# 4 0.0000 0.0000 0.0000 22.2829 0.0000 0.0000
# 5 0.0000 0.0000 0.0000 0.0000 28.2867 0.0000
# 6 0.0000 0.0000 0.0000 0.0000 0.0000 26.5780
#
#
#
# Elastic Compliance Matrix: (Units=1/GPa)
#
#
# Indices 1 2 3 4 5 6 
#
# 1 0.095374 -0.026889 -0.022524 0.000000 0.000000 0.000000
# 2 -0.026889 0.021410 -0.001400 0.000000 0.000000 0.000000
# 3 -0.022524 -0.001400 0.016557 0.000000 0.000000 0.000000
# 4 0.000000 0.000000 0.000000 0.044877 0.000000 0.000000
# 5 0.000000 0.000000 0.000000 0.000000 0.035352 0.000000
# 6 0.000000 0.000000 0.000000 0.000000 0.000000 0.037625
#
#
# Mechanical properties :
#
#
# Convention : Reuss Voigt Hill
#
# Bulk Modulus (GPa) = 31.52912 75.93100 53.73006
# Shear Modulus (GPa) = 13.75919 22.81565 18.28742
#
# Velocity S-wave (km/s) = 2.97825 3.83514 3.43353
# Velocity P-wave (km/s) = 5.67029 8.28014 7.09623
#
# Compressibility (1/GPa) = 0.03171671
#
# Stress axis : x y z
#
# Youngs Moduli (GPa) = 10.48500 46.70715 60.39628
#
# Poissons Ratio (x) = 1.25589 1.36038
# Poissons Ratio (y) = 0.28193 0.08453
# Poissons Ratio (z) = 0.23617 0.06537
#
# Static dielectric constant tensor:
#      x y z
#    x 1.513550 0.000000 0.000000 
#    y 0.000000 1.497090 0.000000 
#    z 0.000000 0.000000 1.499510 
# 
# From -- ./inp_files/37098.got.cif
#   From: 2010.05.17/outbox.cif.g08.bks.cpg/sg64_19_cif.got.tgz:37098.got - 2010.06.03 16:29:19.
