data_PCOD9477669
_publ_section_title
;
Structure prediction by ZEFSAII (Michael W. Deem and Ramdas Pophale) SiO2 
 PCOD9477669
Probable space group: C M C A
;
_chemical_formula_sum "Si O2"
_cell_formula_units_Z 96
_cell_length_a 7.543280
_cell_length_b 22.752014
_cell_length_c 22.621391
_cell_angle_alpha 90.000000
_cell_angle_beta 90.000000
_cell_angle_gamma 90.000000
_cell_volume 3882.391981
_symmetry_space_group_name_H-M "C M C A"
_symmetry_group_IT_number 64
_symmetry_cell_setting 'orthorhombic'
loop_
_space_group_symop_operation_xyz
x,y,z
-x,1/2-y,1/2+z
x,-y,-z
-x,1/2+y,1/2-z
-x,-y,-z
x,1/2+y,1/2-z
-x,y,z
x,1/2-y,1/2+z
1/2+x,1/2+y,z
1/2-x,-y,1/2+z
1/2+x,1/2-y,-z
1/2-x,y,1/2-z
1/2-x,1/2-y,-z
1/2+x,y,1/2-z
1/2-x,1/2+y,z
1/2+x,-y,1/2+z
loop_
_atom_site_type_symbol
_atom_site_label
_atom_site_fract_x
_atom_site_fract_y
_atom_site_fract_z
Si Si1 0.206848 0.071997 0.489125
Si Si2 0.283315 0.070267 0.147090
Si Si3 0.199564 0.804453 0.668642
Si Si4 0.708540 0.692827 0.035699
Si Si5 0.791883 0.327044 0.316161
Si Si6 0.288277 0.552682 0.617490
O O1 0.276721 0.074018 0.421916
O O2 0.225803 0.140126 0.504808
O O3 0.278081 0.042408 0.549229
O O4 0.000000 0.057751 0.482771
O O5 0.500000 0.073820 0.149898
O O6 0.220402 0.129860 0.180182
O O7 0.230960 0.002235 0.159448
O O8 0.191884 0.805681 0.597680
O O9 0.285091 0.740124 0.680259
O O10 0.000000 0.804076 0.694539
O O11 0.500000 0.687752 0.047215
O O12 0.750000 0.750000 0.000000
O O13 0.750000 0.347431 0.250000
O O14 0.745101 0.382144 0.357976
O O15 0.000000 0.318410 0.325536
O O16 0.500000 0.547667 0.612676
#
# Coordination Sequence:
#
# PCOD9477669 Si02
#       6
#    16  16  16  16  16  16
#     4   9  17  30  50  79 114 150 184 215 255 315
#     4   8  15  31  56  85 115 146 180 215 258 318
#     4   9  19  37  58  78 103 137 177 222 270 321
#     4  11  20  29  45  72 107 145 182 220 263 313
#     4  11  24  41  60  80 104 137 180 231 283 331
#     4  10  19  33  57  85 114 149 185 222 266 320
#
# _framework density 24.727022999999999
#
# number of rings (size 3 to 8) (size 9 to 14) (size 15 to 20)
#    0.000    2.333    0.000    4.500    0.000    6.667 
#    0.000    4.167    0.000    7.000    0.000    0.000 
#    0.000    0.000    0.000    0.000    0.000    0.000 
#
# Total GULP energy -267252.349365 kJ/mol
# GULP energy per Si atom -5567.757278 kJ/mol
# Density = 2.467074 g / cm^3
# Si number density = 24.727023 Si / 1000 Ang^3
#
#
#
# Elastic Constant Matrix: (Units=GPa)
#
#
# Indices 1 2 3 4 5 6 
#
# 1 84.8558 16.5719 -2.9144 0.0000 0.0000 0.0000
# 2 16.5719 174.8281 26.2399 0.0000 0.0000 0.0000
# 3 -2.9144 26.2399 80.5915 0.0000 0.0000 0.0000
# 4 0.0000 0.0000 0.0000 28.7588 0.0000 0.0000
# 5 0.0000 0.0000 0.0000 0.0000 0.5521 0.0000
# 6 0.0000 0.0000 0.0000 0.0000 0.0000 -4.0908
#
#
#
# Elastic Compliance Matrix: (Units=1/GPa)
#
#
# Indices 1 2 3 4 5 6 
#
# 1 0.012062 -0.001271 0.000850 0.000000 0.000000 0.000000
# 2 -0.001271 0.006148 -0.002048 0.000000 0.000000 0.000000
# 3 0.000850 -0.002048 0.013106 0.000000 0.000000 0.000000
# 4 0.000000 0.000000 0.000000 0.034772 0.000000 0.000000
# 5 0.000000 0.000000 0.000000 0.000000 1.811342 0.000000
# 6 0.000000 0.000000 0.000000 0.000000 0.000000 -0.244449
#
#
# Mechanical properties :
#
#
# Convention : Reuss Voigt Hill
#
# Bulk Modulus (GPa) = 37.90977 46.67444 42.29210
# Shear Modulus (GPa) = 3.03636 25.06922 14.05279
#
# Velocity S-wave (km/s) = 1.10933 3.18754 2.38653
# Velocity P-wave (km/s) = 4.12376 5.69772 4.97340
#
# Compressibility (1/GPa) = 0.02637843
#
# Stress axis : x y z
#
# Youngs Moduli (GPa) = 82.90426 162.66251 76.30279
#
# Poissons Ratio (x) = 0.20673 -0.06486
# Poissons Ratio (y) = 0.10537 0.15624
# Poissons Ratio (z) = -0.07047 0.33307
#
# Static dielectric constant tensor:
#      x y z
#    x 2.598290 0.000000 0.000000 
#    y 0.000000 2.077460 0.000000 
#    z 0.000000 0.000000 1.926140 
# 
# From -- ./inp_files/48389.got.cif
#   From: 2010.05.17/outbox.cif.g08.bks.cpg/sg64_25_cif.got.tgz:48389.got - 2010.06.03 16:29:19.
