data_PCOD9477726
_publ_section_title
;
Structure prediction by ZEFSAII (Michael W. Deem and Ramdas Pophale) SiO2 
 PCOD9477726
Probable space group: C M C A
;
_chemical_formula_sum "Si O2"
_cell_formula_units_Z 116
_cell_length_a 7.937975
_cell_length_b 25.039169
_cell_length_c 30.253811
_cell_angle_alpha 90.000000
_cell_angle_beta 90.000000
_cell_angle_gamma 90.000000
_cell_volume 6013.256476
_symmetry_space_group_name_H-M "C M C A"
_symmetry_group_IT_number 64
_symmetry_cell_setting 'orthorhombic'
loop_
_space_group_symop_operation_xyz
x,y,z
-x,1/2-y,1/2+z
x,-y,-z
-x,1/2+y,1/2-z
-x,-y,-z
x,1/2+y,1/2-z
-x,y,z
x,1/2-y,1/2+z
1/2+x,1/2+y,z
1/2-x,-y,1/2+z
1/2+x,1/2-y,-z
1/2-x,y,1/2-z
1/2-x,1/2-y,-z
1/2+x,y,1/2-z
1/2-x,1/2+y,z
1/2+x,-y,1/2+z
loop_
_atom_site_type_symbol
_atom_site_label
_atom_site_fract_x
_atom_site_fract_y
_atom_site_fract_z
Si Si1 0.500000 0.000000 0.500000
Si Si2 0.191335 0.936949 0.699268
Si Si3 0.698620 0.030642 0.944203
Si Si4 0.191143 0.053905 0.797483
Si Si5 0.298094 0.080369 0.103184
Si Si6 0.701385 0.174608 0.463457
Si Si7 0.702575 0.793531 0.058432
Si Si8 0.803905 0.125194 0.626696
O O1 0.654059 0.038242 0.519981
O O2 0.250000 0.927820 0.750000
O O3 0.270776 0.913901 0.653595
O O4 0.000000 0.918497 0.699554
O O5 0.201530 0.001077 0.691605
O O6 0.500000 0.026196 0.958264
O O7 0.700991 0.078673 0.909854
O O8 0.754079 0.975904 0.918991
O O9 0.250000 0.073247 0.750000
O O10 0.208748 0.100922 0.832056
O O11 0.000000 0.034224 0.795073
O O12 0.500000 0.076889 0.106658
O O13 0.256386 0.128013 0.069609
O O14 0.500000 0.175514 0.463304
O O15 0.765102 0.233127 0.447648
O O16 0.758589 0.172424 0.514390
O O17 0.500000 0.791900 0.061860
O O18 0.765531 0.822733 0.102306
O O19 0.000000 0.133380 0.639180
#
# Coordination Sequence:
#
# PCOD9477726 Si02
#       8
#     4  16  16  16  16  16  16  16
#     4  12  26  36  52  74 120 152 194 220 280 340
#     4  10  19  34  54  79 108 143 179 217 269 328
#     4  10  23  38  53  79 113 152 187 228 281 338
#     4  11  21  33  54  81 112 143 180 221 273 334
#     4  10  21  36  54  76 112 147 180 221 277 332
#     4  10  21  35  56  82 106 138 190 233 268 321
#     4   9  20  38  57  78 105 144 183 228 280 323
#     4  10  20  37  57  76 110 145 182 231 280 327
#
# _framework density 19.290711999999999
#
# number of rings (size 3 to 8) (size 9 to 14) (size 15 to 20)
#    0.000    1.931    1.379    3.103    3.862    2.207 
#    0.000    0.000    0.000    0.828    0.000    1.931 
#    0.000    0.000    0.000    0.000    0.000    0.000 
#
# Total GULP energy -322909.524213 kJ/mol
# GULP energy per Si atom -5567.405590 kJ/mol
# Density = 1.924681 g / cm^3
# Si number density = 19.290712 Si / 1000 Ang^3
#
#
#
# Elastic Constant Matrix: (Units=GPa)
#
#
# Indices 1 2 3 4 5 6 
#
# 1 44.5738 -6.1003 -0.1770 0.0000 0.0000 0.0000
# 2 -6.1003 53.6777 17.3183 0.0000 0.0000 0.0000
# 3 -0.1770 17.3183 69.5192 0.0000 0.0000 0.0000
# 4 0.0000 0.0000 0.0000 20.4256 0.0000 0.0000
# 5 0.0000 0.0000 0.0000 0.0000 18.7012 0.0000
# 6 0.0000 0.0000 0.0000 0.0000 0.0000 19.1608
#
#
#
# Elastic Compliance Matrix: (Units=1/GPa)
#
#
# Indices 1 2 3 4 5 6 
#
# 1 0.022815 0.002799 -0.000639 0.000000 0.000000 0.000000
# 2 0.002799 0.020601 -0.005125 0.000000 0.000000 0.000000
# 3 -0.000639 -0.005125 0.015660 0.000000 0.000000 0.000000
# 4 0.000000 0.000000 0.000000 0.048958 0.000000 0.000000
# 5 0.000000 0.000000 0.000000 0.000000 0.053473 0.000000
# 6 0.000000 0.000000 0.000000 0.000000 0.000000 0.052190
#
#
# Mechanical properties :
#
#
# Convention : Reuss Voigt Hill
#
# Bulk Modulus (GPa) = 18.81608 21.09475 19.95542
# Shear Modulus (GPa) = 21.06664 22.10618 21.58641
#
# Velocity S-wave (km/s) = 3.30822 3.38886 3.34878
# Velocity P-wave (km/s) = 4.93635 5.12557 5.03185
#
# Compressibility (1/GPa) = 0.05314602
#
# Stress axis : x y z
#
# Youngs Moduli (GPa) = 43.83031 48.54062 63.85863
#
# Poissons Ratio (x) = -0.13587 0.04082
# Poissons Ratio (y) = -0.12269 0.32727
# Poissons Ratio (z) = 0.02802 0.24877
#
# Static dielectric constant tensor:
#      x y z
#    x 1.634220 0.000000 0.000000 
#    y 0.000000 1.680330 0.000000 
#    z 0.000000 0.000000 1.737630 
# 
# From -- ./inp_files/52381.got.cif
#   From: 2010.05.17/outbox.cif.g08.bks.cpg/sg64_27_cif.got.tgz:52381.got - 2010.06.03 16:29:19.
