data_PCOD9477627
_publ_section_title
;
Structure prediction by ZEFSAII (Michael W. Deem and Ramdas Pophale) SiO2 
 PCOD9477627
Probable space group: C M C A
;
_chemical_formula_sum "Si O2"
_cell_formula_units_Z 96
_cell_length_a 22.768458
_cell_length_b 9.597900
_cell_length_c 24.340195
_cell_angle_alpha 90.000000
_cell_angle_beta 90.000000
_cell_angle_gamma 90.000000
_cell_volume 5319.047796
_symmetry_space_group_name_H-M "C M C A"
_symmetry_group_IT_number 64
_symmetry_cell_setting 'orthorhombic'
loop_
_space_group_symop_operation_xyz
x,y,z
-x,1/2-y,1/2+z
x,-y,-z
-x,1/2+y,1/2-z
-x,-y,-z
x,1/2+y,1/2-z
-x,y,z
x,1/2-y,1/2+z
1/2+x,1/2+y,z
1/2-x,-y,1/2+z
1/2+x,1/2-y,-z
1/2-x,y,1/2-z
1/2-x,1/2-y,-z
1/2+x,y,1/2-z
1/2-x,1/2+y,z
1/2+x,-y,1/2+z
loop_
_atom_site_type_symbol
_atom_site_label
_atom_site_fract_x
_atom_site_fract_y
_atom_site_fract_z
Si Si1 0.069295 0.313153 0.204548
Si Si2 0.190298 0.835733 0.997029
Si Si3 0.643250 0.668614 0.884762
Si Si4 0.120901 0.880576 0.700311
Si Si5 0.359573 0.650695 0.122774
Si Si6 0.758106 0.276594 0.811142
O O1 0.102004 0.221059 0.250563
O O2 0.090458 0.472233 0.206434
O O3 0.090055 0.247217 0.147235
O O4 0.000000 0.304230 0.212697
O O5 0.152283 0.803950 0.051124
O O6 0.250000 0.750000 0.000000
O O7 0.157984 0.812376 0.939385
O O8 0.204513 0.000000 0.000000
O O9 0.607357 0.790457 0.854498
O O10 0.622006 0.511538 0.875408
O O11 0.706775 0.677907 0.853683
O O12 0.191938 0.895991 0.698323
O O13 0.301555 0.674371 0.160578
O O14 0.750000 0.215934 0.750000
#
# Coordination Sequence:
#
# PCOD9477627 Si02
#       6
#    16  16  16  16  16  16
#     4  12  25  42  60  84 117 161 201 241 289 358
#     4  10  19  33  55  87 124 160 192 235 297 359
#     4   9  21  35  55  89 119 155 192 241 298 355
#     4  10  23  37  60  84 117 149 194 242 300 351
#     4  11  21  36  60  87 124 157 201 241 295 355
#     4  10  20  31  58  88 123 146 190 235 307 346
#
# _framework density 18.048342999999999
#
# number of rings (size 3 to 8) (size 9 to 14) (size 15 to 20)
#    1.000    0.667    3.333    1.500    2.333    2.000 
#    0.000    0.833    0.000    7.500    0.000    0.000 
#    0.000    0.000    0.000    0.000    0.000    0.000 
#
# Total GULP energy -267539.086919 kJ/mol
# GULP energy per Si atom -5573.730977 kJ/mol
# Density = 1.800726 g / cm^3
# Si number density = 18.048343 Si / 1000 Ang^3
#
#
#
# Elastic Constant Matrix: (Units=GPa)
#
#
# Indices 1 2 3 4 5 6 
#
# 1 54.9585 18.6295 17.3606 0.0000 0.0000 0.0000
# 2 18.6295 96.3531 51.6600 0.0000 0.0000 0.0000
# 3 17.3606 51.6600 140.4318 0.0000 0.0000 0.0000
# 4 0.0000 0.0000 0.0000 24.8279 0.0000 0.0000
# 5 0.0000 0.0000 0.0000 0.0000 7.0222 0.0000
# 6 0.0000 0.0000 0.0000 0.0000 0.0000 17.2969
#
#
#
# Elastic Compliance Matrix: (Units=1/GPa)
#
#
# Indices 1 2 3 4 5 6 
#
# 1 0.019656 -0.003111 -0.001285 0.000000 0.000000 0.000000
# 2 -0.003111 0.013421 -0.004552 0.000000 0.000000 0.000000
# 3 -0.001285 -0.004552 0.008954 0.000000 0.000000 0.000000
# 4 0.000000 0.000000 0.000000 0.040277 0.000000 0.000000
# 5 0.000000 0.000000 0.000000 0.000000 0.142405 0.000000
# 6 0.000000 0.000000 0.000000 0.000000 0.000000 0.057814
#
#
# Mechanical properties :
#
#
# Convention : Reuss Voigt Hill
#
# Bulk Modulus (GPa) = 41.43655 51.89372 46.66514
# Shear Modulus (GPa) = 16.20900 23.43564 19.82232
#
# Velocity S-wave (km/s) = 3.00006 3.60737 3.31764
# Velocity P-wave (km/s) = 5.91684 6.79455 6.37083
#
# Compressibility (1/GPa) = 0.02413328
#
# Stress axis : x y z
#
# Youngs Moduli (GPa) = 50.87445 74.51098 111.67586
#
# Poissons Ratio (x) = 0.23182 0.14355
# Poissons Ratio (y) = 0.15828 0.50840
# Poissons Ratio (z) = 0.06540 0.33921
#
# Static dielectric constant tensor:
#      x y z
#    x 1.605220 0.000000 0.000000 
#    y 0.000000 1.618650 0.000000 
#    z 0.000000 0.000000 1.643960 
# 
# From -- ./inp_files/46597.got.cif
#   From: 2010.05.17/outbox.cif.g08.bks.cpg/sg64_24_cif.got.tgz:46597.got - 2010.06.03 16:29:19.
