data_PCOD9477658
_publ_section_title
;
Structure prediction by ZEFSAII (Michael W. Deem and Ramdas Pophale) SiO2 
 PCOD9477658
Probable space group: C M C A
;
_chemical_formula_sum "Si O2"
_cell_formula_units_Z 112
_cell_length_a 11.618017
_cell_length_b 18.463597
_cell_length_c 27.399212
_cell_angle_alpha 90.000000
_cell_angle_beta 90.000000
_cell_angle_gamma 90.000000
_cell_volume 5877.415483
_symmetry_space_group_name_H-M "C M C A"
_symmetry_group_IT_number 64
_symmetry_cell_setting 'orthorhombic'
loop_
_space_group_symop_operation_xyz
x,y,z
-x,1/2-y,1/2+z
x,-y,-z
-x,1/2+y,1/2-z
-x,-y,-z
x,1/2+y,1/2-z
-x,y,z
x,1/2-y,1/2+z
1/2+x,1/2+y,z
1/2-x,-y,1/2+z
1/2+x,1/2-y,-z
1/2-x,y,1/2-z
1/2-x,1/2-y,-z
1/2+x,y,1/2-z
1/2-x,1/2+y,z
1/2+x,-y,1/2+z
loop_
_atom_site_type_symbol
_atom_site_label
_atom_site_fract_x
_atom_site_fract_y
_atom_site_fract_z
Si Si1 0.873630 0.723098 0.742408
Si Si2 0.218798 0.904372 0.884990
Si Si3 0.120304 0.826390 0.972781
Si Si4 0.203681 0.325013 0.058989
Si Si5 0.130604 0.260358 0.871959
Si Si6 0.368374 0.484940 0.442972
Si Si7 0.368159 0.386557 0.778339
O O1 0.750000 0.684363 0.750000
O O2 0.874279 0.744758 0.685528
O O3 0.868348 0.798563 0.772940
O O4 0.000000 0.689097 0.753245
O O5 0.133533 0.879274 0.927444
O O6 0.309604 0.837966 0.879766
O O7 0.154010 0.910623 0.833764
O O8 0.286662 0.972963 0.905657
O O9 0.126925 0.745033 0.951960
O O10 0.000000 0.838020 0.998947
O O11 0.224079 0.836720 0.009578
O O12 0.291934 0.299129 0.100756
O O13 0.140106 0.399684 0.068172
O O14 0.000000 0.261160 0.891100
O O15 0.336736 0.500000 0.500000
O O16 0.500000 0.510229 0.437462
O O17 0.500000 0.408226 0.762475
O O18 0.250000 0.409778 0.750000
#
# Coordination Sequence:
#
# PCOD9477658 Si02
#       7
#    16  16  16  16  16  16  16
#     4   9  16  30  51  83 116 144 182 242 297 348
#     4  11  20  35  58  89 117 151 200 246 300 355
#     4  10  20  35  55  80 114 151 190 238 293 348
#     4  10  21  37  54  81 115 154 196 239 295 357
#     4  10  19  33  57  87 114 148 194 245 301 360
#     4  11  23  40  59  82 118 162 206 252 303 369
#     4  10  19  33  56  89 125 154 196 253 307 359
#
# _framework density 19.055994999999999
#
# number of rings (size 3 to 8) (size 9 to 14) (size 15 to 20)
#    0.000    1.857    4.286    1.714    0.000    0.571 
#    0.000    4.286    0.000    0.857    0.000    0.000 
#    0.000    0.000    0.000    0.000    0.000    0.000 
#
# Total GULP energy -311985.810697 kJ/mol
# GULP energy per Si atom -5571.175191 kJ/mol
# Density = 1.901262 g / cm^3
# Si number density = 19.055995 Si / 1000 Ang^3
#
#
#
# Elastic Constant Matrix: (Units=GPa)
#
#
# Indices 1 2 3 4 5 6 
#
# 1 140.3196 9.7799 18.8912 0.0000 0.0000 0.0000
# 2 9.7799 48.2603 8.2114 0.0000 0.0000 0.0000
# 3 18.8912 8.2114 57.0168 0.0000 0.0000 0.0000
# 4 0.0000 0.0000 0.0000 12.2062 0.0000 0.0000
# 5 0.0000 0.0000 0.0000 0.0000 36.2519 0.0000
# 6 0.0000 0.0000 0.0000 0.0000 0.0000 7.6036
#
#
#
# Elastic Compliance Matrix: (Units=1/GPa)
#
#
# Indices 1 2 3 4 5 6 
#
# 1 0.007519 -0.001127 -0.002329 0.000000 0.000000 0.000000
# 2 -0.001127 0.021411 -0.002710 0.000000 0.000000 0.000000
# 3 -0.002329 -0.002710 0.018701 0.000000 0.000000 0.000000
# 4 0.000000 0.000000 0.000000 0.081926 0.000000 0.000000
# 5 0.000000 0.000000 0.000000 0.000000 0.027585 0.000000
# 6 0.000000 0.000000 0.000000 0.000000 0.000000 0.131516
#
#
# Mechanical properties :
#
#
# Convention : Reuss Voigt Hill
#
# Bulk Modulus (GPa) = 28.33062 35.48463 31.90763
# Shear Modulus (GPa) = 15.98699 25.12662 20.55681
#
# Velocity S-wave (km/s) = 2.89960 3.63515 3.28801
# Velocity P-wave (km/s) = 5.10975 6.02335 5.58526
#
# Compressibility (1/GPa) = 0.03529750
#
# Stress axis : x y z
#
# Youngs Moduli (GPa) = 133.00192 46.70598 53.47431
#
# Poissons Ratio (x) = 0.05266 0.12453
# Poissons Ratio (y) = 0.14995 0.14491
# Poissons Ratio (z) = 0.30973 0.12657
#
# Static dielectric constant tensor:
#      x y z
#    x 1.718020 0.000000 0.000000 
#    y 0.000000 1.626140 0.000000 
#    z 0.000000 0.000000 1.658510 
# 
# From -- ./inp_files/44417.got.cif
#   From: 2010.05.17/outbox.cif.g08.bks.cpg/sg64_23_cif.got.tgz:44417.got - 2010.06.03 16:29:19.
