data_PCOD9477343
_publ_section_title
;
Structure prediction by ZEFSAII (Michael W. Deem and Ramdas Pophale) SiO2 
 PCOD9477343
Probable space group: C M C A
;
_chemical_formula_sum "Si O2"
_cell_formula_units_Z 96
_cell_length_a 7.650353
_cell_length_b 31.107993
_cell_length_c 19.240625
_cell_angle_alpha 90.000000
_cell_angle_beta 90.000000
_cell_angle_gamma 90.000000
_cell_volume 4579.021076
_symmetry_space_group_name_H-M "C M C A"
_symmetry_group_IT_number 64
_symmetry_cell_setting 'orthorhombic'
loop_
_space_group_symop_operation_xyz
x,y,z
-x,1/2-y,1/2+z
x,-y,-z
-x,1/2+y,1/2-z
-x,-y,-z
x,1/2+y,1/2-z
-x,y,z
x,1/2-y,1/2+z
1/2+x,1/2+y,z
1/2-x,-y,1/2+z
1/2+x,1/2-y,-z
1/2-x,y,1/2-z
1/2-x,1/2-y,-z
1/2+x,y,1/2-z
1/2-x,1/2+y,z
1/2+x,-y,1/2+z
loop_
_atom_site_type_symbol
_atom_site_label
_atom_site_fract_x
_atom_site_fract_y
_atom_site_fract_z
Si Si1 0.295668 0.280496 0.914242
Si Si2 0.297978 0.812548 0.062854
Si Si3 0.290313 0.014793 0.830557
Si Si4 0.286080 0.064640 0.075655
Si Si5 0.292668 0.357543 0.671736
Si Si6 0.214328 0.408489 0.077551
O O1 0.500000 0.276448 0.932622
O O2 0.223282 0.232139 0.906994
O O3 0.278833 0.310907 0.848262
O O4 0.209106 0.304609 0.979700
O O5 0.500000 0.814419 0.085255
O O6 0.221743 0.859234 0.079761
O O7 0.500000 0.014637 0.836508
O O8 0.250000 0.007213 0.750000
O O9 0.229177 0.060802 0.859763
O O10 0.226390 0.977186 0.882040
O O11 0.500000 0.064019 0.076085
O O12 0.227173 0.106617 0.118131
O O13 0.233695 0.069657 0.995633
O O14 0.500000 0.355358 0.664082
O O15 0.250000 0.370085 0.750000
O O16 0.000000 0.406935 0.076791
#
# Coordination Sequence:
#
# PCOD9477343 Si02
#       6
#    16  16  16  16  16  16
#     4  10  19  31  50  77 106 136 172 211 261 315
#     4   9  17  32  54  77 102 132 171 218 259 302
#     4  10  20  34  54  77 104 137 172 213 260 314
#     4   9  17  31  54  80 101 131 175 219 259 309
#     4  11  21  34  52  75 108 142 176 218 267 316
#     4   9  16  31  56  81 101 131 177 219 255 304
#
# _framework density 20.96518
#
# number of rings (size 3 to 8) (size 9 to 14) (size 15 to 20)
#    0.000    2.333    1.667    2.000    0.000    2.667 
#    0.000    2.500    0.000    3.000    0.000    0.000 
#    0.000    0.000    0.000    0.000    0.000    0.000 
#
# Total GULP energy -267873.299944 kJ/mol
# GULP energy per Si atom -5580.693749 kJ/mol
# Density = 2.091746 g / cm^3
# Si number density = 20.965180 Si / 1000 Ang^3
#
#
#
# Elastic Constant Matrix: (Units=GPa)
#
#
# Indices 1 2 3 4 5 6 
#
# 1 41.6783 9.6787 -2.8803 0.0000 0.0000 0.0000
# 2 9.6787 141.4828 15.6541 0.0000 0.0000 0.0000
# 3 -2.8803 15.6541 34.7075 0.0000 0.0000 0.0000
# 4 0.0000 0.0000 0.0000 22.9682 0.0000 0.0000
# 5 0.0000 0.0000 0.0000 0.0000 20.4164 0.0000
# 6 0.0000 0.0000 0.0000 0.0000 0.0000 6.9035
#
#
#
# Elastic Compliance Matrix: (Units=1/GPa)
#
#
# Indices 1 2 3 4 5 6 
#
# 1 0.024665 -0.002014 0.002955 0.000000 0.000000 0.000000
# 2 -0.002014 0.007604 -0.003597 0.000000 0.000000 0.000000
# 3 0.002955 -0.003597 0.030680 0.000000 0.000000 0.000000
# 4 0.000000 0.000000 0.000000 0.043538 0.000000 0.000000
# 5 0.000000 0.000000 0.000000 0.000000 0.048980 0.000000
# 6 0.000000 0.000000 0.000000 0.000000 0.000000 0.144855
#
#
# Mechanical properties :
#
#
# Convention : Reuss Voigt Hill
#
# Bulk Modulus (GPa) = 17.34980 29.19707 23.27344
# Shear Modulus (GPa) = 15.39192 23.08536 19.23864
#
# Velocity S-wave (km/s) = 2.71249 3.32193 3.03256
# Velocity P-wave (km/s) = 4.25484 5.35446 4.83601
#
# Compressibility (1/GPa) = 0.05763754
#
# Stress axis : x y z
#
# Youngs Moduli (GPa) = 40.54274 131.51417 32.59491
#
# Poissons Ratio (x) = 0.26491 -0.09633
# Poissons Ratio (y) = 0.08167 0.11723
# Poissons Ratio (z) = -0.11982 0.47301
#
# Static dielectric constant tensor:
#      x y z
#    x 1.813470 0.000000 0.000000 
#    y 0.000000 1.790350 0.000000 
#    z 0.000000 0.000000 1.791660 
# 
# From -- ./inp_files/37081.got.cif
#   From: 2010.05.17/outbox.cif.g08.bks.cpg/sg64_19_cif.got.tgz:37081.got - 2010.06.03 16:29:19.
