data_PCOD9477408
_publ_section_title
;
Structure prediction by ZEFSAII (Michael W. Deem and Ramdas Pophale) SiO2 
 PCOD9477408
Probable space group: C M C A
;
_chemical_formula_sum "Si O2"
_cell_formula_units_Z 96
_cell_length_a 8.678774
_cell_length_b 28.619140
_cell_length_c 22.197168
_cell_angle_alpha 90.000000
_cell_angle_beta 90.000000
_cell_angle_gamma 90.000000
_cell_volume 5513.311459
_symmetry_space_group_name_H-M "C M C A"
_symmetry_group_IT_number 64
_symmetry_cell_setting 'orthorhombic'
loop_
_space_group_symop_operation_xyz
x,y,z
-x,1/2-y,1/2+z
x,-y,-z
-x,1/2+y,1/2-z
-x,-y,-z
x,1/2+y,1/2-z
-x,y,z
x,1/2-y,1/2+z
1/2+x,1/2+y,z
1/2-x,-y,1/2+z
1/2+x,1/2-y,-z
1/2-x,y,1/2-z
1/2-x,1/2-y,-z
1/2+x,y,1/2-z
1/2-x,1/2+y,z
1/2+x,-y,1/2+z
loop_
_atom_site_type_symbol
_atom_site_label
_atom_site_fract_x
_atom_site_fract_y
_atom_site_fract_z
Si Si1 0.684408 0.282234 0.444666
Si Si2 0.677784 0.146545 0.309330
Si Si3 0.318236 0.478306 0.433901
Si Si4 0.815721 0.385408 0.464239
Si Si5 0.321957 0.068729 0.410115
Si Si6 0.817124 0.747650 0.183682
O O1 0.500000 0.277475 0.445575
O O2 0.750000 0.250000 0.500000
O O3 0.735104 0.336030 0.453867
O O4 0.745781 0.268808 0.377748
O O5 0.500000 0.161203 0.300191
O O6 0.750000 0.124680 0.250000
O O7 0.683000 0.108464 0.360581
O O8 0.776164 0.192767 0.321609
O O9 0.275787 0.500000 0.500000
O O10 0.500000 0.470010 0.433202
O O11 0.232838 0.429425 0.422735
O O12 0.270795 0.522277 0.393357
O O13 0.766951 0.405081 0.529606
O O14 0.000000 0.378829 0.462890
O O15 0.500000 0.054507 0.420554
O O16 0.750000 0.762335 0.250000
O O17 0.000000 0.755400 0.183949
#
# Coordination Sequence:
#
# PCOD9477408 Si02
#       6
#    16  16  16  16  16  16
#     4  12  24  38  56  82 113 144 182 228 277 324
#     4  10  19  32  50  74 103 135 173 215 260 311
#     4   9  17  29  47  72 100 130 165 204 250 309
#     4  10  19  33  52  75 104 137 172 212 262 315
#     4   9  18  31  49  72 101 135 169 208 256 311
#     4  11  22  38  58  80 108 145 185 224 270 325
#
# _framework density 17.412403000000001
#
# number of rings (size 3 to 8) (size 9 to 14) (size 15 to 20)
#    0.000    1.833    0.000    6.500    0.000    5.333 
#    0.000    0.000    0.000    1.000    0.000    4.667 
#    0.000    0.000    0.000    0.000    0.000    0.000 
#
# Total GULP energy -267456.240055 kJ/mol
# GULP energy per Si atom -5572.005001 kJ/mol
# Density = 1.737277 g / cm^3
# Si number density = 17.412403 Si / 1000 Ang^3
#
#
#
# Elastic Constant Matrix: (Units=GPa)
#
#
# Indices 1 2 3 4 5 6 
#
# 1 109.5556 53.6386 47.5128 0.0000 0.0000 0.0000
# 2 53.6386 102.1781 52.4657 0.0000 0.0000 0.0000
# 3 47.5128 52.4657 85.6757 0.0000 0.0000 0.0000
# 4 0.0000 0.0000 0.0000 12.6047 0.0000 0.0000
# 5 0.0000 0.0000 0.0000 0.0000 24.9828 0.0000
# 6 0.0000 0.0000 0.0000 0.0000 0.0000 32.4312
#
#
#
# Elastic Compliance Matrix: (Units=1/GPa)
#
#
# Indices 1 2 3 4 5 6 
#
# 1 0.013403 -0.004696 -0.004557 0.000000 0.000000 0.000000
# 2 -0.004696 0.015921 -0.007145 0.000000 0.000000 0.000000
# 3 -0.004557 -0.007145 0.018575 0.000000 0.000000 0.000000
# 4 0.000000 0.000000 0.000000 0.079336 0.000000 0.000000
# 5 0.000000 0.000000 0.000000 0.000000 0.040028 0.000000
# 6 0.000000 0.000000 0.000000 0.000000 0.000000 0.030835
#
#
# Mechanical properties :
#
#
# Convention : Reuss Voigt Hill
#
# Bulk Modulus (GPa) = 66.21716 67.18262 66.69989
# Shear Modulus (GPa) = 21.19285 23.58987 22.39136
#
# Velocity S-wave (km/s) = 3.49250 3.68472 3.58990
# Velocity P-wave (km/s) = 7.37392 7.53458 7.45468
#
# Compressibility (1/GPa) = 0.01510183
#
# Stress axis : x y z
#
# Youngs Moduli (GPa) = 74.60761 62.81006 53.83612
#
# Poissons Ratio (x) = 0.29496 0.24535
# Poissons Ratio (y) = 0.35037 0.38468
# Poissons Ratio (z) = 0.34001 0.44880
#
# Static dielectric constant tensor:
#      x y z
#    x 1.609190 0.000000 0.000000 
#    y 0.000000 1.607090 0.000000 
#    z 0.000000 0.000000 1.651420 
# 
# From -- ./inp_files/37078.got.cif
#   From: 2010.05.17/outbox.cif.g08.bks.cpg/sg64_19_cif.got.tgz:37078.got - 2010.06.03 16:29:19.
