data_PCOD9477261
_publ_section_title
;
Structure prediction by ZEFSAII (Michael W. Deem and Ramdas Pophale) SiO2 
 PCOD9477261
Probable space group: C M C A
;
_chemical_formula_sum "Si O2"
_cell_formula_units_Z 96
_cell_length_a 21.090087
_cell_length_b 22.451866
_cell_length_c 9.593184
_cell_angle_alpha 90.000000
_cell_angle_beta 90.000000
_cell_angle_gamma 90.000000
_cell_volume 4542.485893
_symmetry_space_group_name_H-M "C M C A"
_symmetry_group_IT_number 64
_symmetry_cell_setting 'orthorhombic'
loop_
_space_group_symop_operation_xyz
x,y,z
-x,1/2-y,1/2+z
x,-y,-z
-x,1/2+y,1/2-z
-x,-y,-z
x,1/2+y,1/2-z
-x,y,z
x,1/2-y,1/2+z
1/2+x,1/2+y,z
1/2-x,-y,1/2+z
1/2+x,1/2-y,-z
1/2-x,y,1/2-z
1/2-x,1/2-y,-z
1/2+x,y,1/2-z
1/2-x,1/2+y,z
1/2+x,-y,1/2+z
loop_
_atom_site_type_symbol
_atom_site_label
_atom_site_fract_x
_atom_site_fract_y
_atom_site_fract_z
Si Si1 0.145630 0.746779 0.534683
Si Si2 0.431014 0.715494 0.703173
Si Si3 0.428737 0.078274 0.894707
Si Si4 0.572709 0.059845 0.588638
Si Si5 0.682473 0.126803 0.423897
Si Si6 0.676218 0.883287 0.906562
O O1 0.124142 0.727846 0.687649
O O2 0.084094 0.747734 0.435178
O O3 0.188885 0.696485 0.465129
O O4 0.168814 0.814630 0.542255
O O5 0.500000 0.731544 0.759938
O O6 0.430592 0.646690 0.659842
O O7 0.500000 0.063798 0.943426
O O8 0.413678 0.044823 0.750611
O O9 0.376209 0.077586 0.014166
O O10 0.500000 0.084607 0.583594
O O11 0.626602 0.101336 0.521160
O O12 0.573035 0.000000 0.500000
O O13 0.666731 0.118738 0.260335
O O14 0.751893 0.097951 0.442277
#
# Coordination Sequence:
#
# PCOD9477261 Si02
#       6
#    16  16  16  16  16  16
#     4  11  19  35  51  81 121 160 197 241 289 353
#     4  10  19  30  50  81 117 155 196 238 290 352
#     4   9  19  38  59  86 120 151 195 249 298 354
#     4  10  22  42  67  91 114 148 199 256 310 364
#     4  11  22  39  58  84 121 159 205 246 296 356
#     4  10  23  38  55  88 124 161 200 243 290 363
#
# _framework density 21.133804000000001
#
# number of rings (size 3 to 8) (size 9 to 14) (size 15 to 20)
#    0.000    1.833    3.333    1.000    0.000    2.667 
#    0.000    4.167    0.000    3.000    0.000    0.000 
#    0.000    0.000    0.000    0.000    0.000    0.000 
#
# Total GULP energy -267809.570187 kJ/mol
# GULP energy per Si atom -5579.366046 kJ/mol
# Density = 2.108570 g / cm^3
# Si number density = 21.133804 Si / 1000 Ang^3
#
#
#
# Elastic Constant Matrix: (Units=GPa)
#
#
# Indices 1 2 3 4 5 6 
#
# 1 128.4644 18.6939 77.1313 0.0000 0.0000 0.0000
# 2 18.6939 36.2195 17.5878 0.0000 0.0000 0.0000
# 3 77.1313 17.5878 118.1711 0.0000 0.0000 0.0000
# 4 0.0000 0.0000 0.0000 34.6974 0.0000 0.0000
# 5 0.0000 0.0000 0.0000 0.0000 6.4378 0.0000
# 6 0.0000 0.0000 0.0000 0.0000 0.0000 1.3166
#
#
#
# Elastic Compliance Matrix: (Units=1/GPa)
#
#
# Indices 1 2 3 4 5 6 
#
# 1 0.013060 -0.002804 -0.008107 0.000000 0.000000 0.000000
# 2 -0.002804 0.030362 -0.002689 0.000000 0.000000 0.000000
# 3 -0.008107 -0.002689 0.014154 0.000000 0.000000 0.000000
# 4 0.000000 0.000000 0.000000 0.028821 0.000000 0.000000
# 5 0.000000 0.000000 0.000000 0.000000 0.155332 0.000000
# 6 0.000000 0.000000 0.000000 0.000000 0.000000 0.759553
#
#
# Mechanical properties :
#
#
# Convention : Reuss Voigt Hill
#
# Bulk Modulus (GPa) = 32.91990 56.63120 44.77555
# Shear Modulus (GPa) = 4.81415 19.78649 12.30032
#
# Velocity S-wave (km/s) = 1.51092 3.06314 2.41513
# Velocity P-wave (km/s) = 4.31909 6.27416 5.38608
#
# Compressibility (1/GPa) = 0.03037676
#
# Stress axis : x y z
#
# Youngs Moduli (GPa) = 76.57133 32.93569 70.65180
#
# Poissons Ratio (x) = 0.09235 0.57277
# Poissons Ratio (y) = 0.21470 0.18997
# Poissons Ratio (z) = 0.62075 0.08856
#
# Static dielectric constant tensor:
#      x y z
#    x 1.770070 0.000000 0.000000 
#    y 0.000000 1.788260 0.000000 
#    z 0.000000 0.000000 1.738360 
# 
# From -- ./inp_files/8407.got.cif
#   From: 2010.05.17/outbox.cif.g08.bks.cpg/sg64_5_cif.got.tgz:8407.got - 2010.06.03 16:29:19.
