data_PCOD9477434
_publ_section_title
;
Structure prediction by ZEFSAII (Michael W. Deem and Ramdas Pophale) SiO2 
 PCOD9477434
Probable space group: C M C A
;
_chemical_formula_sum "Si O2"
_cell_formula_units_Z 96
_cell_length_a 8.183770
_cell_length_b 22.195266
_cell_length_c 24.007422
_cell_angle_alpha 90.000000
_cell_angle_beta 90.000000
_cell_angle_gamma 90.000000
_cell_volume 4360.730988
_symmetry_space_group_name_H-M "C M C A"
_symmetry_group_IT_number 64
_symmetry_cell_setting 'orthorhombic'
loop_
_space_group_symop_operation_xyz
x,y,z
-x,1/2-y,1/2+z
x,-y,-z
-x,1/2+y,1/2-z
-x,-y,-z
x,1/2+y,1/2-z
-x,y,z
x,1/2-y,1/2+z
1/2+x,1/2+y,z
1/2-x,-y,1/2+z
1/2+x,1/2-y,-z
1/2-x,y,1/2-z
1/2-x,1/2-y,-z
1/2+x,y,1/2-z
1/2-x,1/2+y,z
1/2+x,-y,1/2+z
loop_
_atom_site_type_symbol
_atom_site_label
_atom_site_fract_x
_atom_site_fract_y
_atom_site_fract_z
Si Si1 0.810304 0.594265 0.813132
Si Si2 0.195388 0.290541 0.921406
Si Si3 0.194676 0.842721 0.082477
Si Si4 0.807378 0.023962 0.125621
Si Si5 0.307644 0.141424 0.188139
Si Si6 0.808425 0.589980 0.481193
O O1 0.750000 0.593327 0.750000
O O2 0.724901 0.641997 0.853657
O O3 0.778240 0.530000 0.842383
O O4 0.000000 0.607761 0.813185
O O5 0.257724 0.223500 0.933451
O O6 0.215092 0.304746 0.855802
O O7 0.286908 0.344398 0.952583
O O8 0.000000 0.295091 0.933628
O O9 0.000000 0.840556 0.073679
O O10 0.260099 0.896220 0.042557
O O11 0.785971 0.083848 0.162936
O O12 0.742022 0.042408 0.063952
O O13 0.000000 0.009083 0.120870
O O14 0.500000 0.126257 0.188622
O O15 0.250000 0.155397 0.250000
O O16 0.000000 0.575012 0.486407
#
# Coordination Sequence:
#
# PCOD9477434 Si02
#       6
#    16  16  16  16  16  16
#     4  12  26  43  61  82 109 148 190 233 281 334
#     4   9  19  34  55  82 116 152 188 231 279 328
#     4  10  21  39  59  84 117 153 189 228 274 331
#     4  10  20  37  59  84 112 145 183 229 281 335
#     4  10  19  32  51  79 110 144 185 233 282 330
#     4   9  19  35  60  89 117 148 185 229 280 331
#
# _framework density 22.014658000000001
#
# number of rings (size 3 to 8) (size 9 to 14) (size 15 to 20)
#    0.000    2.000    0.000    3.500    0.000    4.000 
#    0.000    5.000    0.000    0.000    0.000    0.000 
#    0.000    0.000    0.000    0.000    0.000    0.000 
#
# Total GULP energy -268143.782013 kJ/mol
# GULP energy per Si atom -5586.328792 kJ/mol
# Density = 2.196455 g / cm^3
# Si number density = 22.014658 Si / 1000 Ang^3
#
#
#
# Elastic Constant Matrix: (Units=GPa)
#
#
# Indices 1 2 3 4 5 6 
#
# 1 13.1370 -7.3954 -1.6562 0.0000 0.0000 0.0000
# 2 -7.3954 69.5792 17.4614 0.0000 0.0000 0.0000
# 3 -1.6562 17.4614 115.9492 0.0000 0.0000 0.0000
# 4 0.0000 0.0000 0.0000 40.3146 0.0000 0.0000
# 5 0.0000 0.0000 0.0000 0.0000 18.3433 0.0000
# 6 0.0000 0.0000 0.0000 0.0000 0.0000 20.9100
#
#
#
# Elastic Compliance Matrix: (Units=1/GPa)
#
#
# Indices 1 2 3 4 5 6 
#
# 1 0.080968 0.008642 -0.000145 0.000000 0.000000 0.000000
# 2 0.008642 0.015859 -0.002265 0.000000 0.000000 0.000000
# 3 -0.000145 -0.002265 0.008963 0.000000 0.000000 0.000000
# 4 0.000000 0.000000 0.000000 0.024805 0.000000 0.000000
# 5 0.000000 0.000000 0.000000 0.000000 0.054516 0.000000
# 6 0.000000 0.000000 0.000000 0.000000 0.000000 0.047824
#
#
# Mechanical properties :
#
#
# Convention : Reuss Voigt Hill
#
# Bulk Modulus (GPa) = 8.45629 23.94277 16.19953
# Shear Modulus (GPa) = 19.23901 28.59728 23.91815
#
# Velocity S-wave (km/s) = 2.95942 3.60809 3.29973
# Velocity P-wave (km/s) = 3.94044 5.31575 4.67890
#
# Compressibility (1/GPa) = 0.11825523
#
# Stress axis : x y z
#
# Youngs Moduli (GPa) = 12.35058 63.05554 111.56390
#
# Poissons Ratio (x) = -0.54494 0.01617
# Poissons Ratio (y) = -0.10674 0.25268
# Poissons Ratio (z) = 0.00179 0.14281
#
# Static dielectric constant tensor:
#      x y z
#    x 1.813620 0.000000 0.000000 
#    y 0.000000 1.810450 0.000000 
#    z 0.000000 0.000000 1.778890 
# 
# From -- ./inp_files/42948.got.cif
#   From: 2010.05.17/outbox.cif.g08.bks.cpg/sg64_22_cif.got.tgz:42948.got - 2010.06.03 16:29:19.
