data_PCOD9477206
_publ_section_title
;
Structure prediction by ZEFSAII (Michael W. Deem and Ramdas Pophale) SiO2 
 PCOD9477206
Probable space group: C M C A
;
_chemical_formula_sum "Si O2"
_cell_formula_units_Z 96
_cell_length_a 7.867147
_cell_length_b 28.616349
_cell_length_c 24.721974
_cell_angle_alpha 90.000000
_cell_angle_beta 90.000000
_cell_angle_gamma 90.000000
_cell_volume 5565.633883
_symmetry_space_group_name_H-M "C M C A"
_symmetry_group_IT_number 64
_symmetry_cell_setting 'orthorhombic'
loop_
_space_group_symop_operation_xyz
x,y,z
-x,1/2-y,1/2+z
x,-y,-z
-x,1/2+y,1/2-z
-x,-y,-z
x,1/2+y,1/2-z
-x,y,z
x,1/2-y,1/2+z
1/2+x,1/2+y,z
1/2-x,-y,1/2+z
1/2+x,1/2-y,-z
1/2-x,y,1/2-z
1/2-x,1/2-y,-z
1/2+x,y,1/2-z
1/2-x,1/2+y,z
1/2+x,-y,1/2+z
loop_
_atom_site_type_symbol
_atom_site_label
_atom_site_fract_x
_atom_site_fract_y
_atom_site_fract_z
Si Si1 0.708177 0.073075 0.976111
Si Si2 0.203375 0.018833 0.417574
Si Si3 0.205011 0.677290 0.310592
Si Si4 0.204993 0.178082 0.524904
Si Si5 0.201513 0.429099 0.689923
Si Si6 0.294985 0.230373 0.415847
O O1 0.500000 0.074172 0.975790
O O2 0.763543 0.033061 0.933930
O O3 0.762338 0.054475 0.035369
O O4 0.767845 0.125584 0.965476
O O5 0.245295 0.037500 0.358608
O O6 0.000000 0.017578 0.422133
O O7 0.250000 0.692780 0.250000
O O8 0.270575 0.623922 0.317379
O O9 0.268170 0.710156 0.358956
O O10 0.000000 0.675982 0.314224
O O11 0.250013 0.195364 0.464668
O O12 0.267989 0.218470 0.565632
O O13 0.000000 0.177324 0.528699
O O14 0.250000 0.445308 0.750000
O O15 0.000000 0.425560 0.688091
O O16 0.500000 0.232866 0.413054
#
# Coordination Sequence:
#
# PCOD9477206 Si02
#       6
#    16  16  16  16  16  16
#     4   8  15  27  44  65  87 114 144 172 206 251
#     4   9  16  28  45  64  87 113 143 176 208 246
#     4   9  18  30  43  61  85 111 138 171 210 250
#     4   9  16  27  44  64  86 114 144 169 203 253
#     4  10  19  30  44  63  86 111 140 173 212 254
#     4   9  17  28  42  63  89 112 137 174 214 247
#
# _framework density 17.248709999999999
#
# number of rings (size 3 to 8) (size 9 to 14) (size 15 to 20)
#    0.000    3.000    0.000    2.500    0.000    1.333 
#    0.000    2.500    0.000    1.000    0.000    2.333 
#    0.000    0.000    0.000    0.000    0.000    0.000 
#
# Total GULP energy -267473.011693 kJ/mol
# GULP energy per Si atom -5572.354410 kJ/mol
# Density = 1.720945 g / cm^3
# Si number density = 17.248710 Si / 1000 Ang^3
#
#
#
# Elastic Constant Matrix: (Units=GPa)
#
#
# Indices 1 2 3 4 5 6 
#
# 1 14.4090 9.2690 2.5374 0.0000 0.0000 0.0000
# 2 9.2690 148.7127 101.7614 0.0000 0.0000 0.0000
# 3 2.5374 101.7614 163.3737 0.0000 0.0000 0.0000
# 4 0.0000 0.0000 0.0000 29.7801 0.0000 0.0000
# 5 0.0000 0.0000 0.0000 0.0000 17.5170 0.0000
# 6 0.0000 0.0000 0.0000 0.0000 0.0000 9.1141
#
#
#
# Elastic Compliance Matrix: (Units=1/GPa)
#
#
# Indices 1 2 3 4 5 6 
#
# 1 0.073116 -0.006588 0.002968 0.000000 0.000000 0.000000
# 2 -0.006588 0.012313 -0.007567 0.000000 0.000000 0.000000
# 3 0.002968 -0.007567 0.010788 0.000000 0.000000 0.000000
# 4 0.000000 0.000000 0.000000 0.033580 0.000000 0.000000
# 5 0.000000 0.000000 0.000000 0.000000 0.057087 0.000000
# 6 0.000000 0.000000 0.000000 0.000000 0.000000 0.109720
#
#
# Mechanical properties :
#
#
# Convention : Reuss Voigt Hill
#
# Bulk Modulus (GPa) = 13.54223 61.51457 37.52840
# Shear Modulus (GPa) = 14.55208 25.47741 20.01475
#
# Velocity S-wave (km/s) = 2.90774 3.84743 3.41010
# Velocity P-wave (km/s) = 4.37509 7.44833 6.10815
#
# Compressibility (1/GPa) = 0.07384308
#
# Stress axis : x y z
#
# Youngs Moduli (GPa) = 13.67681 81.21427 92.69335
#
# Poissons Ratio (x) = 0.53506 -0.27512
# Poissons Ratio (y) = 0.09011 0.70143
# Poissons Ratio (z) = -0.04059 0.61456
#
# Static dielectric constant tensor:
#      x y z
#    x 1.619630 0.000000 0.000000 
#    y 0.000000 1.607130 0.000000 
#    z 0.000000 0.000000 1.536950 
# 
# From -- ./inp_files/38538.got.cif
#   From: 2010.05.17/outbox.cif.g08.bks.cpg/sg64_20_cif.got.tgz:38538.got - 2010.06.03 16:29:19.
