data_PCOD9477349
_publ_section_title
;
Structure prediction by ZEFSAII (Michael W. Deem and Ramdas Pophale) SiO2 
 PCOD9477349
Probable space group: C M C A
;
_chemical_formula_sum "Si O2"
_cell_formula_units_Z 80
_cell_length_a 25.349912
_cell_length_b 16.477929
_cell_length_c 8.157752
_cell_angle_alpha 90.000000
_cell_angle_beta 90.000000
_cell_angle_gamma 90.000000
_cell_volume 3407.607628
_symmetry_space_group_name_H-M "C M C A"
_symmetry_group_IT_number 64
_symmetry_cell_setting 'orthorhombic'
loop_
_space_group_symop_operation_xyz
x,y,z
-x,1/2-y,1/2+z
x,-y,-z
-x,1/2+y,1/2-z
-x,-y,-z
x,1/2+y,1/2-z
-x,y,z
x,1/2-y,1/2+z
1/2+x,1/2+y,z
1/2-x,-y,1/2+z
1/2+x,1/2-y,-z
1/2-x,y,1/2-z
1/2-x,1/2-y,-z
1/2+x,y,1/2-z
1/2-x,1/2+y,z
1/2+x,-y,1/2+z
loop_
_atom_site_type_symbol
_atom_site_label
_atom_site_fract_x
_atom_site_fract_y
_atom_site_fract_z
Si Si1 0.596159 0.976940 0.741206
Si Si2 0.000000 0.272962 0.941808
Si Si3 0.312679 0.757736 0.967304
Si Si4 0.597170 0.867693 0.071935
Si Si5 0.000000 0.119279 0.109253
Si Si6 0.191995 0.879161 0.825278
O O1 0.551546 0.935889 0.630959
O O2 0.655142 0.956616 0.686197
O O3 0.587854 0.070808 0.780083
O O4 0.594062 0.925691 0.911860
O O5 0.051726 0.302747 0.039360
O O6 0.000000 0.176075 0.950350
O O7 0.000000 0.318567 0.766975
O O8 0.320963 0.802140 0.794053
O O9 0.250000 0.750000 0.000000
O O10 0.347368 0.820588 0.074934
O O11 0.324391 0.663600 0.002510
O O12 0.250000 0.900426 0.750000
#
# Coordination Sequence:
#
# PCOD9477349 Si02
#       6
#    16   8  16  16   8  16
#     4   9  17  30  49  72  98 127 164 206 245 292
#     4  10  19  31  51  75  99 128 166 206 244 294
#     4   9  17  30  49  70  93 125 162 201 243 291
#     4   9  17  30  49  73  98 127 164 205 246 289
#     4  10  19  31  51  75  97 128 166 206 250 294
#     4   9  17  30  48  69  94 125 161 200 244 291
#
# _framework density 23.476880000000001
#
# number of rings (size 3 to 8) (size 9 to 14) (size 15 to 20)
#    0.000    2.800    0.000    1.800    0.000    2.400 
#    0.000    3.000    0.000    8.400    0.000    0.000 
#    0.000    0.000    0.000    0.000    0.000    0.000 
#
# Total GULP energy -222718.282994 kJ/mol
# GULP energy per Si atom -5567.957075 kJ/mol
# Density = 2.342345 g / cm^3
# Si number density = 23.476880 Si / 1000 Ang^3
#
#
#
# Elastic Constant Matrix: (Units=GPa)
#
#
# Indices 1 2 3 4 5 6 
#
# 1 90.2927 57.1319 23.4264 0.0000 0.0000 0.0000
# 2 57.1319 72.6628 25.3966 0.0000 0.0000 0.0000
# 3 23.4264 25.3966 46.5782 0.0000 0.0000 0.0000
# 4 0.0000 0.0000 0.0000 38.4210 0.0000 0.0000
# 5 0.0000 0.0000 0.0000 0.0000 10.8125 0.0000
# 6 0.0000 0.0000 0.0000 0.0000 0.0000 -18.8908
#
#
#
# Elastic Compliance Matrix: (Units=1/GPa)
#
#
# Indices 1 2 3 4 5 6 
#
# 1 0.022195 -0.016740 -0.002036 0.000000 0.000000 0.000000
# 2 -0.016740 0.029627 -0.007735 0.000000 0.000000 0.000000
# 3 -0.002036 -0.007735 0.026711 0.000000 0.000000 0.000000
# 4 0.000000 0.000000 0.000000 0.026027 0.000000 0.000000
# 5 0.000000 0.000000 0.000000 0.000000 0.092486 0.000000
# 6 0.000000 0.000000 0.000000 0.000000 0.000000 -0.052936
#
#
# Mechanical properties :
#
#
# Convention : Reuss Voigt Hill
#
# Bulk Modulus (GPa) = 39.19681 46.82706 43.01193
# Shear Modulus (GPa) = 24.31488 12.97379 18.64433
#
# Velocity S-wave (km/s) = 3.22171 2.35334 2.82114
# Velocity P-wave (km/s) = 5.52914 5.23198 5.38261
#
# Compressibility (1/GPa) = 0.02551228
#
# Stress axis : x y z
#
# Youngs Moduli (GPa) = 45.05501 33.75258 37.43816
#
# Poissons Ratio (x) = 0.56500 0.07622
# Poissons Ratio (y) = 0.75420 0.28959
# Poissons Ratio (z) = 0.09172 0.26108
#
# Static dielectric constant tensor:
#      x y z
#    x 1.918020 0.000000 0.000000 
#    y 0.000000 1.859030 0.000000 
#    z 0.000000 0.000000 2.095370 
# 
# From -- ./inp_files/10242.got.cif
#   From: 2010.05.17/outbox.cif.g08.bks.cpg/sg64_6_cif.got.tgz:10242.got - 2010.06.03 16:29:19.
