data_PCOD9477715
_publ_section_title
;
Structure prediction by ZEFSAII (Michael W. Deem and Ramdas Pophale) SiO2 
 PCOD9477715
Probable space group: C M C A
;
_chemical_formula_sum "Si O2"
_cell_formula_units_Z 64
_cell_length_a 16.843469
_cell_length_b 7.981120
_cell_length_c 19.179594
_cell_angle_alpha 90.000000
_cell_angle_beta 90.000000
_cell_angle_gamma 90.000000
_cell_volume 2578.307975
_symmetry_space_group_name_H-M "C M C A"
_symmetry_group_IT_number 64
_symmetry_cell_setting 'orthorhombic'
loop_
_space_group_symop_operation_xyz
x,y,z
-x,1/2-y,1/2+z
x,-y,-z
-x,1/2+y,1/2-z
-x,-y,-z
x,1/2+y,1/2-z
-x,y,z
x,1/2-y,1/2+z
1/2+x,1/2+y,z
1/2-x,-y,1/2+z
1/2+x,1/2-y,-z
1/2-x,y,1/2-z
1/2-x,1/2-y,-z
1/2+x,y,1/2-z
1/2-x,1/2+y,z
1/2+x,-y,1/2+z
loop_
_atom_site_type_symbol
_atom_site_label
_atom_site_fract_x
_atom_site_fract_y
_atom_site_fract_z
Si Si1 0.841864 0.861236 0.233560
Si Si2 0.405627 0.950054 0.854792
Si Si3 0.093693 0.436201 0.611045
Si Si4 0.906736 0.771627 0.514445
O O1 0.750000 0.849326 0.250000
O O2 0.885265 0.891889 0.307063
O O3 0.858997 0.014715 0.180095
O O4 0.873030 0.702250 0.191635
O O5 0.500000 0.936623 0.859386
O O6 0.375307 0.916636 0.933712
O O7 0.126160 0.290588 0.559863
O O8 0.095366 0.605049 0.563156
O O9 0.000000 0.408363 0.627549
O O10 0.000000 0.805612 0.499967
#
# Coordination Sequence:
#
# PCOD9477715 Si02
#       4
#    16  16  16  16
#     4  11  21  32  48  75 106 131 157 200 253 297
#     4  10  19  34  54  75  97 130 169 204 241 292
#     4   8  13  26  47  70  92 124 167 205 233 276
#     4   7  12  24  47  72  90 115 167 215 231 261
#
# _framework density 24.822479999999999
#
# number of rings (size 3 to 8) (size 9 to 14) (size 15 to 20)
#    0.000    3.000    0.000    6.000    0.000    0.000 
#    0.000    1.250    0.000    4.500    0.000    7.000 
#    0.000    0.000    0.000    0.000    0.000    0.000 
#
# Total GULP energy -178882.384176 kJ/mol
# GULP energy per Si atom -5590.074506 kJ/mol
# Density = 2.476598 g / cm^3
# Si number density = 24.822480 Si / 1000 Ang^3
#
#
#
# Elastic Constant Matrix: (Units=GPa)
#
#
# Indices 1 2 3 4 5 6 
#
# 1 58.1270 10.2541 34.6415 0.0000 0.0000 0.0000
# 2 10.2541 94.8720 40.4612 0.0000 0.0000 0.0000
# 3 34.6415 40.4612 205.3388 0.0000 0.0000 0.0000
# 4 0.0000 0.0000 0.0000 64.6259 0.0000 0.0000
# 5 0.0000 0.0000 0.0000 0.0000 -111.3755 0.0000
# 6 0.0000 0.0000 0.0000 0.0000 0.0000 -2.6535
#
#
#
# Elastic Compliance Matrix: (Units=1/GPa)
#
#
# Indices 1 2 3 4 5 6 
#
# 1 0.019176 -0.000756 -0.003086 0.000000 0.000000 0.000000
# 2 -0.000756 0.011537 -0.002146 0.000000 0.000000 0.000000
# 3 -0.003086 -0.002146 0.005813 0.000000 0.000000 0.000000
# 4 0.000000 0.000000 0.000000 0.015474 0.000000 0.000000
# 5 0.000000 0.000000 0.000000 0.000000 -0.008979 0.000000
# 6 0.000000 0.000000 0.000000 0.000000 0.000000 -0.376854
#
#
# Mechanical properties :
#
#
# Convention : Reuss Voigt Hill
#
# Bulk Modulus (GPa) = 40.73229 58.78347 49.75788
# Shear Modulus (GPa) = -15.94022 8.31811 -3.81106
#
# Velocity S-wave (km/s) = -2.53685 1.83257 -1.24043
# Velocity P-wave (km/s) = 2.80432 5.31138 4.24705
#
# Compressibility (1/GPa) = 0.02455055
#
# Stress axis : x y z
#
# Youngs Moduli (GPa) = 52.14756 86.67451 172.01500
#
# Poissons Ratio (x) = 0.06557 0.53085
# Poissons Ratio (y) = 0.03945 0.36911
# Poissons Ratio (z) = 0.16093 0.18598
#
# Static dielectric constant tensor:
#      x y z
#    x 1.844710 0.000000 0.000000 
#    y 0.000000 2.152140 0.000000 
#    z 0.000000 0.000000 1.887060 
# 
# From -- ./inp_files/32751.got.cif
#   From: 2010.05.17/outbox.cif.g08.bks.cpg/sg64_17_cif.got.tgz:32751.got - 2010.06.03 16:29:19.
