data_PCOD9477199
_publ_section_title
;
Structure prediction by ZEFSAII (Michael W. Deem and Ramdas Pophale) SiO2 
 PCOD9477199
Probable space group: C M C A
;
_chemical_formula_sum "Si O2"
_cell_formula_units_Z 116
_cell_length_a 8.200039
_cell_length_b 30.728050
_cell_length_c 29.035647
_cell_angle_alpha 90.000000
_cell_angle_beta 90.000000
_cell_angle_gamma 90.000000
_cell_volume 7316.147061
_symmetry_space_group_name_H-M "C M C A"
_symmetry_group_IT_number 64
_symmetry_cell_setting 'orthorhombic'
loop_
_space_group_symop_operation_xyz
x,y,z
-x,1/2-y,1/2+z
x,-y,-z
-x,1/2+y,1/2-z
-x,-y,-z
x,1/2+y,1/2-z
-x,y,z
x,1/2-y,1/2+z
1/2+x,1/2+y,z
1/2-x,-y,1/2+z
1/2+x,1/2-y,-z
1/2-x,y,1/2-z
1/2-x,1/2-y,-z
1/2+x,y,1/2-z
1/2-x,1/2+y,z
1/2+x,-y,1/2+z
loop_
_atom_site_type_symbol
_atom_site_label
_atom_site_fract_x
_atom_site_fract_y
_atom_site_fract_z
Si Si1 0.818123 0.293172 0.941975
Si Si2 0.184966 0.287124 0.108338
Si Si3 0.500000 0.500000 0.500000
Si Si4 0.804828 0.858599 0.699109
Si Si5 0.304858 0.432151 0.985919
Si Si6 0.186305 0.837628 0.028441
Si Si7 0.689357 0.378455 0.895899
Si Si8 0.805539 0.758043 0.699237
O O1 0.700641 0.256462 0.922598
O O2 0.793447 0.337359 0.913186
O O3 0.000000 0.276033 0.934800
O O4 0.791349 0.307523 0.994364
O O5 0.282864 0.323847 0.080657
O O6 0.245301 0.272566 0.158412
O O7 0.000000 0.301539 0.111209
O O8 0.349275 0.537148 0.496998
O O9 0.750000 0.872352 0.750000
O O10 0.734672 0.886349 0.656952
O O11 0.746699 0.808210 0.692753
O O12 0.000000 0.859053 0.696917
O O13 0.500000 0.445979 0.991879
O O14 0.287660 0.417110 0.932413
O O15 0.285485 0.387900 0.015914
O O16 0.500000 0.671526 0.984441
O O17 0.500000 0.365716 0.899099
O O18 0.750000 0.744103 0.750000
O O19 0.000000 0.759417 0.697844
#
# Coordination Sequence:
#
# PCOD9477199 Si02
#       8
#    16  16   4  16  16  16  16  16
#     4  11  20  30  45  66  96 135 181 213 249 297
#     4  12  22  31  47  68  96 137 178 217 257 299
#     4  12  22  36  68  78 108 136 170 200 264 334
#     4  10  19  29  46  67  97 138 182 220 255 300
#     4   9  22  38  56  83 108 138 168 214 261 320
#     4  10  21  36  50  69 102 132 168 216 256 294
#     4  10  19  32  49  70 104 137 176 218 257 299
#     4  10  20  33  46  65  94 134 181 225 261 295
#
# _framework density 15.85534
#
# number of rings (size 3 to 8) (size 9 to 14) (size 15 to 20)
#    0.000    1.655    1.379    5.586    5.793    1.103 
#    0.000    0.000    0.000    0.000    0.000    0.000 
#    0.000    1.103    5.793    0.690    0.000    0.000 
#
# Total GULP energy -322898.877794 kJ/mol
# GULP energy per Si atom -5567.222031 kJ/mol
# Density = 1.581925 g / cm^3
# Si number density = 15.855340 Si / 1000 Ang^3
#
#
#
# Elastic Constant Matrix: (Units=GPa)
#
#
# Indices 1 2 3 4 5 6 
#
# 1 75.3204 26.2365 20.1529 0.0000 0.0000 0.0000
# 2 26.2365 47.1855 28.2076 0.0000 0.0000 0.0000
# 3 20.1529 28.2076 58.6544 0.0000 0.0000 0.0000
# 4 0.0000 0.0000 0.0000 -2.1543 0.0000 0.0000
# 5 0.0000 0.0000 0.0000 0.0000 23.9897 0.0000
# 6 0.0000 0.0000 0.0000 0.0000 0.0000 23.7721
#
#
#
# Elastic Compliance Matrix: (Units=1/GPa)
#
#
# Indices 1 2 3 4 5 6 
#
# 1 0.016596 -0.008167 -0.001775 0.000000 0.000000 0.000000
# 2 -0.008167 0.033763 -0.013431 0.000000 0.000000 0.000000
# 3 -0.001775 -0.013431 0.024118 0.000000 0.000000 0.000000
# 4 0.000000 0.000000 0.000000 -0.464179 0.000000 0.000000
# 5 0.000000 0.000000 0.000000 0.000000 0.041684 0.000000
# 6 0.000000 0.000000 0.000000 0.000000 0.000000 0.042066
#
#
# Mechanical properties :
#
#
# Convention : Reuss Voigt Hill
#
# Bulk Modulus (GPa) = 36.05960 36.70605 36.38282
# Shear Modulus (GPa) = -20.00310 16.22573 -1.88869
#
# Velocity S-wave (km/s) = -3.55575 3.20247 -1.09261
# Velocity P-wave (km/s) = 2.43606 6.07250 4.62654
#
# Compressibility (1/GPa) = 0.02773187
#
# Stress axis : x y z
#
# Youngs Moduli (GPa) = 60.25430 29.61802 41.46301
#
# Poissons Ratio (x) = 0.24190 0.07358
# Poissons Ratio (y) = 0.49211 0.55689
# Poissons Ratio (z) = 0.10693 0.39780
#
# Static dielectric constant tensor:
#      x y z
#    x 1.551590 0.000000 0.000000 
#    y 0.000000 1.511090 0.000000 
#    z 0.000000 0.000000 1.531140 
# 
# From -- ./inp_files/48833.got.cif
#   From: 2010.05.17/outbox.cif.g08.bks.cpg/sg64_25_cif.got.tgz:48833.got - 2010.06.03 16:29:19.
