data_PCOD9477328
_publ_section_title
;
Structure prediction by ZEFSAII (Michael W. Deem and Ramdas Pophale) SiO2 
 PCOD9477328
Probable space group: C M C A
;
_chemical_formula_sum "Si O2"
_cell_formula_units_Z 116
_cell_length_a 7.495386
_cell_length_b 26.907627
_cell_length_c 29.493987
_cell_angle_alpha 90.000000
_cell_angle_beta 90.000000
_cell_angle_gamma 90.000000
_cell_volume 5948.437276
_symmetry_space_group_name_H-M "C M C A"
_symmetry_group_IT_number 64
_symmetry_cell_setting 'orthorhombic'
loop_
_space_group_symop_operation_xyz
x,y,z
-x,1/2-y,1/2+z
x,-y,-z
-x,1/2+y,1/2-z
-x,-y,-z
x,1/2+y,1/2-z
-x,y,z
x,1/2-y,1/2+z
1/2+x,1/2+y,z
1/2-x,-y,1/2+z
1/2+x,1/2-y,-z
1/2-x,y,1/2-z
1/2-x,1/2-y,-z
1/2+x,y,1/2-z
1/2-x,1/2+y,z
1/2+x,-y,1/2+z
loop_
_atom_site_type_symbol
_atom_site_label
_atom_site_fract_x
_atom_site_fract_y
_atom_site_fract_z
Si Si1 0.207776 0.948363 0.896861
Si Si2 0.713991 0.452260 0.053872
Si Si3 0.286240 0.295388 0.699171
Si Si4 0.784443 0.657192 0.551581
Si Si5 0.788993 0.750139 0.108448
Si Si6 0.000000 0.000000 0.500000
Si Si7 0.216420 0.849585 0.947380
Si Si8 0.288544 0.591103 0.301004
O O1 0.282863 0.899006 0.921190
O O2 0.222255 0.941074 0.843046
O O3 0.000000 0.949689 0.908788
O O4 0.276470 0.001436 0.914801
O O5 0.500000 0.455077 0.043968
O O6 0.748639 0.397230 0.072581
O O7 0.840140 0.459318 0.010754
O O8 0.500000 0.298536 0.694182
O O9 0.250000 0.277675 0.750000
O O10 0.216157 0.261551 0.658527
O O11 0.216646 0.352232 0.695222
O O12 0.714223 0.703188 0.580697
O O13 0.723002 0.656021 0.499329
O O14 0.000000 0.662523 0.549002
O O15 0.767465 0.699530 0.080177
O O16 0.000000 0.759821 0.113722
O O17 0.000000 0.852180 0.947763
O O18 0.500000 0.593395 0.305936
O O19 0.250000 0.573257 0.250000
#
# Coordination Sequence:
#
# PCOD9477328 Si02
#       8
#    16  16  16  16  16   4  16  16
#     4  10  20  34  55  78 110 146 185 227 283 338
#     4  10  22  40  57  81 114 151 190 239 284 324
#     4   9  18  31  49  76 104 134 173 222 275 330
#     4   9  19  37  56  72 107 152 187 221 269 327
#     4  10  19  34  53  77 105 143 183 219 270 331
#     4  12  22  36  60  86 108 144 198 240 276 328
#     4  10  19  31  49  77 106 142 180 221 270 325
#     4  10  19  32  52  78 110 139 173 224 283 341
#
# _framework density 19.500920000000001
#
# number of rings (size 3 to 8) (size 9 to 14) (size 15 to 20)
#    0.000    2.207    1.379    1.862    0.966    3.310 
#    4.966    0.000    0.000    0.828    0.000    1.931 
#    0.000    0.000    0.000    0.000    0.000    0.000 
#
# Total GULP energy -323051.129143 kJ/mol
# GULP energy per Si atom -5569.847054 kJ/mol
# Density = 1.945654 g / cm^3
# Si number density = 19.500920 Si / 1000 Ang^3
#
#
#
# Elastic Constant Matrix: (Units=GPa)
#
#
# Indices 1 2 3 4 5 6 
#
# 1 63.2470 0.9843 -11.5677 0.0000 0.0000 0.0000
# 2 0.9843 136.4757 81.0376 0.0000 0.0000 0.0000
# 3 -11.5677 81.0376 125.3935 0.0000 0.0000 0.0000
# 4 0.0000 0.0000 0.0000 17.9252 0.0000 0.0000
# 5 0.0000 0.0000 0.0000 0.0000 -18.0397 0.0000
# 6 0.0000 0.0000 0.0000 0.0000 0.0000 3.4197
#
#
#
# Elastic Compliance Matrix: (Units=1/GPa)
#
#
# Indices 1 2 3 4 5 6 
#
# 1 0.016306 -0.001640 0.002564 0.000000 0.000000 0.000000
# 2 -0.001640 0.012055 -0.007942 0.000000 0.000000 0.000000
# 3 0.002564 -0.007942 0.013344 0.000000 0.000000 0.000000
# 4 0.000000 0.000000 0.000000 0.055787 0.000000 0.000000
# 5 0.000000 0.000000 0.000000 0.000000 -0.055433 0.000000
# 6 0.000000 0.000000 0.000000 0.000000 0.000000 0.292424
#
#
# Mechanical properties :
#
#
# Convention : Reuss Voigt Hill
#
# Bulk Modulus (GPa) = 36.14204 51.78051 43.96128
# Shear Modulus (GPa) = 13.97657 17.63850 15.80753
#
# Velocity S-wave (km/s) = 2.68005 3.01075 2.85020
# Velocity P-wave (km/s) = 5.30572 6.22066 5.78132
#
# Compressibility (1/GPa) = 0.02766861
#
# Stress axis : x y z
#
# Youngs Moduli (GPa) = 61.32881 82.95279 74.93921
#
# Poissons Ratio (x) = 0.13606 -0.19216
# Poissons Ratio (y) = 0.10059 0.59517
# Poissons Ratio (z) = -0.15726 0.65882
#
# Static dielectric constant tensor:
#      x y z
#    x 1.731830 0.000000 0.000000 
#    y 0.000000 1.701520 0.000000 
#    z 0.000000 0.000000 1.736410 
# 
# From -- ./inp_files/52400.got.cif
#   From: 2010.05.17/outbox.cif.g08.bks.cpg/sg64_27_cif.got.tgz:52400.got - 2010.06.03 16:29:19.
