data_PCOD9477402
_publ_section_title
;
Structure prediction by ZEFSAII (Michael W. Deem and Ramdas Pophale) SiO2 
 PCOD9477402
Probable space group: C M C A
;
_chemical_formula_sum "Si O2"
_cell_formula_units_Z 64
_cell_length_a 25.201806
_cell_length_b 20.181633
_cell_length_c 5.304790
_cell_angle_alpha 90.000000
_cell_angle_beta 90.000000
_cell_angle_gamma 90.000000
_cell_volume 2698.088337
_symmetry_space_group_name_H-M "C M C A"
_symmetry_group_IT_number 64
_symmetry_cell_setting 'orthorhombic'
loop_
_space_group_symop_operation_xyz
x,y,z
-x,1/2-y,1/2+z
x,-y,-z
-x,1/2+y,1/2-z
-x,-y,-z
x,1/2+y,1/2-z
-x,y,z
x,1/2-y,1/2+z
1/2+x,1/2+y,z
1/2-x,-y,1/2+z
1/2+x,1/2-y,-z
1/2-x,y,1/2-z
1/2-x,1/2-y,-z
1/2+x,y,1/2-z
1/2-x,1/2+y,z
1/2+x,-y,1/2+z
loop_
_atom_site_type_symbol
_atom_site_label
_atom_site_fract_x
_atom_site_fract_y
_atom_site_fract_z
Si Si1 0.396450 0.183331 0.853496
Si Si2 0.218481 0.169846 0.484368
Si Si3 0.938860 0.831322 0.853978
Si Si4 0.311063 0.471678 0.743270
O O1 0.428851 0.251938 0.823451
O O2 0.421744 0.142586 0.082127
O O3 0.336670 0.201700 0.927292
O O4 0.401781 0.147899 0.585576
O O5 0.250000 0.154536 0.750000
O O6 0.198070 0.104793 0.328564
O O7 0.250000 0.205197 0.250000
O O8 0.000000 0.843843 0.910518
O O9 0.339740 0.500000 0.500000
O O10 0.250000 0.499527 0.750000
O O11 0.334566 0.500000 0.000000
#
# Coordination Sequence:
#
# PCOD9477402 Si02
#       4
#    16  16  16  16
#     4  10  19  32  50  73  98 132 169 209 256 297
#     4  11  21  33  47  71 108 139 166 202 242 296
#     4  10  19  35  54  72  97 126 172 227 261 288
#     4   9  16  28  46  64  86 123 165 197 232 275
#
# _framework density 23.720499
#
# number of rings (size 3 to 8) (size 9 to 14) (size 15 to 20)
#    0.000    2.000    0.000    9.000    0.000    0.000 
#    0.000   15.000    0.000    0.000    0.000    0.000 
#    0.000   34.000    0.000    0.000    0.000   18.250 
#
# Total GULP energy -178306.636089 kJ/mol
# GULP energy per Si atom -5572.082378 kJ/mol
# Density = 2.366651 g / cm^3
# Si number density = 23.720499 Si / 1000 Ang^3
#
#
#
# Elastic Constant Matrix: (Units=GPa)
#
#
# Indices 1 2 3 4 5 6 
#
# 1 82.8881 1.8345 6.4535 0.0000 0.0000 0.0000
# 2 1.8345 56.2977 10.4692 0.0000 0.0000 0.0000
# 3 6.4535 10.4692 222.1002 0.0000 0.0000 0.0000
# 4 0.0000 0.0000 0.0000 2.5378 0.0000 0.0000
# 5 0.0000 0.0000 0.0000 0.0000 34.8595 0.0000
# 6 0.0000 0.0000 0.0000 0.0000 0.0000 7.4032
#
#
#
# Elastic Compliance Matrix: (Units=1/GPa)
#
#
# Indices 1 2 3 4 5 6 
#
# 1 0.012098 -0.000332 -0.000336 0.000000 0.000000 0.000000
# 2 -0.000332 0.017929 -0.000835 0.000000 0.000000 0.000000
# 3 -0.000336 -0.000835 0.004552 0.000000 0.000000 0.000000
# 4 0.000000 0.000000 0.000000 0.394037 0.000000 0.000000
# 5 0.000000 0.000000 0.000000 0.000000 0.028687 0.000000
# 6 0.000000 0.000000 0.000000 0.000000 0.000000 0.135077
#
#
# Mechanical properties :
#
#
# Convention : Reuss Voigt Hill
#
# Bulk Modulus (GPa) = 31.67342 44.31115 37.99229
# Shear Modulus (GPa) = 8.25205 31.79537 20.02371
#
# Velocity S-wave (km/s) = 1.86720 3.66514 2.90858
# Velocity P-wave (km/s) = 4.24621 6.05245 5.22793
#
# Compressibility (1/GPa) = 0.03157221
#
# Stress axis : x y z
#
# Youngs Moduli (GPa) = 82.65865 55.77591 219.70230
#
# Poissons Ratio (x) = 0.01850 0.07380
# Poissons Ratio (y) = 0.02742 0.18356
# Poissons Ratio (z) = 0.02776 0.04660
#
# Static dielectric constant tensor:
#      x y z
#    x 1.913780 0.000000 0.000000 
#    y 0.000000 2.039660 0.000000 
#    z 0.000000 0.000000 2.300780 
# 
# From -- ./inp_files/1781.got.cif
#   From: 2010.05.17/outbox.cif.g08.bks.cpg/sg64_1_cif.got.tgz:1781.got - 2010.06.03 16:29:19.
