data_PCOD9477477
_publ_section_title
;
Structure prediction by ZEFSAII (Michael W. Deem and Ramdas Pophale) SiO2 
 PCOD9477477
Probable space group: C M C A
;
_chemical_formula_sum "Si O2"
_cell_formula_units_Z 112
_cell_length_a 14.813845
_cell_length_b 15.018108
_cell_length_c 27.909868
_cell_angle_alpha 90.000000
_cell_angle_beta 90.000000
_cell_angle_gamma 90.000000
_cell_volume 6209.273675
_symmetry_space_group_name_H-M "C M C A"
_symmetry_group_IT_number 64
_symmetry_cell_setting 'orthorhombic'
loop_
_space_group_symop_operation_xyz
x,y,z
-x,1/2-y,1/2+z
x,-y,-z
-x,1/2+y,1/2-z
-x,-y,-z
x,1/2+y,1/2-z
-x,y,z
x,1/2-y,1/2+z
1/2+x,1/2+y,z
1/2-x,-y,1/2+z
1/2+x,1/2-y,-z
1/2-x,y,1/2-z
1/2-x,1/2-y,-z
1/2+x,y,1/2-z
1/2-x,1/2+y,z
1/2+x,-y,1/2+z
loop_
_atom_site_type_symbol
_atom_site_label
_atom_site_fract_x
_atom_site_fract_y
_atom_site_fract_z
Si Si1 0.299250 0.283201 0.451470
Si Si2 0.252799 0.617631 0.401182
Si Si3 0.894669 0.446897 0.195536
Si Si4 0.903201 0.600746 0.017608
Si Si5 0.604371 0.851322 0.818237
Si Si6 0.231982 0.080379 0.875201
Si Si7 0.893470 0.155727 0.791328
O O1 0.250000 0.250000 0.500000
O O2 0.312510 0.197287 0.417773
O O3 0.384252 0.335866 0.472399
O O4 0.241219 0.354233 0.420645
O O5 0.323186 0.605811 0.444593
O O6 0.317307 0.648514 0.357877
O O7 0.210348 0.521566 0.389806
O O8 0.887493 0.552480 0.206583
O O9 0.829549 0.425513 0.151197
O O10 0.866517 0.391662 0.242084
O O11 0.000000 0.428205 0.184619
O O12 0.000000 0.623542 0.039760
O O13 0.905089 0.500000 0.000000
O O14 0.500000 0.847585 0.836996
O O15 0.617001 0.762318 0.787590
O O16 0.162810 0.119083 0.836220
O O17 0.000000 0.137248 0.798761
#
# Coordination Sequence:
#
# PCOD9477477 Si02
#       7
#    16  16  16  16  16  16  16
#     4  10  21  35  52  79 110 141 179 222 273 326
#     4  10  19  34  54  78 105 140 180 219 269 325
#     4   9  20  36  56  81 109 139 180 231 280 324
#     4  10  19  32  53  80 107 137 173 226 279 321
#     4   9  17  32  56  79 102 136 180 225 267 318
#     4  11  20  36  56  81 110 144 183 225 277 330
#     4  10  20  37  56  80 110 145 184 224 269 329
#
# _framework density 18.037535999999999
#
# number of rings (size 3 to 8) (size 9 to 14) (size 15 to 20)
#    0.000    2.143    2.857    0.857    0.000    1.143 
#    2.571    2.143    0.000    0.000    0.000    4.000 
#    0.000    0.000    0.000    0.000    0.000    0.000 
#
# Total GULP energy -311984.032196 kJ/mol
# GULP energy per Si atom -5571.143432 kJ/mol
# Density = 1.799648 g / cm^3
# Si number density = 18.037536 Si / 1000 Ang^3
#
#
#
# Elastic Constant Matrix: (Units=GPa)
#
#
# Indices 1 2 3 4 5 6 
#
# 1 34.3179 22.8755 8.8580 0.0000 0.0000 0.0000
# 2 22.8755 127.6432 51.2610 0.0000 0.0000 0.0000
# 3 8.8580 51.2610 65.9873 0.0000 0.0000 0.0000
# 4 0.0000 0.0000 0.0000 36.3448 0.0000 0.0000
# 5 0.0000 0.0000 0.0000 0.0000 37.0971 0.0000
# 6 0.0000 0.0000 0.0000 0.0000 0.0000 31.8945
#
#
#
# Elastic Compliance Matrix: (Units=1/GPa)
#
#
# Indices 1 2 3 4 5 6 
#
# 1 0.033095 -0.006027 0.000240 0.000000 0.000000 0.000000
# 2 -0.006027 0.012484 -0.008889 0.000000 0.000000 0.000000
# 3 0.000240 -0.008889 0.022028 0.000000 0.000000 0.000000
# 4 0.000000 0.000000 0.000000 0.027514 0.000000 0.000000
# 5 0.000000 0.000000 0.000000 0.000000 0.026956 0.000000
# 6 0.000000 0.000000 0.000000 0.000000 0.000000 0.031353
#
#
# Mechanical properties :
#
#
# Convention : Reuss Voigt Hill
#
# Bulk Modulus (GPa) = 26.14147 43.77083 34.95615
# Shear Modulus (GPa) = 25.57072 30.73086 28.15079
#
# Velocity S-wave (km/s) = 3.76924 4.13209 3.95483
# Velocity P-wave (km/s) = 5.78508 6.86183 6.34633
#
# Compressibility (1/GPa) = 0.03825340
#
# Stress axis : x y z
#
# Youngs Moduli (GPa) = 30.21586 80.10007 45.39750
#
# Poissons Ratio (x) = 0.48279 -0.01088
# Poissons Ratio (y) = 0.18212 0.40355
# Poissons Ratio (z) = -0.00724 0.71202
#
# Static dielectric constant tensor:
#      x y z
#    x 1.630010 0.000000 0.000000 
#    y 0.000000 1.651350 0.000000 
#    z 0.000000 0.000000 1.612340 
# 
# From -- ./inp_files/50043.got.cif
#   From: 2010.05.17/outbox.cif.g08.bks.cpg/sg64_26_cif.got.tgz:50043.got - 2010.06.03 16:29:19.
