data_PCOD9477919
_publ_section_title
;
Structure prediction by ZEFSAII (Michael W. Deem and Ramdas Pophale) SiO2 
 PCOD9477919
Probable space group: C M C A
;
_chemical_formula_sum "Si O2"
_cell_formula_units_Z 88
_cell_length_a 12.330699
_cell_length_b 17.657483
_cell_length_c 20.625047
_cell_angle_alpha 90.000000
_cell_angle_beta 90.000000
_cell_angle_gamma 90.000000
_cell_volume 4490.673085
_symmetry_space_group_name_H-M "C M C A"
_symmetry_group_IT_number 64
_symmetry_cell_setting 'orthorhombic'
loop_
_space_group_symop_operation_xyz
x,y,z
-x,1/2-y,1/2+z
x,-y,-z
-x,1/2+y,1/2-z
-x,-y,-z
x,1/2+y,1/2-z
-x,y,z
x,1/2-y,1/2+z
1/2+x,1/2+y,z
1/2-x,-y,1/2+z
1/2+x,1/2-y,-z
1/2-x,y,1/2-z
1/2-x,1/2-y,-z
1/2+x,y,1/2-z
1/2-x,1/2+y,z
1/2+x,-y,1/2+z
loop_
_atom_site_type_symbol
_atom_site_label
_atom_site_fract_x
_atom_site_fract_y
_atom_site_fract_z
Si Si1 0.629841 0.023584 0.134615
Si Si2 0.750000 0.612151 0.250000
Si Si3 0.768540 0.131843 0.673610
Si Si4 0.786822 0.347459 0.952866
Si Si5 0.623617 0.815538 0.436429
Si Si6 0.623060 0.211112 0.343964
O O1 0.500000 0.020385 0.142533
O O2 0.689729 0.064247 0.195099
O O3 0.658579 0.075654 0.072266
O O4 0.682060 0.940494 0.137070
O O5 0.658855 0.665742 0.219353
O O6 0.750000 0.116080 0.750000
O O7 0.660966 0.162342 0.636381
O O8 0.851558 0.201305 0.667041
O O9 0.866863 0.274742 0.951614
O O10 0.698267 0.321548 0.900091
O O11 0.717374 0.351736 0.018445
O O12 0.500000 0.839845 0.448692
O O13 0.500000 0.198407 0.360925
#
# Coordination Sequence:
#
# PCOD9477919 Si02
#       6
#    16   8  16  16  16  16
#     4  11  22  39  60  85 124 162 194 248 306 354
#     4  10  20  36  56  88 116 148 208 248 286 362
#     4  11  23  40  55  89 126 157 207 244 289 373
#     4   9  21  39  62  95 118 148 210 251 297 373
#     4  10  21  41  67  89 120 160 200 258 308 349
#     4  10  19  35  59  84 117 156 194 249 302 348
#
# _framework density 19.596170999999998
#
# number of rings (size 3 to 8) (size 9 to 14) (size 15 to 20)
#    0.000    1.818    1.818    2.182    0.000    2.182 
#    0.000    6.364    0.000    0.000    0.000    0.000 
#    0.000    0.000    0.000    0.000    0.000    0.000 
#
# Total GULP energy -245497.578556 kJ/mol
# GULP energy per Si atom -5579.490422 kJ/mol
# Density = 1.955157 g / cm^3
# Si number density = 19.596171 Si / 1000 Ang^3
#
#
#
# Elastic Constant Matrix: (Units=GPa)
#
#
# Indices 1 2 3 4 5 6 
#
# 1 104.2916 32.3028 15.8902 0.0000 0.0000 0.0000
# 2 32.3028 106.9506 23.7138 0.0000 0.0000 0.0000
# 3 15.8902 23.7138 73.7231 0.0000 0.0000 0.0000
# 4 0.0000 0.0000 0.0000 22.1299 0.0000 0.0000
# 5 0.0000 0.0000 0.0000 0.0000 8.6142 0.0000
# 6 0.0000 0.0000 0.0000 0.0000 0.0000 -8.1102
#
#
#
# Elastic Compliance Matrix: (Units=1/GPa)
#
#
# Indices 1 2 3 4 5 6 
#
# 1 0.010704 -0.002930 -0.001365 0.000000 0.000000 0.000000
# 2 -0.002930 0.010870 -0.002865 0.000000 0.000000 0.000000
# 3 -0.001365 -0.002865 0.014780 0.000000 0.000000 0.000000
# 4 0.000000 0.000000 0.000000 0.045188 0.000000 0.000000
# 5 0.000000 0.000000 0.000000 0.000000 0.116088 0.000000
# 6 0.000000 0.000000 0.000000 0.000000 0.000000 -0.123301
#
#
# Mechanical properties :
#
#
# Convention : Reuss Voigt Hill
#
# Bulk Modulus (GPa) = 45.38328 47.64209 46.51268
# Shear Modulus (GPa) = 52.08685 18.73069 35.40877
#
# Velocity S-wave (km/s) = 5.16118 3.09501 4.25540
# Velocity P-wave (km/s) = 7.66333 6.09400 6.92327
#
# Compressibility (1/GPa) = 0.02203455
#
# Stress axis : x y z
#
# Youngs Moduli (GPa) = 93.42247 91.99259 67.65941
#
# Poissons Ratio (x) = 0.26958 0.09232
# Poissons Ratio (y) = 0.27377 0.19384
# Poissons Ratio (z) = 0.12748 0.26355
#
# Static dielectric constant tensor:
#      x y z
#    x 1.636130 0.000000 0.000000 
#    y 0.000000 1.693430 0.000000 
#    z 0.000000 0.000000 1.740380 
# 
# From -- ./inp_files/38109.got.cif
#   From: 2010.05.17/outbox.cif.g08.bks.cpg/sg64_20_cif.got.tgz:38109.got - 2010.06.03 16:29:19.
