data_PCOD9477745
_publ_section_title
;
Structure prediction by ZEFSAII (Michael W. Deem and Ramdas Pophale) SiO2 
 PCOD9477745
Probable space group: C M C A
;
_chemical_formula_sum "Si O2"
_cell_formula_units_Z 96
_cell_length_a 7.966201
_cell_length_b 30.493978
_cell_length_c 18.846977
_cell_angle_alpha 90.000000
_cell_angle_beta 90.000000
_cell_angle_gamma 90.000000
_cell_volume 4578.329478
_symmetry_space_group_name_H-M "C M C A"
_symmetry_group_IT_number 64
_symmetry_cell_setting 'orthorhombic'
loop_
_space_group_symop_operation_xyz
x,y,z
-x,1/2-y,1/2+z
x,-y,-z
-x,1/2+y,1/2-z
-x,-y,-z
x,1/2+y,1/2-z
-x,y,z
x,1/2-y,1/2+z
1/2+x,1/2+y,z
1/2-x,-y,1/2+z
1/2+x,1/2-y,-z
1/2-x,y,1/2-z
1/2-x,1/2-y,-z
1/2+x,y,1/2-z
1/2-x,1/2+y,z
1/2+x,-y,1/2+z
loop_
_atom_site_type_symbol
_atom_site_label
_atom_site_fract_x
_atom_site_fract_y
_atom_site_fract_z
Si Si1 0.294311 0.094685 0.087290
Si Si2 0.797774 0.487393 0.829529
Si Si3 0.307580 0.369972 0.170760
Si Si4 0.202760 0.807456 0.563098
Si Si5 0.301225 0.286611 0.401406
Si Si6 0.694240 0.060292 0.936598
O O1 0.500000 0.095804 0.085346
O O2 0.243574 0.061742 0.149603
O O3 0.239426 0.145170 0.090382
O O4 0.234823 0.073174 0.013027
O O5 0.750000 0.499830 0.750000
O O6 0.732144 0.521015 0.889401
O O7 0.000000 0.488964 0.832882
O O8 0.500000 0.382899 0.161811
O O9 0.250000 0.379919 0.250000
O O10 0.285844 0.318651 0.154020
O O11 0.202860 0.397000 0.113165
O O12 0.264414 0.764863 0.605060
O O13 0.256128 0.800763 0.480865
O O14 0.000000 0.806631 0.563443
O O15 0.500000 0.293839 0.396686
O O16 0.500000 0.048599 0.950155
#
# Coordination Sequence:
#
# PCOD9477745 Si02
#       6
#    16  16  16  16  16  16
#     4   9  17  34  59  85 109 145 193 236 276 329
#     4  10  21  36  57  81 112 150 188 230 281 338
#     4  12  24  37  55  81 115 152 189 231 288 344
#     4   9  17  32  56  82 110 142 183 231 277 327
#     4  10  19  34  55  81 112 145 184 228 278 333
#     4  10  19  36  59  84 110 142 189 239 285 334
#
# _framework density 20.968347000000001
#
# number of rings (size 3 to 8) (size 9 to 14) (size 15 to 20)
#    0.000    2.000    1.667    3.000    0.000    4.667 
#    0.000    2.500    0.000    4.000    0.000    0.000 
#    0.000    0.000    0.000    0.000    0.000    0.000 
#
# Total GULP energy -268056.375774 kJ/mol
# GULP energy per Si atom -5584.507829 kJ/mol
# Density = 2.092062 g / cm^3
# Si number density = 20.968347 Si / 1000 Ang^3
#
#
#
# Elastic Constant Matrix: (Units=GPa)
#
#
# Indices 1 2 3 4 5 6 
#
# 1 28.2301 1.0196 -4.7189 0.0000 0.0000 0.0000
# 2 1.0196 120.9360 5.0691 0.0000 0.0000 0.0000
# 3 -4.7189 5.0691 30.4440 0.0000 0.0000 0.0000
# 4 0.0000 0.0000 0.0000 -7.3179 0.0000 0.0000
# 5 0.0000 0.0000 0.0000 0.0000 15.2341 0.0000
# 6 0.0000 0.0000 0.0000 0.0000 0.0000 19.2644
#
#
#
# Elastic Compliance Matrix: (Units=1/GPa)
#
#
# Indices 1 2 3 4 5 6 
#
# 1 0.036401 -0.000547 0.005733 0.000000 0.000000 0.000000
# 2 -0.000547 0.008335 -0.001473 0.000000 0.000000 0.000000
# 3 0.005733 -0.001473 0.033981 0.000000 0.000000 0.000000
# 4 0.000000 0.000000 0.000000 -0.136651 0.000000 0.000000
# 5 0.000000 0.000000 0.000000 0.000000 0.065642 0.000000
# 6 0.000000 0.000000 0.000000 0.000000 0.000000 0.051909
#
#
# Mechanical properties :
#
#
# Convention : Reuss Voigt Hill
#
# Bulk Modulus (GPa) = 11.60839 20.26108 15.93474
# Shear Modulus (GPa) = 61.80055 17.31882 39.55968
#
# Velocity S-wave (km/s) = 5.43482 2.87705 4.34826
# Velocity P-wave (km/s) = 6.70307 4.55195 5.72937
#
# Compressibility (1/GPa) = 0.08614459
#
# Stress axis : x y z
#
# Youngs Moduli (GPa) = 27.47155 119.97346 29.42815
#
# Poissons Ratio (x) = 0.06565 -0.16872
# Poissons Ratio (y) = 0.01503 0.04334
# Poissons Ratio (z) = -0.15751 0.17668
#
# Static dielectric constant tensor:
#      x y z
#    x 1.769020 0.000000 0.000000 
#    y 0.000000 1.776560 0.000000 
#    z 0.000000 0.000000 1.713270 
# 
# From -- ./inp_files/37033.got.cif
#   From: 2010.05.17/outbox.cif.g08.bks.cpg/sg64_19_cif.got.tgz:37033.got - 2010.06.03 16:29:19.
