data_PCOD9477582
_publ_section_title
;
Structure prediction by ZEFSAII (Michael W. Deem and Ramdas Pophale) SiO2 
 PCOD9477582
Probable space group: C M C A
;
_chemical_formula_sum "Si O2"
_cell_formula_units_Z 96
_cell_length_a 27.009987
_cell_length_b 11.623963
_cell_length_c 16.527577
_cell_angle_alpha 90.000000
_cell_angle_beta 90.000000
_cell_angle_gamma 90.000000
_cell_volume 5189.049137
_symmetry_space_group_name_H-M "C M C A"
_symmetry_group_IT_number 64
_symmetry_cell_setting 'orthorhombic'
loop_
_space_group_symop_operation_xyz
x,y,z
-x,1/2-y,1/2+z
x,-y,-z
-x,1/2+y,1/2-z
-x,-y,-z
x,1/2+y,1/2-z
-x,y,z
x,1/2-y,1/2+z
1/2+x,1/2+y,z
1/2-x,-y,1/2+z
1/2+x,1/2-y,-z
1/2-x,y,1/2-z
1/2-x,1/2-y,-z
1/2+x,y,1/2-z
1/2-x,1/2+y,z
1/2+x,-y,1/2+z
loop_
_atom_site_type_symbol
_atom_site_label
_atom_site_fract_x
_atom_site_fract_y
_atom_site_fract_z
Si Si1 0.058540 0.945685 0.587935
Si Si2 0.371252 0.250383 0.150517
Si Si3 0.878889 0.411507 0.206079
Si Si4 0.803338 0.123075 0.957526
Si Si5 0.696069 0.401892 0.751371
Si Si6 0.203612 0.789097 0.391170
O O1 0.089760 0.830619 0.605963
O O2 0.000000 0.924584 0.590491
O O3 0.070481 0.000000 0.500000
O O4 0.075495 0.031650 0.659764
O O5 0.390363 0.305565 0.234477
O O6 0.351635 0.352764 0.095128
O O7 0.323175 0.172092 0.174277
O O8 0.847668 0.505576 0.257634
O O9 0.840517 0.371859 0.136427
O O10 0.754407 0.141291 0.903018
O O11 0.804308 0.222555 0.025241
O O12 0.801959 0.000000 0.000000
O O13 0.750000 0.460095 0.750000
O O14 0.703467 0.309061 0.822346
#
# Coordination Sequence:
#
# PCOD9477582 Si02
#       6
#    16  16  16  16  16  16
#     4  10  22  42  66  86 110 151 200 252 309 360
#     4  10  21  37  55  87 115 150 189 246 288 350
#     4  10  22  34  60  83 114 149 191 245 288 342
#     4  11  22  33  51  77 116 156 193 227 280 343
#     4  10  19  33  54  76 113 154 195 227 276 345
#     4  10  22  34  48  78 112 155 192 228 274 333
#
# _framework density 18.500499999999999
#
# number of rings (size 3 to 8) (size 9 to 14) (size 15 to 20)
#    0.000    1.833    1.667    2.000    4.667    2.667 
#    0.000    0.000    0.000    0.500    0.000    0.000 
#    0.000    0.000    0.000    0.000    0.000    0.000 
#
# Total GULP energy -267738.648732 kJ/mol
# GULP energy per Si atom -5577.888515 kJ/mol
# Density = 1.845839 g / cm^3
# Si number density = 18.500500 Si / 1000 Ang^3
#
#
#
# Elastic Constant Matrix: (Units=GPa)
#
#
# Indices 1 2 3 4 5 6 
#
# 1 69.5740 21.4841 53.6635 0.0000 0.0000 0.0000
# 2 21.4841 70.8626 41.6659 0.0000 0.0000 0.0000
# 3 53.6635 41.6659 85.8362 0.0000 0.0000 0.0000
# 4 0.0000 0.0000 0.0000 44.7571 0.0000 0.0000
# 5 0.0000 0.0000 0.0000 0.0000 8.4615 0.0000
# 6 0.0000 0.0000 0.0000 0.0000 0.0000 11.8262
#
#
#
# Elastic Compliance Matrix: (Units=1/GPa)
#
#
# Indices 1 2 3 4 5 6 
#
# 1 0.028080 0.002531 -0.018784 0.000000 0.000000 0.000000
# 2 0.002531 0.019976 -0.011279 0.000000 0.000000 0.000000
# 3 -0.018784 -0.011279 0.028868 0.000000 0.000000 0.000000
# 4 0.000000 0.000000 0.000000 0.022343 0.000000 0.000000
# 5 0.000000 0.000000 0.000000 0.000000 0.118182 0.000000
# 6 0.000000 0.000000 0.000000 0.000000 0.000000 0.084558
#
#
# Mechanical properties :
#
#
# Convention : Reuss Voigt Hill
#
# Bulk Modulus (GPa) = 45.74329 51.09996 48.42162
# Shear Modulus (GPa) = 13.72276 20.30626 17.01451
#
# Velocity S-wave (km/s) = 2.72646 3.31661 3.03591
# Velocity P-wave (km/s) = 5.88987 6.50748 6.20636
#
# Compressibility (1/GPa) = 0.02186113
#
# Stress axis : x y z
#
# Youngs Moduli (GPa) = 35.61297 50.05914 34.63992
#
# Poissons Ratio (x) = -0.12671 0.65066
# Poissons Ratio (y) = -0.09015 0.39071
# Poissons Ratio (z) = 0.66894 0.56463
#
# Static dielectric constant tensor:
#      x y z
#    x 1.615990 0.000000 0.000000 
#    y 0.000000 1.675210 0.000000 
#    z 0.000000 0.000000 1.686140 
# 
# From -- ./inp_files/34916.got.cif
#   From: 2010.05.17/outbox.cif.g08.bks.cpg/sg64_18_cif.got.tgz:34916.got - 2010.06.03 16:29:19.
