data_PCOD9477688
_publ_section_title
;
Structure prediction by ZEFSAII (Michael W. Deem and Ramdas Pophale) SiO2 
 PCOD9477688
Probable space group: C M C A
;
_chemical_formula_sum "Si O2"
_cell_formula_units_Z 112
_cell_length_a 12.054229
_cell_length_b 13.222756
_cell_length_c 32.103708
_cell_angle_alpha 90.000000
_cell_angle_beta 90.000000
_cell_angle_gamma 90.000000
_cell_volume 5117.014154
_symmetry_space_group_name_H-M "C M C A"
_symmetry_group_IT_number 64
_symmetry_cell_setting 'orthorhombic'
loop_
_space_group_symop_operation_xyz
x,y,z
-x,1/2-y,1/2+z
x,-y,-z
-x,1/2+y,1/2-z
-x,-y,-z
x,1/2+y,1/2-z
-x,y,z
x,1/2-y,1/2+z
1/2+x,1/2+y,z
1/2-x,-y,1/2+z
1/2+x,1/2-y,-z
1/2-x,y,1/2-z
1/2-x,1/2-y,-z
1/2+x,y,1/2-z
1/2-x,1/2+y,z
1/2+x,-y,1/2+z
loop_
_atom_site_type_symbol
_atom_site_label
_atom_site_fract_x
_atom_site_fract_y
_atom_site_fract_z
Si Si1 0.654724 0.540839 0.862789
Si Si2 0.126655 0.256283 0.230157
Si Si3 0.883107 0.869117 0.357559
Si Si4 0.337090 0.666260 0.092706
Si Si5 0.622946 0.733452 0.919921
Si Si6 0.370953 0.612285 0.998312
Si Si7 0.874139 0.516794 0.270312
O O1 0.786297 0.553370 0.865266
O O2 0.623792 0.434915 0.884063
O O3 0.616438 0.640209 0.887530
O O4 0.623731 0.539993 0.814451
O O5 0.250000 0.275037 0.250000
O O6 0.126714 0.322263 0.188484
O O7 0.000000 0.272353 0.249674
O O8 0.128411 0.136777 0.220854
O O9 0.877935 0.770640 0.387174
O O10 0.000000 0.921025 0.362503
O O11 0.204597 0.680476 0.095819
O O12 0.367461 0.656004 0.044437
O O13 0.500000 0.772188 0.928155
O O14 0.673874 0.684329 0.962122
O O15 0.500000 0.598914 0.985466
O O16 0.319627 0.500000 0.000000
O O17 0.750000 0.496815 0.250000
O O18 0.000000 0.499574 0.250450
#
# Coordination Sequence:
#
# PCOD9477688 Si02
#       7
#    16  16  16  16  16  16  16
#     4  11  22  37  61  88 118 153 199 247 298 355
#     4   9  18  36  60  84 113 152 198 248 300 360
#     4  10  22  38  58  85 116 154 199 243 296 362
#     4  11  21  37  60  84 117 158 193 242 296 354
#     4  10  22  38  57  87 120 152 195 243 295 353
#     4  10  19  33  59  88 113 149 197 244 289 345
#     4  10  21  38  62  89 119 159 204 251 305 364
#
# _framework density 21.887765000000002
#
# number of rings (size 3 to 8) (size 9 to 14) (size 15 to 20)
#    0.000    1.857    2.857    1.286    0.000    2.857 
#    0.000    5.000    0.000    0.429    0.000    0.000 
#    0.000    0.000    0.000    0.000    0.000    0.000 
#
# Total GULP energy -312099.976115 kJ/mol
# GULP energy per Si atom -5573.213859 kJ/mol
# Density = 2.183795 g / cm^3
# Si number density = 21.887765 Si / 1000 Ang^3
#
#
#
# Elastic Constant Matrix: (Units=GPa)
#
#
# Indices 1 2 3 4 5 6 
#
# 1 171.7838 15.8910 32.7245 0.0000 0.0000 0.0000
# 2 15.8910 69.8423 7.4693 0.0000 0.0000 0.0000
# 3 32.7245 7.4693 74.6195 0.0000 0.0000 0.0000
# 4 0.0000 0.0000 0.0000 14.3074 0.0000 0.0000
# 5 0.0000 0.0000 0.0000 0.0000 -10.7538 0.0000
# 6 0.0000 0.0000 0.0000 0.0000 0.0000 -18.0275
#
#
#
# Elastic Compliance Matrix: (Units=1/GPa)
#
#
# Indices 1 2 3 4 5 6 
#
# 1 0.006446 -0.001177 -0.002709 0.000000 0.000000 0.000000
# 2 -0.001177 0.014688 -0.000954 0.000000 0.000000 0.000000
# 3 -0.002709 -0.000954 0.014685 0.000000 0.000000 0.000000
# 4 0.000000 0.000000 0.000000 0.069894 0.000000 0.000000
# 5 0.000000 0.000000 0.000000 0.000000 -0.092991 0.000000
# 6 0.000000 0.000000 0.000000 0.000000 0.000000 -0.055471
#
#
# Mechanical properties :
#
#
# Convention : Reuss Voigt Hill
#
# Bulk Modulus (GPa) = 38.25769 47.60169 42.92969
# Shear Modulus (GPa) = -205.29553 14.44927 -95.42313
#
# Velocity S-wave (km/s) = -9.69527 2.57213 -6.60993
# Velocity P-wave (km/s) = 10.38335 5.53321 6.21279
#
# Compressibility (1/GPa) = 0.02613853
#
# Stress axis : x y z
#
# Youngs Moduli (GPa) = 155.12901 68.08376 68.09693
#
# Poissons Ratio (x) = 0.08013 0.18449
# Poissons Ratio (y) = 0.18258 0.06497
# Poissons Ratio (z) = 0.42028 0.06496
#
# Static dielectric constant tensor:
#      x y z
#    x 1.880670 0.000000 0.000000 
#    y 0.000000 1.769520 0.000000 
#    z 0.000000 0.000000 1.802960 
# 
# From -- ./inp_files/52849.got.cif
#   From: 2010.05.17/outbox.cif.g08.bks.cpg/sg64_27_cif.got.tgz:52849.got - 2010.06.03 16:29:19.
