data_PCOD9477464
_publ_section_title
;
Structure prediction by ZEFSAII (Michael W. Deem and Ramdas Pophale) SiO2 
 PCOD9477464
Probable space group: C M C A
;
_chemical_formula_sum "Si O2"
_cell_formula_units_Z 96
_cell_length_a 21.087075
_cell_length_b 9.174675
_cell_length_c 22.403263
_cell_angle_alpha 90.000000
_cell_angle_beta 90.000000
_cell_angle_gamma 90.000000
_cell_volume 4334.293423
_symmetry_space_group_name_H-M "C M C A"
_symmetry_group_IT_number 64
_symmetry_cell_setting 'orthorhombic'
loop_
_space_group_symop_operation_xyz
x,y,z
-x,1/2-y,1/2+z
x,-y,-z
-x,1/2+y,1/2-z
-x,-y,-z
x,1/2+y,1/2-z
-x,y,z
x,1/2-y,1/2+z
1/2+x,1/2+y,z
1/2-x,-y,1/2+z
1/2+x,1/2-y,-z
1/2-x,y,1/2-z
1/2-x,1/2-y,-z
1/2+x,y,1/2-z
1/2-x,1/2+y,z
1/2+x,-y,1/2+z
loop_
_atom_site_type_symbol
_atom_site_label
_atom_site_fract_x
_atom_site_fract_y
_atom_site_fract_z
Si Si1 0.183584 0.615787 0.614305
Si Si2 0.427198 0.101987 0.942230
Si Si3 0.811087 0.038133 0.374256
Si Si4 0.648850 0.436841 0.252371
Si Si5 0.928929 0.423640 0.576934
Si Si6 0.068854 0.675382 0.285822
O O1 0.186635 0.790626 0.610979
O O2 0.249916 0.540186 0.597621
O O3 0.172147 0.576072 0.684490
O O4 0.125986 0.543713 0.577124
O O5 0.500000 0.093683 0.919141
O O6 0.415732 0.272429 0.957486
O O7 0.374768 0.041557 0.896945
O O8 0.423325 0.000000 0.000000
O O9 0.808394 0.010818 0.302809
O O10 0.628140 0.278294 0.273625
O O11 0.584411 0.530542 0.250551
O O12 0.931245 0.366296 0.645104
O O13 0.000000 0.479340 0.563608
O O14 0.000000 0.734491 0.269023
#
# Coordination Sequence:
#
# PCOD9477464 Si02
#       6
#    16  16  16  16  16  16
#     4  11  25  39  60  92 126 170 209 251 306 373
#     4  10  22  43  71  97 121 157 205 260 320 374
#     4  12  24  40  61  88 126 165 211 258 305 368
#     4  11  21  35  55  86 124 168 206 248 298 367
#     4   9  19  39  62  87 124 160 198 254 310 363
#     4  10  19  32  52  84 122 160 201 247 300 359
#
# _framework density 22.148938999999999
#
# number of rings (size 3 to 8) (size 9 to 14) (size 15 to 20)
#    0.000    1.500    3.333    2.000    2.333    3.333 
#    0.000    4.167    0.000    3.000    0.000    0.000 
#    0.000    0.000    0.000    0.000    0.000    0.000 
#
# Total GULP energy -268055.518144 kJ/mol
# GULP energy per Si atom -5584.489961 kJ/mol
# Density = 2.209853 g / cm^3
# Si number density = 22.148939 Si / 1000 Ang^3
#
#
#
# Elastic Constant Matrix: (Units=GPa)
#
#
# Indices 1 2 3 4 5 6 
#
# 1 142.3612 81.8112 32.7154 0.0000 0.0000 0.0000
# 2 81.8112 125.7144 17.9197 0.0000 0.0000 0.0000
# 3 32.7154 17.9197 49.0066 0.0000 0.0000 0.0000
# 4 0.0000 0.0000 0.0000 35.1902 0.0000 0.0000
# 5 0.0000 0.0000 0.0000 0.0000 -4.8994 0.0000
# 6 0.0000 0.0000 0.0000 0.0000 0.0000 -2.7356
#
#
#
# Elastic Compliance Matrix: (Units=1/GPa)
#
#
# Indices 1 2 3 4 5 6 
#
# 1 0.012566 -0.007366 -0.005695 0.000000 0.000000 0.000000
# 2 -0.007366 0.012710 0.000270 0.000000 0.000000 0.000000
# 3 -0.005695 0.000270 0.024109 0.000000 0.000000 0.000000
# 4 0.000000 0.000000 0.000000 0.028417 0.000000 0.000000
# 5 0.000000 0.000000 0.000000 0.000000 -0.204107 0.000000
# 6 0.000000 0.000000 0.000000 0.000000 0.000000 -0.365546
#
#
# Mechanical properties :
#
#
# Convention : Reuss Voigt Hill
#
# Bulk Modulus (GPa) = 42.01371 64.66385 53.33878
# Shear Modulus (GPa) = -10.90908 17.82009 3.45551
#
# Velocity S-wave (km/s) = -2.22172 2.83955 1.25040
# Velocity P-wave (km/s) = 3.52541 6.32528 5.12043
#
# Compressibility (1/GPa) = 0.02380176
#
# Stress axis : x y z
#
# Youngs Moduli (GPa) = 79.57865 78.68104 41.47852
#
# Poissons Ratio (x) = 0.57955 0.23624
# Poissons Ratio (y) = 0.58616 -0.01119
# Poissons Ratio (z) = 0.45323 -0.02123
#
# Static dielectric constant tensor:
#      x y z
#    x 1.807720 0.000000 0.000000 
#    y 0.000000 1.794580 0.000000 
#    z 0.000000 0.000000 1.837440 
# 
# From -- ./inp_files/50691.got.cif
#   From: 2010.05.17/outbox.cif.g08.bks.cpg/sg64_26_cif.got.tgz:50691.got - 2010.06.03 16:29:19.
