data_PCOD9477727
_publ_section_title
;
Structure prediction by ZEFSAII (Michael W. Deem and Ramdas Pophale) SiO2 
 PCOD9477727
Probable space group: C M C A
;
_chemical_formula_sum "Si O2"
_cell_formula_units_Z 96
_cell_length_a 28.817187
_cell_length_b 9.940587
_cell_length_c 18.458734
_cell_angle_alpha 90.000000
_cell_angle_beta 90.000000
_cell_angle_gamma 90.000000
_cell_volume 5287.684409
_symmetry_space_group_name_H-M "C M C A"
_symmetry_group_IT_number 64
_symmetry_cell_setting 'orthorhombic'
loop_
_space_group_symop_operation_xyz
x,y,z
-x,1/2-y,1/2+z
x,-y,-z
-x,1/2+y,1/2-z
-x,-y,-z
x,1/2+y,1/2-z
-x,y,z
x,1/2-y,1/2+z
1/2+x,1/2+y,z
1/2-x,-y,1/2+z
1/2+x,1/2-y,-z
1/2-x,y,1/2-z
1/2-x,1/2-y,-z
1/2+x,y,1/2-z
1/2-x,1/2+y,z
1/2+x,-y,1/2+z
loop_
_atom_site_type_symbol
_atom_site_label
_atom_site_fract_x
_atom_site_fract_y
_atom_site_fract_z
Si Si1 0.914668 0.458300 0.219152
Si Si2 0.638987 0.979054 0.918194
Si Si3 0.643443 0.538666 0.150428
Si Si4 0.704400 0.762794 0.098488
Si Si5 0.191325 0.800947 0.068397
Si Si6 0.051241 0.166273 0.174598
O O1 0.900644 0.513891 0.141320
O O2 0.869850 0.470011 0.272750
O O3 0.949198 0.557082 0.260877
O O4 0.933656 0.308994 0.208002
O O5 0.665661 0.838480 0.914991
O O6 0.674492 0.101177 0.902239
O O7 0.621637 0.000000 0.000000
O O8 0.681981 0.655694 0.153331
O O9 0.661212 0.424503 0.096816
O O10 0.595006 0.612492 0.127399
O O11 0.758301 0.797797 0.106247
O O12 0.699299 0.696249 0.018247
O O13 0.000000 0.174809 0.141190
#
# Coordination Sequence:
#
# PCOD9477727 Si02
#       6
#    16  16  16  16  16  16
#     4  10  20  37  57  85 112 145 194 239 296 346
#     4  10  19  34  54  80 112 154 192 232 284 343
#     4  10  21  35  57  85 115 145 195 246 287 332
#     4  10  19  36  54  84 115 157 196 230 278 341
#     4  10  20  33  58  82 116 156 196 228 278 349
#     4  10  21  37  63  84 109 148 193 243 296 352
#
# _framework density 18.155396
#
# number of rings (size 3 to 8) (size 9 to 14) (size 15 to 20)
#    1.000    1.000    1.667    3.000    0.000    2.667 
#    0.000    5.000    0.000    4.000    0.000    0.000 
#    0.000    0.000    0.000    0.000    0.000    0.000 
#
# Total GULP energy -267334.349624 kJ/mol
# GULP energy per Si atom -5569.465617 kJ/mol
# Density = 1.811407 g / cm^3
# Si number density = 18.155396 Si / 1000 Ang^3
#
#
#
# Elastic Constant Matrix: (Units=GPa)
#
#
# Indices 1 2 3 4 5 6 
#
# 1 89.6118 24.0400 18.9026 0.0000 0.0000 0.0000
# 2 24.0400 72.1859 22.2436 0.0000 0.0000 0.0000
# 3 18.9026 22.2436 21.9236 0.0000 0.0000 0.0000
# 4 0.0000 0.0000 0.0000 26.6390 0.0000 0.0000
# 5 0.0000 0.0000 0.0000 0.0000 18.4241 0.0000
# 6 0.0000 0.0000 0.0000 0.0000 0.0000 -570.7517
#
#
#
# Elastic Compliance Matrix: (Units=1/GPa)
#
#
# Indices 1 2 3 4 5 6 
#
# 1 0.013729 -0.001345 -0.010473 0.000000 0.000000 0.000000
# 2 -0.001345 0.020286 -0.019422 0.000000 0.000000 0.000000
# 3 -0.010473 -0.019422 0.074348 0.000000 0.000000 0.000000
# 4 0.000000 0.000000 0.000000 0.037539 0.000000 0.000000
# 5 0.000000 0.000000 0.000000 0.000000 0.054277 0.000000
# 6 0.000000 0.000000 0.000000 0.000000 0.000000 -0.001752
#
#
# Mechanical properties :
#
#
# Convention : Reuss Voigt Hill
#
# Bulk Modulus (GPa) = 21.79435 34.89930 28.34682
# Shear Modulus (GPa) = 18.10269 -97.23540 -39.56636
#
# Velocity S-wave (km/s) = 3.16111 -7.32622 -4.67338
# Velocity P-wave (km/s) = 5.03526 7.23191 3.67060
#
# Compressibility (1/GPa) = 0.04588346
#
# Stress axis : x y z
#
# Youngs Moduli (GPa) = 72.83756 49.29514 13.45018
#
# Poissons Ratio (x) = 0.06631 0.14086
# Poissons Ratio (y) = 0.09798 0.26123
# Poissons Ratio (z) = 0.76280 0.95743
#
# Static dielectric constant tensor:
#      x y z
#    x 1.612620 0.000000 0.000000 
#    y 0.000000 1.617950 0.000000 
#    z 0.000000 0.000000 1.631610 
# 
# From -- ./inp_files/34965.got.cif
#   From: 2010.05.17/outbox.cif.g08.bks.cpg/sg64_18_cif.got.tgz:34965.got - 2010.06.03 16:29:19.
