data_PCOD9477391
_publ_section_title
;
Structure prediction by ZEFSAII (Michael W. Deem and Ramdas Pophale) SiO2 
 PCOD9477391
Probable space group: C M C A
;
_chemical_formula_sum "Si O2"
_cell_formula_units_Z 96
_cell_length_a 17.523456
_cell_length_b 14.976934
_cell_length_c 13.296547
_cell_angle_alpha 90.000000
_cell_angle_beta 90.000000
_cell_angle_gamma 90.000000
_cell_volume 3489.647433
_symmetry_space_group_name_H-M "C M C A"
_symmetry_group_IT_number 64
_symmetry_cell_setting 'orthorhombic'
loop_
_space_group_symop_operation_xyz
x,y,z
-x,1/2-y,1/2+z
x,-y,-z
-x,1/2+y,1/2-z
-x,-y,-z
x,1/2+y,1/2-z
-x,y,z
x,1/2-y,1/2+z
1/2+x,1/2+y,z
1/2-x,-y,1/2+z
1/2+x,1/2-y,-z
1/2-x,y,1/2-z
1/2-x,1/2-y,-z
1/2+x,y,1/2-z
1/2-x,1/2+y,z
1/2+x,-y,1/2+z
loop_
_atom_site_type_symbol
_atom_site_label
_atom_site_fract_x
_atom_site_fract_y
_atom_site_fract_z
Si Si1 0.918050 0.773194 0.334048
Si Si2 0.755528 0.826362 0.365279
Si Si3 0.919170 0.559572 0.312491
Si Si4 0.584867 0.784023 0.399623
Si Si5 0.260382 0.466764 0.860730
Si Si6 0.390449 0.924379 0.919978
O O1 0.841067 0.795006 0.393216
O O2 0.920156 0.666380 0.323330
O O3 0.915545 0.807737 0.219549
O O4 0.000000 0.804112 0.376208
O O5 0.750000 0.788665 0.250000
O O6 0.674552 0.809753 0.421735
O O7 0.764972 0.931960 0.355043
O O8 0.849192 0.530183 0.380012
O O9 0.906544 0.539504 0.193730
O O10 0.000000 0.521754 0.343462
O O11 0.500000 0.817142 0.438816
O O12 0.580817 0.676721 0.415230
O O13 0.250000 0.424547 0.750000
O O14 0.201766 0.416299 0.930443
O O15 0.414913 0.000000 0.000000
#
# Coordination Sequence:
#
# PCOD9477391 Si02
#       6
#    16  16  16  16  16  16
#     4   8  14  26  45  68  92 121 158 197 239 286
#     4   9  16  28  46  68  98 128 157 201 247 293
#     4   9  17  30  51  76  98 123 161 208 249 289
#     4   9  17  28  44  66  91 124 161 192 233 292
#     4   9  18  31  47  72 100 126 160 202 249 292
#     4  10  19  32  49  71  99 132 166 201 244 296
#
# _framework density 27.509941999999999
#
# number of rings (size 3 to 8) (size 9 to 14) (size 15 to 20)
#    0.000    3.000    0.000    2.500    0.000    6.000 
#    0.000   10.000    0.000    0.500    0.000    2.333 
#    0.000    0.000    0.000    0.000    0.000    0.000 
#
# Total GULP energy -268005.947973 kJ/mol
# GULP energy per Si atom -5583.457249 kJ/mol
# Density = 2.744733 g / cm^3
# Si number density = 27.509942 Si / 1000 Ang^3
#
#
#
# Elastic Constant Matrix: (Units=GPa)
#
#
# Indices 1 2 3 4 5 6 
#
# 1 311.4597 46.7850 44.5908 0.0000 0.0000 0.0000
# 2 46.7850 82.7003 -4.4905 0.0000 0.0000 0.0000
# 3 44.5908 -4.4905 84.5592 0.0000 0.0000 0.0000
# 4 0.0000 0.0000 0.0000 18.3969 0.0000 0.0000
# 5 0.0000 0.0000 0.0000 0.0000 -6.6891 0.0000
# 6 0.0000 0.0000 0.0000 0.0000 0.0000 20.5885
#
#
#
# Elastic Compliance Matrix: (Units=1/GPa)
#
#
# Indices 1 2 3 4 5 6 
#
# 1 0.003866 -0.002305 -0.002161 0.000000 0.000000 0.000000
# 2 -0.002305 0.013500 0.001932 0.000000 0.000000 0.000000
# 3 -0.002161 0.001932 0.013068 0.000000 0.000000 0.000000
# 4 0.000000 0.000000 0.000000 0.054357 0.000000 0.000000
# 5 0.000000 0.000000 0.000000 0.000000 -0.149497 0.000000
# 6 0.000000 0.000000 0.000000 0.000000 0.000000 0.048571
#
#
# Mechanical properties :
#
#
# Convention : Reuss Voigt Hill
#
# Bulk Modulus (GPa) = 39.41979 72.49887 55.95933
# Shear Modulus (GPa) = -1915.02521 32.58153 -941.22184
#
# Velocity S-wave (km/s) = -26.41273 3.44518 -18.51706
# Velocity P-wave (km/s) = 30.26245 6.49897 20.89952
#
# Compressibility (1/GPa) = 0.02536797
#
# Stress axis : x y z
#
# Youngs Moduli (GPa) = 258.64707 74.07138 76.52102
#
# Poissons Ratio (x) = 0.17070 0.16538
# Poissons Ratio (y) = 0.59607 -0.14785
# Poissons Ratio (z) = 0.55899 -0.14312
#
# Static dielectric constant tensor:
#      x y z
#    x 2.252010 0.000000 0.000000 
#    y 0.000000 2.053920 0.000000 
#    z 0.000000 0.000000 2.195010 
# 
# From -- ./inp_files/33332.got.cif
#   From: 2010.05.17/outbox.cif.g08.bks.cpg/sg64_17_cif.got.tgz:33332.got - 2010.06.03 16:29:19.
