data_PCOD9477528
_publ_section_title
;
Structure prediction by ZEFSAII (Michael W. Deem and Ramdas Pophale) SiO2 
 PCOD9477528
Probable space group: C M C A
;
_chemical_formula_sum "Si O2"
_cell_formula_units_Z 120
_cell_length_a 20.143725
_cell_length_b 20.543956
_cell_length_c 15.272648
_cell_angle_alpha 90.000000
_cell_angle_beta 90.000000
_cell_angle_gamma 90.000000
_cell_volume 6320.307414
_symmetry_space_group_name_H-M "C M C A"
_symmetry_group_IT_number 64
_symmetry_cell_setting 'orthorhombic'
loop_
_space_group_symop_operation_xyz
x,y,z
-x,1/2-y,1/2+z
x,-y,-z
-x,1/2+y,1/2-z
-x,-y,-z
x,1/2+y,1/2-z
-x,y,z
x,1/2-y,1/2+z
1/2+x,1/2+y,z
1/2-x,-y,1/2+z
1/2+x,1/2-y,-z
1/2-x,y,1/2-z
1/2-x,1/2-y,-z
1/2+x,y,1/2-z
1/2-x,1/2+y,z
1/2+x,-y,1/2+z
loop_
_atom_site_type_symbol
_atom_site_label
_atom_site_fract_x
_atom_site_fract_y
_atom_site_fract_z
Si Si1 0.075602 0.524695 0.094200
Si Si2 0.424153 0.307466 0.194104
Si Si3 0.135754 0.589428 0.815717
Si Si4 0.679080 0.292270 0.427820
Si Si5 0.650066 0.391048 0.736678
Si Si6 0.750000 0.999658 0.750000
Si Si7 0.693615 0.727388 0.374923
Si Si8 0.573789 0.203744 0.354030
O O1 0.079877 0.460917 0.154647
O O2 0.115346 0.577844 0.150438
O O3 0.000000 0.546848 0.080389
O O4 0.102588 0.500000 0.000000
O O5 0.500000 0.317798 0.163534
O O6 0.388188 0.372538 0.229273
O O7 0.373509 0.269615 0.131445
O O8 0.428464 0.258838 0.277835
O O9 0.146079 0.643560 0.889515
O O10 0.203814 0.548153 0.806124
O O11 0.699442 0.302017 0.527865
O O12 0.742140 0.273306 0.367856
O O13 0.628181 0.232034 0.419920
O O14 0.694878 0.446894 0.781860
O O15 0.689162 0.329241 0.696747
O O16 0.598579 0.361238 0.805730
O O17 0.500000 0.196794 0.390848
#
# Coordination Sequence:
#
# PCOD9477528 Si02
#       8
#    16  16  16  16  16   8  16  16
#     4  10  20  32  48  72 101 133 166 201 245 296
#     4   9  18  32  51  74 100 132 168 208 259 317
#     4  10  19  33  50  72 102 133 169 209 250 299
#     4  10  20  33  51  75 101 129 163 209 263 311
#     4  10  19  33  50  72 102 133 169 209 250 299
#     4  10  20  30  50  74  96 136 180 210 244 298
#     4  10  20  33  51  75 101 129 163 209 263 311
#     4   9  18  32  51  74 100 132 168 208 259 317
#
# _framework density 18.986419000000001
#
# number of rings (size 3 to 8) (size 9 to 14) (size 15 to 20)
#    0.000    2.267    0.000    3.200    0.000    5.333 
#    0.000    0.000    0.000    1.600    0.000    2.800 
#    0.000   13.867    0.000    0.000    0.000    0.000 
#
# Total GULP energy -334115.919140 kJ/mol
# GULP energy per Si atom -5568.598652 kJ/mol
# Density = 1.894321 g / cm^3
# Si number density = 18.986419 Si / 1000 Ang^3
#
#
#
# Elastic Constant Matrix: (Units=GPa)
#
#
# Indices 1 2 3 4 5 6 
#
# 1 90.2557 21.5778 10.0914 0.0000 0.0000 0.0000
# 2 21.5778 71.8599 8.8621 0.0000 0.0000 0.0000
# 3 10.0914 8.8621 25.9079 0.0000 0.0000 0.0000
# 4 0.0000 0.0000 0.0000 20.1940 0.0000 0.0000
# 5 0.0000 0.0000 0.0000 0.0000 15.7599 0.0000
# 6 0.0000 0.0000 0.0000 0.0000 0.0000 19.6690
#
#
#
# Elastic Compliance Matrix: (Units=1/GPa)
#
#
# Indices 1 2 3 4 5 6 
#
# 1 0.012262 -0.003229 -0.003672 0.000000 0.000000 0.000000
# 2 -0.003229 0.015379 -0.004003 0.000000 0.000000 0.000000
# 3 -0.003672 -0.004003 0.041398 0.000000 0.000000 0.000000
# 4 0.000000 0.000000 0.000000 0.049520 0.000000 0.000000
# 5 0.000000 0.000000 0.000000 0.000000 0.063452 0.000000
# 6 0.000000 0.000000 0.000000 0.000000 0.000000 0.050841
#
#
# Mechanical properties :
#
#
# Convention : Reuss Voigt Hill
#
# Bulk Modulus (GPa) = 21.17224 29.89843 25.53534
# Shear Modulus (GPa) = 18.49088 20.95740 19.72414
#
# Velocity S-wave (km/s) = 3.12412 3.32597 3.22662
# Velocity P-wave (km/s) = 4.91823 5.52548 5.23067
#
# Compressibility (1/GPa) = 0.04723166
#
# Stress axis : x y z
#
# Youngs Moduli (GPa) = 81.55155 65.02258 24.15600
#
# Poissons Ratio (x) = 0.20997 0.08869
# Poissons Ratio (y) = 0.26335 0.09669
# Poissons Ratio (z) = 0.29943 0.26027
#
# Static dielectric constant tensor:
#      x y z
#    x 1.713600 0.000000 0.000000 
#    y 0.000000 1.655130 0.000000 
#    z 0.000000 0.000000 1.649230 
# 
# From -- ./inp_files/33686.got.cif
#   From: 2010.05.17/outbox.cif.g08.bks.cpg/sg64_17_cif.got.tgz:33686.got - 2010.06.03 16:29:19.
