data_PCOD9477072
_publ_section_title
;
Structure prediction by ZEFSAII (Michael W. Deem and Ramdas Pophale) SiO2 
 PCOD9477072
Probable space group: C M C A
;
_chemical_formula_sum "Si O2"
_cell_formula_units_Z 96
_cell_length_a 15.706156
_cell_length_b 19.684758
_cell_length_c 17.469697
_cell_angle_alpha 90.000000
_cell_angle_beta 90.000000
_cell_angle_gamma 90.000000
_cell_volume 5401.139064
_symmetry_space_group_name_H-M "C M C A"
_symmetry_group_IT_number 64
_symmetry_cell_setting 'orthorhombic'
loop_
_space_group_symop_operation_xyz
x,y,z
-x,1/2-y,1/2+z
x,-y,-z
-x,1/2+y,1/2-z
-x,-y,-z
x,1/2+y,1/2-z
-x,y,z
x,1/2-y,1/2+z
1/2+x,1/2+y,z
1/2-x,-y,1/2+z
1/2+x,1/2-y,-z
1/2-x,y,1/2-z
1/2-x,1/2-y,-z
1/2+x,y,1/2-z
1/2-x,1/2+y,z
1/2+x,-y,1/2+z
loop_
_atom_site_type_symbol
_atom_site_label
_atom_site_fract_x
_atom_site_fract_y
_atom_site_fract_z
Si Si1 0.400728 0.218959 0.816011
Si Si2 0.757192 0.425039 0.492852
Si Si3 0.292146 0.790391 0.568103
Si Si4 0.328327 0.331342 0.702075
Si Si5 0.901299 0.449078 0.894362
Si Si6 0.805049 0.922114 0.324723
O O1 0.500000 0.206425 0.813420
O O2 0.371974 0.251607 0.896735
O O3 0.374237 0.275660 0.753934
O O4 0.352031 0.148130 0.804931
O O5 0.795916 0.500000 0.500000
O O6 0.806561 0.366858 0.538649
O O7 0.664260 0.431742 0.535746
O O8 0.747659 0.408474 0.403250
O O9 0.250000 0.750000 0.500000
O O10 0.221441 0.793639 0.634381
O O11 0.250000 0.364301 0.750000
O O12 0.388474 0.387753 0.665754
O O13 0.867711 0.517321 0.852454
O O14 0.000000 0.454686 0.917426
O O15 0.750000 0.941953 0.250000
#
# Coordination Sequence:
#
# PCOD9477072 Si02
#       6
#    16  16  16  16  16  16
#     4  11  22  35  55  83 113 144 183 239 284 323
#     4   9  20  35  55  82 108 144 185 230 272 333
#     4  10  18  35  57  77 104 147 186 219 271 339
#     4   9  19  35  54  76 106 144 188 223 271 337
#     4  10  20  35  56  84 113 142 182 237 287 328
#     4  11  21  35  56  79 113 150 186 222 279 342
#
# _framework density 17.774028999999999
#
# number of rings (size 3 to 8) (size 9 to 14) (size 15 to 20)
#    0.000    2.000    1.667    3.000    0.000    5.000 
#    0.000    0.833    0.000    0.500    0.000    0.000 
#    0.000    0.000    0.000    0.000    0.000    0.000 
#
# Total GULP energy -267601.378978 kJ/mol
# GULP energy per Si atom -5575.028729 kJ/mol
# Density = 1.773357 g / cm^3
# Si number density = 17.774029 Si / 1000 Ang^3
#
#
#
# Elastic Constant Matrix: (Units=GPa)
#
#
# Indices 1 2 3 4 5 6 
#
# 1 35.8704 6.0693 11.0930 0.0000 0.0000 0.0000
# 2 6.0693 69.4209 13.7064 0.0000 0.0000 0.0000
# 3 11.0930 13.7064 98.3856 0.0000 0.0000 0.0000
# 4 0.0000 0.0000 0.0000 32.8737 0.0000 0.0000
# 5 0.0000 0.0000 0.0000 0.0000 11.2615 0.0000
# 6 0.0000 0.0000 0.0000 0.0000 0.0000 18.7306
#
#
#
# Elastic Compliance Matrix: (Units=1/GPa)
#
#
# Indices 1 2 3 4 5 6 
#
# 1 0.029141 -0.001953 -0.003014 0.000000 0.000000 0.000000
# 2 -0.001953 0.014943 -0.001862 0.000000 0.000000 0.000000
# 3 -0.003014 -0.001862 0.010763 0.000000 0.000000 0.000000
# 4 0.000000 0.000000 0.000000 0.030419 0.000000 0.000000
# 5 0.000000 0.000000 0.000000 0.000000 0.088798 0.000000
# 6 0.000000 0.000000 0.000000 0.000000 0.000000 0.053388
#
#
# Mechanical properties :
#
#
# Convention : Reuss Voigt Hill
#
# Bulk Modulus (GPa) = 24.27705 29.49046 26.88375
# Shear Modulus (GPa) = 19.62025 24.09373 21.85699
#
# Velocity S-wave (km/s) = 3.32606 3.68578 3.51053
# Velocity P-wave (km/s) = 5.33279 5.89417 5.62049
#
# Compressibility (1/GPa) = 0.04119117
#
# Stress axis : x y z
#
# Youngs Moduli (GPa) = 34.31648 66.92023 92.90910
#
# Poissons Ratio (x) = 0.13067 0.27999
# Poissons Ratio (y) = 0.06701 0.17296
# Poissons Ratio (z) = 0.10341 0.12458
#
# Static dielectric constant tensor:
#      x y z
#    x 1.595270 0.000000 0.000000 
#    y 0.000000 1.626990 0.000000 
#    z 0.000000 0.000000 1.650470 
# 
# From -- ./inp_files/33502.got.cif
#   From: 2010.05.17/outbox.cif.g08.bks.cpg/sg64_17_cif.got.tgz:33502.got - 2010.06.03 16:29:19.
