data_PCOD9477900
_publ_section_title
;
Structure prediction by ZEFSAII (Michael W. Deem and Ramdas Pophale) SiO2 
 PCOD9477900
Probable space group: C M C A
;
_chemical_formula_sum "Si O2"
_cell_formula_units_Z 128
_cell_length_a 22.672431
_cell_length_b 11.115223
_cell_length_c 25.368383
_cell_angle_alpha 90.000000
_cell_angle_beta 90.000000
_cell_angle_gamma 90.000000
_cell_volume 6393.064041
_symmetry_space_group_name_H-M "C M C A"
_symmetry_group_IT_number 64
_symmetry_cell_setting 'orthorhombic'
loop_
_space_group_symop_operation_xyz
x,y,z
-x,1/2-y,1/2+z
x,-y,-z
-x,1/2+y,1/2-z
-x,-y,-z
x,1/2+y,1/2-z
-x,y,z
x,1/2-y,1/2+z
1/2+x,1/2+y,z
1/2-x,-y,1/2+z
1/2+x,1/2-y,-z
1/2-x,y,1/2-z
1/2-x,1/2-y,-z
1/2+x,y,1/2-z
1/2-x,1/2+y,z
1/2+x,-y,1/2+z
loop_
_atom_site_type_symbol
_atom_site_label
_atom_site_fract_x
_atom_site_fract_y
_atom_site_fract_z
Si Si1 0.929060 0.957599 0.438636
Si Si2 0.841900 0.881894 0.620654
Si Si3 0.064371 0.980820 0.063200
Si Si4 0.358562 0.792074 0.575601
Si Si5 0.178938 0.215240 0.263449
Si Si6 0.276854 0.017978 0.386118
Si Si7 0.684207 0.468211 0.225195
Si Si8 0.170721 0.173972 0.954472
O O1 0.891891 0.835999 0.424616
O O2 0.000000 0.940336 0.432998
O O3 0.918759 0.000000 0.500000
O O4 0.902260 0.059979 0.400081
O O5 0.837303 0.813179 0.675925
O O6 0.791942 0.983362 0.625797
O O7 0.816567 0.796689 0.574705
O O8 0.092972 0.102856 0.084292
O O9 0.000000 0.958776 0.084743
O O10 0.107383 0.868605 0.068364
O O11 0.061150 0.000000 0.000000
O O12 0.304775 0.846877 0.610592
O O13 0.333935 0.806775 0.516206
O O14 0.250000 0.221218 0.250000
O O15 0.155980 0.348482 0.250705
O O16 0.155247 0.097388 0.234222
O O17 0.308014 0.953359 0.337078
O O18 0.288825 0.937966 0.437622
O O19 0.750000 0.477631 0.250000
#
# Coordination Sequence:
#
# PCOD9477900 Si02
#       8
#    16  16  16  16  16  16  16  16
#     4  11  25  42  60  87 127 179 228 261 304 369
#     4  12  23  37  60  87 125 169 205 259 317 386
#     4   8  15  30  55  77 101 145 202 258 293 330
#     4  10  21  38  56  83 123 167 211 251 305 377
#     4  10  20  36  60  88 120 153 202 256 324 392
#     4  11  22  35  59  89 129 158 207 256 322 399
#     4  10  19  35  57  88 125 156 199 256 317 396
#     4  10  21  36  50  86 122 161 205 249 310 370
#
# _framework density 20.021699000000002
#
# number of rings (size 3 to 8) (size 9 to 14) (size 15 to 20)
#    0.000    1.750    5.000    1.500    1.750    3.500 
#    0.000    0.000    0.000    0.000    0.000    7.000 
#    0.000    0.000    0.000    0.000    0.000    0.000 
#
# Total GULP energy -356300.799849 kJ/mol
# GULP energy per Si atom -5567.199998 kJ/mol
# Density = 1.997613 g / cm^3
# Si number density = 20.021699 Si / 1000 Ang^3
#
#
#
# Elastic Constant Matrix: (Units=GPa)
#
#
# Indices 1 2 3 4 5 6 
#
# 1 50.9660 9.8227 3.0255 0.0000 0.0000 0.0000
# 2 9.8227 109.8581 8.0221 0.0000 0.0000 0.0000
# 3 3.0255 8.0221 58.4635 0.0000 0.0000 0.0000
# 4 0.0000 0.0000 0.0000 2.0090 0.0000 0.0000
# 5 0.0000 0.0000 0.0000 0.0000 9.3031 0.0000
# 6 0.0000 0.0000 0.0000 0.0000 0.0000 1.0683
#
#
#
# Elastic Compliance Matrix: (Units=1/GPa)
#
#
# Indices 1 2 3 4 5 6 
#
# 1 0.020002 -0.001730 -0.000798 0.000000 0.000000 0.000000
# 2 -0.001730 0.009344 -0.001193 0.000000 0.000000 0.000000
# 3 -0.000798 -0.001193 0.017310 0.000000 0.000000 0.000000
# 4 0.000000 0.000000 0.000000 0.497751 0.000000 0.000000
# 5 0.000000 0.000000 0.000000 0.000000 0.107491 0.000000
# 6 0.000000 0.000000 0.000000 0.000000 0.000000 0.936084
#
#
# Mechanical properties :
#
#
# Convention : Reuss Voigt Hill
#
# Bulk Modulus (GPa) = 25.50060 29.00313 27.25187
# Shear Modulus (GPa) = 3.10850 15.70391 9.40620
#
# Velocity S-wave (km/s) = 1.24737 2.80365 2.16984
# Velocity P-wave (km/s) = 3.85210 4.99979 4.46299
#
# Compressibility (1/GPa) = 0.03921476
#
# Stress axis : x y z
#
# Youngs Moduli (GPa) = 49.99566 107.01552 57.77134
#
# Poissons Ratio (x) = 0.18515 0.04608
# Poissons Ratio (y) = 0.08650 0.06890
# Poissons Ratio (z) = 0.03988 0.12763
#
# Static dielectric constant tensor:
#      x y z
#    x 1.728880 0.000000 0.000000 
#    y 0.000000 1.770380 0.000000 
#    z 0.000000 0.000000 1.873110 
# 
# From -- ./inp_files/46752.got.cif
#   From: 2010.05.17/outbox.cif.g08.bks.cpg/sg64_24_cif.got.tgz:46752.got - 2010.06.03 16:29:19.
