data_PCOD9477387
_publ_section_title
;
Structure prediction by ZEFSAII (Michael W. Deem and Ramdas Pophale) SiO2 
 PCOD9477387
Probable space group: C M C A
;
_chemical_formula_sum "Si O2"
_cell_formula_units_Z 96
_cell_length_a 8.859209
_cell_length_b 24.469655
_cell_length_c 26.493855
_cell_angle_alpha 90.000000
_cell_angle_beta 90.000000
_cell_angle_gamma 90.000000
_cell_volume 5743.385253
_symmetry_space_group_name_H-M "C M C A"
_symmetry_group_IT_number 64
_symmetry_cell_setting 'orthorhombic'
loop_
_space_group_symop_operation_xyz
x,y,z
-x,1/2-y,1/2+z
x,-y,-z
-x,1/2+y,1/2-z
-x,-y,-z
x,1/2+y,1/2-z
-x,y,z
x,1/2-y,1/2+z
1/2+x,1/2+y,z
1/2-x,-y,1/2+z
1/2+x,1/2-y,-z
1/2-x,y,1/2-z
1/2-x,1/2-y,-z
1/2+x,y,1/2-z
1/2-x,1/2+y,z
1/2+x,-y,1/2+z
loop_
_atom_site_type_symbol
_atom_site_label
_atom_site_fract_x
_atom_site_fract_y
_atom_site_fract_z
Si Si1 0.325346 0.915430 0.618746
Si Si2 0.318331 0.832578 0.805521
Si Si3 0.319233 0.258370 0.114793
Si Si4 0.182834 0.867765 0.071228
Si Si5 0.326463 0.818938 0.536356
Si Si6 0.318919 0.986074 0.058134
O O1 0.500000 0.926173 0.631765
O O2 0.240364 0.886097 0.664866
O O3 0.322856 0.870517 0.574051
O O4 0.247279 0.968787 0.595973
O O5 0.500000 0.833119 0.803733
O O6 0.250000 0.830024 0.750000
O O7 0.267757 0.779802 0.838914
O O8 0.500000 0.258256 0.115681
O O9 0.271769 0.321677 0.112085
O O10 0.268025 0.227780 0.063753
O O11 0.258269 0.926628 0.073629
O O12 0.000000 0.874121 0.071872
O O13 0.225578 0.840997 0.017401
O O14 0.500000 0.800405 0.531456
O O15 0.500000 0.987157 0.059585
O O16 0.272120 0.000000 0.000000
#
# Coordination Sequence:
#
# PCOD9477387 Si02
#       6
#    16  16  16  16  16  16
#     4  10  19  33  53  77 104 137 175 217 262 308
#     4  10  20  36  57  81 105 131 168 216 267 315
#     4   9  19  32  49  73 102 132 168 213 259 307
#     4  10  19  32  48  70 102 141 177 210 252 307
#     4   9  17  28  46  71 101 135 171 206 249 306
#     4  11  22  33  48  73 106 144 182 219 257 305
#
# _framework density 16.714881999999999
#
# number of rings (size 3 to 8) (size 9 to 14) (size 15 to 20)
#    0.000    2.167    1.667    2.000    0.000    3.333 
#    0.000    0.000    0.000    1.000    0.000    4.667 
#    0.000    0.000    0.000    0.000    0.000    0.000 
#
# Total GULP energy -267695.057408 kJ/mol
# GULP energy per Si atom -5576.980363 kJ/mol
# Density = 1.667684 g / cm^3
# Si number density = 16.714882 Si / 1000 Ang^3
#
#
#
# Elastic Constant Matrix: (Units=GPa)
#
#
# Indices 1 2 3 4 5 6 
#
# 1 45.6665 48.7870 38.3719 0.0000 0.0000 0.0000
# 2 48.7870 152.4130 58.0807 0.0000 0.0000 0.0000
# 3 38.3719 58.0807 88.6928 0.0000 0.0000 0.0000
# 4 0.0000 0.0000 0.0000 10.2266 0.0000 0.0000
# 5 0.0000 0.0000 0.0000 0.0000 22.5218 0.0000
# 6 0.0000 0.0000 0.0000 0.0000 0.0000 26.3108
#
#
#
# Elastic Compliance Matrix: (Units=1/GPa)
#
#
# Indices 1 2 3 4 5 6 
#
# 1 0.041371 -0.008558 -0.012295 0.000000 0.000000 0.000000
# 2 -0.008558 0.010513 -0.003182 0.000000 0.000000 0.000000
# 3 -0.012295 -0.003182 0.018678 0.000000 0.000000 0.000000
# 4 0.000000 0.000000 0.000000 0.097785 0.000000 0.000000
# 5 0.000000 0.000000 0.000000 0.000000 0.044401 0.000000
# 6 0.000000 0.000000 0.000000 0.000000 0.000000 0.038007
#
#
# Mechanical properties :
#
#
# Convention : Reuss Voigt Hill
#
# Bulk Modulus (GPa) = 44.45827 64.13907 54.29867
# Shear Modulus (GPa) = 16.32271 21.24735 18.78503
#
# Velocity S-wave (km/s) = 3.12835 3.56921 3.35603
# Velocity P-wave (km/s) = 6.30115 7.44590 6.89731
#
# Compressibility (1/GPa) = 0.02249300
#
# Stress axis : x y z
#
# Youngs Moduli (GPa) = 24.17153 95.12041 53.53923
#
# Poissons Ratio (x) = 0.81399 0.65825
# Poissons Ratio (y) = 0.20685 0.17037
# Poissons Ratio (z) = 0.29718 0.30269
#
# Static dielectric constant tensor:
#      x y z
#    x 1.567420 0.000000 0.000000 
#    y 0.000000 1.569960 0.000000 
#    z 0.000000 0.000000 1.549670 
# 
# From -- ./inp_files/43017.got.cif
#   From: 2010.05.17/outbox.cif.g08.bks.cpg/sg64_22_cif.got.tgz:43017.got - 2010.06.03 16:29:19.
