data_PCOD9477410
_publ_section_title
;
Structure prediction by ZEFSAII (Michael W. Deem and Ramdas Pophale) SiO2 
 PCOD9477410
Probable space group: C M C A
;
_chemical_formula_sum "Si O2"
_cell_formula_units_Z 104
_cell_length_a 18.252875
_cell_length_b 26.635185
_cell_length_c 12.130657
_cell_angle_alpha 90.000000
_cell_angle_beta 90.000000
_cell_angle_gamma 90.000000
_cell_volume 5897.545773
_symmetry_space_group_name_H-M "C M C A"
_symmetry_group_IT_number 64
_symmetry_cell_setting 'orthorhombic'
loop_
_space_group_symop_operation_xyz
x,y,z
-x,1/2-y,1/2+z
x,-y,-z
-x,1/2+y,1/2-z
-x,-y,-z
x,1/2+y,1/2-z
-x,y,z
x,1/2-y,1/2+z
1/2+x,1/2+y,z
1/2-x,-y,1/2+z
1/2+x,1/2-y,-z
1/2-x,y,1/2-z
1/2-x,1/2-y,-z
1/2+x,y,1/2-z
1/2-x,1/2+y,z
1/2+x,-y,1/2+z
loop_
_atom_site_type_symbol
_atom_site_label
_atom_site_fract_x
_atom_site_fract_y
_atom_site_fract_z
Si Si1 0.580070 0.134287 0.566612
Si Si2 0.190301 0.821847 0.488114
Si Si3 0.814894 0.500000 0.500000
Si Si4 0.082770 0.440244 0.645053
Si Si5 0.350200 0.784897 0.573702
Si Si6 0.163307 0.356462 0.774355
Si Si7 0.268200 0.408732 0.130748
O O1 0.500000 0.131995 0.619996
O O2 0.579724 0.096202 0.462258
O O3 0.595231 0.188518 0.512201
O O4 0.651276 0.117068 0.633496
O O5 0.269301 0.802060 0.532922
O O6 0.149636 0.774978 0.432341
O O7 0.152343 0.842089 0.598833
O O8 0.210745 0.866099 0.404788
O O9 0.866621 0.514567 0.396806
O O10 0.769891 0.451597 0.462445
O O11 0.119918 0.406058 0.737868
O O12 0.000000 0.455668 0.671807
O O13 0.359876 0.810639 0.693077
O O14 0.250000 0.365000 0.750000
O O15 0.250000 0.429846 0.250000
#
# Coordination Sequence:
#
# PCOD9477410 Si02
#       7
#    16  16   8  16  16  16  16
#     4   8  15  30  50  74 103 130 162 208 252 293
#     4   9  17  29  45  69  99 128 159 197 238 290
#     4  10  19  32  50  74  97 124 172 226 267 302
#     4   9  17  30  50  74  98 124 162 211 260 306
#     4   8  15  26  45  71  96 127 163 191 229 287
#     4   9  16  28  47  70  96 128 158 196 246 292
#     4  10  21  33  50  75 101 131 170 215 263 311
#
# _framework density 17.634454999999999
#
# number of rings (size 3 to 8) (size 9 to 14) (size 15 to 20)
#    0.000    3.077    0.000    3.000    0.000    6.769 
#    0.000    0.769    0.000    5.538    0.000    1.615 
#    0.000    0.000    0.000    0.000    0.000    0.000 
#
# Total GULP energy -289553.130499 kJ/mol
# GULP energy per Si atom -5568.329433 kJ/mol
# Density = 1.759432 g / cm^3
# Si number density = 17.634455 Si / 1000 Ang^3
#
#
#
# Elastic Constant Matrix: (Units=GPa)
#
#
# Indices 1 2 3 4 5 6 
#
# 1 35.6309 7.1258 10.8193 0.0000 0.0000 0.0000
# 2 7.1258 63.1585 -3.3028 0.0000 0.0000 0.0000
# 3 10.8193 -3.3028 42.6650 0.0000 0.0000 0.0000
# 4 0.0000 0.0000 0.0000 15.3216 0.0000 0.0000
# 5 0.0000 0.0000 0.0000 0.0000 13.8810 0.0000
# 6 0.0000 0.0000 0.0000 0.0000 0.0000 9.7585
#
#
#
# Elastic Compliance Matrix: (Units=1/GPa)
#
#
# Indices 1 2 3 4 5 6 
#
# 1 0.031368 -0.003971 -0.008262 0.000000 0.000000 0.000000
# 2 -0.003971 0.016400 0.002277 0.000000 0.000000 0.000000
# 3 -0.008262 0.002277 0.025710 0.000000 0.000000 0.000000
# 4 0.000000 0.000000 0.000000 0.065268 0.000000 0.000000
# 5 0.000000 0.000000 0.000000 0.000000 0.072041 0.000000
# 6 0.000000 0.000000 0.000000 0.000000 0.000000 0.102475
#
#
# Mechanical properties :
#
#
# Convention : Reuss Voigt Hill
#
# Bulk Modulus (GPa) = 18.66876 18.97098 18.81987
# Shear Modulus (GPa) = 14.24380 16.24635 15.24507
#
# Velocity S-wave (km/s) = 2.84513 3.03856 2.94344
# Velocity P-wave (km/s) = 4.62629 4.80538 4.71669
#
# Compressibility (1/GPa) = 0.05356541
#
# Stress axis : x y z
#
# Youngs Moduli (GPa) = 31.87914 60.97454 38.89568
#
# Poissons Ratio (x) = 0.24214 0.32136
# Poissons Ratio (y) = 0.12660 -0.08855
# Poissons Ratio (z) = 0.26339 -0.13882
#
# Static dielectric constant tensor:
#      x y z
#    x 1.618710 0.000000 0.000000 
#    y 0.000000 1.627400 0.000000 
#    z 0.000000 0.000000 1.604350 
# 
# From -- ./inp_files/16434.got.cif
#   From: 2010.05.17/outbox.cif.g08.bks.cpg/sg64_9_cif.got.tgz:16434.got - 2010.06.03 16:29:19.
