data_PCOD9477678
_publ_section_title
;
Structure prediction by ZEFSAII (Michael W. Deem and Ramdas Pophale) SiO2 
 PCOD9477678
Probable space group: C M C A
;
_chemical_formula_sum "Si O2"
_cell_formula_units_Z 80
_cell_length_a 15.023434
_cell_length_b 13.460350
_cell_length_c 18.937664
_cell_angle_alpha 90.000000
_cell_angle_beta 90.000000
_cell_angle_gamma 90.000000
_cell_volume 3829.587289
_symmetry_space_group_name_H-M "C M C A"
_symmetry_group_IT_number 64
_symmetry_cell_setting 'orthorhombic'
loop_
_space_group_symop_operation_xyz
x,y,z
-x,1/2-y,1/2+z
x,-y,-z
-x,1/2+y,1/2-z
-x,-y,-z
x,1/2+y,1/2-z
-x,y,z
x,1/2-y,1/2+z
1/2+x,1/2+y,z
1/2-x,-y,1/2+z
1/2+x,1/2-y,-z
1/2-x,y,1/2-z
1/2-x,1/2-y,-z
1/2+x,y,1/2-z
1/2-x,1/2+y,z
1/2+x,-y,1/2+z
loop_
_atom_site_type_symbol
_atom_site_label
_atom_site_fract_x
_atom_site_fract_y
_atom_site_fract_z
Si Si1 0.391792 0.113975 0.659922
Si Si2 0.899242 0.917447 0.450426
Si Si3 0.890593 0.688550 0.813243
Si Si4 0.893338 0.895342 0.879600
Si Si5 0.849529 0.216567 0.984418
O O1 0.500000 0.112645 0.659870
O O2 0.363194 0.155654 0.735673
O O3 0.363192 0.182437 0.594942
O O4 0.359652 0.001533 0.646169
O O5 0.859398 0.887006 0.374808
O O6 0.903817 0.814470 0.493360
O O7 0.000000 0.953739 0.435653
O O8 0.854245 0.000000 0.500000
O O9 0.861255 0.799211 0.835531
O O10 0.000000 0.688117 0.815992
O O11 0.000000 0.897268 0.871973
O O12 0.873700 0.871110 0.961237
O O13 0.750000 0.250000 0.000000
#
# Coordination Sequence:
#
# PCOD9477678 Si02
#       5
#    16  16  16  16  16
#     4  10  19  33  58  84 104 135 179 225 272 318
#     4   9  18  34  54  73 100 139 178 217 265 320
#     4   8  16  31  52  82 110 131 169 225 274 317
#     4   9  18  35  57  79 106 137 173 221 269 316
#     4  11  22  34  50  74 107 141 177 218 262 319
#
# _framework density 20.889980000000001
#
# number of rings (size 3 to 8) (size 9 to 14) (size 15 to 20)
#    0.000    2.600    0.000    3.600    0.000    4.800 
#    0.000   10.000    0.000    4.800    0.000    0.000 
#    0.000    0.000    0.000    0.000    0.000    0.000 
#
# Total GULP energy -223248.824517 kJ/mol
# GULP energy per Si atom -5581.220613 kJ/mol
# Density = 2.084243 g / cm^3
# Si number density = 20.889980 Si / 1000 Ang^3
#
#
#
# Elastic Constant Matrix: (Units=GPa)
#
#
# Indices 1 2 3 4 5 6 
#
# 1 32.4101 7.0290 0.5976 0.0000 0.0000 0.0000
# 2 7.0290 85.6123 101.6720 0.0000 0.0000 0.0000
# 3 0.5976 101.6720 231.6018 0.0000 0.0000 0.0000
# 4 0.0000 0.0000 0.0000 31.1046 0.0000 0.0000
# 5 0.0000 0.0000 0.0000 0.0000 -12.2045 0.0000
# 6 0.0000 0.0000 0.0000 0.0000 0.0000 5.0590
#
#
#
# Elastic Compliance Matrix: (Units=1/GPa)
#
#
# Indices 1 2 3 4 5 6 
#
# 1 0.031958 -0.005277 0.002234 0.000000 0.000000 0.000000
# 2 -0.005277 0.025274 -0.011082 0.000000 0.000000 0.000000
# 3 0.002234 -0.011082 0.009177 0.000000 0.000000 0.000000
# 4 0.000000 0.000000 0.000000 0.032150 0.000000 0.000000
# 5 0.000000 0.000000 0.000000 0.000000 -0.081937 0.000000
# 6 0.000000 0.000000 0.000000 0.000000 0.000000 0.197666
#
#
# Mechanical properties :
#
#
# Convention : Reuss Voigt Hill
#
# Bulk Modulus (GPa) = 26.20565 63.13571 44.67068
# Shear Modulus (GPa) = 19.58812 20.81354 20.20083
#
# Velocity S-wave (km/s) = 3.06548 3.15991 3.11305
# Velocity P-wave (km/s) = 5.01013 6.60318 5.86103
#
# Compressibility (1/GPa) = 0.03815971
#
# Stress axis : x y z
#
# Youngs Moduli (GPa) = 31.29121 39.56594 108.97068
#
# Poissons Ratio (x) = 0.20879 -0.24346
# Poissons Ratio (y) = 0.16513 1.20758
# Poissons Ratio (z) = -0.06991 0.43846
#
# Static dielectric constant tensor:
#      x y z
#    x 1.850120 0.000000 0.000000 
#    y 0.000000 1.785040 0.000000 
#    z 0.000000 0.000000 1.723140 
# 
# From -- ./inp_files/26137.got.cif
#   From: 2010.05.17/outbox.cif.g08.bks.cpg/sg64_14_cif.got.tgz:26137.got - 2010.06.03 16:29:19.
