data_PCOD9477433
_publ_section_title
;
Structure prediction by ZEFSAII (Michael W. Deem and Ramdas Pophale) SiO2 
 PCOD9477433
Probable space group: C M C A
;
_chemical_formula_sum "Si O2"
_cell_formula_units_Z 96
_cell_length_a 8.517500
_cell_length_b 22.526830
_cell_length_c 24.295043
_cell_angle_alpha 90.000000
_cell_angle_beta 90.000000
_cell_angle_gamma 90.000000
_cell_volume 4661.545160
_symmetry_space_group_name_H-M "C M C A"
_symmetry_group_IT_number 64
_symmetry_cell_setting 'orthorhombic'
loop_
_space_group_symop_operation_xyz
x,y,z
-x,1/2-y,1/2+z
x,-y,-z
-x,1/2+y,1/2-z
-x,-y,-z
x,1/2+y,1/2-z
-x,y,z
x,1/2-y,1/2+z
1/2+x,1/2+y,z
1/2-x,-y,1/2+z
1/2+x,1/2-y,-z
1/2-x,y,1/2-z
1/2-x,1/2-y,-z
1/2+x,y,1/2-z
1/2-x,1/2+y,z
1/2+x,-y,1/2+z
loop_
_atom_site_type_symbol
_atom_site_label
_atom_site_fract_x
_atom_site_fract_y
_atom_site_fract_z
Si Si1 0.187316 0.342157 0.189904
Si Si2 0.189209 0.418475 0.688505
Si Si3 0.312060 0.900757 0.025589
Si Si4 0.189660 0.353167 0.580598
Si Si5 0.187645 0.959643 0.130744
Si Si6 0.810416 0.778096 0.418428
O O1 0.250000 0.328938 0.250000
O O2 0.259844 0.402955 0.166520
O O3 0.224437 0.291513 0.145379
O O4 0.000000 0.349467 0.191015
O O5 0.250000 0.409530 0.750000
O O6 0.235485 0.370115 0.642659
O O7 0.241876 0.481360 0.662320
O O8 0.000000 0.419282 0.691005
O O9 0.500000 0.901864 0.025955
O O10 0.253065 0.949049 0.069288
O O11 0.254769 0.836487 0.049338
O O12 0.250681 0.900671 0.963536
O O13 0.249239 0.286910 0.566108
O O14 0.000000 0.353307 0.578022
O O15 0.000000 0.961510 0.127177
O O16 0.000000 0.777206 0.424609
#
# Coordination Sequence:
#
# PCOD9477433 Si02
#       6
#    16  16  16  16  16  16
#     4  10  19  32  51  79 108 138 178 225 271 320
#     4  10  23  39  57  79 106 141 182 219 260 312
#     4  10  20  35  56  85 111 136 173 221 269 317
#     4  10  20  37  57  78 107 145 179 215 261 316
#     4  10  20  36  56  79 105 139 178 221 269 318
#     4   8  17  33  53  76 107 141 177 218 263 312
#
# _framework density 20.59403
#
# number of rings (size 3 to 8) (size 9 to 14) (size 15 to 20)
#    0.000    2.333    0.000    3.500    0.000    4.667 
#    0.000    7.500    0.000    0.000    0.000    0.000 
#    0.000    0.000    0.000    0.000    0.000    0.000 
#
# Total GULP energy -267960.853145 kJ/mol
# GULP energy per Si atom -5582.517774 kJ/mol
# Density = 2.054716 g / cm^3
# Si number density = 20.594030 Si / 1000 Ang^3
#
#
#
# Elastic Constant Matrix: (Units=GPa)
#
#
# Indices 1 2 3 4 5 6 
#
# 1 28.2448 9.3509 15.2859 0.0000 0.0000 0.0000
# 2 9.3509 35.0877 27.1205 0.0000 0.0000 0.0000
# 3 15.2859 27.1205 111.9954 0.0000 0.0000 0.0000
# 4 0.0000 0.0000 0.0000 22.2773 0.0000 0.0000
# 5 0.0000 0.0000 0.0000 0.0000 32.8229 0.0000
# 6 0.0000 0.0000 0.0000 0.0000 0.0000 12.7401
#
#
#
# Elastic Compliance Matrix: (Units=1/GPa)
#
#
# Indices 1 2 3 4 5 6 
#
# 1 0.039937 -0.007911 -0.003535 0.000000 0.000000 0.000000
# 2 -0.007911 0.036630 -0.007790 0.000000 0.000000 0.000000
# 3 -0.003535 -0.007790 0.011298 0.000000 0.000000 0.000000
# 4 0.000000 0.000000 0.000000 0.044889 0.000000 0.000000
# 5 0.000000 0.000000 0.000000 0.000000 0.030467 0.000000
# 6 0.000000 0.000000 0.000000 0.000000 0.000000 0.078493
#
#
# Mechanical properties :
#
#
# Convention : Reuss Voigt Hill
#
# Bulk Modulus (GPa) = 20.24627 30.98253 25.61440
# Shear Modulus (GPa) = 16.85492 21.80610 19.33051
#
# Velocity S-wave (km/s) = 2.86394 3.25754 3.06706
# Velocity P-wave (km/s) = 4.55946 5.40609 5.00072
#
# Compressibility (1/GPa) = 0.04939180
#
# Stress axis : x y z
#
# Youngs Moduli (GPa) = 25.03944 27.30019 88.51153
#
# Poissons Ratio (x) = 0.21597 0.31291
# Poissons Ratio (y) = 0.19808 0.68954
# Poissons Ratio (z) = 0.08852 0.21268
#
# Static dielectric constant tensor:
#      x y z
#    x 1.696910 0.000000 0.000000 
#    y 0.000000 1.758240 0.000000 
#    z 0.000000 0.000000 1.731010 
# 
# From -- ./inp_files/42977.got.cif
#   From: 2010.05.17/outbox.cif.g08.bks.cpg/sg64_22_cif.got.tgz:42977.got - 2010.06.03 16:29:19.
