data_PCOD9478286
_publ_section_title
;
Structure prediction by ZEFSAII (Michael W. Deem and Ramdas Pophale) SiO2 
 PCOD9478286
Probable space group: C M C A
;
_chemical_formula_sum "Si O2"
_cell_formula_units_Z 80
_cell_length_a 16.230223
_cell_length_b 9.132145
_cell_length_c 20.262907
_cell_angle_alpha 90.000000
_cell_angle_beta 90.000000
_cell_angle_gamma 90.000000
_cell_volume 3003.302217
_symmetry_space_group_name_H-M "C M C A"
_symmetry_group_IT_number 64
_symmetry_cell_setting 'orthorhombic'
loop_
_space_group_symop_operation_xyz
x,y,z
-x,1/2-y,1/2+z
x,-y,-z
-x,1/2+y,1/2-z
-x,-y,-z
x,1/2+y,1/2-z
-x,y,z
x,1/2-y,1/2+z
1/2+x,1/2+y,z
1/2-x,-y,1/2+z
1/2+x,1/2-y,-z
1/2-x,y,1/2-z
1/2-x,1/2-y,-z
1/2+x,y,1/2-z
1/2-x,1/2+y,z
1/2+x,-y,1/2+z
loop_
_atom_site_type_symbol
_atom_site_label
_atom_site_fract_x
_atom_site_fract_y
_atom_site_fract_z
Si Si1 0.000000 0.850463 0.257935
Si Si2 0.404928 0.278159 0.491100
Si Si3 0.170507 0.776600 0.702735
Si Si4 0.158771 0.040890 0.912927
Si Si5 0.337626 0.508386 0.403226
Si Si6 0.500000 0.893685 0.653841
O O1 0.914286 0.779270 0.233445
O O2 0.000000 0.780804 0.331642
O O3 0.000000 0.010209 0.222934
O O4 0.500000 0.256189 0.476418
O O5 0.367745 0.134728 0.523965
O O6 0.356703 0.347392 0.429713
O O7 0.397170 0.393100 0.551809
O O8 0.250000 0.780067 0.750000
O O9 0.183815 0.661691 0.643163
O O10 0.154243 0.937894 0.671511
O O11 0.243685 0.955506 0.921700
O O12 0.081639 0.950542 0.884150
#
# Coordination Sequence:
#
# PCOD9478286 Si02
#       6
#     8  16  16  16  16   8
#     4  10  22  36  59  83 120 168 221 259 314 388
#     4  10  20  37  61  91 120 153 208 269 312 389
#     4  10  22  37  56  84 123 161 212 262 314 380
#     4  10  20  36  59  86 119 162 202 259 329 381
#     4  10  20  32  60  88 115 153 207 254 317 368
#     4  10  20  38  59  86 124 172 213 264 328 384
#
# _framework density 26.637346000000001
#
# number of rings (size 3 to 8) (size 9 to 14) (size 15 to 20)
#    0.000    2.000    1.000    3.000    5.600    4.000 
#    0.000    0.000    4.400    2.400    5.200    0.000 
#    0.000    0.000    0.000    0.000    0.000    0.000 
#
# Total GULP energy -224053.508161 kJ/mol
# GULP energy per Si atom -5601.337704 kJ/mol
# Density = 2.657672 g / cm^3
# Si number density = 26.637346 Si / 1000 Ang^3
#
#
#
# Elastic Constant Matrix: (Units=GPa)
#
#
# Indices 1 2 3 4 5 6 
#
# 1 159.1862 15.6499 68.8198 0.0000 0.0000 0.0000
# 2 15.6499 107.2024 41.1758 0.0000 0.0000 0.0000
# 3 68.8198 41.1758 108.5415 0.0000 0.0000 0.0000
# 4 0.0000 0.0000 0.0000 48.2995 0.0000 0.0000
# 5 0.0000 0.0000 0.0000 0.0000 60.8074 0.0000
# 6 0.0000 0.0000 0.0000 0.0000 0.0000 17.2622
#
#
#
# Elastic Compliance Matrix: (Units=1/GPa)
#
#
# Indices 1 2 3 4 5 6 
#
# 1 0.008744 0.000998 -0.005923 0.000000 0.000000 0.000000
# 2 0.000998 0.011033 -0.004819 0.000000 0.000000 0.000000
# 3 -0.005923 -0.004819 0.014797 0.000000 0.000000 0.000000
# 4 0.000000 0.000000 0.000000 0.020704 0.000000 0.000000
# 5 0.000000 0.000000 0.000000 0.000000 0.016445 0.000000
# 6 0.000000 0.000000 0.000000 0.000000 0.000000 0.057930
#
#
# Mechanical properties :
#
#
# Convention : Reuss Voigt Hill
#
# Bulk Modulus (GPa) = 66.27901 69.58011 67.92956
# Shear Modulus (GPa) = 32.43187 41.89280 37.16233
#
# Velocity S-wave (km/s) = 3.49310 3.97004 3.73918
# Velocity P-wave (km/s) = 6.41911 6.86971 6.64823
#
# Compressibility (1/GPa) = 0.01508773
#
# Stress axis : x y z
#
# Youngs Moduli (GPa) = 114.35764 90.63576 67.58341
#
# Poissons Ratio (x) = -0.09050 0.40031
# Poissons Ratio (y) = -0.11418 0.32566
# Poissons Ratio (z) = 0.67736 0.43673
#
# Static dielectric constant tensor:
#      x y z
#    x 1.957890 0.000000 0.000000 
#    y 0.000000 2.169320 0.000000 
#    z 0.000000 0.000000 2.127260 
# 
# From -- ./inp_files/44985.got.cif
#   From: 2010.05.17/outbox.cif.g08.bks.cpg/sg64_23_cif.got.tgz:44985.got - 2010.06.03 16:29:19.
