data_PCOD9478484
_publ_section_title
;
Structure prediction by ZEFSAII (Michael W. Deem and Ramdas Pophale) SiO2 
 PCOD9478484
Probable space group: C M C A
;
_chemical_formula_sum "Si O2"
_cell_formula_units_Z 116
_cell_length_a 9.717523
_cell_length_b 23.094508
_cell_length_c 29.175475
_cell_angle_alpha 90.000000
_cell_angle_beta 90.000000
_cell_angle_gamma 90.000000
_cell_volume 6547.601315
_symmetry_space_group_name_H-M "C M C A"
_symmetry_group_IT_number 64
_symmetry_cell_setting 'orthorhombic'
loop_
_space_group_symop_operation_xyz
x,y,z
-x,1/2-y,1/2+z
x,-y,-z
-x,1/2+y,1/2-z
-x,-y,-z
x,1/2+y,1/2-z
-x,y,z
x,1/2-y,1/2+z
1/2+x,1/2+y,z
1/2-x,-y,1/2+z
1/2+x,1/2-y,-z
1/2-x,y,1/2-z
1/2-x,1/2-y,-z
1/2+x,y,1/2-z
1/2-x,1/2+y,z
1/2+x,-y,1/2+z
loop_
_atom_site_type_symbol
_atom_site_label
_atom_site_fract_x
_atom_site_fract_y
_atom_site_fract_z
Si Si1 0.351800 0.900249 0.066744
Si Si2 0.259948 0.078622 0.030842
Si Si3 0.161558 0.490472 0.295242
Si Si4 0.337786 0.306825 0.107513
Si Si5 0.161678 0.851230 0.205326
Si Si6 0.667146 0.211056 0.036726
Si Si7 0.653865 0.483847 0.622741
Si Si8 0.000000 0.500000 0.500000
O O1 0.500000 0.871181 0.071833
O O2 0.234611 0.853750 0.075104
O O3 0.339188 0.950527 0.103952
O O4 0.342527 0.928612 0.016788
O O5 0.263635 0.148103 0.036654
O O6 0.323260 0.054025 0.077501
O O7 0.119887 0.044133 0.020648
O O8 0.250000 0.503850 0.250000
O O9 0.173127 0.420670 0.302520
O O10 0.230778 0.521697 0.338610
O O11 0.000000 0.503710 0.290146
O O12 0.500000 0.319374 0.107129
O O13 0.290702 0.318067 0.159505
O O14 0.317358 0.244195 0.085224
O O15 0.250000 0.836779 0.250000
O O16 0.000000 0.838896 0.213116
O O17 0.500000 0.207138 0.027458
O O18 0.750000 0.250000 0.000000
O O19 0.500000 0.473937 0.641371
#
# Coordination Sequence:
#
# PCOD9478484 Si02
#       8
#    16  16  16  16  16  16  16   4
#     4  11  21  34  55  84 120 157 201 247 301 362
#     4  12  25  41  59  85 124 163 214 256 314 366
#     4  10  20  34  55  83 118 152 196 253 317 382
#     4  10  21  36  57  85 120 160 199 243 304 369
#     4   9  18  33  54  82 114 150 192 247 304 364
#     4  11  24  40  61  88 124 168 208 253 307 375
#     4  11  22  36  57  83 117 159 198 253 315 376
#     4  12  28  40  62  92 120 168 214 278 308 372
#
# _framework density 17.716411999999998
#
# number of rings (size 3 to 8) (size 9 to 14) (size 15 to 20)
#    0.000    1.379    4.138    1.655    2.897    2.207 
#    0.000    0.000    0.000    0.828    0.000    1.931 
#    0.000    0.000    0.000    0.000    0.000    0.000 
#
# Total GULP energy -322875.845995 kJ/mol
# GULP energy per Si atom -5566.824931 kJ/mol
# Density = 1.767609 g / cm^3
# Si number density = 17.716412 Si / 1000 Ang^3
#
#
#
# Elastic Constant Matrix: (Units=GPa)
#
#
# Indices 1 2 3 4 5 6 
#
# 1 99.6734 39.4707 58.6706 0.0000 0.0000 0.0000
# 2 39.4707 70.6066 23.4806 0.0000 0.0000 0.0000
# 3 58.6706 23.4806 122.4854 0.0000 0.0000 0.0000
# 4 0.0000 0.0000 0.0000 25.0747 0.0000 0.0000
# 5 0.0000 0.0000 0.0000 0.0000 15.6707 0.0000
# 6 0.0000 0.0000 0.0000 0.0000 0.0000 -5.6252
#
#
#
# Elastic Compliance Matrix: (Units=1/GPa)
#
#
# Indices 1 2 3 4 5 6 
#
# 1 0.016801 -0.007173 -0.006673 0.000000 0.000000 0.000000
# 2 -0.007173 0.018190 -0.000051 0.000000 0.000000 0.000000
# 3 -0.006673 -0.000051 0.011370 0.000000 0.000000 0.000000
# 4 0.000000 0.000000 0.000000 0.039881 0.000000 0.000000
# 5 0.000000 0.000000 0.000000 0.000000 0.063813 0.000000
# 6 0.000000 0.000000 0.000000 0.000000 0.000000 -0.177771
#
#
# Mechanical properties :
#
#
# Convention : Reuss Voigt Hill
#
# Bulk Modulus (GPa) = 53.85756 59.55657 56.70706
# Shear Modulus (GPa) = 797.80021 18.43359 408.11690
#
# Velocity S-wave (km/s) = 21.24370 3.22915 15.19411
# Velocity P-wave (km/s) = 25.14343 6.89875 18.43617
#
# Compressibility (1/GPa) = 0.01856750
#
# Stress axis : x y z
#
# Youngs Moduli (GPa) = 59.52011 54.97542 87.94908
#
# Poissons Ratio (x) = 0.39435 0.58685
# Poissons Ratio (y) = 0.42695 0.00449
# Poissons Ratio (z) = 0.39715 0.00281
#
# Static dielectric constant tensor:
#      x y z
#    x 1.618690 0.000000 0.000000 
#    y 0.000000 1.606280 0.000000 
#    z 0.000000 0.000000 1.617460 
# 
# From -- ./inp_files/52275.got.cif
#   From: 2010.05.17/outbox.cif.g08.bks.cpg/sg64_27_cif.got.tgz:52275.got - 2010.06.03 16:29:19.
