data_PCOD9478765
_publ_section_title
;
Structure prediction by ZEFSAII (Michael W. Deem and Ramdas Pophale) SiO2 
 PCOD9478765
Probable space group: C M C A
;
_chemical_formula_sum "Si O2"
_cell_formula_units_Z 104
_cell_length_a 17.128325
_cell_length_b 21.862382
_cell_length_c 15.302410
_cell_angle_alpha 90.000000
_cell_angle_beta 90.000000
_cell_angle_gamma 90.000000
_cell_volume 5730.232021
_symmetry_space_group_name_H-M "C M C A"
_symmetry_group_IT_number 64
_symmetry_cell_setting 'orthorhombic'
loop_
_space_group_symop_operation_xyz
x,y,z
-x,1/2-y,1/2+z
x,-y,-z
-x,1/2+y,1/2-z
-x,-y,-z
x,1/2+y,1/2-z
-x,y,z
x,1/2-y,1/2+z
1/2+x,1/2+y,z
1/2-x,-y,1/2+z
1/2+x,1/2-y,-z
1/2-x,y,1/2-z
1/2-x,1/2-y,-z
1/2+x,y,1/2-z
1/2-x,1/2+y,z
1/2+x,-y,1/2+z
loop_
_atom_site_type_symbol
_atom_site_label
_atom_site_fract_x
_atom_site_fract_y
_atom_site_fract_z
Si Si1 0.500000 0.263877 0.750344
Si Si2 0.365514 0.347957 0.969391
Si Si3 0.500000 0.760668 0.456835
Si Si4 0.324485 0.724319 0.189938
Si Si5 0.814590 0.918107 0.140649
Si Si6 0.650775 0.131190 0.817186
Si Si7 0.584215 0.526126 0.098770
Si Si8 0.000000 0.841854 0.398126
O O1 0.500000 0.250050 0.647002
O O2 0.412926 0.291346 0.773651
O O3 0.500000 0.205576 0.815665
O O4 0.314302 0.308938 0.902706
O O5 0.403932 0.401896 0.911448
O O6 0.426770 0.301124 0.011727
O O7 0.326402 0.384249 0.048643
O O8 0.500000 0.698350 0.514144
O O9 0.250000 0.709200 0.250000
O O10 0.324466 0.797743 0.176177
O O11 0.723808 0.911272 0.160656
O O12 0.863865 0.882287 0.214960
O O13 0.846690 0.986949 0.140323
O O14 0.578587 0.120998 0.881164
O O15 0.500000 0.512840 0.140625
O O16 0.580559 0.500000 0.000000
#
# Coordination Sequence:
#
# PCOD9478765 Si02
#       8
#     8  16   8  16  16  16  16   8
#     4  10  22  36  52  84 127 149 191 231 278 358
#     4  11  20  35  58  82 115 151 189 233 301 347
#     4  12  20  32  60  87 113 161 178 227 307 343
#     4  11  21  38  54  83 120 152 184 244 280 352
#     4  10  21  34  55  80 110 154 182 242 285 337
#     4  10  20  37  52  79 118 141 193 238 280 345
#     4   9  19  34  53  84 110 136 190 239 283 345
#     4  10  20  36  51  81 113 146 186 231 268 356
#
# _framework density 18.149352
#
# number of rings (size 3 to 8) (size 9 to 14) (size 15 to 20)
#    0.000    1.692    5.385    1.846    2.154    1.846 
#    2.769    0.000    0.000    0.000    0.000    4.846 
#    0.000    0.000    0.000    0.000    0.000    0.000 
#
# Total GULP energy -289509.351325 kJ/mol
# GULP energy per Si atom -5567.487525 kJ/mol
# Density = 1.810804 g / cm^3
# Si number density = 18.149352 Si / 1000 Ang^3
#
#
#
# Elastic Constant Matrix: (Units=GPa)
#
#
# Indices 1 2 3 4 5 6 
#
# 1 93.6016 10.1261 22.4760 0.0000 0.0000 0.0000
# 2 10.1261 48.2985 21.8664 0.0000 0.0000 0.0000
# 3 22.4760 21.8664 66.2527 0.0000 0.0000 0.0000
# 4 0.0000 0.0000 0.0000 18.6441 0.0000 0.0000
# 5 0.0000 0.0000 0.0000 0.0000 21.4588 0.0000
# 6 0.0000 0.0000 0.0000 0.0000 0.0000 7.2302
#
#
#
# Elastic Compliance Matrix: (Units=1/GPa)
#
#
# Indices 1 2 3 4 5 6 
#
# 1 0.011655 -0.000768 -0.003700 0.000000 0.000000 0.000000
# 2 -0.000768 0.024392 -0.007790 0.000000 0.000000 0.000000
# 3 -0.003700 -0.007790 0.018920 0.000000 0.000000 0.000000
# 4 0.000000 0.000000 0.000000 0.053636 0.000000 0.000000
# 5 0.000000 0.000000 0.000000 0.000000 0.046601 0.000000
# 6 0.000000 0.000000 0.000000 0.000000 0.000000 0.138309
#
#
# Mechanical properties :
#
#
# Convention : Reuss Voigt Hill
#
# Bulk Modulus (GPa) = 32.84025 35.23220 34.03622
# Shear Modulus (GPa) = 15.23548 19.71225 17.47386
#
# Velocity S-wave (km/s) = 2.90047 3.29920 3.10624
# Velocity P-wave (km/s) = 5.41763 5.82816 5.62664
#
# Compressibility (1/GPa) = 0.03045044
#
# Stress axis : x y z
#
# Youngs Moduli (GPa) = 85.79817 40.99634 52.85377
#
# Poissons Ratio (x) = 0.03150 0.19558
# Poissons Ratio (y) = 0.06592 0.41173
# Poissons Ratio (z) = 0.31749 0.31936
#
# Static dielectric constant tensor:
#      x y z
#    x 1.696310 0.000000 0.000000 
#    y 0.000000 1.624710 0.000000 
#    z 0.000000 0.000000 1.640350 
# 
# From -- ./inp_files/25667.got.cif
#   From: 2010.05.17/outbox.cif.g08.bks.cpg/sg64_13_cif.got.tgz:25667.got - 2010.06.03 16:29:19.
