data_PCOD9478830
_publ_section_title
;
Structure prediction by ZEFSAII (Michael W. Deem and Ramdas Pophale) SiO2 
 PCOD9478830
Probable space group: C M C A
;
_chemical_formula_sum "Si O2"
_cell_formula_units_Z 80
_cell_length_a 18.160783
_cell_length_b 8.099670
_cell_length_c 22.814913
_cell_angle_alpha 90.000000
_cell_angle_beta 90.000000
_cell_angle_gamma 90.000000
_cell_volume 3355.990411
_symmetry_space_group_name_H-M "C M C A"
_symmetry_group_IT_number 64
_symmetry_cell_setting 'orthorhombic'
loop_
_space_group_symop_operation_xyz
x,y,z
-x,1/2-y,1/2+z
x,-y,-z
-x,1/2+y,1/2-z
-x,-y,-z
x,1/2+y,1/2-z
-x,y,z
x,1/2-y,1/2+z
1/2+x,1/2+y,z
1/2-x,-y,1/2+z
1/2+x,1/2-y,-z
1/2-x,y,1/2-z
1/2-x,1/2-y,-z
1/2+x,y,1/2-z
1/2-x,1/2+y,z
1/2+x,-y,1/2+z
loop_
_atom_site_type_symbol
_atom_site_label
_atom_site_fract_x
_atom_site_fract_y
_atom_site_fract_z
Si Si1 0.085589 0.535579 0.174030
Si Si2 0.837349 0.352956 0.933446
Si Si3 0.669803 0.834122 0.265842
Si Si4 0.585427 0.680232 0.033562
Si Si5 0.684163 0.487240 0.882902
O O1 0.102811 0.551074 0.105312
O O2 0.132307 0.398206 0.207109
O O3 0.000000 0.514716 0.184827
O O4 0.116352 0.703481 0.203485
O O5 0.864095 0.313457 0.999163
O O6 0.759013 0.430867 0.915560
O O7 0.832088 0.168234 0.907773
O O8 0.750000 0.767470 0.250000
O O9 0.684315 0.980652 0.313497
O O10 0.500000 0.728998 0.035338
O O11 0.587918 0.500000 0.000000
O O12 0.621219 0.637928 0.095936
#
# Coordination Sequence:
#
# PCOD9478830 Si02
#       5
#    16  16  16  16  16
#     4  11  23  37  58  85 115 150 190 235 283 332
#     4  10  20  36  57  83 110 144 186 230 278 337
#     4  11  22  38  58  82 115 152 190 231 279 338
#     4   9  18  34  56  82 111 141 181 233 282 328
#     4  10  21  34  59  81 108 145 188 229 276 335
#
# _framework density 23.837971
#
# number of rings (size 3 to 8) (size 9 to 14) (size 15 to 20)
#    0.000    1.800    2.000    2.400    2.800    5.600 
#    0.000    0.000    0.000    3.600    0.000    0.000 
#    0.000    0.000    0.000    0.000    0.000    0.000 
#
# Total GULP energy -223774.155674 kJ/mol
# GULP energy per Si atom -5594.353892 kJ/mol
# Density = 2.378371 g / cm^3
# Si number density = 23.837971 Si / 1000 Ang^3
#
#
#
# Elastic Constant Matrix: (Units=GPa)
#
#
# Indices 1 2 3 4 5 6 
#
# 1 116.7383 1.6975 12.5870 0.0000 0.0000 0.0000
# 2 1.6975 59.3437 23.0168 0.0000 0.0000 0.0000
# 3 12.5870 23.0168 89.7531 0.0000 0.0000 0.0000
# 4 0.0000 0.0000 0.0000 41.5473 0.0000 0.0000
# 5 0.0000 0.0000 0.0000 0.0000 33.1270 0.0000
# 6 0.0000 0.0000 0.0000 0.0000 0.0000 -134.7761
#
#
#
# Elastic Compliance Matrix: (Units=1/GPa)
#
#
# Indices 1 2 3 4 5 6 
#
# 1 0.008701 0.000249 -0.001284 0.000000 0.000000 0.000000
# 2 0.000249 0.018719 -0.004835 0.000000 0.000000 0.000000
# 3 -0.001284 -0.004835 0.012562 0.000000 0.000000 0.000000
# 4 0.000000 0.000000 0.000000 0.024069 0.000000 0.000000
# 5 0.000000 0.000000 0.000000 0.000000 0.030187 0.000000
# 6 0.000000 0.000000 0.000000 0.000000 0.000000 -0.007420
#
#
# Mechanical properties :
#
#
# Convention : Reuss Voigt Hill
#
# Bulk Modulus (GPa) = 35.40910 37.82641 36.61776
# Shear Modulus (GPa) = 46.30794 3.21521 24.76158
#
# Velocity S-wave (km/s) = 4.41229 1.16263 3.22645
# Velocity P-wave (km/s) = 6.39094 4.20771 5.41059
#
# Compressibility (1/GPa) = 0.02824132
#
# Stress axis : x y z
#
# Youngs Moduli (GPa) = 114.92926 53.42074 79.60642
#
# Poissons Ratio (x) = -0.01331 0.10223
# Poissons Ratio (y) = -0.02864 0.38493
# Poissons Ratio (z) = 0.14758 0.25831
#
# Static dielectric constant tensor:
#      x y z
#    x 1.834570 0.000000 0.000000 
#    y 0.000000 1.923510 0.000000 
#    z 0.000000 0.000000 2.061910 
# 
# From -- ./inp_files/44917.got.cif
#   From: 2010.05.17/outbox.cif.g08.bks.cpg/sg64_23_cif.got.tgz:44917.got - 2010.06.03 16:29:19.
