data_PCOD9478092
_publ_section_title
;
Structure prediction by ZEFSAII (Michael W. Deem and Ramdas Pophale) SiO2 
 PCOD9478092
Probable space group: C M C A
;
_chemical_formula_sum "Si O2"
_cell_formula_units_Z 112
_cell_length_a 23.261585
_cell_length_b 16.323018
_cell_length_c 12.468433
_cell_angle_alpha 90.000000
_cell_angle_beta 90.000000
_cell_angle_gamma 90.000000
_cell_volume 4734.254916
_symmetry_space_group_name_H-M "C M C A"
_symmetry_group_IT_number 64
_symmetry_cell_setting 'orthorhombic'
loop_
_space_group_symop_operation_xyz
x,y,z
-x,1/2-y,1/2+z
x,-y,-z
-x,1/2+y,1/2-z
-x,-y,-z
x,1/2+y,1/2-z
-x,y,z
x,1/2-y,1/2+z
1/2+x,1/2+y,z
1/2-x,-y,1/2+z
1/2+x,1/2-y,-z
1/2-x,y,1/2-z
1/2-x,1/2-y,-z
1/2+x,y,1/2-z
1/2-x,1/2+y,z
1/2+x,-y,1/2+z
loop_
_atom_site_type_symbol
_atom_site_label
_atom_site_fract_x
_atom_site_fract_y
_atom_site_fract_z
Si Si1 0.230544 0.630961 0.479485
Si Si2 0.935916 0.627843 0.043735
Si Si3 0.127019 0.728607 0.440061
Si Si4 0.061379 0.755526 0.747868
Si Si5 0.433915 0.395472 0.103409
Si Si6 0.327665 0.546314 0.392199
Si Si7 0.180107 0.480413 0.345178
O O1 0.193110 0.712767 0.466145
O O2 0.291903 0.629483 0.417251
O O3 0.198593 0.562133 0.406603
O O4 0.216907 0.594790 0.600246
O O5 0.899347 0.680876 0.958770
O O6 0.941799 0.691166 0.141442
O O7 0.895521 0.558289 0.092929
O O8 0.000000 0.604678 0.007749
O O9 0.114037 0.713279 0.316360
O O10 0.090283 0.663151 0.509059
O O11 0.066948 0.662988 0.708052
O O12 0.000000 0.764996 0.807254
O O13 0.500000 0.420287 0.084233
O O14 0.386469 0.463624 0.125946
O O15 0.308382 0.500000 0.500000
O O16 0.314366 0.500226 0.281595
#
# Coordination Sequence:
#
# PCOD9478092 Si02
#       7
#    16  16  16  16  16  16  16
#     4  10  22  41  65  87 116 163 206 260 305 352
#     4  10  23  40  59  91 126 157 201 246 302 373
#     4  10  19  37  63  89 120 156 203 254 303 357
#     4   9  17  33  57  84 120 163 199 248 307 357
#     4   9  19  34  57  89 124 162 202 250 305 364
#     4  12  25  40  63  87 122 169 198 250 305 358
#     4  10  21  40  60  89 124 157 212 253 300 363
#
# _framework density 23.657367000000001
#
# number of rings (size 3 to 8) (size 9 to 14) (size 15 to 20)
#    0.000    2.000    1.429    3.429    2.000    1.429 
#    0.000    7.143    0.000    0.000    0.000    0.000 
#    0.000    0.000    0.000    0.000    0.000    0.000 
#
# Total GULP energy -312278.272234 kJ/mol
# GULP energy per Si atom -5576.397718 kJ/mol
# Density = 2.360352 g / cm^3
# Si number density = 23.657367 Si / 1000 Ang^3
#
#
#
# Elastic Constant Matrix: (Units=GPa)
#
#
# Indices 1 2 3 4 5 6 
#
# 1 129.4340 -11.2213 5.1410 0.0000 0.0000 0.0000
# 2 -11.2213 5.6560 2.0269 0.0000 0.0000 0.0000
# 3 5.1410 2.0269 99.1227 0.0000 0.0000 0.0000
# 4 0.0000 0.0000 0.0000 16.2530 0.0000 0.0000
# 5 0.0000 0.0000 0.0000 0.0000 28.4331 0.0000
# 6 0.0000 0.0000 0.0000 0.0000 0.0000 -18.7372
#
#
#
# Elastic Compliance Matrix: (Units=1/GPa)
#
#
# Indices 1 2 3 4 5 6 
#
# 1 0.009406 0.018975 -0.000876 0.000000 0.000000 0.000000
# 2 0.018975 0.216387 -0.005409 0.000000 0.000000 0.000000
# 3 -0.000876 -0.005409 0.010245 0.000000 0.000000 0.000000
# 4 0.000000 0.000000 0.000000 0.061527 0.000000 0.000000
# 5 0.000000 0.000000 0.000000 0.000000 0.035170 0.000000
# 6 0.000000 0.000000 0.000000 0.000000 0.000000 -0.053370
#
#
# Mechanical properties :
#
#
# Convention : Reuss Voigt Hill
#
# Bulk Modulus (GPa) = 3.82530 25.12287 14.47409
# Shear Modulus (GPa) = 14.65742 21.07419 17.86580
#
# Velocity S-wave (km/s) = 2.49182 2.98788 2.75105
# Velocity P-wave (km/s) = 3.14632 4.74824 4.02772
#
# Compressibility (1/GPa) = 0.26141719
#
# Stress axis : x y z
#
# Youngs Moduli (GPa) = 106.31803 4.62135 97.61298
#
# Poissons Ratio (x) = -0.08769 0.08549
# Poissons Ratio (y) = -2.01734 0.52798
# Poissons Ratio (z) = 0.09312 0.02500
#
# Static dielectric constant tensor:
#      x y z
#    x 2.018490 0.000000 0.000000 
#    y 0.000000 1.947460 0.000000 
#    z 0.000000 0.000000 1.891760 
# 
# From -- ./inp_files/18537.got.cif
#   From: 2010.05.17/outbox.cif.g08.bks.cpg/sg64_10_cif.got.tgz:18537.got - 2010.06.03 16:29:19.
