data_PCOD9478633
_publ_section_title
;
Structure prediction by ZEFSAII (Michael W. Deem and Ramdas Pophale) SiO2 
 PCOD9478633
Probable space group: C M C A
;
_chemical_formula_sum "Si O2"
_cell_formula_units_Z 80
_cell_length_a 9.105588
_cell_length_b 14.540699
_cell_length_c 30.389427
_cell_angle_alpha 90.000000
_cell_angle_beta 90.000000
_cell_angle_gamma 90.000000
_cell_volume 4023.609193
_symmetry_space_group_name_H-M "C M C A"
_symmetry_group_IT_number 64
_symmetry_cell_setting 'orthorhombic'
loop_
_space_group_symop_operation_xyz
x,y,z
-x,1/2-y,1/2+z
x,-y,-z
-x,1/2+y,1/2-z
-x,-y,-z
x,1/2+y,1/2-z
-x,y,z
x,1/2-y,1/2+z
1/2+x,1/2+y,z
1/2-x,-y,1/2+z
1/2+x,1/2-y,-z
1/2-x,y,1/2-z
1/2-x,1/2-y,-z
1/2+x,y,1/2-z
1/2-x,1/2+y,z
1/2+x,-y,1/2+z
loop_
_atom_site_type_symbol
_atom_site_label
_atom_site_fract_x
_atom_site_fract_y
_atom_site_fract_z
Si Si1 0.669232 0.378436 0.032317
Si Si2 0.675772 0.545270 0.203484
Si Si3 0.322098 0.599426 0.871587
Si Si4 0.824683 0.795561 0.859608
Si Si5 0.668527 0.841957 0.946250
O O1 0.500000 0.403937 0.024194
O O2 0.722896 0.422970 0.078040
O O3 0.670091 0.268091 0.042478
O O4 0.764027 0.391539 0.988730
O O5 0.500000 0.538910 0.208301
O O6 0.750000 0.528189 0.250000
O O7 0.719623 0.473391 0.165485
O O8 0.710772 0.645294 0.183516
O O9 0.500000 0.606896 0.872705
O O10 0.252965 0.697309 0.859487
O O11 0.766175 0.849250 0.902653
O O12 0.000000 0.785771 0.863170
O O13 0.500000 0.868091 0.938300
#
# Coordination Sequence:
#
# PCOD9478633 Si02
#       5
#    16  16  16  16  16
#     4   8  14  26  47  74 104 139 178 217 257 307
#     4  10  23  41  59  80 107 139 178 225 275 325
#     4   9  19  37  58  80 108 143 181 220 265 318
#     4  10  20  35  56  82 110 142 180 220 265 318
#     4   9  16  27  47  76 109 144 179 215 258 310
#
# _framework density 19.882646999999999
#
# number of rings (size 3 to 8) (size 9 to 14) (size 15 to 20)
#    0.000    2.800    0.000    2.400    0.000    8.000 
#    0.000    5.000    0.000    6.000    0.000    0.000 
#    0.000    0.000    0.000    0.000    0.000    0.000 
#
# Total GULP energy -223334.435945 kJ/mol
# GULP energy per Si atom -5583.360899 kJ/mol
# Density = 1.983739 g / cm^3
# Si number density = 19.882647 Si / 1000 Ang^3
#
#
#
# Elastic Constant Matrix: (Units=GPa)
#
#
# Indices 1 2 3 4 5 6 
#
# 1 18.8689 5.2161 22.3783 0.0000 0.0000 0.0000
# 2 5.2161 59.7783 32.2378 0.0000 0.0000 0.0000
# 3 22.3783 32.2378 114.4339 0.0000 0.0000 0.0000
# 4 0.0000 0.0000 0.0000 28.1351 0.0000 0.0000
# 5 0.0000 0.0000 0.0000 0.0000 39.2698 0.0000
# 6 0.0000 0.0000 0.0000 0.0000 0.0000 11.9604
#
#
#
# Elastic Compliance Matrix: (Units=1/GPa)
#
#
# Indices 1 2 3 4 5 6 
#
# 1 0.069112 0.001484 -0.013933 0.000000 0.000000 0.000000
# 2 0.001484 0.019757 -0.005856 0.000000 0.000000 0.000000
# 3 -0.013933 -0.005856 0.013113 0.000000 0.000000 0.000000
# 4 0.000000 0.000000 0.000000 0.035543 0.000000 0.000000
# 5 0.000000 0.000000 0.000000 0.000000 0.025465 0.000000
# 6 0.000000 0.000000 0.000000 0.000000 0.000000 0.083609
#
#
# Mechanical properties :
#
#
# Convention : Reuss Voigt Hill
#
# Bulk Modulus (GPa) = 15.29734 34.74950 25.02342
# Shear Modulus (GPa) = 16.39341 24.75633 20.57487
#
# Velocity S-wave (km/s) = 2.87454 3.53246 3.22034
# Velocity P-wave (km/s) = 4.32757 5.84405 5.14202
#
# Compressibility (1/GPa) = 0.06537083
#
# Stress axis : x y z
#
# Youngs Moduli (GPa) = 14.46927 50.61471 76.25932
#
# Poissons Ratio (x) = -0.07509 1.06254
# Poissons Ratio (y) = -0.02147 0.44658
# Poissons Ratio (z) = 0.20160 0.29640
#
# Static dielectric constant tensor:
#      x y z
#    x 1.664930 0.000000 0.000000 
#    y 0.000000 1.745180 0.000000 
#    z 0.000000 0.000000 1.686980 
# 
# From -- ./inp_files/51765.got.cif
#   From: 2010.05.17/outbox.cif.g08.bks.cpg/sg64_26_cif.got.tgz:51765.got - 2010.06.03 16:29:19.
