data_PCOD9478722
_publ_section_title
;
Structure prediction by ZEFSAII (Michael W. Deem and Ramdas Pophale) SiO2 
 PCOD9478722
Probable space group: C M C A
;
_chemical_formula_sum "Si O2"
_cell_formula_units_Z 96
_cell_length_a 8.903326
_cell_length_b 20.843367
_cell_length_c 28.650916
_cell_angle_alpha 90.000000
_cell_angle_beta 90.000000
_cell_angle_gamma 90.000000
_cell_volume 5316.902084
_symmetry_space_group_name_H-M "C M C A"
_symmetry_group_IT_number 64
_symmetry_cell_setting 'orthorhombic'
loop_
_space_group_symop_operation_xyz
x,y,z
-x,1/2-y,1/2+z
x,-y,-z
-x,1/2+y,1/2-z
-x,-y,-z
x,1/2+y,1/2-z
-x,y,z
x,1/2-y,1/2+z
1/2+x,1/2+y,z
1/2-x,-y,1/2+z
1/2+x,1/2-y,-z
1/2-x,y,1/2-z
1/2-x,1/2-y,-z
1/2+x,y,1/2-z
1/2-x,1/2+y,z
1/2+x,-y,1/2+z
loop_
_atom_site_type_symbol
_atom_site_label
_atom_site_fract_x
_atom_site_fract_y
_atom_site_fract_z
Si Si1 0.178526 0.452168 0.799887
Si Si2 0.678488 0.299097 0.700118
Si Si3 0.821212 0.505871 0.394530
Si Si4 0.821447 0.882396 0.441207
Si Si5 0.179560 0.245792 0.105695
Si Si6 0.179358 0.626394 0.051660
O O1 0.250000 0.468861 0.750000
O O2 0.204045 0.375621 0.807287
O O3 0.254996 0.488924 0.842449
O O4 0.000000 0.462899 0.799428
O O5 0.500000 0.288507 0.700755
O O6 0.750000 0.282305 0.750000
O O7 0.754524 0.262303 0.657449
O O8 0.770048 0.440334 0.418849
O O9 0.751729 0.565031 0.423455
O O10 0.000000 0.511444 0.393382
O O11 0.787445 0.815204 0.416079
O O12 0.791761 0.876328 0.496374
O O13 0.000000 0.895516 0.435646
O O14 0.252538 0.190369 0.074119
O O15 0.000000 0.237092 0.106658
O O16 0.000000 0.625531 0.059444
#
# Coordination Sequence:
#
# PCOD9478722 Si02
#       6
#    16  16  16  16  16  16
#     4  10  20  36  60  88 119 152 191 240 292 346
#     4  10  20  35  59  88 118 153 191 239 291 344
#     4  12  24  38  60  89 120 155 198 245 293 348
#     4  10  24  42  59  83 120 161 198 242 297 349
#     4  11  22  38  61  89 120 154 195 244 292 348
#     4  11  22  39  62  86 116 157 201 245 293 347
#
# _framework density 18.055626
#
# number of rings (size 3 to 8) (size 9 to 14) (size 15 to 20)
#    0.000    1.333    1.667    4.500    0.000    6.000 
#    0.000    0.833    0.000    4.000    0.000    0.000 
#    0.000    0.000    0.000    0.000    0.000    0.000 
#
# Total GULP energy -268418.911567 kJ/mol
# GULP energy per Si atom -5592.060658 kJ/mol
# Density = 1.801453 g / cm^3
# Si number density = 18.055626 Si / 1000 Ang^3
#
#
#
# Elastic Constant Matrix: (Units=GPa)
#
#
# Indices 1 2 3 4 5 6 
#
# 1 81.6422 43.3354 56.9269 0.0000 0.0000 0.0000
# 2 43.3354 61.4933 30.0972 0.0000 0.0000 0.0000
# 3 56.9269 30.0972 112.8289 0.0000 0.0000 0.0000
# 4 0.0000 0.0000 0.0000 -16.0588 0.0000 0.0000
# 5 0.0000 0.0000 0.0000 0.0000 33.8880 0.0000
# 6 0.0000 0.0000 0.0000 0.0000 0.0000 29.7626
#
#
#
# Elastic Compliance Matrix: (Units=1/GPa)
#
#
# Indices 1 2 3 4 5 6 
#
# 1 0.026248 -0.013820 -0.009557 0.000000 0.000000 0.000000
# 2 -0.013820 0.025980 0.000042 0.000000 0.000000 0.000000
# 3 -0.009557 0.000042 0.013673 0.000000 0.000000 0.000000
# 4 0.000000 0.000000 0.000000 -0.062271 0.000000 0.000000
# 5 0.000000 0.000000 0.000000 0.000000 0.029509 0.000000
# 6 0.000000 0.000000 0.000000 0.000000 0.000000 0.033599
#
#
# Mechanical properties :
#
#
# Convention : Reuss Voigt Hill
#
# Bulk Modulus (GPa) = 51.99318 57.40926 54.70122
# Shear Modulus (GPa) = 41.73024 17.89203 29.81113
#
# Velocity S-wave (km/s) = 4.81271 3.15133 4.06775
# Velocity P-wave (km/s) = 7.72927 6.71610 7.24043
#
# Compressibility (1/GPa) = 0.01923329
#
# Stress axis : x y z
#
# Youngs Moduli (GPa) = 38.09870 38.49076 73.13498
#
# Poissons Ratio (x) = 0.53194 0.69892
# Poissons Ratio (y) = 0.52652 -0.00310
# Poissons Ratio (z) = 0.36409 -0.00163
#
# Static dielectric constant tensor:
#      x y z
#    x 1.599360 0.000000 0.000000 
#    y 0.000000 1.584280 0.000000 
#    z 0.000000 0.000000 1.599520 
# 
# From -- ./inp_files/48134.got.cif
#   From: 2010.05.17/outbox.cif.g08.bks.cpg/sg64_25_cif.got.tgz:48134.got - 2010.06.03 16:29:19.
