data_PCOD9478356
_publ_section_title
;
Structure prediction by ZEFSAII (Michael W. Deem and Ramdas Pophale) SiO2 
 PCOD9478356
Probable space group: C M C A
;
_chemical_formula_sum "Si O2"
_cell_formula_units_Z 112
_cell_length_a 25.368060
_cell_length_b 12.321343
_cell_length_c 19.658802
_cell_angle_alpha 90.000000
_cell_angle_beta 90.000000
_cell_angle_gamma 90.000000
_cell_volume 6144.723600
_symmetry_space_group_name_H-M "C M C A"
_symmetry_group_IT_number 64
_symmetry_cell_setting 'orthorhombic'
loop_
_space_group_symop_operation_xyz
x,y,z
-x,1/2-y,1/2+z
x,-y,-z
-x,1/2+y,1/2-z
-x,-y,-z
x,1/2+y,1/2-z
-x,y,z
x,1/2-y,1/2+z
1/2+x,1/2+y,z
1/2-x,-y,1/2+z
1/2+x,1/2-y,-z
1/2-x,y,1/2-z
1/2-x,1/2-y,-z
1/2+x,y,1/2-z
1/2-x,1/2+y,z
1/2+x,-y,1/2+z
loop_
_atom_site_type_symbol
_atom_site_label
_atom_site_fract_x
_atom_site_fract_y
_atom_site_fract_z
Si Si1 0.061946 0.901461 0.052198
Si Si2 0.198179 0.853146 0.292183
Si Si3 0.693289 0.698383 0.407230
Si Si4 0.875394 0.262671 0.031199
Si Si5 0.832856 0.028381 0.574733
Si Si6 0.850568 0.406157 0.333790
Si Si7 0.690985 0.141375 0.363390
O O1 0.096745 0.908781 0.120595
O O2 0.000000 0.904809 0.066237
O O3 0.078692 0.791941 0.012120
O O4 0.075053 0.000000 0.000000
O O5 0.250000 0.884410 0.250000
O O6 0.198563 0.904779 0.367718
O O7 0.148716 0.894923 0.247841
O O8 0.194891 0.723308 0.299872
O O9 0.675606 0.737270 0.481490
O O10 0.657854 0.590634 0.394431
O O11 0.680462 0.798633 0.358694
O O12 0.753031 0.659403 0.400152
O O13 0.879569 0.387432 0.055552
O O14 0.857936 0.187376 0.093193
O O15 0.807961 0.000000 0.500000
O O16 0.819644 0.516805 0.349209
#
# Coordination Sequence:
#
# PCOD9478356 Si02
#       7
#    16  16  16  16  16  16  16
#     4  10  20  40  66  91 119 154 205 268 315 361
#     4  11  22  36  53  81 124 170 204 248 306 374
#     4  10  20  33  53  82 122 162 201 235 295 361
#     4   9  19  36  55  86 114 153 192 255 297 356
#     4   9  20  38  58  81 118 166 205 251 299 358
#     4  11  23  36  57  88 119 162 207 252 302 366
#     4  11  21  34  50  79 121 160 204 235 293 373
#
# _framework density 18.227018999999999
#
# number of rings (size 3 to 8) (size 9 to 14) (size 15 to 20)
#    0.000    1.857    2.857    1.286    4.000    0.571 
#    7.714    0.000    0.000   15.000    0.000    0.000 
#    0.000    0.000    0.000    0.000    0.000    0.000 
#
# Total GULP energy -311758.702554 kJ/mol
# GULP energy per Si atom -5567.119688 kJ/mol
# Density = 1.818553 g / cm^3
# Si number density = 18.227019 Si / 1000 Ang^3
#
#
#
# Elastic Constant Matrix: (Units=GPa)
#
#
# Indices 1 2 3 4 5 6 
#
# 1 62.7364 22.6058 28.6534 0.0000 0.0000 0.0000
# 2 22.6058 137.2385 34.4846 0.0000 0.0000 0.0000
# 3 28.6534 34.4846 77.7115 0.0000 0.0000 0.0000
# 4 0.0000 0.0000 0.0000 29.3657 0.0000 0.0000
# 5 0.0000 0.0000 0.0000 0.0000 17.3239 0.0000
# 6 0.0000 0.0000 0.0000 0.0000 0.0000 18.4410
#
#
#
# Elastic Compliance Matrix: (Units=1/GPa)
#
#
# Indices 1 2 3 4 5 6 
#
# 1 0.019467 -0.001579 -0.006477 0.000000 0.000000 0.000000
# 2 -0.001579 0.008329 -0.003114 0.000000 0.000000 0.000000
# 3 -0.006477 -0.003114 0.016638 0.000000 0.000000 0.000000
# 4 0.000000 0.000000 0.000000 0.034053 0.000000 0.000000
# 5 0.000000 0.000000 0.000000 0.000000 0.057724 0.000000
# 6 0.000000 0.000000 0.000000 0.000000 0.000000 0.054227
#
#
# Mechanical properties :
#
#
# Convention : Reuss Voigt Hill
#
# Bulk Modulus (GPa) = 45.26066 49.90821 47.58444
# Shear Modulus (GPa) = 22.71255 25.82230 24.26743
#
# Velocity S-wave (km/s) = 3.53383 3.76800 3.65279
# Velocity P-wave (km/s) = 6.44486 6.80965 6.62976
#
# Compressibility (1/GPa) = 0.02209424
#
# Stress axis : x y z
#
# Youngs Moduli (GPa) = 51.36913 120.06075 60.10317
#
# Poissons Ratio (x) = 0.18958 0.38929
# Poissons Ratio (y) = 0.08111 0.18715
# Poissons Ratio (z) = 0.33272 0.37385
#
# Static dielectric constant tensor:
#      x y z
#    x 1.606220 0.000000 0.000000 
#    y 0.000000 1.692230 0.000000 
#    z 0.000000 0.000000 1.703050 
# 
# From -- ./inp_files/41960.got.cif
#   From: 2010.05.17/outbox.cif.g08.bks.cpg/sg64_21_cif.got.tgz:41960.got - 2010.06.03 16:29:19.
