data_PCOD9478805
_publ_section_title
;
Structure prediction by ZEFSAII (Michael W. Deem and Ramdas Pophale) SiO2 
 PCOD9478805
Probable space group: C M C A
;
_chemical_formula_sum "Si O2"
_cell_formula_units_Z 96
_cell_length_a 8.601657
_cell_length_b 24.237969
_cell_length_c 25.965567
_cell_angle_alpha 90.000000
_cell_angle_beta 90.000000
_cell_angle_gamma 90.000000
_cell_volume 5413.475266
_symmetry_space_group_name_H-M "C M C A"
_symmetry_group_IT_number 64
_symmetry_cell_setting 'orthorhombic'
loop_
_space_group_symop_operation_xyz
x,y,z
-x,1/2-y,1/2+z
x,-y,-z
-x,1/2+y,1/2-z
-x,-y,-z
x,1/2+y,1/2-z
-x,y,z
x,1/2-y,1/2+z
1/2+x,1/2+y,z
1/2-x,-y,1/2+z
1/2+x,1/2-y,-z
1/2-x,y,1/2-z
1/2-x,1/2-y,-z
1/2+x,y,1/2-z
1/2-x,1/2+y,z
1/2+x,-y,1/2+z
loop_
_atom_site_type_symbol
_atom_site_label
_atom_site_fract_x
_atom_site_fract_y
_atom_site_fract_z
Si Si1 0.314105 0.437565 0.193011
Si Si2 0.313432 0.935879 0.692771
Si Si3 0.812253 0.132260 0.599574
Si Si4 0.686818 0.365747 0.599191
Si Si5 0.313160 0.251329 0.941543
Si Si6 0.689388 0.937006 0.999756
O O1 0.500000 0.435984 0.194397
O O2 0.250000 0.426040 0.250000
O O3 0.266508 0.500773 0.179358
O O4 0.252619 0.394771 0.151143
O O5 0.500000 0.933216 0.693192
O O6 0.250000 0.924779 0.750000
O O7 0.247217 0.893530 0.651256
O O8 0.766040 0.195107 0.587612
O O9 0.761175 0.095469 0.550738
O O10 0.000000 0.130547 0.601771
O O11 0.500000 0.363849 0.599843
O O12 0.751129 0.305085 0.587581
O O13 0.737280 0.404391 0.551293
O O14 0.500000 0.252716 0.943935
O O15 0.250000 0.250000 0.000000
O O16 0.500000 0.937529 0.999902
O O17 0.743477 0.000000 0.000000
#
# Coordination Sequence:
#
# PCOD9478805 Si02
#       6
#    16  16  16  16  16  16
#     4  10  21  37  59  86 116 150 188 233 285 340
#     4  10  21  38  59  86 117 151 189 232 286 341
#     4  10  20  36  56  81 113 151 192 232 280 338
#     4  11  21  36  58  84 114 151 193 235 285 340
#     4  11  22  38  58  81 114 155 196 238 284 339
#     4   9  17  30  51  80 112 145 182 224 276 338
#
# _framework density 17.733526000000001
#
# number of rings (size 3 to 8) (size 9 to 14) (size 15 to 20)
#    0.000    1.833    1.667    3.000    0.000    4.667 
#    0.000    0.833    0.000    7.500    0.000    0.000 
#    0.000    0.000    0.000    0.000    0.000    0.000 
#
# Total GULP energy -268097.431968 kJ/mol
# GULP energy per Si atom -5585.363166 kJ/mol
# Density = 1.769316 g / cm^3
# Si number density = 17.733526 Si / 1000 Ang^3
#
#
#
# Elastic Constant Matrix: (Units=GPa)
#
#
# Indices 1 2 3 4 5 6 
#
# 1 45.1905 49.7210 42.3791 0.0000 0.0000 0.0000
# 2 49.7210 197.6742 118.8541 0.0000 0.0000 0.0000
# 3 42.3791 118.8541 148.4263 0.0000 0.0000 0.0000
# 4 0.0000 0.0000 0.0000 19.4758 0.0000 0.0000
# 5 0.0000 0.0000 0.0000 0.0000 28.5104 0.0000
# 6 0.0000 0.0000 0.0000 0.0000 0.0000 22.2238
#
#
#
# Elastic Compliance Matrix: (Units=1/GPa)
#
#
# Indices 1 2 3 4 5 6 
#
# 1 0.032617 -0.005023 -0.005290 0.000000 0.000000 0.000000
# 2 -0.005023 0.010530 -0.006998 0.000000 0.000000 0.000000
# 3 -0.005290 -0.006998 0.013851 0.000000 0.000000 0.000000
# 4 0.000000 0.000000 0.000000 0.051346 0.000000 0.000000
# 5 0.000000 0.000000 0.000000 0.000000 0.035075 0.000000
# 6 0.000000 0.000000 0.000000 0.000000 0.000000 0.044997
#
#
# Mechanical properties :
#
#
# Convention : Reuss Voigt Hill
#
# Bulk Modulus (GPa) = 44.69218 90.35550 67.52384
# Shear Modulus (GPa) = 21.69239 26.06446 23.87843
#
# Velocity S-wave (km/s) = 3.50128 3.83794 3.67347
# Velocity P-wave (km/s) = 6.44997 8.40845 7.49347
#
# Compressibility (1/GPa) = 0.02237528
#
# Stress axis : x y z
#
# Youngs Moduli (GPa) = 30.65926 94.97011 72.19566
#
# Poissons Ratio (x) = 0.47704 0.38195
# Poissons Ratio (y) = 0.15400 0.50519
# Poissons Ratio (z) = 0.16220 0.66455
#
# Static dielectric constant tensor:
#      x y z
#    x 1.604260 0.000000 0.000000 
#    y 0.000000 1.595080 0.000000 
#    z 0.000000 0.000000 1.567460 
# 
# From -- ./inp_files/43216.got.cif
#   From: 2010.05.17/outbox.cif.g08.bks.cpg/sg64_22_cif.got.tgz:43216.got - 2010.06.03 16:29:19.
