data_PCOD9478427
_publ_section_title
;
Structure prediction by ZEFSAII (Michael W. Deem and Ramdas Pophale) SiO2 
 PCOD9478427
Probable space group: C M C A
;
_chemical_formula_sum "Si O2"
_cell_formula_units_Z 116
_cell_length_a 19.075134
_cell_length_b 14.764366
_cell_length_c 22.689324
_cell_angle_alpha 90.000000
_cell_angle_beta 90.000000
_cell_angle_gamma 90.000000
_cell_volume 6390.045593
_symmetry_space_group_name_H-M "C M C A"
_symmetry_group_IT_number 64
_symmetry_cell_setting 'orthorhombic'
loop_
_space_group_symop_operation_xyz
x,y,z
-x,1/2-y,1/2+z
x,-y,-z
-x,1/2+y,1/2-z
-x,-y,-z
x,1/2+y,1/2-z
-x,y,z
x,1/2-y,1/2+z
1/2+x,1/2+y,z
1/2-x,-y,1/2+z
1/2+x,1/2-y,-z
1/2-x,y,1/2-z
1/2-x,1/2-y,-z
1/2+x,y,1/2-z
1/2-x,1/2+y,z
1/2+x,-y,1/2+z
loop_
_atom_site_type_symbol
_atom_site_label
_atom_site_fract_x
_atom_site_fract_y
_atom_site_fract_z
Si Si1 0.421261 0.544000 0.278674
Si Si2 0.298916 0.662720 0.134163
Si Si3 0.853096 0.599494 0.491691
Si Si4 0.226103 0.016521 0.683184
Si Si5 0.078777 0.770223 0.783087
Si Si6 0.921957 0.611472 0.693048
Si Si7 0.703788 0.669397 0.889541
Si Si8 0.000000 0.500000 0.500000
O O1 0.500000 0.523240 0.300861
O O2 0.355633 0.509399 0.315335
O O3 0.416349 0.650446 0.265913
O O4 0.415207 0.491249 0.215795
O O5 0.333548 0.635302 0.072355
O O6 0.269717 0.573362 0.166465
O O7 0.358676 0.710998 0.172726
O O8 0.235957 0.733265 0.124389
O O9 0.819319 0.500000 0.500000
O O10 0.819273 0.659598 0.542959
O O11 0.936179 0.577809 0.498337
O O12 0.250000 0.044662 0.750000
O O13 0.242202 0.094226 0.635809
O O14 0.084665 0.674270 0.750757
O O15 0.000000 0.777644 0.808934
O O16 0.865039 0.643491 0.647528
O O17 0.000000 0.622557 0.668395
#
# Coordination Sequence:
#
# PCOD9478427 Si02
#       8
#    16  16  16  16  16  16  16   4
#     4  10  20  34  53  78 121 159 192 239 304 356
#     4  12  24  38  62  87 124 160 204 257 307 377
#     4  10  23  43  60  93 115 159 199 260 315 356
#     4  12  21  36  58  91 119 159 206 246 306 380
#     4  10  21  35  53  85 121 154 193 243 303 360
#     4  10  21  35  53  85 121 154 193 243 303 360
#     4  12  24  38  62  87 124 160 204 257 307 377
#     4   8  20  40  76  84 120 146 222 252 316 382
#
# _framework density 18.153234999999999
#
# number of rings (size 3 to 8) (size 9 to 14) (size 15 to 20)
#    0.414    0.828    4.138    2.069    1.931    0.000 
#    2.483    0.000    0.000    0.000    0.000    0.966 
#    0.000    0.000    0.000    0.000    0.000    0.000 
#
# Total GULP energy -323100.222362 kJ/mol
# GULP energy per Si atom -5570.693489 kJ/mol
# Density = 1.811192 g / cm^3
# Si number density = 18.153235 Si / 1000 Ang^3
#
#
#
# Elastic Constant Matrix: (Units=GPa)
#
#
# Indices 1 2 3 4 5 6 
#
# 1 104.5134 -3.7468 25.1565 0.0000 0.0000 0.0000
# 2 -3.7468 40.3210 -21.2979 0.0000 0.0000 0.0000
# 3 25.1565 -21.2979 34.4126 0.0000 0.0000 0.0000
# 4 0.0000 0.0000 0.0000 16.2119 0.0000 0.0000
# 5 0.0000 0.0000 0.0000 0.0000 15.6638 0.0000
# 6 0.0000 0.0000 0.0000 0.0000 0.0000 29.5186
#
#
#
# Elastic Compliance Matrix: (Units=1/GPa)
#
#
# Indices 1 2 3 4 5 6 
#
# 1 0.012350 -0.005380 -0.012358 0.000000 0.000000 0.000000
# 2 -0.005380 0.039190 0.028187 0.000000 0.000000 0.000000
# 3 -0.012358 0.028187 0.055538 0.000000 0.000000 0.000000
# 4 0.000000 0.000000 0.000000 0.061683 0.000000 0.000000
# 5 0.000000 0.000000 0.000000 0.000000 0.063841 0.000000
# 6 0.000000 0.000000 0.000000 0.000000 0.000000 0.033877
#
#
# Mechanical properties :
#
#
# Convention : Reuss Voigt Hill
#
# Bulk Modulus (GPa) = 7.81388 19.94116 13.87752
# Shear Modulus (GPa) = 17.34678 24.22121 20.78399
#
# Velocity S-wave (km/s) = 3.09459 3.65672 3.38734
# Velocity P-wave (km/s) = 4.13309 5.37006 4.79166
#
# Compressibility (1/GPa) = 0.12797747
#
# Stress axis : x y z
#
# Youngs Moduli (GPa) = 80.97328 25.51685 18.00573
#
# Poissons Ratio (x) = 0.13727 0.22251
# Poissons Ratio (y) = 0.43562 -0.50753
# Poissons Ratio (z) = 1.00063 -0.71925
#
# Static dielectric constant tensor:
#      x y z
#    x 1.646660 0.000000 0.000000 
#    y 0.000000 1.490840 0.000000 
#    z 0.000000 0.000000 1.634120 
# 
# From -- ./inp_files/45912.got.cif
#   From: 2010.05.17/outbox.cif.g08.bks.cpg/sg64_23_cif.got.tgz:45912.got - 2010.06.03 16:29:19.
