data_PCOD9478957
_publ_section_title
;
Structure prediction by ZEFSAII (Michael W. Deem and Ramdas Pophale) SiO2 
 PCOD9478957
Probable space group: C M C A
;
_chemical_formula_sum "Si O2"
_cell_formula_units_Z 68
_cell_length_a 14.003812
_cell_length_b 19.981924
_cell_length_c 10.462231
_cell_angle_alpha 90.000000
_cell_angle_beta 90.000000
_cell_angle_gamma 90.000000
_cell_volume 2927.573986
_symmetry_space_group_name_H-M "C M C A"
_symmetry_group_IT_number 64
_symmetry_cell_setting 'orthorhombic'
loop_
_space_group_symop_operation_xyz
x,y,z
-x,1/2-y,1/2+z
x,-y,-z
-x,1/2+y,1/2-z
-x,-y,-z
x,1/2+y,1/2-z
-x,y,z
x,1/2-y,1/2+z
1/2+x,1/2+y,z
1/2-x,-y,1/2+z
1/2+x,1/2-y,-z
1/2-x,y,1/2-z
1/2-x,1/2-y,-z
1/2+x,y,1/2-z
1/2-x,1/2+y,z
1/2+x,-y,1/2+z
loop_
_atom_site_type_symbol
_atom_site_label
_atom_site_fract_x
_atom_site_fract_y
_atom_site_fract_z
Si Si1 0.111294 0.325495 0.700263
Si Si2 0.724484 0.865358 0.458077
Si Si3 0.610030 0.325418 0.274602
Si Si4 0.000000 0.000000 0.500000
Si Si5 0.679887 0.542470 0.352781
O O1 0.174778 0.324883 0.572657
O O2 0.119465 0.252794 0.764953
O O3 0.144400 0.387005 0.788073
O O4 0.000000 0.334960 0.666874
O O5 0.648697 0.868479 0.343348
O O6 0.820211 0.836170 0.394097
O O7 0.758488 0.932736 0.526346
O O8 0.500000 0.338835 0.307511
O O9 0.915007 0.004222 0.391365
O O10 0.750000 0.509370 0.250000
#
# Coordination Sequence:
#
# PCOD9478957 Si02
#       5
#    16  16  16   4  16
#     4  10  20  36  61  93 133 172 218 255 318 404
#     4  10  22  37  57  90 133 179 208 265 315 394
#     4  10  22  34  56  95 137 182 209 245 315 394
#     4  12  24  52  76  92 124 172 232 312 342 400
#     4  10  24  43  70  97 124 170 229 279 347 400
#
# _framework density 23.227422000000001
#
# number of rings (size 3 to 8) (size 9 to 14) (size 15 to 20)
#    0.000    1.882    1.176    1.412   14.824    0.000 
#    4.235    0.000    0.000    0.706    0.000    0.000 
#    0.000    0.000    0.000    0.000    0.000    0.000 
#
# Total GULP energy -189641.305764 kJ/mol
# GULP energy per Si atom -5577.685464 kJ/mol
# Density = 2.317456 g / cm^3
# Si number density = 23.227422 Si / 1000 Ang^3
#
#
#
# Elastic Constant Matrix: (Units=GPa)
#
#
# Indices 1 2 3 4 5 6 
#
# 1 204.1665 25.2892 71.8717 0.0000 0.0000 0.0000
# 2 25.2892 56.0609 30.8496 0.0000 0.0000 0.0000
# 3 71.8717 30.8496 103.4969 0.0000 0.0000 0.0000
# 4 0.0000 0.0000 0.0000 18.1412 0.0000 0.0000
# 5 0.0000 0.0000 0.0000 0.0000 40.0951 0.0000
# 6 0.0000 0.0000 0.0000 0.0000 0.0000 143.4065
#
#
#
# Elastic Compliance Matrix: (Units=1/GPa)
#
#
# Indices 1 2 3 4 5 6 
#
# 1 0.006496 -0.000536 -0.004351 0.000000 0.000000 0.000000
# 2 -0.000536 0.021382 -0.006001 0.000000 0.000000 0.000000
# 3 -0.004351 -0.006001 0.014473 0.000000 0.000000 0.000000
# 4 0.000000 0.000000 0.000000 0.055123 0.000000 0.000000
# 5 0.000000 0.000000 0.000000 0.000000 0.024941 0.000000
# 6 0.000000 0.000000 0.000000 0.000000 0.000000 0.006973
#
#
# Mechanical properties :
#
#
# Convention : Reuss Voigt Hill
#
# Bulk Modulus (GPa) = 48.60581 68.86059 58.73320
# Shear Modulus (GPa) = 31.64102 56.04280 43.84191
#
# Velocity S-wave (km/s) = 3.69484 4.91734 4.34926
# Velocity P-wave (km/s) = 6.25891 7.87089 7.11073
#
# Compressibility (1/GPa) = 0.02057367
#
# Stress axis : x y z
#
# Youngs Moduli (GPa) = 153.93739 46.76858 69.09566
#
# Poissons Ratio (x) = 0.02506 0.30066
# Poissons Ratio (y) = 0.08250 0.41466
# Poissons Ratio (z) = 0.66984 0.28067
#
# Static dielectric constant tensor:
#      x y z
#    x 1.824150 0.000000 0.000000 
#    y 0.000000 1.932660 0.000000 
#    z 0.000000 0.000000 1.890180 
# 
# From -- ./inp_files/14214.got.cif
#   From: 2010.05.17/outbox.cif.g08.bks.cpg/sg64_8_cif.got.tgz:14214.got - 2010.06.03 16:29:19.
