data_PCOD9478772
_publ_section_title
;
Structure prediction by ZEFSAII (Michael W. Deem and Ramdas Pophale) SiO2 
 PCOD9478772
Probable space group: C M C A
;
_chemical_formula_sum "Si O2"
_cell_formula_units_Z 96
_cell_length_a 10.720783
_cell_length_b 20.520038
_cell_length_c 25.626111
_cell_angle_alpha 90.000000
_cell_angle_beta 90.000000
_cell_angle_gamma 90.000000
_cell_volume 5637.510570
_symmetry_space_group_name_H-M "C M C A"
_symmetry_group_IT_number 64
_symmetry_cell_setting 'orthorhombic'
loop_
_space_group_symop_operation_xyz
x,y,z
-x,1/2-y,1/2+z
x,-y,-z
-x,1/2+y,1/2-z
-x,-y,-z
x,1/2+y,1/2-z
-x,y,z
x,1/2-y,1/2+z
1/2+x,1/2+y,z
1/2-x,-y,1/2+z
1/2+x,1/2-y,-z
1/2-x,y,1/2-z
1/2-x,1/2-y,-z
1/2+x,y,1/2-z
1/2-x,1/2+y,z
1/2+x,-y,1/2+z
loop_
_atom_site_type_symbol
_atom_site_label
_atom_site_fract_x
_atom_site_fract_y
_atom_site_fract_z
Si Si1 0.500000 0.422719 0.638995
Si Si2 0.254787 0.872571 0.688458
Si Si3 0.000000 0.922721 0.361005
Si Si4 0.754787 0.627427 0.688458
Si Si5 0.000000 0.304887 0.937824
Si Si6 0.750000 0.249999 0.884481
Si Si7 0.000000 0.304889 0.062176
Si Si8 0.366318 0.499999 0.789145
O O1 0.621222 0.401019 0.671311
O O2 0.500000 0.499999 0.629088
O O3 0.500000 0.377365 0.587442
O O4 0.250000 0.855605 0.750000
O O5 0.282778 0.810700 0.653021
O O6 0.349807 0.932586 0.680462
O O7 0.878779 0.901020 0.328689
O O8 0.000000 0.877367 0.412559
O O9 0.750000 0.644393 0.750000
O O10 0.782779 0.689299 0.653021
O O11 0.849806 0.567412 0.680462
O O12 0.126779 0.269925 0.917156
O O13 0.000000 0.306659 1.000000
O O14 0.626779 0.230073 0.917155
O O15 0.500000 0.499999 0.762123
O O16 0.250000 0.499999 0.750000
#
# Coordination Sequence:
#
# PCOD9478772 Si02
#       8
#     8  16   8  16   8  16   8  16
#     4  10  20  36  53  83 108 144 182 227 263 326
#     4  10  21  32  55  79 119 148 181 209 264 319
#     4  10  20  36  53  83 108 144 182 227 263 326
#     4  10  21  32  55  79 119 148 181 209 264 319
#     4  10  22  40  61  78 101 139 184 237 288 320
#     4  10  22  38  56  84 108 140 182 230 270 328
#     4  10  22  40  61  78 101 139 184 237 288 320
#     4  10  22  32  52  76 109 156 188 210 251 310
#
# _framework density 17.028793
#
# number of rings (size 3 to 8) (size 9 to 14) (size 15 to 20)
#    0.000    2.000    1.667    1.000   11.667    0.333 
#    0.000    5.000    0.000    0.000    0.000    1.167 
#    0.000    0.000    0.000    0.000    0.000    0.000 
#
# Total GULP energy -267657.132394 kJ/mol
# GULP energy per Si atom -5576.190258 kJ/mol
# Density = 1.699003 g / cm^3
# Si number density = 17.028793 Si / 1000 Ang^3
#
#
#
# Elastic Constant Matrix: (Units=GPa)
#
#
# Indices 1 2 3 4 5 6 
#
# 1 115.9217 57.2343 57.5093 0.0000 0.0000 0.0000
# 2 57.2343 150.0000 82.2029 0.0000 0.0000 0.0000
# 3 57.5093 82.2029 145.1927 0.0000 0.0000 0.0000
# 4 0.0000 0.0000 0.0000 10.0555 0.0000 0.0000
# 5 0.0000 0.0000 0.0000 0.0000 20.4767 0.0000
# 6 0.0000 0.0000 0.0000 0.0000 0.0000 23.3239
#
#
#
# Elastic Compliance Matrix: (Units=1/GPa)
#
#
# Indices 1 2 3 4 5 6 
#
# 1 0.011460 -0.002733 -0.002992 0.000000 0.000000 0.000000
# 2 -0.002733 0.010317 -0.004759 0.000000 0.000000 0.000000
# 3 -0.002992 -0.004759 0.010767 0.000000 0.000000 0.000000
# 4 0.000000 0.000000 0.000000 0.099448 0.000000 0.000000
# 5 0.000000 0.000000 0.000000 0.000000 0.048836 0.000000
# 6 0.000000 0.000000 0.000000 0.000000 0.000000 0.042875
#
#
# Mechanical properties :
#
#
# Convention : Reuss Voigt Hill
#
# Bulk Modulus (GPa) = 86.38013 89.44527 87.91270
# Shear Modulus (GPa) = 20.11832 25.04907 22.58370
#
# Velocity S-wave (km/s) = 3.44092 3.83950 3.64566
# Velocity P-wave (km/s) = 8.16227 8.50268 8.33421
#
# Compressibility (1/GPa) = 0.01157674
#
# Stress axis : x y z
#
# Youngs Moduli (GPa) = 87.25813 96.92317 92.87908
#
# Poissons Ratio (x) = 0.26491 0.27788
# Poissons Ratio (y) = 0.23849 0.44199
# Poissons Ratio (z) = 0.26106 0.46124
#
# Static dielectric constant tensor:
#      x y z
#    x -0.089510 0.000000 0.000000 
#    y 0.000000 1.618110 0.000000 
#    z 0.000000 0.000000 1.561130 
# 
# From -- ./inp_files/44375.got.cif
#   From: 2010.05.17/outbox.cif.g08.bks.cpg/sg64_23_cif.got.tgz:44375.got - 2010.06.03 16:29:19.
