data_PCOD9478485
_publ_section_title
;
Structure prediction by ZEFSAII (Michael W. Deem and Ramdas Pophale) SiO2 
 PCOD9478485
Probable space group: C M C A
;
_chemical_formula_sum "Si O2"
_cell_formula_units_Z 80
_cell_length_a 13.202275
_cell_length_b 10.887389
_cell_length_c 28.188075
_cell_angle_alpha 90.000000
_cell_angle_beta 90.000000
_cell_angle_gamma 90.000000
_cell_volume 4051.706083
_symmetry_space_group_name_H-M "C M C A"
_symmetry_group_IT_number 64
_symmetry_cell_setting 'orthorhombic'
loop_
_space_group_symop_operation_xyz
x,y,z
-x,1/2-y,1/2+z
x,-y,-z
-x,1/2+y,1/2-z
-x,-y,-z
x,1/2+y,1/2-z
-x,y,z
x,1/2-y,1/2+z
1/2+x,1/2+y,z
1/2-x,-y,1/2+z
1/2+x,1/2-y,-z
1/2-x,y,1/2-z
1/2-x,1/2-y,-z
1/2+x,y,1/2-z
1/2-x,1/2+y,z
1/2+x,-y,1/2+z
loop_
_atom_site_type_symbol
_atom_site_label
_atom_site_fract_x
_atom_site_fract_y
_atom_site_fract_z
Si Si1 0.838927 0.893885 0.964666
Si Si2 0.327892 0.574941 0.139752
Si Si3 0.500000 0.206757 0.711775
Si Si4 0.114520 0.687991 0.037387
Si Si5 0.822046 0.698773 0.635413
Si Si6 0.500000 0.935875 0.718282
O O1 0.879146 0.909498 0.911804
O O2 0.715116 0.896445 0.960607
O O3 0.871025 0.767513 0.989653
O O4 0.872020 0.000000 0.000000
O O5 0.255198 0.691077 0.143962
O O6 0.277892 0.439161 0.137264
O O7 0.404227 0.574912 0.183395
O O8 0.404906 0.206755 0.676471
O O9 0.500000 0.325994 0.744483
O O10 0.500000 0.075058 0.738619
O O11 0.129179 0.775522 0.083611
O O12 0.000000 0.635926 0.038935
#
# Coordination Sequence:
#
# PCOD9478485 Si02
#       6
#    16  16   8  16  16   8
#     4  10  20  34  55  83 122 155 193 235 281 343
#     4  10  22  38  59  89 122 153 194 240 290 347
#     4  10  22  42  65  84 114 151 196 246 301 353
#     4  10  20  34  55  84 116 159 196 234 281 342
#     4  10  20  39  61  86 116 156 195 240 291 347
#     4  10  24  42  62  89 116 149 196 248 299 353
#
# _framework density 19.744769000000002
#
# number of rings (size 3 to 8) (size 9 to 14) (size 15 to 20)
#    0.000    2.000    3.000    0.000    1.400    3.200 
#    0.000    4.000    0.000    0.000    0.000    0.000 
#    0.000    0.000    0.000    0.000    0.000    0.000 
#
# Total GULP energy -223063.958426 kJ/mol
# GULP energy per Si atom -5576.598961 kJ/mol
# Density = 1.969983 g / cm^3
# Si number density = 19.744769 Si / 1000 Ang^3
#
#
#
# Elastic Constant Matrix: (Units=GPa)
#
#
# Indices 1 2 3 4 5 6 
#
# 1 77.9600 30.6060 1.0891 0.0000 0.0000 0.0000
# 2 30.6060 138.5985 55.2489 0.0000 0.0000 0.0000
# 3 1.0891 55.2489 82.9233 0.0000 0.0000 0.0000
# 4 0.0000 0.0000 0.0000 39.0609 0.0000 0.0000
# 5 0.0000 0.0000 0.0000 0.0000 17.4023 0.0000
# 6 0.0000 0.0000 0.0000 0.0000 0.0000 11.8382
#
#
#
# Elastic Compliance Matrix: (Units=1/GPa)
#
#
# Indices 1 2 3 4 5 6 
#
# 1 0.014456 -0.004244 0.002638 0.000000 0.000000 0.000000
# 2 -0.004244 0.011070 -0.007320 0.000000 0.000000 0.000000
# 3 0.002638 -0.007320 0.016902 0.000000 0.000000 0.000000
# 4 0.000000 0.000000 0.000000 0.025601 0.000000 0.000000
# 5 0.000000 0.000000 0.000000 0.000000 0.057464 0.000000
# 6 0.000000 0.000000 0.000000 0.000000 0.000000 0.084472
#
#
# Mechanical properties :
#
#
# Convention : Reuss Voigt Hill
#
# Bulk Modulus (GPa) = 40.69010 52.59663 46.64336
# Shear Modulus (GPa) = 21.18563 27.82948 24.50756
#
# Velocity S-wave (km/s) = 3.27918 3.75835 3.52691
# Velocity P-wave (km/s) = 5.91525 6.74757 6.34507
#
# Compressibility (1/GPa) = 0.02457600
#
# Stress axis : x y z
#
# Youngs Moduli (GPa) = 69.17420 90.33356 59.16575
#
# Poissons Ratio (x) = 0.38335 -0.15605
# Poissons Ratio (y) = 0.29355 0.43309
# Poissons Ratio (z) = -0.18245 0.66123
#
# Static dielectric constant tensor:
#      x y z
#    x 1.726260 0.000000 0.000000 
#    y 0.000000 1.704360 0.000000 
#    z 0.000000 0.000000 1.676700 
# 
# From -- ./inp_files/49917.got.cif
#   From: 2010.05.17/outbox.cif.g08.bks.cpg/sg64_25_cif.got.tgz:49917.got - 2010.06.03 16:29:19.
