data_PCOD9478322
_publ_section_title
;
Structure prediction by ZEFSAII (Michael W. Deem and Ramdas Pophale) SiO2 
 PCOD9478322
Probable space group: C M C A
;
_chemical_formula_sum "Si O2"
_cell_formula_units_Z 96
_cell_length_a 22.147480
_cell_length_b 8.946029
_cell_length_c 22.704072
_cell_angle_alpha 90.000000
_cell_angle_beta 90.000000
_cell_angle_gamma 90.000000
_cell_volume 4498.403156
_symmetry_space_group_name_H-M "C M C A"
_symmetry_group_IT_number 64
_symmetry_cell_setting 'orthorhombic'
loop_
_space_group_symop_operation_xyz
x,y,z
-x,1/2-y,1/2+z
x,-y,-z
-x,1/2+y,1/2-z
-x,-y,-z
x,1/2+y,1/2-z
-x,y,z
x,1/2-y,1/2+z
1/2+x,1/2+y,z
1/2-x,-y,1/2+z
1/2+x,1/2-y,-z
1/2-x,y,1/2-z
1/2-x,1/2-y,-z
1/2+x,y,1/2-z
1/2-x,1/2+y,z
1/2+x,-y,1/2+z
loop_
_atom_site_type_symbol
_atom_site_label
_atom_site_fract_x
_atom_site_fract_y
_atom_site_fract_z
Si Si1 0.899580 0.334553 0.498572
Si Si2 0.326942 0.207062 0.604130
Si Si3 0.319693 0.659047 0.269589
Si Si4 0.787894 0.367321 0.580261
Si Si5 0.932383 0.559842 0.937309
Si Si6 0.648628 0.852390 0.170550
O O1 0.924129 0.500000 0.500000
O O2 0.889682 0.284275 0.431603
O O3 0.830720 0.341632 0.524310
O O4 0.934870 0.232594 0.543205
O O5 0.332206 0.246575 0.671928
O O6 0.282362 0.331207 0.575349
O O7 0.301560 0.037376 0.598960
O O8 0.250000 0.681817 0.250000
O O9 0.325908 0.487048 0.289716
O O10 0.363987 0.720696 0.218396
O O11 0.808030 0.240727 0.626902
O O12 0.897670 0.567923 0.875223
O O13 0.000000 0.496627 0.931627
O O14 0.904565 0.500000 0.000000
#
# Coordination Sequence:
#
# PCOD9478322 Si02
#       6
#    16  16  16  16  16  16
#     4   9  20  36  57  87 118 148 192 244 297 346
#     4  11  20  33  53  82 122 162 196 232 279 347
#     4  12  23  35  56  82 120 163 197 231 283 356
#     4  10  20  33  51  81 120 160 197 235 281 338
#     4  10  22  43  68  89 112 148 198 257 316 359
#     4  11  23  39  58  86 120 159 203 247 288 350
#
# _framework density 21.340907000000001
#
# number of rings (size 3 to 8) (size 9 to 14) (size 15 to 20)
#    0.000    1.500    1.667    4.000    0.000    1.667 
#    0.000    1.667    0.000    1.000    0.000    0.000 
#    0.000    0.000    0.000    0.000    0.000    0.000 
#
# Total GULP energy -267454.255505 kJ/mol
# GULP energy per Si atom -5571.963656 kJ/mol
# Density = 2.129233 g / cm^3
# Si number density = 21.340907 Si / 1000 Ang^3
#
#
#
# Elastic Constant Matrix: (Units=GPa)
#
#
# Indices 1 2 3 4 5 6 
#
# 1 44.8617 -1.6643 30.2620 0.0000 0.0000 0.0000
# 2 -1.6643 73.6058 42.1263 0.0000 0.0000 0.0000
# 3 30.2620 42.1263 118.5569 0.0000 0.0000 0.0000
# 4 0.0000 0.0000 0.0000 45.7612 0.0000 0.0000
# 5 0.0000 0.0000 0.0000 0.0000 11.7922 0.0000
# 6 0.0000 0.0000 0.0000 0.0000 0.0000 5.4039
#
#
#
# Elastic Compliance Matrix: (Units=1/GPa)
#
#
# Indices 1 2 3 4 5 6 
#
# 1 0.028979 0.006137 -0.009577 0.000000 0.000000 0.000000
# 2 0.006137 0.018354 -0.008088 0.000000 0.000000 0.000000
# 3 -0.009577 -0.008088 0.013753 0.000000 0.000000 0.000000
# 4 0.000000 0.000000 0.000000 0.021853 0.000000 0.000000
# 5 0.000000 0.000000 0.000000 0.000000 0.084802 0.000000
# 6 0.000000 0.000000 0.000000 0.000000 0.000000 0.185050
#
#
# Mechanical properties :
#
#
# Convention : Reuss Voigt Hill
#
# Bulk Modulus (GPa) = 26.29614 42.05248 34.17431
# Shear Modulus (GPa) = 12.86921 23.67815 18.27368
#
# Velocity S-wave (km/s) = 2.45833 3.33456 2.92939
# Velocity P-wave (km/s) = 4.51736 5.87993 5.24310
#
# Compressibility (1/GPa) = 0.03802840
#
# Stress axis : x y z
#
# Youngs Moduli (GPa) = 34.50778 54.48544 72.70996
#
# Poissons Ratio (x) = -0.33436 0.69638
# Poissons Ratio (y) = -0.21176 0.58807
# Poissons Ratio (z) = 0.33050 0.44067
#
# Static dielectric constant tensor:
#      x y z
#    x 1.817840 0.000000 0.000000 
#    y 0.000000 1.873990 0.000000 
#    z 0.000000 0.000000 1.810040 
# 
# From -- ./inp_files/46614.got.cif
#   From: 2010.05.17/outbox.cif.g08.bks.cpg/sg64_24_cif.got.tgz:46614.got - 2010.06.03 16:29:19.
