data_PCOD9478055
_publ_section_title
;
Structure prediction by ZEFSAII (Michael W. Deem and Ramdas Pophale) SiO2 
 PCOD9478055
Probable space group: C M C A
;
_chemical_formula_sum "Si O2"
_cell_formula_units_Z 96
_cell_length_a 27.149630
_cell_length_b 15.086507
_cell_length_c 11.197765
_cell_angle_alpha 90.000000
_cell_angle_beta 90.000000
_cell_angle_gamma 90.000000
_cell_volume 4586.527090
_symmetry_space_group_name_H-M "C M C A"
_symmetry_group_IT_number 64
_symmetry_cell_setting 'orthorhombic'
loop_
_space_group_symop_operation_xyz
x,y,z
-x,1/2-y,1/2+z
x,-y,-z
-x,1/2+y,1/2-z
-x,-y,-z
x,1/2+y,1/2-z
-x,y,z
x,1/2-y,1/2+z
1/2+x,1/2+y,z
1/2-x,-y,1/2+z
1/2+x,1/2-y,-z
1/2-x,y,1/2-z
1/2-x,1/2-y,-z
1/2+x,y,1/2-z
1/2-x,1/2+y,z
1/2+x,-y,1/2+z
loop_
_atom_site_type_symbol
_atom_site_label
_atom_site_fract_x
_atom_site_fract_y
_atom_site_fract_z
Si Si1 0.000000 0.608510 0.583727
Si Si2 0.500000 0.988127 0.814958
Si Si3 0.675101 0.500000 0.000000
Si Si4 0.500000 0.306929 0.553947
Si Si5 0.668454 0.713549 0.520023
Si Si6 0.104442 0.867873 0.103283
Si Si7 0.080970 0.122235 0.621303
Si Si8 0.264123 0.653116 0.122082
O O1 0.000000 0.529675 0.681739
O O2 0.054771 0.606734 0.529053
O O3 0.000000 0.713175 0.619845
O O4 0.450477 0.031637 0.871001
O O5 0.500000 0.385678 0.651149
O O6 0.639985 0.453028 0.097083
O O7 0.709113 0.576958 0.049583
O O8 0.545859 0.318110 0.463110
O O9 0.633963 0.785485 0.452644
O O10 0.634594 0.632831 0.563490
O O11 0.696424 0.766173 0.626610
O O12 0.713764 0.684306 0.438663
O O13 0.088266 0.850201 0.240055
O O14 0.250000 0.618584 0.250000
#
# Coordination Sequence:
#
# PCOD9478055 Si02
#       8
#     8   8   8   8  16  16  16  16
#     4  10  20  41  67  91 132 177 204 253 326 381
#     4   9  22  39  57  97 140 154 207 270 299 379
#     4  10  24  43  58  84 136 163 208 284 308 390
#     4  11  20  41  64  95 139 166 214 268 307 383
#     4  10  20  38  64  88 120 161 213 266 313 391
#     4  10  21  40  62  92 127 168 213 254 325 386
#     4  10  19  36  64  93 122 165 204 262 315 375
#     4  10  22  41  59  87 120 160 212 268 326 375
#
# _framework density 20.930869000000001
#
# number of rings (size 3 to 8) (size 9 to 14) (size 15 to 20)
#    0.000    2.000    1.667    2.500    0.000    1.667 
#   12.000    8.333    0.000    0.000    0.000    0.000 
#    0.000    0.000    0.000    0.000    0.000    0.000 
#
# Total GULP energy -267301.991149 kJ/mol
# GULP energy per Si atom -5568.791482 kJ/mol
# Density = 2.088323 g / cm^3
# Si number density = 20.930869 Si / 1000 Ang^3
#
#
#
# Elastic Constant Matrix: (Units=GPa)
#
#
# Indices 1 2 3 4 5 6 
#
# 1 154.3454 36.7652 20.8670 0.0000 0.0000 0.0000
# 2 36.7652 80.5863 14.0556 0.0000 0.0000 0.0000
# 3 20.8670 14.0556 41.5019 0.0000 0.0000 0.0000
# 4 0.0000 0.0000 0.0000 2.8551 0.0000 0.0000
# 5 0.0000 0.0000 0.0000 0.0000 16.8226 0.0000
# 6 0.0000 0.0000 0.0000 0.0000 0.0000 -24.3253
#
#
#
# Elastic Compliance Matrix: (Units=1/GPa)
#
#
# Indices 1 2 3 4 5 6 
#
# 1 0.007563 -0.002962 -0.002799 0.000000 0.000000 0.000000
# 2 -0.002962 0.014348 -0.003370 0.000000 0.000000 0.000000
# 3 -0.002799 -0.003370 0.026644 0.000000 0.000000 0.000000
# 4 0.000000 0.000000 0.000000 0.350252 0.000000 0.000000
# 5 0.000000 0.000000 0.000000 0.000000 0.059444 0.000000
# 6 0.000000 0.000000 0.000000 0.000000 0.000000 -0.041110
#
#
# Mechanical properties :
#
#
# Convention : Reuss Voigt Hill
#
# Bulk Modulus (GPa) = 33.01182 46.64548 39.82865
# Shear Modulus (GPa) = 11.22327 12.72019 11.97173
#
# Velocity S-wave (km/s) = 2.31813 2.46788 2.39417
# Velocity P-wave (km/s) = 4.79281 5.51856 5.16844
#
# Compressibility (1/GPa) = 0.03029218
#
# Stress axis : x y z
#
# Youngs Moduli (GPa) = 132.22200 69.69491 37.53166
#
# Poissons Ratio (x) = 0.20645 0.10507
# Poissons Ratio (y) = 0.39166 0.12648
# Poissons Ratio (z) = 0.37015 0.23487
#
# Static dielectric constant tensor:
#      x y z
#    x 1.778190 0.000000 0.000000 
#    y 0.000000 1.766650 0.000000 
#    z 0.000000 0.000000 1.786300 
# 
# From -- ./inp_files/19189.got.cif
#   From: 2010.05.17/outbox.cif.g08.bks.cpg/sg64_10_cif.got.tgz:19189.got - 2010.06.03 16:29:19.
