data_PCOD9478390
_publ_section_title
;
Structure prediction by ZEFSAII (Michael W. Deem and Ramdas Pophale) SiO2 
 PCOD9478390
Probable space group: C M C A
;
_chemical_formula_sum "Si O2"
_cell_formula_units_Z 96
_cell_length_a 19.949235
_cell_length_b 28.945254
_cell_length_c 8.003929
_cell_angle_alpha 90.000000
_cell_angle_beta 90.000000
_cell_angle_gamma 90.000000
_cell_volume 4621.754138
_symmetry_space_group_name_H-M "C M C A"
_symmetry_group_IT_number 64
_symmetry_cell_setting 'orthorhombic'
loop_
_space_group_symop_operation_xyz
x,y,z
-x,1/2-y,1/2+z
x,-y,-z
-x,1/2+y,1/2-z
-x,-y,-z
x,1/2+y,1/2-z
-x,y,z
x,1/2-y,1/2+z
1/2+x,1/2+y,z
1/2-x,-y,1/2+z
1/2+x,1/2-y,-z
1/2-x,y,1/2-z
1/2-x,1/2-y,-z
1/2+x,y,1/2-z
1/2-x,1/2+y,z
1/2+x,-y,1/2+z
loop_
_atom_site_type_symbol
_atom_site_label
_atom_site_fract_x
_atom_site_fract_y
_atom_site_fract_z
Si Si1 0.677047 0.322997 0.795542
Si Si2 0.679435 0.771288 0.346275
Si Si3 0.080781 0.930500 0.434970
Si Si4 0.576977 0.157564 0.786672
Si Si5 0.079627 0.986455 0.776423
Si Si6 0.077714 0.603200 0.434966
O O1 0.750000 0.342529 0.750000
O O2 0.661858 0.283012 0.660308
O O3 0.623433 0.362857 0.825778
O O4 0.682790 0.294000 0.970450
O O5 0.750000 0.777078 0.250000
O O6 0.622385 0.798902 0.248080
O O7 0.105626 0.878343 0.421745
O O8 0.089382 0.954165 0.612775
O O9 0.000000 0.927293 0.410602
O O10 0.108066 0.965126 0.291982
O O11 0.500000 0.170711 0.821590
O O12 0.577840 0.125749 0.618551
O O13 0.100151 0.950744 0.922457
O O14 0.000000 0.994877 0.801375
O O15 0.000000 0.603988 0.377524
#
# Coordination Sequence:
#
# PCOD9478390 Si02
#       6
#    16  16  16  16  16  16
#     4  10  20  34  51  69  91 121 156 191 228 275
#     4  10  20  34  51  69  91 121 156 191 228 275
#     4   8  14  25  42  66  95 124 153 185 223 269
#     4   9  18  31  47  70  97 122 151 189 231 272
#     4   8  14  25  42  66  95 124 153 185 223 269
#     4   9  18  31  47  70  97 122 151 189 231 272
#
# _framework density 20.771332999999998
#
# number of rings (size 3 to 8) (size 9 to 14) (size 15 to 20)
#    0.000    3.000    0.000    3.000    0.000    4.000 
#    0.000    3.333    0.000    1.000    0.000    0.000 
#    0.000    0.000    0.000    0.000    0.000    0.000 
#
# Total GULP energy -267541.651897 kJ/mol
# GULP energy per Si atom -5573.784415 kJ/mol
# Density = 2.072406 g / cm^3
# Si number density = 20.771333 Si / 1000 Ang^3
#
#
#
# Elastic Constant Matrix: (Units=GPa)
#
#
# Indices 1 2 3 4 5 6 
#
# 1 44.6605 26.4843 -2.8294 0.0000 0.0000 0.0000
# 2 26.4843 58.4185 -20.9107 0.0000 0.0000 0.0000
# 3 -2.8294 -20.9107 58.2577 0.0000 0.0000 0.0000
# 4 0.0000 0.0000 0.0000 36.8801 0.0000 0.0000
# 5 0.0000 0.0000 0.0000 0.0000 15.3275 0.0000
# 6 0.0000 0.0000 0.0000 0.0000 0.0000 -3.4709
#
#
#
# Elastic Compliance Matrix: (Units=1/GPa)
#
#
# Indices 1 2 3 4 5 6 
#
# 1 0.031464 -0.015739 -0.004121 0.000000 0.000000 0.000000
# 2 -0.015739 0.027515 0.009112 0.000000 0.000000 0.000000
# 3 -0.004121 0.009112 0.020235 0.000000 0.000000 0.000000
# 4 0.000000 0.000000 0.000000 0.027115 0.000000 0.000000
# 5 0.000000 0.000000 0.000000 0.000000 0.065242 0.000000
# 6 0.000000 0.000000 0.000000 0.000000 0.000000 -0.288110
#
#
# Mechanical properties :
#
#
# Convention : Reuss Voigt Hill
#
# Bulk Modulus (GPa) = 17.32628 18.53611 17.93120
# Shear Modulus (GPa) = -65.96081 20.32019 -22.82031
#
# Velocity S-wave (km/s) = -5.64133 3.13114 -3.31818
# Velocity P-wave (km/s) = 5.83723 4.69205 2.45540
#
# Compressibility (1/GPa) = 0.05771578
#
# Stress axis : x y z
#
# Youngs Moduli (GPa) = 31.78263 36.34397 49.41831
#
# Poissons Ratio (x) = 0.57203 0.20367
# Poissons Ratio (y) = 0.50024 -0.45028
# Poissons Ratio (z) = 0.13099 -0.33115
#
# Static dielectric constant tensor:
#      x y z
#    x 1.687450 0.000000 0.000000 
#    y 0.000000 1.770000 0.000000 
#    z 0.000000 0.000000 1.879980 
# 
# From -- ./inp_files/9614.got.cif
#   From: 2010.05.17/outbox.cif.g08.bks.cpg/sg64_5_cif.got.tgz:9614.got - 2010.06.03 16:29:19.
