data_PCOD9478014
_publ_section_title
;
Structure prediction by ZEFSAII (Michael W. Deem and Ramdas Pophale) SiO2 
 PCOD9478014
Probable space group: C M C A
;
_chemical_formula_sum "Si O2"
_cell_formula_units_Z 60
_cell_length_a 24.775480
_cell_length_b 8.353210
_cell_length_c 12.674393
_cell_angle_alpha 90.000000
_cell_angle_beta 90.000000
_cell_angle_gamma 90.000000
_cell_volume 2623.026307
_symmetry_space_group_name_H-M "C M C A"
_symmetry_group_IT_number 64
_symmetry_cell_setting 'orthorhombic'
loop_
_space_group_symop_operation_xyz
x,y,z
-x,1/2-y,1/2+z
x,-y,-z
-x,1/2+y,1/2-z
-x,-y,-z
x,1/2+y,1/2-z
-x,y,z
x,1/2-y,1/2+z
1/2+x,1/2+y,z
1/2-x,-y,1/2+z
1/2+x,1/2-y,-z
1/2-x,y,1/2-z
1/2-x,1/2-y,-z
1/2+x,y,1/2-z
1/2-x,1/2+y,z
1/2+x,-y,1/2+z
loop_
_atom_site_type_symbol
_atom_site_label
_atom_site_fract_x
_atom_site_fract_y
_atom_site_fract_z
Si Si1 0.692454 0.500000 0.000000
Si Si2 0.127247 0.006468 0.689785
Si Si3 0.204381 0.723891 0.327688
Si Si4 0.595438 0.812108 0.391480
Si Si5 0.000000 0.000000 0.000000
O O1 0.725542 0.388908 0.920752
O O2 0.652016 0.619453 0.937560
O O3 0.165077 0.136138 0.633271
O O4 0.091633 0.104049 0.775301
O O5 0.167001 0.892150 0.757433
O O6 0.096007 0.878624 0.620063
O O7 0.250000 0.789022 0.250000
O O8 0.547478 0.874653 0.462590
#
# Coordination Sequence:
#
# PCOD9478014 Si02
#       5
#     8  16  16  16   4
#     4   9  20  37  60  88 124 160 202 267 328 365
#     4   9  19  36  57  82 123 165 201 254 328 376
#     4  10  19  36  59  87 122 166 217 262 312 386
#     4   9  19  37  60  87 120 160 199 258 321 383
#     4  10  20  36  64  94 120 152 212 258 312 404
#
# _framework density 22.87434
#
# number of rings (size 3 to 8) (size 9 to 14) (size 15 to 20)
#    0.000    2.667    0.000    0.800    0.000    2.133 
#    0.000   22.667    0.000   32.000    0.000    0.000 
#    0.000    0.000    0.000    0.000    0.000    0.000 
#
# Total GULP energy -167100.361875 kJ/mol
# GULP energy per Si atom -5570.012062 kJ/mol
# Density = 2.282228 g / cm^3
# Si number density = 22.874340 Si / 1000 Ang^3
#
#
#
# Elastic Constant Matrix: (Units=GPa)
#
#
# Indices 1 2 3 4 5 6 
#
# 1 50.6423 26.1145 10.2742 0.0000 0.0000 0.0000
# 2 26.1145 151.7529 48.0706 0.0000 0.0000 0.0000
# 3 10.2742 48.0706 49.1318 0.0000 0.0000 0.0000
# 4 0.0000 0.0000 0.0000 45.5070 0.0000 0.0000
# 5 0.0000 0.0000 0.0000 0.0000 -0.8481 0.0000
# 6 0.0000 0.0000 0.0000 0.0000 0.0000 23.8278
#
#
#
# Elastic Compliance Matrix: (Units=1/GPa)
#
#
# Indices 1 2 3 4 5 6 
#
# 1 0.021725 -0.003332 -0.001283 0.000000 0.000000 0.000000
# 2 -0.003332 0.010060 -0.009146 0.000000 0.000000 0.000000
# 3 -0.001283 -0.009146 0.029570 0.000000 0.000000 0.000000
# 4 0.000000 0.000000 0.000000 0.021975 0.000000 0.000000
# 5 0.000000 0.000000 0.000000 0.000000 -1.179084 0.000000
# 6 0.000000 0.000000 0.000000 0.000000 0.000000 0.041968
#
#
# Mechanical properties :
#
#
# Convention : Reuss Voigt Hill
#
# Bulk Modulus (GPa) = 29.55684 46.71620 38.13652
# Shear Modulus (GPa) = -4.92617 24.83518 9.95450
#
# Velocity S-wave (km/s) = -1.46910 3.29860 2.08836
# Velocity P-wave (km/s) = 3.17361 5.91397 4.74588
#
# Compressibility (1/GPa) = 0.03383311
#
# Stress axis : x y z
#
# Youngs Moduli (GPa) = 46.03016 99.40046 33.81772
#
# Poissons Ratio (x) = 0.33122 0.04338
# Poissons Ratio (y) = 0.15338 0.30930
# Poissons Ratio (z) = 0.05905 0.90914
#
# Static dielectric constant tensor:
#      x y z
#    x 1.784390 0.000000 0.000000 
#    y 0.000000 1.850630 0.000000 
#    z 0.000000 0.000000 1.970350 
# 
# From -- ./inp_files/26889.got.cif
#   From: 2010.05.17/outbox.cif.g08.bks.cpg/sg64_14_cif.got.tgz:26889.got - 2010.06.03 16:29:19.
