data_PCOD9478036
_publ_section_title
;
Structure prediction by ZEFSAII (Michael W. Deem and Ramdas Pophale) SiO2 
 PCOD9478036
Probable space group: C M C A
;
_chemical_formula_sum "Si O2"
_cell_formula_units_Z 88
_cell_length_a 26.772615
_cell_length_b 15.476922
_cell_length_c 10.247104
_cell_angle_alpha 90.000000
_cell_angle_beta 90.000000
_cell_angle_gamma 90.000000
_cell_volume 4245.966180
_symmetry_space_group_name_H-M "C M C A"
_symmetry_group_IT_number 64
_symmetry_cell_setting 'orthorhombic'
loop_
_space_group_symop_operation_xyz
x,y,z
-x,1/2-y,1/2+z
x,-y,-z
-x,1/2+y,1/2-z
-x,-y,-z
x,1/2+y,1/2-z
-x,y,z
x,1/2-y,1/2+z
1/2+x,1/2+y,z
1/2-x,-y,1/2+z
1/2+x,1/2-y,-z
1/2-x,y,1/2-z
1/2-x,1/2-y,-z
1/2+x,y,1/2-z
1/2-x,1/2+y,z
1/2+x,-y,1/2+z
loop_
_atom_site_type_symbol
_atom_site_label
_atom_site_fract_x
_atom_site_fract_y
_atom_site_fract_z
Si Si1 0.799703 0.150494 0.662270
Si Si2 0.793465 0.338354 0.645032
Si Si3 0.000000 0.333076 0.654147
Si Si4 0.756793 0.500000 0.000000
Si Si5 0.890103 0.105100 0.844446
Si Si6 0.608563 0.098134 0.353468
Si Si7 0.500000 0.328706 0.157070
O O1 0.750000 0.151264 0.750000
O O2 0.798251 0.241743 0.583967
O O3 0.849435 0.147589 0.750402
O O4 0.792868 0.060260 0.586834
O O5 0.750000 0.333410 0.750000
O O6 0.778550 0.424780 0.563178
O O7 0.846117 0.355118 0.717872
O O8 0.051483 0.383189 0.680001
O O9 0.000000 0.253664 0.751261
O O10 0.000000 0.310635 0.499222
O O11 0.948064 0.123146 0.813131
O O12 0.882775 0.002852 0.840931
O O13 0.883597 0.129372 0.996528
#
# Coordination Sequence:
#
# PCOD9478036 Si02
#       7
#    16  16   8   8  16  16   8
#     4  11  23  38  57  85 118 155 199 248 303 364
#     4  11  23  38  59  86 119 157 201 249 303 368
#     4  10  21  37  61  89 119 156 204 255 307 370
#     4  12  22  38  58  82 118 158 198 246 308 372
#     4  10  20  37  61  85 116 153 200 252 301 365
#     4  10  19  36  61  87 114 155 202 248 302 366
#     4  10  21  39  61  89 121 158 204 255 311 369
#
# _framework density 20.725553999999999
#
# number of rings (size 3 to 8) (size 9 to 14) (size 15 to 20)
#    0.000    1.455    0.000    7.091    0.000    3.636 
#    0.000    7.273    0.000    1.636    0.000    0.000 
#    0.000    0.000    0.000    0.000    0.000    0.000 
#
# Total GULP energy -245300.363720 kJ/mol
# GULP energy per Si atom -5575.008266 kJ/mol
# Density = 2.067838 g / cm^3
# Si number density = 20.725554 Si / 1000 Ang^3
#
#
#
# Elastic Constant Matrix: (Units=GPa)
#
#
# Indices 1 2 3 4 5 6 
#
# 1 171.7076 37.3512 29.5994 0.0000 0.0000 0.0000
# 2 37.3512 138.8765 35.4379 0.0000 0.0000 0.0000
# 3 29.5994 35.4379 19.5920 0.0000 0.0000 0.0000
# 4 0.0000 0.0000 0.0000 30.8796 0.0000 0.0000
# 5 0.0000 0.0000 0.0000 0.0000 33.5837 0.0000
# 6 0.0000 0.0000 0.0000 0.0000 0.0000 26.9672
#
#
#
# Elastic Compliance Matrix: (Units=1/GPa)
#
#
# Indices 1 2 3 4 5 6 
#
# 1 0.008098 0.001753 -0.015406 0.000000 0.000000 0.000000
# 2 0.001753 0.013753 -0.027525 0.000000 0.000000 0.000000
# 3 -0.015406 -0.027525 0.124102 0.000000 0.000000 0.000000
# 4 0.000000 0.000000 0.000000 0.032384 0.000000 0.000000
# 5 0.000000 0.000000 0.000000 0.000000 0.029776 0.000000
# 6 0.000000 0.000000 0.000000 0.000000 0.000000 0.037082
#
#
# Mechanical properties :
#
#
# Convention : Reuss Voigt Hill
#
# Bulk Modulus (GPa) = 15.72351 59.43923 37.58137
# Shear Modulus (GPa) = 14.33695 33.47194 23.90444
#
# Velocity S-wave (km/s) = 2.63297 4.02308 3.39983
# Velocity P-wave (km/s) = 4.10443 7.09378 5.79517
#
# Compressibility (1/GPa) = 0.06359905
#
# Stress axis : x y z
#
# Youngs Moduli (GPa) = 123.48472 72.71288 8.05787
#
# Poissons Ratio (x) = -0.12748 0.12414
# Poissons Ratio (y) = -0.21649 0.22179
# Poissons Ratio (z) = 1.90237 2.00139
#
# Static dielectric constant tensor:
#      x y z
#    x 1.898140 0.000000 0.000000 
#    y 0.000000 1.759300 0.000000 
#    z 0.000000 0.000000 1.797800 
# 
# From -- ./inp_files/19096.got.cif
#   From: 2010.05.17/outbox.cif.g08.bks.cpg/sg64_10_cif.got.tgz:19096.got - 2010.06.03 16:29:19.
