data_PCOD9478203
_publ_section_title
;
Structure prediction by ZEFSAII (Michael W. Deem and Ramdas Pophale) SiO2 
 PCOD9478203
Probable space group: C M C A
;
_chemical_formula_sum "Si O2"
_cell_formula_units_Z 96
_cell_length_a 20.246861
_cell_length_b 18.815636
_cell_length_c 12.195398
_cell_angle_alpha 90.000000
_cell_angle_beta 90.000000
_cell_angle_gamma 90.000000
_cell_volume 4645.929147
_symmetry_space_group_name_H-M "C M C A"
_symmetry_group_IT_number 64
_symmetry_cell_setting 'orthorhombic'
loop_
_space_group_symop_operation_xyz
x,y,z
-x,1/2-y,1/2+z
x,-y,-z
-x,1/2+y,1/2-z
-x,-y,-z
x,1/2+y,1/2-z
-x,y,z
x,1/2-y,1/2+z
1/2+x,1/2+y,z
1/2-x,-y,1/2+z
1/2+x,1/2-y,-z
1/2-x,y,1/2-z
1/2-x,1/2-y,-z
1/2+x,y,1/2-z
1/2-x,1/2+y,z
1/2+x,-y,1/2+z
loop_
_atom_site_type_symbol
_atom_site_label
_atom_site_fract_x
_atom_site_fract_y
_atom_site_fract_z
Si Si1 0.074201 0.421887 0.176646
Si Si2 0.126801 0.694323 0.483508
Si Si3 0.816521 0.666212 0.698763
Si Si4 0.173386 0.333305 0.752197
Si Si5 0.420145 0.351100 0.543106
Si Si6 0.000000 0.982001 0.809058
Si Si7 0.500000 0.890968 0.486123
O O1 0.125305 0.380234 0.250733
O O2 0.000000 0.388861 0.186810
O O3 0.061353 0.499785 0.228850
O O4 0.089618 0.412156 0.048673
O O5 0.184902 0.674134 0.567623
O O6 0.142020 0.659745 0.367345
O O7 0.107481 0.777711 0.486622
O O8 0.063544 0.655903 0.533428
O O9 0.750000 0.636895 0.750000
O O10 0.824434 0.747673 0.735036
O O11 0.250000 0.358607 0.750000
O O12 0.125839 0.359428 0.849886
O O13 0.500000 0.345583 0.566832
O O14 0.000000 0.913774 0.885113
O O15 0.000000 0.043451 0.902757
#
# Coordination Sequence:
#
# PCOD9478203 Si02
#       7
#    16  16  16  16  16   8   8
#     4   9  17  34  53  75 110 141 177 233 273 327
#     4  11  20  33  53  79 114 145 184 230 277 327
#     4  10  20  30  50  78 112 150 181 216 269 338
#     4  10  23  33  47  76 119 154 175 216 275 340
#     4  10  20  31  53  80 112 151 190 223 272 340
#     4   9  20  35  55  79 109 129 183 235 294 317
#     4  11  20  33  55  87 103 137 181 241 286 323
#
# _framework density 20.663250999999999
#
# number of rings (size 3 to 8) (size 9 to 14) (size 15 to 20)
#    0.500    1.500    4.167    0.000    3.500    2.667 
#    0.000    0.000    0.000    3.000    0.000    0.000 
#    0.000    0.000    0.000    0.000    0.000    0.000 
#
# Total GULP energy -267345.592482 kJ/mol
# GULP energy per Si atom -5569.699843 kJ/mol
# Density = 2.061622 g / cm^3
# Si number density = 20.663251 Si / 1000 Ang^3
#
#
#
# Elastic Constant Matrix: (Units=GPa)
#
#
# Indices 1 2 3 4 5 6 
#
# 1 76.3724 11.5581 54.1671 0.0000 0.0000 0.0000
# 2 11.5581 33.5167 0.8581 0.0000 0.0000 0.0000
# 3 54.1671 0.8581 120.5035 0.0000 0.0000 0.0000
# 4 0.0000 0.0000 0.0000 23.1075 0.0000 0.0000
# 5 0.0000 0.0000 0.0000 0.0000 21.8442 0.0000
# 6 0.0000 0.0000 0.0000 0.0000 0.0000 -839.5603
#
#
#
# Elastic Compliance Matrix: (Units=1/GPa)
#
#
# Indices 1 2 3 4 5 6 
#
# 1 0.020704 -0.006903 -0.009258 0.000000 0.000000 0.000000
# 2 -0.006903 0.032143 0.002874 0.000000 0.000000 0.000000
# 3 -0.009258 0.002874 0.012439 0.000000 0.000000 0.000000
# 4 0.000000 0.000000 0.000000 0.043276 0.000000 0.000000
# 5 0.000000 0.000000 0.000000 0.000000 0.045779 0.000000
# 6 0.000000 0.000000 0.000000 0.000000 0.000000 -0.001191
#
#
# Mechanical properties :
#
#
# Convention : Reuss Voigt Hill
#
# Bulk Modulus (GPa) = 25.83074 40.39548 33.11311
# Shear Modulus (GPa) = 25.95685 -148.00109 -61.02212
#
# Velocity S-wave (km/s) = 3.54811 -8.47235 -5.44020
# Velocity P-wave (km/s) = 5.41419 8.72444 4.83748
#
# Compressibility (1/GPa) = 0.03871357
#
# Stress axis : x y z
#
# Youngs Moduli (GPa) = 48.29903 31.11130 80.38977
#
# Poissons Ratio (x) = 0.21476 0.74422
# Poissons Ratio (y) = 0.33340 -0.23104
# Poissons Ratio (z) = 0.44713 -0.08941
#
# Static dielectric constant tensor:
#      x y z
#    x 1.768250 0.000000 0.000000 
#    y 0.000000 1.723900 0.000000 
#    z 0.000000 0.000000 1.813750 
# 
# From -- ./inp_files/16262.got.cif
#   From: 2010.05.17/outbox.cif.g08.bks.cpg/sg64_9_cif.got.tgz:16262.got - 2010.06.03 16:29:19.
