data_PCOD9478623
_publ_section_title
;
Structure prediction by ZEFSAII (Michael W. Deem and Ramdas Pophale) SiO2 
 PCOD9478623
Probable space group: C M C A
;
_chemical_formula_sum "Si O2"
_cell_formula_units_Z 88
_cell_length_a 15.375900
_cell_length_b 15.418214
_cell_length_c 20.060349
_cell_angle_alpha 90.000000
_cell_angle_beta 90.000000
_cell_angle_gamma 90.000000
_cell_volume 4755.685205
_symmetry_space_group_name_H-M "C M C A"
_symmetry_group_IT_number 64
_symmetry_cell_setting 'orthorhombic'
loop_
_space_group_symop_operation_xyz
x,y,z
-x,1/2-y,1/2+z
x,-y,-z
-x,1/2+y,1/2-z
-x,-y,-z
x,1/2+y,1/2-z
-x,y,z
x,1/2-y,1/2+z
1/2+x,1/2+y,z
1/2-x,-y,1/2+z
1/2+x,1/2-y,-z
1/2-x,y,1/2-z
1/2-x,1/2-y,-z
1/2+x,y,1/2-z
1/2-x,1/2+y,z
1/2+x,-y,1/2+z
loop_
_atom_site_type_symbol
_atom_site_label
_atom_site_fract_x
_atom_site_fract_y
_atom_site_fract_z
Si Si1 0.401594 0.324280 0.110604
Si Si2 0.168496 0.364877 0.882817
Si Si3 0.398360 0.170536 0.761316
Si Si4 0.250000 0.190055 0.250000
Si Si5 0.400326 0.557809 0.608384
Si Si6 0.743085 0.899591 0.485395
O O1 0.500000 0.346528 0.092154
O O2 0.391036 0.220411 0.117091
O O3 0.383003 0.360390 0.185185
O O4 0.332637 0.357488 0.057546
O O5 0.218294 0.364704 0.812716
O O6 0.118245 0.455073 0.891590
O O7 0.235600 0.356195 0.944069
O O8 0.500000 0.199146 0.763888
O O9 0.329550 0.247466 0.772207
O O10 0.386957 0.098475 0.818185
O O11 0.500000 0.574229 0.588459
O O12 0.331617 0.600037 0.558000
O O13 0.721601 0.000000 0.500000
#
# Coordination Sequence:
#
# PCOD9478623 Si02
#       6
#    16  16  16   8  16  16
#     4  10  20  36  57  79 109 143 175 219 265 311
#     4  10  21  35  54  81 106 138 180 218 265 318
#     4   9  19  35  56  80 103 138 180 211 257 317
#     4  10  20  36  56  74 110 144 166 222 272 306
#     4  10  20  35  56  80 107 137 175 223 264 308
#     4  10  22  36  53  79 108 140 181 216 259 322
#
# _framework density 18.504168
#
# number of rings (size 3 to 8) (size 9 to 14) (size 15 to 20)
#    0.000    2.182    0.000    3.273    0.000    8.727 
#    0.000    2.727    0.000    1.091    0.000    0.000 
#    0.000    0.000    0.000    0.000    0.000    0.000 
#
# Total GULP energy -245573.886352 kJ/mol
# GULP energy per Si atom -5581.224690 kJ/mol
# Density = 1.846205 g / cm^3
# Si number density = 18.504168 Si / 1000 Ang^3
#
#
#
# Elastic Constant Matrix: (Units=GPa)
#
#
# Indices 1 2 3 4 5 6 
#
# 1 85.1089 15.1613 46.5971 0.0000 0.0000 0.0000
# 2 15.1613 22.6815 23.2955 0.0000 0.0000 0.0000
# 3 46.5971 23.2955 100.9654 0.0000 0.0000 0.0000
# 4 0.0000 0.0000 0.0000 35.0036 0.0000 0.0000
# 5 0.0000 0.0000 0.0000 0.0000 22.6872 0.0000
# 6 0.0000 0.0000 0.0000 0.0000 0.0000 15.1819
#
#
#
# Elastic Compliance Matrix: (Units=1/GPa)
#
#
# Indices 1 2 3 4 5 6 
#
# 1 0.016005 -0.004078 -0.006446 0.000000 0.000000 0.000000
# 2 -0.004078 0.058821 -0.011689 0.000000 0.000000 0.000000
# 3 -0.006446 -0.011689 0.015576 0.000000 0.000000 0.000000
# 4 0.000000 0.000000 0.000000 0.028568 0.000000 0.000000
# 5 0.000000 0.000000 0.000000 0.000000 0.044078 0.000000
# 6 0.000000 0.000000 0.000000 0.000000 0.000000 0.065868
#
#
# Mechanical properties :
#
#
# Convention : Reuss Voigt Hill
#
# Bulk Modulus (GPa) = 21.75079 42.09595 31.92337
# Shear Modulus (GPa) = 17.32095 22.82135 20.07115
#
# Velocity S-wave (km/s) = 3.06282 3.51566 3.29703
# Velocity P-wave (km/s) = 4.92828 6.26727 5.63767
#
# Compressibility (1/GPa) = 0.04597534
#
# Stress axis : x y z
#
# Youngs Moduli (GPa) = 62.47981 17.00082 64.20057
#
# Poissons Ratio (x) = 0.06934 0.41381
# Poissons Ratio (y) = 0.25482 0.75046
# Poissons Ratio (z) = 0.40272 0.19873
#
# Static dielectric constant tensor:
#      x y z
#    x 1.628080 0.000000 0.000000 
#    y 0.000000 1.623220 0.000000 
#    z 0.000000 0.000000 1.644610 
# 
# From -- ./inp_files/32172.got.cif
#   From: 2010.05.17/outbox.cif.g08.bks.cpg/sg64_17_cif.got.tgz:32172.got - 2010.06.03 16:29:19.
