data_PCOD9478015
_publ_section_title
;
Structure prediction by ZEFSAII (Michael W. Deem and Ramdas Pophale) SiO2 
 PCOD9478015
Probable space group: C M C A
;
_chemical_formula_sum "Si O2"
_cell_formula_units_Z 80
_cell_length_a 7.522291
_cell_length_b 26.400357
_cell_length_c 23.466709
_cell_angle_alpha 90.000000
_cell_angle_beta 90.000000
_cell_angle_gamma 90.000000
_cell_volume 4660.281146
_symmetry_space_group_name_H-M "C M C A"
_symmetry_group_IT_number 64
_symmetry_cell_setting 'orthorhombic'
loop_
_space_group_symop_operation_xyz
x,y,z
-x,1/2-y,1/2+z
x,-y,-z
-x,1/2+y,1/2-z
-x,-y,-z
x,1/2+y,1/2-z
-x,y,z
x,1/2-y,1/2+z
1/2+x,1/2+y,z
1/2-x,-y,1/2+z
1/2+x,1/2-y,-z
1/2-x,y,1/2-z
1/2-x,1/2-y,-z
1/2+x,y,1/2-z
1/2-x,1/2+y,z
1/2+x,-y,1/2+z
loop_
_atom_site_type_symbol
_atom_site_label
_atom_site_fract_x
_atom_site_fract_y
_atom_site_fract_z
Si Si1 0.500000 0.985169 0.902277
Si Si2 0.784828 0.259882 0.584993
Si Si3 0.212539 0.445839 0.683167
Si Si4 0.711722 0.329300 0.814953
Si Si5 0.203140 0.165484 0.981780
Si Si6 0.000000 0.918384 0.483895
O O1 0.670591 0.977727 0.861115
O O2 0.500000 0.038067 0.936097
O O3 0.500000 0.943701 0.953310
O O4 0.720494 0.287037 0.642043
O O5 0.736623 0.298853 0.534384
O O6 0.713452 0.204352 0.571096
O O7 0.000000 0.255770 0.584941
O O8 0.250000 0.457805 0.750000
O O9 0.272365 0.387018 0.674798
O O10 0.000000 0.449890 0.673610
O O11 0.500000 0.331256 0.822900
O O12 0.750000 0.316413 0.750000
O O13 0.330013 0.117855 0.977036
O O14 0.000000 0.150164 0.991931
#
# Coordination Sequence:
#
# PCOD9478015 Si02
#       6
#     8  16  16  16  16   8
#     4  11  24  38  60  85 110 157 182 233 298 329
#     4   9  17  32  52  79 110 146 183 218 269 328
#     4  10  19  36  59  88 116 143 188 235 285 343
#     4   9  18  29  47  79 115 142 169 221 280 331
#     4  10  20  35  56  79 108 148 188 227 267 325
#     4  11  24  40  54  83 122 146 190 232 284 338
#
# _framework density 17.166346000000001
#
# number of rings (size 3 to 8) (size 9 to 14) (size 15 to 20)
#    0.000    2.200    2.000    1.200    2.800    4.000 
#    0.000    2.000    0.000    1.200    0.000    0.000 
#    0.000    0.000    0.000    0.000    0.000    0.000 
#
# Total GULP energy -223131.560005 kJ/mol
# GULP energy per Si atom -5578.289000 kJ/mol
# Density = 1.712727 g / cm^3
# Si number density = 17.166346 Si / 1000 Ang^3
#
#
#
# Elastic Constant Matrix: (Units=GPa)
#
#
# Indices 1 2 3 4 5 6 
#
# 1 97.3599 50.5233 37.8225 0.0000 0.0000 0.0000
# 2 50.5233 109.5288 60.8082 0.0000 0.0000 0.0000
# 3 37.8225 60.8082 95.4532 0.0000 0.0000 0.0000
# 4 0.0000 0.0000 0.0000 37.0340 0.0000 0.0000
# 5 0.0000 0.0000 0.0000 0.0000 8.6323 0.0000
# 6 0.0000 0.0000 0.0000 0.0000 0.0000 20.9335
#
#
#
# Elastic Compliance Matrix: (Units=1/GPa)
#
#
# Indices 1 2 3 4 5 6 
#
# 1 0.013792 -0.005149 -0.002185 0.000000 0.000000 0.000000
# 2 -0.005149 0.016048 -0.008183 0.000000 0.000000 0.000000
# 3 -0.002185 -0.008183 0.016555 0.000000 0.000000 0.000000
# 4 0.000000 0.000000 0.000000 0.027002 0.000000 0.000000
# 5 0.000000 0.000000 0.000000 0.000000 0.115844 0.000000
# 6 0.000000 0.000000 0.000000 0.000000 0.000000 0.047770
#
#
# Mechanical properties :
#
#
# Convention : Reuss Voigt Hill
#
# Bulk Modulus (GPa) = 65.09866 66.73889 65.91878
# Shear Modulus (GPa) = 18.30384 23.53249 20.91817
#
# Velocity S-wave (km/s) = 3.26891 3.70652 3.49457
# Velocity P-wave (km/s) = 7.22857 7.56834 7.40041
#
# Compressibility (1/GPa) = 0.01536130
#
# Stress axis : x y z
#
# Youngs Moduli (GPa) = 72.50644 62.31175 60.40400
#
# Poissons Ratio (x) = 0.32084 0.13197
# Poissons Ratio (y) = 0.37333 0.49431
# Poissons Ratio (z) = 0.15841 0.50992
#
# Static dielectric constant tensor:
#      x y z
#    x 1.641650 0.000000 0.000000 
#    y 0.000000 1.558990 0.000000 
#    z 0.000000 0.000000 1.573980 
# 
# From -- ./inp_files/36732.got.cif
#   From: 2010.05.17/outbox.cif.g08.bks.cpg/sg64_19_cif.got.tgz:36732.got - 2010.06.03 16:29:19.
