data_PCOD9478735
_publ_section_title
;
Structure prediction by ZEFSAII (Michael W. Deem and Ramdas Pophale) SiO2 
 PCOD9478735
Probable space group: C M C A
;
_chemical_formula_sum "Si O2"
_cell_formula_units_Z 96
_cell_length_a 20.670669
_cell_length_b 14.500330
_cell_length_c 14.891059
_cell_angle_alpha 90.000000
_cell_angle_beta 90.000000
_cell_angle_gamma 90.000000
_cell_volume 4463.319776
_symmetry_space_group_name_H-M "C M C A"
_symmetry_group_IT_number 64
_symmetry_cell_setting 'orthorhombic'
loop_
_space_group_symop_operation_xyz
x,y,z
-x,1/2-y,1/2+z
x,-y,-z
-x,1/2+y,1/2-z
-x,-y,-z
x,1/2+y,1/2-z
-x,y,z
x,1/2-y,1/2+z
1/2+x,1/2+y,z
1/2-x,-y,1/2+z
1/2+x,1/2-y,-z
1/2-x,y,1/2-z
1/2-x,1/2-y,-z
1/2+x,y,1/2-z
1/2-x,1/2+y,z
1/2+x,-y,1/2+z
loop_
_atom_site_type_symbol
_atom_site_label
_atom_site_fract_x
_atom_site_fract_y
_atom_site_fract_z
Si Si1 0.072159 0.714488 0.197484
Si Si2 0.691728 0.048571 0.582947
Si Si3 0.213920 0.794685 0.412467
Si Si4 0.427806 0.190185 0.881552
Si Si5 0.930138 0.839793 0.024772
Si Si6 0.317079 0.115711 0.291752
O O1 0.076948 0.794093 0.274482
O O2 0.077114 0.759613 0.099837
O O3 0.128647 0.643847 0.220561
O O4 0.000000 0.674262 0.206553
O O5 0.736879 0.128051 0.623583
O O6 0.630647 0.097132 0.537844
O O7 0.729176 0.000000 0.500000
O O8 0.664634 0.971139 0.648308
O O9 0.250000 0.750000 0.500000
O O10 0.142099 0.841819 0.419945
O O11 0.201018 0.707819 0.347832
O O12 0.500000 0.148583 0.901134
O O13 0.430799 0.291277 0.928261
O O14 0.000000 0.884520 0.040451
O O15 0.250000 0.085118 0.250000
#
# Coordination Sequence:
#
# PCOD9478735 Si02
#       6
#    16  16  16  16  16  16
#     4   9  19  37  59  84 118 159 196 240 300 364
#     4  12  23  37  59  89 119 157 203 252 314 362
#     4  11  20  39  63  83 118 159 193 250 310 366
#     4   9  18  34  59  87 112 150 200 241 293 361
#     4  10  20  35  60  89 121 159 199 245 303 368
#     4  11  24  37  58  89 120 157 203 250 298 360
#
# _framework density 21.508654
#
# number of rings (size 3 to 8) (size 9 to 14) (size 15 to 20)
#    0.000    1.667    3.333    2.000    0.000    4.333 
#    0.000    0.000    0.000    1.500    0.000    0.000 
#    0.000    0.000    0.000    0.000    0.000    0.000 
#
# Total GULP energy -267563.580352 kJ/mol
# GULP energy per Si atom -5574.241257 kJ/mol
# Density = 2.145970 g / cm^3
# Si number density = 21.508654 Si / 1000 Ang^3
#
#
#
# Elastic Constant Matrix: (Units=GPa)
#
#
# Indices 1 2 3 4 5 6 
#
# 1 115.4975 6.5688 -15.7931 0.0000 0.0000 0.0000
# 2 6.5688 52.5325 -6.5165 0.0000 0.0000 0.0000
# 3 -15.7931 -6.5165 29.9688 0.0000 0.0000 0.0000
# 4 0.0000 0.0000 0.0000 12.2504 0.0000 0.0000
# 5 0.0000 0.0000 0.0000 0.0000 29.7920 0.0000
# 6 0.0000 0.0000 0.0000 0.0000 0.0000 -2.1742
#
#
#
# Elastic Compliance Matrix: (Units=1/GPa)
#
#
# Indices 1 2 3 4 5 6 
#
# 1 0.009347 -0.000573 0.004801 0.000000 0.000000 0.000000
# 2 -0.000573 0.019599 0.003960 0.000000 0.000000 0.000000
# 3 0.004801 0.003960 0.036759 0.000000 0.000000 0.000000
# 4 0.000000 0.000000 0.000000 0.081630 0.000000 0.000000
# 5 0.000000 0.000000 0.000000 0.000000 0.033566 0.000000
# 6 0.000000 0.000000 0.000000 0.000000 0.000000 -0.459937
#
#
# Mechanical properties :
#
#
# Convention : Reuss Voigt Hill
#
# Bulk Modulus (GPa) = 12.18320 18.50191 15.34255
# Shear Modulus (GPa) = -18.65322 22.22293 1.78486
#
# Velocity S-wave (km/s) = -2.94809 3.21784 0.91194
# Velocity P-wave (km/s) = 2.43140 4.73569 2.87359
#
# Compressibility (1/GPa) = 0.08208025
#
# Stress axis : x y z
#
# Youngs Moduli (GPa) = 106.98260 51.02387 27.20407
#
# Poissons Ratio (x) = 0.02925 -0.13061
# Poissons Ratio (y) = 0.06132 -0.10771
# Poissons Ratio (z) = -0.51365 -0.20203
#
# Static dielectric constant tensor:
#      x y z
#    x 1.899000 0.000000 0.000000 
#    y 0.000000 1.768980 0.000000 
#    z 0.000000 0.000000 1.850330 
# 
# From -- ./inp_files/26288.got.cif
#   From: 2010.05.17/outbox.cif.g08.bks.cpg/sg64_14_cif.got.tgz:26288.got - 2010.06.03 16:29:19.
