data_PCOD9478584
_publ_section_title
;
Structure prediction by ZEFSAII (Michael W. Deem and Ramdas Pophale) SiO2 
 PCOD9478584
Probable space group: C M C A
;
_chemical_formula_sum "Si O2"
_cell_formula_units_Z 116
_cell_length_a 23.191430
_cell_length_b 28.728145
_cell_length_c 9.651359
_cell_angle_alpha 90.000000
_cell_angle_beta 90.000000
_cell_angle_gamma 90.000000
_cell_volume 6430.186700
_symmetry_space_group_name_H-M "C M C A"
_symmetry_group_IT_number 64
_symmetry_cell_setting 'orthorhombic'
loop_
_space_group_symop_operation_xyz
x,y,z
-x,1/2-y,1/2+z
x,-y,-z
-x,1/2+y,1/2-z
-x,-y,-z
x,1/2+y,1/2-z
-x,y,z
x,1/2-y,1/2+z
1/2+x,1/2+y,z
1/2-x,-y,1/2+z
1/2+x,1/2-y,-z
1/2-x,y,1/2-z
1/2-x,1/2-y,-z
1/2+x,y,1/2-z
1/2-x,1/2+y,z
1/2+x,-y,1/2+z
loop_
_atom_site_type_symbol
_atom_site_label
_atom_site_fract_x
_atom_site_fract_y
_atom_site_fract_z
Si Si1 0.231068 0.455176 0.409386
Si Si2 0.567666 0.647698 0.692649
Si Si3 0.902284 0.929953 0.085007
Si Si4 0.633445 0.322738 0.576166
Si Si5 0.000000 0.000000 0.000000
Si Si6 0.253691 0.865455 0.588873
Si Si7 0.114430 0.151247 0.115992
Si Si8 0.066516 0.272537 0.419820
O O1 0.248193 0.500000 0.500000
O O2 0.250000 0.458522 0.250000
O O3 0.161838 0.450127 0.412440
O O4 0.254207 0.408658 0.485269
O O5 0.500000 0.642504 0.661378
O O6 0.588305 0.604893 0.786684
O O7 0.604563 0.653099 0.555260
O O8 0.573881 0.694344 0.786058
O O9 0.908421 0.896639 0.949549
O O10 0.949712 0.969270 0.078044
O O11 0.702416 0.328674 0.568264
O O12 0.613652 0.346697 0.719207
O O13 0.610179 0.270213 0.581092
O O14 0.250000 0.881496 0.750000
O O15 0.318197 0.845606 0.570138
O O16 0.079666 0.193875 0.049642
O O17 0.000000 0.256193 0.425336
#
# Coordination Sequence:
#
# PCOD9478584 Si02
#       8
#    16  16  16  16   4  16  16  16
#     4  11  21  36  60  86 111 146 191 236 288 344
#     4  10  20  35  54  82 119 149 185 237 283 326
#     4  10  21  39  62  86 112 152 192 234 282 344
#     4  11  20  34  57  81 115 149 185 237 286 328
#     4  12  20  40  68  86 112 152 200 236 276 356
#     4   9  20  38  55  79 112 146 183 235 287 334
#     4   9  21  38  58  82 113 148 191 229 279 337
#     4  10  21  36  54  81 112 153 195 227 270 340
#
# _framework density 18.039911
#
# number of rings (size 3 to 8) (size 9 to 14) (size 15 to 20)
#    0.000    1.931    1.379    2.483    0.966    2.759 
#    0.000    1.379    0.000    0.828    0.000    0.000 
#    0.000    0.000    0.000    0.000    0.000    0.000 
#
# Total GULP energy -323257.373898 kJ/mol
# GULP energy per Si atom -5573.402998 kJ/mol
# Density = 1.799885 g / cm^3
# Si number density = 18.039911 Si / 1000 Ang^3
#
#
#
# Elastic Constant Matrix: (Units=GPa)
#
#
# Indices 1 2 3 4 5 6 
#
# 1 59.5379 26.5399 28.1709 0.0000 0.0000 0.0000
# 2 26.5399 70.5282 32.8840 0.0000 0.0000 0.0000
# 3 28.1709 32.8840 88.7049 0.0000 0.0000 0.0000
# 4 0.0000 0.0000 0.0000 10.1764 0.0000 0.0000
# 5 0.0000 0.0000 0.0000 0.0000 21.4752 0.0000
# 6 0.0000 0.0000 0.0000 0.0000 0.0000 2.1553
#
#
#
# Elastic Compliance Matrix: (Units=1/GPa)
#
#
# Indices 1 2 3 4 5 6 
#
# 1 0.021668 -0.005979 -0.004665 0.000000 0.000000 0.000000
# 2 -0.005979 0.018791 -0.005067 0.000000 0.000000 0.000000
# 3 -0.004665 -0.005067 0.014633 0.000000 0.000000 0.000000
# 4 0.000000 0.000000 0.000000 0.098267 0.000000 0.000000
# 5 0.000000 0.000000 0.000000 0.000000 0.046565 0.000000
# 6 0.000000 0.000000 0.000000 0.000000 0.000000 0.463964
#
#
# Mechanical properties :
#
#
# Convention : Reuss Voigt Hill
#
# Bulk Modulus (GPa) = 42.24645 43.77340 43.00992
# Shear Modulus (GPa) = 7.11034 15.50647 11.30840
#
# Velocity S-wave (km/s) = 1.98746 2.93501 2.50642
# Velocity P-wave (km/s) = 5.36058 5.98357 5.68063
#
# Compressibility (1/GPa) = 0.02367063
#
# Stress axis : x y z
#
# Youngs Moduli (GPa) = 46.15002 53.21627 68.33678
#
# Poissons Ratio (x) = 0.31817 0.31880
# Poissons Ratio (y) = 0.27592 0.34629
# Poissons Ratio (z) = 0.21529 0.26967
#
# Static dielectric constant tensor:
#      x y z
#    x 1.607540 0.000000 0.000000 
#    y 0.000000 1.640450 0.000000 
#    z 0.000000 0.000000 1.611780 
# 
# From -- ./inp_files/9724.got.cif
#   From: 2010.05.17/outbox.cif.g08.bks.cpg/sg64_5_cif.got.tgz:9724.got - 2010.06.03 16:29:19.
