data_PCOD9478065
_publ_section_title
;
Structure prediction by ZEFSAII (Michael W. Deem and Ramdas Pophale) SiO2 
 PCOD9478065
Probable space group: C M C A
;
_chemical_formula_sum "Si O2"
_cell_formula_units_Z 80
_cell_length_a 21.471817
_cell_length_b 21.342294
_cell_length_c 10.184133
_cell_angle_alpha 90.000000
_cell_angle_beta 90.000000
_cell_angle_gamma 90.000000
_cell_volume 4666.958701
_symmetry_space_group_name_H-M "C M C A"
_symmetry_group_IT_number 64
_symmetry_cell_setting 'orthorhombic'
loop_
_space_group_symop_operation_xyz
x,y,z
-x,1/2-y,1/2+z
x,-y,-z
-x,1/2+y,1/2-z
-x,-y,-z
x,1/2+y,1/2-z
-x,y,z
x,1/2-y,1/2+z
1/2+x,1/2+y,z
1/2-x,-y,1/2+z
1/2+x,1/2-y,-z
1/2-x,y,1/2-z
1/2-x,1/2-y,-z
1/2+x,y,1/2-z
1/2-x,1/2+y,z
1/2+x,-y,1/2+z
loop_
_atom_site_type_symbol
_atom_site_label
_atom_site_fract_x
_atom_site_fract_y
_atom_site_fract_z
Si Si1 0.000000 0.297150 0.987196
Si Si2 0.872141 0.135346 0.477448
Si Si3 0.000000 0.676810 0.702826
Si Si4 0.750000 0.052886 0.750000
Si Si5 0.137760 0.853274 0.217262
Si Si6 0.820084 0.000000 0.500000
Si Si7 0.207490 0.237846 0.375517
O O1 0.060075 0.337939 0.948715
O O2 0.000000 0.231687 0.907368
O O3 0.000000 0.293167 0.148268
O O4 0.857279 0.157692 0.626193
O O5 0.823697 0.170280 0.384522
O O6 0.862070 0.061321 0.475716
O O7 0.936006 0.636458 0.692488
O O8 0.807782 0.095389 0.804617
O O9 0.778231 0.014320 0.628232
O O10 0.155525 0.791465 0.136727
O O11 0.250000 0.244164 0.250000
O O12 0.250000 0.250000 0.500000
#
# Coordination Sequence:
#
# PCOD9478065 Si02
#       7
#     8  16   8   8  16   8  16
#     4  10  20  35  56  82 112 147 180 222 280 340
#     4  10  21  36  55  80 111 146 185 227 274 327
#     4  10  20  34  56  83 114 147 176 224 288 348
#     4  10  20  40  58  80 108 148 190 232 274 330
#     4  10  19  37  56  80 116 144 176 230 291 337
#     4  10  22  39  54  79 110 148 192 226 268 324
#     4  12  20  31  53  83 109 139 177 232 287 328
#
# _framework density 17.141783
#
# number of rings (size 3 to 8) (size 9 to 14) (size 15 to 20)
#    0.000    1.600    5.000    1.200    1.400    0.400 
#    0.000    1.000    0.000    0.600    0.000    0.000 
#    0.000    0.000    0.000    0.000    0.000    0.000 
#
# Total GULP energy -222819.120745 kJ/mol
# GULP energy per Si atom -5570.478019 kJ/mol
# Density = 1.710277 g / cm^3
# Si number density = 17.141783 Si / 1000 Ang^3
#
#
#
# Elastic Constant Matrix: (Units=GPa)
#
#
# Indices 1 2 3 4 5 6 
#
# 1 111.7024 34.1352 23.9230 0.0000 0.0000 0.0000
# 2 34.1352 80.2399 19.3760 0.0000 0.0000 0.0000
# 3 23.9230 19.3760 51.2669 0.0000 0.0000 0.0000
# 4 0.0000 0.0000 0.0000 28.4967 0.0000 0.0000
# 5 0.0000 0.0000 0.0000 0.0000 13.4184 0.0000
# 6 0.0000 0.0000 0.0000 0.0000 0.0000 20.9998
#
#
#
# Elastic Compliance Matrix: (Units=1/GPa)
#
#
# Indices 1 2 3 4 5 6 
#
# 1 0.010881 -0.003745 -0.003662 0.000000 0.000000 0.000000
# 2 -0.003745 0.015003 -0.003923 0.000000 0.000000 0.000000
# 3 -0.003662 -0.003923 0.022697 0.000000 0.000000 0.000000
# 4 0.000000 0.000000 0.000000 0.035092 0.000000 0.000000
# 5 0.000000 0.000000 0.000000 0.000000 0.074525 0.000000
# 6 0.000000 0.000000 0.000000 0.000000 0.000000 0.047619
#
#
# Mechanical properties :
#
#
# Convention : Reuss Voigt Hill
#
# Bulk Modulus (GPa) = 38.57754 44.23085 41.40420
# Shear Modulus (GPa) = 21.08663 23.63464 22.36063
#
# Velocity S-wave (km/s) = 3.51113 3.71721 3.61564
# Velocity P-wave (km/s) = 6.24429 6.65451 6.45266
#
# Compressibility (1/GPa) = 0.02592182
#
# Stress axis : x y z
#
# Youngs Moduli (GPa) = 91.90326 66.65368 44.05805
#
# Poissons Ratio (x) = 0.24959 0.16135
# Poissons Ratio (y) = 0.34414 0.17283
# Poissons Ratio (z) = 0.33657 0.26147
#
# Static dielectric constant tensor:
#      x y z
#    x 1.617180 0.000000 0.000000 
#    y 0.000000 1.560250 0.000000 
#    z 0.000000 0.000000 1.574200 
# 
# From -- ./inp_files/9301.got.cif
#   From: 2010.05.17/outbox.cif.g08.bks.cpg/sg64_5_cif.got.tgz:9301.got - 2010.06.03 16:29:19.
