data_PCOD9478909
_publ_section_title
;
Structure prediction by ZEFSAII (Michael W. Deem and Ramdas Pophale) SiO2 
 PCOD9478909
Probable space group: C M C A
;
_chemical_formula_sum "Si O2"
_cell_formula_units_Z 112
_cell_length_a 13.998721
_cell_length_b 32.171148
_cell_length_c 12.882060
_cell_angle_alpha 90.000000
_cell_angle_beta 90.000000
_cell_angle_gamma 90.000000
_cell_volume 5801.499166
_symmetry_space_group_name_H-M "C M C A"
_symmetry_group_IT_number 64
_symmetry_cell_setting 'orthorhombic'
loop_
_space_group_symop_operation_xyz
x,y,z
-x,1/2-y,1/2+z
x,-y,-z
-x,1/2+y,1/2-z
-x,-y,-z
x,1/2+y,1/2-z
-x,y,z
x,1/2-y,1/2+z
1/2+x,1/2+y,z
1/2-x,-y,1/2+z
1/2+x,1/2-y,-z
1/2-x,y,1/2-z
1/2-x,1/2-y,-z
1/2+x,y,1/2-z
1/2-x,1/2+y,z
1/2+x,-y,1/2+z
loop_
_atom_site_type_symbol
_atom_site_label
_atom_site_fract_x
_atom_site_fract_y
_atom_site_fract_z
Si Si1 0.224541 0.386592 0.022716
Si Si2 0.614683 0.655557 0.338778
Si Si3 0.806452 0.976772 0.398487
Si Si4 0.109633 0.009516 0.187052
Si Si5 0.741987 0.700340 0.628112
Si Si6 0.386671 0.261775 0.540365
Si Si7 0.111381 0.105839 0.138098
O O1 0.154504 0.374866 0.927555
O O2 0.325236 0.392615 0.964392
O O3 0.193253 0.427870 0.081400
O O4 0.230295 0.347711 0.099364
O O5 0.500000 0.653897 0.340325
O O6 0.642275 0.701855 0.377032
O O7 0.643242 0.639524 0.224640
O O8 0.867516 0.991324 0.300344
O O9 0.695976 0.990813 0.380638
O O10 0.842702 0.000000 0.500000
O O11 0.000000 0.000149 0.155195
O O12 0.120785 0.059534 0.185936
O O13 0.750000 0.706930 0.750000
O O14 0.654982 0.724017 0.570700
O O15 0.835503 0.719654 0.573934
O O16 0.500000 0.258583 0.538205
O O17 0.000000 0.112811 0.115255
#
# Coordination Sequence:
#
# PCOD9478909 Si02
#       7
#    16  16  16  16  16  16  16
#     4  11  22  36  58  84 121 153 195 237 293 356
#     4   9  19  35  60  89 116 148 191 244 297 345
#     4  11  22  37  61  83 113 156 198 244 295 349
#     4  10  23  39  56  82 114 150 196 246 292 344
#     4  10  23  39  60  88 123 159 193 238 289 345
#     4   9  20  41  63  87 118 156 198 239 289 346
#     4  10  20  36  59  87 116 147 192 247 297 343
#
# _framework density 19.305354999999999
#
# number of rings (size 3 to 8) (size 9 to 14) (size 15 to 20)
#    0.000    2.000    1.429    1.286    4.000    6.286 
#    0.000    1.429    0.000    0.000    0.000    0.000 
#    0.000    0.000    0.000    0.000    0.000    0.000 
#
# Total GULP energy -312688.896595 kJ/mol
# GULP energy per Si atom -5583.730296 kJ/mol
# Density = 1.926142 g / cm^3
# Si number density = 19.305355 Si / 1000 Ang^3
#
#
#
# Elastic Constant Matrix: (Units=GPa)
#
#
# Indices 1 2 3 4 5 6 
#
# 1 42.5187 1.1417 -14.7825 0.0000 0.0000 0.0000
# 2 1.1417 57.6857 8.8766 0.0000 0.0000 0.0000
# 3 -14.7825 8.8766 60.3317 0.0000 0.0000 0.0000
# 4 0.0000 0.0000 0.0000 15.6169 0.0000 0.0000
# 5 0.0000 0.0000 0.0000 0.0000 14.4863 0.0000
# 6 0.0000 0.0000 0.0000 0.0000 0.0000 13.7073
#
#
#
# Elastic Compliance Matrix: (Units=1/GPa)
#
#
# Indices 1 2 3 4 5 6 
#
# 1 0.025839 -0.001520 0.006555 0.000000 0.000000 0.000000
# 2 -0.001520 0.017826 -0.002995 0.000000 0.000000 0.000000
# 3 0.006555 -0.002995 0.018622 0.000000 0.000000 0.000000
# 4 0.000000 0.000000 0.000000 0.064033 0.000000 0.000000
# 5 0.000000 0.000000 0.000000 0.000000 0.069031 0.000000
# 6 0.000000 0.000000 0.000000 0.000000 0.000000 0.072954
#
#
# Mechanical properties :
#
#
# Convention : Reuss Voigt Hill
#
# Bulk Modulus (GPa) = 15.06805 16.77865 15.92335
# Shear Modulus (GPa) = 17.46131 19.78213 18.62172
#
# Velocity S-wave (km/s) = 3.01072 3.20456 3.10915
# Velocity P-wave (km/s) = 4.46183 4.73311 4.59947
#
# Compressibility (1/GPa) = 0.06636559
#
# Stress axis : x y z
#
# Youngs Moduli (GPa) = 38.70158 56.09690 53.70070
#
# Poissons Ratio (x) = 0.08527 -0.35199
# Poissons Ratio (y) = 0.05883 0.16085
# Poissons Ratio (z) = -0.25368 0.16802
#
# Static dielectric constant tensor:
#      x y z
#    x 1.668530 0.000000 0.000000 
#    y 0.000000 1.667010 0.000000 
#    z 0.000000 0.000000 1.652570 
# 
# From -- ./inp_files/14962.got.cif
#   From: 2010.05.17/outbox.cif.g08.bks.cpg/sg64_8_cif.got.tgz:14962.got - 2010.06.03 16:29:19.
