data_PCOD9478498
_publ_section_title
;
Structure prediction by ZEFSAII (Michael W. Deem and Ramdas Pophale) SiO2 
 PCOD9478498
Probable space group: C M C A
;
_chemical_formula_sum "Si O2"
_cell_formula_units_Z 80
_cell_length_a 13.668876
_cell_length_b 23.890578
_cell_length_c 10.750978
_cell_angle_alpha 90.000000
_cell_angle_beta 90.000000
_cell_angle_gamma 90.000000
_cell_volume 3510.810867
_symmetry_space_group_name_H-M "C M C A"
_symmetry_group_IT_number 64
_symmetry_cell_setting 'orthorhombic'
loop_
_space_group_symop_operation_xyz
x,y,z
-x,1/2-y,1/2+z
x,-y,-z
-x,1/2+y,1/2-z
-x,-y,-z
x,1/2+y,1/2-z
-x,y,z
x,1/2-y,1/2+z
1/2+x,1/2+y,z
1/2-x,-y,1/2+z
1/2+x,1/2-y,-z
1/2-x,y,1/2-z
1/2-x,1/2-y,-z
1/2+x,y,1/2-z
1/2-x,1/2+y,z
1/2+x,-y,1/2+z
loop_
_atom_site_type_symbol
_atom_site_label
_atom_site_fract_x
_atom_site_fract_y
_atom_site_fract_z
Si Si1 0.830397 0.918752 0.026743
Si Si2 0.887227 0.203832 0.428966
Si Si3 0.138295 0.011039 0.211405
Si Si4 0.106915 0.422678 0.949644
Si Si5 0.779947 0.307975 0.376307
O O1 0.872732 0.943215 0.898623
O O2 0.710919 0.930421 0.020839
O O3 0.839553 0.852503 0.042289
O O4 0.879000 0.952623 0.140622
O O5 0.880655 0.139151 0.387521
O O6 0.840464 0.252318 0.345442
O O7 0.818990 0.206658 0.550774
O O8 0.000000 0.216125 0.453103
O O9 0.250000 0.009798 0.250000
O O10 0.096075 0.031708 0.341486
O O11 0.000000 0.420354 0.016815
O O12 0.750000 0.338240 0.250000
#
# Coordination Sequence:
#
# PCOD9478498 Si02
#       5
#    16  16  16  16  16
#     4   9  18  33  52  77 107 139 179 223 272 324
#     4   9  20  37  55  80 111 143 184 229 271 327
#     4   9  17  32  53  74 102 142 176 211 263 322
#     4   9  18  34  56  79 105 140 184 227 266 317
#     4  10  20  34  56  82 109 144 183 225 279 333
#
# _framework density 22.786759
#
# number of rings (size 3 to 8) (size 9 to 14) (size 15 to 20)
#    0.000    2.800    0.000    0.600    0.000    6.400 
#    0.000   14.000    0.000    7.200    0.000    5.600 
#    0.000    0.000    0.000    0.000    0.000    0.000 
#
# Total GULP energy -222789.025347 kJ/mol
# GULP energy per Si atom -5569.725634 kJ/mol
# Density = 2.273490 g / cm^3
# Si number density = 22.786759 Si / 1000 Ang^3
#
#
#
# Elastic Constant Matrix: (Units=GPa)
#
#
# Indices 1 2 3 4 5 6 
#
# 1 90.1604 27.2607 -6.9020 0.0000 0.0000 0.0000
# 2 27.2607 103.1918 10.6854 0.0000 0.0000 0.0000
# 3 -6.9020 10.6854 32.8348 0.0000 0.0000 0.0000
# 4 0.0000 0.0000 0.0000 23.1414 0.0000 0.0000
# 5 0.0000 0.0000 0.0000 0.0000 209.6565 0.0000
# 6 0.0000 0.0000 0.0000 0.0000 0.0000 51.3573
#
#
#
# Elastic Compliance Matrix: (Units=1/GPa)
#
#
# Indices 1 2 3 4 5 6 
#
# 1 0.012503 -0.003700 0.003832 0.000000 0.000000 0.000000
# 2 -0.003700 0.011123 -0.004398 0.000000 0.000000 0.000000
# 3 0.003832 -0.004398 0.032692 0.000000 0.000000 0.000000
# 4 0.000000 0.000000 0.000000 0.043213 0.000000 0.000000
# 5 0.000000 0.000000 0.000000 0.000000 0.004770 0.000000
# 6 0.000000 0.000000 0.000000 0.000000 0.000000 0.019471
#
#
# Mechanical properties :
#
#
# Convention : Reuss Voigt Hill
#
# Bulk Modulus (GPa) = 20.92547 32.03057 26.47802
# Shear Modulus (GPa) = 33.73072 69.84059 51.78566
#
# Velocity S-wave (km/s) = 3.85161 5.54222 4.77237
# Velocity P-wave (km/s) = 5.38358 7.41903 6.48171
#
# Compressibility (1/GPa) = 0.04778866
#
# Stress axis : x y z
#
# Youngs Moduli (GPa) = 79.97808 89.89982 30.58833
#
# Poissons Ratio (x) = 0.33262 -0.11723
# Poissons Ratio (y) = 0.29591 0.13452
# Poissons Ratio (z) = -0.30650 0.39535
#
# Static dielectric constant tensor:
#      x y z
#    x 1.938200 0.000000 0.000000 
#    y 0.000000 1.886430 0.000000 
#    z 0.000000 0.000000 1.836980 
# 
# From -- ./inp_files/14453.got.cif
#   From: 2010.05.17/outbox.cif.g08.bks.cpg/sg64_8_cif.got.tgz:14453.got - 2010.06.03 16:29:19.
