data_PCOD9478221
_publ_section_title
;
Structure prediction by ZEFSAII (Michael W. Deem and Ramdas Pophale) SiO2 
 PCOD9478221
Probable space group: C M C A
;
_chemical_formula_sum "Si O2"
_cell_formula_units_Z 80
_cell_length_a 23.697022
_cell_length_b 5.233604
_cell_length_c 34.375900
_cell_angle_alpha 90.000000
_cell_angle_beta 90.000000
_cell_angle_gamma 90.000000
_cell_volume 4263.327620
_symmetry_space_group_name_H-M "C M C A"
_symmetry_group_IT_number 64
_symmetry_cell_setting 'orthorhombic'
loop_
_space_group_symop_operation_xyz
x,y,z
-x,1/2-y,1/2+z
x,-y,-z
-x,1/2+y,1/2-z
-x,-y,-z
x,1/2+y,1/2-z
-x,y,z
x,1/2-y,1/2+z
1/2+x,1/2+y,z
1/2-x,-y,1/2+z
1/2+x,1/2-y,-z
1/2-x,y,1/2-z
1/2-x,1/2-y,-z
1/2+x,y,1/2-z
1/2-x,1/2+y,z
1/2+x,-y,1/2+z
loop_
_atom_site_type_symbol
_atom_site_label
_atom_site_fract_x
_atom_site_fract_y
_atom_site_fract_z
Si Si1 0.784455 0.012428 0.453181
Si Si2 0.564112 0.253150 0.983180
Si Si3 0.603984 0.613532 0.596524
Si Si4 0.432200 0.599094 0.859975
Si Si5 0.568524 0.747349 0.272109
O O1 0.763173 0.298386 0.444577
O O2 0.793185 0.000000 0.500000
O O3 0.837476 0.937234 0.426136
O O4 0.500000 0.257774 0.998784
O O5 0.564551 0.230062 0.937429
O O6 0.594279 0.500000 0.000000
O O7 0.590210 0.000000 0.000000
O O8 0.581843 0.343047 0.612740
O O9 0.600766 0.840781 0.628049
O O10 0.500000 0.549586 0.861286
O O11 0.416699 0.683426 0.816216
O O12 0.587657 0.472344 0.256802
O O13 0.500000 0.741933 0.271002
#
# Coordination Sequence:
#
# PCOD9478221 Si02
#       5
#    16  16  16  16  16
#     4  10  22  40  59  77  99 134 184 237 282 321
#     4  10  20  32  46  66  96 137 176 203 239 303
#     4  12  22  35  54  77 108 139 176 224 278 319
#     4  11  22  34  52  82 117 148 176 211 260 319
#     4   9  17  31  50  72 105 148 183 208 241 297
#
# _framework density 18.764685
#
# number of rings (size 3 to 8) (size 9 to 14) (size 15 to 20)
#    0.000    1.600    0.000    6.000    0.000    7.200 
#    0.000    0.000    0.000    0.000    0.000    0.000 
#    0.000   56.000    0.000    0.000    0.000    0.000 
#
# Total GULP energy -223095.431569 kJ/mol
# GULP energy per Si atom -5577.385789 kJ/mol
# Density = 1.872198 g / cm^3
# Si number density = 18.764685 Si / 1000 Ang^3
#
#
#
# Elastic Constant Matrix: (Units=GPa)
#
#
# Indices 1 2 3 4 5 6 
#
# 1 50.4712 11.7662 11.9250 0.0000 0.0000 0.0000
# 2 11.7662 95.4940 0.8648 0.0000 0.0000 0.0000
# 3 11.9250 0.8648 53.2679 0.0000 0.0000 0.0000
# 4 0.0000 0.0000 0.0000 38.3627 0.0000 0.0000
# 5 0.0000 0.0000 0.0000 0.0000 13.0794 0.0000
# 6 0.0000 0.0000 0.0000 0.0000 0.0000 78.2288
#
#
#
# Elastic Compliance Matrix: (Units=1/GPa)
#
#
# Indices 1 2 3 4 5 6 
#
# 1 0.021552 -0.002612 -0.004782 0.000000 0.000000 0.000000
# 2 -0.002612 0.010790 0.000410 0.000000 0.000000 0.000000
# 3 -0.004782 0.000410 0.019837 0.000000 0.000000 0.000000
# 4 0.000000 0.000000 0.000000 0.026067 0.000000 0.000000
# 5 0.000000 0.000000 0.000000 0.000000 0.076456 0.000000
# 6 0.000000 0.000000 0.000000 0.000000 0.000000 0.012783
#
#
# Mechanical properties :
#
#
# Convention : Reuss Voigt Hill
#
# Bulk Modulus (GPa) = 26.17173 27.59389 26.88281
# Shear Modulus (GPa) = 25.74776 37.57932 31.66354
#
# Velocity S-wave (km/s) = 3.70826 4.47997 4.11225
# Velocity P-wave (km/s) = 5.68441 6.44184 6.07494
#
# Compressibility (1/GPa) = 0.03820917
#
# Stress axis : x y z
#
# Youngs Moduli (GPa) = 46.39892 92.67828 50.41080
#
# Poissons Ratio (x) = 0.24210 0.24109
# Poissons Ratio (y) = 0.12120 -0.02065
# Poissons Ratio (z) = 0.22190 -0.03796
#
# Static dielectric constant tensor:
#      x y z
#    x 1.648370 0.000000 0.000000 
#    y 0.000000 1.698560 0.000000 
#    z 0.000000 0.000000 1.662780 
# 
# From -- ./inp_files/53849.got.cif
#   From: 2010.05.17/outbox.cif.g08.bks.cpg/sg64_27_cif.got.tgz:53849.got - 2010.06.03 16:29:19.
