data_PCOD9478524
_publ_section_title
;
Structure prediction by ZEFSAII (Michael W. Deem and Ramdas Pophale) SiO2 
 PCOD9478524
Probable space group: C M C A
;
_chemical_formula_sum "Si O2"
_cell_formula_units_Z 104
_cell_length_a 18.239272
_cell_length_b 14.348105
_cell_length_c 22.038541
_cell_angle_alpha 90.000000
_cell_angle_beta 90.000000
_cell_angle_gamma 90.000000
_cell_volume 5767.463916
_symmetry_space_group_name_H-M "C M C A"
_symmetry_group_IT_number 64
_symmetry_cell_setting 'orthorhombic'
loop_
_space_group_symop_operation_xyz
x,y,z
-x,1/2-y,1/2+z
x,-y,-z
-x,1/2+y,1/2-z
-x,-y,-z
x,1/2+y,1/2-z
-x,y,z
x,1/2-y,1/2+z
1/2+x,1/2+y,z
1/2-x,-y,1/2+z
1/2+x,1/2-y,-z
1/2-x,y,1/2-z
1/2-x,1/2-y,-z
1/2+x,y,1/2-z
1/2-x,1/2+y,z
1/2+x,-y,1/2+z
loop_
_atom_site_type_symbol
_atom_site_label
_atom_site_fract_x
_atom_site_fract_y
_atom_site_fract_z
Si Si1 0.915138 0.182300 0.133575
Si Si2 0.914118 0.386785 0.078779
Si Si3 0.821952 0.608804 0.708900
Si Si4 0.217968 0.539389 0.380003
Si Si5 0.692797 0.500000 0.500000
Si Si6 0.365243 0.524675 0.312933
Si Si7 0.580603 0.718822 0.277145
O O1 0.903227 0.279745 0.098471
O O2 0.850842 0.108770 0.120018
O O3 0.910315 0.204988 0.205064
O O4 0.000000 0.151248 0.121804
O O5 0.860671 0.419277 0.025214
O O6 0.893138 0.454106 0.135379
O O7 0.000000 0.399750 0.064222
O O8 0.750000 0.624563 0.750000
O O9 0.806766 0.561712 0.644440
O O10 0.865216 0.532766 0.750036
O O11 0.861711 0.705892 0.701365
O O12 0.256814 0.533972 0.444790
O O13 0.283097 0.559231 0.331079
O O14 0.411330 0.618007 0.306944
O O15 0.500000 0.757523 0.288442
#
# Coordination Sequence:
#
# PCOD9478524 Si02
#       7
#    16  16  16  16   8  16  16
#     4  10  21  35  58  87 115 149 187 230 289 349
#     4  10  20  38  60  86 116 148 190 241 287 336
#     4  10  21  34  55  82 116 150 184 229 285 340
#     4  10  22  39  58  83 114 151 198 239 279 334
#     4  10  23  40  59  80 108 156 204 240 283 324
#     4  10  20  34  57  86 117 151 183 232 287 344
#     4  11  22  33  54  89 122 151 180 221 288 358
#
# _framework density 18.03219
#
# number of rings (size 3 to 8) (size 9 to 14) (size 15 to 20)
#    0.000    1.846    3.077    0.692    2.154    1.846 
#    0.000    1.923    0.000    3.692    0.000    0.000 
#    0.000    0.000    0.000    0.000    0.000    0.000 
#
# Total GULP energy -290061.162808 kJ/mol
# GULP energy per Si atom -5578.099285 kJ/mol
# Density = 1.799115 g / cm^3
# Si number density = 18.032190 Si / 1000 Ang^3
#
#
#
# Elastic Constant Matrix: (Units=GPa)
#
#
# Indices 1 2 3 4 5 6 
#
# 1 80.5976 32.2088 -4.3100 0.0000 0.0000 0.0000
# 2 32.2088 54.5494 -14.5218 0.0000 0.0000 0.0000
# 3 -4.3100 -14.5218 27.8048 0.0000 0.0000 0.0000
# 4 0.0000 0.0000 0.0000 10.8325 0.0000 0.0000
# 5 0.0000 0.0000 0.0000 0.0000 19.7030 0.0000
# 6 0.0000 0.0000 0.0000 0.0000 0.0000 175.5578
#
#
#
# Elastic Compliance Matrix: (Units=1/GPa)
#
#
# Indices 1 2 3 4 5 6 
#
# 1 0.016442 -0.010488 -0.002929 0.000000 0.000000 0.000000
# 2 -0.010488 0.027982 0.012989 0.000000 0.000000 0.000000
# 3 -0.002929 0.012989 0.042295 0.000000 0.000000 0.000000
# 4 0.000000 0.000000 0.000000 0.092315 0.000000 0.000000
# 5 0.000000 0.000000 0.000000 0.000000 0.050754 0.000000
# 6 0.000000 0.000000 0.000000 0.000000 0.000000 0.005696
#
#
# Mechanical properties :
#
#
# Convention : Reuss Voigt Hill
#
# Bulk Modulus (GPa) = 11.64644 21.07841 16.36243
# Shear Modulus (GPa) = 18.87075 51.19031 35.03053
#
# Velocity S-wave (km/s) = 3.23848 5.33385 4.41235
# Velocity P-wave (km/s) = 4.52287 7.04613 5.92049
#
# Compressibility (1/GPa) = 0.08586313
#
# Stress axis : x y z
#
# Youngs Moduli (GPa) = 60.82029 35.73677 23.64361
#
# Poissons Ratio (x) = 0.37480 0.06925
# Poissons Ratio (y) = 0.63787 -0.30710
# Poissons Ratio (z) = 0.17814 -0.46418
#
# Static dielectric constant tensor:
#      x y z
#    x 1.649210 0.000000 0.000000 
#    y 0.000000 1.601990 0.000000 
#    z 0.000000 0.000000 1.605700 
# 
# From -- ./inp_files/40262.got.cif
#   From: 2010.05.17/outbox.cif.g08.bks.cpg/sg64_21_cif.got.tgz:40262.got - 2010.06.03 16:29:19.
