data_PCOD9478464
_publ_section_title
;
Structure prediction by ZEFSAII (Michael W. Deem and Ramdas Pophale) SiO2 
 PCOD9478464
Probable space group: C M C A
;
_chemical_formula_sum "Si O2"
_cell_formula_units_Z 104
_cell_length_a 9.354500
_cell_length_b 27.446893
_cell_length_c 21.847160
_cell_angle_alpha 90.000000
_cell_angle_beta 90.000000
_cell_angle_gamma 90.000000
_cell_volume 5609.301163
_symmetry_space_group_name_H-M "C M C A"
_symmetry_group_IT_number 64
_symmetry_cell_setting 'orthorhombic'
loop_
_space_group_symop_operation_xyz
x,y,z
-x,1/2-y,1/2+z
x,-y,-z
-x,1/2+y,1/2-z
-x,-y,-z
x,1/2+y,1/2-z
-x,y,z
x,1/2-y,1/2+z
1/2+x,1/2+y,z
1/2-x,-y,1/2+z
1/2+x,1/2-y,-z
1/2-x,y,1/2-z
1/2-x,1/2-y,-z
1/2+x,y,1/2-z
1/2-x,1/2+y,z
1/2+x,-y,1/2+z
loop_
_atom_site_type_symbol
_atom_site_label
_atom_site_fract_x
_atom_site_fract_y
_atom_site_fract_z
Si Si1 0.334882 0.180089 0.964979
Si Si2 0.839930 0.908193 0.076875
Si Si3 0.771767 0.000000 0.000000
Si Si4 0.173513 0.649143 0.184578
Si Si5 0.327447 0.048054 0.813083
Si Si6 0.834428 0.263954 0.905416
Si Si7 0.668639 0.550372 0.378480
O O1 0.500000 0.167924 0.951860
O O2 0.234404 0.133207 0.963297
O O3 0.270211 0.218779 0.916762
O O4 0.329971 0.204835 0.031712
O O5 0.735656 0.917826 0.133909
O O6 0.000000 0.894267 0.095828
O O7 0.848352 0.958414 0.039072
O O8 0.692601 0.031475 0.052507
O O9 0.250000 0.646658 0.250000
O O10 0.205079 0.699385 0.149044
O O11 0.223458 0.603082 0.142803
O O12 0.000000 0.646949 0.191472
O O13 0.500000 0.050806 0.809631
O O14 0.250000 0.059673 0.750000
O O15 0.283080 0.993170 0.833676
O O16 0.000000 0.247920 0.897547
O O17 0.500000 0.553589 0.370982
#
# Coordination Sequence:
#
# PCOD9478464 Si02
#       7
#    16  16   8  16  16  16  16
#     4  10  20  36  59  84 107 136 178 225 278 336
#     4  11  22  36  54  79 112 144 178 222 271 321
#     4  10  20  34  54  82 113 148 189 230 275 328
#     4  10  20  35  54  80 113 149 187 226 275 332
#     4  10  20  35  54  76 104 141 182 220 262 314
#     4   9  19  36  57  80 109 141 175 222 277 332
#     4   9  18  32  53  80 111 146 182 225 275 327
#
# _framework density 18.540634000000001
#
# number of rings (size 3 to 8) (size 9 to 14) (size 15 to 20)
#    0.000    2.154    0.000    3.231    0.000    4.308 
#    0.000    6.154    0.000    1.846    0.000    0.000 
#    0.000    0.000    0.000    0.000    0.000    0.000 
#
# Total GULP energy -289826.672422 kJ/mol
# GULP energy per Si atom -5573.589854 kJ/mol
# Density = 1.849843 g / cm^3
# Si number density = 18.540634 Si / 1000 Ang^3
#
#
#
# Elastic Constant Matrix: (Units=GPa)
#
#
# Indices 1 2 3 4 5 6 
#
# 1 62.3167 29.5171 7.5282 0.0000 0.0000 0.0000
# 2 29.5171 65.8399 13.6795 0.0000 0.0000 0.0000
# 3 7.5282 13.6795 65.8139 0.0000 0.0000 0.0000
# 4 0.0000 0.0000 0.0000 21.3074 0.0000 0.0000
# 5 0.0000 0.0000 0.0000 0.0000 -9.5730 0.0000
# 6 0.0000 0.0000 0.0000 0.0000 0.0000 13.4022
#
#
#
# Elastic Compliance Matrix: (Units=1/GPa)
#
#
# Indices 1 2 3 4 5 6 
#
# 1 0.020386 -0.009046 -0.000452 0.000000 0.000000 0.000000
# 2 -0.009046 0.019888 -0.003099 0.000000 0.000000 0.000000
# 3 -0.000452 -0.003099 0.015890 0.000000 0.000000 0.000000
# 4 0.000000 0.000000 0.000000 0.046932 0.000000 0.000000
# 5 0.000000 0.000000 0.000000 0.000000 -0.104461 0.000000
# 6 0.000000 0.000000 0.000000 0.000000 0.000000 0.074615
#
#
# Mechanical properties :
#
#
# Convention : Reuss Voigt Hill
#
# Bulk Modulus (GPa) = 32.28804 32.82448 32.55626
# Shear Modulus (GPa) = 45.97013 14.57704 30.27359
#
# Velocity S-wave (km/s) = 4.98479 2.80701 4.04521
# Velocity P-wave (km/s) = 7.11220 5.31490 6.27820
#
# Compressibility (1/GPa) = 0.03097122
#
# Stress axis : x y z
#
# Youngs Moduli (GPa) = 49.05280 50.28275 62.93205
#
# Poissons Ratio (x) = 0.45484 0.02843
# Poissons Ratio (y) = 0.44371 0.19502
# Poissons Ratio (z) = 0.02216 0.15582
#
# Static dielectric constant tensor:
#      x y z
#    x 1.631530 0.000000 0.000000 
#    y 0.000000 1.666410 0.000000 
#    z 0.000000 0.000000 1.632340 
# 
# From -- ./inp_files/37272.got.cif
#   From: 2010.05.17/outbox.cif.g08.bks.cpg/sg64_19_cif.got.tgz:37272.got - 2010.06.03 16:29:19.
