data_PCOD9478243
_publ_section_title
;
Structure prediction by ZEFSAII (Michael W. Deem and Ramdas Pophale) SiO2 
 PCOD9478243
Probable space group: C M C A
;
_chemical_formula_sum "Si O2"
_cell_formula_units_Z 96
_cell_length_a 7.868304
_cell_length_b 24.508727
_cell_length_c 26.112721
_cell_angle_alpha 90.000000
_cell_angle_beta 90.000000
_cell_angle_gamma 90.000000
_cell_volume 5035.632338
_symmetry_space_group_name_H-M "C M C A"
_symmetry_group_IT_number 64
_symmetry_cell_setting 'orthorhombic'
loop_
_space_group_symop_operation_xyz
x,y,z
-x,1/2-y,1/2+z
x,-y,-z
-x,1/2+y,1/2-z
-x,-y,-z
x,1/2+y,1/2-z
-x,y,z
x,1/2-y,1/2+z
1/2+x,1/2+y,z
1/2-x,-y,1/2+z
1/2+x,1/2-y,-z
1/2-x,y,1/2-z
1/2-x,1/2-y,-z
1/2+x,y,1/2-z
1/2-x,1/2+y,z
1/2+x,-y,1/2+z
loop_
_atom_site_type_symbol
_atom_site_label
_atom_site_fract_x
_atom_site_fract_y
_atom_site_fract_z
Si Si1 0.205883 0.937654 0.500393
Si Si2 0.294993 0.440601 0.191640
Si Si3 0.296141 0.867562 0.401130
Si Si4 0.796828 0.134483 0.404494
Si Si5 0.297758 0.564298 0.191841
Si Si6 0.205403 0.751434 0.060070
O O1 0.259325 0.905734 0.449692
O O2 0.268222 0.904900 0.550241
O O3 0.000000 0.938559 0.501774
O O4 0.266207 0.000000 0.500000
O O5 0.500000 0.442051 0.187944
O O6 0.250000 0.426585 0.250000
O O7 0.230437 0.397718 0.149745
O O8 0.231491 0.502563 0.181459
O O9 0.500000 0.863081 0.395732
O O10 0.229755 0.807058 0.413897
O O11 0.762386 0.107196 0.350081
O O12 0.731800 0.195827 0.413375
O O13 0.000000 0.137200 0.410701
O O14 0.500000 0.561968 0.188675
O O15 0.250000 0.578550 0.250000
O O16 0.000000 0.752365 0.063316
O O17 0.250000 0.750000 0.000000
#
# Coordination Sequence:
#
# PCOD9478243 Si02
#       6
#    16  16  16  16  16  16
#     4  10  20  32  49  76 108 139 172 214 264 316
#     4   9  19  35  54  78 105 134 171 214 263 314
#     4  10  20  34  53  77 105 137 175 219 263 310
#     4  10  20  34  51  75 107 139 175 218 261 309
#     4  10  20  35  56  79 104 136 173 214 262 317
#     4  10  20  35  54  75 104 143 180 218 261 310
#
# _framework density 19.064139000000001
#
# number of rings (size 3 to 8) (size 9 to 14) (size 15 to 20)
#    0.000    2.167    1.667    1.500    0.000    3.000 
#    0.000    0.833    0.000    2.000    0.000    0.000 
#    0.000    0.000    0.000    0.000    0.000    0.000 
#
# Total GULP energy -267951.680328 kJ/mol
# GULP energy per Si atom -5582.326674 kJ/mol
# Density = 1.902075 g / cm^3
# Si number density = 19.064139 Si / 1000 Ang^3
#
#
#
# Elastic Constant Matrix: (Units=GPa)
#
#
# Indices 1 2 3 4 5 6 
#
# 1 15.1519 10.1632 -4.8989 0.0000 0.0000 0.0000
# 2 10.1632 209.8402 128.4590 0.0000 0.0000 0.0000
# 3 -4.8989 128.4590 156.5311 0.0000 0.0000 0.0000
# 4 0.0000 0.0000 0.0000 19.5448 0.0000 0.0000
# 5 0.0000 0.0000 0.0000 0.0000 25.1162 0.0000
# 6 0.0000 0.0000 0.0000 0.0000 0.0000 -3.9819
#
#
#
# Elastic Compliance Matrix: (Units=1/GPa)
#
#
# Indices 1 2 3 4 5 6 
#
# 1 0.076500 -0.010391 0.010922 0.000000 0.000000 0.000000
# 2 -0.010391 0.010988 -0.009343 0.000000 0.000000 0.000000
# 3 0.010922 -0.009343 0.014398 0.000000 0.000000 0.000000
# 4 0.000000 0.000000 0.000000 0.051165 0.000000 0.000000
# 5 0.000000 0.000000 0.000000 0.000000 0.039815 0.000000
# 6 0.000000 0.000000 0.000000 0.000000 0.000000 -0.251138
#
#
# Mechanical properties :
#
#
# Convention : Reuss Voigt Hill
#
# Bulk Modulus (GPa) = 11.86788 72.10777 41.98782
# Shear Modulus (GPa) = -398.05534 24.65581 -186.69977
#
# Velocity S-wave (km/s) = -14.46552 3.60016 -9.90682
# Velocity P-wave (km/s) = 16.51554 7.42882 10.43014
#
# Compressibility (1/GPa) = 0.08426104
#
# Stress axis : x y z
#
# Youngs Moduli (GPa) = 13.07197 91.00614 69.45585
#
# Poissons Ratio (x) = 0.94566 -0.75858
# Poissons Ratio (y) = 0.13583 0.64892
# Poissons Ratio (z) = -0.14277 0.85026
#
# Static dielectric constant tensor:
#      x y z
#    x 1.689050 0.000000 0.000000 
#    y 0.000000 1.680830 0.000000 
#    z 0.000000 0.000000 1.605040 
# 
# From -- ./inp_files/42990.got.cif
#   From: 2010.05.17/outbox.cif.g08.bks.cpg/sg64_22_cif.got.tgz:42990.got - 2010.06.03 16:29:19.
