data_PCOD9478123
_publ_section_title
;
Structure prediction by ZEFSAII (Michael W. Deem and Ramdas Pophale) SiO2 
 PCOD9478123
Probable space group: C M C A
;
_chemical_formula_sum "Si O2"
_cell_formula_units_Z 80
_cell_length_a 29.067755
_cell_length_b 16.299315
_cell_length_c 7.301762
_cell_angle_alpha 90.000000
_cell_angle_beta 90.000000
_cell_angle_gamma 90.000000
_cell_volume 3459.461622
_symmetry_space_group_name_H-M "C M C A"
_symmetry_group_IT_number 64
_symmetry_cell_setting 'orthorhombic'
loop_
_space_group_symop_operation_xyz
x,y,z
-x,1/2-y,1/2+z
x,-y,-z
-x,1/2+y,1/2-z
-x,-y,-z
x,1/2+y,1/2-z
-x,y,z
x,1/2-y,1/2+z
1/2+x,1/2+y,z
1/2-x,-y,1/2+z
1/2+x,1/2-y,-z
1/2-x,y,1/2-z
1/2-x,1/2-y,-z
1/2+x,y,1/2-z
1/2-x,1/2+y,z
1/2+x,-y,1/2+z
loop_
_atom_site_type_symbol
_atom_site_label
_atom_site_fract_x
_atom_site_fract_y
_atom_site_fract_z
Si Si1 0.395631 0.018997 0.282319
Si Si2 0.700525 0.445506 0.253124
Si Si3 0.249138 0.653818 0.464696
Si Si4 0.053139 0.821443 0.857861
Si Si5 0.052317 0.640235 0.789036
O O1 0.417342 0.108919 0.254879
O O2 0.400588 0.000000 0.500000
O O3 0.342282 0.004071 0.240851
O O4 0.421047 0.944118 0.179334
O O5 0.750000 0.489834 0.250000
O O6 0.707526 0.613105 0.571818
O O7 0.705576 0.611190 0.929233
O O8 0.250000 0.647177 0.250000
O O9 0.250000 0.750000 0.500000
O O10 0.071426 0.728098 0.855146
O O11 0.000000 0.819277 0.788603
O O12 0.050956 0.848079 0.069131
O O13 0.000000 0.632211 0.856430
#
# Coordination Sequence:
#
# PCOD9478123 Si02
#       5
#    16  16  16  16  16
#     4  10  19  38  61  88 129 169 217 269 318 398
#     4   8  20  33  59  90 125 172 227 255 333 385
#     4   9  15  34  60  92 126 171 218 274 328 384
#     4   9  18  35  64  93 124 169 210 265 332 388
#     4   9  18  35  60  91 121 162 214 261 322 394
#
# _framework density 23.124984000000001
#
# number of rings (size 3 to 8) (size 9 to 14) (size 15 to 20)
#    1.200    1.600    2.000    0.600    0.000    2.400 
#    7.200    2.000    8.800    6.000    0.000    1.400 
#    0.000    0.000    0.000    0.000    0.000    0.000 
#
# Total GULP energy -223154.253992 kJ/mol
# GULP energy per Si atom -5578.856350 kJ/mol
# Density = 2.307235 g / cm^3
# Si number density = 23.124984 Si / 1000 Ang^3
#
#
#
# Elastic Constant Matrix: (Units=GPa)
#
#
# Indices 1 2 3 4 5 6 
#
# 1 89.6359 74.0363 3.1604 0.0000 0.0000 0.0000
# 2 74.0363 184.8469 28.6244 0.0000 0.0000 0.0000
# 3 3.1604 28.6244 130.8387 0.0000 0.0000 0.0000
# 4 0.0000 0.0000 0.0000 32.7524 0.0000 0.0000
# 5 0.0000 0.0000 0.0000 0.0000 16.0609 0.0000
# 6 0.0000 0.0000 0.0000 0.0000 0.0000 5.9076
#
#
#
# Elastic Compliance Matrix: (Units=1/GPa)
#
#
# Indices 1 2 3 4 5 6 
#
# 1 0.016825 -0.006910 0.001105 0.000000 0.000000 0.000000
# 2 -0.006910 0.008437 -0.001679 0.000000 0.000000 0.000000
# 3 0.001105 -0.001679 0.007984 0.000000 0.000000 0.000000
# 4 0.000000 0.000000 0.000000 0.030532 0.000000 0.000000
# 5 0.000000 0.000000 0.000000 0.000000 0.062263 0.000000
# 6 0.000000 0.000000 0.000000 0.000000 0.000000 0.169274
#
#
# Mechanical properties :
#
#
# Convention : Reuss Voigt Hill
#
# Bulk Modulus (GPa) = 54.70889 68.55153 61.63021
# Shear Modulus (GPa) = 15.80405 30.91088 23.35746
#
# Velocity S-wave (km/s) = 2.61706 3.66004 3.18158
# Velocity P-wave (km/s) = 5.73073 6.89706 6.34077
#
# Compressibility (1/GPa) = 0.01827857
#
# Stress axis : x y z
#
# Youngs Moduli (GPa) = 59.43678 118.51875 125.25633
#
# Poissons Ratio (x) = 0.81895 -0.13845
# Poissons Ratio (y) = 0.41070 0.21031
# Poissons Ratio (z) = -0.06570 0.19899
#
# Static dielectric constant tensor:
#      x y z
#    x 1.875550 0.000000 0.000000 
#    y 0.000000 1.878110 0.000000 
#    z 0.000000 0.000000 1.621750 
# 
# From -- ./inp_files/19596.got.cif
#   From: 2010.05.17/outbox.cif.g08.bks.cpg/sg64_10_cif.got.tgz:19596.got - 2010.06.03 16:29:19.
