data_PCOD9478348
_publ_section_title
;
Structure prediction by ZEFSAII (Michael W. Deem and Ramdas Pophale) SiO2 
 PCOD9478348
Probable space group: C M C A
;
_chemical_formula_sum "Si O2"
_cell_formula_units_Z 104
_cell_length_a 13.789719
_cell_length_b 24.313719
_cell_length_c 17.773658
_cell_angle_alpha 90.000000
_cell_angle_beta 90.000000
_cell_angle_gamma 90.000000
_cell_volume 5959.140552
_symmetry_space_group_name_H-M "C M C A"
_symmetry_group_IT_number 64
_symmetry_cell_setting 'orthorhombic'
loop_
_space_group_symop_operation_xyz
x,y,z
-x,1/2-y,1/2+z
x,-y,-z
-x,1/2+y,1/2-z
-x,-y,-z
x,1/2+y,1/2-z
-x,y,z
x,1/2-y,1/2+z
1/2+x,1/2+y,z
1/2-x,-y,1/2+z
1/2+x,1/2-y,-z
1/2-x,y,1/2-z
1/2-x,1/2-y,-z
1/2+x,y,1/2-z
1/2-x,1/2+y,z
1/2+x,-y,1/2+z
loop_
_atom_site_type_symbol
_atom_site_label
_atom_site_fract_x
_atom_site_fract_y
_atom_site_fract_z
Si Si1 0.386275 0.449134 0.670432
Si Si2 0.611855 0.703674 0.134173
Si Si3 0.387402 0.070407 0.840280
Si Si4 0.286697 0.685646 0.669288
Si Si5 0.609108 0.398077 0.510415
Si Si6 0.718384 0.812561 0.488417
Si Si7 0.250000 0.861170 0.750000
O O1 0.500000 0.445549 0.691155
O O2 0.351606 0.511117 0.687377
O O3 0.380173 0.437713 0.581260
O O4 0.325502 0.401390 0.708878
O O5 0.500000 0.694177 0.154606
O O6 0.636297 0.769034 0.139634
O O7 0.688321 0.674509 0.190278
O O8 0.633504 0.681167 0.049737
O O9 0.500000 0.075605 0.818141
O O10 0.332112 0.125577 0.818047
O O11 0.384111 0.070799 0.931245
O O12 0.250000 0.705198 0.750000
O O13 0.207568 0.680478 0.601819
O O14 0.500000 0.373416 0.514263
O O15 0.692710 0.352409 0.510645
O O16 0.750000 0.750000 0.500000
#
# Coordination Sequence:
#
# PCOD9478348 Si02
#       7
#    16  16  16  16  16  16   8
#     4  10  20  33  53  81 109 139 183 232 277 327
#     4  11  22  39  58  78 112 151 187 234 283 333
#     4   9  18  32  53  82 110 138 175 222 282 334
#     4  10  20  36  59  83 113 143 184 229 279 331
#     4   9  16  31  54  79 107 137 174 226 278 329
#     4   9  19  34  53  80 111 143 181 220 270 340
#     4  12  22  36  54  80 110 148 192 234 278 334
#
# _framework density 17.452182000000001
#
# number of rings (size 3 to 8) (size 9 to 14) (size 15 to 20)
#    0.000    2.154    2.308    1.385    1.077    5.538 
#    0.000    1.538    0.000    0.000    0.000    4.308 
#    0.000    0.000    0.000    0.000    0.000    0.000 
#
# Total GULP energy -289556.313628 kJ/mol
# GULP energy per Si atom -5568.390647 kJ/mol
# Density = 1.741246 g / cm^3
# Si number density = 17.452182 Si / 1000 Ang^3
#
#
#
# Elastic Constant Matrix: (Units=GPa)
#
#
# Indices 1 2 3 4 5 6 
#
# 1 64.5848 34.7811 31.1147 0.0000 0.0000 0.0000
# 2 34.7811 98.3378 12.1387 0.0000 0.0000 0.0000
# 3 31.1147 12.1387 74.1354 0.0000 0.0000 0.0000
# 4 0.0000 0.0000 0.0000 5.9371 0.0000 0.0000
# 5 0.0000 0.0000 0.0000 0.0000 15.6358 0.0000
# 6 0.0000 0.0000 0.0000 0.0000 0.0000 24.6924
#
#
#
# Elastic Compliance Matrix: (Units=1/GPa)
#
#
# Indices 1 2 3 4 5 6 
#
# 1 0.023596 -0.007270 -0.008713 0.000000 0.000000 0.000000
# 2 -0.007270 0.012619 0.000985 0.000000 0.000000 0.000000
# 3 -0.008713 0.000985 0.016984 0.000000 0.000000 0.000000
# 4 0.000000 0.000000 0.000000 0.168433 0.000000 0.000000
# 5 0.000000 0.000000 0.000000 0.000000 0.063956 0.000000
# 6 0.000000 0.000000 0.000000 0.000000 0.000000 0.040498
#
#
# Mechanical properties :
#
#
# Convention : Reuss Voigt Hill
#
# Bulk Modulus (GPa) = 43.09716 43.68077 43.38897
# Shear Modulus (GPa) = 13.74316 19.85462 16.79889
#
# Velocity S-wave (km/s) = 2.80924 3.37658 3.10589
# Velocity P-wave (km/s) = 5.93890 6.34704 6.14636
#
# Compressibility (1/GPa) = 0.02320338
#
# Stress axis : x y z
#
# Youngs Moduli (GPa) = 42.37928 79.24651 58.87765
#
# Poissons Ratio (x) = 0.57615 0.51300
# Poissons Ratio (y) = 0.30811 -0.05800
# Poissons Ratio (z) = 0.36925 -0.07807
#
# Static dielectric constant tensor:
#      x y z
#    x 1.586450 0.000000 0.000000 
#    y 0.000000 1.608200 0.000000 
#    z 0.000000 0.000000 1.631310 
# 
# From -- ./inp_files/32486.got.cif
#   From: 2010.05.17/outbox.cif.g08.bks.cpg/sg64_17_cif.got.tgz:32486.got - 2010.06.03 16:29:19.
