data_PCOD9478952
_publ_section_title
;
Structure prediction by ZEFSAII (Michael W. Deem and Ramdas Pophale) SiO2 
 PCOD9478952
Probable space group: C M C A
;
_chemical_formula_sum "Si O2"
_cell_formula_units_Z 80
_cell_length_a 13.800707
_cell_length_b 10.405393
_cell_length_c 23.458992
_cell_angle_alpha 90.000000
_cell_angle_beta 90.000000
_cell_angle_gamma 90.000000
_cell_volume 3368.753009
_symmetry_space_group_name_H-M "C M C A"
_symmetry_group_IT_number 64
_symmetry_cell_setting 'orthorhombic'
loop_
_space_group_symop_operation_xyz
x,y,z
-x,1/2-y,1/2+z
x,-y,-z
-x,1/2+y,1/2-z
-x,-y,-z
x,1/2+y,1/2-z
-x,y,z
x,1/2-y,1/2+z
1/2+x,1/2+y,z
1/2-x,-y,1/2+z
1/2+x,1/2-y,-z
1/2-x,y,1/2-z
1/2-x,1/2-y,-z
1/2+x,y,1/2-z
1/2-x,1/2+y,z
1/2+x,-y,1/2+z
loop_
_atom_site_type_symbol
_atom_site_label
_atom_site_fract_x
_atom_site_fract_y
_atom_site_fract_z
Si Si1 0.614035 0.164464 0.800375
Si Si2 0.361671 0.284686 0.997937
Si Si3 0.117899 0.549261 0.287731
Si Si4 0.393194 0.053674 0.924960
Si Si5 0.169759 0.007131 0.915187
O O1 0.500000 0.171680 0.787687
O O2 0.653767 0.303837 0.784093
O O3 0.621933 0.138412 0.867523
O O4 0.648133 0.042517 0.764064
O O5 0.403935 0.148933 0.978767
O O6 0.379660 0.387984 0.947832
O O7 0.250000 0.250000 0.000000
O O8 0.374792 0.363998 0.056207
O O9 0.152479 0.495032 0.348361
O O10 0.000000 0.552357 0.289256
O O11 0.500000 0.988842 0.916597
O O12 0.285745 0.991380 0.928332
#
# Coordination Sequence:
#
# PCOD9478952 Si02
#       5
#    16  16  16  16  16
#     4   9  19  37  60  89 124 163 205 255 313 376
#     4   9  19  37  58  85 121 156 203 260 309 371
#     4  10  20  38  62  92 128 163 207 264 317 374
#     4  10  20  38  61  87 125 168 203 254 320 377
#     4  10  20  36  61  91 119 158 211 263 309 378
#
# _framework density 23.74766
#
# number of rings (size 3 to 8) (size 9 to 14) (size 15 to 20)
#    0.000    2.400    2.000    0.000    0.000    1.600 
#    7.200   12.000    0.000    0.000    0.000    0.000 
#    0.000    0.000    0.000    0.000    0.000    0.000 
#
# Total GULP energy -223140.090133 kJ/mol
# GULP energy per Si atom -5578.502253 kJ/mol
# Density = 2.369361 g / cm^3
# Si number density = 23.747660 Si / 1000 Ang^3
#
#
#
# Elastic Constant Matrix: (Units=GPa)
#
#
# Indices 1 2 3 4 5 6 
#
# 1 117.7687 -8.1357 2.6070 0.0000 0.0000 0.0000
# 2 -8.1357 84.5655 42.5428 0.0000 0.0000 0.0000
# 3 2.6070 42.5428 102.9754 0.0000 0.0000 0.0000
# 4 0.0000 0.0000 0.0000 40.6064 0.0000 0.0000
# 5 0.0000 0.0000 0.0000 0.0000 18.0182 0.0000
# 6 0.0000 0.0000 0.0000 0.0000 0.0000 -9.1372
#
#
#
# Elastic Compliance Matrix: (Units=1/GPa)
#
#
# Indices 1 2 3 4 5 6 
#
# 1 0.008588 0.001181 -0.000705 0.000000 0.000000 0.000000
# 2 0.001181 0.015090 -0.006264 0.000000 0.000000 0.000000
# 3 -0.000705 -0.006264 0.012317 0.000000 0.000000 0.000000
# 4 0.000000 0.000000 0.000000 0.024627 0.000000 0.000000
# 5 0.000000 0.000000 0.000000 0.000000 0.055499 0.000000
# 6 0.000000 0.000000 0.000000 0.000000 0.000000 -0.109443
#
#
# Mechanical properties :
#
#
# Convention : Reuss Voigt Hill
#
# Bulk Modulus (GPa) = 40.95249 42.14865 41.55057
# Shear Modulus (GPa) = 189.42678 27.78384 108.60531
#
# Velocity S-wave (km/s) = 8.94090 3.42418 6.76996
# Velocity P-wave (km/s) = 11.12962 5.78104 8.86817
#
# Compressibility (1/GPa) = 0.02441854
#
# Stress axis : x y z
#
# Youngs Moduli (GPa) = 116.43569 66.26851 81.18949
#
# Poissons Ratio (x) = -0.07827 0.05727
# Poissons Ratio (y) = -0.13752 0.50858
# Poissons Ratio (z) = 0.08213 0.41512
#
# Static dielectric constant tensor:
#      x y z
#    x 1.943550 0.000000 0.000000 
#    y 0.000000 1.934460 0.000000 
#    z 0.000000 0.000000 1.885260 
# 
# From -- ./inp_files/44953.got.cif
#   From: 2010.05.17/outbox.cif.g08.bks.cpg/sg64_23_cif.got.tgz:44953.got - 2010.06.03 16:29:19.
