data_PCOD9478018
_publ_section_title
;
Structure prediction by ZEFSAII (Michael W. Deem and Ramdas Pophale) SiO2 
 PCOD9478018
Probable space group: C M C A
;
_chemical_formula_sum "Si O2"
_cell_formula_units_Z 88
_cell_length_a 23.426106
_cell_length_b 12.547516
_cell_length_c 15.923079
_cell_angle_alpha 90.000000
_cell_angle_beta 90.000000
_cell_angle_gamma 90.000000
_cell_volume 4680.420922
_symmetry_space_group_name_H-M "C M C A"
_symmetry_group_IT_number 64
_symmetry_cell_setting 'orthorhombic'
loop_
_space_group_symop_operation_xyz
x,y,z
-x,1/2-y,1/2+z
x,-y,-z
-x,1/2+y,1/2-z
-x,-y,-z
x,1/2+y,1/2-z
-x,y,z
x,1/2-y,1/2+z
1/2+x,1/2+y,z
1/2-x,-y,1/2+z
1/2+x,1/2-y,-z
1/2-x,y,1/2-z
1/2-x,1/2-y,-z
1/2+x,y,1/2-z
1/2-x,1/2+y,z
1/2+x,-y,1/2+z
loop_
_atom_site_type_symbol
_atom_site_label
_atom_site_fract_x
_atom_site_fract_y
_atom_site_fract_z
Si Si1 0.653462 0.500000 0.500000
Si Si2 0.378386 0.767390 0.606245
Si Si3 0.066850 0.021387 0.176846
Si Si4 0.149114 0.397216 0.442516
Si Si5 0.566303 0.963819 0.128476
Si Si6 0.266761 0.679263 0.579713
O O1 0.609386 0.534836 0.427126
O O2 0.694853 0.415407 0.457367
O O3 0.406553 0.863041 0.657471
O O4 0.372342 0.809457 0.509808
O O5 0.414561 0.658993 0.613196
O O6 0.312810 0.743493 0.634743
O O7 0.000000 0.022935 0.155580
O O8 0.099841 0.936983 0.118813
O O9 0.073178 0.991025 0.273932
O O10 0.165726 0.500000 0.500000
O O11 0.205272 0.361707 0.390721
O O12 0.500000 0.978476 0.105806
O O13 0.250000 0.750000 0.500000
#
# Coordination Sequence:
#
# PCOD9478018 Si02
#       6
#     8  16  16  16  16  16
#     4  10  19  36  60  80 107 150 196 228 282 342
#     4   9  19  35  58  84 112 151 192 232 286 345
#     4  10  21  37  58  86 120 151 187 242 294 338
#     4   9  17  33  61  85 114 147 188 234 290 344
#     4  10  21  38  57  82 118 152 191 239 286 340
#     4   9  17  33  59  82 111 146 184 233 279 336
#
# _framework density 18.801728000000001
#
# number of rings (size 3 to 8) (size 9 to 14) (size 15 to 20)
#    0.000    2.545    0.909    0.818    0.000    4.000 
#    9.818    3.636    4.000    0.000    0.000    0.000 
#    0.000    0.000    0.000    0.000    0.000    0.000 
#
# Total GULP energy -245061.033364 kJ/mol
# GULP energy per Si atom -5569.568940 kJ/mol
# Density = 1.875893 g / cm^3
# Si number density = 18.801728 Si / 1000 Ang^3
#
#
#
# Elastic Constant Matrix: (Units=GPa)
#
#
# Indices 1 2 3 4 5 6 
#
# 1 159.0880 42.1653 52.2814 0.0000 0.0000 0.0000
# 2 42.1653 53.7796 20.3191 0.0000 0.0000 0.0000
# 3 52.2814 20.3191 53.2101 0.0000 0.0000 0.0000
# 4 0.0000 0.0000 0.0000 20.2017 0.0000 0.0000
# 5 0.0000 0.0000 0.0000 0.0000 -32.3838 0.0000
# 6 0.0000 0.0000 0.0000 0.0000 0.0000 28.8026
#
#
#
# Elastic Compliance Matrix: (Units=1/GPa)
#
#
# Indices 1 2 3 4 5 6 
#
# 1 0.010308 -0.004973 -0.008229 0.000000 0.000000 0.000000
# 2 -0.004973 0.024128 -0.004328 0.000000 0.000000 0.000000
# 3 -0.008229 -0.004328 0.028532 0.000000 0.000000 0.000000
# 4 0.000000 0.000000 0.000000 0.049501 0.000000 0.000000
# 5 0.000000 0.000000 0.000000 0.000000 -0.030880 0.000000
# 6 0.000000 0.000000 0.000000 0.000000 0.000000 0.034719
#
#
# Mechanical properties :
#
#
# Convention : Reuss Voigt Hill
#
# Bulk Modulus (GPa) = 35.83135 55.06768 45.44952
# Shear Modulus (GPa) = 31.11932 13.41154 22.26543
#
# Velocity S-wave (km/s) = 4.07274 2.67369 3.44499
# Velocity P-wave (km/s) = 6.41990 6.23568 6.32846
#
# Compressibility (1/GPa) = 0.02790852
#
# Stress axis : x y z
#
# Youngs Moduli (GPa) = 97.00907 41.44487 35.04854
#
# Poissons Ratio (x) = 0.20610 0.28843
# Poissons Ratio (y) = 0.48241 0.15168
# Poissons Ratio (z) = 0.79833 0.17936
#
# Static dielectric constant tensor:
#      x y z
#    x 1.683120 0.000000 0.000000 
#    y 0.000000 1.679840 0.000000 
#    z 0.000000 0.000000 1.627310 
# 
# From -- ./inp_files/34277.got.cif
#   From: 2010.05.17/outbox.cif.g08.bks.cpg/sg64_18_cif.got.tgz:34277.got - 2010.06.03 16:29:19.
