data_PCOD9478877
_publ_section_title
;
Structure prediction by ZEFSAII (Michael W. Deem and Ramdas Pophale) SiO2 
 PCOD9478877
Probable space group: C M C A
;
_chemical_formula_sum "Si O2"
_cell_formula_units_Z 72
_cell_length_a 14.879598
_cell_length_b 25.127497
_cell_length_c 8.665251
_cell_angle_alpha 90.000000
_cell_angle_beta 90.000000
_cell_angle_gamma 90.000000
_cell_volume 3239.825169
_symmetry_space_group_name_H-M "C M C A"
_symmetry_group_IT_number 64
_symmetry_cell_setting 'orthorhombic'
loop_
_space_group_symop_operation_xyz
x,y,z
-x,1/2-y,1/2+z
x,-y,-z
-x,1/2+y,1/2-z
-x,-y,-z
x,1/2+y,1/2-z
-x,y,z
x,1/2-y,1/2+z
1/2+x,1/2+y,z
1/2-x,-y,1/2+z
1/2+x,1/2-y,-z
1/2-x,y,1/2-z
1/2-x,1/2-y,-z
1/2+x,y,1/2-z
1/2-x,1/2+y,z
1/2+x,-y,1/2+z
loop_
_atom_site_type_symbol
_atom_site_label
_atom_site_fract_x
_atom_site_fract_y
_atom_site_fract_z
Si Si1 0.219765 0.621486 0.986683
Si Si2 0.600517 0.036226 0.843120
Si Si3 0.750000 0.463722 0.750000
Si Si4 0.396804 0.680286 0.949816
Si Si5 0.602670 0.702821 0.316525
O O1 0.245745 0.574761 0.104840
O O2 0.311571 0.643435 0.914988
O O3 0.171270 0.667958 0.084194
O O4 0.146403 0.592232 0.881415
O O5 0.500000 0.042365 0.785741
O O6 0.664833 0.002062 0.735049
O O7 0.597187 0.000000 0.000000
O O8 0.500000 0.660998 0.924695
O O9 0.388476 0.692774 0.133812
O O10 0.386240 0.735208 0.856320
O O11 0.500000 0.687901 0.360149
#
# Coordination Sequence:
#
# PCOD9478877 Si02
#       5
#    16  16   8  16  16
#     4  11  19  36  60  84 113 158 203 244 304 364
#     4   9  20  37  58  85 115 148 196 253 300 355
#     4  10  20  36  58  86 110 152 202 252 298 358
#     4  10  21  36  57  87 123 157 199 247 301 364
#     4  10  20  36  58  87 120 158 200 247 300 365
#
# _framework density 22.223420999999998
#
# number of rings (size 3 to 8) (size 9 to 14) (size 15 to 20)
#    0.000    2.000    2.222    1.333    0.000    1.778 
#    4.000    1.111    0.000    4.000    0.000    0.000 
#    0.000    0.000    0.000    0.000    0.000    0.000 
#
# Total GULP energy -201334.503331 kJ/mol
# GULP energy per Si atom -5592.625093 kJ/mol
# Density = 2.217284 g / cm^3
# Si number density = 22.223421 Si / 1000 Ang^3
#
#
#
# Elastic Constant Matrix: (Units=GPa)
#
#
# Indices 1 2 3 4 5 6 
#
# 1 211.6405 77.5090 26.5989 0.0000 0.0000 0.0000
# 2 77.5090 63.1502 12.3934 0.0000 0.0000 0.0000
# 3 26.5989 12.3934 34.2309 0.0000 0.0000 0.0000
# 4 0.0000 0.0000 0.0000 1.6216 0.0000 0.0000
# 5 0.0000 0.0000 0.0000 0.0000 19.7750 0.0000
# 6 0.0000 0.0000 0.0000 0.0000 0.0000 34.4238
#
#
#
# Elastic Compliance Matrix: (Units=1/GPa)
#
#
# Indices 1 2 3 4 5 6 
#
# 1 0.008894 -0.010292 -0.003185 0.000000 0.000000 0.000000
# 2 -0.010292 0.028955 -0.002486 0.000000 0.000000 0.000000
# 3 -0.003185 -0.002486 0.032589 0.000000 0.000000 0.000000
# 4 0.000000 0.000000 0.000000 0.616680 0.000000 0.000000
# 5 0.000000 0.000000 0.000000 0.000000 0.050569 0.000000
# 6 0.000000 0.000000 0.000000 0.000000 0.000000 0.029050
#
#
# Mechanical properties :
#
#
# Convention : Reuss Voigt Hill
#
# Bulk Modulus (GPa) = 25.96601 60.22488 43.09544
# Shear Modulus (GPa) = 6.16143 23.99877 15.08010
#
# Velocity S-wave (km/s) = 1.66689 3.28973 2.60776
# Velocity P-wave (km/s) = 3.92608 6.44890 5.33865
#
# Compressibility (1/GPa) = 0.03851189
#
# Stress axis : x y z
#
# Youngs Moduli (GPa) = 112.42986 34.53639 30.68561
#
# Poissons Ratio (x) = 0.35544 0.09774
# Poissons Ratio (y) = 1.15710 0.07629
# Poissons Ratio (z) = 0.35811 0.08586
#
# Static dielectric constant tensor:
#      x y z
#    x 1.825340 0.000000 0.000000 
#    y 0.000000 1.778940 0.000000 
#    z 0.000000 0.000000 1.851690 
# 
# From -- ./inp_files/14374.got.cif
#   From: 2010.05.17/outbox.cif.g08.bks.cpg/sg64_8_cif.got.tgz:14374.got - 2010.06.03 16:29:19.
