data_PCOD9478954
_publ_section_title
;
Structure prediction by ZEFSAII (Michael W. Deem and Ramdas Pophale) SiO2 
 PCOD9478954
Probable space group: C M C A
;
_chemical_formula_sum "Si O2"
_cell_formula_units_Z 96
_cell_length_a 27.795721
_cell_length_b 18.728544
_cell_length_c 9.916835
_cell_angle_alpha 90.000000
_cell_angle_beta 90.000000
_cell_angle_gamma 90.000000
_cell_volume 5162.440352
_symmetry_space_group_name_H-M "C M C A"
_symmetry_group_IT_number 64
_symmetry_cell_setting 'orthorhombic'
loop_
_space_group_symop_operation_xyz
x,y,z
-x,1/2-y,1/2+z
x,-y,-z
-x,1/2+y,1/2-z
-x,-y,-z
x,1/2+y,1/2-z
-x,y,z
x,1/2-y,1/2+z
1/2+x,1/2+y,z
1/2-x,-y,1/2+z
1/2+x,1/2-y,-z
1/2-x,y,1/2-z
1/2-x,1/2-y,-z
1/2+x,y,1/2-z
1/2-x,1/2+y,z
1/2+x,-y,1/2+z
loop_
_atom_site_type_symbol
_atom_site_label
_atom_site_fract_x
_atom_site_fract_y
_atom_site_fract_z
Si Si1 0.674742 0.862967 0.464086
Si Si2 0.345489 0.104572 0.225270
Si Si3 0.896839 0.761087 0.598901
Si Si4 0.724105 0.082834 0.990866
Si Si5 0.556564 0.827327 0.163477
Si Si6 0.364549 0.441622 0.291005
O O1 0.665048 0.884767 0.617892
O O2 0.649915 0.786975 0.436005
O O3 0.731968 0.868493 0.444270
O O4 0.650262 0.917355 0.358914
O O5 0.379305 0.167247 0.171805
O O6 0.367938 0.026537 0.200514
O O7 0.297131 0.105109 0.135179
O O8 0.924736 0.781635 0.463497
O O9 0.929290 0.715605 0.701304
O O10 0.679213 0.082900 0.888281
O O11 0.741142 0.000000 0.000000
O O12 0.500000 0.839740 0.155580
O O13 0.587737 0.899792 0.166890
#
# Coordination Sequence:
#
# PCOD9478954 Si02
#       6
#    16  16  16  16  16  16
#     4  11  22  37  62  88 127 168 199 238 306 362
#     4  11  21  39  61  90 127 157 206 249 299 352
#     4  11  23  41  63  91 123 159 202 254 305 366
#     4  10  20  36  61  91 125 167 208 243 294 359
#     4  11  23  44  66  88 118 161 205 254 316 364
#     4  10  22  39  64  89 123 158 206 259 296 357
#
# _framework density 18.595856000000001
#
# number of rings (size 3 to 8) (size 9 to 14) (size 15 to 20)
#    0.000    1.333    3.333    3.000    0.000    3.333 
#    0.000    4.167    0.000    2.000    0.000    0.000 
#    0.000    0.000    0.000    0.000    0.000    0.000 
#
# Total GULP energy -268287.039056 kJ/mol
# GULP energy per Si atom -5589.313314 kJ/mol
# Density = 1.855353 g / cm^3
# Si number density = 18.595856 Si / 1000 Ang^3
#
#
#
# Elastic Constant Matrix: (Units=GPa)
#
#
# Indices 1 2 3 4 5 6 
#
# 1 141.7938 84.3159 46.3290 0.0000 0.0000 0.0000
# 2 84.3159 108.2050 28.6205 0.0000 0.0000 0.0000
# 3 46.3290 28.6205 103.1123 0.0000 0.0000 0.0000
# 4 0.0000 0.0000 0.0000 19.6908 0.0000 0.0000
# 5 0.0000 0.0000 0.0000 0.0000 13.8752 0.0000
# 6 0.0000 0.0000 0.0000 0.0000 0.0000 18.8653
#
#
#
# Elastic Compliance Matrix: (Units=1/GPa)
#
#
# Indices 1 2 3 4 5 6 
#
# 1 0.014275 -0.010174 -0.003590 0.000000 0.000000 0.000000
# 2 -0.010174 0.017225 -0.000210 0.000000 0.000000 0.000000
# 3 -0.003590 -0.000210 0.011369 0.000000 0.000000 0.000000
# 4 0.000000 0.000000 0.000000 0.050785 0.000000 0.000000
# 5 0.000000 0.000000 0.000000 0.000000 0.072071 0.000000
# 6 0.000000 0.000000 0.000000 0.000000 0.000000 0.053007
#
#
# Mechanical properties :
#
#
# Convention : Reuss Voigt Hill
#
# Bulk Modulus (GPa) = 67.01515 74.62685 70.82100
# Shear Modulus (GPa) = 19.86843 23.40932 21.63887
#
# Velocity S-wave (km/s) = 3.27224 3.55187 3.41492
# Velocity P-wave (km/s) = 7.09878 7.55242 7.32911
#
# Compressibility (1/GPa) = 0.01492200
#
# Stress axis : x y z
#
# Youngs Moduli (GPa) = 70.05045 58.05460 87.95522
#
# Poissons Ratio (x) = 0.59066 0.31576
# Poissons Ratio (y) = 0.71271 0.01845
# Poissons Ratio (z) = 0.25148 0.01218
#
# Static dielectric constant tensor:
#      x y z
#    x 1.615710 0.000000 0.000000 
#    y 0.000000 1.634910 0.000000 
#    z 0.000000 0.000000 1.651030 
# 
# From -- ./inp_files/10361.got.cif
#   From: 2010.05.17/outbox.cif.g08.bks.cpg/sg64_6_cif.got.tgz:10361.got - 2010.06.03 16:29:19.
