data_PCOD9478896
_publ_section_title
;
Structure prediction by ZEFSAII (Michael W. Deem and Ramdas Pophale) SiO2 
 PCOD9478896
Probable space group: C M C A
;
_chemical_formula_sum "Si O2"
_cell_formula_units_Z 96
_cell_length_a 8.976424
_cell_length_b 26.140551
_cell_length_c 24.610622
_cell_angle_alpha 90.000000
_cell_angle_beta 90.000000
_cell_angle_gamma 90.000000
_cell_volume 5774.849705
_symmetry_space_group_name_H-M "C M C A"
_symmetry_group_IT_number 64
_symmetry_cell_setting 'orthorhombic'
loop_
_space_group_symop_operation_xyz
x,y,z
-x,1/2-y,1/2+z
x,-y,-z
-x,1/2+y,1/2-z
-x,-y,-z
x,1/2+y,1/2-z
-x,y,z
x,1/2-y,1/2+z
1/2+x,1/2+y,z
1/2-x,-y,1/2+z
1/2+x,1/2-y,-z
1/2-x,y,1/2-z
1/2-x,1/2-y,-z
1/2+x,y,1/2-z
1/2-x,1/2+y,z
1/2+x,-y,1/2+z
loop_
_atom_site_type_symbol
_atom_site_label
_atom_site_fract_x
_atom_site_fract_y
_atom_site_fract_z
Si Si1 0.821909 0.163810 0.808752
Si Si2 0.675326 0.918355 0.510602
Si Si3 0.325474 0.130975 0.379457
Si Si4 0.677487 0.470501 0.606439
Si Si5 0.821762 0.913580 0.393578
Si Si6 0.822554 0.717021 0.191401
O O1 0.750000 0.153219 0.750000
O O2 0.752307 0.126767 0.853433
O O3 0.790460 0.223510 0.821778
O O4 0.000000 0.157378 0.806025
O O5 0.500000 0.928765 0.502665
O O6 0.688640 0.872044 0.554711
O O7 0.753037 0.962845 0.546243
O O8 0.755366 0.908499 0.454114
O O9 0.500000 0.131418 0.366274
O O10 0.252387 0.076674 0.361581
O O11 0.244228 0.178284 0.352340
O O12 0.500000 0.463462 0.604325
O O13 0.710052 0.527905 0.625077
O O14 0.000000 0.907253 0.395045
O O15 0.750000 0.706186 0.250000
O O16 0.000000 0.710922 0.194897
#
# Coordination Sequence:
#
# PCOD9478896 Si02
#       6
#    16  16  16  16  16  16
#     4  10  22  39  58  79 104 136 177 221 266 316
#     4   9  19  32  51  80 111 143 179 216 261 313
#     4   9  19  33  52  79 108 138 173 217 263 309
#     4   9  18  32  51  78 110 141 176 213 256 309
#     4  11  21  33  54  81 109 145 181 216 262 313
#     4  10  20  36  59  80 101 135 176 220 267 318
#
# _framework density 16.623809000000001
#
# number of rings (size 3 to 8) (size 9 to 14) (size 15 to 20)
#    1.000    1.333    0.000    3.000    0.000    6.667 
#    0.000    1.667    0.000    4.000    0.000    0.000 
#    0.000    0.000    0.000    0.000    0.000    0.000 
#
# Total GULP energy -267311.651351 kJ/mol
# GULP energy per Si atom -5568.992736 kJ/mol
# Density = 1.658597 g / cm^3
# Si number density = 16.623809 Si / 1000 Ang^3
#
#
#
# Elastic Constant Matrix: (Units=GPa)
#
#
# Indices 1 2 3 4 5 6 
#
# 1 94.7764 68.1283 42.5859 0.0000 0.0000 0.0000
# 2 68.1283 108.9940 64.9667 0.0000 0.0000 0.0000
# 3 42.5859 64.9667 50.4861 0.0000 0.0000 0.0000
# 4 0.0000 0.0000 0.0000 34.3152 0.0000 0.0000
# 5 0.0000 0.0000 0.0000 0.0000 32.4903 0.0000
# 6 0.0000 0.0000 0.0000 0.0000 0.0000 28.1640
#
#
#
# Elastic Compliance Matrix: (Units=1/GPa)
#
#
# Indices 1 2 3 4 5 6 
#
# 1 0.019283 -0.010121 -0.003242 0.000000 0.000000 0.000000
# 2 -0.010121 0.044692 -0.048974 0.000000 0.000000 0.000000
# 3 -0.003242 -0.048974 0.085563 0.000000 0.000000 0.000000
# 4 0.000000 0.000000 0.000000 0.029142 0.000000 0.000000
# 5 0.000000 0.000000 0.000000 0.000000 0.030778 0.000000
# 6 0.000000 0.000000 0.000000 0.000000 0.000000 0.035506
#
#
# Mechanical properties :
#
#
# Convention : Reuss Voigt Hill
#
# Bulk Modulus (GPa) = 40.21757 67.29095 53.75426
# Shear Modulus (GPa) = 13.23014 24.23229 18.73121
#
# Velocity S-wave (km/s) = 2.82415 3.82211 3.36038
# Velocity P-wave (km/s) = 5.90590 7.74884 6.88928
#
# Compressibility (1/GPa) = 0.02486476
#
# Stress axis : x y z
#
# Youngs Moduli (GPa) = 51.85924 22.37533 11.68735
#
# Poissons Ratio (x) = 0.22645 0.03789
# Poissons Ratio (y) = 0.52485 0.57237
# Poissons Ratio (z) = 0.16813 1.09580
#
# Static dielectric constant tensor:
#      x y z
#    x 1.549610 0.000000 0.000000 
#    y 0.000000 1.568280 0.000000 
#    z 0.000000 0.000000 1.537140 
# 
# From -- ./inp_files/36946.got.cif
#   From: 2010.05.17/outbox.cif.g08.bks.cpg/sg64_19_cif.got.tgz:36946.got - 2010.06.03 16:29:19.
