data_PCOD9478798
_publ_section_title
;
Structure prediction by ZEFSAII (Michael W. Deem and Ramdas Pophale) SiO2 
 PCOD9478798
Probable space group: C M C A
;
_chemical_formula_sum "Si O2"
_cell_formula_units_Z 80
_cell_length_a 8.800083
_cell_length_b 19.490748
_cell_length_c 26.074645
_cell_angle_alpha 90.000000
_cell_angle_beta 90.000000
_cell_angle_gamma 90.000000
_cell_volume 4472.328329
_symmetry_space_group_name_H-M "C M C A"
_symmetry_group_IT_number 64
_symmetry_cell_setting 'orthorhombic'
loop_
_space_group_symop_operation_xyz
x,y,z
-x,1/2-y,1/2+z
x,-y,-z
-x,1/2+y,1/2-z
-x,-y,-z
x,1/2+y,1/2-z
-x,y,z
x,1/2-y,1/2+z
1/2+x,1/2+y,z
1/2-x,-y,1/2+z
1/2+x,1/2-y,-z
1/2-x,y,1/2-z
1/2-x,1/2-y,-z
1/2+x,y,1/2-z
1/2-x,1/2+y,z
1/2+x,-y,1/2+z
loop_
_atom_site_type_symbol
_atom_site_label
_atom_site_fract_x
_atom_site_fract_y
_atom_site_fract_z
Si Si1 0.818438 0.138596 0.030135
Si Si2 0.320249 0.985459 0.606848
Si Si3 0.681438 0.733901 0.382660
Si Si4 0.318168 0.875093 0.693797
Si Si5 0.180094 0.870385 0.416937
O O1 0.792145 0.066296 0.059322
O O2 0.745897 0.196596 0.066274
O O3 0.000000 0.149225 0.027029
O O4 0.746233 0.137342 0.974313
O O5 0.500000 0.002460 0.606116
O O6 0.287298 0.940896 0.657572
O O7 0.225001 0.054214 0.602302
O O8 0.500000 0.732490 0.383322
O O9 0.744982 0.689578 0.335425
O O10 0.743021 0.811012 0.383257
O O11 0.500000 0.866377 0.695670
O O12 0.250000 0.883181 0.750000
O O13 0.000000 0.861169 0.417550
#
# Coordination Sequence:
#
# PCOD9478798 Si02
#       5
#    16  16  16  16  16
#     4  10  20  36  56  79 112 151 188 224 269 326
#     4   9  20  37  56  80 111 146 183 224 271 324
#     4  11  22  37  57  81 111 146 187 229 272 323
#     4  10  21  40  64  86 109 139 179 225 275 330
#     4  12  23  34  52  81 116 149 185 228 274 323
#
# _framework density 17.887774
#
# number of rings (size 3 to 8) (size 9 to 14) (size 15 to 20)
#    0.000    1.600    0.000    7.200    0.000    7.200 
#    0.000    1.000    0.000    2.400    0.000    0.000 
#    0.000    0.000    0.000    0.000    0.000    0.000 
#
# Total GULP energy -223623.876084 kJ/mol
# GULP energy per Si atom -5590.596902 kJ/mol
# Density = 1.784706 g / cm^3
# Si number density = 17.887774 Si / 1000 Ang^3
#
#
#
# Elastic Constant Matrix: (Units=GPa)
#
#
# Indices 1 2 3 4 5 6 
#
# 1 114.4280 50.2306 27.0121 0.0000 0.0000 0.0000
# 2 50.2306 74.2990 5.2325 0.0000 0.0000 0.0000
# 3 27.0121 5.2325 66.3654 0.0000 0.0000 0.0000
# 4 0.0000 0.0000 0.0000 2.4858 0.0000 0.0000
# 5 0.0000 0.0000 0.0000 0.0000 32.4094 0.0000
# 6 0.0000 0.0000 0.0000 0.0000 0.0000 35.8551
#
#
#
# Elastic Compliance Matrix: (Units=1/GPa)
#
#
# Indices 1 2 3 4 5 6 
#
# 1 0.013866 -0.009027 -0.004932 0.000000 0.000000 0.000000
# 2 -0.009027 0.019411 0.002144 0.000000 0.000000 0.000000
# 3 -0.004932 0.002144 0.016906 0.000000 0.000000 0.000000
# 4 0.000000 0.000000 0.000000 0.402281 0.000000 0.000000
# 5 0.000000 0.000000 0.000000 0.000000 0.030855 0.000000
# 6 0.000000 0.000000 0.000000 0.000000 0.000000 0.027890
#
#
# Mechanical properties :
#
#
# Convention : Reuss Voigt Hill
#
# Bulk Modulus (GPa) = 37.66064 46.67142 42.16603
# Shear Modulus (GPa) = 9.19640 25.65788 17.42714
#
# Velocity S-wave (km/s) = 2.26987 3.79143 3.12468
# Velocity P-wave (km/s) = 5.28860 6.73160 6.05326
#
# Compressibility (1/GPa) = 0.02655292
#
# Stress axis : x y z
#
# Youngs Moduli (GPa) = 72.11946 51.51764 59.14891
#
# Poissons Ratio (x) = 0.46504 0.29172
# Poissons Ratio (y) = 0.65101 -0.12680
# Poissons Ratio (z) = 0.35569 -0.11044
#
# Static dielectric constant tensor:
#      x y z
#    x 1.590260 0.000000 0.000000 
#    y 0.000000 1.609240 0.000000 
#    z 0.000000 0.000000 1.583770 
# 
# From -- ./inp_files/47798.got.cif
#   From: 2010.05.17/outbox.cif.g08.bks.cpg/sg64_24_cif.got.tgz:47798.got - 2010.06.03 16:29:19.
