data_PCOD9478365
_publ_section_title
;
Structure prediction by ZEFSAII (Michael W. Deem and Ramdas Pophale) SiO2 
 PCOD9478365
Probable space group: C M C A
;
_chemical_formula_sum "Si O2"
_cell_formula_units_Z 48
_cell_length_a 17.887378
_cell_length_b 13.937459
_cell_length_c 8.676552
_cell_angle_alpha 90.000000
_cell_angle_beta 90.000000
_cell_angle_gamma 90.000000
_cell_volume 2163.104304
_symmetry_space_group_name_H-M "C M C A"
_symmetry_group_IT_number 64
_symmetry_cell_setting 'orthorhombic'
loop_
_space_group_symop_operation_xyz
x,y,z
-x,1/2-y,1/2+z
x,-y,-z
-x,1/2+y,1/2-z
-x,-y,-z
x,1/2+y,1/2-z
-x,y,z
x,1/2-y,1/2+z
1/2+x,1/2+y,z
1/2-x,-y,1/2+z
1/2+x,1/2-y,-z
1/2-x,y,1/2-z
1/2-x,1/2-y,-z
1/2+x,y,1/2-z
1/2-x,1/2+y,z
1/2+x,-y,1/2+z
loop_
_atom_site_type_symbol
_atom_site_label
_atom_site_fract_x
_atom_site_fract_y
_atom_site_fract_z
Si Si1 0.697530 0.852997 0.595687
Si Si2 0.587942 0.477981 0.737150
Si Si3 0.153823 0.138040 0.552651
O O1 0.750000 0.839433 0.750000
O O2 0.634975 0.929830 0.629311
O O3 0.758235 0.884466 0.469621
O O4 0.656801 0.752659 0.558970
O O5 0.500000 0.479830 0.760522
O O6 0.619246 0.583217 0.697115
O O7 0.608631 0.408727 0.590347
#
# Coordination Sequence:
#
# PCOD9478365 Si02
#       3
#    16  16  16
#     4   9  19  34  54  80 106 142 185 223 265 322
#     4  10  20  33  55  84 110 141 178 225 282 325
#     4   9  18  34  53  78 108 142 182 220 265 325
#
# _framework density 22.190331
#
# number of rings (size 3 to 8) (size 9 to 14) (size 15 to 20)
#    0.000    2.667    0.000    2.000    0.000    9.333 
#    0.000    0.000    0.000    0.000    0.000   67.667 
#    0.000    0.000    0.000    0.000    0.000    0.000 
#
# Total GULP energy -134102.960700 kJ/mol
# GULP energy per Si atom -5587.623363 kJ/mol
# Density = 2.213982 g / cm^3
# Si number density = 22.190331 Si / 1000 Ang^3
#
#
#
# Elastic Constant Matrix: (Units=GPa)
#
#
# Indices 1 2 3 4 5 6 
#
# 1 169.7474 69.5971 40.0864 0.0000 0.0000 0.0000
# 2 69.5971 90.2748 26.5698 0.0000 0.0000 0.0000
# 3 40.0864 26.5698 27.1438 0.0000 0.0000 0.0000
# 4 0.0000 0.0000 0.0000 31.4071 0.0000 0.0000
# 5 0.0000 0.0000 0.0000 0.0000 17.2196 0.0000
# 6 0.0000 0.0000 0.0000 0.0000 0.0000 -3.5158
#
#
#
# Elastic Compliance Matrix: (Units=1/GPa)
#
#
# Indices 1 2 3 4 5 6 
#
# 1 0.010394 -0.004910 -0.010544 0.000000 0.000000 0.000000
# 2 -0.004910 0.017880 -0.010250 0.000000 0.000000 0.000000
# 3 -0.010544 -0.010250 0.062446 0.000000 0.000000 0.000000
# 4 0.000000 0.000000 0.000000 0.031840 0.000000 0.000000
# 5 0.000000 0.000000 0.000000 0.000000 0.058073 0.000000
# 6 0.000000 0.000000 0.000000 0.000000 0.000000 -0.284431
#
#
# Mechanical properties :
#
#
# Convention : Reuss Voigt Hill
#
# Bulk Modulus (GPa) = 25.43817 62.18583 43.81200
# Shear Modulus (GPa) = -127.27417 19.08303 -54.09557
#
# Velocity S-wave (km/s) = -7.58157 2.93571 -4.94276
# Velocity P-wave (km/s) = 8.07166 6.29093 3.57603
#
# Compressibility (1/GPa) = 0.03931101
#
# Stress axis : x y z
#
# Youngs Moduli (GPa) = 96.20646 55.92985 16.01383
#
# Poissons Ratio (x) = 0.27462 0.16885
# Poissons Ratio (y) = 0.47238 0.16414
# Poissons Ratio (z) = 1.01442 0.57329
#
# Static dielectric constant tensor:
#      x y z
#    x 1.735310 0.000000 0.000000 
#    y 0.000000 1.810980 0.000000 
#    z 0.000000 0.000000 2.016730 
# 
# From -- ./inp_files/13598.got.cif
#   From: 2010.05.17/outbox.cif.g08.bks.cpg/sg64_7_cif.got.tgz:13598.got - 2010.06.03 16:29:19.
