data_PCOD9478893
_publ_section_title
;
Structure prediction by ZEFSAII (Michael W. Deem and Ramdas Pophale) SiO2 
 PCOD9478893
Probable space group: C M C A
;
_chemical_formula_sum "Si O2"
_cell_formula_units_Z 104
_cell_length_a 16.515965
_cell_length_b 20.677089
_cell_length_c 13.240785
_cell_angle_alpha 90.000000
_cell_angle_beta 90.000000
_cell_angle_gamma 90.000000
_cell_volume 4521.755595
_symmetry_space_group_name_H-M "C M C A"
_symmetry_group_IT_number 64
_symmetry_cell_setting 'orthorhombic'
loop_
_space_group_symop_operation_xyz
x,y,z
-x,1/2-y,1/2+z
x,-y,-z
-x,1/2+y,1/2-z
-x,-y,-z
x,1/2+y,1/2-z
-x,y,z
x,1/2-y,1/2+z
1/2+x,1/2+y,z
1/2-x,-y,1/2+z
1/2+x,1/2-y,-z
1/2-x,y,1/2-z
1/2-x,1/2-y,-z
1/2+x,y,1/2-z
1/2-x,1/2+y,z
1/2+x,-y,1/2+z
loop_
_atom_site_type_symbol
_atom_site_label
_atom_site_fract_x
_atom_site_fract_y
_atom_site_fract_z
Si Si1 0.657305 0.600201 0.473174
Si Si2 0.000000 0.219014 0.249754
Si Si3 0.335792 0.647183 0.075628
Si Si4 0.164737 0.775759 0.302139
Si Si5 0.595366 0.055365 0.247848
Si Si6 0.500000 0.672404 0.018747
Si Si7 0.500000 0.320174 0.539687
Si Si8 0.332024 0.430567 0.309366
O O1 0.746419 0.631657 0.463960
O O2 0.631056 0.575159 0.362431
O O3 0.581858 0.647886 0.500312
O O4 0.664814 0.554393 0.570941
O O5 0.916733 0.257720 0.257673
O O6 0.000000 0.186803 0.139784
O O7 0.000000 0.170304 0.341080
O O8 0.336268 0.723347 0.106797
O O9 0.355985 0.599207 0.170228
O O10 0.413221 0.638813 0.000821
O O11 0.250000 0.760584 0.250000
O O12 0.160652 0.852922 0.310287
O O13 0.500000 0.063285 0.263526
O O14 0.607329 0.977722 0.248464
O O15 0.500000 0.743773 0.973767
O O16 0.250000 0.445421 0.250000
#
# Coordination Sequence:
#
# PCOD9478893 Si02
#       8
#    16   8  16  16  16   8   8  16
#     4  12  24  41  73 104 142 183 238 285 353 415
#     4  10  20  36  58  88 139 178 223 271 338 399
#     4  11  22  44  71 102 140 188 232 293 346 430
#     4  10  21  38  64  95 135 178 224 275 345 416
#     4  12  25  45  74 103 137 185 242 295 353 412
#     4  10  22  38  60  98 143 182 235 277 336 421
#     4  12  24  38  65 112 141 182 224 292 352 408
#     4  11  27  45  65 101 143 185 231 285 355 424
#
# _framework density 22.999915999999999
#
# number of rings (size 3 to 8) (size 9 to 14) (size 15 to 20)
#    0.000    0.923    1.538    7.385    2.154    5.538 
#    0.000    0.000    1.692    0.923    0.000    0.000 
#    0.000    0.000    0.000    0.000    0.000    0.000 
#
# Total GULP energy -289954.686431 kJ/mol
# GULP energy per Si atom -5576.051662 kJ/mol
# Density = 2.294757 g / cm^3
# Si number density = 22.999916 Si / 1000 Ang^3
#
#
#
# Elastic Constant Matrix: (Units=GPa)
#
#
# Indices 1 2 3 4 5 6 
#
# 1 213.0826 39.9200 23.4793 0.0000 0.0000 0.0000
# 2 39.9200 82.5505 11.1595 0.0000 0.0000 0.0000
# 3 23.4793 11.1595 41.1718 0.0000 0.0000 0.0000
# 4 0.0000 0.0000 0.0000 29.2158 0.0000 0.0000
# 5 0.0000 0.0000 0.0000 0.0000 420.0110 0.0000
# 6 0.0000 0.0000 0.0000 0.0000 0.0000 -406.0077
#
#
#
# Elastic Compliance Matrix: (Units=1/GPa)
#
#
# Indices 1 2 3 4 5 6 
#
# 1 0.005390 -0.002274 -0.002457 0.000000 0.000000 0.000000
# 2 -0.002274 0.013534 -0.002371 0.000000 0.000000 0.000000
# 3 -0.002457 -0.002371 0.026333 0.000000 0.000000 0.000000
# 4 0.000000 0.000000 0.000000 0.034228 0.000000 0.000000
# 5 0.000000 0.000000 0.000000 0.000000 0.002381 0.000000
# 6 0.000000 0.000000 0.000000 0.000000 0.000000 -0.002463
#
#
# Mechanical properties :
#
#
# Convention : Reuss Voigt Hill
#
# Bulk Modulus (GPa) = 32.20543 53.99138 43.09841
# Shear Modulus (GPa) = 48.09606 26.12690 37.11148
#
# Velocity S-wave (km/s) = 4.57786 3.37405 4.02126
# Velocity P-wave (km/s) = 6.47883 6.22130 6.35137
#
# Compressibility (1/GPa) = 0.03105066
#
# Stress axis : x y z
#
# Youngs Moduli (GPa) = 185.53394 73.88710 37.97578
#
# Poissons Ratio (x) = 0.16804 0.09332
# Poissons Ratio (y) = 0.42195 0.09006
# Poissons Ratio (z) = 0.45591 0.17522
#
# Static dielectric constant tensor:
#      x y z
#    x 1.881960 0.000000 0.000000 
#    y 0.000000 1.925510 0.000000 
#    z 0.000000 0.000000 1.907850 
# 
# From -- ./inp_files/25671.got.cif
#   From: 2010.05.17/outbox.cif.g08.bks.cpg/sg64_13_cif.got.tgz:25671.got - 2010.06.03 16:29:19.
