data_PCOD9478922
_publ_section_title
;
Structure prediction by ZEFSAII (Michael W. Deem and Ramdas Pophale) SiO2 
 PCOD9478922
Probable space group: C M C A
;
_chemical_formula_sum "Si O2"
_cell_formula_units_Z 112
_cell_length_a 17.882482
_cell_length_b 11.330979
_cell_length_c 27.850579
_cell_angle_alpha 90.000000
_cell_angle_beta 90.000000
_cell_angle_gamma 90.000000
_cell_volume 5643.252201
_symmetry_space_group_name_H-M "C M C A"
_symmetry_group_IT_number 64
_symmetry_cell_setting 'orthorhombic'
loop_
_space_group_symop_operation_xyz
x,y,z
-x,1/2-y,1/2+z
x,-y,-z
-x,1/2+y,1/2-z
-x,-y,-z
x,1/2+y,1/2-z
-x,y,z
x,1/2-y,1/2+z
1/2+x,1/2+y,z
1/2-x,-y,1/2+z
1/2+x,1/2-y,-z
1/2-x,y,1/2-z
1/2-x,1/2-y,-z
1/2+x,y,1/2-z
1/2-x,1/2+y,z
1/2+x,-y,1/2+z
loop_
_atom_site_type_symbol
_atom_site_label
_atom_site_fract_x
_atom_site_fract_y
_atom_site_fract_z
Si Si1 0.143460 0.436503 0.067077
Si Si2 0.917180 0.207078 0.653851
Si Si3 0.584540 0.976945 0.635180
Si Si4 0.911487 0.818405 0.528630
Si Si5 0.270830 0.765987 0.695150
Si Si6 0.785428 0.021355 0.803988
Si Si7 0.320621 0.919801 0.452580
O O1 0.116319 0.387705 0.117720
O O2 0.119301 0.571811 0.059804
O O3 0.231877 0.417476 0.058509
O O4 0.100282 0.362636 0.025967
O O5 0.918931 0.335545 0.628807
O O6 0.857635 0.230149 0.695056
O O7 0.000000 0.175739 0.669580
O O8 0.500000 0.022795 0.634117
O O9 0.626309 0.004742 0.685733
O O10 0.634977 0.026432 0.592479
O O11 0.858857 0.706236 0.537486
O O12 0.000000 0.796608 0.537259
O O13 0.250000 0.779443 0.750000
O O14 0.232039 0.649852 0.673974
O O15 0.256343 0.896440 0.673285
O O16 0.750000 0.026575 0.750000
O O17 0.330477 0.000000 0.500000
#
# Coordination Sequence:
#
# PCOD9478922 Si02
#       7
#    16  16  16  16  16  16  16
#     4  11  22  38  60  83 119 160 209 255 305 362
#     4  10  20  36  60  85 115 155 201 247 304 369
#     4  10  22  38  58  88 123 157 200 255 311 365
#     4  11  23  39  59  85 121 162 208 259 311 356
#     4   9  18  35  59  86 115 146 191 245 299 367
#     4   9  18  37  62  86 114 152 196 247 307 371
#     4  12  24  38  60  88 122 166 213 255 303 370
#
# _framework density 19.846712
#
# number of rings (size 3 to 8) (size 9 to 14) (size 15 to 20)
#    0.000    1.714    1.429    4.286    2.000    2.286 
#    2.571    2.857    0.000    1.714    0.000    0.000 
#    0.000    0.000    0.000    0.000    0.000    0.000 
#
# Total GULP energy -311978.341923 kJ/mol
# GULP energy per Si atom -5571.041820 kJ/mol
# Density = 1.980154 g / cm^3
# Si number density = 19.846712 Si / 1000 Ang^3
#
#
#
# Elastic Constant Matrix: (Units=GPa)
#
#
# Indices 1 2 3 4 5 6 
#
# 1 136.1452 32.3899 16.8065 0.0000 0.0000 0.0000
# 2 32.3899 117.4737 -7.8450 0.0000 0.0000 0.0000
# 3 16.8065 -7.8450 47.0189 0.0000 0.0000 0.0000
# 4 0.0000 0.0000 0.0000 12.2398 0.0000 0.0000
# 5 0.0000 0.0000 0.0000 0.0000 20.0546 0.0000
# 6 0.0000 0.0000 0.0000 0.0000 0.0000 22.7929
#
#
#
# Elastic Compliance Matrix: (Units=1/GPa)
#
#
# Indices 1 2 3 4 5 6 
#
# 1 0.008370 -0.002536 -0.003415 0.000000 0.000000 0.000000
# 2 -0.002536 0.009377 0.002471 0.000000 0.000000 0.000000
# 3 -0.003415 0.002471 0.022901 0.000000 0.000000 0.000000
# 4 0.000000 0.000000 0.000000 0.081701 0.000000 0.000000
# 5 0.000000 0.000000 0.000000 0.000000 0.049864 0.000000
# 6 0.000000 0.000000 0.000000 0.000000 0.000000 0.043873
#
#
# Mechanical properties :
#
#
# Convention : Reuss Voigt Hill
#
# Bulk Modulus (GPa) = 29.68414 42.59340 36.13877
# Shear Modulus (GPa) = 21.34249 28.30322 24.82285
#
# Velocity S-wave (km/s) = 3.28284 3.78046 3.54040
# Velocity P-wave (km/s) = 5.41835 6.36896 5.91279
#
# Compressibility (1/GPa) = 0.03368802
#
# Stress axis : x y z
#
# Youngs Moduli (GPa) = 119.47530 106.64702 43.66637
#
# Poissons Ratio (x) = 0.27044 0.14911
# Poissons Ratio (y) = 0.30297 -0.10789
# Poissons Ratio (z) = 0.40799 -0.26351
#
# Static dielectric constant tensor:
#      x y z
#    x 1.709950 0.000000 0.000000 
#    y 0.000000 1.756450 0.000000 
#    z 0.000000 0.000000 1.698400 
# 
# From -- ./inp_files/53291.got.cif
#   From: 2010.05.17/outbox.cif.g08.bks.cpg/sg64_27_cif.got.tgz:53291.got - 2010.06.03 16:29:19.
