data_PCOD9478350
_publ_section_title
;
Structure prediction by ZEFSAII (Michael W. Deem and Ramdas Pophale) SiO2 
 PCOD9478350
Probable space group: C M C A
;
_chemical_formula_sum "Si O2"
_cell_formula_units_Z 80
_cell_length_a 8.788331
_cell_length_b 27.741657
_cell_length_c 18.589589
_cell_angle_alpha 90.000000
_cell_angle_beta 90.000000
_cell_angle_gamma 90.000000
_cell_volume 4532.195043
_symmetry_space_group_name_H-M "C M C A"
_symmetry_group_IT_number 64
_symmetry_cell_setting 'orthorhombic'
loop_
_space_group_symop_operation_xyz
x,y,z
-x,1/2-y,1/2+z
x,-y,-z
-x,1/2+y,1/2-z
-x,-y,-z
x,1/2+y,1/2-z
-x,y,z
x,1/2-y,1/2+z
1/2+x,1/2+y,z
1/2-x,-y,1/2+z
1/2+x,1/2-y,-z
1/2-x,y,1/2-z
1/2-x,1/2-y,-z
1/2+x,y,1/2-z
1/2-x,1/2+y,z
1/2+x,-y,1/2+z
loop_
_atom_site_type_symbol
_atom_site_label
_atom_site_fract_x
_atom_site_fract_y
_atom_site_fract_z
Si Si1 0.682092 0.198160 0.596424
Si Si2 0.183015 0.449431 0.033255
Si Si3 0.317999 0.793166 0.670313
Si Si4 0.817395 0.150564 0.456908
Si Si5 0.819666 0.596094 0.671983
O O1 0.500000 0.204811 0.589944
O O2 0.756967 0.244032 0.633797
O O3 0.753215 0.186106 0.518753
O O4 0.711815 0.150711 0.644897
O O5 0.251531 0.438549 0.111191
O O6 0.000000 0.450516 0.039544
O O7 0.234412 0.500000 0.000000
O O8 0.221233 0.403486 0.983132
O O9 0.500000 0.792656 0.673029
O O10 0.250000 0.797168 0.750000
O O11 0.257624 0.835259 0.618213
O O12 0.000000 0.155325 0.453053
O O13 0.750000 0.588274 0.750000
O O14 0.000000 0.590201 0.674861
#
# Coordination Sequence:
#
# PCOD9478350 Si02
#       5
#    16  16  16  16  16
#     4  10  20  35  55  80 109 142 179 216 260 312
#     4   9  19  37  60  82 105 136 175 219 267 318
#     4  12  24  37  53  76 108 144 182 220 261 310
#     4  10  20  36  57  80 107 139 176 218 264 314
#     4  10  20  33  53  81 111 140 173 217 265 314
#
# _framework density 17.651491
#
# number of rings (size 3 to 8) (size 9 to 14) (size 15 to 20)
#    0.000    1.800    0.000    4.800    0.000    5.200 
#    0.000    1.000    0.000    0.000    0.000    0.000 
#    0.000    0.000    0.000    0.000    0.000    0.000 
#
# Total GULP energy -223517.790922 kJ/mol
# GULP energy per Si atom -5587.944773 kJ/mol
# Density = 1.761132 g / cm^3
# Si number density = 17.651491 Si / 1000 Ang^3
#
#
#
# Elastic Constant Matrix: (Units=GPa)
#
#
# Indices 1 2 3 4 5 6 
#
# 1 79.9316 50.3218 66.5856 0.0000 0.0000 0.0000
# 2 50.3218 94.3484 80.1546 0.0000 0.0000 0.0000
# 3 66.5856 80.1546 155.7165 0.0000 0.0000 0.0000
# 4 0.0000 0.0000 0.0000 17.4671 0.0000 0.0000
# 5 0.0000 0.0000 0.0000 0.0000 35.2846 0.0000
# 6 0.0000 0.0000 0.0000 0.0000 0.0000 20.6010
#
#
#
# Elastic Compliance Matrix: (Units=1/GPa)
#
#
# Indices 1 2 3 4 5 6 
#
# 1 0.021455 -0.006485 -0.005836 0.000000 0.000000 0.000000
# 2 -0.006485 0.020797 -0.007932 0.000000 0.000000 0.000000
# 3 -0.005836 -0.007932 0.013000 0.000000 0.000000 0.000000
# 4 0.000000 0.000000 0.000000 0.057251 0.000000 0.000000
# 5 0.000000 0.000000 0.000000 0.000000 0.028341 0.000000
# 6 0.000000 0.000000 0.000000 0.000000 0.000000 0.048541
#
#
# Mechanical properties :
#
#
# Convention : Reuss Voigt Hill
#
# Bulk Modulus (GPa) = 67.81614 80.45780 74.13697
# Shear Modulus (GPa) = 21.29410 23.53283 22.41347
#
# Velocity S-wave (km/s) = 3.47704 3.65525 3.56726
# Velocity P-wave (km/s) = 7.39071 7.96836 7.68497
#
# Compressibility (1/GPa) = 0.01474575
#
# Stress axis : x y z
#
# Youngs Moduli (GPa) = 46.60857 48.08494 76.92064
#
# Poissons Ratio (x) = 0.31184 0.44892
# Poissons Ratio (y) = 0.30227 0.61012
# Poissons Ratio (z) = 0.27202 0.38140
#
# Static dielectric constant tensor:
#      x y z
#    x 1.583810 0.000000 0.000000 
#    y 0.000000 1.598960 0.000000 
#    z 0.000000 0.000000 1.577290 
# 
# From -- ./inp_files/29793.got.cif
#   From: 2010.05.17/outbox.cif.g08.bks.cpg/sg64_15_cif.got.tgz:29793.got - 2010.06.03 16:29:19.
