data_PCOD9478477
_publ_section_title
;
Structure prediction by ZEFSAII (Michael W. Deem and Ramdas Pophale) SiO2 
 PCOD9478477
Probable space group: C M C A
;
_chemical_formula_sum "Si O2"
_cell_formula_units_Z 80
_cell_length_a 8.757439
_cell_length_b 26.386899
_cell_length_c 19.730122
_cell_angle_alpha 90.000000
_cell_angle_beta 90.000000
_cell_angle_gamma 90.000000
_cell_volume 4559.269312
_symmetry_space_group_name_H-M "C M C A"
_symmetry_group_IT_number 64
_symmetry_cell_setting 'orthorhombic'
loop_
_space_group_symop_operation_xyz
x,y,z
-x,1/2-y,1/2+z
x,-y,-z
-x,1/2+y,1/2-z
-x,-y,-z
x,1/2+y,1/2-z
-x,y,z
x,1/2-y,1/2+z
1/2+x,1/2+y,z
1/2-x,-y,1/2+z
1/2+x,1/2-y,-z
1/2-x,y,1/2-z
1/2-x,1/2-y,-z
1/2+x,y,1/2-z
1/2-x,1/2+y,z
1/2+x,-y,1/2+z
loop_
_atom_site_type_symbol
_atom_site_label
_atom_site_fract_x
_atom_site_fract_y
_atom_site_fract_z
Si Si1 0.817408 0.309226 0.572059
Si Si2 0.317352 0.003899 0.825995
Si Si3 0.682238 0.691735 0.576997
Si Si4 0.683075 0.608928 0.325945
Si Si5 0.681856 0.607499 0.825862
O O1 0.741183 0.318271 0.499022
O O2 0.783410 0.250857 0.591920
O O3 0.753552 0.348380 0.626552
O O4 0.000000 0.314085 0.566009
O O5 0.500000 0.009977 0.823528
O O6 0.250000 0.002378 0.750000
O O7 0.243733 0.054346 0.856719
O O8 0.282670 0.947896 0.854044
O O9 0.500000 0.684763 0.580073
O O10 0.762524 0.654073 0.628959
O O11 0.500000 0.613871 0.322532
O O12 0.750000 0.612721 0.250000
O O13 0.500000 0.605677 0.821511
O O14 0.750000 0.612296 0.750000
#
# Coordination Sequence:
#
# PCOD9478477 Si02
#       5
#    16  16  16  16  16
#     4  10  21  37  57  79 105 139 176 216 264 316
#     4   9  17  31  51  76 106 139 173 211 260 311
#     4  10  21  38  57  77 105 140 176 216 264 316
#     4  10  20  34  55  81 109 141 176 217 261 309
#     4  11  21  34  55  81 108 139 176 218 262 309
#
# _framework density 17.546672000000001
#
# number of rings (size 3 to 8) (size 9 to 14) (size 15 to 20)
#    0.000    2.000    0.000    5.400    0.000    5.600 
#    0.000    1.000    0.000    6.000    0.000    0.000 
#    0.000    0.000    0.000    0.000    0.000    0.000 
#
# Total GULP energy -223191.918709 kJ/mol
# GULP energy per Si atom -5579.797968 kJ/mol
# Density = 1.750673 g / cm^3
# Si number density = 17.546672 Si / 1000 Ang^3
#
#
#
# Elastic Constant Matrix: (Units=GPa)
#
#
# Indices 1 2 3 4 5 6 
#
# 1 112.2110 82.5524 47.3693 0.0000 0.0000 0.0000
# 2 82.5524 156.3122 84.0247 0.0000 0.0000 0.0000
# 3 47.3693 84.0247 67.3413 0.0000 0.0000 0.0000
# 4 0.0000 0.0000 0.0000 -52.3663 0.0000 0.0000
# 5 0.0000 0.0000 0.0000 0.0000 31.2470 0.0000
# 6 0.0000 0.0000 0.0000 0.0000 0.0000 29.4482
#
#
#
# Elastic Compliance Matrix: (Units=1/GPa)
#
#
# Indices 1 2 3 4 5 6 
#
# 1 0.014661 -0.006679 -0.001979 0.000000 0.000000 0.000000
# 2 -0.006679 0.022471 -0.023340 0.000000 0.000000 0.000000
# 3 -0.001979 -0.023340 0.045365 0.000000 0.000000 0.000000
# 4 0.000000 0.000000 0.000000 -0.019096 0.000000 0.000000
# 5 0.000000 0.000000 0.000000 0.000000 0.032003 0.000000
# 6 0.000000 0.000000 0.000000 0.000000 0.000000 0.033958
#
#
# Mechanical properties :
#
#
# Convention : Reuss Voigt Hill
#
# Bulk Modulus (GPa) = 54.05422 84.86193 69.45808
# Shear Modulus (GPa) = 25.05961 9.79365 17.42663
#
# Velocity S-wave (km/s) = 3.78321 2.36508 3.15486
# Velocity P-wave (km/s) = 7.06799 7.47841 7.27609
#
# Compressibility (1/GPa) = 0.01849994
#
# Stress axis : x y z
#
# Youngs Moduli (GPa) = 68.20885 44.50177 22.04366
#
# Poissons Ratio (x) = 0.29722 0.04363
# Poissons Ratio (y) = 0.45555 0.51450
# Poissons Ratio (z) = 0.13501 1.03868
#
# Static dielectric constant tensor:
#      x y z
#    x 1.585340 0.000000 0.000000 
#    y 0.000000 1.626270 0.000000 
#    z 0.000000 0.000000 1.533590 
# 
# From -- ./inp_files/29759.got.cif
#   From: 2010.05.17/outbox.cif.g08.bks.cpg/sg64_15_cif.got.tgz:29759.got - 2010.06.03 16:29:19.
