data_PCOD9478906
_publ_section_title
;
Structure prediction by ZEFSAII (Michael W. Deem and Ramdas Pophale) SiO2 
 PCOD9478906
Probable space group: C M C A
;
_chemical_formula_sum "Si O2"
_cell_formula_units_Z 64
_cell_length_a 14.023390
_cell_length_b 19.582397
_cell_length_c 10.064406
_cell_angle_alpha 90.000000
_cell_angle_beta 90.000000
_cell_angle_gamma 90.000000
_cell_volume 2763.802537
_symmetry_space_group_name_H-M "C M C A"
_symmetry_group_IT_number 64
_symmetry_cell_setting 'orthorhombic'
loop_
_space_group_symop_operation_xyz
x,y,z
-x,1/2-y,1/2+z
x,-y,-z
-x,1/2+y,1/2-z
-x,-y,-z
x,1/2+y,1/2-z
-x,y,z
x,1/2-y,1/2+z
1/2+x,1/2+y,z
1/2-x,-y,1/2+z
1/2+x,1/2-y,-z
1/2-x,y,1/2-z
1/2-x,1/2-y,-z
1/2+x,y,1/2-z
1/2-x,1/2+y,z
1/2+x,-y,1/2+z
loop_
_atom_site_type_symbol
_atom_site_label
_atom_site_fract_x
_atom_site_fract_y
_atom_site_fract_z
Si Si1 0.102904 0.617310 0.288056
Si Si2 0.330114 0.973853 0.358830
Si Si3 0.391088 0.685680 0.490018
Si Si4 0.316388 0.667735 0.952765
O O1 0.104602 0.536303 0.313398
O O2 0.113590 0.633884 0.133983
O O3 0.176540 0.652358 0.388363
O O4 0.000000 0.645383 0.329553
O O5 0.250000 0.969408 0.250000
O O6 0.365994 0.897536 0.385591
O O7 0.289684 0.000000 0.500000
O O8 0.500000 0.683150 0.544104
O O9 0.368595 0.760975 0.431070
O O10 0.297050 0.671537 0.580041
#
# Coordination Sequence:
#
# PCOD9478906 Si02
#       4
#    16  16  16  16
#     4  10  20  36  59  85 116 155 200 249 304 361
#     4  10  21  38  60  85 118 158 199 244 300 358
#     4  10  21  37  58  86 119 156 198 249 308 364
#     4  10  21  36  59  85 118 156 200 248 300 361
#
# _framework density 23.156502
#
# number of rings (size 3 to 8) (size 9 to 14) (size 15 to 20)
#    0.000    2.000    0.000    4.500    0.000    9.500 
#    0.000    1.250    0.000   10.500    0.000    0.000 
#    0.000    0.000    0.000    0.000    0.000    0.000 
#
# Total GULP energy -178493.121794 kJ/mol
# GULP energy per Si atom -5577.910056 kJ/mol
# Density = 2.310380 g / cm^3
# Si number density = 23.156502 Si / 1000 Ang^3
#
#
#
# Elastic Constant Matrix: (Units=GPa)
#
#
# Indices 1 2 3 4 5 6 
#
# 1 114.5482 2.2175 -8.9610 0.0000 0.0000 0.0000
# 2 2.2175 127.2757 24.2928 0.0000 0.0000 0.0000
# 3 -8.9610 24.2928 30.4606 0.0000 0.0000 0.0000
# 4 0.0000 0.0000 0.0000 14.5607 0.0000 0.0000
# 5 0.0000 0.0000 0.0000 0.0000 9.5370 0.0000
# 6 0.0000 0.0000 0.0000 0.0000 0.0000 53.7095
#
#
#
# Elastic Compliance Matrix: (Units=1/GPa)
#
#
# Indices 1 2 3 4 5 6 
#
# 1 0.009001 -0.000781 0.003271 0.000000 0.000000 0.000000
# 2 -0.000781 0.009335 -0.007675 0.000000 0.000000 0.000000
# 3 0.003271 -0.007675 0.039912 0.000000 0.000000 0.000000
# 4 0.000000 0.000000 0.000000 0.068678 0.000000 0.000000
# 5 0.000000 0.000000 0.000000 0.000000 0.104855 0.000000
# 6 0.000000 0.000000 0.000000 0.000000 0.000000 0.018619
#
#
# Mechanical properties :
#
#
# Convention : Reuss Voigt Hill
#
# Bulk Modulus (GPa) = 20.88623 34.15369 27.51996
# Shear Modulus (GPa) = 18.06812 32.54379 25.30596
#
# Velocity S-wave (km/s) = 2.79635 3.75291 3.30937
# Velocity P-wave (km/s) = 4.41194 5.79312 5.14905
#
# Compressibility (1/GPa) = 0.04787844
#
# Stress axis : x y z
#
# Youngs Moduli (GPa) = 111.09941 107.11821 25.05482
#
# Poissons Ratio (x) = 0.08367 -0.08195
# Poissons Ratio (y) = 0.08678 0.19230
# Poissons Ratio (z) = -0.36340 0.82213
#
# Static dielectric constant tensor:
#      x y z
#    x 1.885180 0.000000 0.000000 
#    y 0.000000 1.897070 0.000000 
#    z 0.000000 0.000000 1.865100 
# 
# From -- ./inp_files/14157.got.cif
#   From: 2010.05.17/outbox.cif.g08.bks.cpg/sg64_8_cif.got.tgz:14157.got - 2010.06.03 16:29:19.
