data_PCOD9478069
_publ_section_title
;
Structure prediction by ZEFSAII (Michael W. Deem and Ramdas Pophale) SiO2 
 PCOD9478069
Probable space group: C M C A
;
_chemical_formula_sum "Si O2"
_cell_formula_units_Z 88
_cell_length_a 14.954777
_cell_length_b 21.060950
_cell_length_c 14.491679
_cell_angle_alpha 90.000000
_cell_angle_beta 90.000000
_cell_angle_gamma 90.000000
_cell_volume 4564.325457
_symmetry_space_group_name_H-M "C M C A"
_symmetry_group_IT_number 64
_symmetry_cell_setting 'orthorhombic'
loop_
_space_group_symop_operation_xyz
x,y,z
-x,1/2-y,1/2+z
x,-y,-z
-x,1/2+y,1/2-z
-x,-y,-z
x,1/2+y,1/2-z
-x,y,z
x,1/2-y,1/2+z
1/2+x,1/2+y,z
1/2-x,-y,1/2+z
1/2+x,1/2-y,-z
1/2-x,y,1/2-z
1/2-x,1/2-y,-z
1/2+x,y,1/2-z
1/2-x,1/2+y,z
1/2+x,-y,1/2+z
loop_
_atom_site_type_symbol
_atom_site_label
_atom_site_fract_x
_atom_site_fract_y
_atom_site_fract_z
Si Si1 0.601237 0.116667 0.678755
Si Si2 0.744052 0.863556 0.026341
Si Si3 0.671809 0.160131 0.325127
Si Si4 0.601635 0.204242 0.856173
Si Si5 0.841132 0.021628 0.191304
Si Si6 0.248065 0.500000 0.000000
O O1 0.500000 0.129899 0.646425
O O2 0.674068 0.129479 0.599147
O O3 0.621062 0.160701 0.766704
O O4 0.606041 0.042846 0.710483
O O5 0.673102 0.814209 0.066036
O O6 0.782159 0.846757 0.925910
O O7 0.699007 0.933987 0.020699
O O8 0.750000 0.168985 0.250000
O O9 0.612278 0.222537 0.328345
O O10 0.623117 0.093365 0.300248
O O11 0.500000 0.191618 0.885704
O O12 0.750000 0.019257 0.250000
O O13 0.811352 0.014908 0.085695
#
# Coordination Sequence:
#
# PCOD9478069 Si02
#       6
#    16  16  16  16  16   8
#     4  10  20  34  57  85 111 144 185 228 277 332
#     4  10  19  37  59  80 112 146 181 227 278 331
#     4  10  21  37  57  81 110 149 188 229 279 330
#     4  11  23  37  56  83 112 147 189 231 277 330
#     4   9  17  32  54  78 107 143 180 221 275 328
#     4   8  16  30  54  82 102 134 178 218 262 320
#
# _framework density 19.279958000000001
#
# number of rings (size 3 to 8) (size 9 to 14) (size 15 to 20)
#    0.000    2.182    0.000    4.364    0.000    1.455 
#    0.000   18.636    0.000    6.545    0.000    0.000 
#    0.000    0.000    0.000    0.000    0.000    0.000 
#
# Total GULP energy -245268.143221 kJ/mol
# GULP energy per Si atom -5574.275982 kJ/mol
# Density = 1.923608 g / cm^3
# Si number density = 19.279958 Si / 1000 Ang^3
#
#
#
# Elastic Constant Matrix: (Units=GPa)
#
#
# Indices 1 2 3 4 5 6 
#
# 1 65.4893 22.5246 37.6653 0.0000 0.0000 0.0000
# 2 22.5246 127.3895 32.0621 0.0000 0.0000 0.0000
# 3 37.6653 32.0621 72.0381 0.0000 0.0000 0.0000
# 4 0.0000 0.0000 0.0000 -2.3520 0.0000 0.0000
# 5 0.0000 0.0000 0.0000 0.0000 -2.7862 0.0000
# 6 0.0000 0.0000 0.0000 0.0000 0.0000-4480.4486
#
#
#
# Elastic Compliance Matrix: (Units=1/GPa)
#
#
# Indices 1 2 3 4 5 6 
#
# 1 0.021977 -0.001119 -0.010992 0.000000 0.000000 0.000000
# 2 -0.001119 0.008897 -0.003375 0.000000 0.000000 0.000000
# 3 -0.010992 -0.003375 0.021131 0.000000 0.000000 0.000000
# 4 0.000000 0.000000 0.000000 -0.425169 0.000000 0.000000
# 5 0.000000 0.000000 0.000000 0.000000 -0.358908 0.000000
# 6 0.000000 0.000000 0.000000 0.000000 0.000000 -0.000223
#
#
# Mechanical properties :
#
#
# Convention : Reuss Voigt Hill
#
# Bulk Modulus (GPa) = 47.54626 49.93567 48.74096
# Shear Modulus (GPa) = -7.20138 -885.60637 -446.40388
#
# Velocity S-wave (km/s) = -1.93475 -21.45548 -15.23287
# Velocity P-wave (km/s) = 4.44111 24.24514 16.85383
#
# Compressibility (1/GPa) = 0.02103215
#
# Stress axis : x y z
#
# Youngs Moduli (GPa) = 45.50255 112.39490 47.32387
#
# Poissons Ratio (x) = 0.12579 0.52021
# Poissons Ratio (y) = 0.05093 0.15970
# Poissons Ratio (z) = 0.50019 0.37930
#
# Static dielectric constant tensor:
#      x y z
#    x 1.640690 0.000000 0.000000 
#    y 0.000000 1.753200 0.000000 
#    z 0.000000 0.000000 1.648170 
# 
# From -- ./inp_files/23769.got.cif
#   From: 2010.05.17/outbox.cif.g08.bks.cpg/sg64_12_cif.got.tgz:23769.got - 2010.06.03 16:29:19.
