data_PCOD9478874
_publ_section_title
;
Structure prediction by ZEFSAII (Michael W. Deem and Ramdas Pophale) SiO2 
 PCOD9478874
Probable space group: C M C A
;
_chemical_formula_sum "Si O2"
_cell_formula_units_Z 64
_cell_length_a 8.663619
_cell_length_b 20.536200
_cell_length_c 20.117024
_cell_angle_alpha 90.000000
_cell_angle_beta 90.000000
_cell_angle_gamma 90.000000
_cell_volume 3579.176904
_symmetry_space_group_name_H-M "C M C A"
_symmetry_group_IT_number 64
_symmetry_cell_setting 'orthorhombic'
loop_
_space_group_symop_operation_xyz
x,y,z
-x,1/2-y,1/2+z
x,-y,-z
-x,1/2+y,1/2-z
-x,-y,-z
x,1/2+y,1/2-z
-x,y,z
x,1/2-y,1/2+z
1/2+x,1/2+y,z
1/2-x,-y,1/2+z
1/2+x,1/2-y,-z
1/2-x,y,1/2-z
1/2-x,1/2-y,-z
1/2+x,y,1/2-z
1/2-x,1/2+y,z
1/2+x,-y,1/2+z
loop_
_atom_site_type_symbol
_atom_site_label
_atom_site_fract_x
_atom_site_fract_y
_atom_site_fract_z
Si Si1 0.684803 0.829147 0.676227
Si Si2 0.315435 0.913560 0.057205
Si Si3 0.184914 0.548645 0.412877
Si Si4 0.315531 0.226509 0.571086
O O1 0.500000 0.821375 0.676222
O O2 0.750000 0.823354 0.750000
O O3 0.720245 0.899985 0.644790
O O4 0.757608 0.775629 0.627467
O O5 0.500000 0.911739 0.056573
O O6 0.247267 0.846096 0.083325
O O7 0.255902 0.977156 0.096125
O O8 0.254020 0.923623 0.981819
O O9 0.000000 0.543603 0.420256
O O10 0.500000 0.226123 0.567914
O O11 0.250000 0.250000 0.500000
#
# Coordination Sequence:
#
# PCOD9478874 Si02
#       4
#    16  16  16  16
#     4  11  24  41  62  88 122 162 202 247 304 366
#     4  11  21  34  58  89 120 152 196 248 302 351
#     4  10  20  36  58  85 119 155 196 245 299 354
#     4  12  23  38  61  89 122 158 203 253 305 360
#
# _framework density 17.881207
#
# number of rings (size 3 to 8) (size 9 to 14) (size 15 to 20)
#    0.000    1.000    2.500    7.500    0.000    3.000 
#    0.000    1.250    0.000    3.000    0.000    0.000 
#    0.000    0.000    0.000    0.000    0.000    0.000 
#
# Total GULP energy -178925.982196 kJ/mol
# GULP energy per Si atom -5591.436944 kJ/mol
# Density = 1.784051 g / cm^3
# Si number density = 17.881207 Si / 1000 Ang^3
#
#
#
# Elastic Constant Matrix: (Units=GPa)
#
#
# Indices 1 2 3 4 5 6 
#
# 1 151.0865 85.8798 66.1402 0.0000 0.0000 0.0000
# 2 85.8798 179.7726 86.8833 0.0000 0.0000 0.0000
# 3 66.1402 86.8833 122.6975 0.0000 0.0000 0.0000
# 4 0.0000 0.0000 0.0000 23.6466 0.0000 0.0000
# 5 0.0000 0.0000 0.0000 0.0000 28.4016 0.0000
# 6 0.0000 0.0000 0.0000 0.0000 0.0000 32.9250
#
#
#
# Elastic Compliance Matrix: (Units=1/GPa)
#
#
# Indices 1 2 3 4 5 6 
#
# 1 0.009752 -0.003220 -0.002977 0.000000 0.000000 0.000000
# 2 -0.003220 0.009520 -0.005005 0.000000 0.000000 0.000000
# 3 -0.002977 -0.005005 0.013299 0.000000 0.000000 0.000000
# 4 0.000000 0.000000 0.000000 0.042289 0.000000 0.000000
# 5 0.000000 0.000000 0.000000 0.000000 0.035209 0.000000
# 6 0.000000 0.000000 0.000000 0.000000 0.000000 0.030372
#
#
# Mechanical properties :
#
#
# Convention : Reuss Voigt Hill
#
# Bulk Modulus (GPa) = 98.35938 103.48483 100.92210
# Shear Modulus (GPa) = 30.07786 31.30487 30.69136
#
# Velocity S-wave (km/s) = 4.10578 4.18869 4.14744
# Velocity P-wave (km/s) = 8.80926 9.02179 8.91616
#
# Compressibility (1/GPa) = 0.01016680
#
# Stress axis : x y z
#
# Youngs Moduli (GPa) = 102.54108 105.04265 75.19313
#
# Poissons Ratio (x) = 0.33825 0.22383
# Poissons Ratio (y) = 0.33019 0.37637
# Poissons Ratio (z) = 0.30524 0.52578
#
# Static dielectric constant tensor:
#      x y z
#    x 1.595370 0.000000 0.000000 
#    y 0.000000 1.622430 0.000000 
#    z 0.000000 0.000000 1.573550 
# 
# From -- ./inp_files/29251.got.cif
#   From: 2010.05.17/outbox.cif.g08.bks.cpg/sg64_15_cif.got.tgz:29251.got - 2010.06.03 16:29:19.
