data_PCOD9478771
_publ_section_title
;
Structure prediction by ZEFSAII (Michael W. Deem and Ramdas Pophale) SiO2 
 PCOD9478771
Probable space group: C M C A
;
_chemical_formula_sum "Si O2"
_cell_formula_units_Z 96
_cell_length_a 27.174913
_cell_length_b 10.910701
_cell_length_c 16.108099
_cell_angle_alpha 90.000000
_cell_angle_beta 90.000000
_cell_angle_gamma 90.000000
_cell_volume 4776.008674
_symmetry_space_group_name_H-M "C M C A"
_symmetry_group_IT_number 64
_symmetry_cell_setting 'orthorhombic'
loop_
_space_group_symop_operation_xyz
x,y,z
-x,1/2-y,1/2+z
x,-y,-z
-x,1/2+y,1/2-z
-x,-y,-z
x,1/2+y,1/2-z
-x,y,z
x,1/2-y,1/2+z
1/2+x,1/2+y,z
1/2-x,-y,1/2+z
1/2+x,1/2-y,-z
1/2-x,y,1/2-z
1/2-x,1/2-y,-z
1/2+x,y,1/2-z
1/2-x,1/2+y,z
1/2+x,-y,1/2+z
loop_
_atom_site_type_symbol
_atom_site_label
_atom_site_fract_x
_atom_site_fract_y
_atom_site_fract_z
Si Si1 0.621124 0.266264 0.834166
Si Si2 0.556204 0.026024 0.402044
Si Si3 0.274832 0.632793 0.953791
Si Si4 0.306641 0.436411 0.756058
Si Si5 0.860840 0.346527 0.334516
Si Si6 0.325630 0.039629 0.904670
O O1 0.577699 0.341444 0.876703
O O2 0.668830 0.354332 0.827326
O O3 0.615003 0.239108 0.736017
O O4 0.635100 0.143812 0.882684
O O5 0.500000 0.012618 0.373156
O O6 0.557146 0.000000 0.500000
O O7 0.594246 0.931045 0.362600
O O8 0.326015 0.679172 0.913956
O O9 0.229769 0.592794 0.893724
O O10 0.284689 0.500000 0.000000
O O11 0.250000 0.750000 0.000000
O O12 0.250000 0.406731 0.750000
O O13 0.321289 0.573708 0.781396
O O14 0.328588 0.430774 0.662664
O O15 0.329902 0.000000 0.000000
#
# Coordination Sequence:
#
# PCOD9478771 Si02
#       6
#    16  16  16  16  16  16
#     4  10  24  36  62  90 118 168 207 270 328 396
#     4  10  23  44  67  89 117 160 223 287 344 403
#     4  11  25  36  58  97 136 188 221 266 321 400
#     4  10  20  36  53  82 125 163 208 246 305 383
#     4  10  22  38  60  91 126 167 214 264 329 402
#     4  10  23  37  53  87 127 172 208 256 310 386
#
# _framework density 20.100466000000001
#
# number of rings (size 3 to 8) (size 9 to 14) (size 15 to 20)
#    0.000    1.833    1.667    0.500   14.000    0.667 
#    0.000    0.000    0.000    0.500    0.000    0.000 
#    0.000    0.667    0.000    0.000    0.000    0.000 
#
# Total GULP energy -267346.557846 kJ/mol
# GULP energy per Si atom -5569.719955 kJ/mol
# Density = 2.005472 g / cm^3
# Si number density = 20.100466 Si / 1000 Ang^3
#
#
#
# Elastic Constant Matrix: (Units=GPa)
#
#
# Indices 1 2 3 4 5 6 
#
# 1 132.0399 38.5085 45.1530 0.0000 0.0000 0.0000
# 2 38.5085 73.6723 45.8592 0.0000 0.0000 0.0000
# 3 45.1530 45.8592 93.9647 0.0000 0.0000 0.0000
# 4 0.0000 0.0000 0.0000 28.3466 0.0000 0.0000
# 5 0.0000 0.0000 0.0000 0.0000 22.7834 0.0000
# 6 0.0000 0.0000 0.0000 0.0000 0.0000 13.1455
#
#
#
# Elastic Compliance Matrix: (Units=1/GPa)
#
#
# Indices 1 2 3 4 5 6 
#
# 1 0.009519 -0.003057 -0.003082 0.000000 0.000000 0.000000
# 2 -0.003057 0.020478 -0.008525 0.000000 0.000000 0.000000
# 3 -0.003082 -0.008525 0.016284 0.000000 0.000000 0.000000
# 4 0.000000 0.000000 0.000000 0.035278 0.000000 0.000000
# 5 0.000000 0.000000 0.000000 0.000000 0.043892 0.000000
# 6 0.000000 0.000000 0.000000 0.000000 0.000000 0.076072
#
#
# Mechanical properties :
#
#
# Convention : Reuss Voigt Hill
#
# Bulk Modulus (GPa) = 58.98901 62.07981 60.53441
# Shear Modulus (GPa) = 21.14142 24.19885 22.67013
#
# Velocity S-wave (km/s) = 3.24665 3.47348 3.36198
# Velocity P-wave (km/s) = 6.59280 6.85847 6.72695
#
# Compressibility (1/GPa) = 0.01695231
#
# Stress axis : x y z
#
# Youngs Moduli (GPa) = 105.05268 48.83202 61.40911
#
# Poissons Ratio (x) = 0.14928 0.18928
# Poissons Ratio (y) = 0.32114 0.52354
# Poissons Ratio (z) = 0.32380 0.41631
#
# Static dielectric constant tensor:
#      x y z
#    x 1.689200 0.000000 0.000000 
#    y 0.000000 1.844540 0.000000 
#    z 0.000000 0.000000 1.853400 
# 
# From -- ./inp_files/34968.got.cif
#   From: 2010.05.17/outbox.cif.g08.bks.cpg/sg64_18_cif.got.tgz:34968.got - 2010.06.03 16:29:19.
