data_PCOD9478228
_publ_section_title
;
Structure prediction by ZEFSAII (Michael W. Deem and Ramdas Pophale) SiO2 
 PCOD9478228
Probable space group: C M C A
;
_chemical_formula_sum "Si O2"
_cell_formula_units_Z 64
_cell_length_a 8.908588
_cell_length_b 13.221570
_cell_length_c 17.571724
_cell_angle_alpha 90.000000
_cell_angle_beta 90.000000
_cell_angle_gamma 90.000000
_cell_volume 2069.694646
_symmetry_space_group_name_H-M "C M C A"
_symmetry_group_IT_number 64
_symmetry_cell_setting 'orthorhombic'
loop_
_space_group_symop_operation_xyz
x,y,z
-x,1/2-y,1/2+z
x,-y,-z
-x,1/2+y,1/2-z
-x,-y,-z
x,1/2+y,1/2-z
-x,y,z
x,1/2-y,1/2+z
1/2+x,1/2+y,z
1/2-x,-y,1/2+z
1/2+x,1/2-y,-z
1/2-x,y,1/2-z
1/2-x,1/2-y,-z
1/2+x,y,1/2-z
1/2-x,1/2+y,z
1/2+x,-y,1/2+z
loop_
_atom_site_type_symbol
_atom_site_label
_atom_site_fract_x
_atom_site_fract_y
_atom_site_fract_z
Si Si1 0.500000 0.220926 0.465714
Si Si2 0.750000 0.803165 0.750000
Si Si3 0.758717 0.500000 0.500000
Si Si4 0.500000 0.924038 0.658717
Si Si5 0.000000 0.035201 0.707352
Si Si6 0.000000 0.374868 0.913814
Si Si7 0.740590 0.156833 0.623275
O O1 0.500000 0.108491 0.429284
O O2 0.500000 0.260437 0.552685
O O3 0.354272 0.273939 0.427730
O O4 0.643580 0.870389 0.697285
O O5 0.671743 0.731328 0.813297
O O6 0.645423 0.572235 0.452182
O O7 0.827492 0.423622 0.436840
O O8 0.500000 0.030865 0.701484
O O9 0.000000 0.922927 0.669833
O O10 0.144127 0.090195 0.673972
#
# Coordination Sequence:
#
# PCOD9478228 Si02
#       7
#     8   8   8   8   8   8  16
#     4   7  12  25  44  66  90 123 160 189 222 276
#     4  10  20  34  50  68  96 134 160 184 232 296
#     4   7  10  20  42  69  86 108 158 208 222 248
#     4  10  20  32  48  71 100 127 154 192 238 282
#     4   9  16  27  48  76  96 115 154 209 242 262
#     4   7  10  20  42  68  90 113 154 200 228 259
#     4   8  14  26  47  69  89 119 162 198 226 269
#
# _framework density 30.922436000000001
#
# number of rings (size 3 to 8) (size 9 to 14) (size 15 to 20)
#    0.000    3.750    0.000    3.750    0.000    1.000 
#    0.000    0.000    0.000   27.750    0.000    0.000 
#    0.000    0.000    0.000    0.000    0.000    0.000 
#
# Total GULP energy -179336.462316 kJ/mol
# GULP energy per Si atom -5604.264447 kJ/mol
# Density = 3.085205 g / cm^3
# Si number density = 30.922436 Si / 1000 Ang^3
#
#
#
# Elastic Constant Matrix: (Units=GPa)
#
#
# Indices 1 2 3 4 5 6 
#
# 1 108.3857 25.9628 25.6199 0.0000 0.0000 0.0000
# 2 25.9628 107.6608 -32.1331 0.0000 0.0000 0.0000
# 3 25.6199 -32.1331 207.2067 0.0000 0.0000 0.0000
# 4 0.0000 0.0000 0.0000 62.6192 0.0000 0.0000
# 5 0.0000 0.0000 0.0000 0.0000 50.6805 0.0000
# 6 0.0000 0.0000 0.0000 0.0000 0.0000 40.6736
#
#
#
# Elastic Compliance Matrix: (Units=1/GPa)
#
#
# Indices 1 2 3 4 5 6 
#
# 1 0.010364 -0.003022 -0.001750 0.000000 0.000000 0.000000
# 2 -0.003022 0.010620 0.002021 0.000000 0.000000 0.000000
# 3 -0.001750 0.002021 0.005356 0.000000 0.000000 0.000000
# 4 0.000000 0.000000 0.000000 0.015970 0.000000 0.000000
# 5 0.000000 0.000000 0.000000 0.000000 0.019731 0.000000
# 6 0.000000 0.000000 0.000000 0.000000 0.000000 0.024586
#
#
# Mechanical properties :
#
#
# Convention : Reuss Voigt Hill
#
# Bulk Modulus (GPa) = 47.98998 51.35029 49.67013
# Shear Modulus (GPa) = 50.46701 57.71491 54.09096
#
# Velocity S-wave (km/s) = 4.04425 4.32492 4.18694
# Velocity P-wave (km/s) = 6.11237 6.44842 6.28264
#
# Compressibility (1/GPa) = 0.02083768
#
# Stress axis : x y z
#
# Youngs Moduli (GPa) = 96.49015 94.16060 186.71292
#
# Poissons Ratio (x) = 0.28451 0.32675
# Poissons Ratio (y) = 0.29155 -0.37726
# Poissons Ratio (z) = 0.16886 -0.19026
#
# Static dielectric constant tensor:
#      x y z
#    x 2.277190 0.000000 0.000000 
#    y 0.000000 2.428380 0.000000 
#    z 0.000000 0.000000 2.303780 
# 
# From -- ./inp_files/31857.got.cif
#   From: 2010.05.17/outbox.cif.g08.bks.cpg/sg64_16_cif.got.tgz:31857.got - 2010.06.03 16:29:19.
