data_PCOD9478590
_publ_section_title
;
Structure prediction by ZEFSAII (Michael W. Deem and Ramdas Pophale) SiO2 
 PCOD9478590
Probable space group: C M C A
;
_chemical_formula_sum "Si O2"
_cell_formula_units_Z 96
_cell_length_a 13.782543
_cell_length_b 10.425056
_cell_length_c 34.247743
_cell_angle_alpha 90.000000
_cell_angle_beta 90.000000
_cell_angle_gamma 90.000000
_cell_volume 4920.845260
_symmetry_space_group_name_H-M "C M C A"
_symmetry_group_IT_number 64
_symmetry_cell_setting 'orthorhombic'
loop_
_space_group_symop_operation_xyz
x,y,z
-x,1/2-y,1/2+z
x,-y,-z
-x,1/2+y,1/2-z
-x,-y,-z
x,1/2+y,1/2-z
-x,y,z
x,1/2-y,1/2+z
1/2+x,1/2+y,z
1/2-x,-y,1/2+z
1/2+x,1/2-y,-z
1/2-x,y,1/2-z
1/2-x,1/2-y,-z
1/2+x,y,1/2-z
1/2-x,1/2+y,z
1/2+x,-y,1/2+z
loop_
_atom_site_type_symbol
_atom_site_label
_atom_site_fract_x
_atom_site_fract_y
_atom_site_fract_z
Si Si1 0.296143 0.809855 0.831265
Si Si2 0.000000 0.983638 0.264029
Si Si3 0.709076 0.429236 0.293194
Si Si4 0.183520 0.401106 0.033738
Si Si5 0.110000 0.804097 0.022123
Si Si6 0.110872 0.594986 0.091897
Si Si7 0.500000 0.750910 0.290554
O O1 0.233828 0.683828 0.822924
O O2 0.316246 0.855732 0.875074
O O3 0.402393 0.772874 0.814532
O O4 0.254140 0.931919 0.807606
O O5 0.905185 0.947358 0.288257
O O6 0.000000 0.893255 0.226468
O O7 0.000000 0.137172 0.257962
O O8 0.750000 0.398029 0.250000
O O9 0.300372 0.395315 0.032970
O O10 0.143617 0.459551 0.073575
O O11 0.151979 0.500000 0.000000
O O12 0.140916 0.266249 0.018415
O O13 0.110983 0.697915 0.056643
O O14 0.000000 0.854439 0.019690
O O15 0.000000 0.585934 0.106639
#
# Coordination Sequence:
#
# PCOD9478590 Si02
#       7
#    16   8  16  16  16  16   8
#     4  11  23  37  58  86 113 149 185 234 285 331
#     4  10  22  36  60  78 112 138 186 234 274 337
#     4  11  23  39  59  83 110 146 188 232 280 335
#     4   9  18  33  55  81 106 141 182 225 273 326
#     4   9  18  33  55  80 108 142 183 224 271 330
#     4  10  20  35  55  78 110 145 184 227 272 332
#     4  10  20  38  58  86 109 146 186 231 285 329
#
# _framework density 19.508844
#
# number of rings (size 3 to 8) (size 9 to 14) (size 15 to 20)
#    0.000    2.000    2.500    1.000    4.667    2.333 
#    0.000    0.000    1.833    0.000    0.000    0.000 
#    0.000    0.000    0.000    0.000    0.000    0.000 
#
# Total GULP energy -267667.520168 kJ/mol
# GULP energy per Si atom -5576.406670 kJ/mol
# Density = 1.946444 g / cm^3
# Si number density = 19.508844 Si / 1000 Ang^3
#
#
#
# Elastic Constant Matrix: (Units=GPa)
#
#
# Indices 1 2 3 4 5 6 
#
# 1 52.2294 -8.4697 -0.2656 0.0000 0.0000 0.0000
# 2 -8.4697 29.7995 -3.7739 0.0000 0.0000 0.0000
# 3 -0.2656 -3.7739 35.9229 0.0000 0.0000 0.0000
# 4 0.0000 0.0000 0.0000 15.9719 0.0000 0.0000
# 5 0.0000 0.0000 0.0000 0.0000 18.5199 0.0000
# 6 0.0000 0.0000 0.0000 0.0000 0.0000 18.6998
#
#
#
# Elastic Compliance Matrix: (Units=1/GPa)
#
#
# Indices 1 2 3 4 5 6 
#
# 1 0.020092 0.005807 0.000759 0.000000 0.000000 0.000000
# 2 0.005807 0.035688 0.003792 0.000000 0.000000 0.000000
# 3 0.000759 0.003792 0.028241 0.000000 0.000000 0.000000
# 4 0.000000 0.000000 0.000000 0.062610 0.000000 0.000000
# 5 0.000000 0.000000 0.000000 0.000000 0.053996 0.000000
# 6 0.000000 0.000000 0.000000 0.000000 0.000000 0.053477
#
#
# Mechanical properties :
#
#
# Convention : Reuss Voigt Hill
#
# Bulk Modulus (GPa) = 9.54780 10.32593 9.93687
# Shear Modulus (GPa) = 18.63577 19.33571 18.98574
#
# Velocity S-wave (km/s) = 3.09406 3.15163 3.12298
# Velocity P-wave (km/s) = 4.20345 4.30675 4.25542
#
# Compressibility (1/GPa) = 0.10473614
#
# Stress axis : x y z
#
# Youngs Moduli (GPa) = 49.77158 28.02042 35.40898
#
# Poissons Ratio (x) = -0.16270 -0.02686
# Poissons Ratio (y) = -0.28900 -0.13428
# Poissons Ratio (z) = -0.03776 -0.10626
#
# Static dielectric constant tensor:
#      x y z
#    x 1.690900 0.000000 0.000000 
#    y 0.000000 1.711030 0.000000 
#    z 0.000000 0.000000 1.693360 
# 
# From -- ./inp_files/53195.got.cif
#   From: 2010.05.17/outbox.cif.g08.bks.cpg/sg64_27_cif.got.tgz:53195.got - 2010.06.03 16:29:19.
