data_PCOD9478075
_publ_section_title
;
Structure prediction by ZEFSAII (Michael W. Deem and Ramdas Pophale) SiO2 
 PCOD9478075
Probable space group: C M C A
;
_chemical_formula_sum "Si O2"
_cell_formula_units_Z 112
_cell_length_a 22.813184
_cell_length_b 15.245543
_cell_length_c 16.686153
_cell_angle_alpha 90.000000
_cell_angle_beta 90.000000
_cell_angle_gamma 90.000000
_cell_volume 5803.433629
_symmetry_space_group_name_H-M "C M C A"
_symmetry_group_IT_number 64
_symmetry_cell_setting 'orthorhombic'
loop_
_space_group_symop_operation_xyz
x,y,z
-x,1/2-y,1/2+z
x,-y,-z
-x,1/2+y,1/2-z
-x,-y,-z
x,1/2+y,1/2-z
-x,y,z
x,1/2-y,1/2+z
1/2+x,1/2+y,z
1/2-x,-y,1/2+z
1/2+x,1/2-y,-z
1/2-x,y,1/2-z
1/2-x,1/2-y,-z
1/2+x,y,1/2-z
1/2-x,1/2+y,z
1/2+x,-y,1/2+z
loop_
_atom_site_type_symbol
_atom_site_label
_atom_site_fract_x
_atom_site_fract_y
_atom_site_fract_z
Si Si1 0.185103 0.929170 0.211827
Si Si2 0.067909 0.755575 0.970383
Si Si3 0.348819 0.101068 0.210109
Si Si4 0.931902 0.571840 0.063999
Si Si5 0.323186 0.156424 0.540308
Si Si6 0.140834 0.231561 0.688353
Si Si7 0.248291 0.319320 0.895880
O O1 0.250000 0.925298 0.250000
O O2 0.183339 0.901287 0.119277
O O3 0.148215 0.858327 0.263536
O O4 0.160488 0.026096 0.224799
O O5 0.094382 0.731420 0.883402
O O6 0.000000 0.782075 0.965318
O O7 0.071495 0.667810 0.024174
O O8 0.111011 0.827936 0.009110
O O9 0.392984 0.068898 0.142478
O O10 0.371648 0.190407 0.249492
O O11 0.287383 0.122107 0.166038
O O12 0.000000 0.552962 0.082045
O O13 0.911090 0.500000 0.000000
O O14 0.282147 0.129075 0.465791
O O15 0.298321 0.252916 0.564448
O O16 0.203286 0.259850 0.648935
#
# Coordination Sequence:
#
# PCOD9478075 Si02
#       7
#    16  16  16  16  16  16  16
#     4  12  22  36  59  92 124 157 195 247 305 367
#     4  10  21  39  63  85 110 160 213 248 293 359
#     4  12  23  37  59  91 123 159 197 244 305 366
#     4  10  21  38  57  82 116 154 205 257 297 349
#     4  10  20  37  63  84 115 157 197 242 295 351
#     4  11  21  38  58  87 126 154 190 247 309 353
#     4  10  19  37  60  82 118 158 188 235 301 352
#
# _framework density 19.298919999999999
#
# number of rings (size 3 to 8) (size 9 to 14) (size 15 to 20)
#    0.000    1.286    4.286    2.143    0.000    1.714 
#    0.000    7.143    0.000    0.857    0.000    0.000 
#    0.000    0.000    0.000    0.000    0.000    0.000 
#
# Total GULP energy -313030.682455 kJ/mol
# GULP energy per Si atom -5589.833615 kJ/mol
# Density = 1.925499 g / cm^3
# Si number density = 19.298920 Si / 1000 Ang^3
#
#
#
# Elastic Constant Matrix: (Units=GPa)
#
#
# Indices 1 2 3 4 5 6 
#
# 1 67.6812 2.9122 9.8515 0.0000 0.0000 0.0000
# 2 2.9122 44.3099 0.4203 0.0000 0.0000 0.0000
# 3 9.8515 0.4203 65.3398 0.0000 0.0000 0.0000
# 4 0.0000 0.0000 0.0000 29.4271 0.0000 0.0000
# 5 0.0000 0.0000 0.0000 0.0000 10.9518 0.0000
# 6 0.0000 0.0000 0.0000 0.0000 0.0000 9.5760
#
#
#
# Elastic Compliance Matrix: (Units=1/GPa)
#
#
# Indices 1 2 3 4 5 6 
#
# 1 0.015149 -0.000974 -0.002278 0.000000 0.000000 0.000000
# 2 -0.000974 0.022632 0.000001 0.000000 0.000000 0.000000
# 3 -0.002278 0.000001 0.015648 0.000000 0.000000 0.000000
# 4 0.000000 0.000000 0.000000 0.033982 0.000000 0.000000
# 5 0.000000 0.000000 0.000000 0.000000 0.091309 0.000000
# 6 0.000000 0.000000 0.000000 0.000000 0.000000 0.104427
#
#
# Mechanical properties :
#
#
# Convention : Reuss Voigt Hill
#
# Bulk Modulus (GPa) = 21.30927 22.63323 21.97125
# Shear Modulus (GPa) = 16.37781 20.93412 18.65597
#
# Velocity S-wave (km/s) = 2.91630 3.29710 3.11253
# Velocity P-wave (km/s) = 4.73344 5.12325 4.93219
#
# Compressibility (1/GPa) = 0.04692793
#
# Stress axis : x y z
#
# Youngs Moduli (GPa) = 66.01269 44.18464 63.90589
#
# Poissons Ratio (x) = 0.04304 0.14556
# Poissons Ratio (y) = 0.06430 -0.00008
# Poissons Ratio (z) = 0.15036 -0.00006
#
# Static dielectric constant tensor:
#      x y z
#    x 1.665210 0.000000 0.000000 
#    y 0.000000 1.669850 0.000000 
#    z 0.000000 0.000000 1.682730 
# 
# From -- ./inp_files/27430.got.cif
#   From: 2010.05.17/outbox.cif.g08.bks.cpg/sg64_14_cif.got.tgz:27430.got - 2010.06.03 16:29:19.
