data_PCOD9478359
_publ_section_title
;
Structure prediction by ZEFSAII (Michael W. Deem and Ramdas Pophale) SiO2 
 PCOD9478359
Probable space group: C M C A
;
_chemical_formula_sum "Si O2"
_cell_formula_units_Z 80
_cell_length_a 8.703070
_cell_length_b 26.802884
_cell_length_c 19.333925
_cell_angle_alpha 90.000000
_cell_angle_beta 90.000000
_cell_angle_gamma 90.000000
_cell_volume 4509.973946
_symmetry_space_group_name_H-M "C M C A"
_symmetry_group_IT_number 64
_symmetry_cell_setting 'orthorhombic'
loop_
_space_group_symop_operation_xyz
x,y,z
-x,1/2-y,1/2+z
x,-y,-z
-x,1/2+y,1/2-z
-x,-y,-z
x,1/2+y,1/2-z
-x,y,z
x,1/2-y,1/2+z
1/2+x,1/2+y,z
1/2-x,-y,1/2+z
1/2+x,1/2-y,-z
1/2-x,y,1/2-z
1/2-x,1/2-y,-z
1/2+x,y,1/2-z
1/2-x,1/2+y,z
1/2+x,-y,1/2+z
loop_
_atom_site_type_symbol
_atom_site_label
_atom_site_fract_x
_atom_site_fract_y
_atom_site_fract_z
Si Si1 0.316384 0.752023 0.672140
Si Si2 0.683716 0.645742 0.327461
Si Si3 0.183687 0.445880 0.422636
Si Si4 0.815228 0.447704 0.923244
Si Si5 0.315332 0.358702 0.327885
O O1 0.500000 0.756869 0.674679
O O2 0.250000 0.751110 0.750000
O O3 0.246112 0.802295 0.640808
O O4 0.278764 0.697075 0.643481
O O5 0.500000 0.648846 0.322969
O O6 0.750000 0.640454 0.250000
O O7 0.725702 0.598099 0.373494
O O8 0.248625 0.439078 0.500161
O O9 0.247563 0.499561 0.398124
O O10 0.243542 0.401671 0.374428
O O11 0.000000 0.447131 0.424259
O O12 0.000000 0.451402 0.927305
O O13 0.500000 0.363426 0.325634
O O14 0.250000 0.362062 0.250000
#
# Coordination Sequence:
#
# PCOD9478359 Si02
#       5
#    16  16  16  16  16
#     4   9  17  30  51  76 105 138 170 208 256 306
#     4  10  20  33  54  80 106 137 172 212 258 305
#     4  11  22  36  56  79 103 137 176 217 264 314
#     4  10  21  38  56  75 104 141 176 215 262 313
#     4  10  20  35  55  80 108 139 174 214 259 308
#
# _framework density 17.738462999999999
#
# number of rings (size 3 to 8) (size 9 to 14) (size 15 to 20)
#    0.000    2.000    0.000    6.600    0.000    6.400 
#    0.000    3.000    0.000    0.000    0.000    0.000 
#    0.000    0.000    0.000    0.000    0.000    0.000 
#
# Total GULP energy -223175.794877 kJ/mol
# GULP energy per Si atom -5579.394872 kJ/mol
# Density = 1.769809 g / cm^3
# Si number density = 17.738463 Si / 1000 Ang^3
#
#
#
# Elastic Constant Matrix: (Units=GPa)
#
#
# Indices 1 2 3 4 5 6 
#
# 1 96.2959 80.2995 34.4882 0.0000 0.0000 0.0000
# 2 80.2995 220.5834 81.2604 0.0000 0.0000 0.0000
# 3 34.4882 81.2604 48.3285 0.0000 0.0000 0.0000
# 4 0.0000 0.0000 0.0000 -81.4540 0.0000 0.0000
# 5 0.0000 0.0000 0.0000 0.0000 24.2851 0.0000
# 6 0.0000 0.0000 0.0000 0.0000 0.0000 12.5996
#
#
#
# Elastic Compliance Matrix: (Units=1/GPa)
#
#
# Indices 1 2 3 4 5 6 
#
# 1 0.015208 -0.004042 -0.004057 0.000000 0.000000 0.000000
# 2 -0.004042 0.012986 -0.018950 0.000000 0.000000 0.000000
# 3 -0.004057 -0.018950 0.055451 0.000000 0.000000 0.000000
# 4 0.000000 0.000000 0.000000 -0.012277 0.000000 0.000000
# 5 0.000000 0.000000 0.000000 0.000000 0.041177 0.000000
# 6 0.000000 0.000000 0.000000 0.000000 0.000000 0.079367
#
#
# Mechanical properties :
#
#
# Convention : Reuss Voigt Hill
#
# Bulk Modulus (GPa) = 33.84546 84.14488 58.99517
# Shear Modulus (GPa) = 19.54201 2.36347 10.95274
#
# Velocity S-wave (km/s) = 3.32275 1.15555 2.48756
# Velocity P-wave (km/s) = 5.81744 7.02280 6.44835
#
# Compressibility (1/GPa) = 0.02954606
#
# Stress axis : x y z
#
# Youngs Moduli (GPa) = 65.75530 77.00704 18.03409
#
# Poissons Ratio (x) = 0.31123 0.07317
# Poissons Ratio (y) = 0.26576 0.34175
# Poissons Ratio (z) = 0.26677 1.45932
#
# Static dielectric constant tensor:
#      x y z
#    x 1.592050 0.000000 0.000000 
#    y 0.000000 1.639520 0.000000 
#    z 0.000000 0.000000 1.568630 
# 
# From -- ./inp_files/29817.got.cif
#   From: 2010.05.17/outbox.cif.g08.bks.cpg/sg64_15_cif.got.tgz:29817.got - 2010.06.03 16:29:19.
