data_PCOD9478965
_publ_section_title
;
Structure prediction by ZEFSAII (Michael W. Deem and Ramdas Pophale) SiO2 
 PCOD9478965
Probable space group: C M C A
;
_chemical_formula_sum "Si O2"
_cell_formula_units_Z 88
_cell_length_a 29.961987
_cell_length_b 17.087716
_cell_length_c 9.876573
_cell_angle_alpha 90.000000
_cell_angle_beta 90.000000
_cell_angle_gamma 90.000000
_cell_volume 5056.626854
_symmetry_space_group_name_H-M "C M C A"
_symmetry_group_IT_number 64
_symmetry_cell_setting 'orthorhombic'
loop_
_space_group_symop_operation_xyz
x,y,z
-x,1/2-y,1/2+z
x,-y,-z
-x,1/2+y,1/2-z
-x,-y,-z
x,1/2+y,1/2-z
-x,y,z
x,1/2-y,1/2+z
1/2+x,1/2+y,z
1/2-x,-y,1/2+z
1/2+x,1/2-y,-z
1/2-x,y,1/2-z
1/2-x,1/2-y,-z
1/2+x,y,1/2-z
1/2-x,1/2+y,z
1/2+x,-y,1/2+z
loop_
_atom_site_type_symbol
_atom_site_label
_atom_site_fract_x
_atom_site_fract_y
_atom_site_fract_z
Si Si1 0.235056 0.067216 0.600973
Si Si2 0.294904 0.201781 0.528232
Si Si3 0.000000 0.310125 0.730758
Si Si4 0.500000 0.590800 0.953909
Si Si5 0.000000 0.093361 0.506264
Si Si6 0.562469 0.162983 0.769922
Si Si7 0.835447 0.801385 0.315875
O O1 0.250000 0.039441 0.750000
O O2 0.277489 0.113029 0.536186
O O3 0.194999 0.128735 0.624192
O O4 0.221034 0.000000 0.500000
O O5 0.250000 0.250000 0.500000
O O6 0.331081 0.228916 0.419030
O O7 0.312464 0.222842 0.676031
O O8 0.000000 0.356080 0.588868
O O9 0.958316 0.250247 0.739611
O O10 0.000000 0.368181 0.858215
O O11 0.457844 0.614687 0.857706
O O12 0.500000 0.500000 0.000000
O O13 0.958257 0.124048 0.595136
O O14 0.000000 0.000000 0.500000
O O15 0.615165 0.169546 0.783477
#
# Coordination Sequence:
#
# PCOD9478965 Si02
#       7
#    16  16   8   8   8  16  16
#     4   9  19  36  55  77 112 152 187 224 281 342
#     4   9  19  36  56  80 110 150 186 231 284 333
#     4  10  20  36  62  82 110 152 194 224 284 346
#     4  10  21  40  61  78 116 160 182 228 299 352
#     4  10  21  38  59  82 116 154 184 232 295 350
#     4  10  21  36  58  87 115 145 193 239 282 340
#     4  10  21  34  59  85 113 140 193 245 273 326
#
# _framework density 17.402906000000002
#
# number of rings (size 3 to 8) (size 9 to 14) (size 15 to 20)
#    0.000    2.545    0.000    4.909    5.091    3.636 
#    0.000    3.636    8.000    0.000    0.000    0.000 
#    0.000    0.000    0.000    0.000    0.000    0.000 
#
# Total GULP energy -245177.493188 kJ/mol
# GULP energy per Si atom -5572.215754 kJ/mol
# Density = 1.736330 g / cm^3
# Si number density = 17.402906 Si / 1000 Ang^3
#
#
#
# Elastic Constant Matrix: (Units=GPa)
#
#
# Indices 1 2 3 4 5 6 
#
# 1 82.9383 47.9923 67.8048 0.0000 0.0000 0.0000
# 2 47.9923 85.7407 71.6654 0.0000 0.0000 0.0000
# 3 67.8048 71.6654 138.3002 0.0000 0.0000 0.0000
# 4 0.0000 0.0000 0.0000 38.9267 0.0000 0.0000
# 5 0.0000 0.0000 0.0000 0.0000 9.1647 0.0000
# 6 0.0000 0.0000 0.0000 0.0000 0.0000 6.9947
#
#
#
# Elastic Compliance Matrix: (Units=1/GPa)
#
#
# Indices 1 2 3 4 5 6 
#
# 1 0.021601 -0.005714 -0.007629 0.000000 0.000000 0.000000
# 2 -0.005714 0.022086 -0.008643 0.000000 0.000000 0.000000
# 3 -0.007629 -0.008643 0.015450 0.000000 0.000000 0.000000
# 4 0.000000 0.000000 0.000000 0.025689 0.000000 0.000000
# 5 0.000000 0.000000 0.000000 0.000000 0.109114 0.000000
# 6 0.000000 0.000000 0.000000 0.000000 0.000000 0.142966
#
#
# Mechanical properties :
#
#
# Convention : Reuss Voigt Hill
#
# Bulk Modulus (GPa) = 65.94781 75.76712 70.85746
# Shear Modulus (GPa) = 12.95562 18.98500 15.97031
#
# Velocity S-wave (km/s) = 2.73142 3.30648 3.03261
# Velocity P-wave (km/s) = 6.92276 7.62946 7.28468
#
# Compressibility (1/GPa) = 0.01516351
#
# Stress axis : x y z
#
# Youngs Moduli (GPa) = 46.29464 45.27843 64.72524
#
# Poissons Ratio (x) = 0.25871 0.49382
# Poissons Ratio (y) = 0.26452 0.55943
# Poissons Ratio (z) = 0.35320 0.39135
#
# Static dielectric constant tensor:
#      x y z
#    x 1.594800 0.000000 0.000000 
#    y 0.000000 1.603390 0.000000 
#    z 0.000000 0.000000 1.592910 
# 
# From -- ./inp_files/11102.got.cif
#   From: 2010.05.17/outbox.cif.g08.bks.cpg/sg64_6_cif.got.tgz:11102.got - 2010.06.03 16:29:19.
