data_PCOD9478774
_publ_section_title
;
Structure prediction by ZEFSAII (Michael W. Deem and Ramdas Pophale) SiO2 
 PCOD9478774
Probable space group: C M C A
;
_chemical_formula_sum "Si O2"
_cell_formula_units_Z 96
_cell_length_a 29.010446
_cell_length_b 20.322130
_cell_length_c 7.244653
_cell_angle_alpha 90.000000
_cell_angle_beta 90.000000
_cell_angle_gamma 90.000000
_cell_volume 4271.114553
_symmetry_space_group_name_H-M "C M C A"
_symmetry_group_IT_number 64
_symmetry_cell_setting 'orthorhombic'
loop_
_space_group_symop_operation_xyz
x,y,z
-x,1/2-y,1/2+z
x,-y,-z
-x,1/2+y,1/2-z
-x,-y,-z
x,1/2+y,1/2-z
-x,y,z
x,1/2-y,1/2+z
1/2+x,1/2+y,z
1/2-x,-y,1/2+z
1/2+x,1/2-y,-z
1/2-x,y,1/2-z
1/2-x,1/2-y,-z
1/2+x,y,1/2-z
1/2-x,1/2+y,z
1/2+x,-y,1/2+z
loop_
_atom_site_type_symbol
_atom_site_label
_atom_site_fract_x
_atom_site_fract_y
_atom_site_fract_z
Si Si1 0.351362 0.109644 0.197994
Si Si2 0.696262 0.021383 0.712216
Si Si3 0.711820 0.282204 0.627660
Si Si4 0.550370 0.349329 0.666328
Si Si5 0.350079 0.845224 0.364783
Si Si6 0.050830 0.300966 0.411320
O O1 0.325481 0.164233 0.077352
O O2 0.404731 0.106510 0.142802
O O3 0.347928 0.139823 0.410356
O O4 0.325681 0.040597 0.183453
O O5 0.750000 0.031607 0.750000
O O6 0.668682 0.089035 0.728436
O O7 0.692090 0.000000 0.500000
O O8 0.750000 0.321204 0.750000
O O9 0.750000 0.250000 0.500000
O O10 0.681326 0.218346 0.683376
O O11 0.500000 0.376387 0.615573
O O12 0.556591 0.277726 0.573625
O O13 0.549308 0.331334 0.884312
O O14 0.403276 0.829678 0.319621
O O15 0.000000 0.312466 0.325201
#
# Coordination Sequence:
#
# PCOD9478774 Si02
#       6
#    16  16  16  16  16  16
#     4  10  20  36  55  79 109 142 178 225 271 318
#     4  10  22  39  56  73 110 150 183 220 269 325
#     4  12  22  33  53  82 109 140 181 232 270 315
#     4   9  17  31  52  79 106 135 172 219 273 322
#     4  10  20  36  54  80 106 143 181 220 272 321
#     4   9  17  31  52  78 106 133 171 222 272 320
#
# _framework density 22.476569000000001
#
# number of rings (size 3 to 8) (size 9 to 14) (size 15 to 20)
#    0.000    2.000    3.333    1.000    2.333    0.000 
#    0.000    0.833    0.000    5.000    0.000    0.000 
#    0.000    6.667    0.000    0.000    0.000    0.000 
#
# Total GULP energy -267894.087888 kJ/mol
# GULP energy per Si atom -5581.126831 kJ/mol
# Density = 2.242541 g / cm^3
# Si number density = 22.476569 Si / 1000 Ang^3
#
#
#
# Elastic Constant Matrix: (Units=GPa)
#
#
# Indices 1 2 3 4 5 6 
#
# 1 239.9486 90.2556 17.9931 0.0000 0.0000 0.0000
# 2 90.2556 129.6587 24.1311 0.0000 0.0000 0.0000
# 3 17.9931 24.1311 37.1706 0.0000 0.0000 0.0000
# 4 0.0000 0.0000 0.0000 27.1094 0.0000 0.0000
# 5 0.0000 0.0000 0.0000 0.0000 21.0215 0.0000
# 6 0.0000 0.0000 0.0000 0.0000 0.0000 29.8311
#
#
#
# Elastic Compliance Matrix: (Units=1/GPa)
#
#
# Indices 1 2 3 4 5 6 
#
# 1 0.005647 -0.003893 -0.000207 0.000000 0.000000 0.000000
# 2 -0.003893 0.011456 -0.005553 0.000000 0.000000 0.000000
# 3 -0.000207 -0.005553 0.030608 0.000000 0.000000 0.000000
# 4 0.000000 0.000000 0.000000 0.036888 0.000000 0.000000
# 5 0.000000 0.000000 0.000000 0.000000 0.047570 0.000000
# 6 0.000000 0.000000 0.000000 0.000000 0.000000 0.033522
#
#
# Mechanical properties :
#
#
# Convention : Reuss Voigt Hill
#
# Bulk Modulus (GPa) = 35.20270 74.61528 54.90899
# Shear Modulus (GPa) = 25.71178 33.88561 29.79869
#
# Velocity S-wave (km/s) = 3.38588 3.88699 3.64506
# Velocity P-wave (km/s) = 5.56611 7.30848 6.49598
#
# Compressibility (1/GPa) = 0.02840691
#
# Stress axis : x y z
#
# Youngs Moduli (GPa) = 177.07781 87.29328 32.67140
#
# Poissons Ratio (x) = 0.33980 0.00675
# Poissons Ratio (y) = 0.68929 0.18141
# Poissons Ratio (z) = 0.03658 0.48471
#
# Static dielectric constant tensor:
#      x y z
#    x 1.685100 0.000000 0.000000 
#    y 0.000000 1.758340 0.000000 
#    z 0.000000 0.000000 2.044160 
# 
# From -- ./inp_files/10378.got.cif
#   From: 2010.05.17/outbox.cif.g08.bks.cpg/sg64_6_cif.got.tgz:10378.got - 2010.06.03 16:29:19.
