data_PCOD9478489
_publ_section_title
;
Structure prediction by ZEFSAII (Michael W. Deem and Ramdas Pophale) SiO2 
 PCOD9478489
Probable space group: C M C A
;
_chemical_formula_sum "Si O2"
_cell_formula_units_Z 112
_cell_length_a 18.366258
_cell_length_b 18.660817
_cell_length_c 16.966607
_cell_angle_alpha 90.000000
_cell_angle_beta 90.000000
_cell_angle_gamma 90.000000
_cell_volume 5814.954690
_symmetry_space_group_name_H-M "C M C A"
_symmetry_group_IT_number 64
_symmetry_cell_setting 'orthorhombic'
loop_
_space_group_symop_operation_xyz
x,y,z
-x,1/2-y,1/2+z
x,-y,-z
-x,1/2+y,1/2-z
-x,-y,-z
x,1/2+y,1/2-z
-x,y,z
x,1/2-y,1/2+z
1/2+x,1/2+y,z
1/2-x,-y,1/2+z
1/2+x,1/2-y,-z
1/2-x,y,1/2-z
1/2-x,1/2-y,-z
1/2+x,y,1/2-z
1/2-x,1/2+y,z
1/2+x,-y,1/2+z
loop_
_atom_site_type_symbol
_atom_site_label
_atom_site_fract_x
_atom_site_fract_y
_atom_site_fract_z
Si Si1 0.415738 0.441229 0.432344
Si Si2 0.158856 0.676209 0.024564
Si Si3 0.085520 0.423620 0.665405
Si Si4 0.586648 0.943825 0.242006
Si Si5 0.083252 0.822680 0.681640
Si Si6 0.825276 0.193447 0.076493
Si Si7 0.168580 0.705139 0.768682
O O1 0.410440 0.500000 0.500000
O O2 0.500000 0.414239 0.430572
O O3 0.360373 0.377875 0.453946
O O4 0.400650 0.473801 0.346319
O O5 0.106450 0.652722 0.095470
O O6 0.242378 0.673874 0.053608
O O7 0.144637 0.757456 0.994845
O O8 0.113844 0.502603 0.689660
O O9 0.088872 0.380437 0.748454
O O10 0.130394 0.377078 0.602420
O O11 0.000000 0.426853 0.642765
O O12 0.500000 0.939852 0.253401
O O13 0.619023 0.864803 0.235789
O O14 0.138213 0.759525 0.703552
O O15 0.000000 0.797359 0.681478
O O16 0.829469 0.247612 0.151394
O O17 0.250000 0.682400 0.750000
#
# Coordination Sequence:
#
# PCOD9478489 Si02
#       7
#    16  16  16  16  16  16  16
#     4  10  20  34  55  84 118 150 184 235 295 350
#     4  11  20  36  57  83 123 151 192 237 293 356
#     4   9  20  38  58  83 114 149 198 244 286 350
#     4  10  20  37  58  80 110 147 190 240 289 342
#     4  10  20  34  57  84 111 149 191 236 288 345
#     4  10  22  37  58  83 115 154 190 239 293 348
#     4  11  20  38  55  81 114 148 193 242 283 344
#
# _framework density 19.260681999999999
#
# number of rings (size 3 to 8) (size 9 to 14) (size 15 to 20)
#    0.000    1.857    2.857    1.714    0.000    4.000 
#    5.143    0.000    0.000    0.000    0.000    3.000 
#    0.000    0.000    0.000    0.000    0.000    0.000 
#
# Total GULP energy -312209.619570 kJ/mol
# GULP energy per Si atom -5575.171778 kJ/mol
# Density = 1.921684 g / cm^3
# Si number density = 19.260682 Si / 1000 Ang^3
#
#
#
# Elastic Constant Matrix: (Units=GPa)
#
#
# Indices 1 2 3 4 5 6 
#
# 1 43.1607 28.7992 18.9827 0.0000 0.0000 0.0000
# 2 28.7992 79.1403 13.9065 0.0000 0.0000 0.0000
# 3 18.9827 13.9065 33.5395 0.0000 0.0000 0.0000
# 4 0.0000 0.0000 0.0000 36.7781 0.0000 0.0000
# 5 0.0000 0.0000 0.0000 0.0000 25.7171 0.0000
# 6 0.0000 0.0000 0.0000 0.0000 0.0000 -47.4123
#
#
#
# Elastic Compliance Matrix: (Units=1/GPa)
#
#
# Indices 1 2 3 4 5 6 
#
# 1 0.037811 -0.010785 -0.016928 0.000000 0.000000 0.000000
# 2 -0.010785 0.016705 -0.000822 0.000000 0.000000 0.000000
# 3 -0.016928 -0.000822 0.039738 0.000000 0.000000 0.000000
# 4 0.000000 0.000000 0.000000 0.027190 0.000000 0.000000
# 5 0.000000 0.000000 0.000000 0.000000 0.038885 0.000000
# 6 0.000000 0.000000 0.000000 0.000000 0.000000 -0.021092
#
#
# Mechanical properties :
#
#
# Convention : Reuss Voigt Hill
#
# Bulk Modulus (GPa) = 26.89458 31.02414 28.95936
# Shear Modulus (GPa) = 23.95767 9.29339 16.62553
#
# Velocity S-wave (km/s) = 3.53067 2.19898 2.94119
# Velocity P-wave (km/s) = 5.53305 4.75288 5.15774
#
# Compressibility (1/GPa) = 0.03718221
#
# Stress axis : x y z
#
# Youngs Moduli (GPa) = 26.44759 59.86288 25.16500
#
# Poissons Ratio (x) = 0.64560 0.42600
# Poissons Ratio (y) = 0.28523 0.02070
# Poissons Ratio (z) = 0.44772 0.04924
#
# Static dielectric constant tensor:
#      x y z
#    x 1.643510 0.000000 0.000000 
#    y 0.000000 1.684690 0.000000 
#    z 0.000000 0.000000 1.694630 
# 
# From -- ./inp_files/34479.got.cif
#   From: 2010.05.17/outbox.cif.g08.bks.cpg/sg64_18_cif.got.tgz:34479.got - 2010.06.03 16:29:19.
