data_PCOD9478692
_publ_section_title
;
Structure prediction by ZEFSAII (Michael W. Deem and Ramdas Pophale) SiO2 
 PCOD9478692
Probable space group: C M C A
;
_chemical_formula_sum "Si O2"
_cell_formula_units_Z 112
_cell_length_a 29.237588
_cell_length_b 15.243224
_cell_length_c 14.205546
_cell_angle_alpha 90.000000
_cell_angle_beta 90.000000
_cell_angle_gamma 90.000000
_cell_volume 6331.058178
_symmetry_space_group_name_H-M "C M C A"
_symmetry_group_IT_number 64
_symmetry_cell_setting 'orthorhombic'
loop_
_space_group_symop_operation_xyz
x,y,z
-x,1/2-y,1/2+z
x,-y,-z
-x,1/2+y,1/2-z
-x,-y,-z
x,1/2+y,1/2-z
-x,y,z
x,1/2-y,1/2+z
1/2+x,1/2+y,z
1/2-x,-y,1/2+z
1/2+x,1/2-y,-z
1/2-x,y,1/2-z
1/2-x,1/2-y,-z
1/2+x,y,1/2-z
1/2-x,1/2+y,z
1/2+x,-y,1/2+z
loop_
_atom_site_type_symbol
_atom_site_label
_atom_site_fract_x
_atom_site_fract_y
_atom_site_fract_z
Si Si1 0.405319 0.886973 0.229344
Si Si2 0.000000 0.139413 0.436755
Si Si3 0.000000 0.558094 0.855004
Si Si4 0.404165 0.723760 0.372797
Si Si5 0.215922 0.915614 0.536637
Si Si6 0.651818 0.439749 0.707441
Si Si7 0.716156 0.173428 0.326772
Si Si8 0.851419 0.204247 0.566890
O O1 0.455948 0.920329 0.207213
O O2 0.403788 0.812797 0.310790
O O3 0.388253 0.842613 0.132398
O O4 0.373759 0.973440 0.242672
O O5 0.954627 0.192338 0.405280
O O6 0.000000 0.116051 0.548458
O O7 0.000000 0.043714 0.386762
O O8 0.381852 0.643218 0.312655
O O9 0.373860 0.734018 0.468131
O O10 0.189254 0.138137 0.541106
O O11 0.242146 0.000000 0.500000
O O12 0.176805 0.951967 0.607110
O O13 0.250075 0.853222 0.590727
O O14 0.692885 0.409150 0.775022
O O15 0.750000 0.218517 0.250000
O O16 0.673653 0.224430 0.369501
#
# Coordination Sequence:
#
# PCOD9478692 Si02
#       8
#    16   8   8  16  16  16  16  16
#     4  12  22  40  64  92 124 162 203 251 320 364
#     4  11  21  38  62  96 123 155 208 258 312 364
#     4  11  23  36  68  96 121 159 202 264 310 364
#     4  11  23  38  64  89 124 164 200 254 310 372
#     4  10  20  35  58  85 115 157 206 260 298 346
#     4  10  21  38  59  87 119 158 204 250 303 364
#     4  10  22  41  57  86 125 162 206 254 307 365
#     4  11  22  39  62  87 122 163 207 253 307 368
#
# _framework density 17.690566
#
# number of rings (size 3 to 8) (size 9 to 14) (size 15 to 20)
#    0.000    1.286    5.714    0.857    0.000    1.143 
#    2.571    0.000    0.000    0.000    0.000    4.000 
#    0.000    0.000    0.000    0.000    0.000    0.000 
#
# Total GULP energy -312146.653381 kJ/mol
# GULP energy per Si atom -5574.047382 kJ/mol
# Density = 1.765030 g / cm^3
# Si number density = 17.690566 Si / 1000 Ang^3
#
#
#
# Elastic Constant Matrix: (Units=GPa)
#
#
# Indices 1 2 3 4 5 6 
#
# 1 71.6414 16.9582 5.6296 0.0000 0.0000 0.0000
# 2 16.9582 78.7422 29.9710 0.0000 0.0000 0.0000
# 3 5.6296 29.9710 56.3415 0.0000 0.0000 0.0000
# 4 0.0000 0.0000 0.0000 22.7306 0.0000 0.0000
# 5 0.0000 0.0000 0.0000 0.0000 -276.1532 0.0000
# 6 0.0000 0.0000 0.0000 0.0000 0.0000 -662.1316
#
#
#
# Elastic Compliance Matrix: (Units=1/GPa)
#
#
# Indices 1 2 3 4 5 6 
#
# 1 0.014711 -0.003271 0.000270 0.000000 0.000000 0.000000
# 2 -0.003271 0.016651 -0.008531 0.000000 0.000000 0.000000
# 3 0.000270 -0.008531 0.022260 0.000000 0.000000 0.000000
# 4 0.000000 0.000000 0.000000 0.043994 0.000000 0.000000
# 5 0.000000 0.000000 0.000000 0.000000 -0.003621 0.000000
# 6 0.000000 0.000000 0.000000 0.000000 0.000000 -0.001510
#
#
# Mechanical properties :
#
#
# Convention : Reuss Voigt Hill
#
# Bulk Modulus (GPa) = 32.72363 34.64919 33.68641
# Shear Modulus (GPa) = 39.76635 -172.83308 -66.53336
#
# Velocity S-wave (km/s) = 4.74633 -9.89495 -6.13931
# Velocity P-wave (km/s) = 6.96956 10.53175 5.58315
#
# Compressibility (1/GPa) = 0.03055896
#
# Stress axis : x y z
#
# Youngs Moduli (GPa) = 67.97406 60.05592 44.92393
#
# Poissons Ratio (x) = 0.19645 -0.01214
# Poissons Ratio (y) = 0.22235 0.38323
# Poissons Ratio (z) = -0.01836 0.51232
#
# Static dielectric constant tensor:
#      x y z
#    x 1.594270 0.000000 0.000000 
#    y 0.000000 1.625000 0.000000 
#    z 0.000000 0.000000 1.615390 
# 
# From -- ./inp_files/28118.got.cif
#   From: 2010.05.17/outbox.cif.g08.bks.cpg/sg64_15_cif.got.tgz:28118.got - 2010.06.03 16:29:19.
