data_PCOD9478573
_publ_section_title
;
Structure prediction by ZEFSAII (Michael W. Deem and Ramdas Pophale) SiO2 
 PCOD9478573
Probable space group: C M C A
;
_chemical_formula_sum "Si O2"
_cell_formula_units_Z 96
_cell_length_a 23.645501
_cell_length_b 25.934827
_cell_length_c 7.244554
_cell_angle_alpha 90.000000
_cell_angle_beta 90.000000
_cell_angle_gamma 90.000000
_cell_volume 4442.664623
_symmetry_space_group_name_H-M "C M C A"
_symmetry_group_IT_number 64
_symmetry_cell_setting 'orthorhombic'
loop_
_space_group_symop_operation_xyz
x,y,z
-x,1/2-y,1/2+z
x,-y,-z
-x,1/2+y,1/2-z
-x,-y,-z
x,1/2+y,1/2-z
-x,y,z
x,1/2-y,1/2+z
1/2+x,1/2+y,z
1/2-x,-y,1/2+z
1/2+x,1/2-y,-z
1/2-x,y,1/2-z
1/2-x,1/2-y,-z
1/2+x,y,1/2-z
1/2-x,1/2+y,z
1/2+x,-y,1/2+z
loop_
_atom_site_type_symbol
_atom_site_label
_atom_site_fract_x
_atom_site_fract_y
_atom_site_fract_z
Si Si1 0.703039 0.773982 0.129332
Si Si2 0.000000 0.706939 0.399115
Si Si3 0.374978 0.175054 0.363792
Si Si4 0.377917 0.143362 0.805304
Si Si5 0.683809 0.570563 0.201257
Si Si6 0.182945 0.957768 0.229651
Si Si7 0.500000 0.825673 0.175370
O O1 0.750000 0.805030 0.250000
O O2 0.665629 0.723710 0.183989
O O3 0.656811 0.815212 0.077631
O O4 0.750000 0.750000 0.000000
O O5 0.060030 0.688845 0.315131
O O6 0.000000 0.684895 0.605315
O O7 0.000000 0.768793 0.411266
O O8 0.372804 0.164811 0.590043
O O9 0.352055 0.122321 0.275038
O O10 0.350336 0.087853 0.827199
O O11 0.442682 0.144531 0.863346
O O12 0.750000 0.580390 0.250000
O O13 0.667158 0.515702 0.290601
O O14 0.675505 0.555252 0.986623
O O15 0.250000 0.953893 0.250000
#
# Coordination Sequence:
#
# PCOD9478573 Si02
#       7
#    16   8  16  16  16  16   8
#     4  12  22  32  50  79 110 138 169 215 270 316
#     4  10  20  36  53  71 101 143 174 215 256 308
#     4  10  20  35  53  75 107 136 176 217 260 308
#     4  10  20  35  53  76 106 140 173 217 261 310
#     4   9  18  34  53  79 103 136 174 216 261 316
#     4   9  18  33  55  76 106 137 171 214 268 312
#     4  10  20  36  53  71 103 141 180 211 256 310
#
# _framework density 21.608653
#
# number of rings (size 3 to 8) (size 9 to 14) (size 15 to 20)
#    0.000    2.000    3.333    1.000    2.333    0.000 
#    0.000    0.833    0.000    5.000    0.000    0.000 
#    0.000    6.667    0.000    0.000    0.000    0.000 
#
# Total GULP energy -267682.114236 kJ/mol
# GULP energy per Si atom -5576.710713 kJ/mol
# Density = 2.155947 g / cm^3
# Si number density = 21.608653 Si / 1000 Ang^3
#
#
#
# Elastic Constant Matrix: (Units=GPa)
#
#
# Indices 1 2 3 4 5 6 
#
# 1 188.4438 116.5134 11.1265 0.0000 0.0000 0.0000
# 2 116.5134 212.0359 16.3865 0.0000 0.0000 0.0000
# 3 11.1265 16.3865 42.2108 0.0000 0.0000 0.0000
# 4 0.0000 0.0000 0.0000 24.5618 0.0000 0.0000
# 5 0.0000 0.0000 0.0000 0.0000 18.1821 0.0000
# 6 0.0000 0.0000 0.0000 0.0000 0.0000 -136.0387
#
#
#
# Elastic Compliance Matrix: (Units=1/GPa)
#
#
# Indices 1 2 3 4 5 6 
#
# 1 0.008044 -0.004388 -0.000417 0.000000 0.000000 0.000000
# 2 -0.004388 0.007256 -0.001660 0.000000 0.000000 0.000000
# 3 -0.000417 -0.001660 0.024445 0.000000 0.000000 0.000000
# 4 0.000000 0.000000 0.000000 0.040714 0.000000 0.000000
# 5 0.000000 0.000000 0.000000 0.000000 0.054999 0.000000
# 6 0.000000 0.000000 0.000000 0.000000 0.000000 -0.007351
#
#
# Mechanical properties :
#
#
# Convention : Reuss Voigt Hill
#
# Bulk Modulus (GPa) = 37.29282 81.19371 59.24326
# Shear Modulus (GPa) = 33.33877 1.25199 17.29538
#
# Velocity S-wave (km/s) = 3.93217 0.76200 2.83219
# Velocity P-wave (km/s) = 6.15724 6.19923 6.17827
#
# Compressibility (1/GPa) = 0.02681482
#
# Stress axis : x y z
#
# Youngs Moduli (GPa) = 124.30985 137.82140 40.90827
#
# Poissons Ratio (x) = 0.60478 0.01706
# Poissons Ratio (y) = 0.54549 0.06791
# Poissons Ratio (z) = 0.05183 0.22879
#
# Static dielectric constant tensor:
#      x y z
#    x 1.711830 0.000000 0.000000 
#    y 0.000000 1.748000 0.000000 
#    z 0.000000 0.000000 2.011950 
# 
# From -- ./inp_files/9642.got.cif
#   From: 2010.05.17/outbox.cif.g08.bks.cpg/sg64_5_cif.got.tgz:9642.got - 2010.06.03 16:29:19.
