data_PCOD9478046
_publ_section_title
;
Structure prediction by ZEFSAII (Michael W. Deem and Ramdas Pophale) SiO2 
 PCOD9478046
Probable space group: C M C A
;
_chemical_formula_sum "Si O2"
_cell_formula_units_Z 104
_cell_length_a 20.027468
_cell_length_b 20.612518
_cell_length_c 14.116088
_cell_angle_alpha 90.000000
_cell_angle_beta 90.000000
_cell_angle_gamma 90.000000
_cell_volume 5827.354672
_symmetry_space_group_name_H-M "C M C A"
_symmetry_group_IT_number 64
_symmetry_cell_setting 'orthorhombic'
loop_
_space_group_symop_operation_xyz
x,y,z
-x,1/2-y,1/2+z
x,-y,-z
-x,1/2+y,1/2-z
-x,-y,-z
x,1/2+y,1/2-z
-x,y,z
x,1/2-y,1/2+z
1/2+x,1/2+y,z
1/2-x,-y,1/2+z
1/2+x,1/2-y,-z
1/2-x,y,1/2-z
1/2-x,1/2-y,-z
1/2+x,y,1/2-z
1/2-x,1/2+y,z
1/2+x,-y,1/2+z
loop_
_atom_site_type_symbol
_atom_site_label
_atom_site_fract_x
_atom_site_fract_y
_atom_site_fract_z
Si Si1 0.250000 0.882042 0.250000
Si Si2 0.665410 0.955260 0.907972
Si Si3 0.194322 0.993105 0.115450
Si Si4 0.076027 0.295228 0.754527
Si Si5 0.327508 0.198118 0.081855
Si Si6 0.575834 0.049015 0.265160
Si Si7 0.692326 0.764899 0.132782
O O1 0.208321 0.925689 0.173537
O O2 0.293382 0.833331 0.184774
O O3 0.666760 0.879187 0.929280
O O4 0.606876 0.972183 0.835264
O O5 0.737210 0.969191 0.861408
O O6 0.659913 0.000000 0.000000
O O7 0.127579 0.024127 0.156968
O O8 0.190432 0.000000 0.000000
O O9 0.108773 0.280787 0.856731
O O10 0.076013 0.372844 0.739406
O O11 0.128481 0.266649 0.681016
O O12 0.000000 0.271954 0.746154
O O13 0.260167 0.221497 0.136124
O O14 0.323230 0.226858 0.977688
O O15 0.500000 0.026821 0.279417
#
# Coordination Sequence:
#
# PCOD9478046 Si02
#       7
#     8  16  16  16  16  16  16
#     4  12  22  38  62  94 120 150 202 258 286 356
#     4  10  19  36  62  90 113 151 199 250 298 349
#     4  11  22  37  61  86 120 152 193 246 302 346
#     4  10  21  39  59  82 117 157 197 239 291 358
#     4  10  21  36  61  88 117 153 200 244 302 346
#     4  10  21  38  59  84 117 155 194 239 296 360
#     4  11  21  37  61  87 120 156 197 248 291 349
#
# _framework density 17.846862000000002
#
# number of rings (size 3 to 8) (size 9 to 14) (size 15 to 20)
#    0.000    1.538    3.077    2.769    0.000    4.923 
#    0.000    0.769    0.000    0.000    0.000    0.000 
#    0.000    0.000    0.000    0.000    0.000    0.000 
#
# Total GULP energy -289824.599502 kJ/mol
# GULP energy per Si atom -5573.549990 kJ/mol
# Density = 1.780624 g / cm^3
# Si number density = 17.846862 Si / 1000 Ang^3
#
#
#
# Elastic Constant Matrix: (Units=GPa)
#
#
# Indices 1 2 3 4 5 6 
#
# 1 151.0138 32.0804 61.3364 0.0000 0.0000 0.0000
# 2 32.0804 33.5121 36.4381 0.0000 0.0000 0.0000
# 3 61.3364 36.4381 124.1455 0.0000 0.0000 0.0000
# 4 0.0000 0.0000 0.0000 12.1598 0.0000 0.0000
# 5 0.0000 0.0000 0.0000 0.0000 11.6957 0.0000
# 6 0.0000 0.0000 0.0000 0.0000 0.0000 27.0277
#
#
#
# Elastic Compliance Matrix: (Units=1/GPa)
#
#
# Indices 1 2 3 4 5 6 
#
# 1 0.008927 -0.005507 -0.002794 0.000000 0.000000 0.000000
# 2 -0.005507 0.047225 -0.011140 0.000000 0.000000 0.000000
# 3 -0.002794 -0.011140 0.012705 0.000000 0.000000 0.000000
# 4 0.000000 0.000000 0.000000 0.082238 0.000000 0.000000
# 5 0.000000 0.000000 0.000000 0.000000 0.085501 0.000000
# 6 0.000000 0.000000 0.000000 0.000000 0.000000 0.036999
#
#
# Mechanical properties :
#
#
# Convention : Reuss Voigt Hill
#
# Bulk Modulus (GPa) = 33.36234 63.15346 48.25790
# Shear Modulus (GPa) = 15.50538 22.09776 18.80157
#
# Velocity S-wave (km/s) = 2.95074 3.52261 3.24928
# Velocity P-wave (km/s) = 5.50849 7.21167 6.41684
#
# Compressibility (1/GPa) = 0.02997392
#
# Stress axis : x y z
#
# Youngs Moduli (GPa) = 112.02409 21.17540 78.70845
#
# Poissons Ratio (x) = 0.11662 0.21990
# Poissons Ratio (y) = 0.61697 0.87680
# Poissons Ratio (z) = 0.31298 0.23589
#
# Static dielectric constant tensor:
#      x y z
#    x 1.590830 0.000000 0.000000 
#    y 0.000000 1.625390 0.000000 
#    z 0.000000 0.000000 1.646000 
# 
# From -- ./inp_files/25619.got.cif
#   From: 2010.05.17/outbox.cif.g08.bks.cpg/sg64_13_cif.got.tgz:25619.got - 2010.06.03 16:29:19.
