data_PCOD9478857
_publ_section_title
;
Structure prediction by ZEFSAII (Michael W. Deem and Ramdas Pophale) SiO2 
 PCOD9478857
Probable space group: C M C A
;
_chemical_formula_sum "Si O2"
_cell_formula_units_Z 96
_cell_length_a 8.608157
_cell_length_b 31.191611
_cell_length_c 18.577849
_cell_angle_alpha 90.000000
_cell_angle_beta 90.000000
_cell_angle_gamma 90.000000
_cell_volume 4988.194899
_symmetry_space_group_name_H-M "C M C A"
_symmetry_group_IT_number 64
_symmetry_cell_setting 'orthorhombic'
loop_
_space_group_symop_operation_xyz
x,y,z
-x,1/2-y,1/2+z
x,-y,-z
-x,1/2+y,1/2-z
-x,-y,-z
x,1/2+y,1/2-z
-x,y,z
x,1/2-y,1/2+z
1/2+x,1/2+y,z
1/2-x,-y,1/2+z
1/2+x,1/2-y,-z
1/2-x,y,1/2-z
1/2-x,1/2-y,-z
1/2+x,y,1/2-z
1/2-x,1/2+y,z
1/2+x,-y,1/2+z
loop_
_atom_site_type_symbol
_atom_site_label
_atom_site_fract_x
_atom_site_fract_y
_atom_site_fract_z
Si Si1 0.812805 0.672961 0.054676
Si Si2 0.812788 0.580215 0.443159
Si Si3 0.185903 0.827295 0.388007
Si Si4 0.812258 0.010030 0.172598
Si Si5 0.314088 0.241065 0.173345
Si Si6 0.187470 0.580138 0.610500
O O1 0.752221 0.626520 0.078453
O O2 0.759855 0.710218 0.108401
O O3 0.000000 0.672360 0.054909
O O4 0.763081 0.679309 0.971628
O O5 0.761037 0.542516 0.390144
O O6 0.768670 0.572910 0.526555
O O7 0.000000 0.581691 0.441024
O O8 0.256411 0.789052 0.341938
O O9 0.241655 0.874617 0.365984
O O10 0.000000 0.825371 0.384879
O O11 0.750000 0.023431 0.250000
O O12 0.000000 0.010249 0.173204
O O13 0.761796 0.961486 0.154674
O O14 0.500000 0.240543 0.174841
O O15 0.250000 0.226075 0.250000
O O16 0.000000 0.583247 0.613842
#
# Coordination Sequence:
#
# PCOD9478857 Si02
#       6
#    16  16  16  16  16  16
#     4   9  20  37  57  81 108 138 175 220 266 315
#     4   9  18  34  57  80 102 135 179 222 261 306
#     4  10  20  36  58  83 108 136 175 221 268 317
#     4  10  21  35  52  77 108 141 176 215 262 315
#     4  11  23  38  55  78 109 144 179 216 263 316
#     4   9  18  35  57  78 103 138 180 221 260 307
#
# _framework density 19.245438
#
# number of rings (size 3 to 8) (size 9 to 14) (size 15 to 20)
#    0.000    2.333    0.000    2.000    0.000    6.667 
#    0.000    5.000    0.000    5.000    0.000    0.000 
#    0.000    0.000    0.000    0.000    0.000    0.000 
#
# Total GULP energy -268017.995300 kJ/mol
# GULP energy per Si atom -5583.708235 kJ/mol
# Density = 1.920163 g / cm^3
# Si number density = 19.245438 Si / 1000 Ang^3
#
#
#
# Elastic Constant Matrix: (Units=GPa)
#
#
# Indices 1 2 3 4 5 6 
#
# 1 12.8008 5.7734 3.9254 0.0000 0.0000 0.0000
# 2 5.7734 54.8969 5.9937 0.0000 0.0000 0.0000
# 3 3.9254 5.9937 21.5536 0.0000 0.0000 0.0000
# 4 0.0000 0.0000 0.0000 -5.1227 0.0000 0.0000
# 5 0.0000 0.0000 0.0000 0.0000 27.1441 0.0000
# 6 0.0000 0.0000 0.0000 0.0000 0.0000 29.8041
#
#
#
# Elastic Compliance Matrix: (Units=1/GPa)
#
#
# Indices 1 2 3 4 5 6 
#
# 1 0.085659 -0.007534 -0.013505 0.000000 0.000000 0.000000
# 2 -0.007534 0.019449 -0.004036 0.000000 0.000000 0.000000
# 3 -0.013505 -0.004036 0.049978 0.000000 0.000000 0.000000
# 4 0.000000 0.000000 0.000000 -0.195210 0.000000 0.000000
# 5 0.000000 0.000000 0.000000 0.000000 0.036840 0.000000
# 6 0.000000 0.000000 0.000000 0.000000 0.000000 0.033552
#
#
# Mechanical properties :
#
#
# Convention : Reuss Voigt Hill
#
# Bulk Modulus (GPa) = 9.52972 13.40402 11.46687
# Shear Modulus (GPa) = 43.32824 15.26904 29.29864
#
# Velocity S-wave (km/s) = 4.74999 2.81976 3.90599
# Velocity P-wave (km/s) = 5.91993 4.19301 5.12967
#
# Compressibility (1/GPa) = 0.10493489
#
# Stress axis : x y z
#
# Youngs Moduli (GPa) = 11.67418 51.41660 20.00880
#
# Poissons Ratio (x) = 0.38737 0.27022
# Poissons Ratio (y) = 0.08795 0.08076
# Poissons Ratio (z) = 0.15766 0.20753
#
# Static dielectric constant tensor:
#      x y z
#    x 1.653130 0.000000 0.000000 
#    y 0.000000 1.649490 0.000000 
#    z 0.000000 0.000000 1.668830 
# 
# From -- ./inp_files/37099.got.cif
#   From: 2010.05.17/outbox.cif.g08.bks.cpg/sg64_19_cif.got.tgz:37099.got - 2010.06.03 16:29:19.
