data_PCOD9478195
_publ_section_title
;
Structure prediction by ZEFSAII (Michael W. Deem and Ramdas Pophale) SiO2 
 PCOD9478195
Probable space group: C M C A
;
_chemical_formula_sum "Si O2"
_cell_formula_units_Z 64
_cell_length_a 5.807218
_cell_length_b 24.014784
_cell_length_c 19.774047
_cell_angle_alpha 90.000000
_cell_angle_beta 90.000000
_cell_angle_gamma 90.000000
_cell_volume 2757.670519
_symmetry_space_group_name_H-M "C M C A"
_symmetry_group_IT_number 64
_symmetry_cell_setting 'orthorhombic'
loop_
_space_group_symop_operation_xyz
x,y,z
-x,1/2-y,1/2+z
x,-y,-z
-x,1/2+y,1/2-z
-x,-y,-z
x,1/2+y,1/2-z
-x,y,z
x,1/2-y,1/2+z
1/2+x,1/2+y,z
1/2-x,-y,1/2+z
1/2+x,1/2-y,-z
1/2-x,y,1/2-z
1/2-x,1/2-y,-z
1/2+x,y,1/2-z
1/2-x,1/2+y,z
1/2+x,-y,1/2+z
loop_
_atom_site_type_symbol
_atom_site_label
_atom_site_fract_x
_atom_site_fract_y
_atom_site_fract_z
Si Si1 0.500000 0.562322 0.528361
Si Si2 0.500000 0.777163 0.030945
Si Si3 0.250000 0.725404 0.250000
Si Si4 0.500000 0.651325 0.406336
Si Si5 0.000000 0.937014 0.029000
Si Si6 0.500000 0.846214 0.591029
Si Si7 0.748671 0.172638 0.853959
O O1 0.500000 0.500000 0.500000
O O2 0.500000 0.602644 0.463181
O O3 0.251061 0.570184 0.564180
O O4 0.500000 0.793479 0.953345
O O5 0.500000 0.714155 0.055283
O O6 0.710306 0.808674 0.068549
O O7 0.500000 0.696901 0.250179
O O8 0.249547 0.769222 0.187463
O O9 0.248630 0.648782 0.372013
O O10 0.000000 0.894225 0.966102
O O11 0.000000 0.000000 0.000000
O O12 0.500000 0.145955 0.834050
O O13 0.000000 0.147044 0.842556
#
# Coordination Sequence:
#
# PCOD9478195 Si02
#       7
#     8   8   8   8   8   8  16
#     4   8  14  26  40  52  63  83 121 155 184 214
#     4  10  20  26  38  52  78  98 130 150 186 212
#     4   8  12  24  36  50  64  84 122 150 176 208
#     4  10  20  28  38  51  72 101 127 156 183 216
#     4   8  14  26  40  52  63  83 121 155 184 214
#     4  10  20  28  38  51  72 101 127 156 183 216
#     4   8  16  24  37  50  67  93 120 155 174 215
#
# _framework density 23.207993999999999
#
# number of rings (size 3 to 8) (size 9 to 14) (size 15 to 20)
#    0.750    2.500    0.000    0.750    3.500    0.000 
#    0.000    0.000    0.000    0.000    0.000    0.000 
#    0.000    0.000    0.000    0.000    0.000  120.000 
#
# Total GULP energy -178197.451052 kJ/mol
# GULP energy per Si atom -5568.670345 kJ/mol
# Density = 2.315517 g / cm^3
# Si number density = 23.207994 Si / 1000 Ang^3
#
#
#
# Elastic Constant Matrix: (Units=GPa)
#
#
# Indices 1 2 3 4 5 6 
#
# 1 333.5229 11.3731 36.4481 0.0000 0.0000 0.0000
# 2 11.3731 115.1387 -1.6725 0.0000 0.0000 0.0000
# 3 36.4481 -1.6725 46.8611 0.0000 0.0000 0.0000
# 4 0.0000 0.0000 0.0000 10.0446 0.0000 0.0000
# 5 0.0000 0.0000 0.0000 0.0000 34.5664 0.0000
# 6 0.0000 0.0000 0.0000 0.0000 0.0000 31.2999
#
#
#
# Elastic Compliance Matrix: (Units=1/GPa)
#
#
# Indices 1 2 3 4 5 6 
#
# 1 0.003292 -0.000363 -0.002573 0.000000 0.000000 0.000000
# 2 -0.000363 0.008730 0.000594 0.000000 0.000000 0.000000
# 3 -0.002573 0.000594 0.023362 0.000000 0.000000 0.000000
# 4 0.000000 0.000000 0.000000 0.099556 0.000000 0.000000
# 5 0.000000 0.000000 0.000000 0.000000 0.028930 0.000000
# 6 0.000000 0.000000 0.000000 0.000000 0.000000 0.031949
#
#
# Mechanical properties :
#
#
# Convention : Reuss Voigt Hill
#
# Bulk Modulus (GPa) = 32.57411 65.31333 48.94372
# Shear Modulus (GPa) = 23.72628 45.14044 34.43336
#
# Velocity S-wave (km/s) = 3.20086 4.41504 3.85604
# Velocity P-wave (km/s) = 5.26563 7.36165 6.40003
#
# Compressibility (1/GPa) = 0.03069922
#
# Stress axis : x y z
#
# Youngs Moduli (GPa) = 303.77809 114.55261 42.80386
#
# Poissons Ratio (x) = 0.04153 0.11015
# Poissons Ratio (y) = 0.11013 -0.02541
# Poissons Ratio (z) = 0.78172 -0.06799
#
# Static dielectric constant tensor:
#      x y z
#    x 2.095760 0.000000 0.000000 
#    y 0.000000 1.861370 0.000000 
#    z 0.000000 0.000000 1.942730 
# 
# From -- ./inp_files/47328.got.cif
#   From: 2010.05.17/outbox.cif.g08.bks.cpg/sg64_24_cif.got.tgz:47328.got - 2010.06.03 16:29:19.
