data_PCOD9478212
_publ_section_title
;
Structure prediction by ZEFSAII (Michael W. Deem and Ramdas Pophale) SiO2 
 PCOD9478212
Probable space group: C M C A
;
_chemical_formula_sum "Si O2"
_cell_formula_units_Z 96
_cell_length_a 14.942659
_cell_length_b 10.393553
_cell_length_c 30.009061
_cell_angle_alpha 90.000000
_cell_angle_beta 90.000000
_cell_angle_gamma 90.000000
_cell_volume 4660.626788
_symmetry_space_group_name_H-M "C M C A"
_symmetry_group_IT_number 64
_symmetry_cell_setting 'orthorhombic'
loop_
_space_group_symop_operation_xyz
x,y,z
-x,1/2-y,1/2+z
x,-y,-z
-x,1/2+y,1/2-z
-x,-y,-z
x,1/2+y,1/2-z
-x,y,z
x,1/2-y,1/2+z
1/2+x,1/2+y,z
1/2-x,-y,1/2+z
1/2+x,1/2-y,-z
1/2-x,y,1/2-z
1/2-x,1/2-y,-z
1/2+x,y,1/2-z
1/2-x,1/2+y,z
1/2+x,-y,1/2+z
loop_
_atom_site_type_symbol
_atom_site_label
_atom_site_fract_x
_atom_site_fract_y
_atom_site_fract_z
Si Si1 0.108507 0.012948 0.278762
Si Si2 0.342718 0.708749 0.883613
Si Si3 0.896712 0.792135 0.216322
Si Si4 0.863376 0.865188 0.020497
Si Si5 0.321039 0.988539 0.122677
Si Si6 0.645375 0.384853 0.468491
O O1 0.144366 0.156087 0.270050
O O2 0.134930 0.976627 0.328999
O O3 0.000000 0.019826 0.277360
O O4 0.142355 0.913380 0.241999
O O5 0.394517 0.702984 0.837067
O O6 0.392286 0.673213 0.929550
O O7 0.308041 0.857993 0.887523
O O8 0.267508 0.598985 0.877373
O O9 0.000000 0.789414 0.230352
O O10 0.754395 0.875512 0.025999
O O11 0.886823 0.751479 0.986491
O O12 0.893393 0.000000 0.000000
O O13 0.375702 0.926054 0.081775
O O14 0.614749 0.500000 0.500000
#
# Coordination Sequence:
#
# PCOD9478212 Si02
#       6
#    16  16  16  16  16  16
#     4   9  19  37  56  73  96 129 168 204 245 298
#     4  10  20  32  49  77 104 130 163 203 251 288
#     4   9  19  37  57  73  95 130 168 204 245 298
#     4   9  17  27  44  69 100 132 165 197 238 290
#     4  10  20  31  50  77 103 130 162 206 248 288
#     4   9  15  27  44  67  99 131 162 196 234 289
#
# _framework density 20.598087
#
# number of rings (size 3 to 8) (size 9 to 14) (size 15 to 20)
#    0.000    2.667    1.667    0.000    7.000    2.000 
#    0.000    3.333    0.000    2.000    0.000    0.000 
#    0.000    0.000    0.000    0.000    0.000    0.000 
#
# Total GULP energy -267504.663797 kJ/mol
# GULP energy per Si atom -5573.013829 kJ/mol
# Density = 2.055120 g / cm^3
# Si number density = 20.598087 Si / 1000 Ang^3
#
#
#
# Elastic Constant Matrix: (Units=GPa)
#
#
# Indices 1 2 3 4 5 6 
#
# 1 39.4909 13.4482 -1.7273 0.0000 0.0000 0.0000
# 2 13.4482 189.1425 94.2935 0.0000 0.0000 0.0000
# 3 -1.7273 94.2935 111.0587 0.0000 0.0000 0.0000
# 4 0.0000 0.0000 0.0000 44.2070 0.0000 0.0000
# 5 0.0000 0.0000 0.0000 0.0000 65.4680 0.0000
# 6 0.0000 0.0000 0.0000 0.0000 0.0000 -6.9380
#
#
#
# Elastic Compliance Matrix: (Units=1/GPa)
#
#
# Indices 1 2 3 4 5 6 
#
# 1 0.026720 -0.003653 0.003517 0.000000 0.000000 0.000000
# 2 -0.003653 0.009667 -0.008264 0.000000 0.000000 0.000000
# 3 0.003517 -0.008264 0.016076 0.000000 0.000000 0.000000
# 4 0.000000 0.000000 0.000000 0.022621 0.000000 0.000000
# 5 0.000000 0.000000 0.000000 0.000000 0.015275 0.000000
# 6 0.000000 0.000000 0.000000 0.000000 0.000000 -0.144134
#
#
# Mechanical properties :
#
#
# Convention : Reuss Voigt Hill
#
# Bulk Modulus (GPa) = 28.04083 61.30231 44.67157
# Shear Modulus (GPa) = -199.30097 36.12590 -81.58753
#
# Velocity S-wave (km/s) = -9.84719 4.19244 -6.30042
# Velocity P-wave (km/s) = 10.75391 7.29803 5.58504
#
# Compressibility (1/GPa) = 0.03566229
#
# Stress axis : x y z
#
# Youngs Moduli (GPa) = 37.42474 103.44654 62.20548
#
# Poissons Ratio (x) = 0.37793 -0.21881
# Poissons Ratio (y) = 0.13673 0.51409
# Poissons Ratio (z) = -0.13164 0.85492
#
# Static dielectric constant tensor:
#      x y z
#    x 1.772700 0.000000 0.000000 
#    y 0.000000 1.755840 0.000000 
#    z 0.000000 0.000000 1.729580 
# 
# From -- ./inp_files/46579.got.cif
#   From: 2010.05.17/outbox.cif.g08.bks.cpg/sg64_24_cif.got.tgz:46579.got - 2010.06.03 16:29:19.
