data_PCOD9478414
_publ_section_title
;
Structure prediction by ZEFSAII (Michael W. Deem and Ramdas Pophale) SiO2 
 PCOD9478414
Probable space group: C M C A
;
_chemical_formula_sum "Si O2"
_cell_formula_units_Z 112
_cell_length_a 13.761924
_cell_length_b 26.658594
_cell_length_c 15.184001
_cell_angle_alpha 90.000000
_cell_angle_beta 90.000000
_cell_angle_gamma 90.000000
_cell_volume 5570.608268
_symmetry_space_group_name_H-M "C M C A"
_symmetry_group_IT_number 64
_symmetry_cell_setting 'orthorhombic'
loop_
_space_group_symop_operation_xyz
x,y,z
-x,1/2-y,1/2+z
x,-y,-z
-x,1/2+y,1/2-z
-x,-y,-z
x,1/2+y,1/2-z
-x,y,z
x,1/2-y,1/2+z
1/2+x,1/2+y,z
1/2-x,-y,1/2+z
1/2+x,1/2-y,-z
1/2-x,y,1/2-z
1/2-x,1/2-y,-z
1/2+x,y,1/2-z
1/2-x,1/2+y,z
1/2+x,-y,1/2+z
loop_
_atom_site_type_symbol
_atom_site_label
_atom_site_fract_x
_atom_site_fract_y
_atom_site_fract_z
Si Si1 0.116601 0.649905 0.487836
Si Si2 0.617618 0.162670 0.678596
Si Si3 0.882028 0.639237 0.874603
Si Si4 0.116939 0.056645 0.484396
Si Si5 0.116666 0.250716 0.599599
Si Si6 0.882986 0.277376 0.798638
Si Si7 0.276062 0.877293 0.850628
O O1 0.143556 0.635884 0.587677
O O2 0.137659 0.709389 0.475395
O O3 0.181092 0.624788 0.412744
O O4 0.000000 0.642828 0.474958
O O5 0.500000 0.164203 0.680285
O O6 0.646894 0.139102 0.771906
O O7 0.646829 0.221197 0.674364
O O8 0.848552 0.693815 0.909859
O O9 0.000000 0.639023 0.875983
O O10 0.852386 0.593638 0.936199
O O11 0.155508 0.081517 0.395273
O O12 0.000000 0.056039 0.482034
O O13 0.151255 0.000000 0.500000
O O14 0.141131 0.275969 0.693971
O O15 0.000000 0.246083 0.602811
O O16 0.832220 0.323547 0.847298
O O17 0.000000 0.282178 0.808762
O O18 0.250000 0.888762 0.750000
#
# Coordination Sequence:
#
# PCOD9478414 Si02
#       7
#    16  16  16  16  16  16  16
#     4  10  20  34  52  81 123 164 197 232 283 354
#     4   8  16  31  53  81 119 162 194 230 286 354
#     4   8  15  32  58  84 112 150 192 237 291 343
#     4  10  23  44  68  91 113 144 198 258 306 348
#     4   8  14  27  49  78 116 156 187 222 274 343
#     4   9  17  32  52  79 118 157 195 234 283 350
#     4  12  24  37  57  87 117 156 195 244 295 349
#
# _framework density 20.105525
#
# number of rings (size 3 to 8) (size 9 to 14) (size 15 to 20)
#    0.000    2.714    1.429    2.143    2.000    1.143 
#    0.000    2.143    0.000    0.429    0.000    0.000 
#    0.000    0.000    0.000    0.000    0.000    0.000 
#
# Total GULP energy -312631.392401 kJ/mol
# GULP energy per Si atom -5582.703436 kJ/mol
# Density = 2.005976 g / cm^3
# Si number density = 20.105525 Si / 1000 Ang^3
#
#
#
# Elastic Constant Matrix: (Units=GPa)
#
#
# Indices 1 2 3 4 5 6 
#
# 1 81.1010 29.2944 20.7401 0.0000 0.0000 0.0000
# 2 29.2944 80.5696 37.4783 0.0000 0.0000 0.0000
# 3 20.7401 37.4783 131.1981 0.0000 0.0000 0.0000
# 4 0.0000 0.0000 0.0000 23.7237 0.0000 0.0000
# 5 0.0000 0.0000 0.0000 0.0000 24.4428 0.0000
# 6 0.0000 0.0000 0.0000 0.0000 0.0000 12.5722
#
#
#
# Elastic Compliance Matrix: (Units=1/GPa)
#
#
# Indices 1 2 3 4 5 6 
#
# 1 0.014285 -0.004778 -0.000893 0.000000 0.000000 0.000000
# 2 -0.004778 0.015912 -0.003790 0.000000 0.000000 0.000000
# 3 -0.000893 -0.003790 0.008846 0.000000 0.000000 0.000000
# 4 0.000000 0.000000 0.000000 0.042152 0.000000 0.000000
# 5 0.000000 0.000000 0.000000 0.000000 0.040912 0.000000
# 6 0.000000 0.000000 0.000000 0.000000 0.000000 0.079541
#
#
# Mechanical properties :
#
#
# Convention : Reuss Voigt Hill
#
# Bulk Modulus (GPa) = 49.70306 51.98825 50.84566
# Shear Modulus (GPa) = 21.99961 25.83814 23.91887
#
# Velocity S-wave (km/s) = 3.31147 3.58875 3.45290
# Velocity P-wave (km/s) = 6.27661 6.56400 6.42191
#
# Compressibility (1/GPa) = 0.02011948
#
# Stress axis : x y z
#
# Youngs Moduli (GPa) = 70.00509 62.84560 113.04619
#
# Poissons Ratio (x) = 0.30030 0.10097
# Poissons Ratio (y) = 0.33451 0.42846
# Poissons Ratio (z) = 0.06253 0.23819
#
# Static dielectric constant tensor:
#      x y z
#    x 1.778260 0.000000 0.000000 
#    y 0.000000 1.670570 0.000000 
#    z 0.000000 0.000000 1.735290 
# 
# From -- ./inp_files/24368.got.cif
#   From: 2010.05.17/outbox.cif.g08.bks.cpg/sg64_13_cif.got.tgz:24368.got - 2010.06.03 16:29:19.
