data_PCOD9478567
_publ_section_title
;
Structure prediction by ZEFSAII (Michael W. Deem and Ramdas Pophale) SiO2 
 PCOD9478567
Probable space group: C M C A
;
_chemical_formula_sum "Si O2"
_cell_formula_units_Z 96
_cell_length_a 22.284741
_cell_length_b 27.187827
_cell_length_c 8.405428
_cell_angle_alpha 90.000000
_cell_angle_beta 90.000000
_cell_angle_gamma 90.000000
_cell_volume 5092.627620
_symmetry_space_group_name_H-M "C M C A"
_symmetry_group_IT_number 64
_symmetry_cell_setting 'orthorhombic'
loop_
_space_group_symop_operation_xyz
x,y,z
-x,1/2-y,1/2+z
x,-y,-z
-x,1/2+y,1/2-z
-x,-y,-z
x,1/2+y,1/2-z
-x,y,z
x,1/2-y,1/2+z
1/2+x,1/2+y,z
1/2-x,-y,1/2+z
1/2+x,1/2-y,-z
1/2-x,y,1/2-z
1/2-x,1/2-y,-z
1/2+x,y,1/2-z
1/2-x,1/2+y,z
1/2+x,-y,1/2+z
loop_
_atom_site_type_symbol
_atom_site_label
_atom_site_fract_x
_atom_site_fract_y
_atom_site_fract_z
Si Si1 0.315378 0.267633 0.839088
Si Si2 0.697444 0.956984 0.384525
Si Si3 0.850403 0.675990 0.044500
Si Si4 0.567864 0.917474 0.945347
Si Si5 0.929825 0.010607 0.750461
Si Si6 0.727769 0.349917 0.066545
O O1 0.250000 0.262120 0.750000
O O2 0.342716 0.216986 0.905956
O O3 0.356105 0.294846 0.709530
O O4 0.306250 0.303038 0.992656
O O5 0.750000 0.954985 0.250000
O O6 0.628808 0.970805 0.342239
O O7 0.694503 0.901423 0.449400
O O8 0.718981 0.000000 0.500000
O O9 0.786856 0.648069 0.041722
O O10 0.896809 0.632373 0.025106
O O11 0.500000 0.903283 0.911812
O O12 0.585829 0.954955 0.804745
O O13 0.568981 0.952768 0.099091
O O14 0.000000 0.010895 0.810669
O O15 0.750000 0.345096 0.250000
#
# Coordination Sequence:
#
# PCOD9478567 Si02
#       6
#    16  16  16  16  16  16
#     4  10  21  34  55  83 110 148 192 226 285 352
#     4  11  25  35  57  90 128 152 190 245 301 344
#     4  11  20  34  58  79 113 147 188 240 283 346
#     4   9  19  36  61  84 106 150 200 236 283 349
#     4   9  20  39  61  84 115 159 203 237 286 362
#     4  10  20  35  52  81 115 151 180 229 287 342
#
# _framework density 18.850778999999999
#
# number of rings (size 3 to 8) (size 9 to 14) (size 15 to 20)
#    0.000    2.000    0.000    6.500    7.000    1.000 
#    0.000    0.833    0.000    1.000    0.000    0.000 
#    0.000    0.000    0.000    0.000    0.000    0.000 
#
# Total GULP energy -267252.888841 kJ/mol
# GULP energy per Si atom -5567.768518 kJ/mol
# Density = 1.880787 g / cm^3
# Si number density = 18.850779 Si / 1000 Ang^3
#
#
#
# Elastic Constant Matrix: (Units=GPa)
#
#
# Indices 1 2 3 4 5 6 
#
# 1 66.4344 67.5370 18.3933 0.0000 0.0000 0.0000
# 2 67.5370 183.3879 53.1340 0.0000 0.0000 0.0000
# 3 18.3933 53.1340 60.8193 0.0000 0.0000 0.0000
# 4 0.0000 0.0000 0.0000 17.4882 0.0000 0.0000
# 5 0.0000 0.0000 0.0000 0.0000 19.9208 0.0000
# 6 0.0000 0.0000 0.0000 0.0000 0.0000 37.9970
#
#
#
# Elastic Compliance Matrix: (Units=1/GPa)
#
#
# Indices 1 2 3 4 5 6 
#
# 1 0.024078 -0.009048 0.000623 0.000000 0.000000 0.000000
# 2 -0.009048 0.010701 -0.006612 0.000000 0.000000 0.000000
# 3 0.000623 -0.006612 0.022031 0.000000 0.000000 0.000000
# 4 0.000000 0.000000 0.000000 0.057182 0.000000 0.000000
# 5 0.000000 0.000000 0.000000 0.000000 0.050199 0.000000
# 6 0.000000 0.000000 0.000000 0.000000 0.000000 0.026318
#
#
# Mechanical properties :
#
#
# Convention : Reuss Voigt Hill
#
# Bulk Modulus (GPa) = 37.40486 65.41891 51.41188
# Shear Modulus (GPa) = 21.78707 26.51967 24.15337
#
# Velocity S-wave (km/s) = 3.40334 3.75483 3.58340
# Velocity P-wave (km/s) = 5.94385 7.31965 6.66733
#
# Compressibility (1/GPa) = 0.02673450
#
# Stress axis : x y z
#
# Youngs Moduli (GPa) = 41.53190 93.45128 45.39128
#
# Poissons Ratio (x) = 0.84551 -0.02826
# Poissons Ratio (y) = 0.37577 0.30014
# Poissons Ratio (z) = -0.02586 0.61793
#
# Static dielectric constant tensor:
#      x y z
#    x 1.652010 0.000000 0.000000 
#    y 0.000000 1.685740 0.000000 
#    z 0.000000 0.000000 1.751060 
# 
# From -- ./inp_files/9503.got.cif
#   From: 2010.05.17/outbox.cif.g08.bks.cpg/sg64_5_cif.got.tgz:9503.got - 2010.06.03 16:29:19.
