data_PCOD9478950
_publ_section_title
;
Structure prediction by ZEFSAII (Michael W. Deem and Ramdas Pophale) SiO2 
 PCOD9478950
Probable space group: C M C A
;
_chemical_formula_sum "Si O2"
_cell_formula_units_Z 104
_cell_length_a 9.645584
_cell_length_b 18.612680
_cell_length_c 27.620629
_cell_angle_alpha 90.000000
_cell_angle_beta 90.000000
_cell_angle_gamma 90.000000
_cell_volume 4958.736176
_symmetry_space_group_name_H-M "C M C A"
_symmetry_group_IT_number 64
_symmetry_cell_setting 'orthorhombic'
loop_
_space_group_symop_operation_xyz
x,y,z
-x,1/2-y,1/2+z
x,-y,-z
-x,1/2+y,1/2-z
-x,-y,-z
x,1/2+y,1/2-z
-x,y,z
x,1/2-y,1/2+z
1/2+x,1/2+y,z
1/2-x,-y,1/2+z
1/2+x,1/2-y,-z
1/2-x,y,1/2-z
1/2-x,1/2-y,-z
1/2+x,y,1/2-z
1/2-x,1/2+y,z
1/2+x,-y,1/2+z
loop_
_atom_site_type_symbol
_atom_site_label
_atom_site_fract_x
_atom_site_fract_y
_atom_site_fract_z
Si Si1 0.334147 0.329898 0.797316
Si Si2 0.842780 0.192003 0.941173
Si Si3 0.838910 0.358137 0.975447
Si Si4 0.338911 0.073137 0.392699
Si Si5 0.338525 0.307229 0.173989
Si Si6 0.000000 0.995735 0.736469
Si Si7 0.722609 0.470199 0.184188
O O1 0.500000 0.328842 0.788070
O O2 0.250000 0.355602 0.750000
O O3 0.307305 0.374322 0.846683
O O4 0.269331 0.251156 0.806833
O O5 0.829293 0.276288 0.955009
O O6 0.824700 0.188028 0.883873
O O7 0.000000 0.169983 0.953656
O O8 0.735408 0.146635 0.972680
O O9 0.757439 0.407433 0.937508
O O10 0.000000 0.377427 0.978964
O O11 0.500000 0.083452 0.405440
O O12 0.315645 0.994650 0.369927
O O13 0.500000 0.288225 0.185415
O O14 0.305597 0.386267 0.193228
O O15 0.877848 0.008873 0.696420
O O16 0.882138 0.990993 0.779458
#
# Coordination Sequence:
#
# PCOD9478950 Si02
#       7
#    16  16  16  16  16   8  16
#     4  11  26  38  57  86 124 158 197 250 306 352
#     4   9  19  37  61  89 120 158 198 246 303 364
#     4  10  20  36  61  90 120 158 201 247 301 364
#     4  11  23  41  60  90 122 160 201 251 301 363
#     4  11  22  41  63  91 121 158 201 253 302 364
#     4  10  24  42  62  86 118 168 210 246 290 364
#     4  11  24  41  64  89 118 163 209 250 297 361
#
# _framework density 20.973085999999999
#
# number of rings (size 3 to 8) (size 9 to 14) (size 15 to 20)
#    0.000    1.538    3.077    0.923    6.462    1.846 
#    0.000    0.769    0.000    3.692    0.000    0.000 
#    0.000    0.000    0.000    0.000    0.000    0.000 
#
# Total GULP energy -289676.111850 kJ/mol
# GULP energy per Si atom -5570.694459 kJ/mol
# Density = 2.092535 g / cm^3
# Si number density = 20.973086 Si / 1000 Ang^3
#
#
#
# Elastic Constant Matrix: (Units=GPa)
#
#
# Indices 1 2 3 4 5 6 
#
# 1 162.8618 14.7747 32.6649 0.0000 0.0000 0.0000
# 2 14.7747 56.6992 -2.6646 0.0000 0.0000 0.0000
# 3 32.6649 -2.6646 49.7410 0.0000 0.0000 0.0000
# 4 0.0000 0.0000 0.0000 11.3828 0.0000 0.0000
# 5 0.0000 0.0000 0.0000 0.0000 43.5910 0.0000
# 6 0.0000 0.0000 0.0000 0.0000 0.0000 6.6178
#
#
#
# Elastic Compliance Matrix: (Units=1/GPa)
#
#
# Indices 1 2 3 4 5 6 
#
# 1 0.007322 -0.002139 -0.004923 0.000000 0.000000 0.000000
# 2 -0.002139 0.018306 0.002385 0.000000 0.000000 0.000000
# 3 -0.004923 0.002385 0.023465 0.000000 0.000000 0.000000
# 4 0.000000 0.000000 0.000000 0.087852 0.000000 0.000000
# 5 0.000000 0.000000 0.000000 0.000000 0.022941 0.000000
# 6 0.000000 0.000000 0.000000 0.000000 0.000000 0.151109
#
#
# Mechanical properties :
#
#
# Convention : Reuss Voigt Hill
#
# Bulk Modulus (GPa) = 25.16363 39.87244 32.51804
# Shear Modulus (GPa) = 14.98833 27.28679 21.13756
#
# Velocity S-wave (km/s) = 2.67619 3.61090 3.17810
# Velocity P-wave (km/s) = 4.64472 6.03634 5.38566
#
# Compressibility (1/GPa) = 0.03973989
#
# Stress axis : x y z
#
# Youngs Moduli (GPa) = 136.58268 54.62548 42.61736
#
# Poissons Ratio (x) = 0.11685 0.20979
# Poissons Ratio (y) = 0.29218 -0.10166
# Poissons Ratio (z) = 0.67235 -0.13031
#
# Static dielectric constant tensor:
#      x y z
#    x 1.707040 0.000000 0.000000 
#    y 0.000000 1.872780 0.000000 
#    z 0.000000 0.000000 1.757010 
# 
# From -- ./inp_files/48479.got.cif
#   From: 2010.05.17/outbox.cif.g08.bks.cpg/sg64_25_cif.got.tgz:48479.got - 2010.06.03 16:29:19.
