data_PCOD9478027
_publ_section_title
;
Structure prediction by ZEFSAII (Michael W. Deem and Ramdas Pophale) SiO2 
 PCOD9478027
Probable space group: C M C A
;
_chemical_formula_sum "Si O2"
_cell_formula_units_Z 112
_cell_length_a 15.916274
_cell_length_b 24.479671
_cell_length_c 14.504377
_cell_angle_alpha 90.000000
_cell_angle_beta 90.000000
_cell_angle_gamma 90.000000
_cell_volume 5651.270080
_symmetry_space_group_name_H-M "C M C A"
_symmetry_group_IT_number 64
_symmetry_cell_setting 'orthorhombic'
loop_
_space_group_symop_operation_xyz
x,y,z
-x,1/2-y,1/2+z
x,-y,-z
-x,1/2+y,1/2-z
-x,-y,-z
x,1/2+y,1/2-z
-x,y,z
x,1/2-y,1/2+z
1/2+x,1/2+y,z
1/2-x,-y,1/2+z
1/2+x,1/2-y,-z
1/2-x,y,1/2-z
1/2-x,1/2-y,-z
1/2+x,y,1/2-z
1/2-x,1/2+y,z
1/2+x,-y,1/2+z
loop_
_atom_site_type_symbol
_atom_site_label
_atom_site_fract_x
_atom_site_fract_y
_atom_site_fract_z
Si Si1 0.335689 0.999500 0.691551
Si Si2 0.699066 0.344203 0.035745
Si Si3 0.596265 0.597604 0.305968
Si Si4 0.816742 0.706717 0.827621
Si Si5 0.222561 0.446452 0.956873
Si Si6 0.402056 0.816671 0.647907
Si Si7 0.597945 0.878969 0.294879
O O1 0.250000 0.005525 0.750000
O O2 0.378534 0.058060 0.689091
O O3 0.394738 0.956049 0.742349
O O4 0.302131 0.971781 0.598048
O O5 0.768318 0.303012 0.076549
O O6 0.627329 0.347362 0.113280
O O7 0.743552 0.403285 0.029917
O O8 0.658546 0.332385 0.936843
O O9 0.500000 0.604400 0.337414
O O10 0.661535 0.586443 0.388061
O O11 0.619204 0.648134 0.239203
O O12 0.750000 0.725428 0.750000
O O13 0.886979 0.752746 0.834728
O O14 0.852184 0.649440 0.788916
O O15 0.178927 0.500000 0.000000
O O16 0.500000 0.828026 0.626492
O O17 0.500000 0.873326 0.278883
#
# Coordination Sequence:
#
# PCOD9478027 Si02
#       7
#    16  16  16  16  16  16  16
#     4  10  19  36  60  86 116 160 204 245 308 376
#     4  11  22  40  62  93 120 162 210 257 312 380
#     4  10  23  39  61  91 123 165 207 263 325 372
#     4  10  24  40  65  88 120 167 213 251 317 382
#     4  11  22  38  64  89 129 165 208 258 309 386
#     4  11  23  42  64  91 124 159 212 271 319 368
#     4  11  22  39  60  89 126 160 203 259 316 375
#
# _framework density 19.818553000000001
#
# number of rings (size 3 to 8) (size 9 to 14) (size 15 to 20)
#    0.000    1.429    2.857    3.000    4.000    0.286 
#    0.000    2.143    0.000    0.000    0.000    0.000 
#    0.000    0.000    0.000    0.000    0.000    0.000 
#
# Total GULP energy -312650.699785 kJ/mol
# GULP energy per Si atom -5583.048210 kJ/mol
# Density = 1.977345 g / cm^3
# Si number density = 19.818553 Si / 1000 Ang^3
#
#
#
# Elastic Constant Matrix: (Units=GPa)
#
#
# Indices 1 2 3 4 5 6 
#
# 1 81.7943 20.7562 33.4478 0.0000 0.0000 0.0000
# 2 20.7562 78.0781 17.2097 0.0000 0.0000 0.0000
# 3 33.4478 17.2097 72.6844 0.0000 0.0000 0.0000
# 4 0.0000 0.0000 0.0000 22.3851 0.0000 0.0000
# 5 0.0000 0.0000 0.0000 0.0000 19.1394 0.0000
# 6 0.0000 0.0000 0.0000 0.0000 0.0000 25.6938
#
#
#
# Elastic Compliance Matrix: (Units=1/GPa)
#
#
# Indices 1 2 3 4 5 6 
#
# 1 0.015582 -0.002703 -0.006531 0.000000 0.000000 0.000000
# 2 -0.002703 0.013982 -0.002067 0.000000 0.000000 0.000000
# 3 -0.006531 -0.002067 0.017253 0.000000 0.000000 0.000000
# 4 0.000000 0.000000 0.000000 0.044673 0.000000 0.000000
# 5 0.000000 0.000000 0.000000 0.000000 0.052248 0.000000
# 6 0.000000 0.000000 0.000000 0.000000 0.000000 0.038920
#
#
# Mechanical properties :
#
#
# Convention : Reuss Voigt Hill
#
# Bulk Modulus (GPa) = 41.29459 41.70936 41.50197
# Shear Modulus (GPa) = 23.43788 24.18654 23.81221
#
# Velocity S-wave (km/s) = 3.44266 3.49721 3.47004
# Velocity P-wave (km/s) = 6.05674 6.11544 6.08616
#
# Compressibility (1/GPa) = 0.02421625
#
# Stress axis : x y z
#
# Youngs Moduli (GPa) = 64.17573 71.52174 57.96199
#
# Poissons Ratio (x) = 0.19332 0.37853
# Poissons Ratio (y) = 0.17346 0.11979
# Poissons Ratio (z) = 0.41911 0.14781
#
# Static dielectric constant tensor:
#      x y z
#    x 1.670360 0.000000 0.000000 
#    y 0.000000 1.701440 0.000000 
#    z 0.000000 0.000000 1.710340 
# 
# From -- ./inp_files/24271.got.cif
#   From: 2010.05.17/outbox.cif.g08.bks.cpg/sg64_13_cif.got.tgz:24271.got - 2010.06.03 16:29:19.
