data_PCOD9478064
_publ_section_title
;
Structure prediction by ZEFSAII (Michael W. Deem and Ramdas Pophale) SiO2 
 PCOD9478064
Probable space group: C M C A
;
_chemical_formula_sum "Si O2"
_cell_formula_units_Z 72
_cell_length_a 14.319116
_cell_length_b 17.491189
_cell_length_c 13.360252
_cell_angle_alpha 90.000000
_cell_angle_beta 90.000000
_cell_angle_gamma 90.000000
_cell_volume 3346.186862
_symmetry_space_group_name_H-M "C M C A"
_symmetry_group_IT_number 64
_symmetry_cell_setting 'orthorhombic'
loop_
_space_group_symop_operation_xyz
x,y,z
-x,1/2-y,1/2+z
x,-y,-z
-x,1/2+y,1/2-z
-x,-y,-z
x,1/2+y,1/2-z
-x,y,z
x,1/2-y,1/2+z
1/2+x,1/2+y,z
1/2-x,-y,1/2+z
1/2+x,1/2-y,-z
1/2-x,y,1/2-z
1/2-x,1/2-y,-z
1/2+x,y,1/2-z
1/2-x,1/2+y,z
1/2+x,-y,1/2+z
loop_
_atom_site_type_symbol
_atom_site_label
_atom_site_fract_x
_atom_site_fract_y
_atom_site_fract_z
Si Si1 0.000000 0.490053 0.761738
Si Si2 0.000000 0.641663 0.100008
Si Si3 0.000000 0.109098 0.070163
Si Si4 0.661292 0.500000 0.000000
Si Si5 0.500000 0.280040 0.389881
Si Si6 0.830996 0.090009 0.824516
Si Si7 0.644920 0.751222 0.786005
O O1 0.000000 0.447764 0.868008
O O2 0.087126 0.542828 0.729688
O O3 0.000000 0.418003 0.685132
O O4 0.089649 0.682869 0.153685
O O5 0.000000 0.658729 0.980165
O O6 0.000000 0.198018 0.057172
O O7 0.090625 0.068743 0.024973
O O8 0.713081 0.466986 0.093934
O O9 0.587968 0.276067 0.313543
O O10 0.750000 0.108596 0.750000
O O11 0.859977 0.175377 0.855974
O O12 0.750000 0.773230 0.750000
#
# Coordination Sequence:
#
# PCOD9478064 Si02
#       7
#     8   8   8   8   8  16  16
#     4  10  19  37  55  86 117 146 192 249 300 337
#     4  11  22  38  61  90 120 157 198 250 308 361
#     4   9  16  33  59  85 110 144 200 246 285 345
#     4   9  18  34  62  87 108 154 204 245 286 347
#     4  11  21  38  60  90 120 162 197 242 315 365
#     4  10  21  39  60  85 119 157 197 247 297 355
#     4  10  22  41  60  86 123 163 202 250 299 361
#
# _framework density 21.517029999999998
#
# number of rings (size 3 to 8) (size 9 to 14) (size 15 to 20)
#    0.000    2.000    2.222    3.333    0.000    1.778 
#    8.000    1.111    0.000    0.000    0.000    0.000 
#    0.000    0.000    0.000    0.000    0.000    0.000 
#
# Total GULP energy -200590.127064 kJ/mol
# GULP energy per Si atom -5571.947974 kJ/mol
# Density = 2.146806 g / cm^3
# Si number density = 21.517030 Si / 1000 Ang^3
#
#
#
# Elastic Constant Matrix: (Units=GPa)
#
#
# Indices 1 2 3 4 5 6 
#
# 1 78.6294 -14.0312 6.3417 0.0000 0.0000 0.0000
# 2 -14.0312 55.2303 -26.0988 0.0000 0.0000 0.0000
# 3 6.3417 -26.0988 37.7044 0.0000 0.0000 0.0000
# 4 0.0000 0.0000 0.0000 30.5548 0.0000 0.0000
# 5 0.0000 0.0000 0.0000 0.0000 10.0817 0.0000
# 6 0.0000 0.0000 0.0000 0.0000 0.0000 11.6342
#
#
#
# Elastic Compliance Matrix: (Units=1/GPa)
#
#
# Indices 1 2 3 4 5 6 
#
# 1 0.013322 0.003456 0.000152 0.000000 0.000000 0.000000
# 2 0.003456 0.027804 0.018664 0.000000 0.000000 0.000000
# 3 0.000152 0.018664 0.039416 0.000000 0.000000 0.000000
# 4 0.000000 0.000000 0.000000 0.032728 0.000000 0.000000
# 5 0.000000 0.000000 0.000000 0.000000 0.099189 0.000000
# 6 0.000000 0.000000 0.000000 0.000000 0.000000 0.085953
#
#
# Mechanical properties :
#
#
# Convention : Reuss Voigt Hill
#
# Bulk Modulus (GPa) = 7.99448 11.55416 9.77432
# Shear Modulus (GPa) = 16.91680 24.14431 20.53056
#
# Velocity S-wave (km/s) = 2.80698 3.35341 3.09229
# Velocity P-wave (km/s) = 3.77213 4.51390 4.15958
#
# Compressibility (1/GPa) = 0.12508637
#
# Stress axis : x y z
#
# Youngs Moduli (GPa) = 75.06151 35.96632 25.37043
#
# Poissons Ratio (x) = -0.12431 -0.00385
# Poissons Ratio (y) = -0.25943 -0.47352
# Poissons Ratio (z) = -0.01138 -0.67129
#
# Static dielectric constant tensor:
#      x y z
#    x 1.860030 0.000000 0.000000 
#    y 0.000000 1.826950 0.000000 
#    z 0.000000 0.000000 1.930920 
# 
# From -- ./inp_files/23590.got.cif
#   From: 2010.05.17/outbox.cif.g08.bks.cpg/sg64_12_cif.got.tgz:23590.got - 2010.06.03 16:29:19.
