data_PCOD9478146
_publ_section_title
;
Structure prediction by ZEFSAII (Michael W. Deem and Ramdas Pophale) SiO2 
 PCOD9478146
Probable space group: C M C A
;
_chemical_formula_sum "Si O2"
_cell_formula_units_Z 56
_cell_length_a 7.859664
_cell_length_b 15.290230
_cell_length_c 18.495648
_cell_angle_alpha 90.000000
_cell_angle_beta 90.000000
_cell_angle_gamma 90.000000
_cell_volume 2222.734294
_symmetry_space_group_name_H-M "C M C A"
_symmetry_group_IT_number 64
_symmetry_cell_setting 'orthorhombic'
loop_
_space_group_symop_operation_xyz
x,y,z
-x,1/2-y,1/2+z
x,-y,-z
-x,1/2+y,1/2-z
-x,-y,-z
x,1/2+y,1/2-z
-x,y,z
x,1/2-y,1/2+z
1/2+x,1/2+y,z
1/2-x,-y,1/2+z
1/2+x,1/2-y,-z
1/2-x,y,1/2-z
1/2-x,1/2-y,-z
1/2+x,y,1/2-z
1/2-x,1/2+y,z
1/2+x,-y,1/2+z
loop_
_atom_site_type_symbol
_atom_site_label
_atom_site_fract_x
_atom_site_fract_y
_atom_site_fract_z
Si Si1 0.000000 0.802571 0.268494
Si Si2 0.500000 0.018925 0.820868
Si Si3 0.699637 0.436291 0.068126
Si Si4 0.500000 0.165297 0.146877
Si Si5 0.311286 0.754776 0.593679
O O1 0.000000 0.751371 0.195246
O O2 0.848164 0.774494 0.322699
O O3 0.000000 0.906661 0.260709
O O4 0.333622 0.035203 0.870274
O O5 0.500000 0.917888 0.800953
O O6 0.500000 0.442868 0.087195
O O7 0.744500 0.333379 0.055887
O O8 0.728073 0.500000 0.000000
O O9 0.331296 0.171735 0.098946
O O10 0.500000 0.780634 0.567315
#
# Coordination Sequence:
#
# PCOD9478146 Si02
#       5
#     8   8  16   8  16
#     4   8  20  41  57  85 119 163 207 249 309 358
#     4  10  23  38  62  97 123 160 214 257 302 379
#     4  10  19  38  68  90 118 164 212 255 312 369
#     4  12  20  39  60  84 132 161 200 266 308 359
#     4   9  20  35  61  85 115 164 200 249 310 364
#
# _framework density 25.194195000000001
#
# number of rings (size 3 to 8) (size 9 to 14) (size 15 to 20)
#    0.857    1.429    2.857    1.286    0.000    1.143 
#    0.000   12.857    0.000    0.000    0.000    0.000 
#    0.000    0.000    0.000    0.000    0.000    0.000 
#
# Total GULP energy -156575.405425 kJ/mol
# GULP energy per Si atom -5591.978765 kJ/mol
# Density = 2.513685 g / cm^3
# Si number density = 25.194195 Si / 1000 Ang^3
#
#
#
# Elastic Constant Matrix: (Units=GPa)
#
#
# Indices 1 2 3 4 5 6 
#
# 1 188.1213 35.3465 18.3718 0.0000 0.0000 0.0000
# 2 35.3465 123.1163 2.1095 0.0000 0.0000 0.0000
# 3 18.3718 2.1095 85.3532 0.0000 0.0000 0.0000
# 4 0.0000 0.0000 0.0000 40.1891 0.0000 0.0000
# 5 0.0000 0.0000 0.0000 0.0000 6.6570 0.0000
# 6 0.0000 0.0000 0.0000 0.0000 0.0000 -12.2931
#
#
#
# Elastic Compliance Matrix: (Units=1/GPa)
#
#
# Indices 1 2 3 4 5 6 
#
# 1 0.005738 -0.001627 -0.001195 0.000000 0.000000 0.000000
# 2 -0.001627 0.008587 0.000138 0.000000 0.000000 0.000000
# 3 -0.001195 0.000138 0.011970 0.000000 0.000000 0.000000
# 4 0.000000 0.000000 0.000000 0.024882 0.000000 0.000000
# 5 0.000000 0.000000 0.000000 0.000000 0.150218 0.000000
# 6 0.000000 0.000000 0.000000 0.000000 0.000000 -0.081346
#
#
# Mechanical properties :
#
#
# Convention : Reuss Voigt Hill
#
# Bulk Modulus (GPa) = 47.78442 56.47182 52.12812
# Shear Modulus (GPa) = 37.76641 29.62812 33.69726
#
# Velocity S-wave (km/s) = 3.87591 3.43299 3.66115
# Velocity P-wave (km/s) = 6.24803 6.17877 6.21349
#
# Compressibility (1/GPa) = 0.02092732
#
# Stress axis : x y z
#
# Youngs Moduli (GPa) = 174.27382 116.45340 83.54354
#
# Poissons Ratio (x) = 0.18946 0.09983
# Poissons Ratio (y) = 0.28353 -0.01153
# Poissons Ratio (z) = 0.20824 -0.01607
#
# Static dielectric constant tensor:
#      x y z
#    x 2.035240 0.000000 0.000000 
#    y 0.000000 1.970640 0.000000 
#    z 0.000000 0.000000 1.989680 
# 
# From -- ./inp_files/42432.got.cif
#   From: 2010.05.17/outbox.cif.g08.bks.cpg/sg64_22_cif.got.tgz:42432.got - 2010.06.03 16:29:19.
