data_PCOD9478333
_publ_section_title
;
Structure prediction by ZEFSAII (Michael W. Deem and Ramdas Pophale) SiO2 
 PCOD9478333
Probable space group: C M C A
;
_chemical_formula_sum "Si O2"
_cell_formula_units_Z 72
_cell_length_a 10.029631
_cell_length_b 19.973586
_cell_length_c 18.951764
_cell_angle_alpha 90.000000
_cell_angle_beta 90.000000
_cell_angle_gamma 90.000000
_cell_volume 3796.563242
_symmetry_space_group_name_H-M "C M C A"
_symmetry_group_IT_number 64
_symmetry_cell_setting 'orthorhombic'
loop_
_space_group_symop_operation_xyz
x,y,z
-x,1/2-y,1/2+z
x,-y,-z
-x,1/2+y,1/2-z
-x,-y,-z
x,1/2+y,1/2-z
-x,y,z
x,1/2-y,1/2+z
1/2+x,1/2+y,z
1/2-x,-y,1/2+z
1/2+x,1/2-y,-z
1/2-x,y,1/2-z
1/2-x,1/2-y,-z
1/2+x,y,1/2-z
1/2-x,1/2+y,z
1/2+x,-y,1/2+z
loop_
_atom_site_type_symbol
_atom_site_label
_atom_site_fract_x
_atom_site_fract_y
_atom_site_fract_z
Si Si1 0.000000 0.021922 0.119648
Si Si2 0.500000 0.231976 0.159164
Si Si3 0.500000 0.837136 0.697050
Si Si4 0.791486 0.224821 0.096756
Si Si5 0.224014 0.000000 0.000000
Si Si6 0.000000 0.122324 0.857111
Si Si7 0.747439 0.359319 0.038195
O O1 0.000000 0.087232 0.168262
O O2 0.873602 0.018932 0.065894
O O3 0.000000 0.954465 0.167700
O O4 0.500000 0.177079 0.220311
O O5 0.633947 0.224957 0.113608
O O6 0.500000 0.309333 0.188290
O O7 0.627737 0.800545 0.663360
O O8 0.832152 0.299455 0.072441
O O9 0.813288 0.174553 0.031952
O O10 0.303012 0.067642 0.980848
O O11 0.128448 0.127498 0.907200
#
# Coordination Sequence:
#
# PCOD9478333 Si02
#       7
#     8   8   8  16   8   8  16
#     4   9  16  26  54  82 101 123 183 224 253 290
#     4  10  22  36  52  71 111 144 174 214 260 314
#     4  12  20  34  56  79 101 144 186 218 248 317
#     4  10  20  33  52  80 106 135 174 219 267 314
#     4   9  14  28  50  85 106 125 166 227 264 309
#     4   8  16  32  52  82 101 135 175 230 259 300
#     4   9  16  28  53  79 106 128 167 223 276 305
#
# _framework density 18.96452
#
# number of rings (size 3 to 8) (size 9 to 14) (size 15 to 20)
#    0.000    2.444    2.222    2.000    0.000    2.667 
#    0.000    0.000    4.889    4.000    0.000    0.000 
#    0.000    0.000    0.000    0.000    0.000    0.000 
#
# Total GULP energy -200442.875620 kJ/mol
# GULP energy per Si atom -5567.857656 kJ/mol
# Density = 1.892136 g / cm^3
# Si number density = 18.964520 Si / 1000 Ang^3
#
#
#
# Elastic Constant Matrix: (Units=GPa)
#
#
# Indices 1 2 3 4 5 6 
#
# 1 48.3059 7.6988 -5.3937 0.0000 0.0000 0.0000
# 2 7.6988 186.0702 30.4240 0.0000 0.0000 0.0000
# 3 -5.3937 30.4240 43.2172 0.0000 0.0000 0.0000
# 4 0.0000 0.0000 0.0000 30.8672 0.0000 0.0000
# 5 0.0000 0.0000 0.0000 0.0000 24.7033 0.0000
# 6 0.0000 0.0000 0.0000 0.0000 0.0000 11.1038
#
#
#
# Elastic Compliance Matrix: (Units=1/GPa)
#
#
# Indices 1 2 3 4 5 6 
#
# 1 0.021354 -0.001491 0.003715 0.000000 0.000000 0.000000
# 2 -0.001491 0.006177 -0.004535 0.000000 0.000000 0.000000
# 3 0.003715 -0.004535 0.026795 0.000000 0.000000 0.000000
# 4 0.000000 0.000000 0.000000 0.032397 0.000000 0.000000
# 5 0.000000 0.000000 0.000000 0.000000 0.040480 0.000000
# 6 0.000000 0.000000 0.000000 0.000000 0.000000 0.090059
#
#
# Mechanical properties :
#
#
# Convention : Reuss Voigt Hill
#
# Bulk Modulus (GPa) = 20.11912 38.11681 29.11797
# Shear Modulus (GPa) = 20.96847 29.65914 25.31381
#
# Velocity S-wave (km/s) = 3.32877 3.95894 3.65745
# Velocity P-wave (km/s) = 5.04045 6.40627 5.76396
#
# Compressibility (1/GPa) = 0.04970395
#
# Stress axis : x y z
#
# Youngs Moduli (GPa) = 46.83014 161.87790 37.32037
#
# Poissons Ratio (x) = 0.24134 -0.13863
# Poissons Ratio (y) = 0.06982 0.16924
# Poissons Ratio (z) = -0.17396 0.73410
#
# Static dielectric constant tensor:
#      x y z
#    x 1.652990 0.000000 0.000000 
#    y 0.000000 1.735680 0.000000 
#    z 0.000000 0.000000 1.633180 
# 
# From -- ./inp_files/30730.got.cif
#   From: 2010.05.17/outbox.cif.g08.bks.cpg/sg64_16_cif.got.tgz:30730.got - 2010.06.03 16:29:19.
