data_PCOD9478679
_publ_section_title
;
Structure prediction by ZEFSAII (Michael W. Deem and Ramdas Pophale) SiO2 
 PCOD9478679
Probable space group: C M C A
;
_chemical_formula_sum "Si O2"
_cell_formula_units_Z 80
_cell_length_a 8.672663
_cell_length_b 16.200526
_cell_length_c 29.453708
_cell_angle_alpha 90.000000
_cell_angle_beta 90.000000
_cell_angle_gamma 90.000000
_cell_volume 4138.296117
_symmetry_space_group_name_H-M "C M C A"
_symmetry_group_IT_number 64
_symmetry_cell_setting 'orthorhombic'
loop_
_space_group_symop_operation_xyz
x,y,z
-x,1/2-y,1/2+z
x,-y,-z
-x,1/2+y,1/2-z
-x,-y,-z
x,1/2+y,1/2-z
-x,y,z
x,1/2-y,1/2+z
1/2+x,1/2+y,z
1/2-x,-y,1/2+z
1/2+x,1/2-y,-z
1/2-x,y,1/2-z
1/2-x,1/2-y,-z
1/2+x,y,1/2-z
1/2-x,1/2+y,z
1/2+x,-y,1/2+z
loop_
_atom_site_type_symbol
_atom_site_label
_atom_site_fract_x
_atom_site_fract_y
_atom_site_fract_z
Si Si1 0.315305 0.970536 0.854608
Si Si2 0.316598 0.779656 0.452355
Si Si3 0.684416 0.460327 0.452087
Si Si4 0.188169 0.212236 0.356537
Si Si5 0.315147 0.626418 0.800605
O O1 0.500000 0.976096 0.847748
O O2 0.262479 0.878738 0.840862
O O3 0.286983 0.982605 0.908461
O O4 0.238777 0.045631 0.827919
O O5 0.500000 0.771954 0.454334
O O6 0.250000 0.750000 0.500000
O O7 0.269146 0.874143 0.444927
O O8 0.261958 0.728684 0.408418
O O9 0.731125 0.500000 0.500000
O O10 0.500000 0.445065 0.454363
O O11 0.237814 0.289826 0.326165
O O12 0.000000 0.211892 0.356525
O O13 0.500000 0.627458 0.799400
O O14 0.250000 0.624233 0.750000
#
# Coordination Sequence:
#
# PCOD9478679 Si02
#       5
#    16  16  16  16  16
#     4  10  20  38  63  89 120 159 201 244 299 361
#     4  11  21  36  57  85 122 162 204 249 300 357
#     4  10  20  35  57  86 123 163 203 246 300 359
#     4   9  20  39  62  86 121 160 196 245 302 357
#     4  11  23  42  64  89 120 156 201 253 308 358
#
# _framework density 19.331629
#
# number of rings (size 3 to 8) (size 9 to 14) (size 15 to 20)
#    0.000    1.800    2.000    2.400    0.000    4.400 
#    0.000    8.000    0.000    0.000    0.000    0.000 
#    0.000    0.000    0.000    0.000    0.000    0.000 
#
# Total GULP energy -223410.304415 kJ/mol
# GULP energy per Si atom -5585.257610 kJ/mol
# Density = 1.928763 g / cm^3
# Si number density = 19.331629 Si / 1000 Ang^3
#
#
#
# Elastic Constant Matrix: (Units=GPa)
#
#
# Indices 1 2 3 4 5 6 
#
# 1 25.0969 38.8933 34.6281 0.0000 0.0000 0.0000
# 2 38.8933 166.2490 69.3564 0.0000 0.0000 0.0000
# 3 34.6281 69.3564 129.4758 0.0000 0.0000 0.0000
# 4 0.0000 0.0000 0.0000 26.5354 0.0000 0.0000
# 5 0.0000 0.0000 0.0000 0.0000 21.3626 0.0000
# 6 0.0000 0.0000 0.0000 0.0000 0.0000 30.8916
#
#
#
# Elastic Compliance Matrix: (Units=1/GPa)
#
#
# Indices 1 2 3 4 5 6 
#
# 1 0.079178 -0.012478 -0.014492 0.000000 0.000000 0.000000
# 2 -0.012478 0.009712 -0.001866 0.000000 0.000000 0.000000
# 3 -0.014492 -0.001866 0.012599 0.000000 0.000000 0.000000
# 4 0.000000 0.000000 0.000000 0.037685 0.000000 0.000000
# 5 0.000000 0.000000 0.000000 0.000000 0.046811 0.000000
# 6 0.000000 0.000000 0.000000 0.000000 0.000000 0.032371
#
#
# Mechanical properties :
#
#
# Convention : Reuss Voigt Hill
#
# Bulk Modulus (GPa) = 22.82126 67.39747 45.10937
# Shear Modulus (GPa) = 17.20376 27.62086 22.41231
#
# Velocity S-wave (km/s) = 2.98640 3.78404 3.40863
# Velocity P-wave (km/s) = 4.87055 7.35061 6.23513
#
# Compressibility (1/GPa) = 0.04381878
#
# Stress axis : x y z
#
# Youngs Moduli (GPa) = 12.62971 102.96086 79.37321
#
# Poissons Ratio (x) = 1.28470 1.15030
# Poissons Ratio (y) = 0.15759 0.14808
# Poissons Ratio (z) = 0.18303 0.19208
#
# Static dielectric constant tensor:
#      x y z
#    x 1.657830 0.000000 0.000000 
#    y 0.000000 1.673350 0.000000 
#    z 0.000000 0.000000 1.677180 
# 
# From -- ./inp_files/47842.got.cif
#   From: 2010.05.17/outbox.cif.g08.bks.cpg/sg64_24_cif.got.tgz:47842.got - 2010.06.03 16:29:19.
