data_PCOD9478886
_publ_section_title
;
Structure prediction by ZEFSAII (Michael W. Deem and Ramdas Pophale) SiO2 
 PCOD9478886
Probable space group: C M C A
;
_chemical_formula_sum "Si O2"
_cell_formula_units_Z 96
_cell_length_a 8.625757
_cell_length_b 27.351557
_cell_length_c 19.341903
_cell_angle_alpha 90.000000
_cell_angle_beta 90.000000
_cell_angle_gamma 90.000000
_cell_volume 4563.294252
_symmetry_space_group_name_H-M "C M C A"
_symmetry_group_IT_number 64
_symmetry_cell_setting 'orthorhombic'
loop_
_space_group_symop_operation_xyz
x,y,z
-x,1/2-y,1/2+z
x,-y,-z
-x,1/2+y,1/2-z
-x,-y,-z
x,1/2+y,1/2-z
-x,y,z
x,1/2-y,1/2+z
1/2+x,1/2+y,z
1/2-x,-y,1/2+z
1/2+x,1/2-y,-z
1/2-x,y,1/2-z
1/2-x,1/2-y,-z
1/2+x,y,1/2-z
1/2-x,1/2+y,z
1/2+x,-y,1/2+z
loop_
_atom_site_type_symbol
_atom_site_label
_atom_site_fract_x
_atom_site_fract_y
_atom_site_fract_z
Si Si1 0.183211 0.702666 0.539041
Si Si2 0.187311 0.050781 0.083831
Si Si3 0.314020 0.955056 0.327881
Si Si4 0.814069 0.142906 0.173551
Si Si5 0.186640 0.754634 0.326978
Si Si6 0.684012 0.598299 0.545572
O O1 0.250000 0.750000 0.500000
O O2 0.229729 0.710930 0.618668
O O3 0.255061 0.650661 0.519033
O O4 0.000000 0.700820 0.528229
O O5 0.231935 0.005050 0.131781
O O6 0.238551 0.099793 0.124018
O O7 0.000000 0.050008 0.077305
O O8 0.256038 0.056988 0.007561
O O9 0.500000 0.953045 0.325220
O O10 0.250000 0.953537 0.250000
O O11 0.251378 0.912902 0.378478
O O12 0.750000 0.134666 0.250000
O O13 0.773677 0.198332 0.153028
O O14 0.000000 0.140894 0.176084
O O15 0.250000 0.762290 0.250000
O O16 0.000000 0.760341 0.329541
O O17 0.500000 0.598333 0.548055
#
# Coordination Sequence:
#
# PCOD9478886 Si02
#       6
#    16  16  16  16  16  16
#     4  12  25  43  66  93 125 163 209 260 317 378
#     4  10  21  39  63  92 127 166 206 255 315 371
#     4  11  24  43  67  95 129 168 211 259 312 371
#     4   9  18  32  54  85 122 161 202 251 305 364
#     4  10  20  36  58  87 123 164 210 258 311 372
#     4  12  26  43  65  93 125 164 210 259 313 373
#
# _framework density 21.037434000000001
#
# number of rings (size 3 to 8) (size 9 to 14) (size 15 to 20)
#    0.000    1.333    0.000    6.000    0.000    6.667 
#    0.000    3.333    0.000    0.000    0.000    0.000 
#    0.000    0.000    0.000    0.000    0.000    0.000 
#
# Total GULP energy -268499.119771 kJ/mol
# GULP energy per Si atom -5593.731662 kJ/mol
# Density = 2.098955 g / cm^3
# Si number density = 21.037434 Si / 1000 Ang^3
#
#
#
# Elastic Constant Matrix: (Units=GPa)
#
#
# Indices 1 2 3 4 5 6 
#
# 1 73.6764 34.6465 32.7298 0.0000 0.0000 0.0000
# 2 34.6465 103.0691 54.4422 0.0000 0.0000 0.0000
# 3 32.7298 54.4422 112.8579 0.0000 0.0000 0.0000
# 4 0.0000 0.0000 0.0000 40.2199 0.0000 0.0000
# 5 0.0000 0.0000 0.0000 0.0000 40.7353 0.0000
# 6 0.0000 0.0000 0.0000 0.0000 0.0000 15.6179
#
#
#
# Elastic Compliance Matrix: (Units=1/GPa)
#
#
# Indices 1 2 3 4 5 6 
#
# 1 0.016791 -0.004123 -0.002881 0.000000 0.000000 0.000000
# 2 -0.004123 0.014032 -0.005573 0.000000 0.000000 0.000000
# 3 -0.002881 -0.005573 0.012385 0.000000 0.000000 0.000000
# 4 0.000000 0.000000 0.000000 0.024863 0.000000 0.000000
# 5 0.000000 0.000000 0.000000 0.000000 0.024549 0.000000
# 6 0.000000 0.000000 0.000000 0.000000 0.000000 0.064029
#
#
# Mechanical properties :
#
#
# Convention : Reuss Voigt Hill
#
# Bulk Modulus (GPa) = 55.38862 59.24894 57.31878
# Shear Modulus (GPa) = 26.62109 30.50027 28.56068
#
# Velocity S-wave (km/s) = 3.56113 3.81177 3.68858
# Velocity P-wave (km/s) = 6.57986 6.89909 6.74137
#
# Compressibility (1/GPa) = 0.01805425
#
# Stress axis : x y z
#
# Youngs Moduli (GPa) = 59.55436 71.26591 80.74455
#
# Poissons Ratio (x) = 0.29381 0.23262
# Poissons Ratio (y) = 0.24552 0.45002
# Poissons Ratio (z) = 0.17157 0.39719
#
# Static dielectric constant tensor:
#      x y z
#    x 1.699810 0.000000 0.000000 
#    y 0.000000 1.778870 0.000000 
#    z 0.000000 0.000000 1.728350 
# 
# From -- ./inp_files/37014.got.cif
#   From: 2010.05.17/outbox.cif.g08.bks.cpg/sg64_19_cif.got.tgz:37014.got - 2010.06.03 16:29:19.
