data_PCOD9478248
_publ_section_title
;
Structure prediction by ZEFSAII (Michael W. Deem and Ramdas Pophale) SiO2 
 PCOD9478248
Probable space group: C M C A
;
_chemical_formula_sum "Si O2"
_cell_formula_units_Z 96
_cell_length_a 17.106300
_cell_length_b 20.937669
_cell_length_c 12.160583
_cell_angle_alpha 90.000000
_cell_angle_beta 90.000000
_cell_angle_gamma 90.000000
_cell_volume 4355.507945
_symmetry_space_group_name_H-M "C M C A"
_symmetry_group_IT_number 64
_symmetry_cell_setting 'orthorhombic'
loop_
_space_group_symop_operation_xyz
x,y,z
-x,1/2-y,1/2+z
x,-y,-z
-x,1/2+y,1/2-z
-x,-y,-z
x,1/2+y,1/2-z
-x,y,z
x,1/2-y,1/2+z
1/2+x,1/2+y,z
1/2-x,-y,1/2+z
1/2+x,1/2-y,-z
1/2-x,y,1/2-z
1/2-x,1/2-y,-z
1/2+x,y,1/2-z
1/2-x,1/2+y,z
1/2+x,-y,1/2+z
loop_
_atom_site_type_symbol
_atom_site_label
_atom_site_fract_x
_atom_site_fract_y
_atom_site_fract_z
Si Si1 0.000000 0.992123 0.325153
Si Si2 0.909749 0.194749 0.149893
Si Si3 0.684616 0.716251 0.336157
Si Si4 0.000000 0.392802 0.970421
Si Si5 0.836193 0.064400 0.741189
Si Si6 0.908428 0.658267 0.592401
Si Si7 0.848213 0.171767 0.553508
O O1 0.000000 0.943429 0.428838
O O2 0.915016 0.977404 0.272641
O O3 0.000000 0.064799 0.362955
O O4 0.862708 0.169780 0.254581
O O5 0.875014 0.264248 0.115884
O O6 0.000000 0.203644 0.178974
O O7 0.905440 0.154071 0.039010
O O8 0.750000 0.740085 0.250000
O O9 0.627990 0.774157 0.370508
O O10 0.711765 0.686834 0.453149
O O11 0.075794 0.350537 0.986520
O O12 0.750000 0.033529 0.750000
O O13 0.856682 0.105697 0.848384
O O14 0.829979 0.115988 0.640247
O O15 0.000000 0.654279 0.626863
#
# Coordination Sequence:
#
# PCOD9478248 Si02
#       7
#     8  16  16   8  16  16  16
#     4   9  20  38  61  88 110 136 194 242 310 353
#     4  10  20  32  50  76 112 158 193 228 268 342
#     4  11  23  32  47  77 119 158 193 229 276 338
#     4   9  18  38  61  84 106 140 182 252 298 346
#     4  11  21  35  59  86 114 150 189 247 296 350
#     4  10  20  33  50  75 111 152 196 233 275 338
#     4  10  21  34  56  82 113 150 194 231 286 344
#
# _framework density 22.041056999999999
#
# number of rings (size 3 to 8) (size 9 to 14) (size 15 to 20)
#    0.000    1.833    3.333    1.000    4.667    1.333 
#    0.000    0.833    0.000    0.000    0.000    1.167 
#    0.000    0.000    0.000    0.000    0.000    0.000 
#
# Total GULP energy -267802.956597 kJ/mol
# GULP energy per Si atom -5579.228262 kJ/mol
# Density = 2.199089 g / cm^3
# Si number density = 22.041057 Si / 1000 Ang^3
#
#
#
# Elastic Constant Matrix: (Units=GPa)
#
#
# Indices 1 2 3 4 5 6 
#
# 1 145.8603 16.2261 21.0886 0.0000 0.0000 0.0000
# 2 16.2261 30.0250 1.1889 0.0000 0.0000 0.0000
# 3 21.0886 1.1889 73.2146 0.0000 0.0000 0.0000
# 4 0.0000 0.0000 0.0000 8.5249 0.0000 0.0000
# 5 0.0000 0.0000 0.0000 0.0000 33.3779 0.0000
# 6 0.0000 0.0000 0.0000 0.0000 0.0000 -3.2863
#
#
#
# Elastic Compliance Matrix: (Units=1/GPa)
#
#
# Indices 1 2 3 4 5 6 
#
# 1 0.007612 -0.004029 -0.002127 0.000000 0.000000 0.000000
# 2 -0.004029 0.035460 0.000585 0.000000 0.000000 0.000000
# 3 -0.002127 0.000585 0.014262 0.000000 0.000000 0.000000
# 4 0.000000 0.000000 0.000000 0.117303 0.000000 0.000000
# 5 0.000000 0.000000 0.000000 0.000000 0.029960 0.000000
# 6 0.000000 0.000000 0.000000 0.000000 0.000000 -0.304295
#
#
# Mechanical properties :
#
#
# Convention : Reuss Voigt Hill
#
# Bulk Modulus (GPa) = 21.64963 36.23411 28.94187
# Shear Modulus (GPa) = -68.34447 21.76308 -23.29070
#
# Velocity S-wave (km/s) = -5.57451 3.14568 -3.25421
# Velocity P-wave (km/s) = 5.62048 5.44691 0.98004
#
# Compressibility (1/GPa) = 0.04619017
#
# Stress axis : x y z
#
# Youngs Moduli (GPa) = 131.37790 28.20088 70.11818
#
# Poissons Ratio (x) = 0.11363 0.14914
# Poissons Ratio (y) = 0.52935 -0.04100
# Poissons Ratio (z) = 0.27944 -0.01649
#
# Static dielectric constant tensor:
#      x y z
#    x 1.915130 0.000000 0.000000 
#    y 0.000000 1.779690 0.000000 
#    z 0.000000 0.000000 1.851740 
# 
# From -- ./inp_files/16275.got.cif
#   From: 2010.05.17/outbox.cif.g08.bks.cpg/sg64_9_cif.got.tgz:16275.got - 2010.06.03 16:29:19.
