data_PCOD9478005
_publ_section_title
;
Structure prediction by ZEFSAII (Michael W. Deem and Ramdas Pophale) SiO2 
 PCOD9478005
Probable space group: C M C A
;
_chemical_formula_sum "Si O2"
_cell_formula_units_Z 88
_cell_length_a 31.601411
_cell_length_b 15.559952
_cell_length_c 9.780606
_cell_angle_alpha 90.000000
_cell_angle_beta 90.000000
_cell_angle_gamma 90.000000
_cell_volume 4809.284747
_symmetry_space_group_name_H-M "C M C A"
_symmetry_group_IT_number 64
_symmetry_cell_setting 'orthorhombic'
loop_
_space_group_symop_operation_xyz
x,y,z
-x,1/2-y,1/2+z
x,-y,-z
-x,1/2+y,1/2-z
-x,-y,-z
x,1/2+y,1/2-z
-x,y,z
x,1/2-y,1/2+z
1/2+x,1/2+y,z
1/2-x,-y,1/2+z
1/2+x,1/2-y,-z
1/2-x,y,1/2-z
1/2-x,1/2-y,-z
1/2+x,y,1/2-z
1/2-x,1/2+y,z
1/2+x,-y,1/2+z
loop_
_atom_site_type_symbol
_atom_site_label
_atom_site_fract_x
_atom_site_fract_y
_atom_site_fract_z
Si Si1 0.149635 0.622956 0.836723
Si Si2 0.670259 0.398177 0.022802
Si Si3 0.260101 0.087299 0.913555
Si Si4 0.406633 0.500000 0.500000
Si Si5 0.904563 0.788303 0.904538
Si Si6 0.050509 0.328089 0.877366
O O1 0.158310 0.617237 0.678334
O O2 0.194434 0.632638 0.914068
O O3 0.120251 0.703390 0.861040
O O4 0.124557 0.539071 0.886148
O O5 0.632910 0.355535 0.936671
O O6 0.671690 0.500000 0.000000
O O7 0.719398 0.367580 0.016186
O O8 0.250000 0.071488 0.750000
O O9 0.265789 0.000000 0.000000
O O10 0.433019 0.581193 0.441698
O O11 0.932893 0.819932 0.778142
O O12 0.931256 0.752976 0.034672
O O13 0.000000 0.326460 0.882028
#
# Coordination Sequence:
#
# PCOD9478005 Si02
#       6
#    16  16  16   8  16  16
#     4  10  19  36  58  87 119 155 200 236 294 351
#     4  10  20  36  58  84 121 158 199 237 291 351
#     4   9  18  33  55  84 120 157 196 243 280 342
#     4  10  21  36  66  86 118 154 198 246 297 366
#     4  11  22  39  62  85 120 159 192 250 302 354
#     4  11  23  41  63  89 117 153 201 254 308 357
#
# _framework density 18.297939
#
# number of rings (size 3 to 8) (size 9 to 14) (size 15 to 20)
#    0.000    1.818    2.727    1.909    0.000    0.727 
#    0.000    0.000    0.000    2.182    0.000    0.000 
#    0.000    0.000    0.000    0.000    0.000    0.000 
#
# Total GULP energy -245105.760250 kJ/mol
# GULP energy per Si atom -5570.585460 kJ/mol
# Density = 1.825629 g / cm^3
# Si number density = 18.297939 Si / 1000 Ang^3
#
#
#
# Elastic Constant Matrix: (Units=GPa)
#
#
# Indices 1 2 3 4 5 6 
#
# 1 135.6821 21.9119 29.2816 0.0000 0.0000 0.0000
# 2 21.9119 43.0313 1.4594 0.0000 0.0000 0.0000
# 3 29.2816 1.4594 47.9837 0.0000 0.0000 0.0000
# 4 0.0000 0.0000 0.0000 19.4202 0.0000 0.0000
# 5 0.0000 0.0000 0.0000 0.0000 20.8742 0.0000
# 6 0.0000 0.0000 0.0000 0.0000 0.0000 15.9591
#
#
#
# Elastic Compliance Matrix: (Units=1/GPa)
#
#
# Indices 1 2 3 4 5 6 
#
# 1 0.009299 -0.004548 -0.005537 0.000000 0.000000 0.000000
# 2 -0.004548 0.025487 0.002000 0.000000 0.000000 0.000000
# 3 -0.005537 0.002000 0.024158 0.000000 0.000000 0.000000
# 4 0.000000 0.000000 0.000000 0.051493 0.000000 0.000000
# 5 0.000000 0.000000 0.000000 0.000000 0.047906 0.000000
# 6 0.000000 0.000000 0.000000 0.000000 0.000000 0.062660
#
#
# Mechanical properties :
#
#
# Convention : Reuss Voigt Hill
#
# Bulk Modulus (GPa) = 23.37762 36.88922 30.13342
# Shear Modulus (GPa) = 19.88622 22.85364 21.36993
#
# Velocity S-wave (km/s) = 3.30024 3.53792 3.42114
# Velocity P-wave (km/s) = 5.22742 6.07398 5.66653
#
# Compressibility (1/GPa) = 0.04277596
#
# Stress axis : x y z
#
# Youngs Moduli (GPa) = 107.53350 39.23608 41.39375
#
# Poissons Ratio (x) = 0.17843 0.22918
# Poissons Ratio (y) = 0.48902 -0.08278
# Poissons Ratio (z) = 0.59537 -0.07847
#
# Static dielectric constant tensor:
#      x y z
#    x 1.666690 0.000000 0.000000 
#    y 0.000000 1.604870 0.000000 
#    z 0.000000 0.000000 1.633400 
# 
# From -- ./inp_files/11093.got.cif
#   From: 2010.05.17/outbox.cif.g08.bks.cpg/sg64_6_cif.got.tgz:11093.got - 2010.06.03 16:29:19.
