data_PCOD9478571
_publ_section_title
;
Structure prediction by ZEFSAII (Michael W. Deem and Ramdas Pophale) SiO2 
 PCOD9478571
Probable space group: C M C A
;
_chemical_formula_sum "Si O2"
_cell_formula_units_Z 96
_cell_length_a 7.704016
_cell_length_b 26.358632
_cell_length_c 24.156321
_cell_angle_alpha 90.000000
_cell_angle_beta 90.000000
_cell_angle_gamma 90.000000
_cell_volume 4905.359431
_symmetry_space_group_name_H-M "C M C A"
_symmetry_group_IT_number 64
_symmetry_cell_setting 'orthorhombic'
loop_
_space_group_symop_operation_xyz
x,y,z
-x,1/2-y,1/2+z
x,-y,-z
-x,1/2+y,1/2-z
-x,-y,-z
x,1/2+y,1/2-z
-x,y,z
x,1/2-y,1/2+z
1/2+x,1/2+y,z
1/2-x,-y,1/2+z
1/2+x,1/2-y,-z
1/2-x,y,1/2-z
1/2-x,1/2-y,-z
1/2+x,y,1/2-z
1/2-x,1/2+y,z
1/2+x,-y,1/2+z
loop_
_atom_site_type_symbol
_atom_site_label
_atom_site_fract_x
_atom_site_fract_y
_atom_site_fract_z
Si Si1 0.704327 0.394778 0.617515
Si Si2 0.708752 0.686256 0.813681
Si Si3 0.790464 0.091120 0.883412
Si Si4 0.790674 0.300681 0.813741
Si Si5 0.707977 0.442360 0.504763
Si Si6 0.792748 0.006727 0.185534
O O1 0.500000 0.384984 0.608622
O O2 0.777926 0.343956 0.645317
O O3 0.778254 0.413636 0.558845
O O4 0.720553 0.441430 0.660058
O O5 0.500000 0.687805 0.818715
O O6 0.750000 0.673363 0.750000
O O7 0.773963 0.642381 0.854194
O O8 0.774250 0.743420 0.824512
O O9 0.742423 0.085759 0.947349
O O10 0.728066 0.041494 0.849828
O O11 0.000000 0.091140 0.879672
O O12 0.750000 0.313571 0.750000
O O13 0.000000 0.299597 0.818171
O O14 0.776604 0.500000 0.500000
O O15 0.500000 0.446430 0.512023
O O16 0.750000 0.001039 0.250000
O O17 0.000000 0.008970 0.179734
#
# Coordination Sequence:
#
# PCOD9478571 Si02
#       6
#    16  16  16  16  16  16
#     4  10  20  35  53  75 102 134 172 212 255 302
#     4   9  18  34  54  77 103 134 169 208 255 304
#     4  10  21  35  52  75 103 134 170 209 254 303
#     4   9  18  33  54  76 102 133 167 208 254 304
#     4  10  20  35  54  74 100 138 177 212 252 301
#     4  11  22  33  49  75 104 133 164 206 256 306
#
# _framework density 19.570432
#
# number of rings (size 3 to 8) (size 9 to 14) (size 15 to 20)
#    0.000    2.167    1.667    1.500    0.000    4.333 
#    0.000    0.833    0.000    0.000    0.000    0.000 
#    0.000    0.000    0.000    0.000    0.000    0.000 
#
# Total GULP energy -267990.642158 kJ/mol
# GULP energy per Si atom -5583.138378 kJ/mol
# Density = 1.952589 g / cm^3
# Si number density = 19.570432 Si / 1000 Ang^3
#
#
#
# Elastic Constant Matrix: (Units=GPa)
#
#
# Indices 1 2 3 4 5 6 
#
# 1 28.7913 1.4547 -8.3799 0.0000 0.0000 0.0000
# 2 1.4547 133.0398 75.8294 0.0000 0.0000 0.0000
# 3 -8.3799 75.8294 122.9503 0.0000 0.0000 0.0000
# 4 0.0000 0.0000 0.0000 10.5368 0.0000 0.0000
# 5 0.0000 0.0000 0.0000 0.0000 23.9250 0.0000
# 6 0.0000 0.0000 0.0000 0.0000 0.0000 20.2775
#
#
#
# Elastic Compliance Matrix: (Units=1/GPa)
#
#
# Indices 1 2 3 4 5 6 
#
# 1 0.036086 -0.002770 0.004168 0.000000 0.000000 0.000000
# 2 -0.002770 0.011804 -0.007469 0.000000 0.000000 0.000000
# 3 0.004168 -0.007469 0.013024 0.000000 0.000000 0.000000
# 4 0.000000 0.000000 0.000000 0.094905 0.000000 0.000000
# 5 0.000000 0.000000 0.000000 0.000000 0.041797 0.000000
# 6 0.000000 0.000000 0.000000 0.000000 0.000000 0.049316
#
#
# Mechanical properties :
#
#
# Convention : Reuss Voigt Hill
#
# Bulk Modulus (GPa) = 20.50378 46.95443 33.72911
# Shear Modulus (GPa) = 18.15995 25.33967 21.74981
#
# Velocity S-wave (km/s) = 3.04950 3.60223 3.33732
# Velocity P-wave (km/s) = 4.78528 6.43009 5.66767
#
# Compressibility (1/GPa) = 0.04877150
#
# Stress axis : x y z
#
# Youngs Moduli (GPa) = 27.71168 84.71778 76.78219
#
# Poissons Ratio (x) = 0.23469 -0.32003
# Poissons Ratio (y) = 0.07677 0.57347
# Poissons Ratio (z) = -0.11550 0.63274
#
# Static dielectric constant tensor:
#      x y z
#    x 1.731780 0.000000 0.000000 
#    y 0.000000 1.695600 0.000000 
#    z 0.000000 0.000000 1.650820 
# 
# From -- ./inp_files/36953.got.cif
#   From: 2010.05.17/outbox.cif.g08.bks.cpg/sg64_19_cif.got.tgz:36953.got - 2010.06.03 16:29:19.
