data_PCOD9478870
_publ_section_title
;
Structure prediction by ZEFSAII (Michael W. Deem and Ramdas Pophale) SiO2 
 PCOD9478870
Probable space group: C M C A
;
_chemical_formula_sum "Si O2"
_cell_formula_units_Z 104
_cell_length_a 9.357700
_cell_length_b 26.983360
_cell_length_c 22.110976
_cell_angle_alpha 90.000000
_cell_angle_beta 90.000000
_cell_angle_gamma 90.000000
_cell_volume 5583.069816
_symmetry_space_group_name_H-M "C M C A"
_symmetry_group_IT_number 64
_symmetry_cell_setting 'orthorhombic'
loop_
_space_group_symop_operation_xyz
x,y,z
-x,1/2-y,1/2+z
x,-y,-z
-x,1/2+y,1/2-z
-x,-y,-z
x,1/2+y,1/2-z
-x,y,z
x,1/2-y,1/2+z
1/2+x,1/2+y,z
1/2-x,-y,1/2+z
1/2+x,1/2-y,-z
1/2-x,y,1/2-z
1/2-x,1/2-y,-z
1/2+x,y,1/2-z
1/2-x,1/2+y,z
1/2+x,-y,1/2+z
loop_
_atom_site_type_symbol
_atom_site_label
_atom_site_fract_x
_atom_site_fract_y
_atom_site_fract_z
Si Si1 0.673376 0.227582 0.940670
Si Si2 0.831699 0.818416 0.866158
Si Si3 0.337019 0.533566 0.340095
Si Si4 0.832915 0.064227 0.805718
Si Si5 0.166605 0.874919 0.071104
Si Si6 0.171079 0.087788 0.057220
Si Si7 0.250000 0.381206 0.750000
O O1 0.500000 0.227442 0.947202
O O2 0.719838 0.263989 0.885083
O O3 0.732478 0.172611 0.930801
O O4 0.750000 0.250000 0.000000
O O5 0.785319 0.858206 0.916695
O O6 0.808346 0.843750 0.801181
O O7 0.000000 0.815062 0.872955
O O8 0.500000 0.518256 0.349390
O O9 0.242548 0.488490 0.316041
O O10 0.261987 0.550794 0.402124
O O11 0.335540 0.579535 0.292314
O O12 0.750000 0.088835 0.750000
O O13 0.820368 0.095890 0.866520
O O14 0.000000 0.057229 0.791680
O O15 0.000000 0.859023 0.063427
O O16 0.196770 0.910789 0.014084
O O17 0.000000 0.080310 0.068094
#
# Coordination Sequence:
#
# PCOD9478870 Si02
#       7
#    16  16  16  16  16  16   8
#     4  11  21  37  62  89 118 155 197 246 299 356
#     4   9  18  34  56  83 117 153 191 236 291 351
#     4  11  22  36  60  91 122 152 196 244 298 359
#     4  11  24  42  64  85 117 160 206 249 299 358
#     4  10  22  42  63  86 116 159 205 247 295 359
#     4   9  18  36  60  85 119 154 193 238 294 355
#     4  10  20  36  58  84 120 154 196 234 296 348
#
# _framework density 18.627744
#
# number of rings (size 3 to 8) (size 9 to 14) (size 15 to 20)
#    0.000    1.846    2.308    1.846    0.000    3.692 
#    1.385    5.385    0.000    0.000    0.000    0.000 
#    0.000    0.000    0.000    0.000    0.000    0.000 
#
# Total GULP energy -289748.184008 kJ/mol
# GULP energy per Si atom -5572.080462 kJ/mol
# Density = 1.858535 g / cm^3
# Si number density = 18.627744 Si / 1000 Ang^3
#
#
#
# Elastic Constant Matrix: (Units=GPa)
#
#
# Indices 1 2 3 4 5 6 
#
# 1 104.2163 45.7931 53.0587 0.0000 0.0000 0.0000
# 2 45.7931 56.2696 29.2053 0.0000 0.0000 0.0000
# 3 53.0587 29.2053 115.2754 0.0000 0.0000 0.0000
# 4 0.0000 0.0000 0.0000 -19.5948 0.0000 0.0000
# 5 0.0000 0.0000 0.0000 0.0000 18.4514 0.0000
# 6 0.0000 0.0000 0.0000 0.0000 0.0000 25.3049
#
#
#
# Elastic Compliance Matrix: (Units=1/GPa)
#
#
# Indices 1 2 3 4 5 6 
#
# 1 0.017129 -0.011339 -0.005011 0.000000 0.000000 0.000000
# 2 -0.011339 0.027968 -0.001867 0.000000 0.000000 0.000000
# 3 -0.005011 -0.001867 0.011454 0.000000 0.000000 0.000000
# 4 0.000000 0.000000 0.000000 -0.051034 0.000000 0.000000
# 5 0.000000 0.000000 0.000000 0.000000 0.054196 0.000000
# 6 0.000000 0.000000 0.000000 0.000000 0.000000 0.039518
#
#
# Mechanical properties :
#
#
# Convention : Reuss Voigt Hill
#
# Bulk Modulus (GPa) = 49.70757 59.09729 54.40243
# Shear Modulus (GPa) = 35.11908 14.67926 24.89917
#
# Velocity S-wave (km/s) = 4.34673 2.81024 3.66002
# Velocity P-wave (km/s) = 7.20657 6.50570 6.86509
#
# Compressibility (1/GPa) = 0.02011766
#
# Stress axis : x y z
#
# Youngs Moduli (GPa) = 58.37967 35.75472 87.30206
#
# Poissons Ratio (x) = 0.40542 0.43751
# Poissons Ratio (y) = 0.66197 0.16297
# Poissons Ratio (z) = 0.29257 0.06675
#
# Static dielectric constant tensor:
#      x y z
#    x 1.637000 0.000000 0.000000 
#    y 0.000000 1.656960 0.000000 
#    z 0.000000 0.000000 4.138400 
# 
# From -- ./inp_files/37203.got.cif
#   From: 2010.05.17/outbox.cif.g08.bks.cpg/sg64_19_cif.got.tgz:37203.got - 2010.06.03 16:29:19.
