data_PCOD9478154
_publ_section_title
;
Structure prediction by ZEFSAII (Michael W. Deem and Ramdas Pophale) SiO2 
 PCOD9478154
Probable space group: C M C A
;
_chemical_formula_sum "Si O2"
_cell_formula_units_Z 96
_cell_length_a 23.948212
_cell_length_b 15.729501
_cell_length_c 12.053359
_cell_angle_alpha 90.000000
_cell_angle_beta 90.000000
_cell_angle_gamma 90.000000
_cell_volume 4540.421080
_symmetry_space_group_name_H-M "C M C A"
_symmetry_group_IT_number 64
_symmetry_cell_setting 'orthorhombic'
loop_
_space_group_symop_operation_xyz
x,y,z
-x,1/2-y,1/2+z
x,-y,-z
-x,1/2+y,1/2-z
-x,-y,-z
x,1/2+y,1/2-z
-x,y,z
x,1/2-y,1/2+z
1/2+x,1/2+y,z
1/2-x,-y,1/2+z
1/2+x,1/2-y,-z
1/2-x,y,1/2-z
1/2-x,1/2-y,-z
1/2+x,y,1/2-z
1/2-x,1/2+y,z
1/2+x,-y,1/2+z
loop_
_atom_site_type_symbol
_atom_site_label
_atom_site_fract_x
_atom_site_fract_y
_atom_site_fract_z
Si Si1 0.000000 0.398524 0.012208
Si Si2 0.376879 0.352164 0.474102
Si Si3 0.210624 0.500000 0.000000
Si Si4 0.380201 0.433027 0.235778
Si Si5 0.000000 0.396247 0.501104
Si Si6 0.793282 0.563146 0.328146
Si Si7 0.000000 0.922875 0.241382
Si Si8 0.123390 0.344569 0.504617
O O1 0.061385 0.369764 0.974128
O O2 0.000000 0.373852 0.142971
O O3 0.000000 0.500000 0.000000
O O4 0.329727 0.418658 0.511648
O O5 0.378155 0.370486 0.340907
O O6 0.364769 0.255043 0.499856
O O7 0.253500 0.499806 0.102497
O O8 0.335645 0.506840 0.242939
O O9 0.442343 0.473016 0.238265
O O10 0.373038 0.387233 0.117229
O O11 0.000000 0.500000 0.500000
O O12 0.059364 0.362868 0.545502
O O13 0.000000 0.368264 0.370725
O O14 0.750000 0.613589 0.250000
O O15 0.831494 0.614309 0.413445
#
# Coordination Sequence:
#
# PCOD9478154 Si02
#       8
#     8  16   8  16   8  16   8  16
#     4  10  19  39  65  92 129 172 209 253 322 397
#     4  11  24  41  66  98 133 171 219 273 327 390
#     4  12  24  43  62  87 126 184 218 250 324 392
#     4  10  20  42  64  90 133 172 209 275 330 388
#     4  10  19  39  69  99 131 163 212 270 337 390
#     4  12  24  42  65  91 127 171 226 263 321 397
#     4   8  18  32  62  92 117 163 211 252 321 378
#     4  11  23  41  68 100 130 167 220 278 329 381
#
# _framework density 21.143412999999999
#
# number of rings (size 3 to 8) (size 9 to 14) (size 15 to 20)
#    0.000    1.333    4.167    2.500    0.000    2.000 
#    3.000    1.667    0.000    0.000    0.000    0.000 
#    0.000    0.000    0.000    0.000    0.000    0.000 
#
# Total GULP energy -267620.264384 kJ/mol
# GULP energy per Si atom -5575.422175 kJ/mol
# Density = 2.109529 g / cm^3
# Si number density = 21.143413 Si / 1000 Ang^3
#
#
#
# Elastic Constant Matrix: (Units=GPa)
#
#
# Indices 1 2 3 4 5 6 
#
# 1 176.6816 45.7044 29.9465 0.0000 0.0000 0.0000
# 2 45.7044 101.4132 2.0209 0.0000 0.0000 0.0000
# 3 29.9465 2.0209 58.2352 0.0000 0.0000 0.0000
# 4 0.0000 0.0000 0.0000 18.1589 0.0000 0.0000
# 5 0.0000 0.0000 0.0000 0.0000 27.9858 0.0000
# 6 0.0000 0.0000 0.0000 0.0000 0.0000 0.5409
#
#
#
# Elastic Compliance Matrix: (Units=1/GPa)
#
#
# Indices 1 2 3 4 5 6 
#
# 1 0.007062 -0.003113 -0.003524 0.000000 0.000000 0.000000
# 2 -0.003113 0.011239 0.001211 0.000000 0.000000 0.000000
# 3 -0.003524 0.001211 0.018942 0.000000 0.000000 0.000000
# 4 0.000000 0.000000 0.000000 0.055069 0.000000 0.000000
# 5 0.000000 0.000000 0.000000 0.000000 0.035732 0.000000
# 6 0.000000 0.000000 0.000000 0.000000 0.000000 1.848923
#
#
# Mechanical properties :
#
#
# Convention : Reuss Voigt Hill
#
# Bulk Modulus (GPa) = 37.89032 54.63039 46.26036
# Shear Modulus (GPa) = 2.50424 26.58100 14.54262
#
# Velocity S-wave (km/s) = 1.08948 3.54952 2.62546
# Velocity P-wave (km/s) = 4.42065 6.53398 5.57831
#
# Compressibility (1/GPa) = 0.02639196
#
# Stress axis : x y z
#
# Youngs Moduli (GPa) = 141.59670 88.97359 52.79350
#
# Poissons Ratio (x) = 0.27694 0.18603
# Poissons Ratio (y) = 0.44073 -0.06391
# Poissons Ratio (z) = 0.49894 -0.10771
#
# Static dielectric constant tensor:
#      x y z
#    x 1.800200 0.000000 0.000000 
#    y 0.000000 1.705460 0.000000 
#    z 0.000000 0.000000 1.862950 
# 
# From -- ./inp_files/26393.got.cif
#   From: 2010.05.17/outbox.cif.g08.bks.cpg/sg64_14_cif.got.tgz:26393.got - 2010.06.03 16:29:19.
