data_PCOD9478424
_publ_section_title
;
Structure prediction by ZEFSAII (Michael W. Deem and Ramdas Pophale) SiO2 
 PCOD9478424
Probable space group: C M C A
;
_chemical_formula_sum "Si O2"
_cell_formula_units_Z 112
_cell_length_a 15.237314
_cell_length_b 29.514850
_cell_length_c 12.521111
_cell_angle_alpha 90.000000
_cell_angle_beta 90.000000
_cell_angle_gamma 90.000000
_cell_volume 5631.082151
_symmetry_space_group_name_H-M "C M C A"
_symmetry_group_IT_number 64
_symmetry_cell_setting 'orthorhombic'
loop_
_space_group_symop_operation_xyz
x,y,z
-x,1/2-y,1/2+z
x,-y,-z
-x,1/2+y,1/2-z
-x,-y,-z
x,1/2+y,1/2-z
-x,y,z
x,1/2-y,1/2+z
1/2+x,1/2+y,z
1/2-x,-y,1/2+z
1/2+x,1/2-y,-z
1/2-x,y,1/2-z
1/2-x,1/2-y,-z
1/2+x,y,1/2-z
1/2-x,1/2+y,z
1/2+x,-y,1/2+z
loop_
_atom_site_type_symbol
_atom_site_label
_atom_site_fract_x
_atom_site_fract_y
_atom_site_fract_z
Si Si1 0.288286 0.413448 0.536995
Si Si2 0.902928 0.552544 0.464465
Si Si3 0.605479 0.435517 0.328414
Si Si4 0.194616 0.239851 0.847754
Si Si5 0.899150 0.537885 0.215315
Si Si6 0.335000 0.187521 0.993590
Si Si7 0.597920 0.340353 0.272171
O O1 0.187481 0.423157 0.505927
O O2 0.348197 0.433344 0.442352
O O3 0.326727 0.437539 0.642812
O O4 0.302964 0.359630 0.543282
O O5 0.897028 0.500000 0.500000
O O6 0.902054 0.555334 0.335860
O O7 0.000000 0.568830 0.502679
O O8 0.500000 0.430694 0.340517
O O9 0.621633 0.484330 0.278206
O O10 0.637626 0.390807 0.265654
O O11 0.250000 0.261908 0.750000
O O12 0.140091 0.277146 0.913508
O O13 0.143233 0.199369 0.791712
O O14 0.258439 0.213487 0.929125
O O15 0.000000 0.542542 0.171272
O O16 0.399869 0.173340 0.897858
O O17 0.500000 0.343415 0.231983
#
# Coordination Sequence:
#
# PCOD9478424 Si02
#       7
#    16  16  16  16  16  16  16
#     4  11  20  33  55  80 106 141 180 222 276 335
#     4  10  22  37  50  71 107 146 184 227 271 321
#     4   9  18  33  54  81 109 137 177 226 270 318
#     4   9  18  36  56  75 102 139 178 218 268 328
#     4  10  20  34  53  77 107 143 182 224 268 319
#     4   9  20  35  54  78 107 139 177 227 277 325
#     4   9  18  33  55  83 110 138 176 222 275 330
#
# _framework density 19.889605
#
# number of rings (size 3 to 8) (size 9 to 14) (size 15 to 20)
#    0.000    2.429    0.000    2.143    0.000    4.571 
#    0.000    6.429    0.000    6.857    0.000    0.000 
#    0.000    0.000    0.000    0.000    0.000    0.000 
#
# Total GULP energy -312118.326411 kJ/mol
# GULP energy per Si atom -5573.541543 kJ/mol
# Density = 1.984434 g / cm^3
# Si number density = 19.889605 Si / 1000 Ang^3
#
#
#
# Elastic Constant Matrix: (Units=GPa)
#
#
# Indices 1 2 3 4 5 6 
#
# 1 67.5286 27.3905 12.8419 0.0000 0.0000 0.0000
# 2 27.3905 83.0558 24.6491 0.0000 0.0000 0.0000
# 3 12.8419 24.6491 47.5464 0.0000 0.0000 0.0000
# 4 0.0000 0.0000 0.0000 27.0728 0.0000 0.0000
# 5 0.0000 0.0000 0.0000 0.0000 10.9416 0.0000
# 6 0.0000 0.0000 0.0000 0.0000 0.0000 22.0314
#
#
#
# Elastic Compliance Matrix: (Units=1/GPa)
#
#
# Indices 1 2 3 4 5 6 
#
# 1 0.017258 -0.005091 -0.002022 0.000000 0.000000 0.000000
# 2 -0.005091 0.015731 -0.006780 0.000000 0.000000 0.000000
# 3 -0.002022 -0.006780 0.025093 0.000000 0.000000 0.000000
# 4 0.000000 0.000000 0.000000 0.036937 0.000000 0.000000
# 5 0.000000 0.000000 0.000000 0.000000 0.091394 0.000000
# 6 0.000000 0.000000 0.000000 0.000000 0.000000 0.045390
#
#
# Mechanical properties :
#
#
# Convention : Reuss Voigt Hill
#
# Bulk Modulus (GPa) = 33.00802 36.43265 34.72033
# Shear Modulus (GPa) = 18.53981 20.89245 19.71613
#
# Velocity S-wave (km/s) = 3.05640 3.24454 3.15187
# Velocity P-wave (km/s) = 5.39325 5.69150 5.54438
#
# Compressibility (1/GPa) = 0.03029567
#
# Stress axis : x y z
#
# Youngs Moduli (GPa) = 57.94347 63.56703 39.85143
#
# Poissons Ratio (x) = 0.32365 0.08057
# Poissons Ratio (y) = 0.29502 0.27021
# Poissons Ratio (z) = 0.11715 0.43101
#
# Static dielectric constant tensor:
#      x y z
#    x 1.541050 0.000000 0.000000 
#    y 0.000000 1.705150 0.000000 
#    z 0.000000 0.000000 1.733600 
# 
# From -- ./inp_files/15018.got.cif
#   From: 2010.05.17/outbox.cif.g08.bks.cpg/sg64_8_cif.got.tgz:15018.got - 2010.06.03 16:29:19.
