data_PCOD9478782
_publ_section_title
;
Structure prediction by ZEFSAII (Michael W. Deem and Ramdas Pophale) SiO2 
 PCOD9478782
Probable space group: C M C A
;
_chemical_formula_sum "Si O2"
_cell_formula_units_Z 64
_cell_length_a 12.536644
_cell_length_b 19.237686
_cell_length_c 13.255345
_cell_angle_alpha 90.000000
_cell_angle_beta 90.000000
_cell_angle_gamma 90.000000
_cell_volume 3196.871361
_symmetry_space_group_name_H-M "C M C A"
_symmetry_group_IT_number 64
_symmetry_cell_setting 'orthorhombic'
loop_
_space_group_symop_operation_xyz
x,y,z
-x,1/2-y,1/2+z
x,-y,-z
-x,1/2+y,1/2-z
-x,-y,-z
x,1/2+y,1/2-z
-x,y,z
x,1/2-y,1/2+z
1/2+x,1/2+y,z
1/2-x,-y,1/2+z
1/2+x,1/2-y,-z
1/2-x,y,1/2-z
1/2-x,1/2-y,-z
1/2+x,y,1/2-z
1/2-x,1/2+y,z
1/2+x,-y,1/2+z
loop_
_atom_site_type_symbol
_atom_site_label
_atom_site_fract_x
_atom_site_fract_y
_atom_site_fract_z
Si Si1 0.619140 0.585125 0.447865
Si Si2 0.267429 0.709866 0.366417
Si Si3 0.625701 0.159924 0.544337
Si Si4 0.238144 0.954238 0.369557
O O1 0.500000 0.561200 0.425897
O O2 0.637635 0.661507 0.407088
O O3 0.706131 0.533832 0.396075
O O4 0.643131 0.583772 0.567647
O O5 0.250000 0.697562 0.250000
O O6 0.303971 0.788567 0.385788
O O7 0.167444 0.683944 0.433894
O O8 0.500000 0.169259 0.554663
O O9 0.660217 0.081978 0.576741
O O10 0.250000 0.945922 0.250000
#
# Coordination Sequence:
#
# PCOD9478782 Si02
#       4
#    16  16  16  16
#     4  10  21  38  60  85 112 148 192 232 277 333
#     4  10  21  40  60  83 114 145 187 237 279 330
#     4  10  22  37  56  84 114 147 187 231 281 336
#     4  10  20  36  55  82 116 147 185 231 276 331
#
# _framework density 20.019573000000001
#
# number of rings (size 3 to 8) (size 9 to 14) (size 15 to 20)
#    0.000    2.000    0.000    3.750    0.000    4.000 
#    0.000   11.250    0.000    0.000    0.000    0.000 
#    0.000    0.000    0.000    0.000    0.000    0.000 
#
# Total GULP energy -178176.467898 kJ/mol
# GULP energy per Si atom -5568.014622 kJ/mol
# Density = 1.997401 g / cm^3
# Si number density = 20.019573 Si / 1000 Ang^3
#
#
#
# Elastic Constant Matrix: (Units=GPa)
#
#
# Indices 1 2 3 4 5 6 
#
# 1 88.7434 25.8645 24.5777 0.0000 0.0000 0.0000
# 2 25.8645 75.2963 11.2021 0.0000 0.0000 0.0000
# 3 24.5777 11.2021 142.1535 0.0000 0.0000 0.0000
# 4 0.0000 0.0000 0.0000 12.2279 0.0000 0.0000
# 5 0.0000 0.0000 0.0000 0.0000 3.9340 0.0000
# 6 0.0000 0.0000 0.0000 0.0000 0.0000 19.7379
#
#
#
# Elastic Compliance Matrix: (Units=1/GPa)
#
#
# Indices 1 2 3 4 5 6 
#
# 1 0.013021 -0.004187 -0.001921 0.000000 0.000000 0.000000
# 2 -0.004187 0.014785 -0.000441 0.000000 0.000000 0.000000
# 3 -0.001921 -0.000441 0.007402 0.000000 0.000000 0.000000
# 4 0.000000 0.000000 0.000000 0.081780 0.000000 0.000000
# 5 0.000000 0.000000 0.000000 0.000000 0.254195 0.000000
# 6 0.000000 0.000000 0.000000 0.000000 0.000000 0.050664
#
#
# Mechanical properties :
#
#
# Convention : Reuss Voigt Hill
#
# Bulk Modulus (GPa) = 45.23161 47.72020 46.47590
# Shear Modulus (GPa) = 11.30416 23.48319 17.39368
#
# Velocity S-wave (km/s) = 2.37883 3.42864 2.95080
# Velocity P-wave (km/s) = 5.49434 6.28988 5.90553
#
# Compressibility (1/GPa) = 0.02210843
#
# Stress axis : x y z
#
# Youngs Moduli (GPa) = 76.80001 67.63747 135.10584
#
# Poissons Ratio (x) = 0.28319 0.25958
# Poissons Ratio (y) = 0.32155 0.05961
# Poissons Ratio (z) = 0.14756 0.02984
#
# Static dielectric constant tensor:
#      x y z
#    x 1.677970 0.000000 0.000000 
#    y 0.000000 1.749260 0.000000 
#    z 0.000000 0.000000 1.700120 
# 
# From -- ./inp_files/12801.got.cif
#   From: 2010.05.17/outbox.cif.g08.bks.cpg/sg64_7_cif.got.tgz:12801.got - 2010.06.03 16:29:19.
