data_PCOD9478792
_publ_section_title
;
Structure prediction by ZEFSAII (Michael W. Deem and Ramdas Pophale) SiO2 
 PCOD9478792
Probable space group: C M C A
;
_chemical_formula_sum "Si O2"
_cell_formula_units_Z 96
_cell_length_a 7.897831
_cell_length_b 21.196229
_cell_length_c 27.656330
_cell_angle_alpha 90.000000
_cell_angle_beta 90.000000
_cell_angle_gamma 90.000000
_cell_volume 4629.786752
_symmetry_space_group_name_H-M "C M C A"
_symmetry_group_IT_number 64
_symmetry_cell_setting 'orthorhombic'
loop_
_space_group_symop_operation_xyz
x,y,z
-x,1/2-y,1/2+z
x,-y,-z
-x,1/2+y,1/2-z
-x,-y,-z
x,1/2+y,1/2-z
-x,y,z
x,1/2-y,1/2+z
1/2+x,1/2+y,z
1/2-x,-y,1/2+z
1/2+x,1/2-y,-z
1/2-x,y,1/2-z
1/2-x,1/2-y,-z
1/2+x,y,1/2-z
1/2-x,1/2+y,z
1/2+x,-y,1/2+z
loop_
_atom_site_type_symbol
_atom_site_label
_atom_site_fract_x
_atom_site_fract_y
_atom_site_fract_z
Si Si1 0.297800 0.066926 0.694018
Si Si2 0.202729 0.183935 0.524508
Si Si3 0.201775 0.310360 0.134146
Si Si4 0.204329 0.810069 0.806168
Si Si5 0.202019 0.558094 0.468015
Si Si6 0.207658 0.061296 0.142619
O O1 0.500000 0.067715 0.690252
O O2 0.250000 0.071126 0.750000
O O3 0.231523 0.126504 0.664329
O O4 0.236624 0.001330 0.670758
O O5 0.250000 0.250000 0.500000
O O6 0.269031 0.183379 0.579654
O O7 0.268222 0.124266 0.494507
O O8 0.000000 0.178886 0.525531
O O9 0.269066 0.249922 0.163441
O O10 0.000000 0.300993 0.129653
O O11 0.250000 0.805716 0.750000
O O12 0.263782 0.875381 0.830132
O O13 0.000000 0.809822 0.808943
O O14 0.270837 0.500000 0.500000
O O15 0.266196 0.559530 0.412979
O O16 0.000000 0.548709 0.464187
O O17 0.000000 0.061960 0.142621
#
# Coordination Sequence:
#
# PCOD9478792 Si02
#       6
#    16  16  16  16  16  16
#     4  11  22  37  59  85 114 149 189 233 281 336
#     4  11  23  39  60  86 117 152 192 240 294 350
#     4  10  22  39  58  81 112 149 186 231 284 338
#     4  10  20  36  56  77 105 141 181 224 272 325
#     4  10  20  37  61  86 114 151 194 237 285 344
#     4   9  19  36  57  81 111 148 185 224 276 335
#
# _framework density 20.735295000000001
#
# number of rings (size 3 to 8) (size 9 to 14) (size 15 to 20)
#    0.000    1.833    0.000    4.000    0.000    7.667 
#    0.000    5.000    0.000    0.000    0.000    0.000 
#    0.000    0.000    0.000    0.000    0.000    0.000 
#
# Total GULP energy -268335.010895 kJ/mol
# GULP energy per Si atom -5590.312727 kJ/mol
# Density = 2.068810 g / cm^3
# Si number density = 20.735295 Si / 1000 Ang^3
#
#
#
# Elastic Constant Matrix: (Units=GPa)
#
#
# Indices 1 2 3 4 5 6 
#
# 1 9.9967 -28.9885 -17.8566 0.0000 0.0000 0.0000
# 2 -28.9885 142.1847 69.7687 0.0000 0.0000 0.0000
# 3 -17.8566 69.7687 186.1015 0.0000 0.0000 0.0000
# 4 0.0000 0.0000 0.0000 48.0042 0.0000 0.0000
# 5 0.0000 0.0000 0.0000 0.0000 24.2625 0.0000
# 6 0.0000 0.0000 0.0000 0.0000 0.0000 -4.9256
#
#
#
# Elastic Compliance Matrix: (Units=1/GPa)
#
#
# Indices 1 2 3 4 5 6 
#
# 1 0.250019 0.048039 0.005980 0.000000 0.000000 0.000000
# 2 0.048039 0.017849 -0.002082 0.000000 0.000000 0.000000
# 3 0.005980 -0.002082 0.006728 0.000000 0.000000 0.000000
# 4 0.000000 0.000000 0.000000 0.020832 0.000000 0.000000
# 5 0.000000 0.000000 0.000000 0.000000 0.041216 0.000000
# 6 0.000000 0.000000 0.000000 0.000000 0.000000 -0.203021
#
#
# Mechanical properties :
#
#
# Convention : Reuss Voigt Hill
#
# Bulk Modulus (GPa) = 2.64222 42.68114 22.66168
# Shear Modulus (GPa) = 32.07085 34.49217 33.28151
#
# Velocity S-wave (km/s) = 3.93705 4.08297 4.01067
# Velocity P-wave (km/s) = 4.68446 6.54645 5.69211
#
# Compressibility (1/GPa) = 0.37846970
#
# Stress axis : x y z
#
# Youngs Moduli (GPa) = 3.99970 56.02562 148.63828
#
# Poissons Ratio (x) = -2.69143 -0.88882
# Poissons Ratio (y) = -0.19214 0.30948
# Poissons Ratio (z) = -0.02392 0.11665
#
# Static dielectric constant tensor:
#      x y z
#    x 1.768820 0.000000 0.000000 
#    y 0.000000 1.703250 0.000000 
#    z 0.000000 0.000000 1.708630 
# 
# From -- ./inp_files/48033.got.cif
#   From: 2010.05.17/outbox.cif.g08.bks.cpg/sg64_25_cif.got.tgz:48033.got - 2010.06.03 16:29:19.
