data_PCOD9478992
_publ_section_title
;
Structure prediction by ZEFSAII (Michael W. Deem and Ramdas Pophale) SiO2 
 PCOD9478992
Probable space group: C M C A
;
_chemical_formula_sum "Si O2"
_cell_formula_units_Z 40
_cell_length_a 11.811812
_cell_length_b 17.902149
_cell_length_c 7.561942
_cell_angle_alpha 90.000000
_cell_angle_beta 90.000000
_cell_angle_gamma 90.000000
_cell_volume 1599.024196
_symmetry_space_group_name_H-M "C M C A"
_symmetry_group_IT_number 64
_symmetry_cell_setting 'orthorhombic'
loop_
_space_group_symop_operation_xyz
x,y,z
-x,1/2-y,1/2+z
x,-y,-z
-x,1/2+y,1/2-z
-x,-y,-z
x,1/2+y,1/2-z
-x,y,z
x,1/2-y,1/2+z
1/2+x,1/2+y,z
1/2-x,-y,1/2+z
1/2+x,1/2-y,-z
1/2-x,y,1/2-z
1/2-x,1/2-y,-z
1/2+x,y,1/2-z
1/2-x,1/2+y,z
1/2+x,-y,1/2+z
loop_
_atom_site_type_symbol
_atom_site_label
_atom_site_fract_x
_atom_site_fract_y
_atom_site_fract_z
Si Si1 0.125089 0.161065 0.915737
Si Si2 0.624512 0.996399 0.210784
Si Si3 0.750000 0.791503 0.750000
O O1 0.129714 0.086221 0.798388
O O2 0.149796 0.233820 0.798020
O O3 0.000000 0.166606 0.991017
O O4 0.215061 0.164822 0.074166
O O5 0.500000 0.027321 0.273357
O O6 0.750000 0.027628 0.250000
O O7 0.617985 0.000000 0.000000
#
# Coordination Sequence:
#
# PCOD9478992 Si02
#       3
#    16  16   8
#     4  10  20  38  64  99 137 177 225 280 344 416
#     4  10  22  44  70  96 133 180 234 290 346 408
#     4  10  20  36  64 100 138 174 216 282 350 418
#
# _framework density 25.015255
#
# number of rings (size 3 to 8) (size 9 to 14) (size 15 to 20)
#    0.000    2.000    2.000    1.200    0.000    0.800 
#    3.600    2.000    0.000    0.000    0.000    0.000 
#    0.000    0.000    0.000    0.000    0.000    0.000 
#
# Total GULP energy -111682.390051 kJ/mol
# GULP energy per Si atom -5584.119503 kJ/mol
# Density = 2.495832 g / cm^3
# Si number density = 25.015255 Si / 1000 Ang^3
#
#
#
# Elastic Constant Matrix: (Units=GPa)
#
#
# Indices 1 2 3 4 5 6 
#
# 1 193.9855 28.0479 21.4391 0.0000 0.0000 0.0000
# 2 28.0479 124.4034 71.6731 0.0000 0.0000 0.0000
# 3 21.4391 71.6731 150.6951 0.0000 0.0000 0.0000
# 4 0.0000 0.0000 0.0000 51.3807 0.0000 0.0000
# 5 0.0000 0.0000 0.0000 0.0000 31.7289 0.0000
# 6 0.0000 0.0000 0.0000 0.0000 0.0000 86.4427
#
#
#
# Elastic Compliance Matrix: (Units=1/GPa)
#
#
# Indices 1 2 3 4 5 6 
#
# 1 0.005336 -0.001055 -0.000258 0.000000 0.000000 0.000000
# 2 -0.001055 0.011281 -0.005215 0.000000 0.000000 0.000000
# 3 -0.000258 -0.005215 0.009153 0.000000 0.000000 0.000000
# 4 0.000000 0.000000 0.000000 0.019463 0.000000 0.000000
# 5 0.000000 0.000000 0.000000 0.000000 0.031517 0.000000
# 6 0.000000 0.000000 0.000000 0.000000 0.000000 0.011568
#
#
# Mechanical properties :
#
#
# Convention : Reuss Voigt Hill
#
# Bulk Modulus (GPa) = 78.64812 79.04490 78.84651
# Shear Modulus (GPa) = 47.34347 57.10538 52.22443
#
# Velocity S-wave (km/s) = 4.35510 4.78307 4.57410
# Velocity P-wave (km/s) = 7.53642 7.88486 7.71260
#
# Compressibility (1/GPa) = 0.01271486
#
# Stress axis : x y z
#
# Youngs Moduli (GPa) = 187.40700 88.64548 109.25318
#
# Poissons Ratio (x) = 0.09349 0.02813
# Poissons Ratio (y) = 0.19766 0.56979
# Poissons Ratio (z) = 0.04826 0.46232
#
# Static dielectric constant tensor:
#      x y z
#    x 2.018410 0.000000 0.000000 
#    y 0.000000 1.981100 0.000000 
#    z 0.000000 0.000000 1.948660 
# 
# From -- ./inp_files/4280.got.cif
#   From: 2010.05.17/outbox.cif.g08.bks.cpg/sg64_3_cif.got.tgz:4280.got - 2010.06.03 16:29:19.
