data_PCOD9478942
_publ_section_title
;
Structure prediction by ZEFSAII (Michael W. Deem and Ramdas Pophale) SiO2 
 PCOD9478942
Probable space group: C M C A
;
_chemical_formula_sum "Si O2"
_cell_formula_units_Z 104
_cell_length_a 20.470680
_cell_length_b 9.421847
_cell_length_c 26.843644
_cell_angle_alpha 90.000000
_cell_angle_beta 90.000000
_cell_angle_gamma 90.000000
_cell_volume 5177.376969
_symmetry_space_group_name_H-M "C M C A"
_symmetry_group_IT_number 64
_symmetry_cell_setting 'orthorhombic'
loop_
_space_group_symop_operation_xyz
x,y,z
-x,1/2-y,1/2+z
x,-y,-z
-x,1/2+y,1/2-z
-x,-y,-z
x,1/2+y,1/2-z
-x,y,z
x,1/2-y,1/2+z
1/2+x,1/2+y,z
1/2-x,-y,1/2+z
1/2+x,1/2-y,-z
1/2-x,y,1/2-z
1/2-x,1/2-y,-z
1/2+x,y,1/2-z
1/2-x,1/2+y,z
1/2+x,-y,1/2+z
loop_
_atom_site_type_symbol
_atom_site_label
_atom_site_fract_x
_atom_site_fract_y
_atom_site_fract_z
Si Si1 0.637251 0.992411 0.786929
Si Si2 0.500000 0.532941 0.268823
Si Si3 0.308303 0.798099 0.712134
Si Si4 0.352820 0.053358 0.382533
Si Si5 0.000000 0.774696 0.635065
Si Si6 0.500000 0.560583 0.150431
Si Si7 0.356552 0.287952 0.619648
Si Si8 0.752649 0.621374 0.037592
O O1 0.564028 0.052938 0.785548
O O2 0.682440 0.129746 0.787350
O O3 0.636761 0.893619 0.738296
O O4 0.652339 0.883883 0.831239
O O5 0.500000 0.662962 0.308608
O O6 0.500000 0.574805 0.210670
O O7 0.250000 0.831965 0.750000
O O8 0.308826 0.858782 0.656867
O O9 0.316216 0.083218 0.434996
O O10 0.428935 0.103199 0.374102
O O11 0.348469 0.882596 0.372125
O O12 0.000000 0.607501 0.641361
O O13 0.066938 0.813895 0.607627
O O14 0.306594 0.342680 0.578848
O O15 0.773884 0.500000 0.000000
O O16 0.750000 0.750000 0.000000
#
# Coordination Sequence:
#
# PCOD9478942 Si02
#       8
#    16   8  16  16   8   8  16  16
#     4  11  24  37  62  92 132 174 215 257 317 385
#     4  10  20  36  60  91 131 178 210 257 311 379
#     4  12  25  39  58  90 133 175 217 262 315 382
#     4  11  24  44  69  97 128 172 217 278 330 394
#     4   8  20  38  68  94 132 172 215 263 320 389
#     4  10  20  40  68  92 131 171 222 264 325 385
#     4  10  22  45  68  98 130 168 218 270 330 395
#     4  12  26  46  72  95 128 169 220 276 345 395
#
# _framework density 20.087392000000001
#
# number of rings (size 3 to 8) (size 9 to 14) (size 15 to 20)
#    0.000    1.231    3.077    2.308    6.462    3.077 
#    0.000    2.308    0.000    0.000    0.000    0.000 
#    0.000    0.000    0.000    0.000    0.000    0.000 
#
# Total GULP energy -289768.197095 kJ/mol
# GULP energy per Si atom -5572.465329 kJ/mol
# Density = 2.004167 g / cm^3
# Si number density = 20.087392 Si / 1000 Ang^3
#
#
#
# Elastic Constant Matrix: (Units=GPa)
#
#
# Indices 1 2 3 4 5 6 
#
# 1 130.7882 14.9070 42.1432 0.0000 0.0000 0.0000
# 2 14.9070 101.5769 27.5925 0.0000 0.0000 0.0000
# 3 42.1432 27.5925 93.5988 0.0000 0.0000 0.0000
# 4 0.0000 0.0000 0.0000 35.2311 0.0000 0.0000
# 5 0.0000 0.0000 0.0000 0.0000 22.3620 0.0000
# 6 0.0000 0.0000 0.0000 0.0000 0.0000 -293.9957
#
#
#
# Elastic Compliance Matrix: (Units=1/GPa)
#
#
# Indices 1 2 3 4 5 6 
#
# 1 0.008949 -0.000238 -0.003959 0.000000 0.000000 0.000000
# 2 -0.000238 0.010708 -0.003050 0.000000 0.000000 0.000000
# 3 -0.003959 -0.003050 0.013366 0.000000 0.000000 0.000000
# 4 0.000000 0.000000 0.000000 0.028384 0.000000 0.000000
# 5 0.000000 0.000000 0.000000 0.000000 0.044719 0.000000
# 6 0.000000 0.000000 0.000000 0.000000 0.000000 -0.003401
#
#
# Mechanical properties :
#
#
# Convention : Reuss Voigt Hill
#
# Bulk Modulus (GPa) = 53.96870 55.02772 54.49821
# Shear Modulus (GPa) = 40.52090 -31.19244 4.66423
#
# Velocity S-wave (km/s) = 4.49623 -3.94488 1.52545
# Velocity P-wave (km/s) = 7.34030 2.58925 5.50383
#
# Compressibility (1/GPa) = 0.01852926
#
# Stress axis : x y z
#
# Youngs Moduli (GPa) = 111.74702 93.38762 74.81943
#
# Poissons Ratio (x) = 0.02221 0.29622
# Poissons Ratio (y) = 0.02658 0.22817
# Poissons Ratio (z) = 0.44242 0.28480
#
# Static dielectric constant tensor:
#      x y z
#    x 1.862090 0.000000 0.000000 
#    y 0.000000 1.664500 0.000000 
#    z 0.000000 0.000000 1.827450 
# 
# From -- ./inp_files/50812.got.cif
#   From: 2010.05.17/outbox.cif.g08.bks.cpg/sg64_26_cif.got.tgz:50812.got - 2010.06.03 16:29:19.
