data_PCOD9478244
_publ_section_title
;
Structure prediction by ZEFSAII (Michael W. Deem and Ramdas Pophale) SiO2 
 PCOD9478244
Probable space group: C M C A
;
_chemical_formula_sum "Si O2"
_cell_formula_units_Z 116
_cell_length_a 9.860490
_cell_length_b 24.715918
_cell_length_c 22.642909
_cell_angle_alpha 90.000000
_cell_angle_beta 90.000000
_cell_angle_gamma 90.000000
_cell_volume 5518.327405
_symmetry_space_group_name_H-M "C M C A"
_symmetry_group_IT_number 64
_symmetry_cell_setting 'orthorhombic'
loop_
_space_group_symop_operation_xyz
x,y,z
-x,1/2-y,1/2+z
x,-y,-z
-x,1/2+y,1/2-z
-x,-y,-z
x,1/2+y,1/2-z
-x,y,z
x,1/2-y,1/2+z
1/2+x,1/2+y,z
1/2-x,-y,1/2+z
1/2+x,1/2-y,-z
1/2-x,y,1/2-z
1/2-x,1/2-y,-z
1/2+x,y,1/2-z
1/2-x,1/2+y,z
1/2+x,-y,1/2+z
loop_
_atom_site_type_symbol
_atom_site_label
_atom_site_fract_x
_atom_site_fract_y
_atom_site_fract_z
Si Si1 0.843272 0.792913 0.597056
Si Si2 0.000000 0.500000 0.000000
Si Si3 0.144278 0.448415 0.612471
Si Si4 0.339589 0.085833 0.694874
Si Si5 0.843915 0.715878 0.696195
Si Si6 0.747546 0.054594 0.568174
Si Si7 0.649690 0.353234 0.983181
Si Si8 0.841590 0.891301 0.692271
O O1 0.799498 0.739829 0.633175
O O2 0.753509 0.809120 0.541197
O O3 0.835878 0.840172 0.647377
O O4 0.000000 0.788458 0.579396
O O5 0.882224 0.465093 0.035491
O O6 0.156438 0.500359 0.570712
O O7 0.143240 0.396457 0.570420
O O8 0.270854 0.440284 0.655983
O O9 0.000000 0.449857 0.644987
O O10 0.500000 0.069021 0.694073
O O11 0.250000 0.066522 0.750000
O O12 0.342305 0.151160 0.695905
O O13 0.256584 0.068562 0.637241
O O14 0.750000 0.734972 0.750000
O O15 0.000000 0.733975 0.705323
O O16 0.693884 0.108527 0.536705
O O17 0.500000 0.330782 0.994249
O O18 0.750000 0.881625 0.750000
O O19 0.000000 0.901098 0.705518
#
# Coordination Sequence:
#
# PCOD9478244 Si02
#       8
#    16   4  16  16  16  16  16  16
#     4   9  19  33  55  84 120 160 206 259 317 380
#     4  12  28  40  70 104 124 172 222 270 324 400
#     4  10  20  35  55  78 111 150 199 247 303 373
#     4  10  23  43  67  96 132 173 220 273 330 390
#     4   9  18  36  61  89 123 168 217 268 324 388
#     4  12  24  41  65  91 127 163 215 264 323 393
#     4  10  20  35  57  86 117 156 200 254 312 377
#     4  10  20  32  49  76 114 154 199 254 314 371
#
# _framework density 21.020862999999999
#
# number of rings (size 3 to 8) (size 9 to 14) (size 15 to 20)
#    0.000    1.931    1.379    2.069    2.897    2.759 
#    0.000    2.069    0.000    0.000    0.000    0.000 
#    0.000    0.000    0.000    0.000    0.000    0.000 
#
# Total GULP energy -322968.968008 kJ/mol
# GULP energy per Si atom -5568.430483 kJ/mol
# Density = 2.097302 g / cm^3
# Si number density = 21.020863 Si / 1000 Ang^3
#
#
#
# Elastic Constant Matrix: (Units=GPa)
#
#
# Indices 1 2 3 4 5 6 
#
# 1 115.3827 14.1061 64.6234 0.0000 0.0000 0.0000
# 2 14.1061 33.3674 21.3065 0.0000 0.0000 0.0000
# 3 64.6234 21.3065 86.0073 0.0000 0.0000 0.0000
# 4 0.0000 0.0000 0.0000 37.0282 0.0000 0.0000
# 5 0.0000 0.0000 0.0000 0.0000 -16.0875 0.0000
# 6 0.0000 0.0000 0.0000 0.0000 0.0000 -7.7574
#
#
#
# Elastic Compliance Matrix: (Units=1/GPa)
#
#
# Indices 1 2 3 4 5 6 
#
# 1 0.014993 0.001016 -0.011517 0.000000 0.000000 0.000000
# 2 0.001016 0.035670 -0.009600 0.000000 0.000000 0.000000
# 3 -0.011517 -0.009600 0.022659 0.000000 0.000000 0.000000
# 4 0.000000 0.000000 0.000000 0.027006 0.000000 0.000000
# 5 0.000000 0.000000 0.000000 0.000000 -0.062160 0.000000
# 6 0.000000 0.000000 0.000000 0.000000 0.000000 -0.128910
#
#
# Mechanical properties :
#
#
# Convention : Reuss Voigt Hill
#
# Bulk Modulus (GPa) = 30.19361 48.31438 39.25399
# Shear Modulus (GPa) = -126.58050 11.61809 -57.48121
#
# Velocity S-wave (km/s) = -7.76835 2.35349 -5.23490
# Velocity P-wave (km/s) = 8.12824 5.51536 4.22192
#
# Compressibility (1/GPa) = 0.03311960
#
# Stress axis : x y z
#
# Youngs Moduli (GPa) = 66.69764 28.03499 44.13349
#
# Poissons Ratio (x) = -0.02848 0.50828
# Poissons Ratio (y) = -0.06775 0.42367
# Poissons Ratio (z) = 0.76815 0.26913
#
# Static dielectric constant tensor:
#      x y z
#    x 1.834590 0.000000 0.000000 
#    y 0.000000 1.815100 0.000000 
#    z 0.000000 0.000000 1.796590 
# 
# From -- ./inp_files/43387.got.cif
#   From: 2010.05.17/outbox.cif.g08.bks.cpg/sg64_22_cif.got.tgz:43387.got - 2010.06.03 16:29:19.
