data_PCOD9478993
_publ_section_title
;
Structure prediction by ZEFSAII (Michael W. Deem and Ramdas Pophale) SiO2 
 PCOD9478993
Probable space group: C M C A
;
_chemical_formula_sum "Si O2"
_cell_formula_units_Z 104
_cell_length_a 28.399370
_cell_length_b 14.646708
_cell_length_c 9.465899
_cell_angle_alpha 90.000000
_cell_angle_beta 90.000000
_cell_angle_gamma 90.000000
_cell_volume 3937.409599
_symmetry_space_group_name_H-M "C M C A"
_symmetry_group_IT_number 64
_symmetry_cell_setting 'orthorhombic'
loop_
_space_group_symop_operation_xyz
x,y,z
-x,1/2-y,1/2+z
x,-y,-z
-x,1/2+y,1/2-z
-x,-y,-z
x,1/2+y,1/2-z
-x,y,z
x,1/2-y,1/2+z
1/2+x,1/2+y,z
1/2-x,-y,1/2+z
1/2+x,1/2-y,-z
1/2-x,y,1/2-z
1/2-x,1/2-y,-z
1/2+x,y,1/2-z
1/2-x,1/2+y,z
1/2+x,-y,1/2+z
loop_
_atom_site_type_symbol
_atom_site_label
_atom_site_fract_x
_atom_site_fract_y
_atom_site_fract_z
Si Si1 0.550925 0.717389 0.843832
Si Si2 0.197128 0.054478 0.795054
Si Si3 0.662050 0.904280 0.015642
Si Si4 0.632709 0.366166 0.964506
Si Si5 0.000000 0.422259 0.175586
Si Si6 0.078259 0.922321 0.704792
Si Si7 0.698389 0.166173 0.240889
O O1 0.500000 0.704377 0.922257
O O2 0.541204 0.655492 0.706436
O O3 0.556468 0.821587 0.800653
O O4 0.594093 0.683074 0.938179
O O5 0.250000 0.084203 0.750000
O O6 0.161332 0.098992 0.681289
O O7 0.198793 0.943506 0.780374
O O8 0.174421 0.091292 0.939654
O O9 0.616231 0.920664 0.920932
O O10 0.686353 0.826953 0.923814
O O11 0.691586 0.000000 0.000000
O O12 0.602836 0.433597 0.858963
O O13 0.657989 0.301843 0.846799
O O14 0.959648 0.498104 0.826383
O O15 0.750000 0.204732 0.250000
#
# Coordination Sequence:
#
# PCOD9478993 Si02
#       7
#    16  16  16  16   8  16  16
#     4  10  26  43  67 109 146 186 240 304 365 430
#     4  10  20  36  64 106 150 185 240 301 359 433
#     4   9  20  35  62  97 140 191 227 291 364 424
#     4  11  24  38  73 101 145 192 239 301 362 430
#     4  10  24  45  77 104 135 198 237 302 363 444
#     4  11  24  48  70 106 148 186 242 311 355 433
#     4   9  18  34  60 101 144 182 235 303 359 422
#
# _framework density 26.413302999999999
#
# number of rings (size 3 to 8) (size 9 to 14) (size 15 to 20)
#    0.462    1.538    0.769    1.385    9.692    4.308 
#    0.000    0.385    1.692   15.692    0.000    0.000 
#    0.000    0.000    0.000    0.000    0.000    0.000 
#
# Total GULP energy -289479.951079 kJ/mol
# GULP energy per Si atom -5566.922136 kJ/mol
# Density = 2.635318 g / cm^3
# Si number density = 26.413303 Si / 1000 Ang^3
#
#
#
# Elastic Constant Matrix: (Units=GPa)
#
#
# Indices 1 2 3 4 5 6 
#
# 1 123.4096 9.5759 11.6564 0.0000 0.0000 0.0000
# 2 9.5759 127.0759 1.5218 0.0000 0.0000 0.0000
# 3 11.6564 1.5218 135.5944 0.0000 0.0000 0.0000
# 4 0.0000 0.0000 0.0000 26.4064 0.0000 0.0000
# 5 0.0000 0.0000 0.0000 0.0000 30.2386 0.0000
# 6 0.0000 0.0000 0.0000 0.0000 0.0000 132.5196
#
#
#
# Elastic Compliance Matrix: (Units=1/GPa)
#
#
# Indices 1 2 3 4 5 6 
#
# 1 0.008217 -0.000611 -0.000699 0.000000 0.000000 0.000000
# 2 -0.000611 0.007916 -0.000036 0.000000 0.000000 0.000000
# 3 -0.000699 -0.000036 0.007435 0.000000 0.000000 0.000000
# 4 0.000000 0.000000 0.000000 0.037870 0.000000 0.000000
# 5 0.000000 0.000000 0.000000 0.000000 0.033070 0.000000
# 6 0.000000 0.000000 0.000000 0.000000 0.000000 0.007546
#
#
# Mechanical properties :
#
#
# Convention : Reuss Voigt Hill
#
# Bulk Modulus (GPa) = 47.90511 47.95423 47.92967
# Shear Modulus (GPa) = 44.76070 62.05464 53.40767
#
# Velocity S-wave (km/s) = 4.12105 4.85229 4.50154
# Velocity P-wave (km/s) = 6.38907 7.04185 6.72339
#
# Compressibility (1/GPa) = 0.02087460
#
# Stress axis : x y z
#
# Youngs Moduli (GPa) = 121.70541 126.33004 134.49037
#
# Poissons Ratio (x) = 0.07716 0.09407
# Poissons Ratio (y) = 0.07434 0.00489
# Poissons Ratio (z) = 0.08513 0.00459
#
# Static dielectric constant tensor:
#      x y z
#    x 2.142710 0.000000 0.000000 
#    y 0.000000 2.134870 0.000000 
#    z 0.000000 0.000000 2.072480 
# 
# From -- ./inp_files/10596.got.cif
#   From: 2010.05.17/outbox.cif.g08.bks.cpg/sg64_6_cif.got.tgz:10596.got - 2010.06.03 16:29:19.
