data_PCOD9478813
_publ_section_title
;
Structure prediction by ZEFSAII (Michael W. Deem and Ramdas Pophale) SiO2 
 PCOD9478813
Probable space group: C M C A
;
_chemical_formula_sum "Si O2"
_cell_formula_units_Z 96
_cell_length_a 23.142487
_cell_length_b 15.291816
_cell_length_c 14.179738
_cell_angle_alpha 90.000000
_cell_angle_beta 90.000000
_cell_angle_gamma 90.000000
_cell_volume 5018.076740
_symmetry_space_group_name_H-M "C M C A"
_symmetry_group_IT_number 64
_symmetry_cell_setting 'orthorhombic'
loop_
_space_group_symop_operation_xyz
x,y,z
-x,1/2-y,1/2+z
x,-y,-z
-x,1/2+y,1/2-z
-x,-y,-z
x,1/2+y,1/2-z
-x,y,z
x,1/2-y,1/2+z
1/2+x,1/2+y,z
1/2-x,-y,1/2+z
1/2+x,1/2-y,-z
1/2-x,y,1/2-z
1/2-x,1/2-y,-z
1/2+x,y,1/2-z
1/2-x,1/2+y,z
1/2+x,-y,1/2+z
loop_
_atom_site_type_symbol
_atom_site_label
_atom_site_fract_x
_atom_site_fract_y
_atom_site_fract_z
Si Si1 0.932183 0.606005 0.751217
Si Si2 0.213118 0.799409 0.656374
Si Si3 0.789314 0.427454 0.556927
Si Si4 0.122434 0.170339 0.936354
Si Si5 0.861277 0.432973 0.734766
Si Si6 0.069183 0.722157 0.370913
O O1 0.920495 0.634984 0.643201
O O2 0.896264 0.517527 0.766843
O O3 0.914803 0.687865 0.817428
O O4 0.000000 0.589652 0.765551
O O5 0.250000 0.774267 0.750000
O O6 0.256863 0.837391 0.579057
O O7 0.171220 0.725883 0.617388
O O8 0.172900 0.881348 0.685050
O O9 0.753906 0.500000 0.500000
O O10 0.843392 0.405782 0.490181
O O11 0.813169 0.459355 0.657323
O O12 0.090844 0.221597 0.021077
O O13 0.901512 0.359880 0.683359
O O14 0.000000 0.712882 0.367623
#
# Coordination Sequence:
#
# PCOD9478813 Si02
#       6
#    16  16  16  16  16  16
#     4  11  22  38  63  91 118 156 199 242 300 353
#     4  10  22  39  58  84 118 160 196 237 296 354
#     4  10  20  36  56  87 117 151 202 241 287 350
#     4  11  21  40  61  85 121 157 197 247 295 346
#     4  10  20  39  59  85 121 155 196 245 292 347
#     4  10  22  38  61  90 119 154 199 244 293 355
#
# _framework density 19.130835000000001
#
# number of rings (size 3 to 8) (size 9 to 14) (size 15 to 20)
#    0.000    1.667    3.333    1.500    0.000    1.333 
#    3.000    2.500    0.000    2.000    0.000    0.000 
#    0.000    0.000    0.000    0.000    0.000    0.000 
#
# Total GULP energy -267826.149927 kJ/mol
# GULP energy per Si atom -5579.711457 kJ/mol
# Density = 1.908729 g / cm^3
# Si number density = 19.130835 Si / 1000 Ang^3
#
#
#
# Elastic Constant Matrix: (Units=GPa)
#
#
# Indices 1 2 3 4 5 6 
#
# 1 54.6358 26.3587 11.9763 0.0000 0.0000 0.0000
# 2 26.3587 87.3732 31.5379 0.0000 0.0000 0.0000
# 3 11.9763 31.5379 64.1637 0.0000 0.0000 0.0000
# 4 0.0000 0.0000 0.0000 32.0204 0.0000 0.0000
# 5 0.0000 0.0000 0.0000 0.0000 24.6762 0.0000
# 6 0.0000 0.0000 0.0000 0.0000 0.0000 33.6116
#
#
#
# Elastic Compliance Matrix: (Units=1/GPa)
#
#
# Indices 1 2 3 4 5 6 
#
# 1 0.021473 -0.006117 -0.001002 0.000000 0.000000 0.000000
# 2 -0.006117 0.015656 -0.006554 0.000000 0.000000 0.000000
# 3 -0.001002 -0.006554 0.018993 0.000000 0.000000 0.000000
# 4 0.000000 0.000000 0.000000 0.031230 0.000000 0.000000
# 5 0.000000 0.000000 0.000000 0.000000 0.040525 0.000000
# 6 0.000000 0.000000 0.000000 0.000000 0.000000 0.029752
#
#
# Mechanical properties :
#
#
# Convention : Reuss Voigt Hill
#
# Bulk Modulus (GPa) = 34.74736 38.43540 36.59138
# Shear Modulus (GPa) = 25.69823 27.14831 26.42327
#
# Velocity S-wave (km/s) = 3.66907 3.77116 3.72046
# Velocity P-wave (km/s) = 6.01264 6.25273 6.13386
#
# Compressibility (1/GPa) = 0.02877917
#
# Stress axis : x y z
#
# Youngs Moduli (GPa) = 46.56909 63.87347 52.65009
#
# Poissons Ratio (x) = 0.39069 0.05274
# Poissons Ratio (y) = 0.28484 0.34505
# Poissons Ratio (z) = 0.04665 0.41860
#
# Static dielectric constant tensor:
#      x y z
#    x 1.669110 0.000000 0.000000 
#    y 0.000000 1.696450 0.000000 
#    z 0.000000 0.000000 1.661720 
# 
# From -- ./inp_files/26302.got.cif
#   From: 2010.05.17/outbox.cif.g08.bks.cpg/sg64_14_cif.got.tgz:26302.got - 2010.06.03 16:29:19.
