data_PCOD9478540
_publ_section_title
;
Structure prediction by ZEFSAII (Michael W. Deem and Ramdas Pophale) SiO2 
 PCOD9478540
Probable space group: C M C A
;
_chemical_formula_sum "Si O2"
_cell_formula_units_Z 104
_cell_length_a 13.878592
_cell_length_b 19.965221
_cell_length_c 17.914307
_cell_angle_alpha 90.000000
_cell_angle_beta 90.000000
_cell_angle_gamma 90.000000
_cell_volume 4963.860215
_symmetry_space_group_name_H-M "C M C A"
_symmetry_group_IT_number 64
_symmetry_cell_setting 'orthorhombic'
loop_
_space_group_symop_operation_xyz
x,y,z
-x,1/2-y,1/2+z
x,-y,-z
-x,1/2+y,1/2-z
-x,-y,-z
x,1/2+y,1/2-z
-x,y,z
x,1/2-y,1/2+z
1/2+x,1/2+y,z
1/2-x,-y,1/2+z
1/2+x,1/2-y,-z
1/2-x,y,1/2-z
1/2-x,1/2-y,-z
1/2+x,y,1/2-z
1/2-x,1/2+y,z
1/2+x,-y,1/2+z
loop_
_atom_site_type_symbol
_atom_site_label
_atom_site_fract_x
_atom_site_fract_y
_atom_site_fract_z
Si Si1 0.889067 0.405734 0.750838
Si Si2 0.778037 0.099994 0.873462
Si Si3 0.326851 0.500000 0.000000
Si Si4 0.179714 0.618181 0.410865
Si Si5 0.111025 0.706899 0.532358
Si Si6 0.613025 0.559292 0.726112
Si Si7 0.392548 0.642393 0.411281
O O1 0.831239 0.385108 0.677650
O O2 0.862113 0.480020 0.780075
O O3 0.887401 0.355845 0.820923
O O4 0.000000 0.411326 0.725791
O O5 0.775271 0.041400 0.934570
O O6 0.817285 0.165934 0.913886
O O7 0.675736 0.101446 0.832365
O O8 0.853487 0.080279 0.808627
O O9 0.378003 0.441284 0.952561
O O10 0.143578 0.686414 0.448971
O O11 0.292430 0.606835 0.431485
O O12 0.113980 0.784920 0.551475
O O13 0.000000 0.685127 0.543901
O O14 0.500000 0.567661 0.715280
O O15 0.500000 0.613766 0.428699
#
# Coordination Sequence:
#
# PCOD9478540 Si02
#       7
#    16  16   8  16  16  16  16
#     4  10  20  35  60  90 115 152 197 246 296 350
#     4  10  20  36  58  83 121 157 193 240 308 349
#     4  10  20  34  58  88 118 146 190 242 298 354
#     4  11  20  37  61  87 117 152 195 246 299 352
#     4  10  22  40  59  85 117 157 200 248 300 352
#     4  10  20  36  58  85 120 154 195 244 299 357
#     4  10  22  39  60  84 118 159 203 243 290 351
#
# _framework density 20.951436000000001
#
# number of rings (size 3 to 8) (size 9 to 14) (size 15 to 20)
#    0.000    1.846    1.538    2.769    2.154    0.000 
#    5.538    6.154    0.000    0.923    0.000    0.000 
#    0.000    0.000    0.000    0.000    0.000    0.000 
#
# Total GULP energy -289983.878341 kJ/mol
# GULP energy per Si atom -5576.613045 kJ/mol
# Density = 2.090375 g / cm^3
# Si number density = 20.951436 Si / 1000 Ang^3
#
#
#
# Elastic Constant Matrix: (Units=GPa)
#
#
# Indices 1 2 3 4 5 6 
#
# 1 129.8929 9.1627 13.4917 0.0000 0.0000 0.0000
# 2 9.1627 19.7805 -4.6852 0.0000 0.0000 0.0000
# 3 13.4917 -4.6852 61.4091 0.0000 0.0000 0.0000
# 4 0.0000 0.0000 0.0000 25.0176 0.0000 0.0000
# 5 0.0000 0.0000 0.0000 0.0000 24.2030 0.0000
# 6 0.0000 0.0000 0.0000 0.0000 0.0000 24.9269
#
#
#
# Elastic Compliance Matrix: (Units=1/GPa)
#
#
# Indices 1 2 3 4 5 6 
#
# 1 0.008225 -0.004316 -0.002136 0.000000 0.000000 0.000000
# 2 -0.004316 0.053750 0.005049 0.000000 0.000000 0.000000
# 3 -0.002136 0.005049 0.017139 0.000000 0.000000 0.000000
# 4 0.000000 0.000000 0.000000 0.039972 0.000000 0.000000
# 5 0.000000 0.000000 0.000000 0.000000 0.041317 0.000000
# 6 0.000000 0.000000 0.000000 0.000000 0.000000 0.040117
#
#
# Mechanical properties :
#
#
# Convention : Reuss Voigt Hill
#
# Bulk Modulus (GPa) = 13.10491 27.44678 20.27584
# Shear Modulus (GPa) = 21.85672 27.70370 24.78021
#
# Velocity S-wave (km/s) = 3.23338 3.64026 3.44284
# Velocity P-wave (km/s) = 4.49534 5.54953 5.05002
#
# Compressibility (1/GPa) = 0.07630730
#
# Stress axis : x y z
#
# Youngs Moduli (GPa) = 121.58050 18.60463 58.34709
#
# Poissons Ratio (x) = 0.08030 0.12465
# Poissons Ratio (y) = 0.52474 -0.29460
# Poissons Ratio (z) = 0.25974 -0.09394
#
# Static dielectric constant tensor:
#      x y z
#    x 1.822690 0.000000 0.000000 
#    y 0.000000 1.750140 0.000000 
#    z 0.000000 0.000000 1.737650 
# 
# From -- ./inp_files/32380.got.cif
#   From: 2010.05.17/outbox.cif.g08.bks.cpg/sg64_17_cif.got.tgz:32380.got - 2010.06.03 16:29:19.
