data_PCOD9478552
_publ_section_title
;
Structure prediction by ZEFSAII (Michael W. Deem and Ramdas Pophale) SiO2 
 PCOD9478552
Probable space group: C M C A
;
_chemical_formula_sum "Si O2"
_cell_formula_units_Z 88
_cell_length_a 20.493398
_cell_length_b 18.420356
_cell_length_c 9.951326
_cell_angle_alpha 90.000000
_cell_angle_beta 90.000000
_cell_angle_gamma 90.000000
_cell_volume 3756.582643
_symmetry_space_group_name_H-M "C M C A"
_symmetry_group_IT_number 64
_symmetry_cell_setting 'orthorhombic'
loop_
_space_group_symop_operation_xyz
x,y,z
-x,1/2-y,1/2+z
x,-y,-z
-x,1/2+y,1/2-z
-x,-y,-z
x,1/2+y,1/2-z
-x,y,z
x,1/2-y,1/2+z
1/2+x,1/2+y,z
1/2-x,-y,1/2+z
1/2+x,1/2-y,-z
1/2-x,y,1/2-z
1/2-x,1/2-y,-z
1/2+x,y,1/2-z
1/2-x,1/2+y,z
1/2+x,-y,1/2+z
loop_
_atom_site_type_symbol
_atom_site_label
_atom_site_fract_x
_atom_site_fract_y
_atom_site_fract_z
Si Si1 0.866763 0.714807 0.029082
Si Si2 0.000000 0.649581 0.608300
Si Si3 0.127836 0.111783 0.991890
Si Si4 0.577161 0.391304 0.716503
Si Si5 0.000000 0.223576 0.610350
Si Si6 0.366955 0.500000 0.500000
Si Si7 0.233552 0.888554 0.399174
O O1 0.861369 0.800772 0.018998
O O2 0.930988 0.692136 0.942007
O O3 0.801464 0.675817 0.980464
O O4 0.885764 0.683202 0.174723
O O5 0.934603 0.601744 0.605238
O O6 0.000000 0.706010 0.731491
O O7 0.000000 0.698445 0.469924
O O8 0.104926 0.087739 0.138789
O O9 0.198491 0.082574 0.957402
O O10 0.500000 0.380173 0.720952
O O11 0.593208 0.448797 0.600119
O O12 0.320002 0.548456 0.593379
O O13 0.250000 0.863422 0.250000
#
# Coordination Sequence:
#
# PCOD9478552 Si02
#       7
#    16   8  16  16   8   8  16
#     4  10  23  37  65 102 138 182 214 280 342 422
#     4  10  22  34  60  97 135 186 215 276 334 420
#     4  11  24  38  69 100 142 172 224 281 356 413
#     4  11  23  44  71 103 135 181 231 287 337 409
#     4  10  20  34  60  90 142 177 225 259 339 408
#     4  10  27  46  70  91 126 188 238 282 334 401
#     4  11  25  44  65  92 134 182 232 288 337 404
#
# _framework density 23.425543999999999
#
# number of rings (size 3 to 8) (size 9 to 14) (size 15 to 20)
#    0.000    1.455    1.818    1.909   15.273    2.182 
#    0.000    0.000    0.000    1.636    0.000    0.000 
#    0.000    0.000    0.000    0.000    0.000    0.000 
#
# Total GULP energy -245945.227485 kJ/mol
# GULP energy per Si atom -5589.664261 kJ/mol
# Density = 2.337223 g / cm^3
# Si number density = 23.425544 Si / 1000 Ang^3
#
#
#
# Elastic Constant Matrix: (Units=GPa)
#
#
# Indices 1 2 3 4 5 6 
#
# 1 140.6763 0.9596 25.4734 0.0000 0.0000 0.0000
# 2 0.9596 48.7115 -18.0547 0.0000 0.0000 0.0000
# 3 25.4734 -18.0547 59.9865 0.0000 0.0000 0.0000
# 4 0.0000 0.0000 0.0000 14.5921 0.0000 0.0000
# 5 0.0000 0.0000 0.0000 0.0000 20.8620 0.0000
# 6 0.0000 0.0000 0.0000 0.0000 0.0000 9.7509
#
#
#
# Elastic Compliance Matrix: (Units=1/GPa)
#
#
# Indices 1 2 3 4 5 6 
#
# 1 0.007804 -0.001556 -0.003782 0.000000 0.000000 0.000000
# 2 -0.001556 0.023417 0.007709 0.000000 0.000000 0.000000
# 3 -0.003782 0.007709 0.020597 0.000000 0.000000 0.000000
# 4 0.000000 0.000000 0.000000 0.068530 0.000000 0.000000
# 5 0.000000 0.000000 0.000000 0.000000 0.047934 0.000000
# 6 0.000000 0.000000 0.000000 0.000000 0.000000 0.102554
#
#
# Mechanical properties :
#
#
# Convention : Reuss Voigt Hill
#
# Bulk Modulus (GPa) = 17.68062 29.57009 23.62536
# Shear Modulus (GPa) = 17.54712 25.10742 21.32727
#
# Velocity S-wave (km/s) = 2.73986 3.27738 3.02060
# Velocity P-wave (km/s) = 4.19203 5.19346 4.71938
#
# Compressibility (1/GPa) = 0.05655909
#
# Stress axis : x y z
#
# Youngs Moduli (GPa) = 128.13940 42.70432 48.55159
#
# Poissons Ratio (x) = 0.06643 0.18363
# Poissons Ratio (y) = 0.19933 -0.37426
# Poissons Ratio (z) = 0.48465 -0.32919
#
# Static dielectric constant tensor:
#      x y z
#    x 1.889590 0.000000 0.000000 
#    y 0.000000 1.938940 0.000000 
#    z 0.000000 0.000000 1.866030 
# 
# From -- ./inp_files/8292.got.cif
#   From: 2010.05.17/outbox.cif.g08.bks.cpg/sg64_5_cif.got.tgz:8292.got - 2010.06.03 16:29:19.
