data_PCOD9478614
_publ_section_title
;
Structure prediction by ZEFSAII (Michael W. Deem and Ramdas Pophale) SiO2 
 PCOD9478614
Probable space group: C M C A
;
_chemical_formula_sum "Si O2"
_cell_formula_units_Z 72
_cell_length_a 18.212088
_cell_length_b 17.866048
_cell_length_c 12.109979
_cell_angle_alpha 90.000000
_cell_angle_beta 90.000000
_cell_angle_gamma 90.000000
_cell_volume 3940.321212
_symmetry_space_group_name_H-M "C M C A"
_symmetry_group_IT_number 64
_symmetry_cell_setting 'orthorhombic'
loop_
_space_group_symop_operation_xyz
x,y,z
-x,1/2-y,1/2+z
x,-y,-z
-x,1/2+y,1/2-z
-x,-y,-z
x,1/2+y,1/2-z
-x,y,z
x,1/2-y,1/2+z
1/2+x,1/2+y,z
1/2-x,-y,1/2+z
1/2+x,1/2-y,-z
1/2-x,y,1/2-z
1/2-x,1/2-y,-z
1/2+x,y,1/2-z
1/2-x,1/2+y,z
1/2+x,-y,1/2+z
loop_
_atom_site_type_symbol
_atom_site_label
_atom_site_fract_x
_atom_site_fract_y
_atom_site_fract_z
Si Si1 0.581958 0.425925 0.925225
Si Si2 0.280464 0.639824 0.960015
Si Si3 0.311725 0.500000 0.500000
Si Si4 0.914320 0.411421 0.828230
Si Si5 0.193151 0.715833 0.154052
O O1 0.500000 0.392615 0.935506
O O2 0.593219 0.442856 0.796101
O O3 0.583969 0.500000 0.000000
O O4 0.646388 0.374008 0.969183
O O5 0.241272 0.560258 0.939273
O O6 0.303421 0.694736 0.861044
O O7 0.222795 0.682269 0.038996
O O8 0.363448 0.458027 0.588146
O O9 0.883115 0.326387 0.824405
O O10 0.000000 0.413728 0.859526
O O11 0.250000 0.693973 0.250000
#
# Coordination Sequence:
#
# PCOD9478614 Si02
#       5
#    16  16   8  16  16
#     4  10  20  35  56  82 115 151 190 232 286 347
#     4  10  20  35  55  84 110 149 187 234 286 333
#     4  10  21  36  61  88 114 144 196 244 287 342
#     4  10  21  38  60  84 117 154 188 241 292 338
#     4  10  20  35  56  81 113 144 190 233 281 344
#
# _framework density 18.272621000000001
#
# number of rings (size 3 to 8) (size 9 to 14) (size 15 to 20)
#    0.000    2.000    3.333    0.333    0.000    2.667 
#    0.000    0.000    0.000    1.333    0.000    0.000 
#    0.000    0.000    0.000    0.000    0.000    0.000 
#
# Total GULP energy -200524.966574 kJ/mol
# GULP energy per Si atom -5570.137960 kJ/mol
# Density = 1.823103 g / cm^3
# Si number density = 18.272621 Si / 1000 Ang^3
#
#
#
# Elastic Constant Matrix: (Units=GPa)
#
#
# Indices 1 2 3 4 5 6 
#
# 1 111.1432 40.1587 31.3006 0.0000 0.0000 0.0000
# 2 40.1587 94.2497 26.3987 0.0000 0.0000 0.0000
# 3 31.3006 26.3987 55.9047 0.0000 0.0000 0.0000
# 4 0.0000 0.0000 0.0000 28.5258 0.0000 0.0000
# 5 0.0000 0.0000 0.0000 0.0000 25.7691 0.0000
# 6 0.0000 0.0000 0.0000 0.0000 0.0000 -5.8975
#
#
#
# Elastic Compliance Matrix: (Units=1/GPa)
#
#
# Indices 1 2 3 4 5 6 
#
# 1 0.011663 -0.003619 -0.004821 0.000000 0.000000 0.000000
# 2 -0.003619 0.013350 -0.004278 0.000000 0.000000 0.000000
# 3 -0.004821 -0.004278 0.022607 0.000000 0.000000 0.000000
# 4 0.000000 0.000000 0.000000 0.035056 0.000000 0.000000
# 5 0.000000 0.000000 0.000000 0.000000 0.038806 0.000000
# 6 0.000000 0.000000 0.000000 0.000000 0.000000 -0.169562
#
#
# Mechanical properties :
#
#
# Convention : Reuss Voigt Hill
#
# Bulk Modulus (GPa) = 45.07710 50.77928 47.92819
# Shear Modulus (GPa) = -327.87115 20.57544 -153.64785
#
# Velocity S-wave (km/s) = -13.40979 3.35927 -9.17981
# Velocity P-wave (km/s) = 14.66426 6.54954 9.27751
#
# Compressibility (1/GPa) = 0.02218421
#
# Stress axis : x y z
#
# Youngs Moduli (GPa) = 85.74318 74.90434 44.23442
#
# Poissons Ratio (x) = 0.27108 0.21325
# Poissons Ratio (y) = 0.31031 0.18923
# Poissons Ratio (z) = 0.41336 0.32043
#
# Static dielectric constant tensor:
#      x y z
#    x 1.618420 0.000000 0.000000 
#    y 0.000000 1.684030 0.000000 
#    z 0.000000 0.000000 1.625550 
# 
# From -- ./inp_files/15727.got.cif
#   From: 2010.05.17/outbox.cif.g08.bks.cpg/sg64_8_cif.got.tgz:15727.got - 2010.06.03 16:29:19.
