data_PCOD9478860
_publ_section_title
;
Structure prediction by ZEFSAII (Michael W. Deem and Ramdas Pophale) SiO2 
 PCOD9478860
Probable space group: C M C A
;
_chemical_formula_sum "Si O2"
_cell_formula_units_Z 96
_cell_length_a 27.964267
_cell_length_b 18.546232
_cell_length_c 9.901341
_cell_angle_alpha 90.000000
_cell_angle_beta 90.000000
_cell_angle_gamma 90.000000
_cell_volume 5135.150142
_symmetry_space_group_name_H-M "C M C A"
_symmetry_group_IT_number 64
_symmetry_cell_setting 'orthorhombic'
loop_
_space_group_symop_operation_xyz
x,y,z
-x,1/2-y,1/2+z
x,-y,-z
-x,1/2+y,1/2-z
-x,-y,-z
x,1/2+y,1/2-z
-x,y,z
x,1/2-y,1/2+z
1/2+x,1/2+y,z
1/2-x,-y,1/2+z
1/2+x,1/2-y,-z
1/2-x,y,1/2-z
1/2-x,1/2-y,-z
1/2+x,y,1/2-z
1/2-x,1/2+y,z
1/2+x,-y,1/2+z
loop_
_atom_site_type_symbol
_atom_site_label
_atom_site_fract_x
_atom_site_fract_y
_atom_site_fract_z
Si Si1 0.368827 0.914569 0.261794
Si Si2 0.117062 0.888947 0.926490
Si Si3 0.445622 0.683543 0.426497
Si Si4 0.398521 0.735524 0.681447
Si Si5 0.556636 0.464054 0.706146
Si Si6 0.209068 0.481018 0.651120
O O1 0.387177 0.904651 0.415791
O O2 0.366661 0.835479 0.198368
O O3 0.317144 0.951453 0.276421
O O4 0.407545 0.968364 0.194101
O O5 0.122192 0.805097 0.893630
O O6 0.072590 0.923681 0.845253
O O7 0.164783 0.927455 0.872800
O O8 0.500000 0.691349 0.381814
O O9 0.439724 0.708046 0.580092
O O10 0.415344 0.733802 0.325602
O O11 0.433575 0.599323 0.402760
O O12 0.500000 0.482397 0.703566
O O13 0.226858 0.500000 0.500000
O O14 0.250000 0.453625 0.750000
#
# Coordination Sequence:
#
# PCOD9478860 Si02
#       6
#    16  16  16  16  16  16
#     4  10  20  36  58  83 115 149 185 236 284 331
#     4   9  19  37  58  81 114 152 186 228 281 338
#     4  10  21  35  52  78 114 156 199 237 274 325
#     4  11  20  37  55  79 115 153 190 231 287 333
#     4   9  19  34  53  81 112 149 196 235 275 331
#     4   9  19  40  63  87 112 140 186 232 283 343
#
# _framework density 18.694683999999999
#
# number of rings (size 3 to 8) (size 9 to 14) (size 15 to 20)
#    0.000    2.333    1.667    2.000    0.000    4.000 
#    9.000    2.500    0.000    4.000    0.000    0.000 
#    0.000    0.000    0.000    0.000    0.000    0.000 
#
# Total GULP energy -267482.199071 kJ/mol
# GULP energy per Si atom -5572.545814 kJ/mol
# Density = 1.865213 g / cm^3
# Si number density = 18.694684 Si / 1000 Ang^3
#
#
#
# Elastic Constant Matrix: (Units=GPa)
#
#
# Indices 1 2 3 4 5 6 
#
# 1 35.0411 13.2431 20.5957 0.0000 0.0000 0.0000
# 2 13.2431 103.9875 10.9907 0.0000 0.0000 0.0000
# 3 20.5957 10.9907 54.6734 0.0000 0.0000 0.0000
# 4 0.0000 0.0000 0.0000 17.7794 0.0000 0.0000
# 5 0.0000 0.0000 0.0000 0.0000 18.7415 0.0000
# 6 0.0000 0.0000 0.0000 0.0000 0.0000 4.9298
#
#
#
# Elastic Compliance Matrix: (Units=1/GPa)
#
#
# Indices 1 2 3 4 5 6 
#
# 1 0.037781 -0.003379 -0.013553 0.000000 0.000000 0.000000
# 2 -0.003379 0.010128 -0.000763 0.000000 0.000000 0.000000
# 3 -0.013553 -0.000763 0.023549 0.000000 0.000000 0.000000
# 4 0.000000 0.000000 0.000000 0.056245 0.000000 0.000000
# 5 0.000000 0.000000 0.000000 0.000000 0.053358 0.000000
# 6 0.000000 0.000000 0.000000 0.000000 0.000000 0.202849
#
#
# Mechanical properties :
#
#
# Convention : Reuss Voigt Hill
#
# Bulk Modulus (GPa) = 27.72566 31.48456 29.60511
# Shear Modulus (GPa) = 11.59229 18.21498 14.90363
#
# Velocity S-wave (km/s) = 2.49285 3.12483 2.82656
# Velocity P-wave (km/s) = 4.81131 5.46785 5.15005
#
# Compressibility (1/GPa) = 0.03606767
#
# Stress axis : x y z
#
# Youngs Moduli (GPa) = 26.46851 98.74092 42.46425
#
# Poissons Ratio (x) = 0.33365 0.57551
# Poissons Ratio (y) = 0.08944 0.03240
# Poissons Ratio (z) = 0.35872 0.07534
#
# Static dielectric constant tensor:
#      x y z
#    x 1.595360 0.000000 0.000000 
#    y 0.000000 1.682210 0.000000 
#    z 0.000000 0.000000 1.668030 
# 
# From -- ./inp_files/19131.got.cif
#   From: 2010.05.17/outbox.cif.g08.bks.cpg/sg64_10_cif.got.tgz:19131.got - 2010.06.03 16:29:19.
