data_PCOD9478929
_publ_section_title
;
Structure prediction by ZEFSAII (Michael W. Deem and Ramdas Pophale) SiO2 
 PCOD9478929
Probable space group: C M C A
;
_chemical_formula_sum "Si O2"
_cell_formula_units_Z 80
_cell_length_a 14.832859
_cell_length_b 18.983908
_cell_length_c 12.338782
_cell_angle_alpha 90.000000
_cell_angle_beta 90.000000
_cell_angle_gamma 90.000000
_cell_volume 3474.423711
_symmetry_space_group_name_H-M "C M C A"
_symmetry_group_IT_number 64
_symmetry_cell_setting 'orthorhombic'
loop_
_space_group_symop_operation_xyz
x,y,z
-x,1/2-y,1/2+z
x,-y,-z
-x,1/2+y,1/2-z
-x,-y,-z
x,1/2+y,1/2-z
-x,y,z
x,1/2-y,1/2+z
1/2+x,1/2+y,z
1/2-x,-y,1/2+z
1/2+x,1/2-y,-z
1/2-x,y,1/2-z
1/2-x,1/2-y,-z
1/2+x,y,1/2-z
1/2-x,1/2+y,z
1/2+x,-y,1/2+z
loop_
_atom_site_type_symbol
_atom_site_label
_atom_site_fract_x
_atom_site_fract_y
_atom_site_fract_z
Si Si1 0.398002 0.621709 0.322695
Si Si2 0.895808 0.258958 0.673673
Si Si3 0.598953 0.348189 0.127821
Si Si4 0.349583 0.536818 0.704183
Si Si5 0.208719 0.848087 0.468004
O O1 0.500000 0.643216 0.354717
O O2 0.379590 0.660903 0.209168
O O3 0.394013 0.537740 0.316626
O O4 0.326805 0.646394 0.411406
O O5 0.886366 0.215211 0.786584
O O6 0.829557 0.221984 0.589740
O O7 0.000000 0.249523 0.639091
O O8 0.500000 0.341217 0.077217
O O9 0.601725 0.416950 0.204465
O O10 0.684518 0.352570 0.050089
O O11 0.250000 0.522514 0.750000
O O12 0.336399 0.586946 0.599672
#
# Coordination Sequence:
#
# PCOD9478929 Si02
#       5
#    16  16  16  16  16
#     4  11  22  35  59  93 120 151 201 251 294 352
#     4   9  19  35  54  83 121 153 188 240 300 355
#     4   9  18  36  59  80 111 157 197 234 293 358
#     4   9  19  35  58  86 118 154 193 243 302 355
#     4  10  20  36  60  87 117 157 197 242 300 355
#
# _framework density 23.025400999999999
#
# number of rings (size 3 to 8) (size 9 to 14) (size 15 to 20)
#    0.000    2.400    0.000    3.600    0.000    5.600 
#    0.000    0.000    0.000   19.200    0.000    5.600 
#    0.000    0.000    0.000    0.000    0.000    0.000 
#
# Total GULP energy -223918.823440 kJ/mol
# GULP energy per Si atom -5597.970586 kJ/mol
# Density = 2.297299 g / cm^3
# Si number density = 23.025401 Si / 1000 Ang^3
#
#
#
# Elastic Constant Matrix: (Units=GPa)
#
#
# Indices 1 2 3 4 5 6 
#
# 1 131.2013 35.9149 49.6827 0.0000 0.0000 0.0000
# 2 35.9149 128.7552 33.3026 0.0000 0.0000 0.0000
# 3 49.6827 33.3026 61.4240 0.0000 0.0000 0.0000
# 4 0.0000 0.0000 0.0000 29.6756 0.0000 0.0000
# 5 0.0000 0.0000 0.0000 0.0000 -1.1626 0.0000
# 6 0.0000 0.0000 0.0000 0.0000 0.0000 44.9208
#
#
#
# Elastic Compliance Matrix: (Units=1/GPa)
#
#
# Indices 1 2 3 4 5 6 
#
# 1 0.011076 -0.000898 -0.008472 0.000000 0.000000 0.000000
# 2 -0.000898 0.009106 -0.004211 0.000000 0.000000 0.000000
# 3 -0.008472 -0.004211 0.025415 0.000000 0.000000 0.000000
# 4 0.000000 0.000000 0.000000 0.033698 0.000000 0.000000
# 5 0.000000 0.000000 0.000000 0.000000 -0.860112 0.000000
# 6 0.000000 0.000000 0.000000 0.000000 0.000000 0.022261
#
#
# Mechanical properties :
#
#
# Convention : Reuss Voigt Hill
#
# Bulk Modulus (GPa) = 54.24034 62.13123 58.18578
# Shear Modulus (GPa) = -6.89418 28.18542 10.64562
#
# Velocity S-wave (km/s) = -1.73224 3.50251 2.15255
# Velocity P-wave (km/s) = 4.42798 6.58780 5.61276
#
# Compressibility (1/GPa) = 0.01843646
#
# Stress axis : x y z
#
# Youngs Moduli (GPa) = 90.28737 109.81369 39.34621
#
# Poissons Ratio (x) = 0.09864 0.33332
# Poissons Ratio (y) = 0.08110 0.16567
# Poissons Ratio (z) = 0.76488 0.46239
#
# Static dielectric constant tensor:
#      x y z
#    x 1.852270 0.000000 0.000000 
#    y 0.000000 1.877360 0.000000 
#    z 0.000000 0.000000 1.823080 
# 
# From -- ./inp_files/25313.got.cif
#   From: 2010.05.17/outbox.cif.g08.bks.cpg/sg64_13_cif.got.tgz:25313.got - 2010.06.03 16:29:19.
