data_PCOD9478549
_publ_section_title
;
Structure prediction by ZEFSAII (Michael W. Deem and Ramdas Pophale) SiO2 
 PCOD9478549
Probable space group: C M C A
;
_chemical_formula_sum "Si O2"
_cell_formula_units_Z 64
_cell_length_a 23.226212
_cell_length_b 14.394536
_cell_length_c 8.033830
_cell_angle_alpha 90.000000
_cell_angle_beta 90.000000
_cell_angle_gamma 90.000000
_cell_volume 2685.954761
_symmetry_space_group_name_H-M "C M C A"
_symmetry_group_IT_number 64
_symmetry_cell_setting 'orthorhombic'
loop_
_space_group_symop_operation_xyz
x,y,z
-x,1/2-y,1/2+z
x,-y,-z
-x,1/2+y,1/2-z
-x,-y,-z
x,1/2+y,1/2-z
-x,y,z
x,1/2-y,1/2+z
1/2+x,1/2+y,z
1/2-x,-y,1/2+z
1/2+x,1/2-y,-z
1/2-x,y,1/2-z
1/2-x,1/2-y,-z
1/2+x,y,1/2-z
1/2-x,1/2+y,z
1/2+x,-y,1/2+z
loop_
_atom_site_type_symbol
_atom_site_label
_atom_site_fract_x
_atom_site_fract_y
_atom_site_fract_z
Si Si1 0.566615 0.105927 0.309299
Si Si2 0.634161 0.894617 0.996402
Si Si3 0.884514 0.103216 0.868790
Si Si4 0.741989 0.356164 0.053176
O O1 0.500000 0.101636 0.263545
O O2 0.603295 0.151175 0.160647
O O3 0.573884 0.148299 0.493996
O O4 0.591912 0.001005 0.334451
O O5 0.623366 0.855671 0.182355
O O6 0.702837 0.901169 0.964979
O O7 0.611629 0.000000 0.000000
O O8 0.822790 0.107892 0.965195
O O9 0.750000 0.366448 0.250000
O O10 0.750000 0.250000 0.000000
#
# Coordination Sequence:
#
# PCOD9478549 Si02
#       4
#    16  16  16  16
#     4  10  20  34  59  89 112 149 193 233 287 344
#     4   9  20  35  55  85 116 146 186 241 296 343
#     4   9  19  34  52  84 115 144 184 239 285 340
#     4  10  22  37  55  86 117 153 193 239 299 358
#
# _framework density 23.827653999999999
#
# number of rings (size 3 to 8) (size 9 to 14) (size 15 to 20)
#    0.000    2.500    0.000    1.500    7.000    5.500 
#    0.000    0.000    0.000    3.000    0.000    0.000 
#    0.000    0.000    0.000    0.000    0.000    0.000 
#
# Total GULP energy -178297.119152 kJ/mol
# GULP energy per Si atom -5571.784973 kJ/mol
# Density = 2.377342 g / cm^3
# Si number density = 23.827654 Si / 1000 Ang^3
#
#
#
# Elastic Constant Matrix: (Units=GPa)
#
#
# Indices 1 2 3 4 5 6 
#
# 1 166.3258 6.9130 63.4527 0.0000 0.0000 0.0000
# 2 6.9130 59.7274 0.9926 0.0000 0.0000 0.0000
# 3 63.4527 0.9926 135.6507 0.0000 0.0000 0.0000
# 4 0.0000 0.0000 0.0000 21.7463 0.0000 0.0000
# 5 0.0000 0.0000 0.0000 0.0000 26.8933 0.0000
# 6 0.0000 0.0000 0.0000 0.0000 0.0000 -197.8332
#
#
#
# Elastic Compliance Matrix: (Units=1/GPa)
#
#
# Indices 1 2 3 4 5 6 
#
# 1 0.007356 -0.000794 -0.003435 0.000000 0.000000 0.000000
# 2 -0.000794 0.016831 0.000248 0.000000 0.000000 0.000000
# 3 -0.003435 0.000248 0.008977 0.000000 0.000000 0.000000
# 4 0.000000 0.000000 0.000000 0.045985 0.000000 0.000000
# 5 0.000000 0.000000 0.000000 0.000000 0.037184 0.000000
# 6 0.000000 0.000000 0.000000 0.000000 0.000000 -0.005055
#
#
# Mechanical properties :
#
#
# Convention : Reuss Voigt Hill
#
# Bulk Modulus (GPa) = 39.68034 56.04671 47.86353
# Shear Modulus (GPa) = 39.17287 -10.48235 14.34526
#
# Velocity S-wave (km/s) = 4.05904 -2.09971 2.45632
# Velocity P-wave (km/s) = 6.21747 4.20647 5.30807
#
# Compressibility (1/GPa) = 0.02520140
#
# Stress axis : x y z
#
# Youngs Moduli (GPa) = 135.94843 59.41578 111.39822
#
# Poissons Ratio (x) = 0.04719 0.38265
# Poissons Ratio (y) = 0.10798 -0.02767
# Poissons Ratio (z) = 0.46698 -0.01476
#
# Static dielectric constant tensor:
#      x y z
#    x 1.910630 0.000000 0.000000 
#    y 0.000000 2.018260 0.000000 
#    z 0.000000 0.000000 2.008780 
# 
# From -- ./inp_files/6561.got.cif
#   From: 2010.05.17/outbox.cif.g08.bks.cpg/sg64_4_cif.got.tgz:6561.got - 2010.06.03 16:29:19.
