data_PCOD9478873
_publ_section_title
;
Structure prediction by ZEFSAII (Michael W. Deem and Ramdas Pophale) SiO2 
 PCOD9478873
Probable space group: C M C A
;
_chemical_formula_sum "Si O2"
_cell_formula_units_Z 96
_cell_length_a 14.217132
_cell_length_b 26.572343
_cell_length_c 10.369872
_cell_angle_alpha 90.000000
_cell_angle_beta 90.000000
_cell_angle_gamma 90.000000
_cell_volume 3917.556252
_symmetry_space_group_name_H-M "C M C A"
_symmetry_group_IT_number 64
_symmetry_cell_setting 'orthorhombic'
loop_
_space_group_symop_operation_xyz
x,y,z
-x,1/2-y,1/2+z
x,-y,-z
-x,1/2+y,1/2-z
-x,-y,-z
x,1/2+y,1/2-z
-x,y,z
x,1/2-y,1/2+z
1/2+x,1/2+y,z
1/2-x,-y,1/2+z
1/2+x,1/2-y,-z
1/2-x,y,1/2-z
1/2-x,1/2-y,-z
1/2+x,y,1/2-z
1/2-x,1/2+y,z
1/2+x,-y,1/2+z
loop_
_atom_site_type_symbol
_atom_site_label
_atom_site_fract_x
_atom_site_fract_y
_atom_site_fract_z
Si Si1 0.386246 0.857306 0.326233
Si Si2 0.394840 0.181917 0.936049
Si Si3 0.886128 0.471244 0.869377
Si Si4 0.114667 0.857217 0.710707
Si Si5 0.166676 0.786136 0.944903
Si Si6 0.385602 0.966522 0.381806
O O1 0.500000 0.860571 0.314645
O O2 0.347603 0.846555 0.182948
O O3 0.366701 0.813606 0.426407
O O4 0.351315 0.909690 0.383621
O O5 0.500000 0.160774 0.945934
O O6 0.398694 0.240237 0.897757
O O7 0.359244 0.172791 0.080118
O O8 0.857156 0.414717 0.825782
O O9 0.861555 0.507577 0.751921
O O10 0.000000 0.467537 0.878769
O O11 0.856024 0.500000 0.000000
O O12 0.161342 0.828399 0.832139
O O13 0.000000 0.856387 0.733193
O O14 0.250000 0.750000 0.000000
O O15 0.500000 0.965178 0.389027
O O16 0.353072 0.000000 0.500000
#
# Coordination Sequence:
#
# PCOD9478873 Si02
#       6
#    16  16  16  16  16  16
#     4  10  20  36  58  85 118 153 192 244 305 370
#     4  10  21  37  58  83 112 151 200 252 308 367
#     4   9  16  28  51  87 125 153 185 237 302 373
#     4  10  20  36  59  88 124 163 201 250 312 370
#     4  12  25  38  54  80 115 161 213 257 301 357
#     4   9  16  27  48  81 117 149 181 223 284 360
#
# _framework density 24.505072999999999
#
# number of rings (size 3 to 8) (size 9 to 14) (size 15 to 20)
#    0.000    2.000    0.000    4.500    0.000   12.000 
#    0.000    0.000    0.000    0.000    0.000   17.500 
#    0.000    0.000    0.000    0.000    0.000   11.500 
#
# Total GULP energy -268065.084978 kJ/mol
# GULP energy per Si atom -5584.689270 kJ/mol
# Density = 2.444930 g / cm^3
# Si number density = 24.505073 Si / 1000 Ang^3
#
#
#
# Elastic Constant Matrix: (Units=GPa)
#
#
# Indices 1 2 3 4 5 6 
#
# 1 79.9980 43.7663 42.4101 0.0000 0.0000 0.0000
# 2 43.7663 132.1471 37.9811 0.0000 0.0000 0.0000
# 3 42.4101 37.9811 171.4703 0.0000 0.0000 0.0000
# 4 0.0000 0.0000 0.0000 40.1736 0.0000 0.0000
# 5 0.0000 0.0000 0.0000 0.0000 -2.4785 0.0000
# 6 0.0000 0.0000 0.0000 0.0000 0.0000 -22.8940
#
#
#
# Elastic Compliance Matrix: (Units=1/GPa)
#
#
# Indices 1 2 3 4 5 6 
#
# 1 0.016678 -0.004633 -0.003099 0.000000 0.000000 0.000000
# 2 -0.004633 0.009369 -0.000929 0.000000 0.000000 0.000000
# 3 -0.003099 -0.000929 0.006804 0.000000 0.000000 0.000000
# 4 0.000000 0.000000 0.000000 0.024892 0.000000 0.000000
# 5 0.000000 0.000000 0.000000 0.000000 -0.403478 0.000000
# 6 0.000000 0.000000 0.000000 0.000000 0.000000 -0.043680
#
#
# Mechanical properties :
#
#
# Convention : Reuss Voigt Hill
#
# Bulk Modulus (GPa) = 64.39685 70.21450 67.30567
# Shear Modulus (GPa) = -13.62709 20.25743 3.31517
#
# Velocity S-wave (km/s) = -2.36072 2.87829 1.16438
# Velocity P-wave (km/s) = 4.34803 6.30566 5.41603
#
# Compressibility (1/GPa) = 0.01552871
#
# Stress axis : x y z
#
# Youngs Moduli (GPa) = 59.96020 106.73686 146.96850
#
# Poissons Ratio (x) = 0.49451 0.45542
# Poissons Ratio (y) = 0.27779 0.13658
# Poissons Ratio (z) = 0.18580 0.09920
#
# Static dielectric constant tensor:
#      x y z
#    x 2.114620 0.000000 0.000000 
#    y 0.000000 1.744160 0.000000 
#    z 0.000000 0.000000 1.868540 
# 
# From -- ./inp_files/18485.got.cif
#   From: 2010.05.17/outbox.cif.g08.bks.cpg/sg64_10_cif.got.tgz:18485.got - 2010.06.03 16:29:19.
