data_PCOD9478302
_publ_section_title
;
Structure prediction by ZEFSAII (Michael W. Deem and Ramdas Pophale) SiO2 
 PCOD9478302
Probable space group: C M C A
;
_chemical_formula_sum "Si O2"
_cell_formula_units_Z 116
_cell_length_a 9.155272
_cell_length_b 26.928994
_cell_length_c 28.491588
_cell_angle_alpha 90.000000
_cell_angle_beta 90.000000
_cell_angle_gamma 90.000000
_cell_volume 7024.380632
_symmetry_space_group_name_H-M "C M C A"
_symmetry_group_IT_number 64
_symmetry_cell_setting 'orthorhombic'
loop_
_space_group_symop_operation_xyz
x,y,z
-x,1/2-y,1/2+z
x,-y,-z
-x,1/2+y,1/2-z
-x,-y,-z
x,1/2+y,1/2-z
-x,y,z
x,1/2-y,1/2+z
1/2+x,1/2+y,z
1/2-x,-y,1/2+z
1/2+x,1/2-y,-z
1/2-x,y,1/2-z
1/2-x,1/2-y,-z
1/2+x,y,1/2-z
1/2-x,1/2+y,z
1/2+x,-y,1/2+z
loop_
_atom_site_type_symbol
_atom_site_label
_atom_site_fract_x
_atom_site_fract_y
_atom_site_fract_z
Si Si1 0.327646 0.504415 0.201176
Si Si2 0.822770 0.850915 0.606339
Si Si3 0.663906 0.957050 0.115258
Si Si4 0.675852 0.700561 0.020066
Si Si5 0.724130 0.548554 0.449069
Si Si6 0.000000 0.500000 0.500000
Si Si7 0.175037 0.377182 0.700324
Si Si8 0.835202 0.384999 0.035012
O O1 0.500000 0.497352 0.205449
O O2 0.250000 0.491326 0.250000
O O3 0.265098 0.473141 0.157959
O O4 0.301315 0.563394 0.192956
O O5 0.749266 0.812327 0.570282
O O6 0.774854 0.904484 0.585640
O O7 0.755423 0.848735 0.658161
O O8 0.000000 0.847832 0.605743
O O9 0.500000 0.946689 0.132425
O O10 0.713619 0.910727 0.083303
O O11 0.655944 0.003686 0.079852
O O12 0.500000 0.703671 0.023034
O O13 0.750000 0.750000 0.000000
O O14 0.725313 0.655454 0.985768
O O15 0.654577 0.571575 0.495988
O O16 0.875156 0.527174 0.467767
O O17 0.250000 0.364889 0.750000
O O18 0.000000 0.368693 0.700860
O O19 0.000000 0.364322 0.040270
#
# Coordination Sequence:
#
# PCOD9478302 Si02
#       8
#    16  16  16  16  16   4  16  16
#     4  10  21  33  48  67  99 138 181 221 258 303
#     4  11  22  35  54  77 105 142 180 220 268 321
#     4  11  20  31  49  71 101 137 174 211 254 299
#     4  11  23  39  59  79 106 136 173 219 269 325
#     4  11  21  30  45  67 105 138 175 212 252 301
#     4  12  24  28  42  68 108 136 182 216 252 300
#     4  10  20  33  50  75 106 143 183 223 264 312
#     4  10  21  35  51  74 102 134 172 211 257 308
#
# _framework density 16.513911
#
# number of rings (size 3 to 8) (size 9 to 14) (size 15 to 20)
#    0.000    1.379    2.759    4.552    5.793    2.759 
#    0.000    0.000    0.000    0.000    0.000    0.966 
#    0.000    4.414    0.000    0.000    0.000    0.000 
#
# Total GULP energy -322926.565848 kJ/mol
# GULP energy per Si atom -5567.699411 kJ/mol
# Density = 1.647632 g / cm^3
# Si number density = 16.513911 Si / 1000 Ang^3
#
#
#
# Elastic Constant Matrix: (Units=GPa)
#
#
# Indices 1 2 3 4 5 6 
#
# 1 141.7551 44.0407 79.2268 0.0000 0.0000 0.0000
# 2 44.0407 45.0605 55.4206 0.0000 0.0000 0.0000
# 3 79.2268 55.4206 140.3816 0.0000 0.0000 0.0000
# 4 0.0000 0.0000 0.0000 20.4650 0.0000 0.0000
# 5 0.0000 0.0000 0.0000 0.0000 48.6474 0.0000
# 6 0.0000 0.0000 0.0000 0.0000 0.0000 27.7533
#
#
#
# Elastic Compliance Matrix: (Units=1/GPa)
#
#
# Indices 1 2 3 4 5 6 
#
# 1 0.011109 -0.006117 -0.003855 0.000000 0.000000 0.000000
# 2 -0.006117 0.046506 -0.014908 0.000000 0.000000 0.000000
# 3 -0.003855 -0.014908 0.015184 0.000000 0.000000 0.000000
# 4 0.000000 0.000000 0.000000 0.048864 0.000000 0.000000
# 5 0.000000 0.000000 0.000000 0.000000 0.020556 0.000000
# 6 0.000000 0.000000 0.000000 0.000000 0.000000 0.036032
#
#
# Mechanical properties :
#
#
# Convention : Reuss Voigt Hill
#
# Bulk Modulus (GPa) = 43.40120 76.06370 59.73245
# Shear Modulus (GPa) = 21.21428 29.27375 25.24401
#
# Velocity S-wave (km/s) = 3.58806 4.21488 3.91404
# Velocity P-wave (km/s) = 6.59578 8.35747 7.52833
#
# Compressibility (1/GPa) = 0.02304084
#
# Stress axis : x y z
#
# Youngs Moduli (GPa) = 90.01508 21.50270 65.85680
#
# Poissons Ratio (x) = 0.13152 0.25388
# Poissons Ratio (y) = 0.55058 0.98178
# Poissons Ratio (z) = 0.34701 0.32056
#
# Static dielectric constant tensor:
#      x y z
#    x 1.573760 0.000000 0.000000 
#    y 0.000000 1.558460 0.000000 
#    z 0.000000 0.000000 1.569240 
# 
# From -- ./inp_files/48837.got.cif
#   From: 2010.05.17/outbox.cif.g08.bks.cpg/sg64_25_cif.got.tgz:48837.got - 2010.06.03 16:29:19.
