data_PCOD9478353
_publ_section_title
;
Structure prediction by ZEFSAII (Michael W. Deem and Ramdas Pophale) SiO2 
 PCOD9478353
Probable space group: C M C A
;
_chemical_formula_sum "Si O2"
_cell_formula_units_Z 112
_cell_length_a 11.471801
_cell_length_b 28.183817
_cell_length_c 14.670860
_cell_angle_alpha 90.000000
_cell_angle_beta 90.000000
_cell_angle_gamma 90.000000
_cell_volume 4743.369839
_symmetry_space_group_name_H-M "C M C A"
_symmetry_group_IT_number 64
_symmetry_cell_setting 'orthorhombic'
loop_
_space_group_symop_operation_xyz
x,y,z
-x,1/2-y,1/2+z
x,-y,-z
-x,1/2+y,1/2-z
-x,-y,-z
x,1/2+y,1/2-z
-x,y,z
x,1/2-y,1/2+z
1/2+x,1/2+y,z
1/2-x,-y,1/2+z
1/2+x,1/2-y,-z
1/2-x,y,1/2-z
1/2-x,1/2-y,-z
1/2+x,y,1/2-z
1/2-x,1/2+y,z
1/2+x,-y,1/2+z
loop_
_atom_site_type_symbol
_atom_site_label
_atom_site_fract_x
_atom_site_fract_y
_atom_site_fract_z
Si Si1 0.873925 0.862168 0.800912
Si Si2 0.127420 0.911971 0.468450
Si Si3 0.872552 0.197476 0.491442
Si Si4 0.128854 0.485694 0.300016
Si Si5 0.124958 0.881632 0.259098
Si Si6 0.870957 0.940393 0.958852
Si Si7 0.195673 0.741076 0.346750
O O1 0.750000 0.869853 0.750000
O O2 0.870042 0.895463 0.889412
O O3 0.876712 0.806520 0.825787
O O4 0.000000 0.873225 0.753820
O O5 0.138072 0.858992 0.509408
O O6 0.121655 0.903169 0.360413
O O7 0.246176 0.938327 0.492179
O O8 0.000000 0.932051 0.496572
O O9 0.859653 0.216191 0.595412
O O10 0.787832 0.221307 0.420027
O O11 0.000000 0.211535 0.460589
O O12 0.250000 0.499731 0.250000
O O13 0.130512 0.428586 0.304142
O O14 0.128950 0.513395 0.394650
O O15 0.000000 0.497504 0.257203
O O16 0.250000 0.856882 0.250000
O O17 0.000000 0.856877 0.241851
O O18 0.000000 0.937506 0.004311
O O19 0.250000 0.754621 0.250000
#
# Coordination Sequence:
#
# PCOD9478353 Si02
#       7
#    16  16  16  16  16  16  16
#     4  10  20  33  53  82 116 152 190 240 294 356
#     4  10  21  38  59  85 118 156 200 246 300 363
#     4  10  21  38  59  86 123 165 207 259 311 364
#     4   9  18  34  56  81 110 144 186 235 292 352
#     4   9  19  37  60  83 111 150 194 244 297 357
#     4  10  20  35  55  84 116 148 191 242 298 357
#     4  10  21  37  58  87 123 162 206 255 305 373
#
# _framework density 23.611906999999999
#
# number of rings (size 3 to 8) (size 9 to 14) (size 15 to 20)
#    0.000    2.286    1.429    0.857    0.000    5.143 
#    0.000    2.857    0.000   15.429    0.000    0.000 
#    0.000    0.000    0.000    0.000    0.000    0.000 
#
# Total GULP energy -312418.570778 kJ/mol
# GULP energy per Si atom -5578.903050 kJ/mol
# Density = 2.355816 g / cm^3
# Si number density = 23.611907 Si / 1000 Ang^3
#
#
#
# Elastic Constant Matrix: (Units=GPa)
#
#
# Indices 1 2 3 4 5 6 
#
# 1 279.8505 33.0571 54.7542 0.0000 0.0000 0.0000
# 2 33.0571 71.9285 11.4386 0.0000 0.0000 0.0000
# 3 54.7542 11.4386 70.0058 0.0000 0.0000 0.0000
# 4 0.0000 0.0000 0.0000 30.5970 0.0000 0.0000
# 5 0.0000 0.0000 0.0000 0.0000 33.1587 0.0000
# 6 0.0000 0.0000 0.0000 0.0000 0.0000 9.8168
#
#
#
# Elastic Compliance Matrix: (Units=1/GPa)
#
#
# Indices 1 2 3 4 5 6 
#
# 1 0.004372 -0.001505 -0.003174 0.000000 0.000000 0.000000
# 2 -0.001505 0.014791 -0.001240 0.000000 0.000000 0.000000
# 3 -0.003174 -0.001240 0.016969 0.000000 0.000000 0.000000
# 4 0.000000 0.000000 0.000000 0.032683 0.000000 0.000000
# 5 0.000000 0.000000 0.000000 0.000000 0.030158 0.000000
# 6 0.000000 0.000000 0.000000 0.000000 0.000000 0.101866
#
#
# Mechanical properties :
#
#
# Convention : Reuss Voigt Hill
#
# Bulk Modulus (GPa) = 41.15875 68.92053 55.03964
# Shear Modulus (GPa) = 22.64745 36.21682 29.43214
#
# Velocity S-wave (km/s) = 3.10038 3.92067 3.53440
# Velocity P-wave (km/s) = 5.50324 7.05321 6.32588
#
# Compressibility (1/GPa) = 0.02429617
#
# Stress axis : x y z
#
# Youngs Moduli (GPa) = 228.72767 67.60695 58.92957
#
# Poissons Ratio (x) = 0.10172 0.18702
# Poissons Ratio (y) = 0.34414 0.07308
# Poissons Ratio (z) = 0.72591 0.08384
#
# Static dielectric constant tensor:
#      x y z
#    x 1.973470 0.000000 0.000000 
#    y 0.000000 1.884740 0.000000 
#    z 0.000000 0.000000 1.942190 
# 
# From -- ./inp_files/22742.got.cif
#   From: 2010.05.17/outbox.cif.g08.bks.cpg/sg64_12_cif.got.tgz:22742.got - 2010.06.03 16:29:19.
