data_PCOD9478043
_publ_section_title
;
Structure prediction by ZEFSAII (Michael W. Deem and Ramdas Pophale) SiO2 
 PCOD9478043
Probable space group: C M C A
;
_chemical_formula_sum "Si O2"
_cell_formula_units_Z 80
_cell_length_a 25.680932
_cell_length_b 16.741534
_cell_length_c 7.747808
_cell_angle_alpha 90.000000
_cell_angle_beta 90.000000
_cell_angle_gamma 90.000000
_cell_volume 3331.078596
_symmetry_space_group_name_H-M "C M C A"
_symmetry_group_IT_number 64
_symmetry_cell_setting 'orthorhombic'
loop_
_space_group_symop_operation_xyz
x,y,z
-x,1/2-y,1/2+z
x,-y,-z
-x,1/2+y,1/2-z
-x,-y,-z
x,1/2+y,1/2-z
-x,y,z
x,1/2-y,1/2+z
1/2+x,1/2+y,z
1/2-x,-y,1/2+z
1/2+x,1/2-y,-z
1/2-x,y,1/2-z
1/2-x,1/2-y,-z
1/2+x,y,1/2-z
1/2-x,1/2+y,z
1/2+x,-y,1/2+z
loop_
_atom_site_type_symbol
_atom_site_label
_atom_site_fract_x
_atom_site_fract_y
_atom_site_fract_z
Si Si1 0.078015 0.595062 0.219254
Si Si2 0.081583 0.918072 0.311774
Si Si3 0.197880 0.635285 0.819698
Si Si4 0.056214 0.788978 0.026407
Si Si5 0.337756 0.296603 0.636699
O O1 0.067482 0.503791 0.267475
O O2 0.054315 0.658039 0.353003
O O3 0.137529 0.627748 0.234952
O O4 0.065416 0.591186 0.012799
O O5 0.144703 0.914319 0.311201
O O6 0.061068 0.847641 0.191046
O O7 0.250000 0.596842 0.750000
O O8 0.185456 0.719196 0.724780
O O9 0.204572 0.664373 0.014323
O O10 0.000000 0.747014 0.037807
O O11 0.109838 0.737660 0.035722
#
# Coordination Sequence:
#
# PCOD9478043 Si02
#       5
#    16  16  16  16  16
#     4  10  20  41  61  83 124 163 193 247 308 350
#     4   9  22  39  63  86 123 159 200 251 300 363
#     4  10  19  36  62  87 117 156 198 245 300 356
#     4  11  23  39  62  90 121 161 206 248 303 363
#     4  10  20  38  58  88 123 156 199 252 296 358
#
# _framework density 24.016247
#
# number of rings (size 3 to 8) (size 9 to 14) (size 15 to 20)
#    0.000    2.000    2.000    1.200    0.000    3.200 
#    0.000    3.000   26.400    0.000    0.000    0.000 
#    0.000    0.000    0.000    0.000    0.000    0.000 
#
# Total GULP energy -223092.462366 kJ/mol
# GULP energy per Si atom -5577.311559 kJ/mol
# Density = 2.396158 g / cm^3
# Si number density = 24.016247 Si / 1000 Ang^3
#
#
#
# Elastic Constant Matrix: (Units=GPa)
#
#
# Indices 1 2 3 4 5 6 
#
# 1 92.1658 -12.2681 12.8832 0.0000 0.0000 0.0000
# 2 -12.2681 80.3110 -8.6685 0.0000 0.0000 0.0000
# 3 12.8832 -8.6685 63.3012 0.0000 0.0000 0.0000
# 4 0.0000 0.0000 0.0000 25.9138 0.0000 0.0000
# 5 0.0000 0.0000 0.0000 0.0000 10.6013 0.0000
# 6 0.0000 0.0000 0.0000 0.0000 0.0000 0.2322
#
#
#
# Elastic Compliance Matrix: (Units=1/GPa)
#
#
# Indices 1 2 3 4 5 6 
#
# 1 0.011344 0.001506 -0.002103 0.000000 0.000000 0.000000
# 2 0.001506 0.012838 0.001452 0.000000 0.000000 0.000000
# 3 -0.002103 0.001452 0.016424 0.000000 0.000000 0.000000
# 4 0.000000 0.000000 0.000000 0.038589 0.000000 0.000000
# 5 0.000000 0.000000 0.000000 0.000000 0.094328 0.000000
# 6 0.000000 0.000000 0.000000 0.000000 0.000000 4.305855
#
#
# Mechanical properties :
#
#
# Convention : Reuss Voigt Hill
#
# Bulk Modulus (GPa) = 23.63126 24.40792 24.01959
# Shear Modulus (GPa) = 1.11315 23.60489 12.35902
#
# Velocity S-wave (km/s) = 0.68154 3.13848 2.27096
# Velocity P-wave (km/s) = 3.23734 4.82893 4.11090
#
# Compressibility (1/GPa) = 0.04231683
#
# Stress axis : x y z
#
# Youngs Moduli (GPa) = 88.14941 77.89176 60.88576
#
# Poissons Ratio (x) = -0.11730 0.12802
# Poissons Ratio (y) = -0.13275 -0.08838
# Poissons Ratio (z) = 0.18534 -0.11307
#
# Static dielectric constant tensor:
#      x y z
#    x 1.910610 0.000000 0.000000 
#    y 0.000000 1.930780 0.000000 
#    z 0.000000 0.000000 2.004630 
# 
# From -- ./inp_files/10220.got.cif
#   From: 2010.05.17/outbox.cif.g08.bks.cpg/sg64_6_cif.got.tgz:10220.got - 2010.06.03 16:29:19.
