data_PCOD9478470
_publ_section_title
;
Structure prediction by ZEFSAII (Michael W. Deem and Ramdas Pophale) SiO2 
 PCOD9478470
Probable space group: C M C A
;
_chemical_formula_sum "Si O2"
_cell_formula_units_Z 96
_cell_length_a 25.514696
_cell_length_b 9.758523
_cell_length_c 21.224153
_cell_angle_alpha 90.000000
_cell_angle_beta 90.000000
_cell_angle_gamma 90.000000
_cell_volume 5284.511605
_symmetry_space_group_name_H-M "C M C A"
_symmetry_group_IT_number 64
_symmetry_cell_setting 'orthorhombic'
loop_
_space_group_symop_operation_xyz
x,y,z
-x,1/2-y,1/2+z
x,-y,-z
-x,1/2+y,1/2-z
-x,-y,-z
x,1/2+y,1/2-z
-x,y,z
x,1/2-y,1/2+z
1/2+x,1/2+y,z
1/2-x,-y,1/2+z
1/2+x,1/2-y,-z
1/2-x,y,1/2-z
1/2-x,1/2-y,-z
1/2+x,y,1/2-z
1/2-x,1/2+y,z
1/2+x,-y,1/2+z
loop_
_atom_site_type_symbol
_atom_site_label
_atom_site_fract_x
_atom_site_fract_y
_atom_site_fract_z
Si Si1 0.438193 0.624226 0.683929
Si Si2 0.388252 0.915481 0.721890
Si Si3 0.236006 0.374050 0.042915
Si Si4 0.298761 0.461152 0.153874
Si Si5 0.697915 0.149985 0.173931
Si Si6 0.136750 0.520326 0.925581
O O1 0.500000 0.637383 0.674124
O O2 0.413712 0.771421 0.703181
O O3 0.426697 0.519022 0.741648
O O4 0.409962 0.564838 0.621059
O O5 0.340478 0.897156 0.771203
O O6 0.356883 0.984344 0.664416
O O7 0.284867 0.423092 0.082684
O O8 0.181913 0.360201 0.081273
O O9 0.221191 0.500000 0.000000
O O10 0.250000 0.250000 0.000000
O O11 0.292703 0.310869 0.184545
O O12 0.252626 0.567373 0.172566
O O13 0.666305 0.109060 0.109236
O O14 0.120869 0.500000 0.000000
#
# Coordination Sequence:
#
# PCOD9478470 Si02
#       6
#    16  16  16  16  16  16
#     4  11  24  42  64  84 112 157 207 261 308 350
#     4  11  23  39  58  85 120 153 200 250 304 357
#     4  10  20  34  54  84 122 155 186 226 283 361
#     4  11  21  34  56  86 121 159 194 232 290 364
#     4  10  22  35  55  87 124 159 186 232 292 358
#     4   9  20  38  61  89 122 149 199 245 295 361
#
# _framework density 18.166295000000002
#
# number of rings (size 3 to 8) (size 9 to 14) (size 15 to 20)
#    0.000    1.667    1.667    4.000    9.333    1.667 
#    0.000    0.000    0.000    0.000    0.000    4.667 
#    0.000    0.000    0.000    0.000    0.000    0.000 
#
# Total GULP energy -267350.852347 kJ/mol
# GULP energy per Si atom -5569.809424 kJ/mol
# Density = 1.812495 g / cm^3
# Si number density = 18.166295 Si / 1000 Ang^3
#
#
#
# Elastic Constant Matrix: (Units=GPa)
#
#
# Indices 1 2 3 4 5 6 
#
# 1 99.4926 39.3498 41.6505 0.0000 0.0000 0.0000
# 2 39.3498 99.2585 5.4439 0.0000 0.0000 0.0000
# 3 41.6505 5.4439 80.3579 0.0000 0.0000 0.0000
# 4 0.0000 0.0000 0.0000 28.0881 0.0000 0.0000
# 5 0.0000 0.0000 0.0000 0.0000 13.4010 0.0000
# 6 0.0000 0.0000 0.0000 0.0000 0.0000 11.9728
#
#
#
# Elastic Compliance Matrix: (Units=1/GPa)
#
#
# Indices 1 2 3 4 5 6 
#
# 1 0.015525 -0.005735 -0.007658 0.000000 0.000000 0.000000
# 2 -0.005735 0.012231 0.002144 0.000000 0.000000 0.000000
# 3 -0.007658 0.002144 0.016269 0.000000 0.000000 0.000000
# 4 0.000000 0.000000 0.000000 0.035602 0.000000 0.000000
# 5 0.000000 0.000000 0.000000 0.000000 0.074622 0.000000
# 6 0.000000 0.000000 0.000000 0.000000 0.000000 0.083522
#
#
# Mechanical properties :
#
#
# Convention : Reuss Voigt Hill
#
# Bulk Modulus (GPa) = 46.45612 50.22192 48.33902
# Shear Modulus (GPa) = 18.69549 23.53672 21.11610
#
# Velocity S-wave (km/s) = 3.21149 3.60338 3.41307
# Velocity P-wave (km/s) = 6.27533 6.70956 6.49607
#
# Compressibility (1/GPa) = 0.02152569
#
# Stress axis : x y z
#
# Youngs Moduli (GPa) = 64.41179 81.76230 61.46845
#
# Poissons Ratio (x) = 0.46888 0.47075
# Poissons Ratio (y) = 0.36938 -0.13178
# Poissons Ratio (z) = 0.49329 -0.17528
#
# Static dielectric constant tensor:
#      x y z
#    x 1.741740 0.000000 0.000000 
#    y 0.000000 1.534520 0.000000 
#    z 0.000000 0.000000 1.882070 
# 
# From -- ./inp_files/46585.got.cif
#   From: 2010.05.17/outbox.cif.g08.bks.cpg/sg64_24_cif.got.tgz:46585.got - 2010.06.03 16:29:19.
