data_PCOD9478831
_publ_section_title
;
Structure prediction by ZEFSAII (Michael W. Deem and Ramdas Pophale) SiO2 
 PCOD9478831
Probable space group: C M C A
;
_chemical_formula_sum "Si O2"
_cell_formula_units_Z 96
_cell_length_a 18.421501
_cell_length_b 9.668431
_cell_length_c 28.681452
_cell_angle_alpha 90.000000
_cell_angle_beta 90.000000
_cell_angle_gamma 90.000000
_cell_volume 5108.367696
_symmetry_space_group_name_H-M "C M C A"
_symmetry_group_IT_number 64
_symmetry_cell_setting 'orthorhombic'
loop_
_space_group_symop_operation_xyz
x,y,z
-x,1/2-y,1/2+z
x,-y,-z
-x,1/2+y,1/2-z
-x,-y,-z
x,1/2+y,1/2-z
-x,y,z
x,1/2-y,1/2+z
1/2+x,1/2+y,z
1/2-x,-y,1/2+z
1/2+x,1/2-y,-z
1/2-x,y,1/2-z
1/2-x,1/2-y,-z
1/2+x,y,1/2-z
1/2-x,1/2+y,z
1/2+x,-y,1/2+z
loop_
_atom_site_type_symbol
_atom_site_label
_atom_site_fract_x
_atom_site_fract_y
_atom_site_fract_z
Si Si1 0.240266 0.674359 0.630289
Si Si2 0.845100 0.554972 0.137728
Si Si3 0.413632 0.615906 0.462714
Si Si4 0.673338 0.068428 0.721903
Si Si5 0.306950 0.647769 0.975277
Si Si6 0.585920 0.161511 0.233468
O O1 0.223874 0.837748 0.636544
O O2 0.317574 0.602842 0.640172
O O3 0.189526 0.602683 0.668585
O O4 0.218250 0.633562 0.578124
O O5 0.885365 0.578802 0.088880
O O6 0.892063 0.599981 0.182421
O O7 0.388311 0.500000 0.500000
O O8 0.500000 0.617945 0.462983
O O9 0.381211 0.765041 0.475672
O O10 0.750000 0.075868 0.750000
O O11 0.615845 0.183774 0.737506
O O12 0.634766 0.924510 0.730722
O O13 0.310423 0.500000 0.000000
O O14 0.250000 0.750000 0.000000
O O15 0.500000 0.151930 0.240510
#
# Coordination Sequence:
#
# PCOD9478831 Si02
#       6
#    16  16  16  16  16  16
#     4  10  21  34  58  88 112 149 191 246 287 342
#     4  10  20  36  57  83 114 150 195 238 294 347
#     4  10  21  37  57  82 116 156 194 238 293 356
#     4  11  22  39  60  86 114 154 201 243 289 352
#     4  11  21  37  60  89 119 149 194 245 293 349
#     4  11  23  38  58  84 120 154 192 245 299 352
#
# _framework density 18.792695999999999
#
# number of rings (size 3 to 8) (size 9 to 14) (size 15 to 20)
#    0.000    1.500    1.667    5.000    2.333    0.333 
#    0.000    0.833    0.000    2.000    0.000    0.000 
#    0.000    0.000    0.000    0.000    0.000    0.000 
#
# Total GULP energy -267931.029250 kJ/mol
# GULP energy per Si atom -5581.896443 kJ/mol
# Density = 1.874992 g / cm^3
# Si number density = 18.792696 Si / 1000 Ang^3
#
#
#
# Elastic Constant Matrix: (Units=GPa)
#
#
# Indices 1 2 3 4 5 6 
#
# 1 81.6937 13.3993 2.6864 0.0000 0.0000 0.0000
# 2 13.3993 51.8770 4.0760 0.0000 0.0000 0.0000
# 3 2.6864 4.0760 59.0116 0.0000 0.0000 0.0000
# 4 0.0000 0.0000 0.0000 -7.6819 0.0000 0.0000
# 5 0.0000 0.0000 0.0000 0.0000 14.0113 0.0000
# 6 0.0000 0.0000 0.0000 0.0000 0.0000 27.7763
#
#
#
# Elastic Compliance Matrix: (Units=1/GPa)
#
#
# Indices 1 2 3 4 5 6 
#
# 1 0.012790 -0.003275 -0.000356 0.000000 0.000000 0.000000
# 2 -0.003275 0.020220 -0.001248 0.000000 0.000000 0.000000
# 3 -0.000356 -0.001248 0.017048 0.000000 0.000000 0.000000
# 4 0.000000 0.000000 0.000000 -0.130177 0.000000 0.000000
# 5 0.000000 0.000000 0.000000 0.000000 0.071371 0.000000
# 6 0.000000 0.000000 0.000000 0.000000 0.000000 0.036002
#
#
# Mechanical properties :
#
#
# Convention : Reuss Voigt Hill
#
# Bulk Modulus (GPa) = 24.81370 25.87842 25.34606
# Shear Modulus (GPa) = 99.11630 18.31586 58.71608
#
# Velocity S-wave (km/s) = 7.27024 3.12529 5.59571
# Velocity P-wave (km/s) = 9.14920 5.17915 7.43409
#
# Compressibility (1/GPa) = 0.04030031
#
# Stress axis : x y z
#
# Youngs Moduli (GPa) = 78.18729 49.45501 58.65722
#
# Poissons Ratio (x) = 0.16199 0.02088
# Poissons Ratio (y) = 0.25610 0.07318
# Poissons Ratio (z) = 0.02783 0.06170
#
# Static dielectric constant tensor:
#      x y z
#    x 1.640030 0.000000 0.000000 
#    y 0.000000 1.634160 0.000000 
#    z 0.000000 0.000000 1.636490 
# 
# From -- ./inp_files/50663.got.cif
#   From: 2010.05.17/outbox.cif.g08.bks.cpg/sg64_26_cif.got.tgz:50663.got - 2010.06.03 16:29:19.
