data_PCOD9478690
_publ_section_title
;
Structure prediction by ZEFSAII (Michael W. Deem and Ramdas Pophale) SiO2 
 PCOD9478690
Probable space group: C M C A
;
_chemical_formula_sum "Si O2"
_cell_formula_units_Z 96
_cell_length_a 14.744142
_cell_length_b 9.130455
_cell_length_c 30.210135
_cell_angle_alpha 90.000000
_cell_angle_beta 90.000000
_cell_angle_gamma 90.000000
_cell_volume 4066.910277
_symmetry_space_group_name_H-M "C M C A"
_symmetry_group_IT_number 64
_symmetry_cell_setting 'orthorhombic'
loop_
_space_group_symop_operation_xyz
x,y,z
-x,1/2-y,1/2+z
x,-y,-z
-x,1/2+y,1/2-z
-x,-y,-z
x,1/2+y,1/2-z
-x,y,z
x,1/2-y,1/2+z
1/2+x,1/2+y,z
1/2-x,-y,1/2+z
1/2+x,1/2-y,-z
1/2-x,y,1/2-z
1/2-x,1/2-y,-z
1/2+x,y,1/2-z
1/2-x,1/2+y,z
1/2+x,-y,1/2+z
loop_
_atom_site_type_symbol
_atom_site_label
_atom_site_fract_x
_atom_site_fract_y
_atom_site_fract_z
Si Si1 0.110781 0.908647 0.712449
Si Si2 0.659531 0.166170 0.486163
Si Si3 0.611036 0.756806 0.198819
Si Si4 0.890028 0.410922 0.610324
Si Si5 0.598743 0.405871 0.540119
Si Si6 0.388662 0.252184 0.123291
O O1 0.139201 0.840629 0.759187
O O2 0.136570 0.803027 0.671897
O O3 0.000000 0.912159 0.712948
O O4 0.141361 0.075224 0.704319
O O5 0.750000 0.250000 0.500000
O O6 0.640464 0.169501 0.434289
O O7 0.589084 0.249113 0.517058
O O8 0.660358 0.000000 0.500000
O O9 0.500000 0.759057 0.198564
O O10 0.639454 0.679786 0.153358
O O11 0.859628 0.581376 0.613177
O O12 0.000000 0.414590 0.609966
O O13 0.639669 0.500000 0.500000
O O14 0.500000 0.474522 0.549358
O O15 0.643935 0.366974 0.586733
O O16 0.500000 0.249954 0.120517
#
# Coordination Sequence:
#
# PCOD9478690 Si02
#       6
#    16  16  16  16  16  16
#     4   9  16  27  45  75 119 156 183 224 285 343
#     4  12  25  42  59  80 114 153 199 243 296 355
#     4   9  17  28  47  78 117 155 186 228 282 345
#     4  10  20  35  58  85 114 150 195 240 291 348
#     4  10  21  36  58  86 116 148 190 242 293 347
#     4   9  17  30  50  78 112 150 186 230 288 342
#
# _framework density 23.605143999999999
#
# number of rings (size 3 to 8) (size 9 to 14) (size 15 to 20)
#    0.000    2.167    1.667    2.000    2.333    4.667 
#    0.000    0.000    0.000    0.000    0.000    1.167 
#    0.000    0.000    0.000    0.000    0.000    0.000 
#
# Total GULP energy -268199.916025 kJ/mol
# GULP energy per Si atom -5587.498251 kJ/mol
# Density = 2.355142 g / cm^3
# Si number density = 23.605144 Si / 1000 Ang^3
#
#
#
# Elastic Constant Matrix: (Units=GPa)
#
#
# Indices 1 2 3 4 5 6 
#
# 1 44.4325 -8.8717 -12.3708 0.0000 0.0000 0.0000
# 2 -8.8717 88.6271 36.3092 0.0000 0.0000 0.0000
# 3 -12.3708 36.3092 211.7325 0.0000 0.0000 0.0000
# 4 0.0000 0.0000 0.0000 48.3973 0.0000 0.0000
# 5 0.0000 0.0000 0.0000 0.0000 12.2135 0.0000
# 6 0.0000 0.0000 0.0000 0.0000 0.0000 2072.1203
#
#
#
# Elastic Compliance Matrix: (Units=1/GPa)
#
#
# Indices 1 2 3 4 5 6 
#
# 1 0.023171 0.001898 0.001028 0.000000 0.000000 0.000000
# 2 0.001898 0.012291 -0.001997 0.000000 0.000000 0.000000
# 3 0.001028 -0.001997 0.005125 0.000000 0.000000 0.000000
# 4 0.000000 0.000000 0.000000 0.020662 0.000000 0.000000
# 5 0.000000 0.000000 0.000000 0.000000 0.081877 0.000000
# 6 0.000000 0.000000 0.000000 0.000000 0.000000 0.000483
#
#
# Mechanical properties :
#
#
# Convention : Reuss Voigt Hill
#
# Bulk Modulus (GPa) = 23.55858 41.65840 32.60849
# Shear Modulus (GPa) = 32.07194 448.52793 240.29994
#
# Velocity S-wave (km/s) = 3.69003 13.79947 10.10054
# Velocity P-wave (km/s) = 5.30632 16.47989 12.24222
#
# Compressibility (1/GPa) = 0.04244738
#
# Stress axis : x y z
#
# Youngs Moduli (GPa) = 43.15676 81.35812 195.10440
#
# Poissons Ratio (x) = -0.15443 -0.20063
# Poissons Ratio (y) = -0.08192 0.38960
# Poissons Ratio (z) = -0.04438 0.16246
#
# Static dielectric constant tensor:
#      x y z
#    x 2.046210 0.000000 0.000000 
#    y 0.000000 1.850480 0.000000 
#    z 0.000000 0.000000 1.850110 
# 
# From -- ./inp_files/50675.got.cif
#   From: 2010.05.17/outbox.cif.g08.bks.cpg/sg64_26_cif.got.tgz:50675.got - 2010.06.03 16:29:19.
