data_PCOD9478971
_publ_section_title
;
Structure prediction by ZEFSAII (Michael W. Deem and Ramdas Pophale) SiO2 
 PCOD9478971
Probable space group: C M C A
;
_chemical_formula_sum "Si O2"
_cell_formula_units_Z 64
_cell_length_a 18.236167
_cell_length_b 17.806154
_cell_length_c 11.345614
_cell_angle_alpha 90.000000
_cell_angle_beta 90.000000
_cell_angle_gamma 90.000000
_cell_volume 3684.102373
_symmetry_space_group_name_H-M "C M C A"
_symmetry_group_IT_number 64
_symmetry_cell_setting 'orthorhombic'
loop_
_space_group_symop_operation_xyz
x,y,z
-x,1/2-y,1/2+z
x,-y,-z
-x,1/2+y,1/2-z
-x,-y,-z
x,1/2+y,1/2-z
-x,y,z
x,1/2-y,1/2+z
1/2+x,1/2+y,z
1/2-x,-y,1/2+z
1/2+x,1/2-y,-z
1/2-x,y,1/2-z
1/2-x,1/2-y,-z
1/2+x,y,1/2-z
1/2-x,1/2+y,z
1/2+x,-y,1/2+z
loop_
_atom_site_type_symbol
_atom_site_label
_atom_site_fract_x
_atom_site_fract_y
_atom_site_fract_z
Si Si1 0.500000 0.821051 0.934369
Si Si2 0.379195 0.044826 0.692842
Si Si3 0.500000 0.857253 0.437813
Si Si4 0.000000 0.082607 0.202156
Si Si5 0.738472 0.500000 0.000000
Si Si6 0.124502 0.079220 0.538172
O O1 0.500000 0.856827 0.804716
O O2 0.500000 0.731874 0.928203
O O3 0.428012 0.853960 0.999997
O O4 0.429537 0.104693 0.623728
O O5 0.311671 0.020921 0.610796
O O6 0.361847 0.076586 0.821977
O O7 0.429741 0.971562 0.711648
O O8 0.500000 0.881065 0.573750
O O9 0.795694 0.568704 0.022374
O O10 0.086801 0.000000 0.500000
#
# Coordination Sequence:
#
# PCOD9478971 Si02
#       6
#     8  16   8   8   8  16
#     4  12  23  40  53  93 120 149 203 229 317 340
#     4  11  19  40  60  88 113 148 209 235 291 342
#     4  11  25  34  62  87 118 157 182 259 287 351
#     4  11  19  37  63  80 113 159 190 254 271 351
#     4  10  20  36  62  90 108 148 204 236 284 346
#     4  10  22  35  62  85 114 155 187 251 280 347
#
# _framework density 17.371939000000001
#
# number of rings (size 3 to 8) (size 9 to 14) (size 15 to 20)
#    0.750    0.500    5.000    3.375    3.500    0.000 
#    0.000    1.250    0.000    0.000    0.000    0.000 
#    0.000    0.000    0.000    0.000    0.000    0.000 
#
# Total GULP energy -178407.187526 kJ/mol
# GULP energy per Si atom -5575.224610 kJ/mol
# Density = 1.733240 g / cm^3
# Si number density = 17.371939 Si / 1000 Ang^3
#
#
#
# Elastic Constant Matrix: (Units=GPa)
#
#
# Indices 1 2 3 4 5 6 
#
# 1 119.9210 38.5912 43.5710 0.0000 0.0000 0.0000
# 2 38.5912 105.0539 47.5963 0.0000 0.0000 0.0000
# 3 43.5710 47.5963 127.3652 0.0000 0.0000 0.0000
# 4 0.0000 0.0000 0.0000 13.8845 0.0000 0.0000
# 5 0.0000 0.0000 0.0000 0.0000 20.3602 0.0000
# 6 0.0000 0.0000 0.0000 0.0000 0.0000 9.4187
#
#
#
# Elastic Compliance Matrix: (Units=1/GPa)
#
#
# Indices 1 2 3 4 5 6 
#
# 1 0.010069 -0.002574 -0.002483 0.000000 0.000000 0.000000
# 2 -0.002574 0.012117 -0.003648 0.000000 0.000000 0.000000
# 3 -0.002483 -0.003648 0.010064 0.000000 0.000000 0.000000
# 4 0.000000 0.000000 0.000000 0.072023 0.000000 0.000000
# 5 0.000000 0.000000 0.000000 0.000000 0.049116 0.000000
# 6 0.000000 0.000000 0.000000 0.000000 0.000000 0.106172
#
#
# Mechanical properties :
#
#
# Convention : Reuss Voigt Hill
#
# Bulk Modulus (GPa) = 67.37873 67.98410 67.68142
# Shear Modulus (GPa) = 17.73578 23.57145 20.65361
#
# Velocity S-wave (km/s) = 3.19869 3.68757 3.45179
# Velocity P-wave (km/s) = 7.24654 7.57300 7.41156
#
# Compressibility (1/GPa) = 0.01484148
#
# Stress axis : x y z
#
# Youngs Moduli (GPa) = 99.31261 82.52810 99.36549
#
# Poissons Ratio (x) = 0.21243 0.24670
# Poissons Ratio (y) = 0.25564 0.36244
# Poissons Ratio (z) = 0.24656 0.30103
#
# Static dielectric constant tensor:
#      x y z
#    x 1.613780 0.000000 0.000000 
#    y 0.000000 1.555800 0.000000 
#    z 0.000000 0.000000 1.607520 
# 
# From -- ./inp_files/15596.got.cif
#   From: 2010.05.17/outbox.cif.g08.bks.cpg/sg64_8_cif.got.tgz:15596.got - 2010.06.03 16:29:19.
