data_PCOD9478852
_publ_section_title
;
Structure prediction by ZEFSAII (Michael W. Deem and Ramdas Pophale) SiO2 
 PCOD9478852
Probable space group: C M C A
;
_chemical_formula_sum "Si O2"
_cell_formula_units_Z 96
_cell_length_a 8.118428
_cell_length_b 21.323648
_cell_length_c 27.590363
_cell_angle_alpha 90.000000
_cell_angle_beta 90.000000
_cell_angle_gamma 90.000000
_cell_volume 4776.291923
_symmetry_space_group_name_H-M "C M C A"
_symmetry_group_IT_number 64
_symmetry_cell_setting 'orthorhombic'
loop_
_space_group_symop_operation_xyz
x,y,z
-x,1/2-y,1/2+z
x,-y,-z
-x,1/2+y,1/2-z
-x,-y,-z
x,1/2+y,1/2-z
-x,y,z
x,1/2-y,1/2+z
1/2+x,1/2+y,z
1/2-x,-y,1/2+z
1/2+x,1/2-y,-z
1/2-x,y,1/2-z
1/2-x,1/2-y,-z
1/2+x,y,1/2-z
1/2-x,1/2+y,z
1/2+x,-y,1/2+z
loop_
_atom_site_type_symbol
_atom_site_label
_atom_site_fract_x
_atom_site_fract_y
_atom_site_fract_z
Si Si1 0.301464 0.685749 0.360777
Si Si2 0.196983 0.312687 0.527713
Si Si3 0.801475 0.935641 0.139558
Si Si4 0.298406 0.937444 0.471777
Si Si5 0.300779 0.310620 0.194168
Si Si6 0.197063 0.061393 0.305807
O O1 0.500000 0.685674 0.357424
O O2 0.256322 0.687202 0.417058
O O3 0.241692 0.748113 0.333261
O O4 0.239982 0.622717 0.334492
O O5 0.250000 0.250000 0.500000
O O6 0.256592 0.374741 0.499423
O O7 0.000000 0.314910 0.527923
O O8 0.743136 0.937880 0.083990
O O9 0.741360 0.873433 0.167168
O O10 0.000000 0.932147 0.138069
O O11 0.755346 0.998110 0.168310
O O12 0.500000 0.937248 0.471596
O O13 0.246113 0.000000 0.500000
O O14 0.500000 0.310768 0.192122
O O15 0.250000 0.310350 0.250000
O O16 0.250000 0.063106 0.250000
O O17 0.000000 0.062274 0.307426
#
# Coordination Sequence:
#
# PCOD9478852 Si02
#       6
#    16  16  16  16  16  16
#     4  10  22  40  59  82 113 147 186 232 280 330
#     4  11  22  37  60  87 115 148 186 229 278 333
#     4  10  20  36  58  82 111 146 185 229 275 327
#     4   9  18  34  57  83 110 145 188 228 269 324
#     4  10  21  37  57  80 109 146 187 233 280 329
#     4  11  23  38  58  84 115 149 186 232 282 334
#
# _framework density 20.099274000000001
#
# number of rings (size 3 to 8) (size 9 to 14) (size 15 to 20)
#    0.000    1.833    0.000    4.000    0.000    8.000 
#    0.000    3.333    0.000    4.500    0.000    0.000 
#    0.000    0.000    0.000    0.000    0.000    0.000 
#
# Total GULP energy -268326.418690 kJ/mol
# GULP energy per Si atom -5590.133723 kJ/mol
# Density = 2.005353 g / cm^3
# Si number density = 20.099274 Si / 1000 Ang^3
#
#
#
# Elastic Constant Matrix: (Units=GPa)
#
#
# Indices 1 2 3 4 5 6 
#
# 1 9.7133 13.5835 5.3312 0.0000 0.0000 0.0000
# 2 13.5835 242.8454 143.6291 0.0000 0.0000 0.0000
# 3 5.3312 143.6291 231.7417 0.0000 0.0000 0.0000
# 4 0.0000 0.0000 0.0000 48.8504 0.0000 0.0000
# 5 0.0000 0.0000 0.0000 0.0000 27.5339 0.0000
# 6 0.0000 0.0000 0.0000 0.0000 0.0000 16.1866
#
#
#
# Elastic Compliance Matrix: (Units=1/GPa)
#
#
# Indices 1 2 3 4 5 6 
#
# 1 0.112313 -0.007505 0.002068 0.000000 0.000000 0.000000
# 2 -0.007505 0.007002 -0.004167 0.000000 0.000000 0.000000
# 3 0.002068 -0.004167 0.006850 0.000000 0.000000 0.000000
# 4 0.000000 0.000000 0.000000 0.020471 0.000000 0.000000
# 5 0.000000 0.000000 0.000000 0.000000 0.036319 0.000000
# 6 0.000000 0.000000 0.000000 0.000000 0.000000 0.061780
#
#
# Mechanical properties :
#
#
# Convention : Reuss Voigt Hill
#
# Bulk Modulus (GPa) = 9.34962 89.93200 49.64081
# Shear Modulus (GPa) = 16.68915 39.96462 28.32688
#
# Velocity S-wave (km/s) = 2.88468 4.46394 3.75820
# Velocity P-wave (km/s) = 3.96951 8.45045 6.60178
#
# Compressibility (1/GPa) = 0.10695616
#
# Stress axis : x y z
#
# Youngs Moduli (GPa) = 8.90371 142.80931 145.97747
#
# Poissons Ratio (x) = 1.07181 -0.30186
# Poissons Ratio (y) = 0.06682 0.60833
# Poissons Ratio (z) = -0.01841 0.59512
#
# Static dielectric constant tensor:
#      x y z
#    x 1.721100 0.000000 0.000000 
#    y 0.000000 1.692370 0.000000 
#    z 0.000000 0.000000 1.658490 
# 
# From -- ./inp_files/48090.got.cif
#   From: 2010.05.17/outbox.cif.g08.bks.cpg/sg64_25_cif.got.tgz:48090.got - 2010.06.03 16:29:19.
