data_PCOD9478762
_publ_section_title
;
Structure prediction by ZEFSAII (Michael W. Deem and Ramdas Pophale) SiO2 
 PCOD9478762
Probable space group: C M C A
;
_chemical_formula_sum "Si O2"
_cell_formula_units_Z 96
_cell_length_a 14.831354
_cell_length_b 11.286019
_cell_length_c 26.399864
_cell_angle_alpha 90.000000
_cell_angle_beta 90.000000
_cell_angle_gamma 90.000000
_cell_volume 4418.992532
_symmetry_space_group_name_H-M "C M C A"
_symmetry_group_IT_number 64
_symmetry_cell_setting 'orthorhombic'
loop_
_space_group_symop_operation_xyz
x,y,z
-x,1/2-y,1/2+z
x,-y,-z
-x,1/2+y,1/2-z
-x,-y,-z
x,1/2+y,1/2-z
-x,y,z
x,1/2-y,1/2+z
1/2+x,1/2+y,z
1/2-x,-y,1/2+z
1/2+x,1/2-y,-z
1/2-x,y,1/2-z
1/2-x,1/2-y,-z
1/2+x,y,1/2-z
1/2-x,1/2+y,z
1/2+x,-y,1/2+z
loop_
_atom_site_type_symbol
_atom_site_label
_atom_site_fract_x
_atom_site_fract_y
_atom_site_fract_z
Si Si1 0.839727 0.825502 0.140201
Si Si2 0.239796 0.536036 0.405392
Si Si3 0.208328 0.338780 0.694859
Si Si4 0.604354 0.867101 0.523894
Si Si5 0.500000 0.103302 0.710127
Si Si6 0.898879 0.344419 0.944928
Si Si7 0.500000 0.339816 0.777970
O O1 0.758543 0.779028 0.174814
O O2 0.889345 0.720509 0.109838
O O3 0.801195 0.907006 0.095805
O O4 0.912716 0.892734 0.174087
O O5 0.244018 0.566404 0.345988
O O6 0.171184 0.631518 0.428962
O O7 0.328157 0.550364 0.438893
O O8 0.250000 0.364674 0.750000
O O9 0.099252 0.330187 0.695550
O O10 0.500000 0.860632 0.539691
O O11 0.621012 0.756303 0.486839
O O12 0.615624 0.000000 0.500000
O O13 0.500000 0.978450 0.740305
O O14 0.500000 0.227253 0.740330
O O15 0.000000 0.385880 0.952812
#
# Coordination Sequence:
#
# PCOD9478762 Si02
#       7
#    16  16  16  16   8  16   8
#     4  11  22  40  65  92 129 170 223 276 332 407
#     4  11  23  38  67  94 129 174 217 279 336 407
#     4  11  25  43  63  97 130 173 224 279 344 407
#     4  10  20  35  64  98 128 165 221 276 333 404
#     4  12  24  44  70  94 133 177 233 287 346 413
#     4  10  21  39  62  95 129 166 215 269 333 400
#     4  12  26  46  70  95 132 181 226 290 350 411
#
# _framework density 21.724409000000001
#
# number of rings (size 3 to 8) (size 9 to 14) (size 15 to 20)
#    0.000    1.167    5.833    0.500    2.333    2.000 
#    1.500    0.000    0.000    0.500    0.000    0.000 
#    0.000    0.000    0.000    0.000    0.000    0.000 
#
# Total GULP energy -267690.291619 kJ/mol
# GULP energy per Si atom -5576.881075 kJ/mol
# Density = 2.167496 g / cm^3
# Si number density = 21.724409 Si / 1000 Ang^3
#
#
#
# Elastic Constant Matrix: (Units=GPa)
#
#
# Indices 1 2 3 4 5 6 
#
# 1 71.0276 23.5963 7.3230 0.0000 0.0000 0.0000
# 2 23.5963 60.7326 -7.8158 0.0000 0.0000 0.0000
# 3 7.3230 -7.8158 53.7917 0.0000 0.0000 0.0000
# 4 0.0000 0.0000 0.0000 26.5619 0.0000 0.0000
# 5 0.0000 0.0000 0.0000 0.0000 25.3249 0.0000
# 6 0.0000 0.0000 0.0000 0.0000 0.0000 20.4882
#
#
#
# Elastic Compliance Matrix: (Units=1/GPa)
#
#
# Indices 1 2 3 4 5 6 
#
# 1 0.016715 -0.006916 -0.003280 0.000000 0.000000 0.000000
# 2 -0.006916 0.019641 0.003795 0.000000 0.000000 0.000000
# 3 -0.003280 0.003795 0.019588 0.000000 0.000000 0.000000
# 4 0.000000 0.000000 0.000000 0.037648 0.000000 0.000000
# 5 0.000000 0.000000 0.000000 0.000000 0.039487 0.000000
# 6 0.000000 0.000000 0.000000 0.000000 0.000000 0.048809
#
#
# Mechanical properties :
#
#
# Convention : Reuss Voigt Hill
#
# Bulk Modulus (GPa) = 23.17946 25.75098 24.46522
# Shear Modulus (GPa) = 23.91529 25.30490 24.61010
#
# Velocity S-wave (km/s) = 3.32150 3.41664 3.36941
# Velocity P-wave (km/s) = 5.04012 5.23868 5.14036
#
# Compressibility (1/GPa) = 0.04314165
#
# Stress axis : x y z
#
# Youngs Moduli (GPa) = 59.82666 50.91321 51.05096
#
# Poissons Ratio (x) = 0.35214 0.16747
# Poissons Ratio (y) = 0.41378 -0.19376
# Poissons Ratio (z) = 0.19626 -0.19324
#
# Static dielectric constant tensor:
#      x y z
#    x 1.817030 0.000000 0.000000 
#    y 0.000000 1.848020 0.000000 
#    z 0.000000 0.000000 1.799320 
# 
# From -- ./inp_files/53211.got.cif
#   From: 2010.05.17/outbox.cif.g08.bks.cpg/sg64_27_cif.got.tgz:53211.got - 2010.06.03 16:29:19.
