data_PCOD9478177
_publ_section_title
;
Structure prediction by ZEFSAII (Michael W. Deem and Ramdas Pophale) SiO2 
 PCOD9478177
Probable space group: C M C A
;
_chemical_formula_sum "Si O2"
_cell_formula_units_Z 72
_cell_length_a 15.167342
_cell_length_b 7.120118
_cell_length_c 25.648750
_cell_angle_alpha 90.000000
_cell_angle_beta 90.000000
_cell_angle_gamma 90.000000
_cell_volume 2769.892250
_symmetry_space_group_name_H-M "C M C A"
_symmetry_group_IT_number 64
_symmetry_cell_setting 'orthorhombic'
loop_
_space_group_symop_operation_xyz
x,y,z
-x,1/2-y,1/2+z
x,-y,-z
-x,1/2+y,1/2-z
-x,-y,-z
x,1/2+y,1/2-z
-x,y,z
x,1/2-y,1/2+z
1/2+x,1/2+y,z
1/2-x,-y,1/2+z
1/2+x,1/2-y,-z
1/2-x,y,1/2-z
1/2-x,1/2-y,-z
1/2+x,y,1/2-z
1/2-x,1/2+y,z
1/2+x,-y,1/2+z
loop_
_atom_site_type_symbol
_atom_site_label
_atom_site_fract_x
_atom_site_fract_y
_atom_site_fract_z
Si Si1 0.500000 0.431579 0.373069
Si Si2 0.360582 0.216453 0.798255
Si Si3 0.862162 0.273354 0.045930
Si Si4 0.345694 0.855374 0.318845
Si Si5 0.845105 0.334461 0.434337
O O1 0.575521 0.421869 0.327213
O O2 0.575571 0.388836 0.417350
O O3 0.377402 0.223566 0.736374
O O4 0.373046 0.426526 0.819596
O O5 0.260288 0.157565 0.811509
O O6 0.760854 0.326132 0.058797
O O7 0.872429 0.051240 0.058733
O O8 0.878889 0.282224 0.983865
O O9 0.371445 0.777196 0.375719
#
# Coordination Sequence:
#
# PCOD9478177 Si02
#       5
#     8  16  16  16  16
#     4  12  22  41  56 101 126 156 189 277 305 354
#     4  11  24  37  68  88 126 159 212 248 311 346
#     4  10  22  37  69  92 123 156 209 245 320 345
#     4  11  20  42  60  95 114 172 208 246 286 393
#     4  10  19  40  65  94 114 168 204 251 283 396
#
# _framework density 25.993791000000002
#
# number of rings (size 3 to 8) (size 9 to 14) (size 15 to 20)
#    0.000    1.333    4.444    2.667    0.000    2.667 
#    0.000    0.000    0.000   16.000    0.000    0.000 
#    0.000    0.000    0.000    0.000    0.000    0.000 
#
# Total GULP energy -200778.863908 kJ/mol
# GULP energy per Si atom -5577.190664 kJ/mol
# Density = 2.593463 g / cm^3
# Si number density = 25.993791 Si / 1000 Ang^3
#
#
#
# Elastic Constant Matrix: (Units=GPa)
#
#
# Indices 1 2 3 4 5 6 
#
# 1 22.5815 4.5441 36.5652 0.0000 0.0000 0.0000
# 2 4.5441 96.2040 50.9586 0.0000 0.0000 0.0000
# 3 36.5652 50.9586 313.4933 0.0000 0.0000 0.0000
# 4 0.0000 0.0000 0.0000 46.1175 0.0000 0.0000
# 5 0.0000 0.0000 0.0000 0.0000 61.8973 0.0000
# 6 0.0000 0.0000 0.0000 0.0000 0.0000 78.2622
#
#
#
# Elastic Compliance Matrix: (Units=1/GPa)
#
#
# Indices 1 2 3 4 5 6 
#
# 1 0.054662 0.000870 -0.006517 0.000000 0.000000 0.000000
# 2 0.000870 0.011388 -0.001953 0.000000 0.000000 0.000000
# 3 -0.006517 -0.001953 0.004267 0.000000 0.000000 0.000000
# 4 0.000000 0.000000 0.000000 0.021684 0.000000 0.000000
# 5 0.000000 0.000000 0.000000 0.000000 0.016156 0.000000
# 6 0.000000 0.000000 0.000000 0.000000 0.000000 0.012778
#
#
# Mechanical properties :
#
#
# Convention : Reuss Voigt Hill
#
# Bulk Modulus (GPa) = 18.14292 68.49053 43.31673
# Shear Modulus (GPa) = 32.36127 59.93611 46.14869
#
# Velocity S-wave (km/s) = 3.53223 4.80707 4.21809
# Velocity P-wave (km/s) = 4.86111 7.56416 6.35795
#
# Compressibility (1/GPa) = 0.05511791
#
# Stress axis : x y z
#
# Youngs Moduli (GPa) = 18.29432 87.81373 234.33507
#
# Poissons Ratio (x) = -0.07641 1.52718
# Poissons Ratio (y) = -0.01592 0.45756
# Poissons Ratio (z) = 0.11923 0.17146
#
# Static dielectric constant tensor:
#      x y z
#    x 2.006950 0.000000 0.000000 
#    y 0.000000 2.102360 0.000000 
#    z 0.000000 0.000000 2.010230 
# 
# From -- ./inp_files/49790.got.cif
#   From: 2010.05.17/outbox.cif.g08.bks.cpg/sg64_25_cif.got.tgz:49790.got - 2010.06.03 16:29:19.
