data_PCOD9478058
_publ_section_title
;
Structure prediction by ZEFSAII (Michael W. Deem and Ramdas Pophale) SiO2 
 PCOD9478058
Probable space group: C M C A
;
_chemical_formula_sum "Si O2"
_cell_formula_units_Z 88
_cell_length_a 17.053501
_cell_length_b 17.654450
_cell_length_c 15.706487
_cell_angle_alpha 90.000000
_cell_angle_beta 90.000000
_cell_angle_gamma 90.000000
_cell_volume 4728.754880
_symmetry_space_group_name_H-M "C M C A"
_symmetry_group_IT_number 64
_symmetry_cell_setting 'orthorhombic'
loop_
_space_group_symop_operation_xyz
x,y,z
-x,1/2-y,1/2+z
x,-y,-z
-x,1/2+y,1/2-z
-x,-y,-z
x,1/2+y,1/2-z
-x,y,z
x,1/2-y,1/2+z
1/2+x,1/2+y,z
1/2-x,-y,1/2+z
1/2+x,1/2-y,-z
1/2-x,y,1/2-z
1/2-x,1/2-y,-z
1/2+x,y,1/2-z
1/2-x,1/2+y,z
1/2+x,-y,1/2+z
loop_
_atom_site_type_symbol
_atom_site_label
_atom_site_fract_x
_atom_site_fract_y
_atom_site_fract_z
Si Si1 0.327784 0.272405 0.446806
Si Si2 0.000000 0.580263 0.454757
Si Si3 0.000000 0.236742 0.971758
Si Si4 0.000000 0.497145 0.897862
Si Si5 0.870974 0.859320 0.825559
Si Si6 0.000000 0.832644 0.690541
Si Si7 0.670085 0.950234 0.088720
Si Si8 0.250000 0.477096 0.750000
O O1 0.250000 0.250000 0.500000
O O2 0.416882 0.263352 0.485991
O O3 0.328827 0.211636 0.369941
O O4 0.319322 0.361536 0.428657
O O5 0.000000 0.500000 0.500000
O O6 0.000000 0.646585 0.523996
O O7 0.074926 0.597712 0.395186
O O8 0.000000 0.267831 0.877904
O O9 0.081725 0.536487 0.876206
O O10 0.000000 0.412797 0.859676
O O11 0.000000 0.500000 0.000000
O O12 0.817350 0.921238 0.782064
O O13 0.926281 0.827963 0.751899
O O14 0.724964 0.976635 0.166131
O O15 0.679856 0.000000 0.000000
#
# Coordination Sequence:
#
# PCOD9478058 Si02
#       8
#    16   8   8   8  16   8  16   8
#     4  11  24  44  68  95 133 178 224 275 336 401
#     4   9  21  45  64  86 119 172 220 263 322 392
#     4  10  22  41  67  96 123 177 227 261 328 404
#     4  10  19  36  67  92 122 164 219 271 323 387
#     4  10  24  40  62  92 132 168 214 273 331 403
#     4  11  20  42  65  94 130 175 210 275 347 382
#     4  11  23  41  66  98 128 170 227 276 327 401
#     4  12  24  40  64  96 134 170 214 274 338 392
#
# _framework density 18.609549999999999
#
# number of rings (size 3 to 8) (size 9 to 14) (size 15 to 20)
#    0.000    1.455    1.818    4.364    2.545    4.364 
#    3.273    0.000    0.000    0.000    0.000    0.000 
#    0.000    0.000    0.000    0.000    0.000    0.000 
#
# Total GULP energy -245320.607378 kJ/mol
# GULP energy per Si atom -5575.468350 kJ/mol
# Density = 1.856719 g / cm^3
# Si number density = 18.609550 Si / 1000 Ang^3
#
#
#
# Elastic Constant Matrix: (Units=GPa)
#
#
# Indices 1 2 3 4 5 6 
#
# 1 97.2623 49.8040 43.9478 0.0000 0.0000 0.0000
# 2 49.8040 175.2280 83.5893 0.0000 0.0000 0.0000
# 3 43.9478 83.5893 113.9455 0.0000 0.0000 0.0000
# 4 0.0000 0.0000 0.0000 26.7701 0.0000 0.0000
# 5 0.0000 0.0000 0.0000 0.0000 56.2783 0.0000
# 6 0.0000 0.0000 0.0000 0.0000 0.0000 15.0733
#
#
#
# Elastic Compliance Matrix: (Units=1/GPa)
#
#
# Indices 1 2 3 4 5 6 
#
# 1 0.012886 -0.001987 -0.003512 0.000000 0.000000 0.000000
# 2 -0.001987 0.009085 -0.005899 0.000000 0.000000 0.000000
# 3 -0.003512 -0.005899 0.014458 0.000000 0.000000 0.000000
# 4 0.000000 0.000000 0.000000 0.037355 0.000000 0.000000
# 5 0.000000 0.000000 0.000000 0.000000 0.017769 0.000000
# 6 0.000000 0.000000 0.000000 0.000000 0.000000 0.066343
#
#
# Mechanical properties :
#
#
# Convention : Reuss Voigt Hill
#
# Bulk Modulus (GPa) = 73.34911 82.34646 77.84778
# Shear Modulus (GPa) = 26.99255 33.56399 30.27827
#
# Velocity S-wave (km/s) = 3.81263 4.25148 4.03802
# Velocity P-wave (km/s) = 7.67345 8.27319 7.97896
#
# Compressibility (1/GPa) = 0.01363343
#
# Stress axis : x y z
#
# Youngs Moduli (GPa) = 77.60364 110.06636 69.16592
#
# Poissons Ratio (x) = 0.21870 0.24294
# Poissons Ratio (y) = 0.15420 0.40798
# Poissons Ratio (z) = 0.27257 0.64924
#
# Static dielectric constant tensor:
#      x y z
#    x 1.563990 0.000000 0.000000 
#    y 0.000000 1.602110 0.000000 
#    z 0.000000 0.000000 1.638740 
# 
# From -- ./inp_files/25472.got.cif
#   From: 2010.05.17/outbox.cif.g08.bks.cpg/sg64_13_cif.got.tgz:25472.got - 2010.06.03 16:29:19.
