data_PCOD9478267
_publ_section_title
;
Structure prediction by ZEFSAII (Michael W. Deem and Ramdas Pophale) SiO2 
 PCOD9478267
Probable space group: C M C A
;
_chemical_formula_sum "Si O2"
_cell_formula_units_Z 72
_cell_length_a 9.360473
_cell_length_b 18.075678
_cell_length_c 23.666858
_cell_angle_alpha 90.000000
_cell_angle_beta 90.000000
_cell_angle_gamma 90.000000
_cell_volume 4004.358909
_symmetry_space_group_name_H-M "C M C A"
_symmetry_group_IT_number 64
_symmetry_cell_setting 'orthorhombic'
loop_
_space_group_symop_operation_xyz
x,y,z
-x,1/2-y,1/2+z
x,-y,-z
-x,1/2+y,1/2-z
-x,-y,-z
x,1/2+y,1/2-z
-x,y,z
x,1/2-y,1/2+z
1/2+x,1/2+y,z
1/2-x,-y,1/2+z
1/2+x,1/2-y,-z
1/2-x,y,1/2-z
1/2-x,1/2-y,-z
1/2+x,y,1/2-z
1/2-x,1/2+y,z
1/2+x,-y,1/2+z
loop_
_atom_site_type_symbol
_atom_site_label
_atom_site_fract_x
_atom_site_fract_y
_atom_site_fract_z
Si Si1 0.836787 0.099888 0.845507
Si Si2 0.750000 0.486948 0.750000
Si Si3 0.157845 0.123135 0.347127
Si Si4 0.330106 0.244696 0.809225
Si Si5 0.834816 0.993192 0.433903
O O1 0.733799 0.168537 0.832714
O O2 0.000000 0.123892 0.853008
O O3 0.831440 0.042206 0.792758
O O4 0.773609 0.058572 0.900012
O O5 0.831436 0.432217 0.793120
O O6 0.279682 0.184581 0.344992
O O7 0.171069 0.071872 0.402065
O O8 0.000000 0.158126 0.345835
O O9 0.500000 0.241099 0.802787
O O10 0.250000 0.256312 0.750000
O O11 0.000000 0.966669 0.427391
O O12 0.803880 0.000000 0.500000
#
# Coordination Sequence:
#
# PCOD9478267 Si02
#       5
#    16   8  16  16  16
#     4  11  22  36  58  86 117 151 192 237 286 341
#     4  10  20  32  56  82 118 146 186 230 288 340
#     4  10  20  35  57  84 115 149 188 231 282 339
#     4  12  24  37  55  82 119 155 189 230 284 344
#     4   9  20  40  63  86 115 151 193 241 289 337
#
# _framework density 17.980405999999999
#
# number of rings (size 3 to 8) (size 9 to 14) (size 15 to 20)
#    0.000    1.556    2.222    3.333    0.000    5.778 
#    0.000    1.111    0.000    0.000    0.000    0.000 
#    0.000    0.000    0.000    0.000    0.000    0.000 
#
# Total GULP energy -200882.542049 kJ/mol
# GULP energy per Si atom -5580.070612 kJ/mol
# Density = 1.793948 g / cm^3
# Si number density = 17.980406 Si / 1000 Ang^3
#
#
#
# Elastic Constant Matrix: (Units=GPa)
#
#
# Indices 1 2 3 4 5 6 
#
# 1 152.9489 46.4076 30.2741 0.0000 0.0000 0.0000
# 2 46.4076 74.4603 13.3525 0.0000 0.0000 0.0000
# 3 30.2741 13.3525 86.0595 0.0000 0.0000 0.0000
# 4 0.0000 0.0000 0.0000 10.5600 0.0000 0.0000
# 5 0.0000 0.0000 0.0000 0.0000 13.5154 0.0000
# 6 0.0000 0.0000 0.0000 0.0000 0.0000 17.9456
#
#
#
# Elastic Compliance Matrix: (Units=1/GPa)
#
#
# Indices 1 2 3 4 5 6 
#
# 1 0.008456 -0.004872 -0.002219 0.000000 0.000000 0.000000
# 2 -0.004872 0.016622 -0.000865 0.000000 0.000000 0.000000
# 3 -0.002219 -0.000865 0.012535 0.000000 0.000000 0.000000
# 4 0.000000 0.000000 0.000000 0.094697 0.000000 0.000000
# 5 0.000000 0.000000 0.000000 0.000000 0.073990 0.000000
# 6 0.000000 0.000000 0.000000 0.000000 0.000000 0.055724
#
#
# Mechanical properties :
#
#
# Convention : Reuss Voigt Hill
#
# Bulk Modulus (GPa) = 46.08220 54.83746 50.45983
# Shear Modulus (GPa) = 17.53357 23.29982 20.41670
#
# Velocity S-wave (km/s) = 3.12612 3.60369 3.37337
# Velocity P-wave (km/s) = 6.22214 6.91955 6.58009
#
# Compressibility (1/GPa) = 0.02170035
#
# Stress axis : x y z
#
# Youngs Moduli (GPa) = 118.26542 60.16248 79.77960
#
# Poissons Ratio (x) = 0.29312 0.17700
# Poissons Ratio (y) = 0.57620 0.06901
# Poissons Ratio (z) = 0.26238 0.05204
#
# Static dielectric constant tensor:
#      x y z
#    x 1.619990 0.000000 0.000000 
#    y 0.000000 1.651490 0.000000 
#    z 0.000000 0.000000 1.596880 
# 
# From -- ./inp_files/36545.got.cif
#   From: 2010.05.17/outbox.cif.g08.bks.cpg/sg64_19_cif.got.tgz:36545.got - 2010.06.03 16:29:19.
