data_PCOD9478405
_publ_section_title
;
Structure prediction by ZEFSAII (Michael W. Deem and Ramdas Pophale) SiO2 
 PCOD9478405
Probable space group: C M C A
;
_chemical_formula_sum "Si O2"
_cell_formula_units_Z 112
_cell_length_a 11.700668
_cell_length_b 13.993415
_cell_length_c 25.089381
_cell_angle_alpha 90.000000
_cell_angle_beta 90.000000
_cell_angle_gamma 90.000000
_cell_volume 4107.942135
_symmetry_space_group_name_H-M "C M C A"
_symmetry_group_IT_number 64
_symmetry_cell_setting 'orthorhombic'
loop_
_space_group_symop_operation_xyz
x,y,z
-x,1/2-y,1/2+z
x,-y,-z
-x,1/2+y,1/2-z
-x,-y,-z
x,1/2+y,1/2-z
-x,y,z
x,1/2-y,1/2+z
1/2+x,1/2+y,z
1/2-x,-y,1/2+z
1/2+x,1/2-y,-z
1/2-x,y,1/2-z
1/2-x,1/2-y,-z
1/2+x,y,1/2-z
1/2-x,1/2+y,z
1/2+x,-y,1/2+z
loop_
_atom_site_type_symbol
_atom_site_label
_atom_site_fract_x
_atom_site_fract_y
_atom_site_fract_z
Si Si1 0.875142 0.356844 0.979899
Si Si2 0.874477 0.362940 0.758206
Si Si3 0.622663 0.198163 0.360716
Si Si4 0.129825 0.159591 0.782791
Si Si5 0.332884 0.520136 0.880894
Si Si6 0.622536 0.891301 0.104828
Si Si7 0.373089 0.128917 0.507979
O O1 0.884751 0.389472 0.041354
O O2 0.741130 0.386496 0.971523
O O3 0.000000 0.386290 0.955017
O O4 0.872707 0.241706 0.978474
O O5 0.750000 0.413530 0.750000
O O6 0.881380 0.304368 0.702632
O O7 0.865535 0.273443 0.798813
O O8 0.000000 0.410868 0.764385
O O9 0.500000 0.223951 0.385747
O O10 0.687537 0.292441 0.379914
O O11 0.633767 0.088087 0.373693
O O12 0.250000 0.142206 0.750000
O O13 0.127612 0.086670 0.832312
O O14 0.000000 0.147870 0.758592
O O15 0.196342 0.520744 0.876936
O O16 0.363740 0.569072 0.937242
O O17 0.500000 0.901719 0.130330
O O18 0.500000 0.108545 0.485534
#
# Coordination Sequence:
#
# PCOD9478405 Si02
#       7
#    16  16  16  16  16  16  16
#     4   8  15  28  48  75 107 145 184 219 262 320
#     4   9  18  33  51  70  98 134 171 215 268 323
#     4  10  20  35  54  78 108 141 179 226 279 328
#     4  10  20  34  52  75 102 136 177 220 270 328
#     4  11  21  34  56  81 108 141 182 227 277 329
#     4   9  18  34  56  80 111 151 188 222 268 328
#     4   9  16  28  48  77 110 140 176 225 274 318
#
# _framework density 27.264261000000001
#
# number of rings (size 3 to 8) (size 9 to 14) (size 15 to 20)
#    0.000    2.571    0.000    3.000    0.000    2.286 
#    0.000    1.429    0.000    8.571    0.000    0.000 
#    0.000   32.000    0.000    0.000    0.000    0.000 
#
# Total GULP energy -312138.871442 kJ/mol
# GULP energy per Si atom -5573.908419 kJ/mol
# Density = 2.720221 g / cm^3
# Si number density = 27.264261 Si / 1000 Ang^3
#
#
#
# Elastic Constant Matrix: (Units=GPa)
#
#
# Indices 1 2 3 4 5 6 
#
# 1 286.1297 53.3548 26.7980 0.0000 0.0000 0.0000
# 2 53.3548 88.6850 1.0429 0.0000 0.0000 0.0000
# 3 26.7980 1.0429 38.2135 0.0000 0.0000 0.0000
# 4 0.0000 0.0000 0.0000 25.7261 0.0000 0.0000
# 5 0.0000 0.0000 0.0000 0.0000 10.5025 0.0000
# 6 0.0000 0.0000 0.0000 0.0000 0.0000 9.5029
#
#
#
# Elastic Compliance Matrix: (Units=1/GPa)
#
#
# Indices 1 2 3 4 5 6 
#
# 1 0.004235 -0.002514 -0.002902 0.000000 0.000000 0.000000
# 2 -0.002514 0.012772 0.001414 0.000000 0.000000 0.000000
# 3 -0.002902 0.001414 0.028165 0.000000 0.000000 0.000000
# 4 0.000000 0.000000 0.000000 0.038871 0.000000 0.000000
# 5 0.000000 0.000000 0.000000 0.000000 0.095216 0.000000
# 6 0.000000 0.000000 0.000000 0.000000 0.000000 0.105231
#
#
# Mechanical properties :
#
#
# Convention : Reuss Voigt Hill
#
# Bulk Modulus (GPa) = 26.90353 63.93550 45.41951
# Shear Modulus (GPa) = 16.39977 31.26846 23.83412
#
# Velocity S-wave (km/s) = 2.45523 3.39022 2.95988
# Velocity P-wave (km/s) = 4.23399 6.23105 5.32694
#
# Compressibility (1/GPa) = 0.03716985
#
# Stress axis : x y z
#
# Youngs Moduli (GPa) = 236.10151 78.29795 35.50507
#
# Poissons Ratio (x) = 0.19684 0.10302
# Poissons Ratio (y) = 0.59357 -0.05022
# Poissons Ratio (z) = 0.68507 -0.11075
#
# Static dielectric constant tensor:
#      x y z
#    x 2.356590 0.000000 0.000000 
#    y 0.000000 2.122830 0.000000 
#    z 0.000000 0.000000 2.185650 
# 
# From -- ./inp_files/52839.got.cif
#   From: 2010.05.17/outbox.cif.g08.bks.cpg/sg64_27_cif.got.tgz:52839.got - 2010.06.03 16:29:19.
