data_PCOD9478187
_publ_section_title
;
Structure prediction by ZEFSAII (Michael W. Deem and Ramdas Pophale) SiO2 
 PCOD9478187
Probable space group: C M C A
;
_chemical_formula_sum "Si O2"
_cell_formula_units_Z 116
_cell_length_a 15.107932
_cell_length_b 20.529713
_cell_length_c 15.946640
_cell_angle_alpha 90.000000
_cell_angle_beta 90.000000
_cell_angle_gamma 90.000000
_cell_volume 4946.033910
_symmetry_space_group_name_H-M "C M C A"
_symmetry_group_IT_number 64
_symmetry_cell_setting 'orthorhombic'
loop_
_space_group_symop_operation_xyz
x,y,z
-x,1/2-y,1/2+z
x,-y,-z
-x,1/2+y,1/2-z
-x,-y,-z
x,1/2+y,1/2-z
-x,y,z
x,1/2-y,1/2+z
1/2+x,1/2+y,z
1/2-x,-y,1/2+z
1/2+x,1/2-y,-z
1/2-x,y,1/2-z
1/2-x,1/2-y,-z
1/2+x,y,1/2-z
1/2-x,1/2+y,z
1/2+x,-y,1/2+z
loop_
_atom_site_type_symbol
_atom_site_label
_atom_site_fract_x
_atom_site_fract_y
_atom_site_fract_z
Si Si1 0.000000 0.000000 0.500000
Si Si2 0.608220 0.278899 0.251174
Si Si3 0.896716 0.747590 0.439202
Si Si4 0.100848 0.415422 0.310912
Si Si5 0.607517 0.646701 0.320896
Si Si6 0.839003 0.884800 0.011262
Si Si7 0.143649 0.608680 0.999867
Si Si8 0.107238 0.557228 0.334475
O O1 0.923597 0.053311 0.525751
O O2 0.500000 0.280751 0.249554
O O3 0.633887 0.255544 0.343487
O O4 0.641179 0.351061 0.230906
O O5 0.633350 0.222406 0.185987
O O6 0.845133 0.691389 0.487529
O O7 0.890170 0.819031 0.478276
O O8 0.000000 0.726676 0.438417
O O9 0.099853 0.400712 0.410270
O O10 0.140967 0.487069 0.303218
O O11 0.000000 0.419940 0.278345
O O12 0.500000 0.642362 0.332092
O O13 0.649742 0.609906 0.398876
O O14 0.629980 0.611854 0.233722
O O15 0.739679 0.901158 0.038053
O O16 0.862536 0.924049 0.927323
O O17 0.000000 0.554049 0.337473
#
# Coordination Sequence:
#
# PCOD9478187 Si02
#       8
#     4  16  16  16  16  16  16  16
#     4  12  28  52  64  92 130 192 236 280 332 424
#     4   9  19  36  66  95 131 174 221 272 331 414
#     4  11  21  43  69 103 139 177 227 287 348 411
#     4  10  21  38  63  99 134 177 220 277 349 420
#     4  10  19  41  65  91 123 172 227 269 333 412
#     4  12  24  40  68 101 138 172 226 293 343 412
#     4  12  27  44  69  97 130 186 238 279 337 407
#     4  10  21  38  64  97 133 174 221 277 356 413
#
# _framework density 23.453135
#
# number of rings (size 3 to 8) (size 9 to 14) (size 15 to 20)
#    0.000    1.379    2.759    2.897    1.931    3.862 
#    2.483    2.069    3.034    0.000    0.000    0.000 
#    0.000    0.000    0.000    0.000    0.000    0.000 
#
# Total GULP energy -324024.143329 kJ/mol
# GULP energy per Si atom -5586.623161 kJ/mol
# Density = 2.339975 g / cm^3
# Si number density = 23.453135 Si / 1000 Ang^3
#
#
#
# Elastic Constant Matrix: (Units=GPa)
#
#
# Indices 1 2 3 4 5 6 
#
# 1 78.1027 20.5420 -5.5251 0.0000 0.0000 0.0000
# 2 20.5420 130.1762 -12.3500 0.0000 0.0000 0.0000
# 3 -5.5251 -12.3500 31.5611 0.0000 0.0000 0.0000
# 4 0.0000 0.0000 0.0000 22.0677 0.0000 0.0000
# 5 0.0000 0.0000 0.0000 0.0000 16.1011 0.0000
# 6 0.0000 0.0000 0.0000 0.0000 0.0000 -344.4552
#
#
#
# Elastic Compliance Matrix: (Units=1/GPa)
#
#
# Indices 1 2 3 4 5 6 
#
# 1 0.013434 -0.001970 0.001581 0.000000 0.000000 0.000000
# 2 -0.001970 0.008267 0.002890 0.000000 0.000000 0.000000
# 3 0.001581 0.002890 0.033092 0.000000 0.000000 0.000000
# 4 0.000000 0.000000 0.000000 0.045315 0.000000 0.000000
# 5 0.000000 0.000000 0.000000 0.000000 0.062107 0.000000
# 6 0.000000 0.000000 0.000000 0.000000 0.000000 -0.002903
#
#
# Mechanical properties :
#
#
# Convention : Reuss Voigt Hill
#
# Bulk Modulus (GPa) = 16.72386 27.24154 21.98270
# Shear Modulus (GPa) = 28.69576 -45.44575 -8.37499
#
# Velocity S-wave (km/s) = 3.50170 -4.40674 -1.89175
# Velocity P-wave (km/s) = 4.84721 3.77517 2.14983
#
# Compressibility (1/GPa) = 0.05979482
#
# Stress axis : x y z
#
# Youngs Moduli (GPa) = 74.44024 120.96394 30.21860
#
# Poissons Ratio (x) = 0.23828 -0.04777
# Poissons Ratio (y) = 0.14664 -0.08733
# Poissons Ratio (z) = -0.11768 -0.34959
#
# Static dielectric constant tensor:
#      x y z
#    x 1.877800 0.000000 0.000000 
#    y 0.000000 1.876810 0.000000 
#    z 0.000000 0.000000 1.867490 
# 
# From -- ./inp_files/33453.got.cif
#   From: 2010.05.17/outbox.cif.g08.bks.cpg/sg64_17_cif.got.tgz:33453.got - 2010.06.03 16:29:19.
