data_PCOD9478704
_publ_section_title
;
Structure prediction by ZEFSAII (Michael W. Deem and Ramdas Pophale) SiO2 
 PCOD9478704
Probable space group: C M C A
;
_chemical_formula_sum "Si O2"
_cell_formula_units_Z 112
_cell_length_a 15.080474
_cell_length_b 32.274408
_cell_length_c 10.497941
_cell_angle_alpha 90.000000
_cell_angle_beta 90.000000
_cell_angle_gamma 90.000000
_cell_volume 5109.488250
_symmetry_space_group_name_H-M "C M C A"
_symmetry_group_IT_number 64
_symmetry_cell_setting 'orthorhombic'
loop_
_space_group_symop_operation_xyz
x,y,z
-x,1/2-y,1/2+z
x,-y,-z
-x,1/2+y,1/2-z
-x,-y,-z
x,1/2+y,1/2-z
-x,y,z
x,1/2-y,1/2+z
1/2+x,1/2+y,z
1/2-x,-y,1/2+z
1/2+x,1/2-y,-z
1/2-x,y,1/2-z
1/2-x,1/2-y,-z
1/2+x,y,1/2-z
1/2-x,1/2+y,z
1/2+x,-y,1/2+z
loop_
_atom_site_type_symbol
_atom_site_label
_atom_site_fract_x
_atom_site_fract_y
_atom_site_fract_z
Si Si1 0.241418 0.610609 0.109477
Si Si2 0.397538 0.067490 0.455145
Si Si3 0.394884 0.279225 0.054118
Si Si4 0.396438 0.510668 0.795766
Si Si5 0.901201 0.169560 0.689773
Si Si6 0.170941 0.581705 0.849511
Si Si7 0.292552 0.300654 0.548159
O O1 0.250000 0.593548 0.250000
O O2 0.341034 0.608760 0.054168
O O3 0.191131 0.585982 0.998965
O O4 0.200477 0.655861 0.119051
O O5 0.500000 0.075802 0.433337
O O6 0.388440 0.044261 0.589734
O O7 0.365732 0.032705 0.353725
O O8 0.500000 0.277558 0.014387
O O9 0.389658 0.312136 0.169351
O O10 0.312223 0.288931 0.957758
O O11 0.358117 0.234403 0.101397
O O12 0.500000 0.505301 0.769416
O O13 0.353534 0.534280 0.678860
O O14 0.894942 0.119600 0.683017
O O15 0.828029 0.188511 0.594591
O O16 0.000000 0.181990 0.645937
O O17 0.250000 0.591004 0.750000
#
# Coordination Sequence:
#
# PCOD9478704 Si02
#       7
#    16  16  16  16  16  16  16
#     4  11  24  41  58  87 128 169 209 257 318 381
#     4   9  19  38  61  89 124 159 203 256 316 380
#     4  10  21  37  61  89 116 157 214 271 326 388
#     4   9  18  35  62  92 121 156 200 260 319 374
#     4  10  20  35  58  88 120 158 206 265 324 380
#     4  11  20  36  60  91 122 158 209 262 316 372
#     4  10  22  39  58  83 124 163 208 262 326 385
#
# _framework density 21.920002
#
# number of rings (size 3 to 8) (size 9 to 14) (size 15 to 20)
#    0.000    2.000    1.429    3.857    0.000    3.429 
#    0.000    4.286    0.000    1.714    0.000    0.000 
#    0.000    0.000    0.000    0.000    0.000    0.000 
#
# Total GULP energy -312043.136974 kJ/mol
# GULP energy per Si atom -5572.198875 kJ/mol
# Density = 2.187011 g / cm^3
# Si number density = 21.920002 Si / 1000 Ang^3
#
#
#
# Elastic Constant Matrix: (Units=GPa)
#
#
# Indices 1 2 3 4 5 6 
#
# 1 96.8009 9.5666 12.4103 0.0000 0.0000 0.0000
# 2 9.5666 31.5373 7.7782 0.0000 0.0000 0.0000
# 3 12.4103 7.7782 71.8688 0.0000 0.0000 0.0000
# 4 0.0000 0.0000 0.0000 -20.5827 0.0000 0.0000
# 5 0.0000 0.0000 0.0000 0.0000 5.0245 0.0000
# 6 0.0000 0.0000 0.0000 0.0000 0.0000 27.4393
#
#
#
# Elastic Compliance Matrix: (Units=1/GPa)
#
#
# Indices 1 2 3 4 5 6 
#
# 1 0.010816 -0.002898 -0.001554 0.000000 0.000000 0.000000
# 2 -0.002898 0.033354 -0.003110 0.000000 0.000000 0.000000
# 3 -0.001554 -0.003110 0.014519 0.000000 0.000000 0.000000
# 4 0.000000 0.000000 0.000000 -0.048585 0.000000 0.000000
# 5 0.000000 0.000000 0.000000 0.000000 0.199024 0.000000
# 6 0.000000 0.000000 0.000000 0.000000 0.000000 0.036444
#
#
# Mechanical properties :
#
#
# Convention : Reuss Voigt Hill
#
# Bulk Modulus (GPa) = 22.95313 28.85745 25.90529
# Shear Modulus (GPa) = 18.16743 13.73970 15.95357
#
# Velocity S-wave (km/s) = 2.88202 2.50634 2.70072
# Velocity P-wave (km/s) = 4.64422 4.64425 4.64424
#
# Compressibility (1/GPa) = 0.04356705
#
# Stress axis : x y z
#
# Youngs Moduli (GPa) = 92.45480 29.98104 68.87457
#
# Poissons Ratio (x) = 0.08688 0.10704
# Poissons Ratio (y) = 0.26790 0.21417
# Poissons Ratio (z) = 0.14368 0.09323
#
# Static dielectric constant tensor:
#      x y z
#    x 1.853160 0.000000 0.000000 
#    y 0.000000 1.818710 0.000000 
#    z 0.000000 0.000000 1.813030 
# 
# From -- ./inp_files/14927.got.cif
#   From: 2010.05.17/outbox.cif.g08.bks.cpg/sg64_8_cif.got.tgz:14927.got - 2010.06.03 16:29:19.
