data_PCOD9478429
_publ_section_title
;
Structure prediction by ZEFSAII (Michael W. Deem and Ramdas Pophale) SiO2 
 PCOD9478429
Probable space group: C M C A
;
_chemical_formula_sum "Si O2"
_cell_formula_units_Z 64
_cell_length_a 15.168001
_cell_length_b 15.326047
_cell_length_c 14.780414
_cell_angle_alpha 90.000000
_cell_angle_beta 90.000000
_cell_angle_gamma 90.000000
_cell_volume 3435.936275
_symmetry_space_group_name_H-M "C M C A"
_symmetry_group_IT_number 64
_symmetry_cell_setting 'orthorhombic'
loop_
_space_group_symop_operation_xyz
x,y,z
-x,1/2-y,1/2+z
x,-y,-z
-x,1/2+y,1/2-z
-x,-y,-z
x,1/2+y,1/2-z
-x,y,z
x,1/2-y,1/2+z
1/2+x,1/2+y,z
1/2-x,-y,1/2+z
1/2+x,1/2-y,-z
1/2-x,y,1/2-z
1/2-x,1/2-y,-z
1/2+x,y,1/2-z
1/2-x,1/2+y,z
1/2+x,-y,1/2+z
loop_
_atom_site_type_symbol
_atom_site_label
_atom_site_fract_x
_atom_site_fract_y
_atom_site_fract_z
Si Si1 0.098547 0.853940 0.622035
Si Si2 0.598264 0.840807 0.367518
Si Si3 0.652976 0.471529 0.287485
Si Si4 0.268288 0.597087 0.533099
O O1 0.106220 0.758882 0.667240
O O2 0.174122 0.861058 0.546281
O O3 0.000000 0.858917 0.581016
O O4 0.108188 0.937207 0.687227
O O5 0.500000 0.849803 0.407761
O O6 0.608124 0.910976 0.287384
O O7 0.678709 0.856297 0.436454
O O8 0.750000 0.493043 0.250000
O O9 0.669743 0.416924 0.379188
O O10 0.243891 0.500000 0.500000
#
# Coordination Sequence:
#
# PCOD9478429 Si02
#       4
#    16  16  16  16
#     4  10  20  34  55  80 105 138 177 215 257 308
#     4  10  20  34  53  79 109 139 173 213 260 312
#     4   9  19  34  53  77 105 138 174 216 262 306
#     4   9  19  35  54  76 104 139 175 214 259 306
#
# _framework density 18.626656000000001
#
# number of rings (size 3 to 8) (size 9 to 14) (size 15 to 20)
#    0.000    2.500    0.000    1.500    0.000    9.000 
#    0.000    2.500    0.000    9.000    0.000    0.000 
#    0.000    0.000    0.000    0.000    0.000    0.000 
#
# Total GULP energy -178316.110632 kJ/mol
# GULP energy per Si atom -5572.378457 kJ/mol
# Density = 1.858426 g / cm^3
# Si number density = 18.626656 Si / 1000 Ang^3
#
#
#
# Elastic Constant Matrix: (Units=GPa)
#
#
# Indices 1 2 3 4 5 6 
#
# 1 111.2762 77.4778 29.8818 0.0000 0.0000 0.0000
# 2 77.4778 120.0758 42.9493 0.0000 0.0000 0.0000
# 3 29.8818 42.9493 57.9281 0.0000 0.0000 0.0000
# 4 0.0000 0.0000 0.0000 9.6956 0.0000 0.0000
# 5 0.0000 0.0000 0.0000 0.0000 6.6861 0.0000
# 6 0.0000 0.0000 0.0000 0.0000 0.0000 25.5528
#
#
#
# Elastic Compliance Matrix: (Units=1/GPa)
#
#
# Indices 1 2 3 4 5 6 
#
# 1 0.016347 -0.010250 -0.000833 0.000000 0.000000 0.000000
# 2 -0.010250 0.017760 -0.007881 0.000000 0.000000 0.000000
# 3 -0.000833 -0.007881 0.023535 0.000000 0.000000 0.000000
# 4 0.000000 0.000000 0.000000 0.103139 0.000000 0.000000
# 5 0.000000 0.000000 0.000000 0.000000 0.149564 0.000000
# 6 0.000000 0.000000 0.000000 0.000000 0.000000 0.039135
#
#
# Mechanical properties :
#
#
# Convention : Reuss Voigt Hill
#
# Bulk Modulus (GPa) = 50.72082 65.54420 58.13251
# Shear Modulus (GPa) = 12.69101 17.65166 15.17134
#
# Velocity S-wave (km/s) = 2.61307 3.08174 2.85703
# Velocity P-wave (km/s) = 6.03271 6.92298 6.49312
#
# Compressibility (1/GPa) = 0.01971577
#
# Stress axis : x y z
#
# Youngs Moduli (GPa) = 61.17379 56.30497 42.48903
#
# Poissons Ratio (x) = 0.57711 0.03540
# Poissons Ratio (y) = 0.62701 0.33485
# Poissons Ratio (z) = 0.05096 0.44373
#
# Static dielectric constant tensor:
#      x y z
#    x 1.654340 0.000000 0.000000 
#    y 0.000000 1.642650 0.000000 
#    z 0.000000 0.000000 1.644040 
# 
# From -- ./inp_files/23217.got.cif
#   From: 2010.05.17/outbox.cif.g08.bks.cpg/sg64_12_cif.got.tgz:23217.got - 2010.06.03 16:29:19.
