data_PCOD9478694
_publ_section_title
;
Structure prediction by ZEFSAII (Michael W. Deem and Ramdas Pophale) SiO2 
 PCOD9478694
Probable space group: C M C A
;
_chemical_formula_sum "Si O2"
_cell_formula_units_Z 104
_cell_length_a 9.356651
_cell_length_b 27.592333
_cell_length_c 21.683883
_cell_angle_alpha 90.000000
_cell_angle_beta 90.000000
_cell_angle_gamma 90.000000
_cell_volume 5598.167759
_symmetry_space_group_name_H-M "C M C A"
_symmetry_group_IT_number 64
_symmetry_cell_setting 'orthorhombic'
loop_
_space_group_symop_operation_xyz
x,y,z
-x,1/2-y,1/2+z
x,-y,-z
-x,1/2+y,1/2-z
-x,-y,-z
x,1/2+y,1/2-z
-x,y,z
x,1/2-y,1/2+z
1/2+x,1/2+y,z
1/2-x,-y,1/2+z
1/2+x,1/2-y,-z
1/2-x,y,1/2-z
1/2-x,1/2-y,-z
1/2+x,y,1/2-z
1/2-x,1/2+y,z
1/2+x,-y,1/2+z
loop_
_atom_site_type_symbol
_atom_site_label
_atom_site_fract_x
_atom_site_fract_y
_atom_site_fract_z
Si Si1 0.330341 0.780853 0.911208
Si Si2 0.165518 0.048556 0.126579
Si Si3 0.168372 0.818005 0.031465
Si Si4 0.335512 0.462645 0.307777
Si Si5 0.672818 0.862436 0.816526
Si Si6 0.653692 0.906609 0.067853
Si Si7 0.252533 0.000000 0.500000
O O1 0.500000 0.786443 0.921890
O O2 0.297945 0.723603 0.917676
O O3 0.299417 0.810250 0.848774
O O4 0.246897 0.804416 0.968206
O O5 0.256046 0.097454 0.138039
O O6 0.000000 0.055720 0.144393
O O7 0.246334 0.008854 0.168367
O O8 0.168303 0.026200 0.057291
O O9 0.221723 0.870209 0.051808
O O10 0.000000 0.817862 0.021018
O O11 0.500000 0.476062 0.293842
O O12 0.250000 0.442905 0.250000
O O13 0.337952 0.423556 0.361955
O O14 0.500000 0.869512 0.811565
O O15 0.750000 0.866381 0.750000
O O16 0.500000 0.883039 0.055096
O O17 0.664456 0.956312 0.029827
#
# Coordination Sequence:
#
# PCOD9478694 Si02
#       7
#    16  16  16  16  16  16   8
#     4   9  20  38  58  80 109 144 180 222 275 333
#     4  11  22  36  55  81 113 145 181 226 276 327
#     4  10  20  35  58  86 112 140 178 226 277 329
#     4  10  21  37  55  75 102 140 182 219 261 314
#     4  11  23  39  58  81 112 150 191 233 281 338
#     4  10  21  36  55  79 109 144 179 219 269 323
#     4  10  22  36  56  84 114 148 190 230 270 324
#
# _framework density 18.577506
#
# number of rings (size 3 to 8) (size 9 to 14) (size 15 to 20)
#    0.000    1.846    0.000    3.692    0.000    9.846 
#    0.000    0.769    0.000    3.692    0.000    0.000 
#    0.000    0.000    0.000    0.000    0.000    0.000 
#
# Total GULP energy -290037.652189 kJ/mol
# GULP energy per Si atom -5577.647157 kJ/mol
# Density = 1.853522 g / cm^3
# Si number density = 18.577506 Si / 1000 Ang^3
#
#
#
# Elastic Constant Matrix: (Units=GPa)
#
#
# Indices 1 2 3 4 5 6 
#
# 1 90.2089 29.4072 40.7524 0.0000 0.0000 0.0000
# 2 29.4072 84.6663 35.8047 0.0000 0.0000 0.0000
# 3 40.7524 35.8047 76.6418 0.0000 0.0000 0.0000
# 4 0.0000 0.0000 0.0000 14.1602 0.0000 0.0000
# 5 0.0000 0.0000 0.0000 0.0000 12.5190 0.0000
# 6 0.0000 0.0000 0.0000 0.0000 0.0000 20.2484
#
#
#
# Elastic Compliance Matrix: (Units=1/GPa)
#
#
# Indices 1 2 3 4 5 6 
#
# 1 0.014935 -0.002279 -0.006876 0.000000 0.000000 0.000000
# 2 -0.002279 0.015067 -0.005827 0.000000 0.000000 0.000000
# 3 -0.006876 -0.005827 0.019426 0.000000 0.000000 0.000000
# 4 0.000000 0.000000 0.000000 0.070620 0.000000 0.000000
# 5 0.000000 0.000000 0.000000 0.000000 0.079878 0.000000
# 6 0.000000 0.000000 0.000000 0.000000 0.000000 0.049387
#
#
# Mechanical properties :
#
#
# Convention : Reuss Voigt Hill
#
# Bulk Modulus (GPa) = 51.38004 51.49395 51.43700
# Shear Modulus (GPa) = 17.49684 19.08905 18.29294
#
# Velocity S-wave (km/s) = 3.07225 3.20900 3.14137
# Velocity P-wave (km/s) = 6.34840 6.44274 6.39574
#
# Compressibility (1/GPa) = 0.01946281
#
# Stress axis : x y z
#
# Youngs Moduli (GPa) = 66.95735 66.37077 51.47700
#
# Poissons Ratio (x) = 0.15128 0.35398
# Poissons Ratio (y) = 0.15262 0.29995
# Poissons Ratio (z) = 0.46043 0.38673
#
# Static dielectric constant tensor:
#      x y z
#    x 1.633660 0.000000 0.000000 
#    y 0.000000 1.648130 0.000000 
#    z 0.000000 0.000000 1.658270 
# 
# From -- ./inp_files/37245.got.cif
#   From: 2010.05.17/outbox.cif.g08.bks.cpg/sg64_19_cif.got.tgz:37245.got - 2010.06.03 16:29:19.
