data_PCOD9478072
_publ_section_title
;
Structure prediction by ZEFSAII (Michael W. Deem and Ramdas Pophale) SiO2 
 PCOD9478072
Probable space group: C M C A
;
_chemical_formula_sum "Si O2"
_cell_formula_units_Z 96
_cell_length_a 15.772725
_cell_length_b 21.389426
_cell_length_c 14.031569
_cell_angle_alpha 90.000000
_cell_angle_beta 90.000000
_cell_angle_gamma 90.000000
_cell_volume 4733.823898
_symmetry_space_group_name_H-M "C M C A"
_symmetry_group_IT_number 64
_symmetry_cell_setting 'orthorhombic'
loop_
_space_group_symop_operation_xyz
x,y,z
-x,1/2-y,1/2+z
x,-y,-z
-x,1/2+y,1/2-z
-x,-y,-z
x,1/2+y,1/2-z
-x,y,z
x,1/2-y,1/2+z
1/2+x,1/2+y,z
1/2-x,-y,1/2+z
1/2+x,1/2-y,-z
1/2-x,y,1/2-z
1/2-x,1/2-y,-z
1/2+x,y,1/2-z
1/2-x,1/2+y,z
1/2+x,-y,1/2+z
loop_
_atom_site_type_symbol
_atom_site_label
_atom_site_fract_x
_atom_site_fract_y
_atom_site_fract_z
Si Si1 0.907731 0.939181 0.433795
Si Si2 0.404289 0.195629 0.171180
Si Si3 0.149733 0.459325 0.275692
Si Si4 0.323043 0.176439 0.669817
Si Si5 0.231807 0.651025 0.015976
Si Si6 0.165538 0.596331 0.316029
O O1 0.899161 0.957431 0.324045
O O2 0.827013 0.898297 0.460435
O O3 0.000000 0.908597 0.449183
O O4 0.904740 0.000000 0.500000
O O5 0.500000 0.187427 0.137029
O O6 0.386877 0.267969 0.195941
O O7 0.334739 0.180443 0.090432
O O8 0.389070 0.148038 0.259381
O O9 0.250000 0.460115 0.250000
O O10 0.137251 0.393390 0.329450
O O11 0.129611 0.526062 0.323068
O O12 0.250000 0.177687 0.750000
O O13 0.278418 0.188360 0.567808
O O14 0.303521 0.620157 0.081992
O O15 0.250000 0.591775 0.250000
#
# Coordination Sequence:
#
# PCOD9478072 Si02
#       6
#    16  16  16  16  16  16
#     4  11  21  33  58  96 130 158 203 265 319 363
#     4  11  24  42  62  91 125 164 212 268 319 369
#     4  10  19  37  59  90 125 165 203 250 315 377
#     4  11  22  40  62  91 127 166 211 259 313 375
#     4  11  21  39  65  90 124 165 219 253 313 376
#     4   9  20  38  64  88 124 166 206 253 310 384
#
# _framework density 20.279589000000001
#
# number of rings (size 3 to 8) (size 9 to 14) (size 15 to 20)
#    0.000    1.500    3.333    5.500    0.000    2.667 
#    0.000    2.500    0.000    0.000    0.000    3.500 
#    0.000    0.000    0.000    0.000    0.000    0.000 
#
# Total GULP energy -267738.323712 kJ/mol
# GULP energy per Si atom -5577.881744 kJ/mol
# Density = 2.023343 g / cm^3
# Si number density = 20.279589 Si / 1000 Ang^3
#
#
#
# Elastic Constant Matrix: (Units=GPa)
#
#
# Indices 1 2 3 4 5 6 
#
# 1 55.3714 53.5124 30.0825 0.0000 0.0000 0.0000
# 2 53.5124 133.7024 31.1092 0.0000 0.0000 0.0000
# 3 30.0825 31.1092 88.9560 0.0000 0.0000 0.0000
# 4 0.0000 0.0000 0.0000 17.3047 0.0000 0.0000
# 5 0.0000 0.0000 0.0000 0.0000 -431.5990 0.0000
# 6 0.0000 0.0000 0.0000 0.0000 0.0000 -16.4052
#
#
#
# Elastic Compliance Matrix: (Units=1/GPa)
#
#
# Indices 1 2 3 4 5 6 
#
# 1 0.033168 -0.011610 -0.007156 0.000000 0.000000 0.000000
# 2 -0.011610 0.012206 -0.000342 0.000000 0.000000 0.000000
# 3 -0.007156 -0.000342 0.013781 0.000000 0.000000 0.000000
# 4 0.000000 0.000000 0.000000 0.057788 0.000000 0.000000
# 5 0.000000 0.000000 0.000000 0.000000 -0.002317 0.000000
# 6 0.000000 0.000000 0.000000 0.000000 0.000000 -0.060956
#
#
# Mechanical properties :
#
#
# Convention : Reuss Voigt Hill
#
# Bulk Modulus (GPa) = 47.76064 56.38200 52.07132
# Shear Modulus (GPa) = 50.57371 -75.25152 -12.33891
#
# Velocity S-wave (km/s) = 4.99924 -6.09816 -2.46933
# Velocity P-wave (km/s) = 7.54489 4.66055 4.19551
#
# Compressibility (1/GPa) = 0.02093774
#
# Stress axis : x y z
#
# Youngs Moduli (GPa) = 30.14966 81.92951 72.56194
#
# Poissons Ratio (x) = 0.95119 0.51928
# Poissons Ratio (y) = 0.35003 0.02484
# Poissons Ratio (z) = 0.21576 0.02805
#
# Static dielectric constant tensor:
#      x y z
#    x 1.730640 0.000000 0.000000 
#    y 0.000000 1.798580 0.000000 
#    z 0.000000 0.000000 1.653510 
# 
# From -- ./inp_files/23940.got.cif
#   From: 2010.05.17/outbox.cif.g08.bks.cpg/sg64_12_cif.got.tgz:23940.got - 2010.06.03 16:29:19.
