data_PCOD9478949
_publ_section_title
;
Structure prediction by ZEFSAII (Michael W. Deem and Ramdas Pophale) SiO2 
 PCOD9478949
Probable space group: C M C A
;
_chemical_formula_sum "Si O2"
_cell_formula_units_Z 72
_cell_length_a 19.152323
_cell_length_b 18.379650
_cell_length_c 9.085555
_cell_angle_alpha 90.000000
_cell_angle_beta 90.000000
_cell_angle_gamma 90.000000
_cell_volume 3198.233412
_symmetry_space_group_name_H-M "C M C A"
_symmetry_group_IT_number 64
_symmetry_cell_setting 'orthorhombic'
loop_
_space_group_symop_operation_xyz
x,y,z
-x,1/2-y,1/2+z
x,-y,-z
-x,1/2+y,1/2-z
-x,-y,-z
x,1/2+y,1/2-z
-x,y,z
x,1/2-y,1/2+z
1/2+x,1/2+y,z
1/2-x,-y,1/2+z
1/2+x,1/2-y,-z
1/2-x,y,1/2-z
1/2-x,1/2-y,-z
1/2+x,y,1/2-z
1/2-x,1/2+y,z
1/2+x,-y,1/2+z
loop_
_atom_site_type_symbol
_atom_site_label
_atom_site_fract_x
_atom_site_fract_y
_atom_site_fract_z
Si Si1 0.580912 0.111847 0.067072
Si Si2 0.816366 0.131872 0.178221
Si Si3 0.673850 0.500000 0.000000
Si Si4 0.921470 0.785290 0.029645
Si Si5 0.418532 0.084871 0.737441
O O1 0.500000 0.091397 0.096032
O O2 0.583153 0.199731 0.052721
O O3 0.601695 0.080122 0.908121
O O4 0.632509 0.096940 0.200328
O O5 0.750000 0.170291 0.250000
O O6 0.863584 0.184377 0.080227
O O7 0.786874 0.065753 0.079047
O O8 0.625868 0.461087 0.122423
O O9 0.000000 0.801835 0.971991
O O10 0.913891 0.831338 0.180426
O O11 0.500000 0.064657 0.725931
#
# Coordination Sequence:
#
# PCOD9478949 Si02
#       5
#    16  16   8  16  16
#     4  10  20  36  61  90 114 142 188 241 292 350
#     4  11  24  39  58  84 116 157 198 238 284 338
#     4  10  23  40  52  72 115 162 198 238 292 340
#     4   9  18  37  62  88 119 149 180 231 300 357
#     4   9  18  33  57  84 109 144 189 240 292 344
#
# _framework density 22.512428
#
# number of rings (size 3 to 8) (size 9 to 14) (size 15 to 20)
#    0.000    2.222    0.000    2.333    0.000    9.778 
#    0.000    5.556    0.000    0.000    0.000    0.000 
#    0.000    0.000    0.000    0.000    0.000    0.000 
#
# Total GULP energy -201283.696232 kJ/mol
# GULP energy per Si atom -5591.213784 kJ/mol
# Density = 2.246119 g / cm^3
# Si number density = 22.512428 Si / 1000 Ang^3
#
#
#
# Elastic Constant Matrix: (Units=GPa)
#
#
# Indices 1 2 3 4 5 6 
#
# 1 61.8165 5.7504 31.9298 0.0000 0.0000 0.0000
# 2 5.7504 68.5890 10.8177 0.0000 0.0000 0.0000
# 3 31.9298 10.8177 89.4507 0.0000 0.0000 0.0000
# 4 0.0000 0.0000 0.0000 33.2542 0.0000 0.0000
# 5 0.0000 0.0000 0.0000 0.0000 18.4640 0.0000
# 6 0.0000 0.0000 0.0000 0.0000 0.0000 6.7694
#
#
#
# Elastic Compliance Matrix: (Units=1/GPa)
#
#
# Indices 1 2 3 4 5 6 
#
# 1 0.019855 -0.000557 -0.007020 0.000000 0.000000 0.000000
# 2 -0.000557 0.014879 -0.001600 0.000000 0.000000 0.000000
# 3 -0.007020 -0.001600 0.013879 0.000000 0.000000 0.000000
# 4 0.000000 0.000000 0.000000 0.030071 0.000000 0.000000
# 5 0.000000 0.000000 0.000000 0.000000 0.054160 0.000000
# 6 0.000000 0.000000 0.000000 0.000000 0.000000 0.147723
#
#
# Mechanical properties :
#
#
# Convention : Reuss Voigt Hill
#
# Bulk Modulus (GPa) = 33.05041 35.20578 34.12809
# Shear Modulus (GPa) = 16.18087 23.12140 19.65113
#
# Velocity S-wave (km/s) = 2.68386 3.20824 2.95770
# Velocity P-wave (km/s) = 4.93123 5.42181 5.18233
#
# Compressibility (1/GPa) = 0.03025681
#
# Stress axis : x y z
#
# Youngs Moduli (GPa) = 50.36600 67.21004 72.05331
#
# Poissons Ratio (x) = 0.03747 0.50580
# Poissons Ratio (y) = 0.02808 0.11531
# Poissons Ratio (z) = 0.35356 0.10756
#
# Static dielectric constant tensor:
#      x y z
#    x 1.772980 0.000000 0.000000 
#    y 0.000000 1.856470 0.000000 
#    z 0.000000 0.000000 1.838560 
# 
# From -- ./inp_files/6842.got.cif
#   From: 2010.05.17/outbox.cif.g08.bks.cpg/sg64_4_cif.got.tgz:6842.got - 2010.06.03 16:29:19.
