data_PCOD9478312
_publ_section_title
;
Structure prediction by ZEFSAII (Michael W. Deem and Ramdas Pophale) SiO2 
 PCOD9478312
Probable space group: C M C A
;
_chemical_formula_sum "Si O2"
_cell_formula_units_Z 80
_cell_length_a 18.036224
_cell_length_b 7.136927
_cell_length_c 26.343347
_cell_angle_alpha 90.000000
_cell_angle_beta 90.000000
_cell_angle_gamma 90.000000
_cell_volume 3391.000295
_symmetry_space_group_name_H-M "C M C A"
_symmetry_group_IT_number 64
_symmetry_cell_setting 'orthorhombic'
loop_
_space_group_symop_operation_xyz
x,y,z
-x,1/2-y,1/2+z
x,-y,-z
-x,1/2+y,1/2-z
-x,-y,-z
x,1/2+y,1/2-z
-x,y,z
x,1/2-y,1/2+z
1/2+x,1/2+y,z
1/2-x,-y,1/2+z
1/2+x,1/2-y,-z
1/2-x,y,1/2-z
1/2-x,1/2-y,-z
1/2+x,y,1/2-z
1/2-x,1/2+y,z
1/2+x,-y,1/2+z
loop_
_atom_site_type_symbol
_atom_site_label
_atom_site_fract_x
_atom_site_fract_y
_atom_site_fract_z
Si Si1 0.415204 0.139699 0.320019
Si Si2 0.152957 0.822461 0.607556
Si Si3 0.084731 0.923033 0.708228
Si Si4 0.324394 0.239411 0.411852
Si Si5 0.917283 0.726714 0.005916
O O1 0.500000 0.075409 0.328964
O O2 0.385775 0.069410 0.265643
O O3 0.418688 0.364100 0.310871
O O4 0.362690 0.114045 0.368331
O O5 0.127999 0.803823 0.665969
O O6 0.236631 0.765391 0.594956
O O7 0.099876 0.736174 0.564741
O O8 0.151741 0.046419 0.597746
O O9 0.000000 0.851484 0.712057
O O10 0.355845 0.193512 0.467502
O O11 0.000000 0.786998 0.991061
O O12 0.915616 0.500000 0.000000
#
# Coordination Sequence:
#
# PCOD9478312 Si02
#       5
#    16  16  16  16  16
#     4   9  18  33  52  73  97 128 167 206 242 284
#     4  10  20  33  51  75 102 130 161 200 245 293
#     4   9  18  33  52  73  97 128 167 206 242 284
#     4  10  20  33  51  75 102 130 161 200 245 293
#     4   9  17  32  55  77  96 125 166 206 242 285
#
# _framework density 23.591857999999998
#
# number of rings (size 3 to 8) (size 9 to 14) (size 15 to 20)
#    0.000    2.600    0.000    1.800    0.000    7.200 
#    0.000    4.000    0.000    4.800    0.000    0.000 
#    0.000    0.000    0.000    0.000    0.000    0.000 
#
# Total GULP energy -223573.066996 kJ/mol
# GULP energy per Si atom -5589.326675 kJ/mol
# Density = 2.353816 g / cm^3
# Si number density = 23.591858 Si / 1000 Ang^3
#
#
#
# Elastic Constant Matrix: (Units=GPa)
#
#
# Indices 1 2 3 4 5 6 
#
# 1 86.2864 -17.1723 55.4216 0.0000 0.0000 0.0000
# 2 -17.1723 57.2838 1.9589 0.0000 0.0000 0.0000
# 3 55.4216 1.9589 147.0607 0.0000 0.0000 0.0000
# 4 0.0000 0.0000 0.0000 32.0842 0.0000 0.0000
# 5 0.0000 0.0000 0.0000 0.0000 32.2144 0.0000
# 6 0.0000 0.0000 0.0000 0.0000 0.0000 12.1825
#
#
#
# Elastic Compliance Matrix: (Units=1/GPa)
#
#
# Indices 1 2 3 4 5 6 
#
# 1 0.016723 0.005231 -0.006372 0.000000 0.000000 0.000000
# 2 0.005231 0.019101 -0.002226 0.000000 0.000000 0.000000
# 3 -0.006372 -0.002226 0.009231 0.000000 0.000000 0.000000
# 4 0.000000 0.000000 0.000000 0.031168 0.000000 0.000000
# 5 0.000000 0.000000 0.000000 0.000000 0.031042 0.000000
# 6 0.000000 0.000000 0.000000 0.000000 0.000000 0.082085
#
#
# Mechanical properties :
#
#
# Convention : Reuss Voigt Hill
#
# Bulk Modulus (GPa) = 26.09484 41.22748 33.66116
# Shear Modulus (GPa) = 23.93980 31.99108 27.96544
#
# Velocity S-wave (km/s) = 3.18897 3.68642 3.44668
# Velocity P-wave (km/s) = 4.96430 5.96932 5.48986
#
# Compressibility (1/GPa) = 0.03832175
#
# Stress axis : x y z
#
# Youngs Moduli (GPa) = 59.79762 52.35271 108.33168
#
# Poissons Ratio (x) = -0.27386 0.69029
# Poissons Ratio (y) = -0.31281 0.24113
# Poissons Ratio (z) = 0.38103 0.11653
#
# Static dielectric constant tensor:
#      x y z
#    x 1.831990 0.000000 0.000000 
#    y 0.000000 1.995550 0.000000 
#    z 0.000000 0.000000 1.891770 
# 
# From -- ./inp_files/7072.got.cif
#   From: 2010.05.17/outbox.cif.g08.bks.cpg/sg64_4_cif.got.tgz:7072.got - 2010.06.03 16:29:19.
