data_PCOD9478532
_publ_section_title
;
Structure prediction by ZEFSAII (Michael W. Deem and Ramdas Pophale) SiO2 
 PCOD9478532
Probable space group: C M C A
;
_chemical_formula_sum "Si O2"
_cell_formula_units_Z 88
_cell_length_a 13.867837
_cell_length_b 14.139026
_cell_length_c 23.881045
_cell_angle_alpha 90.000000
_cell_angle_beta 90.000000
_cell_angle_gamma 90.000000
_cell_volume 4682.540566
_symmetry_space_group_name_H-M "C M C A"
_symmetry_group_IT_number 64
_symmetry_cell_setting 'orthorhombic'
loop_
_space_group_symop_operation_xyz
x,y,z
-x,1/2-y,1/2+z
x,-y,-z
-x,1/2+y,1/2-z
-x,-y,-z
x,1/2+y,1/2-z
-x,y,z
x,1/2-y,1/2+z
1/2+x,1/2+y,z
1/2-x,-y,1/2+z
1/2+x,1/2-y,-z
1/2-x,y,1/2-z
1/2-x,1/2-y,-z
1/2+x,y,1/2-z
1/2-x,1/2+y,z
1/2+x,-y,1/2+z
loop_
_atom_site_type_symbol
_atom_site_label
_atom_site_fract_x
_atom_site_fract_y
_atom_site_fract_z
Si Si1 0.606680 0.220713 0.198698
Si Si2 0.391319 0.754101 0.934235
Si Si3 0.699204 0.948469 0.939944
Si Si4 0.750000 0.371821 0.250000
Si Si5 0.106742 0.536393 0.562781
Si Si6 0.886254 0.992538 0.678180
O O1 0.500000 0.233693 0.223347
O O2 0.600800 0.233548 0.132182
O O3 0.676941 0.300845 0.219750
O O4 0.634704 0.110900 0.205229
O O5 0.500000 0.766479 0.958388
O O6 0.361938 0.645627 0.942263
O O7 0.321025 0.838161 0.952028
O O8 0.805663 0.972762 0.915484
O O9 0.630322 0.982371 0.889104
O O10 0.687298 0.000000 0.000000
O O11 0.812936 0.434527 0.206935
O O12 0.095142 0.500000 0.500000
O O13 0.000000 0.532631 0.590421
O O14 0.000000 0.013791 0.687776
#
# Coordination Sequence:
#
# PCOD9478532 Si02
#       6
#    16  16  16   8  16  16
#     4   9  19  35  54  76 105 142 177 214 272 336
#     4   9  18  34  53  73 103 143 181 215 265 333
#     4  10  20  34  58  83 110 147 185 222 272 331
#     4  12  20  34  60  82 106 140 184 234 278 314
#     4   9  18  32  50  74 104 139 182 226 263 309
#     4  10  22  38  56  84 115 141 182 233 272 323
#
# _framework density 18.793216999999999
#
# number of rings (size 3 to 8) (size 9 to 14) (size 15 to 20)
#    0.000    2.364    0.000    3.818    0.000    4.364 
#    0.000    0.909    0.000   19.636    0.000    0.000 
#    0.000    0.000    0.000    0.000    0.000    0.000 
#
# Total GULP energy -244935.551745 kJ/mol
# GULP energy per Si atom -5566.717085 kJ/mol
# Density = 1.875044 g / cm^3
# Si number density = 18.793217 Si / 1000 Ang^3
#
#
#
# Elastic Constant Matrix: (Units=GPa)
#
#
# Indices 1 2 3 4 5 6 
#
# 1 109.8432 73.9909 15.2055 0.0000 0.0000 0.0000
# 2 73.9909 118.2028 10.9499 0.0000 0.0000 0.0000
# 3 15.2055 10.9499 37.2164 0.0000 0.0000 0.0000
# 4 0.0000 0.0000 0.0000 28.2577 0.0000 0.0000
# 5 0.0000 0.0000 0.0000 0.0000 13.6054 0.0000
# 6 0.0000 0.0000 0.0000 0.0000 0.0000 42.8175
#
#
#
# Elastic Compliance Matrix: (Units=1/GPa)
#
#
# Indices 1 2 3 4 5 6 
#
# 1 0.016234 -0.009815 -0.003745 0.000000 0.000000 0.000000
# 2 -0.009815 0.014631 -0.000295 0.000000 0.000000 0.000000
# 3 -0.003745 -0.000295 0.028487 0.000000 0.000000 0.000000
# 4 0.000000 0.000000 0.000000 0.035389 0.000000 0.000000
# 5 0.000000 0.000000 0.000000 0.000000 0.073500 0.000000
# 6 0.000000 0.000000 0.000000 0.000000 0.000000 0.023355
#
#
# Mechanical properties :
#
#
# Convention : Reuss Voigt Hill
#
# Bulk Modulus (GPa) = 31.60303 51.72833 41.66568
# Shear Modulus (GPa) = 21.75321 27.94386 24.84853
#
# Velocity S-wave (km/s) = 3.40590 3.86023 3.64016
# Velocity P-wave (km/s) = 5.68503 6.88863 6.31557
#
# Compressibility (1/GPa) = 0.03164254
#
# Stress axis : x y z
#
# Youngs Moduli (GPa) = 61.60101 68.34799 35.10419
#
# Poissons Ratio (x) = 0.67082 0.13146
# Poissons Ratio (y) = 0.60460 0.01035
# Poissons Ratio (z) = 0.23068 0.02015
#
# Static dielectric constant tensor:
#      x y z
#    x 1.762870 0.000000 0.000000 
#    y 0.000000 1.725350 0.000000 
#    z 0.000000 0.000000 1.627470 
# 
# From -- ./inp_files/49945.got.cif
#   From: 2010.05.17/outbox.cif.g08.bks.cpg/sg64_25_cif.got.tgz:49945.got - 2010.06.03 16:29:19.
