data_PCOD9478428
_publ_section_title
;
Structure prediction by ZEFSAII (Michael W. Deem and Ramdas Pophale) SiO2 
 PCOD9478428
Probable space group: C M C A
;
_chemical_formula_sum "Si O2"
_cell_formula_units_Z 80
_cell_length_a 9.069368
_cell_length_b 18.404600
_cell_length_c 26.695589
_cell_angle_alpha 90.000000
_cell_angle_beta 90.000000
_cell_angle_gamma 90.000000
_cell_volume 4455.976735
_symmetry_space_group_name_H-M "C M C A"
_symmetry_group_IT_number 64
_symmetry_cell_setting 'orthorhombic'
loop_
_space_group_symop_operation_xyz
x,y,z
-x,1/2-y,1/2+z
x,-y,-z
-x,1/2+y,1/2-z
-x,-y,-z
x,1/2+y,1/2-z
-x,y,z
x,1/2-y,1/2+z
1/2+x,1/2+y,z
1/2-x,-y,1/2+z
1/2+x,1/2-y,-z
1/2-x,y,1/2-z
1/2-x,1/2-y,-z
1/2+x,y,1/2-z
1/2-x,1/2+y,z
1/2+x,-y,1/2+z
loop_
_atom_site_type_symbol
_atom_site_label
_atom_site_fract_x
_atom_site_fract_y
_atom_site_fract_z
Si Si1 0.330890 0.412964 0.700148
Si Si2 0.821353 0.922259 0.589658
Si Si3 0.174588 0.171991 0.002732
Si Si4 0.826009 0.421016 0.402301
Si Si5 0.670874 0.090177 0.800805
O O1 0.500000 0.390534 0.703689
O O2 0.250000 0.387304 0.750000
O O3 0.275473 0.392557 0.644801
O O4 0.326164 0.501479 0.700242
O O5 0.754161 0.874895 0.545496
O O6 0.000000 0.924083 0.588018
O O7 0.757968 0.003765 0.586076
O O8 0.190917 0.131680 0.949457
O O9 0.000000 0.177700 0.013296
O O10 0.250000 0.250000 0.000000
O O11 0.756880 0.389384 0.351266
O O12 0.000000 0.435791 0.394679
O O13 0.500000 0.112042 0.802463
O O14 0.750000 0.115274 0.750000
#
# Coordination Sequence:
#
# PCOD9478428 Si02
#       5
#    16  16  16  16  16
#     4   8  15  26  43  71 103 133 164 201 247 297
#     4  10  20  34  54  80 108 138 174 216 261 311
#     4  11  24  39  55  75 102 138 177 219 267 316
#     4  10  20  34  53  79 108 137 174 218 261 309
#     4   9  16  27  46  74 106 138 170 208 257 307
#
# _framework density 17.953416000000001
#
# number of rings (size 3 to 8) (size 9 to 14) (size 15 to 20)
#    0.000    2.400    0.000    4.200    0.000   11.200 
#    0.000    0.000    0.000    1.200    0.000    5.600 
#    0.000    0.000    0.000    0.000    0.000    0.000 
#
# Total GULP energy -223088.009495 kJ/mol
# GULP energy per Si atom -5577.200237 kJ/mol
# Density = 1.791255 g / cm^3
# Si number density = 17.953416 Si / 1000 Ang^3
#
#
#
# Elastic Constant Matrix: (Units=GPa)
#
#
# Indices 1 2 3 4 5 6 
#
# 1 131.0006 44.6632 101.2694 0.0000 0.0000 0.0000
# 2 44.6632 45.5739 46.8149 0.0000 0.0000 0.0000
# 3 101.2694 46.8149 164.4430 0.0000 0.0000 0.0000
# 4 0.0000 0.0000 0.0000 -6.1885 0.0000 0.0000
# 5 0.0000 0.0000 0.0000 0.0000 39.3671 0.0000
# 6 0.0000 0.0000 0.0000 0.0000 0.0000 12.2940
#
#
#
# Elastic Compliance Matrix: (Units=1/GPa)
#
#
# Indices 1 2 3 4 5 6 
#
# 1 0.016431 -0.008068 -0.007822 0.000000 0.000000 0.000000
# 2 -0.008068 0.034973 -0.004988 0.000000 0.000000 0.000000
# 3 -0.007822 -0.004988 0.012318 0.000000 0.000000 0.000000
# 4 0.000000 0.000000 0.000000 -0.161589 0.000000 0.000000
# 5 0.000000 0.000000 0.000000 0.000000 0.025402 0.000000
# 6 0.000000 0.000000 0.000000 0.000000 0.000000 0.081340
#
#
# Mechanical properties :
#
#
# Convention : Reuss Voigt Hill
#
# Bulk Modulus (GPa) = 45.52367 80.72361 63.12364
# Shear Modulus (GPa) = 86.27952 18.97919 52.62936
#
# Velocity S-wave (km/s) = 6.93987 3.25489 5.42015
# Velocity P-wave (km/s) = 9.46717 7.69325 8.62593
#
# Compressibility (1/GPa) = 0.02196659
#
# Stress axis : x y z
#
# Youngs Moduli (GPa) = 60.86141 28.59384 81.18137
#
# Poissons Ratio (x) = 0.23068 0.63499
# Poissons Ratio (y) = 0.49101 0.40493
# Poissons Ratio (z) = 0.47605 0.14262
#
# Static dielectric constant tensor:
#      x y z
#    x 1.606070 0.000000 0.000000 
#    y 0.000000 1.580770 0.000000 
#    z 0.000000 0.000000 1.630400 
# 
# From -- ./inp_files/47858.got.cif
#   From: 2010.05.17/outbox.cif.g08.bks.cpg/sg64_24_cif.got.tgz:47858.got - 2010.06.03 16:29:19.
