data_PCOD9478699
_publ_section_title
;
Structure prediction by ZEFSAII (Michael W. Deem and Ramdas Pophale) SiO2 
 PCOD9478699
Probable space group: C M C A
;
_chemical_formula_sum "Si O2"
_cell_formula_units_Z 88
_cell_length_a 24.315233
_cell_length_b 30.363873
_cell_length_c 5.023387
_cell_angle_alpha 90.000000
_cell_angle_beta 90.000000
_cell_angle_gamma 90.000000
_cell_volume 3708.789965
_symmetry_space_group_name_H-M "C M C A"
_symmetry_group_IT_number 64
_symmetry_cell_setting 'orthorhombic'
loop_
_space_group_symop_operation_xyz
x,y,z
-x,1/2-y,1/2+z
x,-y,-z
-x,1/2+y,1/2-z
-x,-y,-z
x,1/2+y,1/2-z
-x,y,z
x,1/2-y,1/2+z
1/2+x,1/2+y,z
1/2-x,-y,1/2+z
1/2+x,1/2-y,-z
1/2-x,y,1/2-z
1/2-x,1/2-y,-z
1/2+x,y,1/2-z
1/2-x,1/2+y,z
1/2+x,-y,1/2+z
loop_
_atom_site_type_symbol
_atom_site_label
_atom_site_fract_x
_atom_site_fract_y
_atom_site_fract_z
Si Si1 0.409182 0.608730 0.057363
Si Si2 0.909953 0.548786 0.962440
Si Si3 0.500000 0.331726 0.784734
Si Si4 0.689736 0.845062 0.848043
Si Si5 0.785945 0.435751 0.012412
Si Si6 0.403292 0.719897 0.510504
O O1 0.431415 0.583531 0.321640
O O2 0.451839 0.647618 0.018774
O O3 0.349691 0.629742 0.130837
O O4 0.410998 0.572512 0.823908
O O5 0.845395 0.544348 0.030276
O O6 0.934275 0.500000 0.000000
O O7 0.451922 0.311557 0.587027
O O8 0.750000 0.831099 0.750000
O O9 0.653508 0.806053 0.965136
O O10 0.701007 0.884110 0.058237
O O11 0.750000 0.454757 0.250000
O O12 0.750000 0.438034 0.750000
O O13 0.407024 0.738998 0.805967
#
# Coordination Sequence:
#
# PCOD9478699 Si02
#       6
#    16  16   8  16  16  16
#     4  10  23  40  63  89 115 165 213 248 306 370
#     4  11  22  38  58  89 128 156 199 263 314 360
#     4  10  24  46  69  86 118 158 210 260 301 374
#     4   9  20  38  61  87 124 163 202 246 294 369
#     4  10  20  35  58  86 119 169 218 247 292 363
#     4  11  25  41  63  94 122 154 197 252 316 366
#
# _framework density 23.727416999999999
#
# number of rings (size 3 to 8) (size 9 to 14) (size 15 to 20)
#    0.000    1.818    0.000    4.364    0.000   15.273 
#    0.000    2.727    0.000    0.000    0.000    0.000 
#    0.000    0.000    0.000    0.000    0.000    0.000 
#
# Total GULP energy -244974.812690 kJ/mol
# GULP energy per Si atom -5567.609379 kJ/mol
# Density = 2.367341 g / cm^3
# Si number density = 23.727417 Si / 1000 Ang^3
#
#
#
# Elastic Constant Matrix: (Units=GPa)
#
#
# Indices 1 2 3 4 5 6 
#
# 1 146.6745 21.8676 -0.6058 0.0000 0.0000 0.0000
# 2 21.8676 84.9086 17.1537 0.0000 0.0000 0.0000
# 3 -0.6058 17.1537 83.0201 0.0000 0.0000 0.0000
# 4 0.0000 0.0000 0.0000 -69.3887 0.0000 0.0000
# 5 0.0000 0.0000 0.0000 0.0000 2.4621 0.0000
# 6 0.0000 0.0000 0.0000 0.0000 0.0000 -19.3455
#
#
#
# Elastic Compliance Matrix: (Units=1/GPa)
#
#
# Indices 1 2 3 4 5 6 
#
# 1 0.007106 -0.001921 0.000449 0.000000 0.000000 0.000000
# 2 -0.001921 0.012810 -0.002661 0.000000 0.000000 0.000000
# 3 0.000449 -0.002661 0.012598 0.000000 0.000000 0.000000
# 4 0.000000 0.000000 0.000000 -0.014412 0.000000 0.000000
# 5 0.000000 0.000000 0.000000 0.000000 0.406153 0.000000
# 6 0.000000 0.000000 0.000000 0.000000 0.000000 -0.051692
#
#
# Mechanical properties :
#
#
# Convention : Reuss Voigt Hill
#
# Bulk Modulus (GPa) = 41.23990 43.49270 42.36630
# Shear Modulus (GPa) = 12.85638 1.15809 7.00723
#
# Velocity S-wave (km/s) = 2.33026 0.69939 1.72036
# Velocity P-wave (km/s) = 4.96574 4.36144 4.67337
#
# Compressibility (1/GPa) = 0.02424836
#
# Stress axis : x y z
#
# Youngs Moduli (GPa) = 140.72543 78.06657 79.37565
#
# Poissons Ratio (x) = 0.14995 -0.03562
# Poissons Ratio (y) = 0.27030 0.21120
# Poissons Ratio (z) = -0.06315 0.20772
#
# Static dielectric constant tensor:
#      x y z
#    x 1.857090 0.000000 0.000000 
#    y 0.000000 2.007350 0.000000 
#    z 0.000000 0.000000 1.790810 
# 
# From -- ./inp_files/2446.got.cif
#   From: 2010.05.17/outbox.cif.g08.bks.cpg/sg64_2_cif.got.tgz:2446.got - 2010.06.03 16:29:19.
