data_PCOD9478529
_publ_section_title
;
Structure prediction by ZEFSAII (Michael W. Deem and Ramdas Pophale) SiO2 
 PCOD9478529
Probable space group: C M C A
;
_chemical_formula_sum "Si O2"
_cell_formula_units_Z 64
_cell_length_a 16.365655
_cell_length_b 19.199141
_cell_length_c 8.962452
_cell_angle_alpha 90.000000
_cell_angle_beta 90.000000
_cell_angle_gamma 90.000000
_cell_volume 2816.060835
_symmetry_space_group_name_H-M "C M C A"
_symmetry_group_IT_number 64
_symmetry_cell_setting 'orthorhombic'
loop_
_space_group_symop_operation_xyz
x,y,z
-x,1/2-y,1/2+z
x,-y,-z
-x,1/2+y,1/2-z
-x,-y,-z
x,1/2+y,1/2-z
-x,y,z
x,1/2-y,1/2+z
1/2+x,1/2+y,z
1/2-x,-y,1/2+z
1/2+x,1/2-y,-z
1/2-x,y,1/2-z
1/2-x,1/2-y,-z
1/2+x,y,1/2-z
1/2-x,1/2+y,z
1/2+x,-y,1/2+z
loop_
_atom_site_type_symbol
_atom_site_label
_atom_site_fract_x
_atom_site_fract_y
_atom_site_fract_z
Si Si1 0.828548 0.362040 0.643505
Si Si2 0.500000 0.285302 0.118256
Si Si3 0.658939 0.701088 0.680898
Si Si4 0.000000 0.352020 0.716159
Si Si5 0.222484 0.067491 0.582808
O O1 0.750000 0.367022 0.750000
O O2 0.840936 0.278901 0.613339
O O3 0.803783 0.405610 0.500437
O O4 0.912759 0.388949 0.713835
O O5 0.582658 0.306121 0.207362
O O6 0.500000 0.202032 0.145933
O O7 0.500000 0.312888 0.949069
O O8 0.750000 0.697287 0.750000
O O9 0.661246 0.633400 0.577019
O O10 0.250000 0.049501 0.750000
O O11 0.190322 0.000000 0.500000
#
# Coordination Sequence:
#
# PCOD9478529 Si02
#       5
#    16   8  16   8  16
#     4  10  21  39  64  90 118 154 197 245 298 351
#     4  10  20  34  57  88 120 155 195 244 295 349
#     4   9  19  36  60  87 116 151 194 243 292 345
#     4  10  20  36  57  90 123 153 194 242 294 355
#     4  11  22  38  59  86 119 160 201 243 293 351
#
# _framework density 22.726782
#
# number of rings (size 3 to 8) (size 9 to 14) (size 15 to 20)
#    0.000    2.000    0.000    4.500    0.000   10.000 
#    0.000    2.500    0.000    6.000    0.000    0.000 
#    0.000    0.000    0.000    0.000    0.000    0.000 
#
# Total GULP energy -178597.200814 kJ/mol
# GULP energy per Si atom -5581.162525 kJ/mol
# Density = 2.267505 g / cm^3
# Si number density = 22.726782 Si / 1000 Ang^3
#
#
#
# Elastic Constant Matrix: (Units=GPa)
#
#
# Indices 1 2 3 4 5 6 
#
# 1 175.2614 19.0004 34.9045 0.0000 0.0000 0.0000
# 2 19.0004 82.5372 27.7598 0.0000 0.0000 0.0000
# 3 34.9045 27.7598 89.6361 0.0000 0.0000 0.0000
# 4 0.0000 0.0000 0.0000 29.1292 0.0000 0.0000
# 5 0.0000 0.0000 0.0000 0.0000 35.2282 0.0000
# 6 0.0000 0.0000 0.0000 0.0000 0.0000 1.1148
#
#
#
# Elastic Compliance Matrix: (Units=1/GPa)
#
#
# Indices 1 2 3 4 5 6 
#
# 1 0.006220 -0.000689 -0.002209 0.000000 0.000000 0.000000
# 2 -0.000689 0.013601 -0.003944 0.000000 0.000000 0.000000
# 3 -0.002209 -0.003944 0.013238 0.000000 0.000000 0.000000
# 4 0.000000 0.000000 0.000000 0.034330 0.000000 0.000000
# 5 0.000000 0.000000 0.000000 0.000000 0.028386 0.000000
# 6 0.000000 0.000000 0.000000 0.000000 0.000000 0.897013
#
#
# Mechanical properties :
#
#
# Convention : Reuss Voigt Hill
#
# Bulk Modulus (GPa) = 51.61144 56.75157 54.18150
# Shear Modulus (GPa) = 4.93617 30.81243 17.87430
#
# Velocity S-wave (km/s) = 1.47536 3.68608 2.80748
# Velocity P-wave (km/s) = 5.06567 6.56823 5.86527
#
# Compressibility (1/GPa) = 0.01937555
#
# Stress axis : x y z
#
# Youngs Moduli (GPa) = 160.76213 73.52516 75.54172
#
# Poissons Ratio (x) = 0.05066 0.16686
# Poissons Ratio (y) = 0.11077 0.29792
# Poissons Ratio (z) = 0.35510 0.28997
#
# Static dielectric constant tensor:
#      x y z
#    x 1.880960 0.000000 0.000000 
#    y 0.000000 1.882650 0.000000 
#    z 0.000000 0.000000 1.936970 
# 
# From -- ./inp_files/6613.got.cif
#   From: 2010.05.17/outbox.cif.g08.bks.cpg/sg64_4_cif.got.tgz:6613.got - 2010.06.03 16:29:19.
