data_PCOD9478304
_publ_section_title
;
Structure prediction by ZEFSAII (Michael W. Deem and Ramdas Pophale) SiO2 
 PCOD9478304
Probable space group: C M C A
;
_chemical_formula_sum "Si O2"
_cell_formula_units_Z 104
_cell_length_a 26.850751
_cell_length_b 27.647341
_cell_length_c 7.937160
_cell_angle_alpha 90.000000
_cell_angle_beta 90.000000
_cell_angle_gamma 90.000000
_cell_volume 5892.165561
_symmetry_space_group_name_H-M "C M C A"
_symmetry_group_IT_number 64
_symmetry_cell_setting 'orthorhombic'
loop_
_space_group_symop_operation_xyz
x,y,z
-x,1/2-y,1/2+z
x,-y,-z
-x,1/2+y,1/2-z
-x,-y,-z
x,1/2+y,1/2-z
-x,y,z
x,1/2-y,1/2+z
1/2+x,1/2+y,z
1/2-x,-y,1/2+z
1/2+x,1/2-y,-z
1/2-x,y,1/2-z
1/2-x,1/2-y,-z
1/2+x,y,1/2-z
1/2-x,1/2+y,z
1/2+x,-y,1/2+z
loop_
_atom_site_type_symbol
_atom_site_label
_atom_site_fract_x
_atom_site_fract_y
_atom_site_fract_z
Si Si1 0.279838 0.050753 0.578679
Si Si2 0.688041 0.799009 0.447010
Si Si3 0.181131 0.088540 0.425697
Si Si4 0.387628 0.000000 0.000000
Si Si5 0.696132 0.692015 0.546225
Si Si6 0.941390 0.035779 0.158301
Si Si7 0.859230 0.607395 0.435265
O O1 0.250000 0.042557 0.750000
O O2 0.238007 0.076989 0.467309
O O3 0.329237 0.082854 0.589950
O O4 0.294387 0.000000 0.500000
O O5 0.675960 0.743031 0.479658
O O6 0.691147 0.807555 0.247514
O O7 0.745184 0.808482 0.506902
O O8 0.650421 0.835962 0.537135
O O9 0.170793 0.143306 0.482247
O O10 0.170271 0.088085 0.228256
O O11 0.147832 0.047174 0.513724
O O12 0.418868 0.012010 0.170107
O O13 0.913102 0.085069 0.101920
O O14 0.000000 0.043814 0.183404
O O15 0.934146 0.000000 0.000000
#
# Coordination Sequence:
#
# PCOD9478304 Si02
#       7
#    16  16  16   8  16  16  16
#     4  12  23  32  47  74 113 152 184 223 273 338
#     4  10  20  33  51  76 108 155 187 233 269 332
#     4  11  21  34  50  81 114 153 185 222 282 342
#     4  10  23  38  60  86 120 150 191 240 294 360
#     4  10  20  33  50  75 114 150 192 222 273 332
#     4  10  23  41  62  85 112 150 196 248 295 341
#     4  11  22  35  55  78 109 149 188 233 282 341
#
# _framework density 17.650555000000001
#
# number of rings (size 3 to 8) (size 9 to 14) (size 15 to 20)
#    0.000    1.385    2.308    3.923    6.462    1.231 
#    0.000    0.000    0.000    0.000    0.000   10.769 
#    0.000    0.000    0.000    0.000    0.000    0.000 
#
# Total GULP energy -290180.472357 kJ/mol
# GULP energy per Si atom -5580.393699 kJ/mol
# Density = 1.761038 g / cm^3
# Si number density = 17.650555 Si / 1000 Ang^3
#
#
#
# Elastic Constant Matrix: (Units=GPa)
#
#
# Indices 1 2 3 4 5 6 
#
# 1 91.4622 54.7191 30.8068 0.0000 0.0000 0.0000
# 2 54.7191 159.2954 29.1125 0.0000 0.0000 0.0000
# 3 30.8068 29.1125 60.1584 0.0000 0.0000 0.0000
# 4 0.0000 0.0000 0.0000 9.7173 0.0000 0.0000
# 5 0.0000 0.0000 0.0000 0.0000 -10.0057 0.0000
# 6 0.0000 0.0000 0.0000 0.0000 0.0000 15.1010
#
#
#
# Elastic Compliance Matrix: (Units=1/GPa)
#
#
# Indices 1 2 3 4 5 6 
#
# 1 0.015439 -0.004233 -0.005858 0.000000 0.000000 0.000000
# 2 -0.004233 0.008047 -0.001727 0.000000 0.000000 0.000000
# 3 -0.005858 -0.001727 0.020458 0.000000 0.000000 0.000000
# 4 0.000000 0.000000 0.000000 0.102910 0.000000 0.000000
# 5 0.000000 0.000000 0.000000 0.000000 -0.099943 0.000000
# 6 0.000000 0.000000 0.000000 0.000000 0.000000 0.066221
#
#
# Mechanical properties :
#
#
# Convention : Reuss Voigt Hill
#
# Bulk Modulus (GPa) = 49.23771 60.02144 54.62958
# Shear Modulus (GPa) = 34.83434 16.04767 25.44101
#
# Velocity S-wave (km/s) = 4.44729 3.01855 3.80066
# Velocity P-wave (km/s) = 7.37073 6.79912 7.09069
#
# Compressibility (1/GPa) = 0.02030964
#
# Stress axis : x y z
#
# Youngs Moduli (GPa) = 64.77139 124.26656 48.88031
#
# Poissons Ratio (x) = 0.52600 0.28633
# Poissons Ratio (y) = 0.27417 0.08440
# Poissons Ratio (z) = 0.37942 0.21457
#
# Static dielectric constant tensor:
#      x y z
#    x 1.589220 0.000000 0.000000 
#    y 0.000000 1.636070 0.000000 
#    z 0.000000 0.000000 1.680100 
# 
# From -- ./inp_files/9675.got.cif
#   From: 2010.05.17/outbox.cif.g08.bks.cpg/sg64_5_cif.got.tgz:9675.got - 2010.06.03 16:29:19.
