data_PCOD9478913
_publ_section_title
;
Structure prediction by ZEFSAII (Michael W. Deem and Ramdas Pophale) SiO2 
 PCOD9478913
Probable space group: C M C A
;
_chemical_formula_sum "Si O2"
_cell_formula_units_Z 116
_cell_length_a 7.425959
_cell_length_b 24.309927
_cell_length_c 26.986793
_cell_angle_alpha 90.000000
_cell_angle_beta 90.000000
_cell_angle_gamma 90.000000
_cell_volume 4871.777885
_symmetry_space_group_name_H-M "C M C A"
_symmetry_group_IT_number 64
_symmetry_cell_setting 'orthorhombic'
loop_
_space_group_symop_operation_xyz
x,y,z
-x,1/2-y,1/2+z
x,-y,-z
-x,1/2+y,1/2-z
-x,-y,-z
x,1/2+y,1/2-z
-x,y,z
x,1/2-y,1/2+z
1/2+x,1/2+y,z
1/2-x,-y,1/2+z
1/2+x,1/2-y,-z
1/2-x,y,1/2-z
1/2-x,1/2-y,-z
1/2+x,y,1/2-z
1/2-x,1/2+y,z
1/2+x,-y,1/2+z
loop_
_atom_site_type_symbol
_atom_site_label
_atom_site_fract_x
_atom_site_fract_y
_atom_site_fract_z
Si Si1 0.284805 0.651993 0.803647
Si Si2 0.719255 0.855479 0.485683
Si Si3 0.716235 0.589860 0.196078
Si Si4 0.789271 0.468823 0.317615
Si Si5 0.207106 0.029844 0.935446
Si Si6 0.208246 0.150712 0.097638
Si Si7 0.500000 0.000000 0.000000
Si Si8 0.218825 0.777545 0.101813
O O1 0.500000 0.647329 0.810288
O O2 0.250000 0.678232 0.750000
O O3 0.209563 0.589757 0.802167
O O4 0.221078 0.685507 0.851472
O O5 0.500000 0.854181 0.486450
O O6 0.770466 0.911584 0.457532
O O7 0.785776 0.855204 0.542055
O O8 0.776425 0.805360 0.450137
O O9 0.500000 0.586868 0.190856
O O10 0.750000 0.616327 0.250000
O O11 0.789220 0.527329 0.198003
O O12 0.783473 0.620024 0.146266
O O13 0.782733 0.468445 0.376912
O O14 0.000000 0.468870 0.302361
O O15 0.341553 0.987077 0.959032
O O16 0.000000 0.020085 0.948376
O O17 0.214623 0.215815 0.107429
O O18 0.000000 0.132112 0.093352
O O19 0.000000 0.776472 0.101869
#
# Coordination Sequence:
#
# PCOD9478913 Si02
#       8
#    16  16  16  16  16  16   4  16
#     4  10  20  36  59  89 118 152 204 251 310 386
#     4   9  18  38  65  87 114 161 204 248 317 382
#     4  10  22  40  60  86 117 155 207 252 306 381
#     4   9  18  38  65  86 112 160 203 246 316 382
#     4  10  21  41  63  86 132 176 204 265 322 370
#     4  10  22  38  59  88 117 154 208 251 304 384
#     4  12  26  36  52 106 132 160 226 252 304 402
#     4  10  20  38  60  87 119 155 204 252 311 382
#
# _framework density 23.810608999999999
#
# number of rings (size 3 to 8) (size 9 to 14) (size 15 to 20)
#    0.000    2.207    1.379    1.034    1.931    1.655 
#    4.966    2.759    0.000    0.000    0.000    0.000 
#    0.000    0.000    0.000    0.000    0.000    0.000 
#
# Total GULP energy -323619.687822 kJ/mol
# GULP energy per Si atom -5579.649790 kJ/mol
# Density = 2.375641 g / cm^3
# Si number density = 23.810609 Si / 1000 Ang^3
#
#
#
# Elastic Constant Matrix: (Units=GPa)
#
#
# Indices 1 2 3 4 5 6 
#
# 1 93.1278 -5.5999 5.7907 0.0000 0.0000 0.0000
# 2 -5.5999 98.4578 63.2781 0.0000 0.0000 0.0000
# 3 5.7907 63.2781 209.9086 0.0000 0.0000 0.0000
# 4 0.0000 0.0000 0.0000 0.7867 0.0000 0.0000
# 5 0.0000 0.0000 0.0000 0.0000 87.9546 0.0000
# 6 0.0000 0.0000 0.0000 0.0000 0.0000 68.9293
#
#
#
# Elastic Compliance Matrix: (Units=1/GPa)
#
#
# Indices 1 2 3 4 5 6 
#
# 1 0.010836 0.001003 -0.000601 0.000000 0.000000 0.000000
# 2 0.001003 0.012690 -0.003853 0.000000 0.000000 0.000000
# 3 -0.000601 -0.003853 0.005942 0.000000 0.000000 0.000000
# 4 0.000000 0.000000 0.000000 1.271060 0.000000 0.000000
# 5 0.000000 0.000000 0.000000 0.000000 0.011370 0.000000
# 6 0.000000 0.000000 0.000000 0.000000 0.000000 0.014508
#
#
# Mechanical properties :
#
#
# Convention : Reuss Voigt Hill
#
# Bulk Modulus (GPa) = 44.31750 58.71464 51.51607
# Shear Modulus (GPa) = 3.72903 54.06917 28.89910
#
# Velocity S-wave (km/s) = 1.25281 4.77046 3.48761
# Velocity P-wave (km/s) = 4.55473 7.41995 6.15635
#
# Compressibility (1/GPa) = 0.02256445
#
# Stress axis : x y z
#
# Youngs Moduli (GPa) = 92.28838 78.80191 168.29034
#
# Poissons Ratio (x) = -0.07901 0.10117
# Poissons Ratio (y) = -0.09253 0.64845
# Poissons Ratio (z) = 0.05548 0.30363
#
# Static dielectric constant tensor:
#      x y z
#    x 1.939300 0.000000 0.000000 
#    y 0.000000 1.933380 0.000000 
#    z 0.000000 0.000000 2.060370 
# 
# From -- ./inp_files/43395.got.cif
#   From: 2010.05.17/outbox.cif.g08.bks.cpg/sg64_22_cif.got.tgz:43395.got - 2010.06.03 16:29:19.
