data_PCOD9478720
_publ_section_title
;
Structure prediction by ZEFSAII (Michael W. Deem and Ramdas Pophale) SiO2 
 PCOD9478720
Probable space group: C M C A
;
_chemical_formula_sum "Si O2"
_cell_formula_units_Z 112
_cell_length_a 14.365359
_cell_length_b 24.222021
_cell_length_c 17.934377
_cell_angle_alpha 90.000000
_cell_angle_beta 90.000000
_cell_angle_gamma 90.000000
_cell_volume 6240.410443
_symmetry_space_group_name_H-M "C M C A"
_symmetry_group_IT_number 64
_symmetry_cell_setting 'orthorhombic'
loop_
_space_group_symop_operation_xyz
x,y,z
-x,1/2-y,1/2+z
x,-y,-z
-x,1/2+y,1/2-z
-x,-y,-z
x,1/2+y,1/2-z
-x,y,z
x,1/2-y,1/2+z
1/2+x,1/2+y,z
1/2-x,-y,1/2+z
1/2+x,1/2-y,-z
1/2-x,y,1/2-z
1/2-x,1/2-y,-z
1/2+x,y,1/2-z
1/2-x,1/2+y,z
1/2+x,-y,1/2+z
loop_
_atom_site_type_symbol
_atom_site_label
_atom_site_fract_x
_atom_site_fract_y
_atom_site_fract_z
Si Si1 0.390785 0.284794 0.640627
Si Si2 0.609198 0.166245 0.584016
Si Si3 0.109096 0.043098 0.862900
Si Si4 0.728186 0.027279 0.072141
Si Si5 0.610893 0.147673 0.289923
Si Si6 0.109923 0.471583 0.778339
Si Si7 0.728691 0.844166 0.562323
O O1 0.500000 0.296755 0.625874
O O2 0.378043 0.218995 0.637237
O O3 0.368418 0.312270 0.720360
O O4 0.323722 0.311838 0.579324
O O5 0.500000 0.165576 0.561098
O O6 0.627874 0.107543 0.623242
O O7 0.674092 0.172733 0.511867
O O8 0.000000 0.032464 0.879824
O O9 0.176749 0.006346 0.913127
O O10 0.124979 0.021864 0.778701
O O11 0.667160 0.022918 0.146449
O O12 0.749486 0.090943 0.057208
O O13 0.681503 0.000000 0.000000
O O14 0.500000 0.148664 0.303405
O O15 0.635877 0.085368 0.264107
O O16 0.664650 0.163272 0.364496
O O17 0.000000 0.467639 0.794828
#
# Coordination Sequence:
#
# PCOD9478720 Si02
#       7
#    16  16  16  16  16  16  16
#     4  10  22  39  59  82 116 158 198 239 289 347
#     4  10  22  40  60  84 120 157 191 242 298 351
#     4  10  21  37  60  88 118 153 192 238 296 351
#     4  12  23  35  56  89 124 152 191 244 295 352
#     4  10  20  35  59  88 112 145 195 248 291 336
#     4  10  21  38  59  83 116 157 198 241 286 344
#     4  12  21  35  60  90 118 148 196 246 297 345
#
# _framework density 17.947538000000002
#
# number of rings (size 3 to 8) (size 9 to 14) (size 15 to 20)
#    0.000    1.429    4.286    1.714    0.000    1.143 
#    0.000    2.857    0.000    0.000    0.000    0.000 
#    0.000    0.000    0.000    0.000    0.000    0.000 
#
# Total GULP energy -312788.332916 kJ/mol
# GULP energy per Si atom -5585.505945 kJ/mol
# Density = 1.790669 g / cm^3
# Si number density = 17.947538 Si / 1000 Ang^3
#
#
#
# Elastic Constant Matrix: (Units=GPa)
#
#
# Indices 1 2 3 4 5 6 
#
# 1 54.0167 31.3937 31.1395 0.0000 0.0000 0.0000
# 2 31.3937 106.3516 31.9199 0.0000 0.0000 0.0000
# 3 31.1395 31.9199 88.8848 0.0000 0.0000 0.0000
# 4 0.0000 0.0000 0.0000 19.2981 0.0000 0.0000
# 5 0.0000 0.0000 0.0000 0.0000 25.9251 0.0000
# 6 0.0000 0.0000 0.0000 0.0000 0.0000 21.0828
#
#
#
# Elastic Compliance Matrix: (Units=1/GPa)
#
#
# Indices 1 2 3 4 5 6 
#
# 1 0.025771 -0.005489 -0.007057 0.000000 0.000000 0.000000
# 2 -0.005489 0.011708 -0.002281 0.000000 0.000000 0.000000
# 3 -0.007057 -0.002281 0.014542 0.000000 0.000000 0.000000
# 4 0.000000 0.000000 0.000000 0.051819 0.000000 0.000000
# 5 0.000000 0.000000 0.000000 0.000000 0.038573 0.000000
# 6 0.000000 0.000000 0.000000 0.000000 0.000000 0.047432
#
#
# Mechanical properties :
#
#
# Convention : Reuss Voigt Hill
#
# Bulk Modulus (GPa) = 44.71166 48.68437 46.69801
# Shear Modulus (GPa) = 22.03069 23.58120 22.80595
#
# Velocity S-wave (km/s) = 3.50738 3.62870 3.56856
# Velocity P-wave (km/s) = 6.43186 6.68891 6.56164
#
# Compressibility (1/GPa) = 0.02236553
#
# Stress axis : x y z
#
# Youngs Moduli (GPa) = 38.80257 85.41269 68.76512
#
# Poissons Ratio (x) = 0.46885 0.48530
# Poissons Ratio (y) = 0.21300 0.15688
# Poissons Ratio (z) = 0.27385 0.19486
#
# Static dielectric constant tensor:
#      x y z
#    x 1.630660 0.000000 0.000000 
#    y 0.000000 1.599720 0.000000 
#    z 0.000000 0.000000 1.599360 
# 
# From -- ./inp_files/24207.got.cif
#   From: 2010.05.17/outbox.cif.g08.bks.cpg/sg64_13_cif.got.tgz:24207.got - 2010.06.03 16:29:19.
