data_PCOD9478912
_publ_section_title
;
Structure prediction by ZEFSAII (Michael W. Deem and Ramdas Pophale) SiO2 
 PCOD9478912
Probable space group: C M C A
;
_chemical_formula_sum "Si O2"
_cell_formula_units_Z 104
_cell_length_a 13.642851
_cell_length_b 21.846039
_cell_length_c 15.687485
_cell_angle_alpha 90.000000
_cell_angle_beta 90.000000
_cell_angle_gamma 90.000000
_cell_volume 4675.533405
_symmetry_space_group_name_H-M "C M C A"
_symmetry_group_IT_number 64
_symmetry_cell_setting 'orthorhombic'
loop_
_space_group_symop_operation_xyz
x,y,z
-x,1/2-y,1/2+z
x,-y,-z
-x,1/2+y,1/2-z
-x,-y,-z
x,1/2+y,1/2-z
-x,y,z
x,1/2-y,1/2+z
1/2+x,1/2+y,z
1/2-x,-y,1/2+z
1/2+x,1/2-y,-z
1/2-x,y,1/2-z
1/2-x,1/2-y,-z
1/2+x,y,1/2-z
1/2-x,1/2+y,z
1/2+x,-y,1/2+z
loop_
_atom_site_type_symbol
_atom_site_label
_atom_site_fract_x
_atom_site_fract_y
_atom_site_fract_z
Si Si1 0.391213 0.512788 0.113371
Si Si2 0.113510 0.512569 0.189368
Si Si3 0.000000 0.294854 0.133587
Si Si4 0.817701 0.117584 0.634557
Si Si5 0.721864 0.902804 0.935285
Si Si6 0.893712 0.365521 0.382932
Si Si7 0.832945 0.290870 0.546845
O O1 0.500000 0.534388 0.088364
O O2 0.373383 0.529716 0.212269
O O3 0.308118 0.547294 0.062208
O O4 0.392685 0.439256 0.109373
O O5 0.173524 0.451230 0.169406
O O6 0.142581 0.566998 0.126175
O O7 0.000000 0.496953 0.176737
O O8 0.912459 0.344089 0.158730
O O9 0.912670 0.247997 0.097147
O O10 0.816834 0.110842 0.530457
O O11 0.712322 0.146636 0.659063
O O12 0.770837 0.840816 0.900231
O O13 0.885309 0.330821 0.472958
O O14 0.000000 0.348167 0.345107
O O15 0.750000 0.250000 0.500000
#
# Coordination Sequence:
#
# PCOD9478912 Si02
#       7
#    16  16   8  16  16  16  16
#     4  10  23  40  61  93 132 171 213 268 345 405
#     4  11  23  40  63  94 133 172 214 275 342 411
#     4  12  22  42  61  93 136 178 226 275 327 388
#     4  11  23  36  64  98 128 170 221 273 338 380
#     4  11  23  36  61  96 130 162 211 273 342 399
#     4  10  20  36  59  88 126 169 215 265 329 389
#     4  11  23  38  59  91 128 169 219 273 323 384
#
# _framework density 22.243452000000001
#
# number of rings (size 3 to 8) (size 9 to 14) (size 15 to 20)
#    0.000    1.231    6.154    0.923    4.308    1.231 
#    0.000    6.154    0.000    3.692    8.000    0.000 
#    0.000    0.000    0.000    0.000    0.000    0.000 
#
# Total GULP energy -289599.368307 kJ/mol
# GULP energy per Si atom -5569.218621 kJ/mol
# Density = 2.219282 g / cm^3
# Si number density = 22.243452 Si / 1000 Ang^3
#
#
#
# Elastic Constant Matrix: (Units=GPa)
#
#
# Indices 1 2 3 4 5 6 
#
# 1 155.0186 22.9931 20.8471 0.0000 0.0000 0.0000
# 2 22.9931 84.7023 6.6903 0.0000 0.0000 0.0000
# 3 20.8471 6.6903 78.4284 0.0000 0.0000 0.0000
# 4 0.0000 0.0000 0.0000 2.3170 0.0000 0.0000
# 5 0.0000 0.0000 0.0000 0.0000 20.7295 0.0000
# 6 0.0000 0.0000 0.0000 0.0000 0.0000 46.6761
#
#
#
# Elastic Compliance Matrix: (Units=1/GPa)
#
#
# Indices 1 2 3 4 5 6 
#
# 1 0.006938 -0.001750 -0.001695 0.000000 0.000000 0.000000
# 2 -0.001750 0.012327 -0.000587 0.000000 0.000000 0.000000
# 3 -0.001695 -0.000587 0.013251 0.000000 0.000000 0.000000
# 4 0.000000 0.000000 0.000000 0.431596 0.000000 0.000000
# 5 0.000000 0.000000 0.000000 0.000000 0.048240 0.000000
# 6 0.000000 0.000000 0.000000 0.000000 0.000000 0.021424
#
#
# Mechanical properties :
#
#
# Convention : Reuss Voigt Hill
#
# Bulk Modulus (GPa) = 40.89236 46.57892 43.73564
# Shear Modulus (GPa) = 9.09105 31.78578 20.43842
#
# Velocity S-wave (km/s) = 2.02384 3.78431 3.03454
# Velocity P-wave (km/s) = 4.88724 6.33092 5.65534
#
# Compressibility (1/GPa) = 0.02445445
#
# Stress axis : x y z
#
# Youngs Moduli (GPa) = 144.12773 81.12066 75.46559
#
# Poissons Ratio (x) = 0.14193 0.12792
# Poissons Ratio (y) = 0.25216 0.04426
# Poissons Ratio (z) = 0.24430 0.04758
#
# Static dielectric constant tensor:
#      x y z
#    x 1.862360 0.000000 0.000000 
#    y 0.000000 1.807550 0.000000 
#    z 0.000000 0.000000 1.874060 
# 
# From -- ./inp_files/32461.got.cif
#   From: 2010.05.17/outbox.cif.g08.bks.cpg/sg64_17_cif.got.tgz:32461.got - 2010.06.03 16:29:19.
