data_PCOD9478504
_publ_section_title
;
Structure prediction by ZEFSAII (Michael W. Deem and Ramdas Pophale) SiO2 
 PCOD9478504
Probable space group: C M C A
;
_chemical_formula_sum "Si O2"
_cell_formula_units_Z 56
_cell_length_a 9.883770
_cell_length_b 9.097630
_cell_length_c 30.021098
_cell_angle_alpha 90.000000
_cell_angle_beta 90.000000
_cell_angle_gamma 90.000000
_cell_volume 2699.463583
_symmetry_space_group_name_H-M "C M C A"
_symmetry_group_IT_number 64
_symmetry_cell_setting 'orthorhombic'
loop_
_space_group_symop_operation_xyz
x,y,z
-x,1/2-y,1/2+z
x,-y,-z
-x,1/2+y,1/2-z
-x,-y,-z
x,1/2+y,1/2-z
-x,y,z
x,1/2-y,1/2+z
1/2+x,1/2+y,z
1/2-x,-y,1/2+z
1/2+x,1/2-y,-z
1/2-x,y,1/2-z
1/2-x,1/2-y,-z
1/2+x,y,1/2-z
1/2-x,1/2+y,z
1/2+x,-y,1/2+z
loop_
_atom_site_type_symbol
_atom_site_label
_atom_site_fract_x
_atom_site_fract_y
_atom_site_fract_z
Si Si1 0.342973 0.913543 0.793513
Si Si2 0.209031 0.000000 0.000000
Si Si3 0.842137 0.377546 0.347652
Si Si4 0.851205 0.233030 0.437546
O O1 0.500000 0.961794 0.787212
O O2 0.250000 0.929684 0.750000
O O3 0.263411 0.000909 0.832006
O O4 0.346402 0.744937 0.809164
O O5 0.286888 0.095876 0.037166
O O6 0.140702 0.869381 0.027975
O O7 0.789092 0.299505 0.392709
O O8 0.000000 0.428258 0.354729
O O9 0.000000 0.185036 0.423463
#
# Coordination Sequence:
#
# PCOD9478504 Si02
#       4
#    16   8  16  16
#     4  11  23  39  60  86 114 148 189 233 285 342
#     4  10  20  34  56  84 112 148 190 230 280 332
#     4  10  22  39  59  85 117 152 191 236 284 337
#     4  10  20  36  56  81 114 149 188 233 280 331
#
# _framework density 20.744862000000001
#
# number of rings (size 3 to 8) (size 9 to 14) (size 15 to 20)
#    0.000    1.714    0.000    4.286    0.000    4.571 
#    0.000    7.143    0.000    0.000    0.000    0.000 
#    0.000    0.000    0.000    0.000    0.000    0.000 
#
# Total GULP energy -156049.085842 kJ/mol
# GULP energy per Si atom -5573.181637 kJ/mol
# Density = 2.069765 g / cm^3
# Si number density = 20.744862 Si / 1000 Ang^3
#
#
#
# Elastic Constant Matrix: (Units=GPa)
#
#
# Indices 1 2 3 4 5 6 
#
# 1 88.7053 32.1805 7.1903 0.0000 0.0000 0.0000
# 2 32.1805 76.2932 -5.0693 0.0000 0.0000 0.0000
# 3 7.1903 -5.0693 69.5236 0.0000 0.0000 0.0000
# 4 0.0000 0.0000 0.0000 39.4630 0.0000 0.0000
# 5 0.0000 0.0000 0.0000 0.0000 45.9537 0.0000
# 6 0.0000 0.0000 0.0000 0.0000 0.0000 1.2825
#
#
#
# Elastic Compliance Matrix: (Units=1/GPa)
#
#
# Indices 1 2 3 4 5 6 
#
# 1 0.013537 -0.005831 -0.001825 0.000000 0.000000 0.000000
# 2 -0.005831 0.015683 0.001747 0.000000 0.000000 0.000000
# 3 -0.001825 0.001747 0.014700 0.000000 0.000000 0.000000
# 4 0.000000 0.000000 0.000000 0.025340 0.000000 0.000000
# 5 0.000000 0.000000 0.000000 0.000000 0.021761 0.000000
# 6 0.000000 0.000000 0.000000 0.000000 0.000000 0.779729
#
#
# Mechanical properties :
#
#
# Convention : Reuss Voigt Hill
#
# Bulk Modulus (GPa) = 31.15262 33.68056 32.41659
# Shear Modulus (GPa) = 5.59742 30.68789 18.14266
#
# Velocity S-wave (km/s) = 1.64441 3.85034 2.96051
# Velocity P-wave (km/s) = 4.31915 6.00314 5.22938
#
# Compressibility (1/GPa) = 0.03210003
#
# Stress axis : x y z
#
# Youngs Moduli (GPa) = 73.87387 63.76373 68.02854
#
# Poissons Ratio (x) = 0.37181 0.12416
# Poissons Ratio (y) = 0.43076 -0.11882
# Poissons Ratio (z) = 0.13483 -0.11137
#
# Static dielectric constant tensor:
#      x y z
#    x 1.744670 0.000000 0.000000 
#    y 0.000000 1.738980 0.000000 
#    z 0.000000 0.000000 1.794150 
# 
# From -- ./inp_files/48946.got.cif
#   From: 2010.05.17/outbox.cif.g08.bks.cpg/sg64_25_cif.got.tgz:48946.got - 2010.06.03 16:29:19.
