data_PCOD9478958
_publ_section_title
;
Structure prediction by ZEFSAII (Michael W. Deem and Ramdas Pophale) SiO2 
 PCOD9478958
Probable space group: C M C A
;
_chemical_formula_sum "Si O2"
_cell_formula_units_Z 104
_cell_length_a 21.096362
_cell_length_b 9.674265
_cell_length_c 25.853780
_cell_angle_alpha 90.000000
_cell_angle_beta 90.000000
_cell_angle_gamma 90.000000
_cell_volume 5276.544407
_symmetry_space_group_name_H-M "C M C A"
_symmetry_group_IT_number 64
_symmetry_cell_setting 'orthorhombic'
loop_
_space_group_symop_operation_xyz
x,y,z
-x,1/2-y,1/2+z
x,-y,-z
-x,1/2+y,1/2-z
-x,-y,-z
x,1/2+y,1/2-z
-x,y,z
x,1/2-y,1/2+z
1/2+x,1/2+y,z
1/2-x,-y,1/2+z
1/2+x,1/2-y,-z
1/2-x,y,1/2-z
1/2-x,1/2-y,-z
1/2+x,y,1/2-z
1/2-x,1/2+y,z
1/2+x,-y,1/2+z
loop_
_atom_site_type_symbol
_atom_site_label
_atom_site_fract_x
_atom_site_fract_y
_atom_site_fract_z
Si Si1 0.373467 0.329786 0.952569
Si Si2 0.067960 0.719911 0.045215
Si Si3 0.573596 0.456680 0.127463
Si Si4 0.577345 0.980313 0.818555
Si Si5 0.264389 0.000000 0.500000
Si Si6 0.923876 0.816579 0.229177
Si Si7 0.348301 0.479539 0.424123
O O1 0.388047 0.435664 0.906917
O O2 0.372015 0.175981 0.930884
O O3 0.426030 0.324002 0.997385
O O4 0.310577 0.374914 0.983622
O O5 0.120445 0.603019 0.042691
O O6 0.000000 0.649175 0.044931
O O7 0.073388 0.812315 0.096205
O O8 0.500000 0.503784 0.131262
O O9 0.599954 0.418536 0.183703
O O10 0.500000 0.979064 0.831178
O O11 0.590748 0.842184 0.784558
O O12 0.625011 0.980647 0.867216
O O13 0.591304 0.116633 0.784301
O O14 0.222262 0.974503 0.448543
O O15 0.000000 0.824486 0.225203
#
# Coordination Sequence:
#
# PCOD9478958 Si02
#       7
#    16  16  16  16   8  16  16
#     4  12  24  40  63  91 123 170 221 266 304 377
#     4  11  21  39  61  92 132 164 196 256 330 384
#     4  10  20  36  61  94 129 164 198 252 327 379
#     4  10  21  39  62  95 130 162 204 256 322 386
#     4  12  26  46  62  86 128 174 230 260 310 370
#     4   9  19  36  60  91 130 165 198 251 319 393
#     4  12  25  39  62  91 123 170 213 265 313 376
#
# _framework density 19.709869999999999
#
# number of rings (size 3 to 8) (size 9 to 14) (size 15 to 20)
#    0.000    1.231    4.615    1.385    2.154    4.308 
#    0.000    0.000    0.000    0.923    0.000    0.000 
#    0.000    0.000    0.000    0.000    0.000    0.000 
#
# Total GULP energy -289766.421062 kJ/mol
# GULP energy per Si atom -5572.431174 kJ/mol
# Density = 1.966501 g / cm^3
# Si number density = 19.709870 Si / 1000 Ang^3
#
#
#
# Elastic Constant Matrix: (Units=GPa)
#
#
# Indices 1 2 3 4 5 6 
#
# 1 55.0503 20.4626 21.7565 0.0000 0.0000 0.0000
# 2 20.4626 83.6939 28.9996 0.0000 0.0000 0.0000
# 3 21.7565 28.9996 88.5036 0.0000 0.0000 0.0000
# 4 0.0000 0.0000 0.0000 36.9560 0.0000 0.0000
# 5 0.0000 0.0000 0.0000 0.0000 249.7447 0.0000
# 6 0.0000 0.0000 0.0000 0.0000 0.0000 42.5510
#
#
#
# Elastic Compliance Matrix: (Units=1/GPa)
#
#
# Indices 1 2 3 4 5 6 
#
# 1 0.021139 -0.003799 -0.003952 0.000000 0.000000 0.000000
# 2 -0.003799 0.014161 -0.003706 0.000000 0.000000 0.000000
# 3 -0.003952 -0.003706 0.013485 0.000000 0.000000 0.000000
# 4 0.000000 0.000000 0.000000 0.027059 0.000000 0.000000
# 5 0.000000 0.000000 0.000000 0.000000 0.004004 0.000000
# 6 0.000000 0.000000 0.000000 0.000000 0.000000 0.023501
#
#
# Mechanical properties :
#
#
# Convention : Reuss Voigt Hill
#
# Bulk Modulus (GPa) = 38.65312 41.07611 39.86462
# Shear Modulus (GPa) = 37.06786 76.25227 56.66007
#
# Velocity S-wave (km/s) = 4.34138 6.22666 5.36744
# Velocity P-wave (km/s) = 6.69206 8.51943 7.66043
#
# Compressibility (1/GPa) = 0.02587113
#
# Stress axis : x y z
#
# Youngs Moduli (GPa) = 47.30564 70.61463 74.15740
#
# Poissons Ratio (x) = 0.26827 0.29305
# Poissons Ratio (y) = 0.17972 0.27485
# Poissons Ratio (z) = 0.18694 0.26172
#
# Static dielectric constant tensor:
#      x y z
#    x 1.689180 0.000000 0.000000 
#    y 0.000000 1.696050 0.000000 
#    z 0.000000 0.000000 1.763100 
# 
# From -- ./inp_files/51018.got.cif
#   From: 2010.05.17/outbox.cif.g08.bks.cpg/sg64_26_cif.got.tgz:51018.got - 2010.06.03 16:29:19.
