data_PCOD9478021
_publ_section_title
;
Structure prediction by ZEFSAII (Michael W. Deem and Ramdas Pophale) SiO2 
 PCOD9478021
Probable space group: C M C A
;
_chemical_formula_sum "Si O2"
_cell_formula_units_Z 88
_cell_length_a 14.415971
_cell_length_b 28.562096
_cell_length_c 9.717563
_cell_angle_alpha 90.000000
_cell_angle_beta 90.000000
_cell_angle_gamma 90.000000
_cell_volume 4001.209943
_symmetry_space_group_name_H-M "C M C A"
_symmetry_group_IT_number 64
_symmetry_cell_setting 'orthorhombic'
loop_
_space_group_symop_operation_xyz
x,y,z
-x,1/2-y,1/2+z
x,-y,-z
-x,1/2+y,1/2-z
-x,-y,-z
x,1/2+y,1/2-z
-x,y,z
x,1/2-y,1/2+z
1/2+x,1/2+y,z
1/2-x,-y,1/2+z
1/2+x,1/2-y,-z
1/2-x,y,1/2-z
1/2-x,1/2-y,-z
1/2+x,y,1/2-z
1/2-x,1/2+y,z
1/2+x,-y,1/2+z
loop_
_atom_site_type_symbol
_atom_site_label
_atom_site_fract_x
_atom_site_fract_y
_atom_site_fract_z
Si Si1 0.387732 0.428456 0.363862
Si Si2 0.110147 0.907536 0.668292
Si Si3 0.841661 0.222272 0.953240
Si Si4 0.386884 0.011449 0.347934
Si Si5 0.250000 0.148142 0.750000
Si Si6 0.860787 0.300546 0.753486
O O1 0.500000 0.422222 0.356437
O O2 0.359816 0.430254 0.524058
O O3 0.364338 0.472747 0.267833
O O4 0.331135 0.384245 0.309212
O O5 0.145970 0.937949 0.795764
O O6 0.123634 0.852243 0.686341
O O7 0.000000 0.914210 0.668430
O O8 0.800766 0.179916 0.863758
O O9 0.894118 0.258881 0.853491
O O10 0.750000 0.250000 0.000000
O O11 0.890689 0.205853 0.094283
O O12 0.500000 0.011553 0.356352
O O13 0.351780 0.000000 0.500000
O O14 0.750000 0.295849 0.750000
#
# Coordination Sequence:
#
# PCOD9478021 Si02
#       6
#    16  16  16  16   8  16
#     4  10  22  40  63  90 123 164 206 252 308 370
#     4  10  21  39  63  88 121 163 205 250 308 372
#     4  10  19  36  60  82 117 159 202 247 311 363
#     4   9  19  38  60  86 124 162 197 249 312 362
#     4  12  22  38  66  92 122 162 212 256 306 370
#     4  10  20  36  58  84 112 158 200 243 303 365
#
# _framework density 21.993347
#
# number of rings (size 3 to 8) (size 9 to 14) (size 15 to 20)
#    0.000    2.000    2.727    2.727    2.545    2.182 
#    1.636    1.818    0.000    1.091    0.000    0.000 
#    0.000    0.000    0.000    0.000    0.000    0.000 
#
# Total GULP energy -245588.131060 kJ/mol
# GULP energy per Si atom -5581.548433 kJ/mol
# Density = 2.194329 g / cm^3
# Si number density = 21.993347 Si / 1000 Ang^3
#
#
#
# Elastic Constant Matrix: (Units=GPa)
#
#
# Indices 1 2 3 4 5 6 
#
# 1 58.3871 3.2741 11.9961 0.0000 0.0000 0.0000
# 2 3.2741 119.7111 60.8391 0.0000 0.0000 0.0000
# 3 11.9961 60.8391 154.8302 0.0000 0.0000 0.0000
# 4 0.0000 0.0000 0.0000 42.6095 0.0000 0.0000
# 5 0.0000 0.0000 0.0000 0.0000 6.0842 0.0000
# 6 0.0000 0.0000 0.0000 0.0000 0.0000 28.1089
#
#
#
# Elastic Compliance Matrix: (Units=1/GPa)
#
#
# Indices 1 2 3 4 5 6 
#
# 1 0.017411 0.000262 -0.001452 0.000000 0.000000 0.000000
# 2 0.000262 0.010442 -0.004123 0.000000 0.000000 0.000000
# 3 -0.001452 -0.004123 0.008191 0.000000 0.000000 0.000000
# 4 0.000000 0.000000 0.000000 0.023469 0.000000 0.000000
# 5 0.000000 0.000000 0.000000 0.000000 0.164360 0.000000
# 6 0.000000 0.000000 0.000000 0.000000 0.000000 0.035576
#
#
# Mechanical properties :
#
#
# Convention : Reuss Voigt Hill
#
# Bulk Modulus (GPa) = 39.34373 53.90525 46.62449
# Shear Modulus (GPa) = 17.95026 32.48178 25.21602
#
# Velocity S-wave (km/s) = 2.85996 3.84720 3.38972
# Velocity P-wave (km/s) = 5.36969 6.65565 6.04695
#
# Compressibility (1/GPa) = 0.02541701
#
# Stress axis : x y z
#
# Youngs Moduli (GPa) = 57.43600 95.76882 122.07959
#
# Poissons Ratio (x) = -0.02506 0.17723
# Poissons Ratio (y) = -0.01503 0.50337
# Poissons Ratio (z) = 0.08338 0.39488
#
# Static dielectric constant tensor:
#      x y z
#    x 1.827170 0.000000 0.000000 
#    y 0.000000 1.832730 0.000000 
#    z 0.000000 0.000000 1.899520 
# 
# From -- ./inp_files/7324.got.cif
#   From: 2010.05.17/outbox.cif.g08.bks.cpg/sg64_4_cif.got.tgz:7324.got - 2010.06.03 16:29:19.
