data_PCOD9478208
_publ_section_title
;
Structure prediction by ZEFSAII (Michael W. Deem and Ramdas Pophale) SiO2 
 PCOD9478208
Probable space group: C M C A
;
_chemical_formula_sum "Si O2"
_cell_formula_units_Z 112
_cell_length_a 22.630996
_cell_length_b 11.998850
_cell_length_c 23.520830
_cell_angle_alpha 90.000000
_cell_angle_beta 90.000000
_cell_angle_gamma 90.000000
_cell_volume 6386.985571
_symmetry_space_group_name_H-M "C M C A"
_symmetry_group_IT_number 64
_symmetry_cell_setting 'orthorhombic'
loop_
_space_group_symop_operation_xyz
x,y,z
-x,1/2-y,1/2+z
x,-y,-z
-x,1/2+y,1/2-z
-x,-y,-z
x,1/2+y,1/2-z
-x,y,z
x,1/2-y,1/2+z
1/2+x,1/2+y,z
1/2-x,-y,1/2+z
1/2+x,1/2-y,-z
1/2-x,y,1/2-z
1/2-x,1/2-y,-z
1/2+x,y,1/2-z
1/2-x,1/2+y,z
1/2+x,-y,1/2+z
loop_
_atom_site_type_symbol
_atom_site_label
_atom_site_fract_x
_atom_site_fract_y
_atom_site_fract_z
Si Si1 0.067633 0.668912 0.538541
Si Si2 0.350696 0.163360 0.317517
Si Si3 0.567990 0.585142 0.083096
Si Si4 0.069855 0.346668 0.245869
Si Si5 0.843131 0.463494 0.793284
Si Si6 0.742427 0.155607 0.818021
Si Si7 0.632956 0.768368 0.354788
O O1 0.082070 0.662030 0.471750
O O2 0.069163 0.541431 0.561003
O O3 0.109984 0.733365 0.581189
O O4 0.000000 0.708588 0.543995
O O5 0.385682 0.102522 0.367067
O O6 0.398133 0.243900 0.285932
O O7 0.325240 0.082351 0.268980
O O8 0.299179 0.244198 0.339145
O O9 0.500000 0.608672 0.101052
O O10 0.100984 0.456890 0.220600
O O11 0.086753 0.329096 0.312136
O O12 0.000000 0.347816 0.238301
O O13 0.793377 0.540671 0.821629
O O14 0.857477 0.356089 0.830864
O O15 0.750000 0.174583 0.750000
O O16 0.805723 0.165379 0.846872
#
# Coordination Sequence:
#
# PCOD9478208 Si02
#       7
#    16  16  16  16  16  16  16
#     4   9  19  35  53  80 106 134 179 222 264 310
#     4  10  20  33  52  76 102 139 174 213 262 313
#     4   9  18  34  57  78 104 138 176 222 265 309
#     4  10  20  31  46  74 107 133 167 210 260 325
#     4  10  21  32  50  76 106 137 170 212 262 320
#     4  11  21  35  50  76 106 138 175 208 257 320
#     4  11  21  33  53  75 104 140 174 216 264 312
#
# _framework density 17.535658000000002
#
# number of rings (size 3 to 8) (size 9 to 14) (size 15 to 20)
#    0.000    2.000    4.286    2.571    2.000    4.571 
#    0.000    0.714    0.000    3.429    0.000    9.000 
#    0.000    0.000    0.000    0.000    0.000    0.000 
#
# Total GULP energy -312523.041486 kJ/mol
# GULP energy per Si atom -5580.768598 kJ/mol
# Density = 1.749575 g / cm^3
# Si number density = 17.535658 Si / 1000 Ang^3
#
#
#
# Elastic Constant Matrix: (Units=GPa)
#
#
# Indices 1 2 3 4 5 6 
#
# 1 66.4891 15.8002 -3.9889 0.0000 0.0000 0.0000
# 2 15.8002 56.4796 -1.1873 0.0000 0.0000 0.0000
# 3 -3.9889 -1.1873 28.6366 0.0000 0.0000 0.0000
# 4 0.0000 0.0000 0.0000 20.1891 0.0000 0.0000
# 5 0.0000 0.0000 0.0000 0.0000 20.4213 0.0000
# 6 0.0000 0.0000 0.0000 0.0000 0.0000 14.4717
#
#
#
# Elastic Compliance Matrix: (Units=1/GPa)
#
#
# Indices 1 2 3 4 5 6 
#
# 1 0.016233 -0.004498 0.002075 0.000000 0.000000 0.000000
# 2 -0.004498 0.018967 0.000160 0.000000 0.000000 0.000000
# 3 0.002075 0.000160 0.035216 0.000000 0.000000 0.000000
# 4 0.000000 0.000000 0.000000 0.049532 0.000000 0.000000
# 5 0.000000 0.000000 0.000000 0.000000 0.048969 0.000000
# 6 0.000000 0.000000 0.000000 0.000000 0.000000 0.069101
#
#
# Mechanical properties :
#
#
# Convention : Reuss Voigt Hill
#
# Bulk Modulus (GPa) = 15.17674 19.20592 17.19133
# Shear Modulus (GPa) = 18.90310 20.41515 19.65913
#
# Velocity S-wave (km/s) = 3.28682 3.41575 3.35191
# Velocity P-wave (km/s) = 4.80394 5.15099 4.98049
#
# Compressibility (1/GPa) = 0.06589031
#
# Stress axis : x y z
#
# Youngs Moduli (GPa) = 61.60160 52.72284 28.39619
#
# Poissons Ratio (x) = 0.23713 -0.05891
# Poissons Ratio (y) = 0.27706 -0.00454
# Poissons Ratio (z) = -0.12781 -0.00843
#
# Static dielectric constant tensor:
#      x y z
#    x 1.608460 0.000000 0.000000 
#    y 0.000000 1.623820 0.000000 
#    z 0.000000 0.000000 1.589270 
# 
# From -- ./inp_files/46678.got.cif
#   From: 2010.05.17/outbox.cif.g08.bks.cpg/sg64_24_cif.got.tgz:46678.got - 2010.06.03 16:29:19.
