data_PCOD9478454
_publ_section_title
;
Structure prediction by ZEFSAII (Michael W. Deem and Ramdas Pophale) SiO2 
 PCOD9478454
Probable space group: C M C A
;
_chemical_formula_sum "Si O2"
_cell_formula_units_Z 80
_cell_length_a 18.444289
_cell_length_b 14.593377
_cell_length_c 17.950103
_cell_angle_alpha 90.000000
_cell_angle_beta 90.000000
_cell_angle_gamma 90.000000
_cell_volume 4831.529833
_symmetry_space_group_name_H-M "C M C A"
_symmetry_group_IT_number 64
_symmetry_cell_setting 'orthorhombic'
loop_
_space_group_symop_operation_xyz
x,y,z
-x,1/2-y,1/2+z
x,-y,-z
-x,1/2+y,1/2-z
-x,-y,-z
x,1/2+y,1/2-z
-x,y,z
x,1/2-y,1/2+z
1/2+x,1/2+y,z
1/2-x,-y,1/2+z
1/2+x,1/2-y,-z
1/2-x,y,1/2-z
1/2-x,1/2-y,-z
1/2+x,y,1/2-z
1/2-x,1/2+y,z
1/2+x,-y,1/2+z
loop_
_atom_site_type_symbol
_atom_site_label
_atom_site_fract_x
_atom_site_fract_y
_atom_site_fract_z
Si Si1 0.276536 0.056667 0.329329
Si Si2 0.303496 0.716449 0.063576
Si Si3 0.085545 0.557372 0.692247
Si Si4 0.414786 0.898207 0.475093
Si Si5 0.192191 0.867913 0.311302
O O1 0.250000 0.093917 0.250000
O O2 0.268617 0.130864 0.392674
O O3 0.361166 0.029269 0.319925
O O4 0.230586 0.962466 0.339945
O O5 0.318654 0.796358 0.123033
O O6 0.250000 0.750000 0.000000
O O7 0.373759 0.677367 0.022133
O O8 0.095185 0.611529 0.613995
O O9 0.120344 0.607660 0.763727
O O10 0.000000 0.537520 0.700288
O O11 0.500000 0.895327 0.490785
O O12 0.388686 0.000000 0.500000
O O13 0.250000 0.832157 0.250000
#
# Coordination Sequence:
#
# PCOD9478454 Si02
#       5
#    16  16  16  16  16
#     4   9  19  35  52  75 108 139 178 221 274 328
#     4  12  22  31  56  82 109 144 184 228 278 326
#     4   9  17  34  56  74 102 141 177 222 271 326
#     4  10  20  34  54  80 109 139 179 227 275 328
#     4   9  20  35  51  77 109 140 178 226 274 326
#
# _framework density 16.557901999999999
#
# number of rings (size 3 to 8) (size 9 to 14) (size 15 to 20)
#    0.000    2.600    2.000    3.000    0.000    0.800 
#    0.000    0.000    0.000    7.200    0.000    7.000 
#    0.000    0.000    0.000    0.000    0.000    0.000 
#
# Total GULP energy -222843.039847 kJ/mol
# GULP energy per Si atom -5571.075996 kJ/mol
# Density = 1.652022 g / cm^3
# Si number density = 16.557902 Si / 1000 Ang^3
#
#
#
# Elastic Constant Matrix: (Units=GPa)
#
#
# Indices 1 2 3 4 5 6 
#
# 1 95.8482 48.4205 66.1532 0.0000 0.0000 0.0000
# 2 48.4205 93.3286 75.5729 0.0000 0.0000 0.0000
# 3 66.1532 75.5729 125.1091 0.0000 0.0000 0.0000
# 4 0.0000 0.0000 0.0000 34.0630 0.0000 0.0000
# 5 0.0000 0.0000 0.0000 0.0000 26.6961 0.0000
# 6 0.0000 0.0000 0.0000 0.0000 0.0000 14.0802
#
#
#
# Elastic Compliance Matrix: (Units=1/GPa)
#
#
# Indices 1 2 3 4 5 6 
#
# 1 0.016844 -0.002989 -0.007101 0.000000 0.000000 0.000000
# 2 -0.002989 0.021504 -0.011409 0.000000 0.000000 0.000000
# 3 -0.007101 -0.011409 0.018640 0.000000 0.000000 0.000000
# 4 0.000000 0.000000 0.000000 0.029357 0.000000 0.000000
# 5 0.000000 0.000000 0.000000 0.000000 0.037459 0.000000
# 6 0.000000 0.000000 0.000000 0.000000 0.000000 0.071021
#
#
# Mechanical properties :
#
#
# Convention : Reuss Voigt Hill
#
# Bulk Modulus (GPa) = 71.48264 77.17544 74.32904
# Shear Modulus (GPa) = 20.61960 23.24382 21.93171
#
# Velocity S-wave (km/s) = 3.53271 3.75078 3.64338
# Velocity P-wave (km/s) = 7.73984 8.09126 7.91750
#
# Compressibility (1/GPa) = 0.01398941
#
# Stress axis : x y z
#
# Youngs Moduli (GPa) = 59.36752 46.50240 53.64880
#
# Poissons Ratio (x) = 0.13899 0.38097
# Poissons Ratio (y) = 0.17744 0.61210
# Poissons Ratio (z) = 0.42158 0.53056
#
# Static dielectric constant tensor:
#      x y z
#    x 1.560960 0.000000 0.000000 
#    y 0.000000 1.569250 0.000000 
#    z 0.000000 0.000000 1.579900 
# 
# From -- ./inp_files/33007.got.cif
#   From: 2010.05.17/outbox.cif.g08.bks.cpg/sg64_17_cif.got.tgz:33007.got - 2010.06.03 16:29:19.
