data_PCOD9478848
_publ_section_title
;
Structure prediction by ZEFSAII (Michael W. Deem and Ramdas Pophale) SiO2 
 PCOD9478848
Probable space group: C M C A
;
_chemical_formula_sum "Si O2"
_cell_formula_units_Z 112
_cell_length_a 7.432518
_cell_length_b 20.577310
_cell_length_c 33.037927
_cell_angle_alpha 90.000000
_cell_angle_beta 90.000000
_cell_angle_gamma 90.000000
_cell_volume 5052.861092
_symmetry_space_group_name_H-M "C M C A"
_symmetry_group_IT_number 64
_symmetry_cell_setting 'orthorhombic'
loop_
_space_group_symop_operation_xyz
x,y,z
-x,1/2-y,1/2+z
x,-y,-z
-x,1/2+y,1/2-z
-x,-y,-z
x,1/2+y,1/2-z
-x,y,z
x,1/2-y,1/2+z
1/2+x,1/2+y,z
1/2-x,-y,1/2+z
1/2+x,1/2-y,-z
1/2-x,y,1/2-z
1/2-x,1/2-y,-z
1/2+x,y,1/2-z
1/2-x,1/2+y,z
1/2+x,-y,1/2+z
loop_
_atom_site_type_symbol
_atom_site_label
_atom_site_fract_x
_atom_site_fract_y
_atom_site_fract_z
Si Si1 0.286762 0.048502 0.120621
Si Si2 0.782342 0.726698 0.440963
Si Si3 0.280368 0.590374 0.638648
Si Si4 0.784776 0.809268 0.850973
Si Si5 0.205002 0.582775 0.033218
Si Si6 0.219933 0.129402 0.547799
Si Si7 0.284576 0.803899 0.202967
O O1 0.500000 0.040260 0.114988
O O2 0.265236 0.115613 0.144495
O O3 0.211750 0.055305 0.074669
O O4 0.221698 0.984293 0.143108
O O5 0.735052 0.725410 0.393261
O O6 0.702161 0.660738 0.458551
O O7 0.723420 0.795617 0.458809
O O8 0.000000 0.722281 0.444152
O O9 0.500000 0.593041 0.639547
O O10 0.227558 0.610480 0.593122
O O11 0.216730 0.639292 0.673263
O O12 0.716937 0.765406 0.814172
O O13 0.000000 0.809162 0.849571
O O14 0.000000 0.558367 0.030947
O O15 0.283078 0.581270 0.987896
O O16 0.000000 0.128411 0.546634
O O17 0.500000 0.803136 0.198386
O O18 0.250000 0.814109 0.250000
#
# Coordination Sequence:
#
# PCOD9478848 Si02
#       7
#    16  16  16  16  16  16  16
#     4   9  18  31  49  74 105 136 165 203 245 282
#     4   9  15  26  45  66  91 128 168 201 238 287
#     4   9  17  32  52  73 100 135 169 200 244 300
#     4   9  17  32  53  73  95 128 165 198 240 298
#     4   9  17  26  40  69 102 130 164 208 245 273
#     4   9  15  25  44  68  96 130 170 206 238 283
#     4  10  20  36  58  80  98 122 160 205 250 298
#
# _framework density 22.165659999999999
#
# number of rings (size 3 to 8) (size 9 to 14) (size 15 to 20)
#    0.000    2.857    1.429    0.429    0.000    1.143 
#    0.000    4.286    0.000    6.000    0.000    4.000 
#    0.000    0.000    0.000    0.000    0.000    0.000 
#
# Total GULP energy -312539.025501 kJ/mol
# GULP energy per Si atom -5581.054027 kJ/mol
# Density = 2.211521 g / cm^3
# Si number density = 22.165660 Si / 1000 Ang^3
#
#
#
# Elastic Constant Matrix: (Units=GPa)
#
#
# Indices 1 2 3 4 5 6 
#
# 1 67.9945 2.3019 5.2849 0.0000 0.0000 0.0000
# 2 2.3019 130.2933 72.9729 0.0000 0.0000 0.0000
# 3 5.2849 72.9729 151.5386 0.0000 0.0000 0.0000
# 4 0.0000 0.0000 0.0000 19.7556 0.0000 0.0000
# 5 0.0000 0.0000 0.0000 0.0000 2.3842 0.0000
# 6 0.0000 0.0000 0.0000 0.0000 0.0000 11.0242
#
#
#
# Elastic Compliance Matrix: (Units=1/GPa)
#
#
# Indices 1 2 3 4 5 6 
#
# 1 0.014747 0.000038 -0.000532 0.000000 0.000000 0.000000
# 2 0.000038 0.010509 -0.005062 0.000000 0.000000 0.000000
# 3 -0.000532 -0.005062 0.009055 0.000000 0.000000 0.000000
# 4 0.000000 0.000000 0.000000 0.050618 0.000000 0.000000
# 5 0.000000 0.000000 0.000000 0.000000 0.419425 0.000000
# 6 0.000000 0.000000 0.000000 0.000000 0.000000 0.090709
#
#
# Mechanical properties :
#
#
# Convention : Reuss Voigt Hill
#
# Bulk Modulus (GPa) = 43.10706 56.77174 49.93940
# Shear Modulus (GPa) = 8.14450 24.58393 16.36422
#
# Velocity S-wave (km/s) = 1.91895 3.33393 2.72006
# Velocity P-wave (km/s) = 4.93961 6.36303 5.69596
#
# Compressibility (1/GPa) = 0.02319806
#
# Stress axis : x y z
#
# Youngs Moduli (GPa) = 67.80955 95.15264 110.43399
#
# Poissons Ratio (x) = -0.00358 0.05880
# Poissons Ratio (y) = -0.00255 0.55903
# Poissons Ratio (z) = 0.03610 0.48167
#
# Static dielectric constant tensor:
#      x y z
#    x 1.706210 0.000000 0.000000 
#    y 0.000000 1.838660 0.000000 
#    z 0.000000 0.000000 1.812850 
# 
# From -- ./inp_files/49500.got.cif
#   From: 2010.05.17/outbox.cif.g08.bks.cpg/sg64_25_cif.got.tgz:49500.got - 2010.06.03 16:29:19.
