data_PCOD9478969
_publ_section_title
;
Structure prediction by ZEFSAII (Michael W. Deem and Ramdas Pophale) SiO2 
 PCOD9478969
Probable space group: C M C A
;
_chemical_formula_sum "Si O2"
_cell_formula_units_Z 96
_cell_length_a 22.247516
_cell_length_b 14.449902
_cell_length_c 13.739714
_cell_angle_alpha 90.000000
_cell_angle_beta 90.000000
_cell_angle_gamma 90.000000
_cell_volume 4416.966671
_symmetry_space_group_name_H-M "C M C A"
_symmetry_group_IT_number 64
_symmetry_cell_setting 'orthorhombic'
loop_
_space_group_symop_operation_xyz
x,y,z
-x,1/2-y,1/2+z
x,-y,-z
-x,1/2+y,1/2-z
-x,-y,-z
x,1/2+y,1/2-z
-x,y,z
x,1/2-y,1/2+z
1/2+x,1/2+y,z
1/2-x,-y,1/2+z
1/2+x,1/2-y,-z
1/2-x,y,1/2-z
1/2-x,1/2-y,-z
1/2+x,y,1/2-z
1/2-x,1/2+y,z
1/2+x,-y,1/2+z
loop_
_atom_site_type_symbol
_atom_site_label
_atom_site_fract_x
_atom_site_fract_y
_atom_site_fract_z
Si Si1 0.569964 0.199683 0.435698
Si Si2 0.893496 0.208551 0.856191
Si Si3 0.158400 0.674816 0.835222
Si Si4 0.262758 0.207899 0.106152
Si Si5 0.567298 0.395683 0.731446
Si Si6 0.324740 0.017994 0.110313
O O1 0.500000 0.224712 0.430413
O O2 0.584228 0.163658 0.544113
O O3 0.706547 0.241743 0.329726
O O4 0.581211 0.131017 0.344336
O O5 0.112559 0.288712 0.082097
O O6 0.883866 0.153020 0.756954
O O7 0.826495 0.246945 0.870675
O O8 0.196073 0.583273 0.856793
O O9 0.274610 0.098105 0.109430
O O10 0.250000 0.250000 0.000000
O O11 0.500000 0.436211 0.726539
O O12 0.620281 0.451216 0.678997
O O13 0.432720 0.297256 0.674199
O O14 0.346246 0.000000 0.000000
#
# Coordination Sequence:
#
# PCOD9478969 Si02
#       6
#    16  16  16  16  16  16
#     4  10  20  38  64  92 129 178 222 267 328 395
#     4  10  20  36  62  87 119 171 217 262 317 389
#     4  11  22  40  64  96 129 164 222 271 324 396
#     4  11  20  40  65  86 129 168 206 272 330 389
#     4   9  20  37  59  93 132 168 215 274 327 383
#     4  11  22  38  65  96 126 166 218 275 330 393
#
# _framework density 21.734373000000001
#
# number of rings (size 3 to 8) (size 9 to 14) (size 15 to 20)
#    0.000    1.667    3.333    2.000    0.000    1.667 
#    0.000   10.833    3.667    2.000    0.000    0.000 
#    0.000    0.000    0.000    0.000    0.000    0.000 
#
# Total GULP energy -267618.442860 kJ/mol
# GULP energy per Si atom -5575.384226 kJ/mol
# Density = 2.168490 g / cm^3
# Si number density = 21.734373 Si / 1000 Ang^3
#
#
#
# Elastic Constant Matrix: (Units=GPa)
#
#
# Indices 1 2 3 4 5 6 
#
# 1 109.0466 36.1074 30.1322 0.0000 0.0000 0.0000
# 2 36.1074 100.6362 18.3951 0.0000 0.0000 0.0000
# 3 30.1322 18.3951 135.8082 0.0000 0.0000 0.0000
# 4 0.0000 0.0000 0.0000 14.1828 0.0000 0.0000
# 5 0.0000 0.0000 0.0000 0.0000 32.9423 0.0000
# 6 0.0000 0.0000 0.0000 0.0000 0.0000 15.7192
#
#
#
# Elastic Compliance Matrix: (Units=1/GPa)
#
#
# Indices 1 2 3 4 5 6 
#
# 1 0.010880 -0.003550 -0.001933 0.000000 0.000000 0.000000
# 2 -0.003550 0.011348 -0.000749 0.000000 0.000000 0.000000
# 3 -0.001933 -0.000749 0.007894 0.000000 0.000000 0.000000
# 4 0.000000 0.000000 0.000000 0.070508 0.000000 0.000000
# 5 0.000000 0.000000 0.000000 0.000000 0.030356 0.000000
# 6 0.000000 0.000000 0.000000 0.000000 0.000000 0.063616
#
#
# Mechanical properties :
#
#
# Convention : Reuss Voigt Hill
#
# Bulk Modulus (GPa) = 56.63823 57.19561 56.91692
# Shear Modulus (GPa) = 23.47939 29.95928 26.71934
#
# Velocity S-wave (km/s) = 3.29034 3.71675 3.51002
# Velocity P-wave (km/s) = 6.36796 6.69267 6.53233
#
# Compressibility (1/GPa) = 0.01765592
#
# Stress axis : x y z
#
# Youngs Moduli (GPa) = 91.91055 88.12450 126.68294
#
# Poissons Ratio (x) = 0.31287 0.24489
# Poissons Ratio (y) = 0.32631 0.09492
# Poissons Ratio (z) = 0.17767 0.06603
#
# Static dielectric constant tensor:
#      x y z
#    x 1.780230 0.000000 0.000000 
#    y 0.000000 1.811540 0.000000 
#    z 0.000000 0.000000 1.942790 
# 
# From -- ./inp_files/18357.got.cif
#   From: 2010.05.17/outbox.cif.g08.bks.cpg/sg64_10_cif.got.tgz:18357.got - 2010.06.03 16:29:19.
