data_PCOD9478598
_publ_section_title
;
Structure prediction by ZEFSAII (Michael W. Deem and Ramdas Pophale) SiO2 
 PCOD9478598
Probable space group: C M C A
;
_chemical_formula_sum "Si O2"
_cell_formula_units_Z 80
_cell_length_a 24.397526
_cell_length_b 12.952630
_cell_length_c 13.061525
_cell_angle_alpha 90.000000
_cell_angle_beta 90.000000
_cell_angle_gamma 90.000000
_cell_volume 4127.600300
_symmetry_space_group_name_H-M "C M C A"
_symmetry_group_IT_number 64
_symmetry_cell_setting 'orthorhombic'
loop_
_space_group_symop_operation_xyz
x,y,z
-x,1/2-y,1/2+z
x,-y,-z
-x,1/2+y,1/2-z
-x,-y,-z
x,1/2+y,1/2-z
-x,y,z
x,1/2-y,1/2+z
1/2+x,1/2+y,z
1/2-x,-y,1/2+z
1/2+x,1/2-y,-z
1/2-x,y,1/2-z
1/2-x,1/2-y,-z
1/2+x,y,1/2-z
1/2-x,1/2+y,z
1/2+x,-y,1/2+z
loop_
_atom_site_type_symbol
_atom_site_label
_atom_site_fract_x
_atom_site_fract_y
_atom_site_fract_z
Si Si1 0.263260 0.567511 0.141463
Si Si2 0.136473 0.081057 0.800940
Si Si3 0.061542 0.924854 0.900873
Si Si4 0.339254 0.424703 0.425560
Si Si5 0.342422 0.800182 0.504172
O O1 0.250000 0.624671 0.250000
O O2 0.309947 0.486504 0.173507
O O3 0.211961 0.499157 0.104490
O O4 0.291606 0.635955 0.053292
O O5 0.137442 0.112031 0.683335
O O6 0.141110 0.168381 0.888348
O O7 0.086291 0.002052 0.816936
O O8 0.000000 0.888903 0.879848
O O9 0.105174 0.836177 0.927918
O O10 0.060684 0.000000 0.000000
O O11 0.373804 0.500000 0.500000
O O12 0.328677 0.319303 0.485748
#
# Coordination Sequence:
#
# PCOD9478598 Si02
#       5
#    16  16  16  16  16
#     4   9  19  34  52  77 109 146 183 221 266 317
#     4   9  19  35  54  80 108 137 180 228 267 317
#     4   8  15  33  61  84 102 132 178 227 267 309
#     4  11  23  35  51  77 114 149 177 219 277 325
#     4  10  20  35  55  79 108 142 187 227 263 327
#
# _framework density 19.381720000000001
#
# number of rings (size 3 to 8) (size 9 to 14) (size 15 to 20)
#    0.000    2.600    0.000    3.000    0.000   10.400 
#    0.000    1.000    0.000    7.200    0.000    0.000 
#    0.000    0.000    0.000    0.000    0.000    0.000 
#
# Total GULP energy -222730.406118 kJ/mol
# GULP energy per Si atom -5568.260153 kJ/mol
# Density = 1.933761 g / cm^3
# Si number density = 19.381720 Si / 1000 Ang^3
#
#
#
# Elastic Constant Matrix: (Units=GPa)
#
#
# Indices 1 2 3 4 5 6 
#
# 1 89.7789 26.9454 19.9935 0.0000 0.0000 0.0000
# 2 26.9454 106.5875 47.2974 0.0000 0.0000 0.0000
# 3 19.9935 47.2974 120.4898 0.0000 0.0000 0.0000
# 4 0.0000 0.0000 0.0000 19.6307 0.0000 0.0000
# 5 0.0000 0.0000 0.0000 0.0000 10.7097 0.0000
# 6 0.0000 0.0000 0.0000 0.0000 0.0000 10.7436
#
#
#
# Elastic Compliance Matrix: (Units=1/GPa)
#
#
# Indices 1 2 3 4 5 6 
#
# 1 0.012148 -0.002636 -0.000981 0.000000 0.000000 0.000000
# 2 -0.002636 0.011933 -0.004247 0.000000 0.000000 0.000000
# 3 -0.000981 -0.004247 0.010129 0.000000 0.000000 0.000000
# 4 0.000000 0.000000 0.000000 0.050941 0.000000 0.000000
# 5 0.000000 0.000000 0.000000 0.000000 0.093373 0.000000
# 6 0.000000 0.000000 0.000000 0.000000 0.000000 0.093079
#
#
# Mechanical properties :
#
#
# Convention : Reuss Voigt Hill
#
# Bulk Modulus (GPa) = 54.10410 56.14765 55.12587
# Shear Modulus (GPa) = 17.03631 23.05812 20.04722
#
# Velocity S-wave (km/s) = 2.96799 3.45292 3.21960
# Velocity P-wave (km/s) = 6.30245 6.70292 6.50577
#
# Compressibility (1/GPa) = 0.01848289
#
# Stress axis : x y z
#
# Youngs Moduli (GPa) = 82.31794 83.80317 98.72341
#
# Poissons Ratio (x) = 0.22087 0.09687
# Poissons Ratio (y) = 0.21696 0.41925
# Poissons Ratio (z) = 0.08077 0.35589
#
# Static dielectric constant tensor:
#      x y z
#    x 1.699820 0.000000 0.000000 
#    y 0.000000 1.658250 0.000000 
#    z 0.000000 0.000000 1.808590 
# 
# From -- ./inp_files/27063.got.cif
#   From: 2010.05.17/outbox.cif.g08.bks.cpg/sg64_14_cif.got.tgz:27063.got - 2010.06.03 16:29:19.
