data_PCOD9478837
_publ_section_title
;
Structure prediction by ZEFSAII (Michael W. Deem and Ramdas Pophale) SiO2 
 PCOD9478837
Probable space group: C M C A
;
_chemical_formula_sum "Si O2"
_cell_formula_units_Z 64
_cell_length_a 7.742080
_cell_length_b 25.963393
_cell_length_c 11.752715
_cell_angle_alpha 90.000000
_cell_angle_beta 90.000000
_cell_angle_gamma 90.000000
_cell_volume 2362.421066
_symmetry_space_group_name_H-M "C M C A"
_symmetry_group_IT_number 64
_symmetry_cell_setting 'orthorhombic'
loop_
_space_group_symop_operation_xyz
x,y,z
-x,1/2-y,1/2+z
x,-y,-z
-x,1/2+y,1/2-z
-x,-y,-z
x,1/2+y,1/2-z
-x,y,z
x,1/2-y,1/2+z
1/2+x,1/2+y,z
1/2-x,-y,1/2+z
1/2+x,1/2-y,-z
1/2-x,y,1/2-z
1/2-x,1/2-y,-z
1/2+x,y,1/2-z
1/2-x,1/2+y,z
1/2+x,-y,1/2+z
loop_
_atom_site_type_symbol
_atom_site_label
_atom_site_fract_x
_atom_site_fract_y
_atom_site_fract_z
Si Si1 0.691952 0.502066 0.374673
Si Si2 0.208243 0.773095 0.882501
Si Si3 0.705495 0.659476 0.619188
Si Si4 0.699985 0.611288 0.091066
O O1 0.783893 0.500000 0.500000
O O2 0.500000 0.480473 0.391022
O O3 0.750000 0.482681 0.250000
O O4 0.692603 0.564169 0.363142
O O5 0.250000 0.759344 0.750000
O O6 0.267821 0.715705 0.932399
O O7 0.275833 0.832289 0.882390
O O8 0.000000 0.774875 0.892032
O O9 0.500000 0.658584 0.606343
O O10 0.750000 0.653644 0.750000
O O11 0.790132 0.614434 0.546312
O O12 0.500000 0.607201 0.125459
#
# Coordination Sequence:
#
# PCOD9478837 Si02
#       4
#    16  16  16  16
#     4  11  26  48  73 101 132 168 215 272 334 400
#     4   9  19  35  57  88 127 172 217 263 312 370
#     4  10  20  36  57  87 130 177 223 268 317 376
#     4  11  22  38  63  95 129 168 215 267 325 386
#
# _framework density 27.090854
#
# number of rings (size 3 to 8) (size 9 to 14) (size 15 to 20)
#    0.000    1.750    0.000    3.750    0.000    3.000 
#    0.000   26.250    0.000    0.000    0.000    0.000 
#    0.000    0.000    0.000    0.000    0.000    0.000 
#
# Total GULP energy -178570.391269 kJ/mol
# GULP energy per Si atom -5580.324727 kJ/mol
# Density = 2.702919 g / cm^3
# Si number density = 27.090854 Si / 1000 Ang^3
#
#
#
# Elastic Constant Matrix: (Units=GPa)
#
#
# Indices 1 2 3 4 5 6 
#
# 1 118.5720 -6.3796 29.0151 0.0000 0.0000 0.0000
# 2 -6.3796 71.5160 12.2646 0.0000 0.0000 0.0000
# 3 29.0151 12.2646 100.1418 0.0000 0.0000 0.0000
# 4 0.0000 0.0000 0.0000 33.0890 0.0000 0.0000
# 5 0.0000 0.0000 0.0000 0.0000 42.9386 0.0000
# 6 0.0000 0.0000 0.0000 0.0000 0.0000 -376.9428
#
#
#
# Elastic Compliance Matrix: (Units=1/GPa)
#
#
# Indices 1 2 3 4 5 6 
#
# 1 0.009195 0.001305 -0.002824 0.000000 0.000000 0.000000
# 2 0.001305 0.014468 -0.002150 0.000000 0.000000 0.000000
# 3 -0.002824 -0.002150 0.011067 0.000000 0.000000 0.000000
# 4 0.000000 0.000000 0.000000 0.030222 0.000000 0.000000
# 5 0.000000 0.000000 0.000000 0.000000 0.023289 0.000000
# 6 0.000000 0.000000 0.000000 0.000000 0.000000 -0.002653
#
#
# Mechanical properties :
#
#
# Convention : Reuss Voigt Hill
#
# Bulk Modulus (GPa) = 36.50748 40.00333 38.25541
# Shear Modulus (GPa) = 48.99223 -43.16107 2.91558
#
# Velocity S-wave (km/s) = 4.25719 -3.99582 1.03854
# Velocity P-wave (km/s) = 6.13760 2.54761 3.94840
#
# Compressibility (1/GPa) = 0.02739165
#
# Stress axis : x y z
#
# Youngs Moduli (GPa) = 108.75595 69.11823 90.35599
#
# Poissons Ratio (x) = -0.09017 0.25516
# Poissons Ratio (y) = -0.14187 0.19426
# Poissons Ratio (z) = 0.30712 0.14860
#
# Static dielectric constant tensor:
#      x y z
#    x 2.003310 0.000000 0.000000 
#    y 0.000000 2.135530 0.000000 
#    z 0.000000 0.000000 1.824770 
# 
# From -- ./inp_files/12121.got.cif
#   From: 2010.05.17/outbox.cif.g08.bks.cpg/sg64_7_cif.got.tgz:12121.got - 2010.06.03 16:29:19.
