data_PCOD9478738
_publ_section_title
;
Structure prediction by ZEFSAII (Michael W. Deem and Ramdas Pophale) SiO2 
 PCOD9478738
Probable space group: C M C A
;
_chemical_formula_sum "Si O2"
_cell_formula_units_Z 96
_cell_length_a 23.376422
_cell_length_b 14.325658
_cell_length_c 13.590281
_cell_angle_alpha 90.000000
_cell_angle_beta 90.000000
_cell_angle_gamma 90.000000
_cell_volume 4551.149001
_symmetry_space_group_name_H-M "C M C A"
_symmetry_group_IT_number 64
_symmetry_cell_setting 'orthorhombic'
loop_
_space_group_symop_operation_xyz
x,y,z
-x,1/2-y,1/2+z
x,-y,-z
-x,1/2+y,1/2-z
-x,-y,-z
x,1/2+y,1/2-z
-x,y,z
x,1/2-y,1/2+z
1/2+x,1/2+y,z
1/2-x,-y,1/2+z
1/2+x,1/2-y,-z
1/2-x,y,1/2-z
1/2-x,1/2-y,-z
1/2+x,y,1/2-z
1/2-x,1/2+y,z
1/2+x,-y,1/2+z
loop_
_atom_site_type_symbol
_atom_site_label
_atom_site_fract_x
_atom_site_fract_y
_atom_site_fract_z
Si Si1 0.590171 0.500000 0.000000
Si Si2 0.066045 0.491198 0.883277
Si Si3 0.750000 0.839164 0.250000
Si Si4 0.161292 0.293838 0.669465
Si Si5 0.060884 0.697266 0.472434
Si Si6 0.562089 0.223530 0.181118
Si Si7 0.151690 0.484183 0.299359
O O1 0.557776 0.587112 0.046333
O O2 0.625315 0.464753 0.093575
O O3 0.064261 0.381217 0.860515
O O4 0.108722 0.526723 0.795777
O O5 0.000000 0.526663 0.873258
O O6 0.082647 0.500000 0.000000
O O7 0.782060 0.768284 0.324996
O O8 0.797646 0.910594 0.211644
O O9 0.121184 0.274957 0.574861
O O10 0.117049 0.261625 0.753491
O O11 0.170101 0.405171 0.690271
O O12 0.063154 0.711408 0.587801
O O13 0.000000 0.741921 0.441822
O O14 0.500000 0.233922 0.231047
#
# Coordination Sequence:
#
# PCOD9478738 Si02
#       7
#     8  16   8  16  16  16  16
#     4  10  21  40  60  90 126 160 201 252 310 376
#     4   9  19  37  63  94 126 155 194 253 315 374
#     4  12  24  42  62  86 116 170 220 256 302 354
#     4  10  22  40  60  84 123 158 202 256 300 357
#     4  10  20  35  60  91 122 155 194 242 309 376
#     4   9  18  35  59  89 120 150 188 242 310 372
#     4  10  23  42  63  90 124 161 212 258 309 370
#
# _framework density 21.093574
#
# number of rings (size 3 to 8) (size 9 to 14) (size 15 to 20)
#    0.000    2.167    0.000    2.250    2.333    4.667 
#    1.500    8.333    0.000    0.000    0.000    0.000 
#    0.000    0.000    0.000    0.000    0.000    0.000 
#
# Total GULP energy -267216.671455 kJ/mol
# GULP energy per Si atom -5567.013989 kJ/mol
# Density = 2.104556 g / cm^3
# Si number density = 21.093574 Si / 1000 Ang^3
#
#
#
# Elastic Constant Matrix: (Units=GPa)
#
#
# Indices 1 2 3 4 5 6 
#
# 1 107.8781 50.8350 28.9584 0.0000 0.0000 0.0000
# 2 50.8350 76.7406 5.3271 0.0000 0.0000 0.0000
# 3 28.9584 5.3271 92.4080 0.0000 0.0000 0.0000
# 4 0.0000 0.0000 0.0000 20.4187 0.0000 0.0000
# 5 0.0000 0.0000 0.0000 0.0000 -68.8639 0.0000
# 6 0.0000 0.0000 0.0000 0.0000 0.0000 9.3907
#
#
#
# Elastic Compliance Matrix: (Units=1/GPa)
#
#
# Indices 1 2 3 4 5 6 
#
# 1 0.014886 -0.009575 -0.004113 0.000000 0.000000 0.000000
# 2 -0.009575 0.019243 0.001891 0.000000 0.000000 0.000000
# 3 -0.004113 0.001891 0.012001 0.000000 0.000000 0.000000
# 4 0.000000 0.000000 0.000000 0.048975 0.000000 0.000000
# 5 0.000000 0.000000 0.000000 0.000000 -0.014521 0.000000
# 6 0.000000 0.000000 0.000000 0.000000 0.000000 0.106488
#
#
# Mechanical properties :
#
#
# Convention : Reuss Voigt Hill
#
# Bulk Modulus (GPa) = 44.37293 49.69641 47.03467
# Shear Modulus (GPa) = 22.91714 4.98285 13.95000
#
# Velocity S-wave (km/s) = 3.29971 1.53863 2.57444
# Velocity P-wave (km/s) = 5.96652 5.17375 5.58422
#
# Compressibility (1/GPa) = 0.02253626
#
# Stress axis : x y z
#
# Youngs Moduli (GPa) = 67.17761 51.96809 83.32348
#
# Poissons Ratio (x) = 0.49761 0.34270
# Poissons Ratio (y) = 0.64325 -0.15760
# Poissons Ratio (z) = 0.27629 -0.09829
#
# Static dielectric constant tensor:
#      x y z
#    x 1.780800 0.000000 0.000000 
#    y 0.000000 1.831460 0.000000 
#    z 0.000000 0.000000 1.761110 
# 
# From -- ./inp_files/26380.got.cif
#   From: 2010.05.17/outbox.cif.g08.bks.cpg/sg64_14_cif.got.tgz:26380.got - 2010.06.03 16:29:19.
