data_PCOD9478710
_publ_section_title
;
Structure prediction by ZEFSAII (Michael W. Deem and Ramdas Pophale) SiO2 
 PCOD9478710
Probable space group: C M C A
;
_chemical_formula_sum "Si O2"
_cell_formula_units_Z 88
_cell_length_a 17.267414
_cell_length_b 17.878328
_cell_length_c 13.949768
_cell_angle_alpha 90.000000
_cell_angle_beta 90.000000
_cell_angle_gamma 90.000000
_cell_volume 4306.467631
_symmetry_space_group_name_H-M "C M C A"
_symmetry_group_IT_number 64
_symmetry_cell_setting 'orthorhombic'
loop_
_space_group_symop_operation_xyz
x,y,z
-x,1/2-y,1/2+z
x,-y,-z
-x,1/2+y,1/2-z
-x,-y,-z
x,1/2+y,1/2-z
-x,y,z
x,1/2-y,1/2+z
1/2+x,1/2+y,z
1/2-x,-y,1/2+z
1/2+x,1/2-y,-z
1/2-x,y,1/2-z
1/2-x,1/2-y,-z
1/2+x,y,1/2-z
1/2-x,1/2+y,z
1/2+x,-y,1/2+z
loop_
_atom_site_type_symbol
_atom_site_label
_atom_site_fract_x
_atom_site_fract_y
_atom_site_fract_z
Si Si1 0.691334 0.246526 0.630262
Si Si2 0.250000 0.501289 0.250000
Si Si3 0.085214 0.750199 0.807397
Si Si4 0.241381 0.597666 0.442299
Si Si5 0.178766 0.382388 0.130074
Si Si6 0.912966 0.347230 0.504252
O O1 0.651393 0.266906 0.730200
O O2 0.736565 0.316640 0.585985
O O3 0.749993 0.176995 0.639443
O O4 0.621180 0.217498 0.564003
O O5 0.237889 0.551237 0.344295
O O6 0.183481 0.444091 0.213460
O O7 0.105191 0.670528 0.856247
O O8 0.084621 0.812043 0.889714
O O9 0.000000 0.747431 0.762653
O O10 0.304338 0.581555 0.526008
O O11 0.156612 0.593340 0.490917
O O12 0.000000 0.370678 0.477375
#
# Coordination Sequence:
#
# PCOD9478710 Si02
#       6
#    16   8  16  16  16  16
#     4  11  19  37  63  86 114 150 201 251 300 350
#     4  12  24  36  62  84 122 158 210 238 290 358
#     4  11  20  33  58  89 119 148 189 247 307 353
#     4  11  22  38  62  90 118 157 200 252 301 353
#     4  11  21  40  60  85 115 157 205 245 287 362
#     4  10  20  35  58  92 118 144 189 253 307 352
#
# _framework density 20.434380999999998
#
# number of rings (size 3 to 8) (size 9 to 14) (size 15 to 20)
#    0.000    1.091    5.455    3.273    0.000    0.000 
#    0.000    0.909    0.000    6.545    0.000    0.000 
#    0.000    0.000    0.000    0.000    0.000    0.000 
#
# Total GULP energy -245402.769045 kJ/mol
# GULP energy per Si atom -5577.335660 kJ/mol
# Density = 2.038787 g / cm^3
# Si number density = 20.434381 Si / 1000 Ang^3
#
#
#
# Elastic Constant Matrix: (Units=GPa)
#
#
# Indices 1 2 3 4 5 6 
#
# 1 79.5957 -7.4640 -7.6237 0.0000 0.0000 0.0000
# 2 -7.4640 54.4377 1.8091 0.0000 0.0000 0.0000
# 3 -7.6237 1.8091 77.7970 0.0000 0.0000 0.0000
# 4 0.0000 0.0000 0.0000 40.0850 0.0000 0.0000
# 5 0.0000 0.0000 0.0000 0.0000 27.1168 0.0000
# 6 0.0000 0.0000 0.0000 0.0000 0.0000 0.0702
#
#
#
# Elastic Compliance Matrix: (Units=1/GPa)
#
#
# Indices 1 2 3 4 5 6 
#
# 1 0.012842 0.001720 0.001218 0.000000 0.000000 0.000000
# 2 0.001720 0.018614 -0.000264 0.000000 0.000000 0.000000
# 3 0.001218 -0.000264 0.012980 0.000000 0.000000 0.000000
# 4 0.000000 0.000000 0.000000 0.024947 0.000000 0.000000
# 5 0.000000 0.000000 0.000000 0.000000 0.036877 0.000000
# 6 0.000000 0.000000 0.000000 0.000000 0.000000 14.250997
#
#
# Mechanical properties :
#
#
# Convention : Reuss Voigt Hill
#
# Bulk Modulus (GPa) = 20.08680 20.58591 20.33635
# Shear Modulus (GPa) = 0.34798 28.46167 14.40483
#
# Velocity S-wave (km/s) = 0.41311 3.73612 2.65793
# Velocity P-wave (km/s) = 3.17471 5.35793 4.40376
#
# Compressibility (1/GPa) = 0.04978394
#
# Stress axis : x y z
#
# Youngs Moduli (GPa) = 77.87251 53.72221 77.04450
#
# Poissons Ratio (x) = -0.09241 -0.09387
# Poissons Ratio (y) = -0.13396 0.02036
# Poissons Ratio (z) = -0.09488 0.01420
#
# Static dielectric constant tensor:
#      x y z
#    x 1.761450 0.000000 0.000000 
#    y 0.000000 1.779160 0.000000 
#    z 0.000000 0.000000 1.801810 
# 
# From -- ./inp_files/25403.got.cif
#   From: 2010.05.17/outbox.cif.g08.bks.cpg/sg64_13_cif.got.tgz:25403.got - 2010.06.03 16:29:19.
