data_PCOD9478684
_publ_section_title
;
Structure prediction by ZEFSAII (Michael W. Deem and Ramdas Pophale) SiO2 
 PCOD9478684
Probable space group: C M C A
;
_chemical_formula_sum "Si O2"
_cell_formula_units_Z 112
_cell_length_a 15.895705
_cell_length_b 10.393729
_cell_length_c 37.544406
_cell_angle_alpha 90.000000
_cell_angle_beta 90.000000
_cell_angle_gamma 90.000000
_cell_volume 6202.923442
_symmetry_space_group_name_H-M "C M C A"
_symmetry_group_IT_number 64
_symmetry_cell_setting 'orthorhombic'
loop_
_space_group_symop_operation_xyz
x,y,z
-x,1/2-y,1/2+z
x,-y,-z
-x,1/2+y,1/2-z
-x,-y,-z
x,1/2+y,1/2-z
-x,y,z
x,1/2-y,1/2+z
1/2+x,1/2+y,z
1/2-x,-y,1/2+z
1/2+x,1/2-y,-z
1/2-x,y,1/2-z
1/2-x,1/2-y,-z
1/2+x,y,1/2-z
1/2-x,1/2+y,z
1/2+x,-y,1/2+z
loop_
_atom_site_type_symbol
_atom_site_label
_atom_site_fract_x
_atom_site_fract_y
_atom_site_fract_z
Si Si1 0.898176 0.247838 0.277552
Si Si2 0.594307 0.273899 0.570367
Si Si3 0.244268 0.124174 0.475696
Si Si4 0.323969 0.761082 0.855746
Si Si5 0.675492 0.962945 0.641993
Si Si6 0.904863 0.969203 0.933326
Si Si7 0.601342 0.539440 0.220332
O O1 0.862181 0.219362 0.316614
O O2 0.874647 0.394713 0.268186
O O3 0.868541 0.146484 0.248090
O O4 0.000000 0.241963 0.279401
O O5 0.500000 0.315934 0.561107
O O6 0.667573 0.353367 0.551476
O O7 0.608431 0.278853 0.612858
O O8 0.603036 0.122903 0.560036
O O9 0.250000 0.250000 0.500000
O O10 0.331779 0.101601 0.454903
O O11 0.229058 0.000000 0.500000
O O12 0.294686 0.612062 0.858409
O O13 0.249984 0.861685 0.862227
O O14 0.612414 0.949376 0.608728
O O15 0.633439 0.940321 0.680322
O O16 0.000000 0.930191 0.942654
O O17 0.500000 0.544832 0.219608
#
# Coordination Sequence:
#
# PCOD9478684 Si02
#       7
#    16  16  16  16  16  16  16
#     4   9  18  33  53  78 108 146 191 239 286 338
#     4  10  21  40  65  90 119 159 201 240 293 353
#     4  12  24  40  65  93 125 152 192 245 294 355
#     4  10  20  35  58  82 112 150 195 240 287 341
#     4  10  20  35  58  83 112 149 194 244 286 339
#     4  10  21  40  66  90 117 160 204 238 289 358
#     4   9  18  33  53  78 109 146 191 239 286 337
#
# _framework density 18.056000999999998
#
# number of rings (size 3 to 8) (size 9 to 14) (size 15 to 20)
#    0.000    2.000    2.857    0.857    0.000    6.286 
#    0.000    2.857    0.000    1.714    0.000    0.000 
#    0.000    0.000    0.000    0.000    0.000    0.000 
#
# Total GULP energy -312533.253185 kJ/mol
# GULP energy per Si atom -5580.950950 kJ/mol
# Density = 1.801491 g / cm^3
# Si number density = 18.056001 Si / 1000 Ang^3
#
#
#
# Elastic Constant Matrix: (Units=GPa)
#
#
# Indices 1 2 3 4 5 6 
#
# 1 113.7195 59.3635 52.2855 0.0000 0.0000 0.0000
# 2 59.3635 85.5549 62.9756 0.0000 0.0000 0.0000
# 3 52.2855 62.9756 103.3116 0.0000 0.0000 0.0000
# 4 0.0000 0.0000 0.0000 29.7059 0.0000 0.0000
# 5 0.0000 0.0000 0.0000 0.0000 7.5526 0.0000
# 6 0.0000 0.0000 0.0000 0.0000 0.0000 26.4073
#
#
#
# Elastic Compliance Matrix: (Units=1/GPa)
#
#
# Indices 1 2 3 4 5 6 
#
# 1 0.014038 -0.008182 -0.002117 0.000000 0.000000 0.000000
# 2 -0.008182 0.025970 -0.011690 0.000000 0.000000 0.000000
# 3 -0.002117 -0.011690 0.017877 0.000000 0.000000 0.000000
# 4 0.000000 0.000000 0.000000 0.033663 0.000000 0.000000
# 5 0.000000 0.000000 0.000000 0.000000 0.132404 0.000000
# 6 0.000000 0.000000 0.000000 0.000000 0.000000 0.037868
#
#
# Mechanical properties :
#
#
# Convention : Reuss Voigt Hill
#
# Bulk Modulus (GPa) = 71.90569 72.42613 72.16591
# Shear Modulus (GPa) = 16.10644 21.26393 18.68519
#
# Velocity S-wave (km/s) = 2.98992 3.43544 3.22039
# Velocity P-wave (km/s) = 7.19928 7.47899 7.34047
#
# Compressibility (1/GPa) = 0.01390711
#
# Stress axis : x y z
#
# Youngs Moduli (GPa) = 71.23408 38.50526 55.93915
#
# Poissons Ratio (x) = 0.31506 0.11842
# Poissons Ratio (y) = 0.58286 0.65392
# Poissons Ratio (z) = 0.15080 0.45012
#
# Static dielectric constant tensor:
#      x y z
#    x 1.602860 0.000000 0.000000 
#    y 0.000000 1.604550 0.000000 
#    z 0.000000 0.000000 1.614620 
# 
# From -- ./inp_files/53260.got.cif
#   From: 2010.05.17/outbox.cif.g08.bks.cpg/sg64_27_cif.got.tgz:53260.got - 2010.06.03 16:29:19.
