data_PCOD9478037
_publ_section_title
;
Structure prediction by ZEFSAII (Michael W. Deem and Ramdas Pophale) SiO2 
 PCOD9478037
Probable space group: C M C A
;
_chemical_formula_sum "Si O2"
_cell_formula_units_Z 112
_cell_length_a 14.275927
_cell_length_b 11.499652
_cell_length_c 31.097920
_cell_angle_alpha 90.000000
_cell_angle_beta 90.000000
_cell_angle_gamma 90.000000
_cell_volume 5105.289316
_symmetry_space_group_name_H-M "C M C A"
_symmetry_group_IT_number 64
_symmetry_cell_setting 'orthorhombic'
loop_
_space_group_symop_operation_xyz
x,y,z
-x,1/2-y,1/2+z
x,-y,-z
-x,1/2+y,1/2-z
-x,-y,-z
x,1/2+y,1/2-z
-x,y,z
x,1/2-y,1/2+z
1/2+x,1/2+y,z
1/2-x,-y,1/2+z
1/2+x,1/2-y,-z
1/2-x,y,1/2-z
1/2-x,1/2-y,-z
1/2+x,y,1/2-z
1/2-x,1/2+y,z
1/2+x,-y,1/2+z
loop_
_atom_site_type_symbol
_atom_site_label
_atom_site_fract_x
_atom_site_fract_y
_atom_site_fract_z
Si Si1 0.211474 0.893525 0.545311
Si Si2 0.895536 0.094099 0.142174
Si Si3 0.603788 0.774118 0.508480
Si Si4 0.387004 0.285034 0.723172
Si Si5 0.611468 0.475060 0.231379
Si Si6 0.159703 0.924920 0.069838
Si Si7 0.291870 0.718182 0.368315
O O1 0.305437 0.813883 0.536106
O O2 0.131612 0.847007 0.514183
O O3 0.181166 0.874487 0.594767
O O4 0.251381 0.022148 0.545205
O O5 0.815530 0.190702 0.143149
O O6 0.000000 0.140143 0.149313
O O7 0.875101 0.003723 0.180870
O O8 0.890671 0.025361 0.097020
O O9 0.500000 0.772825 0.528463
O O10 0.602725 0.862728 0.467718
O O11 0.500000 0.284221 0.725254
O O12 0.355652 0.157263 0.741298
O O13 0.354839 0.406790 0.744865
O O14 0.353114 0.288032 0.674091
O O15 0.500000 0.472070 0.239212
O O16 0.193299 0.836230 0.105889
#
# Coordination Sequence:
#
# PCOD9478037 Si02
#       7
#    16  16  16  16  16  16  16
#     4   9  21  36  53  88 130 153 198 270 318 368
#     4  10  20  37  58  86 124 165 210 267 319 377
#     4  10  20  36  61  89 118 162 212 259 319 389
#     4  10  20  39  64  95 128 168 216 274 333 391
#     4   9  19  37  62  91 127 164 210 270 331 385
#     4  10  19  36  61  87 119 163 214 264 318 381
#     4  10  21  36  58  87 121 166 209 256 319 389
#
# _framework density 21.938033000000001
#
# number of rings (size 3 to 8) (size 9 to 14) (size 15 to 20)
#    0.000    2.286    1.429    0.857    0.000    6.286 
#    5.143    2.143    0.000   11.143    0.000    0.000 
#    0.000    0.000    0.000    0.000    0.000    0.000 
#
# Total GULP energy -312232.532518 kJ/mol
# GULP energy per Si atom -5575.580938 kJ/mol
# Density = 2.188810 g / cm^3
# Si number density = 21.938033 Si / 1000 Ang^3
#
#
#
# Elastic Constant Matrix: (Units=GPa)
#
#
# Indices 1 2 3 4 5 6 
#
# 1 68.8127 19.0105 3.6592 0.0000 0.0000 0.0000
# 2 19.0105 92.3987 43.6952 0.0000 0.0000 0.0000
# 3 3.6592 43.6952 85.2205 0.0000 0.0000 0.0000
# 4 0.0000 0.0000 0.0000 37.6498 0.0000 0.0000
# 5 0.0000 0.0000 0.0000 0.0000 27.3271 0.0000
# 6 0.0000 0.0000 0.0000 0.0000 0.0000 -33.8955
#
#
#
# Elastic Compliance Matrix: (Units=1/GPa)
#
#
# Indices 1 2 3 4 5 6 
#
# 1 0.015513 -0.003798 0.001281 0.000000 0.000000 0.000000
# 2 -0.003798 0.015216 -0.007639 0.000000 0.000000 0.000000
# 3 0.001281 -0.007639 0.015596 0.000000 0.000000 0.000000
# 4 0.000000 0.000000 0.000000 0.026561 0.000000 0.000000
# 5 0.000000 0.000000 0.000000 0.000000 0.036594 0.000000
# 6 0.000000 0.000000 0.000000 0.000000 0.000000 -0.029502
#
#
# Mechanical properties :
#
#
# Convention : Reuss Voigt Hill
#
# Bulk Modulus (GPa) = 38.43969 42.12907 40.28438
# Shear Modulus (GPa) = 45.88853 18.22076 32.05464
#
# Velocity S-wave (km/s) = 4.57851 2.88506 3.82664
# Velocity P-wave (km/s) = 6.74613 5.50849 6.15848
#
# Compressibility (1/GPa) = 0.02601478
#
# Stress axis : x y z
#
# Youngs Moduli (GPa) = 64.46120 65.71864 64.11926
#
# Poissons Ratio (x) = 0.24957 -0.08214
# Poissons Ratio (y) = 0.24479 0.48980
# Poissons Ratio (z) = -0.08258 0.50202
#
# Static dielectric constant tensor:
#      x y z
#    x 1.787650 0.000000 0.000000 
#    y 0.000000 1.884950 0.000000 
#    z 0.000000 0.000000 1.822730 
# 
# From -- ./inp_files/53273.got.cif
#   From: 2010.05.17/outbox.cif.g08.bks.cpg/sg64_27_cif.got.tgz:53273.got - 2010.06.03 16:29:19.
