data_PCOD9478585
_publ_section_title
;
Structure prediction by ZEFSAII (Michael W. Deem and Ramdas Pophale) SiO2 
 PCOD9478585
Probable space group: C M C A
;
_chemical_formula_sum "Si O2"
_cell_formula_units_Z 88
_cell_length_a 29.423607
_cell_length_b 5.264074
_cell_length_c 27.485133
_cell_angle_alpha 90.000000
_cell_angle_beta 90.000000
_cell_angle_gamma 90.000000
_cell_volume 4257.118506
_symmetry_space_group_name_H-M "C M C A"
_symmetry_group_IT_number 64
_symmetry_cell_setting 'orthorhombic'
loop_
_space_group_symop_operation_xyz
x,y,z
-x,1/2-y,1/2+z
x,-y,-z
-x,1/2+y,1/2-z
-x,-y,-z
x,1/2+y,1/2-z
-x,y,z
x,1/2-y,1/2+z
1/2+x,1/2+y,z
1/2-x,-y,1/2+z
1/2+x,1/2-y,-z
1/2-x,y,1/2-z
1/2-x,1/2-y,-z
1/2+x,y,1/2-z
1/2-x,1/2+y,z
1/2+x,-y,1/2+z
loop_
_atom_site_type_symbol
_atom_site_label
_atom_site_fract_x
_atom_site_fract_y
_atom_site_fract_z
Si Si1 0.500000 0.694765 0.389535
Si Si2 0.077534 0.000000 0.500000
Si Si3 0.605361 0.693422 0.395583
Si Si4 0.768751 0.056866 0.194411
Si Si5 0.364501 0.183048 0.346905
Si Si6 0.000000 0.698161 0.450287
Si Si7 0.049179 0.926684 0.781955
O O1 0.553419 0.714762 0.373039
O O2 0.500000 0.404719 0.407448
O O3 0.500000 0.917344 0.429968
O O4 0.101860 0.888394 0.547774
O O5 0.044563 0.777842 0.479963
O O6 0.631156 0.464463 0.368365
O O7 0.630603 0.960686 0.387178
O O8 0.750000 0.028421 0.250000
O O9 0.738972 0.281568 0.171736
O O10 0.820344 0.141100 0.186675
O O11 0.408400 0.135334 0.314335
O O12 0.050283 0.706359 0.741048
O O13 0.000000 0.902726 0.807540
#
# Coordination Sequence:
#
# PCOD9478585 Si02
#       7
#     8   8  16  16  16   8  16
#     4  10  20  35  54  82 128 181 216 261 300 336
#     4   9  20  38  56  84 130 184 220 266 312 344
#     4  11  24  36  59  91 134 172 219 259 298 366
#     4  10  23  42  69  93 117 151 194 263 350 388
#     4  12  25  39  64  97 124 156 222 263 313 382
#     4   9  18  32  54  80 114 175 242 255 290 356
#     4  10  23  40  59  82 124 175 207 244 304 380
#
# _framework density 20.671258999999999
#
# number of rings (size 3 to 8) (size 9 to 14) (size 15 to 20)
#    0.000    1.636    0.000    4.909    7.636    9.455 
#    0.000    0.000    0.000    0.000    0.000   12.727 
#    0.000    0.000    0.000    0.000    0.000    0.000 
#
# Total GULP energy -245465.871247 kJ/mol
# GULP energy per Si atom -5578.769801 kJ/mol
# Density = 2.062421 g / cm^3
# Si number density = 20.671259 Si / 1000 Ang^3
#
#
#
# Elastic Constant Matrix: (Units=GPa)
#
#
# Indices 1 2 3 4 5 6 
#
# 1 75.3324 -4.6321 30.4159 0.0000 0.0000 0.0000
# 2 -4.6321 85.8146 10.1631 0.0000 0.0000 0.0000
# 3 30.4159 10.1631 65.2637 0.0000 0.0000 0.0000
# 4 0.0000 0.0000 0.0000 22.5972 0.0000 0.0000
# 5 0.0000 0.0000 0.0000 0.0000 18.7466 0.0000
# 6 0.0000 0.0000 0.0000 0.0000 0.0000 19.2109
#
#
#
# Elastic Compliance Matrix: (Units=1/GPa)
#
#
# Indices 1 2 3 4 5 6 
#
# 1 0.016635 0.001850 -0.008041 0.000000 0.000000 0.000000
# 2 0.001850 0.012078 -0.002743 0.000000 0.000000 0.000000
# 3 -0.008041 -0.002743 0.019497 0.000000 0.000000 0.000000
# 4 0.000000 0.000000 0.000000 0.044253 0.000000 0.000000
# 5 0.000000 0.000000 0.000000 0.000000 0.053343 0.000000
# 6 0.000000 0.000000 0.000000 0.000000 0.000000 0.052054
#
#
# Mechanical properties :
#
#
# Convention : Reuss Voigt Hill
#
# Bulk Modulus (GPa) = 32.95727 33.14494 33.05111
# Shear Modulus (GPa) = 22.13950 24.80852 23.47401
#
# Velocity S-wave (km/s) = 3.27621 3.46807 3.37350
# Velocity P-wave (km/s) = 5.50359 5.66620 5.58549
#
# Compressibility (1/GPa) = 0.03034232
#
# Stress axis : x y z
#
# Youngs Moduli (GPa) = 60.11516 82.79680 51.29013
#
# Poissons Ratio (x) = -0.15319 0.41241
# Poissons Ratio (y) = -0.11122 0.14069
# Poissons Ratio (z) = 0.48337 0.22712
#
# Static dielectric constant tensor:
#      x y z
#    x 1.718620 0.000000 0.000000 
#    y 0.000000 1.802190 0.000000 
#    z 0.000000 0.000000 1.800090 
# 
# From -- ./inp_files/54008.got.cif
#   From: 2010.05.17/outbox.cif.g08.bks.cpg/sg64_28_cif.got.tgz:54008.got - 2010.06.03 16:29:19.
