data_PCOD9478926
_publ_section_title
;
Structure prediction by ZEFSAII (Michael W. Deem and Ramdas Pophale) SiO2 
 PCOD9478926
Probable space group: C M C A
;
_chemical_formula_sum "Si O2"
_cell_formula_units_Z 80
_cell_length_a 16.702365
_cell_length_b 18.318028
_cell_length_c 13.549175
_cell_angle_alpha 90.000000
_cell_angle_beta 90.000000
_cell_angle_gamma 90.000000
_cell_volume 4145.429569
_symmetry_space_group_name_H-M "C M C A"
_symmetry_group_IT_number 64
_symmetry_cell_setting 'orthorhombic'
loop_
_space_group_symop_operation_xyz
x,y,z
-x,1/2-y,1/2+z
x,-y,-z
-x,1/2+y,1/2-z
-x,-y,-z
x,1/2+y,1/2-z
-x,y,z
x,1/2-y,1/2+z
1/2+x,1/2+y,z
1/2-x,-y,1/2+z
1/2+x,1/2-y,-z
1/2-x,y,1/2-z
1/2-x,1/2-y,-z
1/2+x,y,1/2-z
1/2-x,1/2+y,z
1/2+x,-y,1/2+z
loop_
_atom_site_type_symbol
_atom_site_label
_atom_site_fract_x
_atom_site_fract_y
_atom_site_fract_z
Si Si1 0.593156 0.028757 0.710873
Si Si2 0.406612 0.180276 0.187144
Si Si3 0.335795 0.957092 0.898232
Si Si4 0.340303 0.111303 0.380149
Si Si5 0.596474 0.830587 0.416935
O O1 0.500000 0.033716 0.739849
O O2 0.616741 0.102454 0.655551
O O3 0.645841 0.010238 0.806362
O O4 0.604124 0.959915 0.637602
O O5 0.500000 0.187185 0.215733
O O6 0.396130 0.110726 0.115516
O O7 0.355518 0.161180 0.284259
O O8 0.381105 0.253872 0.132419
O O9 0.248444 0.921237 0.887298
O O10 0.342963 0.000000 0.000000
O O11 0.363093 0.153906 0.478560
O O12 0.500000 0.830718 0.430343
#
# Coordination Sequence:
#
# PCOD9478926 Si02
#       5
#    16  16  16  16  16
#     4  10  20  36  60  86 113 150 194 238 282 334
#     4  10  22  39  59  86 119 152 189 238 290 339
#     4  11  23  38  57  83 116 155 195 235 285 340
#     4  11  21  38  59  83 117 152 190 237 288 340
#     4  10  21  37  61  90 115 148 194 238 285 342
#
# _framework density 19.298361
#
# number of rings (size 3 to 8) (size 9 to 14) (size 15 to 20)
#    0.000    1.600    0.000    7.800    0.000    5.600 
#    0.000   10.000    0.000    0.000    0.000    0.000 
#    0.000    0.000    0.000    0.000    0.000    0.000 
#
# Total GULP energy -223507.245565 kJ/mol
# GULP energy per Si atom -5587.681139 kJ/mol
# Density = 1.925444 g / cm^3
# Si number density = 19.298361 Si / 1000 Ang^3
#
#
#
# Elastic Constant Matrix: (Units=GPa)
#
#
# Indices 1 2 3 4 5 6 
#
# 1 46.2038 27.0930 45.5755 0.0000 0.0000 0.0000
# 2 27.0930 129.3519 111.8570 0.0000 0.0000 0.0000
# 3 45.5755 111.8570 151.7927 0.0000 0.0000 0.0000
# 4 0.0000 0.0000 0.0000 31.7839 0.0000 0.0000
# 5 0.0000 0.0000 0.0000 0.0000 25.0881 0.0000
# 6 0.0000 0.0000 0.0000 0.0000 0.0000 20.3552
#
#
#
# Elastic Compliance Matrix: (Units=1/GPa)
#
#
# Indices 1 2 3 4 5 6 
#
# 1 0.031624 0.004375 -0.012719 0.000000 0.000000 0.000000
# 2 0.004375 0.021916 -0.017464 0.000000 0.000000 0.000000
# 3 -0.012719 -0.017464 0.023276 0.000000 0.000000 0.000000
# 4 0.000000 0.000000 0.000000 0.031462 0.000000 0.000000
# 5 0.000000 0.000000 0.000000 0.000000 0.039859 0.000000
# 6 0.000000 0.000000 0.000000 0.000000 0.000000 0.049127
#
#
# Mechanical properties :
#
#
# Convention : Reuss Voigt Hill
#
# Bulk Modulus (GPa) = 39.68164 77.37770 58.52967
# Shear Modulus (GPa) = 19.43394 24.96699 22.20047
#
# Velocity S-wave (km/s) = 3.17681 3.60076 3.39541
# Velocity P-wave (km/s) = 5.83635 7.58088 6.76509
#
# Compressibility (1/GPa) = 0.02520057
#
# Stress axis : x y z
#
# Youngs Moduli (GPa) = 31.62173 45.62784 42.96246
#
# Poissons Ratio (x) = -0.19963 0.54644
# Poissons Ratio (y) = -0.13835 0.75030
# Poissons Ratio (z) = 0.40220 0.79684
#
# Static dielectric constant tensor:
#      x y z
#    x 1.699720 0.000000 0.000000 
#    y 0.000000 1.657490 0.000000 
#    z 0.000000 0.000000 1.652170 
# 
# From -- ./inp_files/25287.got.cif
#   From: 2010.05.17/outbox.cif.g08.bks.cpg/sg64_13_cif.got.tgz:25287.got - 2010.06.03 16:29:19.
