data_PCOD9478553
_publ_section_title
;
Structure prediction by ZEFSAII (Michael W. Deem and Ramdas Pophale) SiO2 
 PCOD9478553
Probable space group: C M C A
;
_chemical_formula_sum "Si O2"
_cell_formula_units_Z 120
_cell_length_a 9.359959
_cell_length_b 26.756030
_cell_length_c 24.079264
_cell_angle_alpha 90.000000
_cell_angle_beta 90.000000
_cell_angle_gamma 90.000000
_cell_volume 6030.298758
_symmetry_space_group_name_H-M "C M C A"
_symmetry_group_IT_number 64
_symmetry_cell_setting 'orthorhombic'
loop_
_space_group_symop_operation_xyz
x,y,z
-x,1/2-y,1/2+z
x,-y,-z
-x,1/2+y,1/2-z
-x,-y,-z
x,1/2+y,1/2-z
-x,y,z
x,1/2-y,1/2+z
1/2+x,1/2+y,z
1/2-x,-y,1/2+z
1/2+x,1/2-y,-z
1/2-x,y,1/2-z
1/2-x,1/2-y,-z
1/2+x,y,1/2-z
1/2-x,1/2+y,z
1/2+x,-y,1/2+z
loop_
_atom_site_type_symbol
_atom_site_label
_atom_site_fract_x
_atom_site_fract_y
_atom_site_fract_z
Si Si1 0.329857 0.873557 0.086943
Si Si2 0.000000 0.718974 0.259330
Si Si3 0.335311 0.058994 0.511609
Si Si4 0.732448 0.210882 0.159819
Si Si5 0.332574 0.522228 0.193439
Si Si6 0.829754 0.776856 0.050718
Si Si7 0.829240 0.107628 0.107911
Si Si8 0.669406 0.404577 0.192319
O O1 0.500000 0.868099 0.088787
O O2 0.279545 0.923998 0.056443
O O3 0.249098 0.829725 0.054941
O O4 0.256584 0.874403 0.146948
O O5 0.122755 0.723855 0.308071
O O6 0.119996 0.711739 0.209635
O O7 0.500000 0.069013 0.530636
O O8 0.309133 0.090608 0.455493
O O9 0.327054 0.000000 0.500000
O O10 0.694505 0.248130 0.109169
O O11 0.749888 0.156413 0.130522
O O12 0.500000 0.530515 0.203693
O O13 0.250000 0.532584 0.250000
O O14 0.287844 0.559964 0.145483
O O15 0.316466 0.463821 0.179201
O O16 0.000000 0.781546 0.040874
O O17 0.750000 0.750000 0.000000
O O18 0.000000 0.116252 0.115077
O O19 0.500000 0.392568 0.194340
O O20 0.750000 0.396337 0.250000
#
# Coordination Sequence:
#
# PCOD9478553 Si02
#       8
#    16   8  16  16  16  16  16  16
#     4  12  26  43  67  95 129 167 212 262 321 383
#     4  10  24  42  66  94 134 174 220 280 344 414
#     4  10  21  41  67  95 130 176 225 277 332 392
#     4  11  23  43  66  96 134 177 221 278 345 407
#     4   9  19  33  55  85 122 163 207 252 308 369
#     4  12  27  48  72  99 131 170 221 276 336 404
#     4  10  20  34  60  91 125 169 218 264 324 391
#     4  10  20  40  63  90 125 164 209 261 313 380
#
# _framework density 19.899511
#
# number of rings (size 3 to 8) (size 9 to 14) (size 15 to 20)
#    0.000    1.467    1.333    3.600    3.733    4.000 
#    3.600    0.000    0.000    0.000    0.000    0.000 
#    0.000    0.000    0.000    0.000    0.000    0.000 
#
# Total GULP energy -334042.551548 kJ/mol
# GULP energy per Si atom -5567.375859 kJ/mol
# Density = 1.985422 g / cm^3
# Si number density = 19.899511 Si / 1000 Ang^3
#
#
#
# Elastic Constant Matrix: (Units=GPa)
#
#
# Indices 1 2 3 4 5 6 
#
# 1 175.5901 41.6162 54.4758 0.0000 0.0000 0.0000
# 2 41.6162 41.8164 33.3098 0.0000 0.0000 0.0000
# 3 54.4758 33.3098 79.1757 0.0000 0.0000 0.0000
# 4 0.0000 0.0000 0.0000 18.6103 0.0000 0.0000
# 5 0.0000 0.0000 0.0000 0.0000 18.4255 0.0000
# 6 0.0000 0.0000 0.0000 0.0000 0.0000 26.6743
#
#
#
# Elastic Compliance Matrix: (Units=1/GPa)
#
#
# Indices 1 2 3 4 5 6 
#
# 1 0.007966 -0.005357 -0.003227 0.000000 0.000000 0.000000
# 2 -0.005357 0.039571 -0.012962 0.000000 0.000000 0.000000
# 3 -0.003227 -0.012962 0.020304 0.000000 0.000000 0.000000
# 4 0.000000 0.000000 0.000000 0.053734 0.000000 0.000000
# 5 0.000000 0.000000 0.000000 0.000000 0.054272 0.000000
# 6 0.000000 0.000000 0.000000 0.000000 0.000000 0.037489
#
#
# Mechanical properties :
#
#
# Convention : Reuss Voigt Hill
#
# Bulk Modulus (GPa) = 40.40706 61.70954 51.05830
# Shear Modulus (GPa) = 18.89097 23.88738 21.38918
#
# Velocity S-wave (km/s) = 3.08444 3.46844 3.28206
# Velocity P-wave (km/s) = 5.74758 6.86425 6.33059
#
# Compressibility (1/GPa) = 0.02474815
#
# Stress axis : x y z
#
# Youngs Moduli (GPa) = 125.53405 25.27135 49.25255
#
# Poissons Ratio (x) = 0.13539 0.15894
# Poissons Ratio (y) = 0.67252 0.63839
# Poissons Ratio (z) = 0.40510 0.32756
#
# Static dielectric constant tensor:
#      x y z
#    x 1.661270 0.000000 0.000000 
#    y 0.000000 1.781970 0.000000 
#    z 0.000000 0.000000 1.784580 
# 
# From -- ./inp_files/43352.got.cif
#   From: 2010.05.17/outbox.cif.g08.bks.cpg/sg64_22_cif.got.tgz:43352.got - 2010.06.03 16:29:19.
