data_PCOD9478634
_publ_section_title
;
Structure prediction by ZEFSAII (Michael W. Deem and Ramdas Pophale) SiO2 
 PCOD9478634
Probable space group: C M C A
;
_chemical_formula_sum "Si O2"
_cell_formula_units_Z 64
_cell_length_a 23.794150
_cell_length_b 13.207926
_cell_length_c 9.503105
_cell_angle_alpha 90.000000
_cell_angle_beta 90.000000
_cell_angle_gamma 90.000000
_cell_volume 2986.553851
_symmetry_space_group_name_H-M "C M C A"
_symmetry_group_IT_number 64
_symmetry_cell_setting 'orthorhombic'
loop_
_space_group_symop_operation_xyz
x,y,z
-x,1/2-y,1/2+z
x,-y,-z
-x,1/2+y,1/2-z
-x,-y,-z
x,1/2+y,1/2-z
-x,y,z
x,1/2-y,1/2+z
1/2+x,1/2+y,z
1/2-x,-y,1/2+z
1/2+x,1/2-y,-z
1/2-x,y,1/2-z
1/2-x,1/2-y,-z
1/2+x,y,1/2-z
1/2-x,1/2+y,z
1/2+x,-y,1/2+z
loop_
_atom_site_type_symbol
_atom_site_label
_atom_site_fract_x
_atom_site_fract_y
_atom_site_fract_z
Si Si1 0.092792 0.995345 0.343915
Si Si2 0.143757 0.286140 0.125949
Si Si3 0.063478 0.102371 0.071783
Si Si4 0.303339 0.141859 0.152650
O O1 0.104393 0.877349 0.320298
O O2 0.068422 0.000000 0.500000
O O3 0.060641 0.063676 0.232653
O O4 0.153955 0.048144 0.343804
O O5 0.103829 0.198628 0.059908
O O6 0.172654 0.235700 0.258959
O O7 0.190271 0.323473 0.011228
O O8 0.000000 0.122060 0.019351
O O9 0.086800 0.000000 0.000000
O O10 0.250000 0.112885 0.250000
#
# Coordination Sequence:
#
# PCOD9478634 Si02
#       4
#    16  16  16  16
#     4   9  20  37  54  78 114 147 186 238 287 344
#     4  10  20  37  57  82 117 151 188 238 289 341
#     4  10  21  37  58  84 113 150 195 240 289 345
#     4  10  20  35  56  82 110 147 190 234 287 346
#
# _framework density 21.429380999999999
#
# number of rings (size 3 to 8) (size 9 to 14) (size 15 to 20)
#    0.000    2.250    0.000    2.250    0.000    2.500 
#    0.000   32.500    0.000    0.000    0.000    0.000 
#    0.000    0.000    0.000    0.000    0.000    0.000 
#
# Total GULP energy -178166.986173 kJ/mol
# GULP energy per Si atom -5567.718318 kJ/mol
# Density = 2.138061 g / cm^3
# Si number density = 21.429381 Si / 1000 Ang^3
#
#
#
# Elastic Constant Matrix: (Units=GPa)
#
#
# Indices 1 2 3 4 5 6 
#
# 1 46.8390 10.5609 10.9278 0.0000 0.0000 0.0000
# 2 10.5609 82.6263 4.4606 0.0000 0.0000 0.0000
# 3 10.9278 4.4606 58.4971 0.0000 0.0000 0.0000
# 4 0.0000 0.0000 0.0000 36.2874 0.0000 0.0000
# 5 0.0000 0.0000 0.0000 0.0000 12.1736 0.0000
# 6 0.0000 0.0000 0.0000 0.0000 0.0000 77.3361
#
#
#
# Elastic Compliance Matrix: (Units=1/GPa)
#
#
# Indices 1 2 3 4 5 6 
#
# 1 0.022911 -0.002708 -0.004073 0.000000 0.000000 0.000000
# 2 -0.002708 0.012473 -0.000445 0.000000 0.000000 0.000000
# 3 -0.004073 -0.000445 0.017890 0.000000 0.000000 0.000000
# 4 0.000000 0.000000 0.000000 0.027558 0.000000 0.000000
# 5 0.000000 0.000000 0.000000 0.000000 0.082145 0.000000
# 6 0.000000 0.000000 0.000000 0.000000 0.000000 0.012931
#
#
# Mechanical properties :
#
#
# Convention : Reuss Voigt Hill
#
# Bulk Modulus (GPa) = 25.76030 26.65123 26.20576
# Shear Modulus (GPa) = 24.59411 35.96028 30.27720
#
# Velocity S-wave (km/s) = 3.39142 4.10089 3.76291
# Velocity P-wave (km/s) = 5.23285 5.90650 5.57985
#
# Compressibility (1/GPa) = 0.03881942
#
# Stress axis : x y z
#
# Youngs Moduli (GPa) = 43.64764 80.17386 55.89791
#
# Poissons Ratio (x) = 0.21714 0.22770
# Poissons Ratio (y) = 0.11822 0.02488
# Poissons Ratio (z) = 0.17779 0.03569
#
# Static dielectric constant tensor:
#      x y z
#    x 1.971060 0.000000 0.000000 
#    y 0.000000 1.752400 0.000000 
#    z 0.000000 0.000000 1.870580 
# 
# From -- ./inp_files/8965.got.cif
#   From: 2010.05.17/outbox.cif.g08.bks.cpg/sg64_5_cif.got.tgz:8965.got - 2010.06.03 16:29:19.
