data_PCOD9478109
_publ_section_title
;
Structure prediction by ZEFSAII (Michael W. Deem and Ramdas Pophale) SiO2 
 PCOD9478109
Probable space group: C M C A
;
_chemical_formula_sum "Si O2"
_cell_formula_units_Z 128
_cell_length_a 20.657915
_cell_length_b 10.925343
_cell_length_c 26.958040
_cell_angle_alpha 90.000000
_cell_angle_beta 90.000000
_cell_angle_gamma 90.000000
_cell_volume 6084.289636
_symmetry_space_group_name_H-M "C M C A"
_symmetry_group_IT_number 64
_symmetry_cell_setting 'orthorhombic'
loop_
_space_group_symop_operation_xyz
x,y,z
-x,1/2-y,1/2+z
x,-y,-z
-x,1/2+y,1/2-z
-x,-y,-z
x,1/2+y,1/2-z
-x,y,z
x,1/2-y,1/2+z
1/2+x,1/2+y,z
1/2-x,-y,1/2+z
1/2+x,1/2-y,-z
1/2-x,y,1/2-z
1/2-x,1/2-y,-z
1/2+x,y,1/2-z
1/2-x,1/2+y,z
1/2+x,-y,1/2+z
loop_
_atom_site_type_symbol
_atom_site_label
_atom_site_fract_x
_atom_site_fract_y
_atom_site_fract_z
Si Si1 0.195189 0.170947 0.950554
Si Si2 0.185079 0.186545 0.704595
Si Si3 0.814796 0.044603 0.125120
Si Si4 0.853359 0.045803 0.231576
Si Si5 0.073694 0.378355 0.127502
Si Si6 0.339663 0.766682 0.050373
Si Si7 0.297261 0.198539 0.145144
Si Si8 0.430354 0.129848 0.182421
O O1 0.272465 0.161424 0.960679
O O2 0.190152 0.283948 0.913033
O O3 0.178384 0.058762 0.915536
O O4 0.152974 0.192173 0.999219
O O5 0.181109 0.319497 0.731484
O O6 0.180771 0.068747 0.740524
O O7 0.121785 0.175770 0.669485
O O8 0.251621 0.202213 0.830495
O O9 0.829111 0.167497 0.094059
O O10 0.742529 0.070907 0.147447
O O11 0.858723 0.021444 0.173089
O O12 0.917671 0.068942 0.263823
O O13 0.105400 0.351860 0.073870
O O14 0.071144 0.521088 0.142001
O O15 0.000000 0.330801 0.130253
O O16 0.366296 0.205151 0.170741
O O17 0.500000 0.192108 0.181180
#
# Coordination Sequence:
#
# PCOD9478109 Si02
#       8
#    16  16  16  16  16  16  16  16
#     4  10  20  34  62  87 122 156 209 275 329 382
#     4  10  21  41  61 100 127 171 218 265 328 385
#     4  10  20  36  58  93 121 160 206 274 326 382
#     4  10  22  39  63  91 131 164 215 265 318 392
#     4  10  19  39  66  91 131 173 217 268 328 405
#     4  10  19  38  58  91 119 160 214 265 330 389
#     4  10  21  39  60  92 128 163 212 276 322 392
#     4  10  23  41  62  90 130 177 216 265 331 400
#
# _framework density 21.037787999999999
#
# number of rings (size 3 to 8) (size 9 to 14) (size 15 to 20)
#    0.000    2.000    3.750    1.125    3.500    2.500 
#    2.250    2.500    0.000    4.500    0.000    0.000 
#    0.000    0.000    0.000    0.000    0.000    0.000 
#
# Total GULP energy -356615.281849 kJ/mol
# GULP energy per Si atom -5572.113779 kJ/mol
# Density = 2.098991 g / cm^3
# Si number density = 21.037788 Si / 1000 Ang^3
#
#
#
# Elastic Constant Matrix: (Units=GPa)
#
#
# Indices 1 2 3 4 5 6 
#
# 1 123.0910 8.5499 39.5569 0.0000 0.0000 0.0000
# 2 8.5499 71.8161 25.8391 0.0000 0.0000 0.0000
# 3 39.5569 25.8391 116.2837 0.0000 0.0000 0.0000
# 4 0.0000 0.0000 0.0000 33.9694 0.0000 0.0000
# 5 0.0000 0.0000 0.0000 0.0000 17.8364 0.0000
# 6 0.0000 0.0000 0.0000 0.0000 0.0000 15.2836
#
#
#
# Elastic Compliance Matrix: (Units=1/GPa)
#
#
# Indices 1 2 3 4 5 6 
#
# 1 0.009121 0.000033 -0.003110 0.000000 0.000000 0.000000
# 2 0.000033 0.015135 -0.003374 0.000000 0.000000 0.000000
# 3 -0.003110 -0.003374 0.010407 0.000000 0.000000 0.000000
# 4 0.000000 0.000000 0.000000 0.029438 0.000000 0.000000
# 5 0.000000 0.000000 0.000000 0.000000 0.056065 0.000000
# 6 0.000000 0.000000 0.000000 0.000000 0.000000 0.065430
#
#
# Mechanical properties :
#
#
# Convention : Reuss Voigt Hill
#
# Bulk Modulus (GPa) = 45.95464 51.00917 48.48190
# Shear Modulus (GPa) = 24.30104 29.23420 26.76762
#
# Velocity S-wave (km/s) = 3.40238 3.73178 3.57088
# Velocity P-wave (km/s) = 6.10952 6.54732 6.33220
#
# Compressibility (1/GPa) = 0.02176059
#
# Stress axis : x y z
#
# Youngs Moduli (GPa) = 109.63386 66.07394 96.08493
#
# Poissons Ratio (x) = -0.00219 0.29884
# Poissons Ratio (y) = -0.00363 0.32422
# Poissons Ratio (z) = 0.34098 0.22295
#
# Static dielectric constant tensor:
#      x y z
#    x 1.788760 0.000000 0.000000 
#    y 0.000000 1.849330 0.000000 
#    z 0.000000 0.000000 1.812370 
# 
# From -- ./inp_files/46771.got.cif
#   From: 2010.05.17/outbox.cif.g08.bks.cpg/sg64_24_cif.got.tgz:46771.got - 2010.06.03 16:29:19.
