data_PCOD9478466
_publ_section_title
;
Structure prediction by ZEFSAII (Michael W. Deem and Ramdas Pophale) SiO2 
 PCOD9478466
Probable space group: C M C A
;
_chemical_formula_sum "Si O2"
_cell_formula_units_Z 96
_cell_length_a 9.946372
_cell_length_b 20.687370
_cell_length_c 24.243033
_cell_angle_alpha 90.000000
_cell_angle_beta 90.000000
_cell_angle_gamma 90.000000
_cell_volume 4988.350175
_symmetry_space_group_name_H-M "C M C A"
_symmetry_group_IT_number 64
_symmetry_cell_setting 'orthorhombic'
loop_
_space_group_symop_operation_xyz
x,y,z
-x,1/2-y,1/2+z
x,-y,-z
-x,1/2+y,1/2-z
-x,-y,-z
x,1/2+y,1/2-z
-x,y,z
x,1/2-y,1/2+z
1/2+x,1/2+y,z
1/2-x,-y,1/2+z
1/2+x,1/2-y,-z
1/2-x,y,1/2-z
1/2-x,1/2-y,-z
1/2+x,y,1/2-z
1/2-x,1/2+y,z
1/2+x,-y,1/2+z
loop_
_atom_site_type_symbol
_atom_site_label
_atom_site_fract_x
_atom_site_fract_y
_atom_site_fract_z
Si Si1 0.345553 0.080019 0.883159
Si Si2 0.649793 0.413324 0.515266
Si Si3 0.159896 0.537120 0.393723
Si Si4 0.349053 0.732604 0.451211
Si Si5 0.346487 0.224074 0.857662
Si Si6 0.347226 0.357159 0.799384
O O1 0.500000 0.057395 0.875731
O O2 0.331538 0.147129 0.849385
O O3 0.237254 0.025221 0.869357
O O4 0.330197 0.094963 0.949358
O O5 0.500000 0.441169 0.524429
O O6 0.765791 0.450594 0.547871
O O7 0.644741 0.344145 0.544499
O O8 0.179317 0.599473 0.353882
O O9 0.000000 0.527067 0.400007
O O10 0.500000 0.758905 0.457112
O O11 0.250000 0.750000 0.500000
O O12 0.274411 0.757104 0.397553
O O13 0.500000 0.231027 0.881866
O O14 0.339379 0.280116 0.811860
O O15 0.500000 0.371427 0.783142
O O16 0.250000 0.374628 0.750000
#
# Coordination Sequence:
#
# PCOD9478466 Si02
#       6
#    16  16  16  16  16  16
#     4  10  21  37  57  83 121 161 191 224 277 347
#     4  10  20  34  54  82 117 162 201 227 272 340
#     4  11  23  38  57  85 119 153 192 244 287 329
#     4  11  20  31  52  83 118 156 194 234 276 331
#     4  10  20  39  60  83 114 149 190 239 289 339
#     4  10  23  42  65  87 110 142 189 245 297 347
#
# _framework density 19.24484
#
# number of rings (size 3 to 8) (size 9 to 14) (size 15 to 20)
#    0.000    1.667    3.333    1.500    0.000    6.000 
#    0.000    0.833    0.000    4.000    0.000    0.000 
#    0.000    0.000    0.000    0.000    0.000    0.000 
#
# Total GULP energy -267475.910145 kJ/mol
# GULP energy per Si atom -5572.414795 kJ/mol
# Density = 1.920104 g / cm^3
# Si number density = 19.244840 Si / 1000 Ang^3
#
#
#
# Elastic Constant Matrix: (Units=GPa)
#
#
# Indices 1 2 3 4 5 6 
#
# 1 135.4519 47.2490 42.5128 0.0000 0.0000 0.0000
# 2 47.2490 108.3466 7.5982 0.0000 0.0000 0.0000
# 3 42.5128 7.5982 40.4990 0.0000 0.0000 0.0000
# 4 0.0000 0.0000 0.0000 11.6747 0.0000 0.0000
# 5 0.0000 0.0000 0.0000 0.0000 22.3855 0.0000
# 6 0.0000 0.0000 0.0000 0.0000 0.0000 27.5738
#
#
#
# Elastic Compliance Matrix: (Units=1/GPa)
#
#
# Indices 1 2 3 4 5 6 
#
# 1 0.013089 -0.004808 -0.012838 0.000000 0.000000 0.000000
# 2 -0.004808 0.011119 0.002961 0.000000 0.000000 0.000000
# 3 -0.012838 0.002961 0.037613 0.000000 0.000000 0.000000
# 4 0.000000 0.000000 0.000000 0.085655 0.000000 0.000000
# 5 0.000000 0.000000 0.000000 0.000000 0.044672 0.000000
# 6 0.000000 0.000000 0.000000 0.000000 0.000000 0.036266
#
#
# Mechanical properties :
#
#
# Convention : Reuss Voigt Hill
#
# Bulk Modulus (GPa) = 30.81595 53.22418 42.02007
# Shear Modulus (GPa) = 18.61499 24.78928 21.70214
#
# Velocity S-wave (km/s) = 3.11347 3.59290 3.36175
# Velocity P-wave (km/s) = 5.38259 6.70286 6.07868
#
# Compressibility (1/GPa) = 0.03245072
#
# Stress axis : x y z
#
# Youngs Moduli (GPa) = 76.39979 89.93933 26.58671
#
# Poissons Ratio (x) = 0.43240 0.34132
# Poissons Ratio (y) = 0.36731 -0.07872
# Poissons Ratio (z) = 0.98081 -0.26629
#
# Static dielectric constant tensor:
#      x y z
#    x 1.698450 0.000000 0.000000 
#    y 0.000000 1.683210 0.000000 
#    z 0.000000 0.000000 1.685480 
# 
# From -- ./inp_files/48120.got.cif
#   From: 2010.05.17/outbox.cif.g08.bks.cpg/sg64_25_cif.got.tgz:48120.got - 2010.06.03 16:29:19.
