data_PCOD9478589
_publ_section_title
;
Structure prediction by ZEFSAII (Michael W. Deem and Ramdas Pophale) SiO2 
 PCOD9478589
Probable space group: C M C A
;
_chemical_formula_sum "Si O2"
_cell_formula_units_Z 96
_cell_length_a 7.726582
_cell_length_b 24.167824
_cell_length_c 26.392078
_cell_angle_alpha 90.000000
_cell_angle_beta 90.000000
_cell_angle_gamma 90.000000
_cell_volume 4928.316079
_symmetry_space_group_name_H-M "C M C A"
_symmetry_group_IT_number 64
_symmetry_cell_setting 'orthorhombic'
loop_
_space_group_symop_operation_xyz
x,y,z
-x,1/2-y,1/2+z
x,-y,-z
-x,1/2+y,1/2-z
-x,-y,-z
x,1/2+y,1/2-z
-x,y,z
x,1/2-y,1/2+z
1/2+x,1/2+y,z
1/2-x,-y,1/2+z
1/2+x,1/2-y,-z
1/2-x,y,1/2-z
1/2-x,1/2-y,-z
1/2+x,y,1/2-z
1/2-x,1/2+y,z
1/2+x,-y,1/2+z
loop_
_atom_site_type_symbol
_atom_site_label
_atom_site_fract_x
_atom_site_fract_y
_atom_site_fract_z
Si Si1 0.291560 0.691348 0.192823
Si Si2 0.208932 0.383461 0.095262
Si Si3 0.296918 0.117775 0.398235
Si Si4 0.792538 0.496047 0.557710
Si Si5 0.708102 0.317710 0.307169
Si Si6 0.793115 0.814600 0.502859
O O1 0.500000 0.693797 0.187772
O O2 0.250000 0.673898 0.250000
O O3 0.222538 0.649958 0.150128
O O4 0.226995 0.754524 0.186119
O O5 0.258391 0.446798 0.086196
O O6 0.272174 0.356990 0.147863
O O7 0.269214 0.347005 0.047244
O O8 0.000000 0.380659 0.095512
O O9 0.500000 0.108941 0.387100
O O10 0.222325 0.058195 0.413864
O O11 0.282583 0.157139 0.447125
O O12 0.724662 0.500000 0.500000
O O13 0.000000 0.488925 0.553720
O O14 0.500000 0.315829 0.310962
O O15 0.750000 0.335735 0.250000
O O16 0.750000 0.750000 0.500000
O O17 0.000000 0.820597 0.505421
#
# Coordination Sequence:
#
# PCOD9478589 Si02
#       6
#    16  16  16  16  16  16
#     4   9  18  34  56  78 106 139 174 219 269 320
#     4  10  21  36  54  77 107 140 177 219 267 317
#     4  10  20  36  55  77 108 142 177 221 270 316
#     4  10  20  35  55  78 106 144 184 220 263 316
#     4   9  18  34  54  77 103 135 173 215 265 317
#     4  11  22  34  52  79 109 140 174 218 270 325
#
# _framework density 19.47927
#
# number of rings (size 3 to 8) (size 9 to 14) (size 15 to 20)
#    0.000    2.167    1.667    1.500    0.000    5.667 
#    0.000    4.167    0.000    4.000    0.000    0.000 
#    0.000    0.000    0.000    0.000    0.000    0.000 
#
# Total GULP energy -267979.488602 kJ/mol
# GULP energy per Si atom -5582.906013 kJ/mol
# Density = 1.943493 g / cm^3
# Si number density = 19.479270 Si / 1000 Ang^3
#
#
#
# Elastic Constant Matrix: (Units=GPa)
#
#
# Indices 1 2 3 4 5 6 
#
# 1 25.6494 -10.7065 -6.8954 0.0000 0.0000 0.0000
# 2 -10.7065 165.0533 111.1428 0.0000 0.0000 0.0000
# 3 -6.8954 111.1428 183.7394 0.0000 0.0000 0.0000
# 4 0.0000 0.0000 0.0000 22.0195 0.0000 0.0000
# 5 0.0000 0.0000 0.0000 0.0000 20.2964 0.0000
# 6 0.0000 0.0000 0.0000 0.0000 0.0000 289.0908
#
#
#
# Elastic Compliance Matrix: (Units=1/GPa)
#
#
# Indices 1 2 3 4 5 6 
#
# 1 0.040074 0.002677 -0.000116 0.000000 0.000000 0.000000
# 2 0.002677 0.010401 -0.006191 0.000000 0.000000 0.000000
# 3 -0.000116 -0.006191 0.009183 0.000000 0.000000 0.000000
# 4 0.000000 0.000000 0.000000 0.045414 0.000000 0.000000
# 5 0.000000 0.000000 0.000000 0.000000 0.049270 0.000000
# 6 0.000000 0.000000 0.000000 0.000000 0.000000 0.003459
#
#
# Mechanical properties :
#
#
# Convention : Reuss Voigt Hill
#
# Bulk Modulus (GPa) = 19.08427 62.39154 40.73791
# Shear Modulus (GPa) = 27.39323 85.00808 56.20066
#
# Velocity S-wave (km/s) = 3.75410 6.61325 5.37719
# Velocity P-wave (km/s) = 5.34879 9.50855 7.71434
#
# Compressibility (1/GPa) = 0.05239918
#
# Stress axis : x y z
#
# Youngs Moduli (GPa) = 24.95402 96.14146 108.89461
#
# Poissons Ratio (x) = -0.25740 0.01259
# Poissons Ratio (y) = -0.06681 0.67419
# Poissons Ratio (z) = 0.00288 0.59523
#
# Static dielectric constant tensor:
#      x y z
#    x 1.758240 0.000000 0.000000 
#    y 0.000000 1.660590 0.000000 
#    z 0.000000 0.000000 1.666870 
# 
# From -- ./inp_files/42974.got.cif
#   From: 2010.05.17/outbox.cif.g08.bks.cpg/sg64_22_cif.got.tgz:42974.got - 2010.06.03 16:29:19.
