data_PCOD9478744
_publ_section_title
;
Structure prediction by ZEFSAII (Michael W. Deem and Ramdas Pophale) SiO2 
 PCOD9478744
Probable space group: C M C A
;
_chemical_formula_sum "Si O2"
_cell_formula_units_Z 112
_cell_length_a 14.938522
_cell_length_b 25.432859
_cell_length_c 15.015529
_cell_angle_alpha 90.000000
_cell_angle_beta 90.000000
_cell_angle_gamma 90.000000
_cell_volume 5704.839778
_symmetry_space_group_name_H-M "C M C A"
_symmetry_group_IT_number 64
_symmetry_cell_setting 'orthorhombic'
loop_
_space_group_symop_operation_xyz
x,y,z
-x,1/2-y,1/2+z
x,-y,-z
-x,1/2+y,1/2-z
-x,-y,-z
x,1/2+y,1/2-z
-x,y,z
x,1/2-y,1/2+z
1/2+x,1/2+y,z
1/2-x,-y,1/2+z
1/2+x,1/2-y,-z
1/2-x,y,1/2-z
1/2-x,1/2-y,-z
1/2+x,y,1/2-z
1/2-x,1/2+y,z
1/2+x,-y,1/2+z
loop_
_atom_site_type_symbol
_atom_site_label
_atom_site_fract_x
_atom_site_fract_y
_atom_site_fract_z
Si Si1 0.347077 0.023000 0.211562
Si Si2 0.225513 0.588920 0.047702
Si Si3 0.891183 0.290435 0.760075
Si Si4 0.896234 0.422140 0.113754
Si Si5 0.100949 0.394490 0.647793
Si Si6 0.325014 0.210502 0.038257
Si Si7 0.601307 0.694267 0.645979
O O1 0.250000 0.008250 0.250000
O O2 0.326126 0.062106 0.129640
O O3 0.398484 0.057189 0.283851
O O4 0.395093 0.970422 0.180773
O O5 0.330773 0.587769 0.070427
O O6 0.208325 0.650783 0.040730
O O7 0.177966 0.564836 0.961078
O O8 0.864546 0.343812 0.705909
O O9 0.859386 0.281532 0.861403
O O10 0.856287 0.241091 0.702437
O O11 0.000000 0.293061 0.761959
O O12 0.866227 0.365702 0.153194
O O13 0.000000 0.415694 0.079705
O O14 0.000000 0.382858 0.616907
O O15 0.250000 0.250000 0.000000
O O16 0.396537 0.210118 0.957970
O O17 0.500000 0.691960 0.678409
#
# Coordination Sequence:
#
# PCOD9478744 Si02
#       7
#    16  16  16  16  16  16  16
#     4  10  20  36  58  85 117 148 196 254 295 356
#     4  10  21  36  55  86 120 147 194 252 295 351
#     4  10  20  37  61  85 117 159 199 247 304 359
#     4  10  21  38  60  85 118 158 199 245 305 363
#     4  10  20  35  61  89 115 152 197 248 301 355
#     4  11  21  34  55  85 118 155 192 241 299 359
#     4   9  20  37  55  82 117 151 195 245 289 355
#
# _framework density 19.632453000000002
#
# number of rings (size 3 to 8) (size 9 to 14) (size 15 to 20)
#    0.000    2.000    1.429    2.143    0.000    4.000 
#    5.143    0.714    0.000    7.714    0.000    0.000 
#    0.000    0.000    0.000    0.000    0.000    0.000 
#
# Total GULP energy -311911.761959 kJ/mol
# GULP energy per Si atom -5569.852892 kJ/mol
# Density = 1.958777 g / cm^3
# Si number density = 19.632453 Si / 1000 Ang^3
#
#
#
# Elastic Constant Matrix: (Units=GPa)
#
#
# Indices 1 2 3 4 5 6 
#
# 1 59.9020 29.9095 18.8821 0.0000 0.0000 0.0000
# 2 29.9095 106.9710 45.3496 0.0000 0.0000 0.0000
# 3 18.8821 45.3496 67.4915 0.0000 0.0000 0.0000
# 4 0.0000 0.0000 0.0000 30.7150 0.0000 0.0000
# 5 0.0000 0.0000 0.0000 0.0000 22.6148 0.0000
# 6 0.0000 0.0000 0.0000 0.0000 0.0000 15.6714
#
#
#
# Elastic Compliance Matrix: (Units=1/GPa)
#
#
# Indices 1 2 3 4 5 6 
#
# 1 0.019707 -0.004437 -0.002532 0.000000 0.000000 0.000000
# 2 -0.004437 0.014071 -0.008213 0.000000 0.000000 0.000000
# 3 -0.002532 -0.008213 0.021044 0.000000 0.000000 0.000000
# 4 0.000000 0.000000 0.000000 0.032557 0.000000 0.000000
# 5 0.000000 0.000000 0.000000 0.000000 0.044219 0.000000
# 6 0.000000 0.000000 0.000000 0.000000 0.000000 0.063811
#
#
# Mechanical properties :
#
#
# Convention : Reuss Voigt Hill
#
# Bulk Modulus (GPa) = 40.88751 46.96076 43.92414
# Shear Modulus (GPa) = 21.37423 23.14846 22.26134
#
# Velocity S-wave (km/s) = 3.30315 3.43752 3.37100
# Velocity P-wave (km/s) = 5.95143 6.30296 6.12971
#
# Compressibility (1/GPa) = 0.02445735
#
# Stress axis : x y z
#
# Youngs Moduli (GPa) = 50.74228 71.06897 47.51946
#
# Poissons Ratio (x) = 0.31531 0.12034
# Poissons Ratio (y) = 0.22513 0.39030
# Poissons Ratio (z) = 0.12850 0.58372
#
# Static dielectric constant tensor:
#      x y z
#    x 1.749980 0.000000 0.000000 
#    y 0.000000 1.702970 0.000000 
#    z 0.000000 0.000000 1.705610 
# 
# From -- ./inp_files/24183.got.cif
#   From: 2010.05.17/outbox.cif.g08.bks.cpg/sg64_13_cif.got.tgz:24183.got - 2010.06.03 16:29:19.
