data_PCOD9478437
_publ_section_title
;
Structure prediction by ZEFSAII (Michael W. Deem and Ramdas Pophale) SiO2 
 PCOD9478437
Probable space group: C M C A
;
_chemical_formula_sum "Si O2"
_cell_formula_units_Z 96
_cell_length_a 24.047329
_cell_length_b 21.343625
_cell_length_c 9.344371
_cell_angle_alpha 90.000000
_cell_angle_beta 90.000000
_cell_angle_gamma 90.000000
_cell_volume 4796.065438
_symmetry_space_group_name_H-M "C M C A"
_symmetry_group_IT_number 64
_symmetry_cell_setting 'orthorhombic'
loop_
_space_group_symop_operation_xyz
x,y,z
-x,1/2-y,1/2+z
x,-y,-z
-x,1/2+y,1/2-z
-x,-y,-z
x,1/2+y,1/2-z
-x,y,z
x,1/2-y,1/2+z
1/2+x,1/2+y,z
1/2-x,-y,1/2+z
1/2+x,1/2-y,-z
1/2-x,y,1/2-z
1/2-x,1/2-y,-z
1/2+x,y,1/2-z
1/2-x,1/2+y,z
1/2+x,-y,1/2+z
loop_
_atom_site_type_symbol
_atom_site_label
_atom_site_fract_x
_atom_site_fract_y
_atom_site_fract_z
Si Si1 0.128082 0.423732 0.288873
Si Si2 0.663510 0.538116 0.362236
Si Si3 0.936002 0.696561 0.706579
Si Si4 0.307560 0.139846 0.952637
Si Si5 0.634174 0.766781 0.566205
Si Si6 0.187825 0.102955 0.077097
O O1 0.119986 0.488643 0.204020
O O2 0.076196 0.377312 0.274694
O O3 0.177935 0.388229 0.202524
O O4 0.149606 0.426993 0.451894
O O5 0.689699 0.500000 0.500000
O O6 0.649785 0.603539 0.440024
O O7 0.693215 0.558390 0.214630
O O8 0.914497 0.735666 0.841200
O O9 0.893319 0.716572 0.583788
O O10 0.000000 0.708284 0.673835
O O11 0.319081 0.213357 0.949682
O O12 0.247318 0.121257 0.010840
O O13 0.659473 0.831470 0.624121
#
# Coordination Sequence:
#
# PCOD9478437 Si02
#       6
#    16  16  16  16  16  16
#     4   9  21  35  52  79 110 146 196 239 279 343
#     4  10  21  35  52  77 114 152 192 231 272 332
#     4  10  20  37  59  79 107 148 193 249 302 344
#     4  10  20  34  53  81 118 154 184 230 286 345
#     4  10  21  36  56  86 115 144 193 242 291 351
#     4  11  20  33  56  82 116 157 189 229 285 343
#
# _framework density 20.016408999999999
#
# number of rings (size 3 to 8) (size 9 to 14) (size 15 to 20)
#    0.000    2.000    0.000    3.500    0.000    6.667 
#    0.000    5.000    0.000   24.500    0.000    0.000 
#    0.000    0.000    0.000    0.000    0.000    0.000 
#
# Total GULP energy -267304.390731 kJ/mol
# GULP energy per Si atom -5568.841474 kJ/mol
# Density = 1.997085 g / cm^3
# Si number density = 20.016409 Si / 1000 Ang^3
#
#
#
# Elastic Constant Matrix: (Units=GPa)
#
#
# Indices 1 2 3 4 5 6 
#
# 1 11.9900 -12.1572 -4.4553 0.0000 0.0000 0.0000
# 2 -12.1572 81.4780 23.1983 0.0000 0.0000 0.0000
# 3 -4.4553 23.1983 99.3188 0.0000 0.0000 0.0000
# 4 0.0000 0.0000 0.0000 26.7535 0.0000 0.0000
# 5 0.0000 0.0000 0.0000 0.0000 5.1084 0.0000
# 6 0.0000 0.0000 0.0000 0.0000 0.0000 14.3622
#
#
#
# Elastic Compliance Matrix: (Units=1/GPa)
#
#
# Indices 1 2 3 4 5 6 
#
# 1 0.098373 0.014378 0.001055 0.000000 0.000000 0.000000
# 2 0.014378 0.015249 -0.002917 0.000000 0.000000 0.000000
# 3 0.001055 -0.002917 0.010797 0.000000 0.000000 0.000000
# 4 0.000000 0.000000 0.000000 0.037378 0.000000 0.000000
# 5 0.000000 0.000000 0.000000 0.000000 0.195754 0.000000
# 6 0.000000 0.000000 0.000000 0.000000 0.000000 0.069627
#
#
# Mechanical properties :
#
#
# Convention : Reuss Voigt Hill
#
# Bulk Modulus (GPa) = 6.69120 22.88426 14.78773
# Shear Modulus (GPa) = 11.06282 21.65822 16.36052
#
# Velocity S-wave (km/s) = 2.35348 3.29298 2.86204
# Velocity P-wave (km/s) = 3.27647 5.09076 4.28084
#
# Compressibility (1/GPa) = 0.14944999
#
# Stress axis : x y z
#
# Youngs Moduli (GPa) = 10.16543 65.57807 92.61668
#
# Poissons Ratio (x) = -0.94286 -0.09768
# Poissons Ratio (y) = -0.14616 0.27014
# Poissons Ratio (z) = -0.01072 0.19128
#
# Static dielectric constant tensor:
#      x y z
#    x 1.660430 0.000000 0.000000 
#    y 0.000000 1.765150 0.000000 
#    z 0.000000 0.000000 1.737010 
# 
# From -- ./inp_files/9497.got.cif
#   From: 2010.05.17/outbox.cif.g08.bks.cpg/sg64_5_cif.got.tgz:9497.got - 2010.06.03 16:29:19.
