data_PCOD9478515
_publ_section_title
;
Structure prediction by ZEFSAII (Michael W. Deem and Ramdas Pophale) SiO2 
 PCOD9478515
Probable space group: C M C A
;
_chemical_formula_sum "Si O2"
_cell_formula_units_Z 112
_cell_length_a 15.038001
_cell_length_b 25.291100
_cell_length_c 14.751653
_cell_angle_alpha 90.000000
_cell_angle_beta 90.000000
_cell_angle_gamma 90.000000
_cell_volume 5610.460591
_symmetry_space_group_name_H-M "C M C A"
_symmetry_group_IT_number 64
_symmetry_cell_setting 'orthorhombic'
loop_
_space_group_symop_operation_xyz
x,y,z
-x,1/2-y,1/2+z
x,-y,-z
-x,1/2+y,1/2-z
-x,-y,-z
x,1/2+y,1/2-z
-x,y,z
x,1/2-y,1/2+z
1/2+x,1/2+y,z
1/2-x,-y,1/2+z
1/2+x,1/2-y,-z
1/2-x,y,1/2-z
1/2-x,1/2-y,-z
1/2+x,y,1/2-z
1/2-x,1/2+y,z
1/2+x,-y,1/2+z
loop_
_atom_site_type_symbol
_atom_site_label
_atom_site_fract_x
_atom_site_fract_y
_atom_site_fract_z
Si Si1 0.106498 0.229767 0.681341
Si Si2 0.898399 0.753666 0.613165
Si Si3 0.225007 0.870012 0.354866
Si Si4 0.859095 0.354559 0.663518
Si Si5 0.656275 0.632546 0.363029
Si Si6 0.402275 0.145992 0.533315
Si Si7 0.896461 0.441184 0.027241
O O1 0.118885 0.224901 0.790764
O O2 0.169875 0.185655 0.636685
O O3 0.135560 0.290338 0.664761
O O4 0.000000 0.223482 0.661037
O O5 0.843845 0.806555 0.603883
O O6 0.891144 0.709820 0.536786
O O7 0.000000 0.772368 0.616853
O O8 0.250000 0.876561 0.250000
O O9 0.315410 0.872920 0.413717
O O10 0.160576 0.915114 0.393243
O O11 0.760043 0.377091 0.652966
O O12 0.890273 0.370115 0.764412
O O13 0.904388 0.371724 0.570603
O O14 0.615696 0.595768 0.439037
O O15 0.500000 0.135116 0.575293
O O16 0.000000 0.442879 0.052737
O O17 0.867330 0.500000 0.000000
#
# Coordination Sequence:
#
# PCOD9478515 Si02
#       7
#    16  16  16  16  16  16  16
#     4  10  20  34  56  92 136 174 211 248 303 384
#     4   9  18  31  51  86 131 169 203 244 298 375
#     4  12  24  41  65  93 126 172 211 266 324 376
#     4  10  21  35  58  93 131 172 207 250 306 387
#     4  10  20  38  63  89 122 168 213 262 313 377
#     4  11  22  36  56  91 133 171 208 250 306 386
#     4  11  26  48  71  96 122 158 220 283 336 387
#
# _framework density 19.962710000000001
#
# number of rings (size 3 to 8) (size 9 to 14) (size 15 to 20)
#    0.000    1.571    2.857    2.143    4.000    3.429 
#    2.571    0.000    0.000    0.429    0.000    0.000 
#    0.000    0.000    0.000    0.000    0.000    0.000 
#
# Total GULP energy -312483.936800 kJ/mol
# GULP energy per Si atom -5580.070300 kJ/mol
# Density = 1.991727 g / cm^3
# Si number density = 19.962710 Si / 1000 Ang^3
#
#
#
# Elastic Constant Matrix: (Units=GPa)
#
#
# Indices 1 2 3 4 5 6 
#
# 1 83.2937 31.4403 35.1039 0.0000 0.0000 0.0000
# 2 31.4403 46.5349 13.0380 0.0000 0.0000 0.0000
# 3 35.1039 13.0380 101.9106 0.0000 0.0000 0.0000
# 4 0.0000 0.0000 0.0000 16.9123 0.0000 0.0000
# 5 0.0000 0.0000 0.0000 0.0000 23.5277 0.0000
# 6 0.0000 0.0000 0.0000 0.0000 0.0000 24.0931
#
#
#
# Elastic Compliance Matrix: (Units=1/GPa)
#
#
# Indices 1 2 3 4 5 6 
#
# 1 0.018177 -0.010918 -0.004864 0.000000 0.000000 0.000000
# 2 -0.010918 0.028846 0.000070 0.000000 0.000000 0.000000
# 3 -0.004864 0.000070 0.011479 0.000000 0.000000 0.000000
# 4 0.000000 0.000000 0.000000 0.059129 0.000000 0.000000
# 5 0.000000 0.000000 0.000000 0.000000 0.042503 0.000000
# 6 0.000000 0.000000 0.000000 0.000000 0.000000 0.041506
#
#
# Mechanical properties :
#
#
# Convention : Reuss Voigt Hill
#
# Bulk Modulus (GPa) = 36.93030 43.43374 40.18202
# Shear Modulus (GPa) = 20.65352 23.05041 21.85197
#
# Velocity S-wave (km/s) = 3.22002 3.40174 3.31212
# Velocity P-wave (km/s) = 5.68898 6.10195 5.89908
#
# Compressibility (1/GPa) = 0.02707803
#
# Stress axis : x y z
#
# Youngs Moduli (GPa) = 55.01478 34.66685 87.11484
#
# Poissons Ratio (x) = 0.37849 0.42376
# Poissons Ratio (y) = 0.60065 -0.00613
# Poissons Ratio (z) = 0.26761 -0.00244
#
# Static dielectric constant tensor:
#      x y z
#    x 1.748070 0.000000 0.000000 
#    y 0.000000 1.671380 0.000000 
#    z 0.000000 0.000000 1.753990 
# 
# From -- ./inp_files/24201.got.cif
#   From: 2010.05.17/outbox.cif.g08.bks.cpg/sg64_13_cif.got.tgz:24201.got - 2010.06.03 16:29:19.
