data_PCOD9478643
_publ_section_title
;
Structure prediction by ZEFSAII (Michael W. Deem and Ramdas Pophale) SiO2 
 PCOD9478643
Probable space group: C M C A
;
_chemical_formula_sum "Si O2"
_cell_formula_units_Z 96
_cell_length_a 14.543420
_cell_length_b 23.527584
_cell_length_c 12.579503
_cell_angle_alpha 90.000000
_cell_angle_beta 90.000000
_cell_angle_gamma 90.000000
_cell_volume 4304.347860
_symmetry_space_group_name_H-M "C M C A"
_symmetry_group_IT_number 64
_symmetry_cell_setting 'orthorhombic'
loop_
_space_group_symop_operation_xyz
x,y,z
-x,1/2-y,1/2+z
x,-y,-z
-x,1/2+y,1/2-z
-x,-y,-z
x,1/2+y,1/2-z
-x,y,z
x,1/2-y,1/2+z
1/2+x,1/2+y,z
1/2-x,-y,1/2+z
1/2+x,1/2-y,-z
1/2-x,y,1/2-z
1/2-x,1/2-y,-z
1/2+x,y,1/2-z
1/2-x,1/2+y,z
1/2+x,-y,1/2+z
loop_
_atom_site_type_symbol
_atom_site_label
_atom_site_fract_x
_atom_site_fract_y
_atom_site_fract_z
Si Si1 0.851003 0.452446 0.796872
Si Si2 0.612152 0.874738 0.991427
Si Si3 0.394995 0.652093 0.151122
Si Si4 0.387837 0.772698 0.841329
Si Si5 0.106497 0.082739 0.714256
Si Si6 0.387237 0.352509 0.086353
O O1 0.750000 0.458085 0.750000
O O2 0.854389 0.424116 0.912472
O O3 0.896574 0.406209 0.718186
O O4 0.891175 0.515243 0.799682
O O5 0.500000 0.877614 0.990161
O O6 0.637965 0.815116 0.937148
O O7 0.645442 0.885695 0.110663
O O8 0.500000 0.670632 0.132563
O O9 0.354466 0.699401 0.230641
O O10 0.352894 0.642942 0.034922
O O11 0.500000 0.773444 0.837055
O O12 0.361293 0.708659 0.865854
O O13 0.144883 0.100726 0.828731
O O14 0.000000 0.100865 0.716346
O O15 0.500000 0.356226 0.080295
#
# Coordination Sequence:
#
# PCOD9478643 Si02
#       6
#    16  16  16  16  16  16
#     4  11  22  37  54  77 106 143 185 226 269 320
#     4   9  18  35  60  84 106 139 181 226 269 312
#     4   9  18  34  55  79 110 143 176 217 269 323
#     4   8  15  28  52  83 111 136 170 217 266 316
#     4  10  20  35  56  83 111 139 180 226 269 315
#     4   9  18  30  51  86 114 138 170 213 270 323
#
# _framework density 22.303028999999999
#
# number of rings (size 3 to 8) (size 9 to 14) (size 15 to 20)
#    0.000    2.667    0.000    3.000    2.333    2.000 
#    6.000    2.500    0.000    8.000    0.000    0.000 
#    0.000    0.000    0.000    0.000    0.000    0.000 
#
# Total GULP energy -268004.579558 kJ/mol
# GULP energy per Si atom -5583.428741 kJ/mol
# Density = 2.225227 g / cm^3
# Si number density = 22.303029 Si / 1000 Ang^3
#
#
#
# Elastic Constant Matrix: (Units=GPa)
#
#
# Indices 1 2 3 4 5 6 
#
# 1 48.9465 -28.2401 2.4711 0.0000 0.0000 0.0000
# 2 -28.2401 53.0409 -1.4716 0.0000 0.0000 0.0000
# 3 2.4711 -1.4716 97.7207 0.0000 0.0000 0.0000
# 4 0.0000 0.0000 0.0000 4.4684 0.0000 0.0000
# 5 0.0000 0.0000 0.0000 0.0000 -186.0786 0.0000
# 6 0.0000 0.0000 0.0000 0.0000 0.0000 -25.5177
#
#
#
# Elastic Compliance Matrix: (Units=1/GPa)
#
#
# Indices 1 2 3 4 5 6 
#
# 1 0.029514 0.015700 -0.000510 0.000000 0.000000 0.000000
# 2 0.015700 0.027213 0.000013 0.000000 0.000000 0.000000
# 3 -0.000510 0.000013 0.010246 0.000000 0.000000 0.000000
# 4 0.000000 0.000000 0.000000 0.223796 0.000000 0.000000
# 5 0.000000 0.000000 0.000000 0.000000 -0.005374 0.000000
# 6 0.000000 0.000000 0.000000 0.000000 0.000000 -0.039188
#
#
# Mechanical properties :
#
#
# Convention : Reuss Voigt Hill
#
# Bulk Modulus (GPa) = 10.26916 16.13633 13.20275
# Shear Modulus (GPa) = 20.14009 -26.29568 -3.07780
#
# Velocity S-wave (km/s) = 3.00829 -3.43741 -1.17600
# Velocity P-wave (km/s) = 4.08421 2.91610 2.02202
#
# Compressibility (1/GPa) = 0.09737893
#
# Stress axis : x y z
#
# Youngs Moduli (GPa) = 33.88182 36.74760 97.59587
#
# Poissons Ratio (x) = -0.57693 0.04976
# Poissons Ratio (y) = -0.53194 -0.00125
# Poissons Ratio (z) = 0.01728 -0.00047
#
# Static dielectric constant tensor:
#      x y z
#    x 1.920940 0.000000 0.000000 
#    y 0.000000 1.759520 0.000000 
#    z 0.000000 0.000000 1.827200 
# 
# From -- ./inp_files/16187.got.cif
#   From: 2010.05.17/outbox.cif.g08.bks.cpg/sg64_9_cif.got.tgz:16187.got - 2010.06.03 16:29:19.
