data_PCOD9478924
_publ_section_title
;
Structure prediction by ZEFSAII (Michael W. Deem and Ramdas Pophale) SiO2 
 PCOD9478924
Probable space group: C M C A
;
_chemical_formula_sum "Si O2"
_cell_formula_units_Z 96
_cell_length_a 24.848903
_cell_length_b 22.965621
_cell_length_c 9.197727
_cell_angle_alpha 90.000000
_cell_angle_beta 90.000000
_cell_angle_gamma 90.000000
_cell_volume 5248.871361
_symmetry_space_group_name_H-M "C M C A"
_symmetry_group_IT_number 64
_symmetry_cell_setting 'orthorhombic'
loop_
_space_group_symop_operation_xyz
x,y,z
-x,1/2-y,1/2+z
x,-y,-z
-x,1/2+y,1/2-z
-x,-y,-z
x,1/2+y,1/2-z
-x,y,z
x,1/2-y,1/2+z
1/2+x,1/2+y,z
1/2-x,-y,1/2+z
1/2+x,1/2-y,-z
1/2-x,y,1/2-z
1/2-x,1/2-y,-z
1/2+x,y,1/2-z
1/2-x,1/2+y,z
1/2+x,-y,1/2+z
loop_
_atom_site_type_symbol
_atom_site_label
_atom_site_fract_x
_atom_site_fract_y
_atom_site_fract_z
Si Si1 0.802129 0.854730 0.354205
Si Si2 0.890744 0.764972 0.243460
Si Si3 0.156483 0.584924 0.400532
Si Si4 0.438050 0.173567 0.470558
Si Si5 0.810325 0.532311 0.704929
Si Si6 0.799839 0.820711 0.676365
O O1 0.750000 0.849073 0.250000
O O2 0.849196 0.809896 0.315817
O O3 0.824588 0.919562 0.324384
O O4 0.785557 0.844750 0.519402
O O5 0.922626 0.725155 0.357692
O O6 0.926892 0.799785 0.129629
O O7 0.851266 0.720275 0.160221
O O8 0.102407 0.619476 0.443808
O O9 0.152168 0.523671 0.315534
O O10 0.187063 0.566422 0.549562
O O11 0.186799 0.628865 0.292306
O O12 0.500000 0.157036 0.452885
O O13 0.750000 0.512514 0.750000
O O14 0.750000 0.787226 0.750000
#
# Coordination Sequence:
#
# PCOD9478924 Si02
#       6
#    16  16  16  16  16  16
#     4  11  22  34  57  88 123 162 191 237 296 364
#     4  11  22  38  59  88 117 154 200 249 305 358
#     4  10  22  39  58  88 120 159 203 240 293 352
#     4  11  23  42  64  85 115 156 208 261 302 345
#     4  10  20  36  60  85 123 156 192 234 286 359
#     4  11  22  34  56  87 124 160 191 235 298 368
#
# _framework density 18.289646000000001
#
# number of rings (size 3 to 8) (size 9 to 14) (size 15 to 20)
#    0.000    1.333    3.333    3.500    2.333    4.667 
#    0.000    1.667    0.000    0.000    0.000    2.333 
#    0.000    0.000    0.000    0.000    0.000    0.000 
#
# Total GULP energy -267838.528245 kJ/mol
# GULP energy per Si atom -5579.969338 kJ/mol
# Density = 1.824802 g / cm^3
# Si number density = 18.289646 Si / 1000 Ang^3
#
#
#
# Elastic Constant Matrix: (Units=GPa)
#
#
# Indices 1 2 3 4 5 6 
#
# 1 99.7443 38.4131 47.7320 0.0000 0.0000 0.0000
# 2 38.4131 102.4011 23.4663 0.0000 0.0000 0.0000
# 3 47.7320 23.4663 82.9279 0.0000 0.0000 0.0000
# 4 0.0000 0.0000 0.0000 11.2816 0.0000 0.0000
# 5 0.0000 0.0000 0.0000 0.0000 19.8336 0.0000
# 6 0.0000 0.0000 0.0000 0.0000 0.0000 15.0889
#
#
#
# Elastic Compliance Matrix: (Units=1/GPa)
#
#
# Indices 1 2 3 4 5 6 
#
# 1 0.015199 -0.003953 -0.007630 0.000000 0.000000 0.000000
# 2 -0.003953 0.011471 -0.000971 0.000000 0.000000 0.000000
# 3 -0.007630 -0.000971 0.016725 0.000000 0.000000 0.000000
# 4 0.000000 0.000000 0.000000 0.088640 0.000000 0.000000
# 5 0.000000 0.000000 0.000000 0.000000 0.050419 0.000000
# 6 0.000000 0.000000 0.000000 0.000000 0.000000 0.066274
#
#
# Mechanical properties :
#
#
# Convention : Reuss Voigt Hill
#
# Bulk Modulus (GPa) = 54.68081 56.03292 55.35686
# Shear Modulus (GPa) = 17.86154 20.93829 19.39991
#
# Velocity S-wave (km/s) = 3.12844 3.38718 3.26038
# Velocity P-wave (km/s) = 6.55832 6.78235 6.67128
#
# Compressibility (1/GPa) = 0.01828795
#
# Stress axis : x y z
#
# Youngs Moduli (GPa) = 65.79262 87.17743 59.79105
#
# Poissons Ratio (x) = 0.34463 0.45620
# Poissons Ratio (y) = 0.26009 0.05803
# Poissons Ratio (z) = 0.50199 0.08461
#
# Static dielectric constant tensor:
#      x y z
#    x 1.622550 0.000000 0.000000 
#    y 0.000000 1.655910 0.000000 
#    z 0.000000 0.000000 1.639420 
# 
# From -- ./inp_files/9464.got.cif
#   From: 2010.05.17/outbox.cif.g08.bks.cpg/sg64_5_cif.got.tgz:9464.got - 2010.06.03 16:29:19.
