data_PCOD9478756
_publ_section_title
;
Structure prediction by ZEFSAII (Michael W. Deem and Ramdas Pophale) SiO2 
 PCOD9478756
Probable space group: C M C A
;
_chemical_formula_sum "Si O2"
_cell_formula_units_Z 112
_cell_length_a 14.450322
_cell_length_b 14.627860
_cell_length_c 22.158917
_cell_angle_alpha 90.000000
_cell_angle_beta 90.000000
_cell_angle_gamma 90.000000
_cell_volume 4683.891762
_symmetry_space_group_name_H-M "C M C A"
_symmetry_group_IT_number 64
_symmetry_cell_setting 'orthorhombic'
loop_
_space_group_symop_operation_xyz
x,y,z
-x,1/2-y,1/2+z
x,-y,-z
-x,1/2+y,1/2-z
-x,-y,-z
x,1/2+y,1/2-z
-x,y,z
x,1/2-y,1/2+z
1/2+x,1/2+y,z
1/2-x,-y,1/2+z
1/2+x,1/2-y,-z
1/2-x,y,1/2-z
1/2-x,1/2-y,-z
1/2+x,y,1/2-z
1/2-x,1/2+y,z
1/2+x,-y,1/2+z
loop_
_atom_site_type_symbol
_atom_site_label
_atom_site_fract_x
_atom_site_fract_y
_atom_site_fract_z
Si Si1 0.901085 0.840949 0.368634
Si Si2 0.804678 0.146260 0.843503
Si Si3 0.107716 0.101135 0.971211
Si Si4 0.888638 0.159336 0.364338
Si Si5 0.396782 0.360782 0.900397
Si Si6 0.108686 0.600030 0.006570
Si Si7 0.241615 0.964158 0.815389
O O1 0.805920 0.864413 0.337851
O O2 0.905102 0.732173 0.364162
O O3 0.889298 0.860598 0.439774
O O4 0.000000 0.880217 0.348933
O O5 0.833393 0.120516 0.912185
O O6 0.844244 0.248180 0.834713
O O7 0.822431 0.056116 0.803676
O O8 0.000000 0.116898 0.954766
O O9 0.129122 0.160646 0.030333
O O10 0.117705 0.000000 0.000000
O O11 0.861259 0.159262 0.435935
O O12 0.844161 0.063559 0.341491
O O13 0.000000 0.163161 0.356897
O O14 0.500000 0.404058 0.902612
O O15 0.321085 0.418483 0.866767
O O16 0.000000 0.585661 0.021375
O O17 0.154608 0.500000 0.000000
O O18 0.250000 0.919375 0.750000
#
# Coordination Sequence:
#
# PCOD9478756 Si02
#       7
#    16  16  16  16  16  16  16
#     4  10  21  37  61  97 137 175 217 267 334 412
#     4  12  24  40  71 104 139 181 231 290 353 420
#     4  10  20  35  62 101 141 172 216 276 345 421
#     4  11  25  46  70 101 140 183 230 285 348 417
#     4  10  21  42  67  96 132 175 224 282 345 415
#     4   9  18  34  60  97 143 182 213 260 331 416
#     4  12  28  47  69  96 133 178 237 297 355 416
#
# _framework density 23.911739000000001
#
# number of rings (size 3 to 8) (size 9 to 14) (size 15 to 20)
#    0.000    1.429    2.857    2.143    2.000    7.429 
#    0.000    0.000    0.000    0.000    0.000    0.000 
#    0.000    0.000    0.000    0.000    0.000    0.000 
#
# Total GULP energy -311857.929129 kJ/mol
# GULP energy per Si atom -5568.891592 kJ/mol
# Density = 2.385732 g / cm^3
# Si number density = 23.911739 Si / 1000 Ang^3
#
#
#
# Elastic Constant Matrix: (Units=GPa)
#
#
# Indices 1 2 3 4 5 6 
#
# 1 104.6301 6.0096 21.3164 0.0000 0.0000 0.0000
# 2 6.0096 82.1298 -9.4546 0.0000 0.0000 0.0000
# 3 21.3164 -9.4546 32.2724 0.0000 0.0000 0.0000
# 4 0.0000 0.0000 0.0000 -10.3353 0.0000 0.0000
# 5 0.0000 0.0000 0.0000 0.0000 0.4635 0.0000
# 6 0.0000 0.0000 0.0000 0.0000 0.0000 -24.0307
#
#
#
# Elastic Compliance Matrix: (Units=1/GPa)
#
#
# Indices 1 2 3 4 5 6 
#
# 1 0.011279 -0.001742 -0.007960 0.000000 0.000000 0.000000
# 2 -0.001742 0.012870 0.004921 0.000000 0.000000 0.000000
# 3 -0.007960 0.004921 0.037686 0.000000 0.000000 0.000000
# 4 0.000000 0.000000 0.000000 -0.096756 0.000000 0.000000
# 5 0.000000 0.000000 0.000000 0.000000 2.157601 0.000000
# 6 0.000000 0.000000 0.000000 0.000000 0.000000 -0.041613
#
#
# Mechanical properties :
#
#
# Convention : Reuss Voigt Hill
#
# Bulk Modulus (GPa) = 19.13060 28.30833 23.71946
# Shear Modulus (GPa) = 2.37186 6.63023 4.50104
#
# Velocity S-wave (km/s) = 0.99703 1.66698 1.37348
# Velocity P-wave (km/s) = 3.05668 3.94582 3.52936
#
# Compressibility (1/GPa) = 0.05227229
#
# Stress axis : x y z
#
# Youngs Moduli (GPa) = 88.65802 77.70148 26.53516
#
# Poissons Ratio (x) = 0.13533 0.21123
# Poissons Ratio (y) = 0.15442 -0.13057
# Poissons Ratio (z) = 0.70575 -0.38235
#
# Static dielectric constant tensor:
#      x y z
#    x 2.033410 0.000000 0.000000 
#    y 0.000000 2.128080 0.000000 
#    z 0.000000 0.000000 1.715320 
# 
# From -- ./inp_files/45245.got.cif
#   From: 2010.05.17/outbox.cif.g08.bks.cpg/sg64_23_cif.got.tgz:45245.got - 2010.06.03 16:29:19.
