data_PCOD9478884
_publ_section_title
;
Structure prediction by ZEFSAII (Michael W. Deem and Ramdas Pophale) SiO2 
 PCOD9478884
Probable space group: C M C A
;
_chemical_formula_sum "Si O2"
_cell_formula_units_Z 96
_cell_length_a 8.708900
_cell_length_b 29.657242
_cell_length_c 20.905851
_cell_angle_alpha 90.000000
_cell_angle_beta 90.000000
_cell_angle_gamma 90.000000
_cell_volume 5399.604064
_symmetry_space_group_name_H-M "C M C A"
_symmetry_group_IT_number 64
_symmetry_cell_setting 'orthorhombic'
loop_
_space_group_symop_operation_xyz
x,y,z
-x,1/2-y,1/2+z
x,-y,-z
-x,1/2+y,1/2-z
-x,-y,-z
x,1/2+y,1/2-z
-x,y,z
x,1/2-y,1/2+z
1/2+x,1/2+y,z
1/2-x,-y,1/2+z
1/2+x,1/2-y,-z
1/2-x,y,1/2-z
1/2-x,1/2-y,-z
1/2+x,y,1/2-z
1/2-x,1/2+y,z
1/2+x,-y,1/2+z
loop_
_atom_site_type_symbol
_atom_site_label
_atom_site_fract_x
_atom_site_fract_y
_atom_site_fract_z
Si Si1 0.315471 0.722279 0.319851
Si Si2 0.315126 0.776798 0.061122
Si Si3 0.683912 0.969131 0.681364
Si Si4 0.684745 0.123472 0.979038
Si Si5 0.814782 0.470700 0.438525
Si Si6 0.685114 0.123528 0.128612
O O1 0.500000 0.724992 0.319665
O O2 0.250000 0.732745 0.250000
O O3 0.249729 0.754756 0.374583
O O4 0.271950 0.670945 0.339169
O O5 0.500000 0.773892 0.060371
O O6 0.270562 0.829179 0.052813
O O7 0.250000 0.750000 0.000000
O O8 0.500000 0.968910 0.683602
O O9 0.750000 0.981938 0.750000
O O10 0.741229 0.919268 0.662850
O O11 0.734169 0.003338 0.625465
O O12 0.500000 0.120685 0.977644
O O13 0.752835 0.079599 0.945559
O O14 0.731199 0.123972 0.053889
O O15 0.763942 0.500000 0.500000
O O16 0.000000 0.469369 0.439425
O O17 0.500000 0.119521 0.131580
#
# Coordination Sequence:
#
# PCOD9478884 Si02
#       6
#    16  16  16  16  16  16
#     4  11  23  40  59  87 122 158 198 241 293 353
#     4  11  22  39  61  88 119 155 198 244 291 347
#     4  11  23  38  57  84 118 153 192 236 287 346
#     4  10  21  37  59  89 118 147 191 240 285 341
#     4  10  21  38  58  84 115 149 192 237 283 340
#     4  10  20  36  58  87 121 151 188 236 289 347
#
# _framework density 17.779081000000001
#
# number of rings (size 3 to 8) (size 9 to 14) (size 15 to 20)
#    0.000    1.500    3.333    2.000    0.000    5.667 
#    0.000    0.833    0.000    2.000    0.000    0.000 
#    0.000    0.000    0.000    0.000    0.000    0.000 
#
# Total GULP energy -268230.880052 kJ/mol
# GULP energy per Si atom -5588.143334 kJ/mol
# Density = 1.773861 g / cm^3
# Si number density = 17.779081 Si / 1000 Ang^3
#
#
#
# Elastic Constant Matrix: (Units=GPa)
#
#
# Indices 1 2 3 4 5 6 
#
# 1 33.5685 41.3105 44.9240 0.0000 0.0000 0.0000
# 2 41.3105 158.9897 96.0207 0.0000 0.0000 0.0000
# 3 44.9240 96.0207 183.2946 0.0000 0.0000 0.0000
# 4 0.0000 0.0000 0.0000 21.7057 0.0000 0.0000
# 5 0.0000 0.0000 0.0000 0.0000 30.4771 0.0000
# 6 0.0000 0.0000 0.0000 0.0000 0.0000 30.8980
#
#
#
# Elastic Compliance Matrix: (Units=1/GPa)
#
#
# Indices 1 2 3 4 5 6 
#
# 1 0.050889 -0.008323 -0.008112 0.000000 0.000000 0.000000
# 2 -0.008323 0.010562 -0.003493 0.000000 0.000000 0.000000
# 3 -0.008112 -0.003493 0.009274 0.000000 0.000000 0.000000
# 4 0.000000 0.000000 0.000000 0.046071 0.000000 0.000000
# 5 0.000000 0.000000 0.000000 0.000000 0.032811 0.000000
# 6 0.000000 0.000000 0.000000 0.000000 0.000000 0.032365
#
#
# Mechanical properties :
#
#
# Convention : Reuss Voigt Hill
#
# Bulk Modulus (GPa) = 32.39615 82.26259 57.32937
# Shear Modulus (GPa) = 21.54073 29.52268 25.53171
#
# Velocity S-wave (km/s) = 3.48455 4.07938 3.79364
# Velocity P-wave (km/s) = 5.86945 8.27999 7.17665
#
# Compressibility (1/GPa) = 0.03086787
#
# Stress axis : x y z
#
# Youngs Moduli (GPa) = 19.65050 94.67954 107.83056
#
# Poissons Ratio (x) = 0.78804 0.87475
# Poissons Ratio (y) = 0.16356 0.37665
# Poissons Ratio (z) = 0.15941 0.33072
#
# Static dielectric constant tensor:
#      x y z
#    x 1.601610 0.000000 0.000000 
#    y 0.000000 1.579630 0.000000 
#    z 0.000000 0.000000 1.590680 
# 
# From -- ./inp_files/37093.got.cif
#   From: 2010.05.17/outbox.cif.g08.bks.cpg/sg64_19_cif.got.tgz:37093.got - 2010.06.03 16:29:19.
