data_PCOD9478444
_publ_section_title
;
Structure prediction by ZEFSAII (Michael W. Deem and Ramdas Pophale) SiO2 
 PCOD9478444
Probable space group: C M C A
;
_chemical_formula_sum "Si O2"
_cell_formula_units_Z 88
_cell_length_a 12.719575
_cell_length_b 12.459010
_cell_length_c 31.057586
_cell_angle_alpha 90.000000
_cell_angle_beta 90.000000
_cell_angle_gamma 90.000000
_cell_volume 4921.798520
_symmetry_space_group_name_H-M "C M C A"
_symmetry_group_IT_number 64
_symmetry_cell_setting 'orthorhombic'
loop_
_space_group_symop_operation_xyz
x,y,z
-x,1/2-y,1/2+z
x,-y,-z
-x,1/2+y,1/2-z
-x,-y,-z
x,1/2+y,1/2-z
-x,y,z
x,1/2-y,1/2+z
1/2+x,1/2+y,z
1/2-x,-y,1/2+z
1/2+x,1/2-y,-z
1/2-x,y,1/2-z
1/2-x,1/2-y,-z
1/2+x,y,1/2-z
1/2-x,1/2+y,z
1/2+x,-y,1/2+z
loop_
_atom_site_type_symbol
_atom_site_label
_atom_site_fract_x
_atom_site_fract_y
_atom_site_fract_z
Si Si1 0.121460 0.836228 0.473043
Si Si2 0.250000 0.052209 0.750000
Si Si3 0.874068 0.326586 0.324864
Si Si4 0.242767 0.047618 0.604609
Si Si5 0.810401 0.594970 0.469305
Si Si6 0.624011 0.925530 0.821325
O O1 0.179665 0.882333 0.430639
O O2 0.129450 0.706945 0.472192
O O3 0.192653 0.878001 0.512787
O O4 0.000000 0.869215 0.475421
O O5 0.178820 0.122752 0.782262
O O6 0.320882 0.977537 0.780152
O O7 0.821717 0.382316 0.366492
O O8 0.850594 0.200009 0.325773
O O9 0.000000 0.342006 0.324501
O O10 0.302823 0.955795 0.577717
O O11 0.163834 0.990075 0.637241
O O12 0.852688 0.500000 0.500000
O O13 0.500000 0.936096 0.817061
#
# Coordination Sequence:
#
# PCOD9478444 Si02
#       6
#    16   8  16  16  16  16
#     4  10  20  35  55  77 103 138 178 218 262 311
#     4  10  20  36  56  78 106 136 172 214 256 308
#     4  10  21  36  55  79 107 139 173 212 260 311
#     4  10  20  35  53  77 107 137 173 216 259 309
#     4   9  20  36  52  76 107 137 174 219 263 309
#     4  10  20  34  54  78 104 136 172 212 258 307
#
# _framework density 17.879643000000002
#
# number of rings (size 3 to 8) (size 9 to 14) (size 15 to 20)
#    0.000    2.182    0.000    2.727    0.000    5.091 
#    0.000   10.909    0.000   12.000    0.000    0.000 
#    0.000    0.000    0.000    0.000    0.000    0.000 
#
# Total GULP energy -245602.876526 kJ/mol
# GULP energy per Si atom -5581.883557 kJ/mol
# Density = 1.783895 g / cm^3
# Si number density = 17.879643 Si / 1000 Ang^3
#
#
#
# Elastic Constant Matrix: (Units=GPa)
#
#
# Indices 1 2 3 4 5 6 
#
# 1 78.5366 38.6304 28.3356 0.0000 0.0000 0.0000
# 2 38.6304 116.2797 33.4172 0.0000 0.0000 0.0000
# 3 28.3356 33.4172 87.7834 0.0000 0.0000 0.0000
# 4 0.0000 0.0000 0.0000 17.9864 0.0000 0.0000
# 5 0.0000 0.0000 0.0000 0.0000 10.7479 0.0000
# 6 0.0000 0.0000 0.0000 0.0000 0.0000 21.6988
#
#
#
# Elastic Compliance Matrix: (Units=1/GPa)
#
#
# Indices 1 2 3 4 5 6 
#
# 1 0.016154 -0.004343 -0.003561 0.000000 0.000000 0.000000
# 2 -0.004343 0.010824 -0.002719 0.000000 0.000000 0.000000
# 3 -0.003561 -0.002719 0.013576 0.000000 0.000000 0.000000
# 4 0.000000 0.000000 0.000000 0.055598 0.000000 0.000000
# 5 0.000000 0.000000 0.000000 0.000000 0.093042 0.000000
# 6 0.000000 0.000000 0.000000 0.000000 0.000000 0.046085
#
#
# Mechanical properties :
#
#
# Convention : Reuss Voigt Hill
#
# Bulk Modulus (GPa) = 51.79044 53.70736 52.74890
# Shear Modulus (GPa) = 19.01424 22.23439 20.62431
#
# Velocity S-wave (km/s) = 3.26461 3.53024 3.40002
# Velocity P-wave (km/s) = 6.57566 6.83522 6.70669
#
# Compressibility (1/GPa) = 0.01930858
#
# Stress axis : x y z
#
# Youngs Moduli (GPa) = 61.90390 92.38588 73.65938
#
# Poissons Ratio (x) = 0.40126 0.26230
# Poissons Ratio (y) = 0.26887 0.20025
# Poissons Ratio (z) = 0.22044 0.25115
#
# Static dielectric constant tensor:
#      x y z
#    x 1.594040 0.000000 0.000000 
#    y 0.000000 1.606800 0.000000 
#    z 0.000000 0.000000 1.576840 
# 
# From -- ./inp_files/52642.got.cif
#   From: 2010.05.17/outbox.cif.g08.bks.cpg/sg64_27_cif.got.tgz:52642.got - 2010.06.03 16:29:19.
