data_PCOD9478030
_publ_section_title
;
Structure prediction by ZEFSAII (Michael W. Deem and Ramdas Pophale) SiO2 
 PCOD9478030
Probable space group: C M C A
;
_chemical_formula_sum "Si O2"
_cell_formula_units_Z 112
_cell_length_a 25.197869
_cell_length_b 20.725947
_cell_length_c 11.024609
_cell_angle_alpha 90.000000
_cell_angle_beta 90.000000
_cell_angle_gamma 90.000000
_cell_volume 5757.598714
_symmetry_space_group_name_H-M "C M C A"
_symmetry_group_IT_number 64
_symmetry_cell_setting 'orthorhombic'
loop_
_space_group_symop_operation_xyz
x,y,z
-x,1/2-y,1/2+z
x,-y,-z
-x,1/2+y,1/2-z
-x,-y,-z
x,1/2+y,1/2-z
-x,y,z
x,1/2-y,1/2+z
1/2+x,1/2+y,z
1/2-x,-y,1/2+z
1/2+x,1/2-y,-z
1/2-x,y,1/2-z
1/2-x,1/2-y,-z
1/2+x,y,1/2-z
1/2-x,1/2+y,z
1/2+x,-y,1/2+z
loop_
_atom_site_type_symbol
_atom_site_label
_atom_site_fract_x
_atom_site_fract_y
_atom_site_fract_z
Si Si1 0.844803 0.785642 0.046994
Si Si2 0.715460 0.126407 0.369944
Si Si3 0.612617 0.402234 0.744791
Si Si4 0.317969 0.145889 0.030018
Si Si5 0.623015 0.849007 0.216189
Si Si6 0.437021 0.224482 0.368415
Si Si7 0.437819 0.977560 0.138133
O O1 0.817542 0.718761 0.084576
O O2 0.849575 0.837128 0.154572
O O3 0.811370 0.812956 0.934664
O O4 0.903919 0.773780 0.994286
O O5 0.750000 0.139672 0.250000
O O6 0.664608 0.084783 0.329081
O O7 0.763030 0.107035 0.459621
O O8 0.637407 0.387071 0.612706
O O9 0.582537 0.339506 0.796822
O O10 0.574884 0.462681 0.726429
O O11 0.334744 0.155303 0.892303
O O12 0.582644 0.788815 0.200145
O O13 0.593656 0.916052 0.189276
O O14 0.500000 0.223867 0.384658
O O15 0.500000 0.962187 0.136388
O O16 0.423858 0.000000 0.000000
#
# Coordination Sequence:
#
# PCOD9478030 Si02
#       7
#    16  16  16  16  16  16  16
#     4  10  21  37  58  94 124 152 205 262 305 365
#     4   9  20  36  63  85 117 163 202 247 311 370
#     4  10  19  40  61  86 119 161 202 252 300 367
#     4  10  19  36  60  88 120 162 198 252 308 361
#     4  11  22  38  60  90 129 157 203 260 302 363
#     4  10  21  37  59  88 124 164 204 252 310 361
#     4  11  23  39  62  90 125 168 205 247 308 369
#
# _framework density 19.452555
#
# number of rings (size 3 to 8) (size 9 to 14) (size 15 to 20)
#    0.000    1.857    2.857    1.286    2.000    1.714 
#    0.000    2.857   15.714    4.286    0.000    0.000 
#    0.000    0.000    0.000    0.000    0.000    0.000 
#
# Total GULP energy -311980.746711 kJ/mol
# GULP energy per Si atom -5571.084763 kJ/mol
# Density = 1.940828 g / cm^3
# Si number density = 19.452555 Si / 1000 Ang^3
#
#
#
# Elastic Constant Matrix: (Units=GPa)
#
#
# Indices 1 2 3 4 5 6 
#
# 1 68.1528 -7.7769 17.6266 0.0000 0.0000 0.0000
# 2 -7.7769 77.2447 10.0331 0.0000 0.0000 0.0000
# 3 17.6266 10.0331 34.0271 0.0000 0.0000 0.0000
# 4 0.0000 0.0000 0.0000 25.7291 0.0000 0.0000
# 5 0.0000 0.0000 0.0000 0.0000 17.2604 0.0000
# 6 0.0000 0.0000 0.0000 0.0000 0.0000 12.3619
#
#
#
# Elastic Compliance Matrix: (Units=1/GPa)
#
#
# Indices 1 2 3 4 5 6 
#
# 1 0.017619 0.003077 -0.010034 0.000000 0.000000 0.000000
# 2 0.003077 0.013999 -0.005722 0.000000 0.000000 0.000000
# 3 -0.010034 -0.005722 0.036273 0.000000 0.000000 0.000000
# 4 0.000000 0.000000 0.000000 0.038867 0.000000 0.000000
# 5 0.000000 0.000000 0.000000 0.000000 0.057936 0.000000
# 6 0.000000 0.000000 0.000000 0.000000 0.000000 0.080894
#
#
# Mechanical properties :
#
#
# Convention : Reuss Voigt Hill
#
# Bulk Modulus (GPa) = 23.51072 24.35446 23.93259
# Shear Modulus (GPa) = 17.53626 21.70640 19.62133
#
# Velocity S-wave (km/s) = 3.00574 3.34408 3.17941
# Velocity P-wave (km/s) = 4.91512 5.24000 5.08016
#
# Compressibility (1/GPa) = 0.04253378
#
# Stress axis : x y z
#
# Youngs Moduli (GPa) = 56.75605 71.43448 27.56845
#
# Poissons Ratio (x) = -0.21982 0.27663
# Poissons Ratio (y) = -0.17465 0.15774
# Poissons Ratio (z) = 0.56951 0.40872
#
# Static dielectric constant tensor:
#      x y z
#    x 1.711100 0.000000 0.000000 
#    y 0.000000 1.667860 0.000000 
#    z 0.000000 0.000000 1.722870 
# 
# From -- ./inp_files/19317.got.cif
#   From: 2010.05.17/outbox.cif.g08.bks.cpg/sg64_10_cif.got.tgz:19317.got - 2010.06.03 16:29:19.
