data_PCOD9478981
_publ_section_title
;
Structure prediction by ZEFSAII (Michael W. Deem and Ramdas Pophale) SiO2 
 PCOD9478981
Probable space group: C M C A
;
_chemical_formula_sum "Si O2"
_cell_formula_units_Z 116
_cell_length_a 14.872167
_cell_length_b 23.278263
_cell_length_c 17.650642
_cell_angle_alpha 90.000000
_cell_angle_beta 90.000000
_cell_angle_gamma 90.000000
_cell_volume 6110.620751
_symmetry_space_group_name_H-M "C M C A"
_symmetry_group_IT_number 64
_symmetry_cell_setting 'orthorhombic'
loop_
_space_group_symop_operation_xyz
x,y,z
-x,1/2-y,1/2+z
x,-y,-z
-x,1/2+y,1/2-z
-x,-y,-z
x,1/2+y,1/2-z
-x,y,z
x,1/2-y,1/2+z
1/2+x,1/2+y,z
1/2-x,-y,1/2+z
1/2+x,1/2-y,-z
1/2-x,y,1/2-z
1/2-x,1/2-y,-z
1/2+x,y,1/2-z
1/2-x,1/2+y,z
1/2+x,-y,1/2+z
loop_
_atom_site_type_symbol
_atom_site_label
_atom_site_fract_x
_atom_site_fract_y
_atom_site_fract_z
Si Si1 0.103962 0.270864 0.869852
Si Si2 0.257311 0.348632 0.920922
Si Si3 0.325672 0.024168 0.104252
Si Si4 0.601502 0.536234 0.237125
Si Si5 0.145782 0.024359 0.919077
Si Si6 0.000000 0.000000 0.500000
Si Si7 0.897026 0.171046 0.211201
Si Si8 0.898615 0.150402 0.943353
O O1 0.172243 0.306379 0.922004
O O2 0.121599 0.288431 0.782905
O O3 0.113157 0.203549 0.886683
O O4 0.000000 0.287262 0.885285
O O5 0.219105 0.412884 0.907730
O O6 0.321811 0.327229 0.852926
O O7 0.321242 0.347686 0.993703
O O8 0.338195 0.014906 0.194104
O O9 0.253894 0.977096 0.076571
O O10 0.419675 0.018828 0.060964
O O11 0.500000 0.517928 0.253362
O O12 0.622407 0.515448 0.152337
O O13 0.605694 0.605247 0.239704
O O14 0.109451 0.087849 0.906311
O O15 0.112034 0.000000 0.000000
O O16 0.000000 0.181867 0.184479
O O17 0.000000 0.155349 0.976327
#
# Coordination Sequence:
#
# PCOD9478981 Si02
#       8
#    16  16  16  16  16   4  16  16
#     4  10  23  39  62  93 126 171 217 263 329 392
#     4  12  21  39  66  96 129 165 225 276 327 388
#     4  12  23  40  61  96 129 170 223 274 327 401
#     4  11  22  37  62  93 127 170 215 272 331 387
#     4  12  23  41  64  98 133 169 220 277 333 399
#     4  12  24  40  60  88 140 176 212 260 354 400
#     4  10  20  36  62  97 126 159 211 278 334 378
#     4  11  24  43  62  92 133 175 213 269 338 402
#
# _framework density 18.983340999999999
#
# number of rings (size 3 to 8) (size 9 to 14) (size 15 to 20)
#    0.000    0.828    5.517    2.069    0.966    2.207 
#    0.000    2.759    0.000    0.000    3.586    0.000 
#    0.000    0.000    0.000    0.000    0.000    0.000 
#
# Total GULP energy -323358.621568 kJ/mol
# GULP energy per Si atom -5575.148648 kJ/mol
# Density = 1.894013 g / cm^3
# Si number density = 18.983341 Si / 1000 Ang^3
#
#
#
# Elastic Constant Matrix: (Units=GPa)
#
#
# Indices 1 2 3 4 5 6 
#
# 1 113.5911 40.4924 45.3043 0.0000 0.0000 0.0000
# 2 40.4924 93.3770 45.0837 0.0000 0.0000 0.0000
# 3 45.3043 45.0837 120.1292 0.0000 0.0000 0.0000
# 4 0.0000 0.0000 0.0000 21.0922 0.0000 0.0000
# 5 0.0000 0.0000 0.0000 0.0000 37.2629 0.0000
# 6 0.0000 0.0000 0.0000 0.0000 0.0000 25.0237
#
#
#
# Elastic Compliance Matrix: (Units=1/GPa)
#
#
# Indices 1 2 3 4 5 6 
#
# 1 0.011200 -0.003441 -0.002932 0.000000 0.000000 0.000000
# 2 -0.003441 0.014136 -0.004008 0.000000 0.000000 0.000000
# 3 -0.002932 -0.004008 0.010934 0.000000 0.000000 0.000000
# 4 0.000000 0.000000 0.000000 0.047411 0.000000 0.000000
# 5 0.000000 0.000000 0.000000 0.000000 0.026836 0.000000
# 6 0.000000 0.000000 0.000000 0.000000 0.000000 0.039962
#
#
# Mechanical properties :
#
#
# Convention : Reuss Voigt Hill
#
# Bulk Modulus (GPa) = 64.48069 65.42868 64.95469
# Shear Modulus (GPa) = 28.34295 29.75690 29.04993
#
# Velocity S-wave (km/s) = 3.86818 3.96350 3.91613
# Velocity P-wave (km/s) = 7.34787 7.44895 7.39858
#
# Compressibility (1/GPa) = 0.01550852
#
# Stress axis : x y z
#
# Youngs Moduli (GPa) = 89.28868 70.73979 91.45539
#
# Poissons Ratio (x) = 0.24341 0.26818
# Poissons Ratio (y) = 0.30723 0.36652
# Poissons Ratio (z) = 0.26183 0.28350
#
# Static dielectric constant tensor:
#      x y z
#    x 1.708150 0.000000 0.000000 
#    y 0.000000 1.638010 0.000000 
#    z 0.000000 0.000000 1.684200 
# 
# From -- ./inp_files/32527.got.cif
#   From: 2010.05.17/outbox.cif.g08.bks.cpg/sg64_17_cif.got.tgz:32527.got - 2010.06.03 16:29:19.
