data_PCOD9478494
_publ_section_title
;
Structure prediction by ZEFSAII (Michael W. Deem and Ramdas Pophale) SiO2 
 PCOD9478494
Probable space group: C M C A
;
_chemical_formula_sum "Si O2"
_cell_formula_units_Z 116
_cell_length_a 7.632360
_cell_length_b 30.469557
_cell_length_c 24.561806
_cell_angle_alpha 90.000000
_cell_angle_beta 90.000000
_cell_angle_gamma 90.000000
_cell_volume 5711.961659
_symmetry_space_group_name_H-M "C M C A"
_symmetry_group_IT_number 64
_symmetry_cell_setting 'orthorhombic'
loop_
_space_group_symop_operation_xyz
x,y,z
-x,1/2-y,1/2+z
x,-y,-z
-x,1/2+y,1/2-z
-x,-y,-z
x,1/2+y,1/2-z
-x,y,z
x,1/2-y,1/2+z
1/2+x,1/2+y,z
1/2-x,-y,1/2+z
1/2+x,1/2-y,-z
1/2-x,y,1/2-z
1/2-x,1/2-y,-z
1/2+x,y,1/2-z
1/2-x,1/2+y,z
1/2+x,-y,1/2+z
loop_
_atom_site_type_symbol
_atom_site_label
_atom_site_fract_x
_atom_site_fract_y
_atom_site_fract_z
Si Si1 0.789154 0.807214 0.130924
Si Si2 0.301546 0.507237 0.686303
Si Si3 0.708930 0.104553 0.686702
Si Si4 0.709693 0.199450 0.509364
Si Si5 0.785984 0.145153 0.095605
Si Si6 0.500000 0.500000 0.000000
Si Si7 0.209477 0.956578 0.581403
Si Si8 0.793030 0.286423 0.686025
O O1 0.723623 0.850677 0.160890
O O2 0.720911 0.809943 0.069486
O O3 0.752859 0.761178 0.160651
O O4 0.000000 0.810237 0.129422
O O5 0.500000 0.492710 0.686895
O O6 0.250000 0.504335 0.750000
O O7 0.285522 0.558080 0.668466
O O8 0.221526 0.478964 0.637773
O O9 0.500000 0.101412 0.678601
O O10 0.750000 0.107544 0.750000
O O11 0.500000 0.193552 0.510824
O O12 0.750000 0.250000 0.500000
O O13 0.772855 0.170784 0.458903
O O14 0.721699 0.095574 0.091223
O O15 0.724147 0.174111 0.147583
O O16 0.000000 0.144193 0.096461
O O17 0.657288 0.526968 0.034534
O O18 0.000000 0.967536 0.571730
O O19 0.750000 0.289092 0.750000
O O20 0.000000 0.289499 0.682163
#
# Coordination Sequence:
#
# PCOD9478494 Si02
#       8
#    16  16  16  16  16   4  16  16
#     4  10  21  36  57  87 122 164 212 262 317 384
#     4  10  22  40  66  98 131 168 223 280 339 415
#     4  10  20  34  55  87 122 165 210 261 326 392
#     4  10  20  37  60  88 122 165 213 258 318 380
#     4  10  22  42  64  93 130 174 216 269 335 396
#     4  12  26  48  76  94 148 180 214 294 336 402
#     4  11  26  46  72 106 135 181 230 277 349 418
#     4  11  23  38  60  90 127 171 219 267 328 391
#
# _framework density 20.308261000000002
#
# number of rings (size 3 to 8) (size 9 to 14) (size 15 to 20)
#    0.000    1.655    2.069    2.690    1.931    5.517 
#    2.483    2.759    0.000    0.000    0.000    0.000 
#    0.000    0.000    0.000    0.000    0.000    0.000 
#
# Total GULP energy -322920.177172 kJ/mol
# GULP energy per Si atom -5567.589262 kJ/mol
# Density = 2.026204 g / cm^3
# Si number density = 20.308261 Si / 1000 Ang^3
#
#
#
# Elastic Constant Matrix: (Units=GPa)
#
#
# Indices 1 2 3 4 5 6 
#
# 1 70.3049 1.7129 17.0190 0.0000 0.0000 0.0000
# 2 1.7129 163.8676 105.5008 0.0000 0.0000 0.0000
# 3 17.0190 105.5008 139.4339 0.0000 0.0000 0.0000
# 4 0.0000 0.0000 0.0000 35.2366 0.0000 0.0000
# 5 0.0000 0.0000 0.0000 0.0000 3.1673 0.0000
# 6 0.0000 0.0000 0.0000 0.0000 0.0000 22.1191
#
#
#
# Elastic Compliance Matrix: (Units=1/GPa)
#
#
# Indices 1 2 3 4 5 6 
#
# 1 0.014983 0.001990 -0.003335 0.000000 0.000000 0.000000
# 2 0.001990 0.012163 -0.009446 0.000000 0.000000 0.000000
# 3 -0.003335 -0.009446 0.014726 0.000000 0.000000 0.000000
# 4 0.000000 0.000000 0.000000 0.028380 0.000000 0.000000
# 5 0.000000 0.000000 0.000000 0.000000 0.315724 0.000000
# 6 0.000000 0.000000 0.000000 0.000000 0.000000 0.045210
#
#
# Mechanical properties :
#
#
# Convention : Reuss Voigt Hill
#
# Bulk Modulus (GPa) = 49.28300 69.11910 59.20105
# Shear Modulus (GPa) = 10.88070 28.72953 19.80511
#
# Velocity S-wave (km/s) = 2.31720 3.76529 3.12625
# Velocity P-wave (km/s) = 5.61065 7.28094 6.49967
#
# Compressibility (1/GPa) = 0.02029097
#
# Stress axis : x y z
#
# Youngs Moduli (GPa) = 66.74452 82.21508 67.90660
#
# Poissons Ratio (x) = -0.16363 0.22645
# Poissons Ratio (y) = -0.13284 0.64145
# Poissons Ratio (z) = 0.22257 0.77661
#
# Static dielectric constant tensor:
#      x y z
#    x 1.757380 0.000000 0.000000 
#    y 0.000000 1.718460 0.000000 
#    z 0.000000 0.000000 1.663990 
# 
# From -- ./inp_files/43400.got.cif
#   From: 2010.05.17/outbox.cif.g08.bks.cpg/sg64_22_cif.got.tgz:43400.got - 2010.06.03 16:29:19.
