data_PCOD9478463
_publ_section_title
;
Structure prediction by ZEFSAII (Michael W. Deem and Ramdas Pophale) SiO2 
 PCOD9478463
Probable space group: C M C A
;
_chemical_formula_sum "Si O2"
_cell_formula_units_Z 80
_cell_length_a 8.825822
_cell_length_b 28.079730
_cell_length_c 18.250971
_cell_angle_alpha 90.000000
_cell_angle_beta 90.000000
_cell_angle_gamma 90.000000
_cell_volume 4523.077893
_symmetry_space_group_name_H-M "C M C A"
_symmetry_group_IT_number 64
_symmetry_cell_setting 'orthorhombic'
loop_
_space_group_symop_operation_xyz
x,y,z
-x,1/2-y,1/2+z
x,-y,-z
-x,1/2+y,1/2-z
-x,-y,-z
x,1/2+y,1/2-z
-x,y,z
x,1/2-y,1/2+z
1/2+x,1/2+y,z
1/2-x,-y,1/2+z
1/2+x,1/2-y,-z
1/2-x,y,1/2-z
1/2-x,1/2-y,-z
1/2+x,y,1/2-z
1/2-x,1/2+y,z
1/2+x,-y,1/2+z
loop_
_atom_site_type_symbol
_atom_site_label
_atom_site_fract_x
_atom_site_fract_y
_atom_site_fract_z
Si Si1 0.180768 0.039788 0.330931
Si Si2 0.319242 0.105023 0.452561
Si Si3 0.680354 0.652144 0.674559
Si Si4 0.680707 0.557422 0.891617
Si Si5 0.680740 0.300720 0.480143
O O1 0.250000 0.043364 0.250000
O O2 0.240086 0.082060 0.382637
O O3 0.000000 0.039750 0.327167
O O4 0.239005 0.990725 0.367219
O O5 0.500000 0.107088 0.442349
O O6 0.289711 0.071588 0.523794
O O7 0.255180 0.156803 0.472996
O O8 0.500000 0.645795 0.681378
O O9 0.750000 0.670599 0.750000
O O10 0.757161 0.601528 0.655770
O O11 0.710160 0.685817 0.604867
O O12 0.500000 0.552742 0.881926
O O13 0.500000 0.300774 0.491179
O O14 0.750000 0.250000 0.500000
#
# Coordination Sequence:
#
# PCOD9478463 Si02
#       5
#    16  16  16  16  16
#     4  12  24  37  54  78 112 150 187 226 268 319
#     4  10  21  38  59  82 109 142 182 226 273 327
#     4  10  20  34  54  82 113 142 177 223 273 323
#     4  10  20  35  56  81 111 146 182 222 269 322
#     4  10  21  38  60  84 109 141 182 227 276 329
#
# _framework density 17.687071
#
# number of rings (size 3 to 8) (size 9 to 14) (size 15 to 20)
#    0.000    1.600    0.000    5.400    0.000    7.200 
#    0.000    1.000    0.000    2.400    0.000    0.000 
#    0.000    0.000    0.000    0.000    0.000    0.000 
#
# Total GULP energy -223597.766240 kJ/mol
# GULP energy per Si atom -5589.944156 kJ/mol
# Density = 1.764681 g / cm^3
# Si number density = 17.687071 Si / 1000 Ang^3
#
#
#
# Elastic Constant Matrix: (Units=GPa)
#
#
# Indices 1 2 3 4 5 6 
#
# 1 123.7497 83.3801 80.2497 0.0000 0.0000 0.0000
# 2 83.3801 138.9240 94.8454 0.0000 0.0000 0.0000
# 3 80.2497 94.8454 102.0280 0.0000 0.0000 0.0000
# 4 0.0000 0.0000 0.0000 10.6222 0.0000 0.0000
# 5 0.0000 0.0000 0.0000 0.0000 32.3618 0.0000
# 6 0.0000 0.0000 0.0000 0.0000 0.0000 34.7504
#
#
#
# Elastic Compliance Matrix: (Units=1/GPa)
#
#
# Indices 1 2 3 4 5 6 
#
# 1 0.016917 -0.002926 -0.010586 0.000000 0.000000 0.000000
# 2 -0.002926 0.020209 -0.016484 0.000000 0.000000 0.000000
# 3 -0.010586 -0.016484 0.033451 0.000000 0.000000 0.000000
# 4 0.000000 0.000000 0.000000 0.094143 0.000000 0.000000
# 5 0.000000 0.000000 0.000000 0.000000 0.030901 0.000000
# 6 0.000000 0.000000 0.000000 0.000000 0.000000 0.028777
#
#
# Mechanical properties :
#
#
# Convention : Reuss Voigt Hill
#
# Bulk Modulus (GPa) = 94.48013 97.96132 96.22073
# Shear Modulus (GPa) = 17.36607 22.62864 19.99735
#
# Velocity S-wave (km/s) = 3.13685 3.58073 3.36612
# Velocity P-wave (km/s) = 8.16415 8.52066 8.34431
#
# Compressibility (1/GPa) = 0.01058424
#
# Stress axis : x y z
#
# Youngs Moduli (GPa) = 59.11096 49.48410 29.89432
#
# Poissons Ratio (x) = 0.14481 0.31646
# Poissons Ratio (y) = 0.17298 0.49278
# Poissons Ratio (z) = 0.62574 0.81570
#
# Static dielectric constant tensor:
#      x y z
#    x 1.585460 0.000000 0.000000 
#    y 0.000000 1.563910 0.000000 
#    z 0.000000 0.000000 1.603380 
# 
# From -- ./inp_files/29704.got.cif
#   From: 2010.05.17/outbox.cif.g08.bks.cpg/sg64_15_cif.got.tgz:29704.got - 2010.06.03 16:29:19.
