data_PCOD9478408
_publ_section_title
;
Structure prediction by ZEFSAII (Michael W. Deem and Ramdas Pophale) SiO2 
 PCOD9478408
Probable space group: C M C A
;
_chemical_formula_sum "Si O2"
_cell_formula_units_Z 56
_cell_length_a 9.891676
_cell_length_b 26.696282
_cell_length_c 11.002412
_cell_angle_alpha 90.000000
_cell_angle_beta 90.000000
_cell_angle_gamma 90.000000
_cell_volume 2905.417631
_symmetry_space_group_name_H-M "C M C A"
_symmetry_group_IT_number 64
_symmetry_cell_setting 'orthorhombic'
loop_
_space_group_symop_operation_xyz
x,y,z
-x,1/2-y,1/2+z
x,-y,-z
-x,1/2+y,1/2-z
-x,-y,-z
x,1/2+y,1/2-z
-x,y,z
x,1/2-y,1/2+z
1/2+x,1/2+y,z
1/2-x,-y,1/2+z
1/2+x,1/2-y,-z
1/2-x,y,1/2-z
1/2-x,1/2-y,-z
1/2+x,y,1/2-z
1/2-x,1/2+y,z
1/2+x,-y,1/2+z
loop_
_atom_site_type_symbol
_atom_site_label
_atom_site_fract_x
_atom_site_fract_y
_atom_site_fract_z
Si Si1 0.853538 0.687065 0.574029
Si Si2 0.844790 0.696931 0.139698
Si Si3 0.656588 0.990230 0.139170
Si Si4 0.750000 0.107634 0.750000
O O1 0.844211 0.742172 0.633067
O O2 0.729013 0.680577 0.483379
O O3 0.844466 0.644016 0.673251
O O4 0.000000 0.685445 0.509796
O O5 0.750000 0.680760 0.250000
O O6 0.000000 0.680612 0.149080
O O7 0.500000 0.005985 0.151192
O O8 0.750000 0.011543 0.250000
O O9 0.669526 0.930619 0.163448
O O10 0.701313 0.000000 0.000000
#
# Coordination Sequence:
#
# PCOD9478408 Si02
#       4
#    16  16  16   8
#     4  10  20  34  54  81 111 149 194 234 279 334
#     4  10  20  34  52  77 113 152 190 237 284 329
#     4   9  20  38  61  90 120 150 188 237 295 354
#     4  10  20  36  62  86 112 148 186 238 276 348
#
# _framework density 19.274336999999999
#
# number of rings (size 3 to 8) (size 9 to 14) (size 15 to 20)
#    0.857    1.429    1.429    1.714    0.000    4.000 
#    0.000    1.429    0.000    3.429    0.000    0.000 
#    0.000    0.000    0.000    0.000    0.000    0.000 
#
# Total GULP energy -155887.910684 kJ/mol
# GULP energy per Si atom -5567.425382 kJ/mol
# Density = 1.923047 g / cm^3
# Si number density = 19.274337 Si / 1000 Ang^3
#
#
#
# Elastic Constant Matrix: (Units=GPa)
#
#
# Indices 1 2 3 4 5 6 
#
# 1 150.2831 -0.1562 62.0018 0.0000 0.0000 0.0000
# 2 -0.1562 38.2413 26.7456 0.0000 0.0000 0.0000
# 3 62.0018 26.7456 112.1463 0.0000 0.0000 0.0000
# 4 0.0000 0.0000 0.0000 30.3113 0.0000 0.0000
# 5 0.0000 0.0000 0.0000 0.0000 35.6386 0.0000
# 6 0.0000 0.0000 0.0000 0.0000 0.0000 -57.9067
#
#
#
# Elastic Compliance Matrix: (Units=1/GPa)
#
#
# Indices 1 2 3 4 5 6 
#
# 1 0.009175 0.004303 -0.006098 0.000000 0.000000 0.000000
# 2 0.004303 0.033402 -0.010345 0.000000 0.000000 0.000000
# 3 -0.006098 -0.010345 0.014756 0.000000 0.000000 0.000000
# 4 0.000000 0.000000 0.000000 0.032991 0.000000 0.000000
# 5 0.000000 0.000000 0.000000 0.000000 0.028059 0.000000
# 6 0.000000 0.000000 0.000000 0.000000 0.000000 -0.017269
#
#
# Mechanical properties :
#
#
# Convention : Reuss Voigt Hill
#
# Bulk Modulus (GPa) = 30.25590 53.09479 41.67535
# Shear Modulus (GPa) = 36.65353 15.74729 26.20041
#
# Velocity S-wave (km/s) = 4.36555 2.86144 3.69092
# Velocity P-wave (km/s) = 6.41423 6.20675 6.31134
#
# Compressibility (1/GPa) = 0.03305140
#
# Stress axis : x y z
#
# Youngs Moduli (GPa) = 108.99654 29.93790 67.77045
#
# Poissons Ratio (x) = -0.12881 0.41330
# Poissons Ratio (y) = -0.46898 0.70108
# Poissons Ratio (z) = 0.66471 0.30971
#
# Static dielectric constant tensor:
#      x y z
#    x 1.696380 0.000000 0.000000 
#    y 0.000000 1.657850 0.000000 
#    z 0.000000 0.000000 1.705770 
# 
# From -- ./inp_files/11955.got.cif
#   From: 2010.05.17/outbox.cif.g08.bks.cpg/sg64_6_cif.got.tgz:11955.got - 2010.06.03 16:29:19.
