data_PCOD9478482
_publ_section_title
;
Structure prediction by ZEFSAII (Michael W. Deem and Ramdas Pophale) SiO2 
 PCOD9478482
Probable space group: C M C A
;
_chemical_formula_sum "Si O2"
_cell_formula_units_Z 96
_cell_length_a 9.296531
_cell_length_b 19.658798
_cell_length_c 23.628895
_cell_angle_alpha 90.000000
_cell_angle_beta 90.000000
_cell_angle_gamma 90.000000
_cell_volume 4318.384361
_symmetry_space_group_name_H-M "C M C A"
_symmetry_group_IT_number 64
_symmetry_cell_setting 'orthorhombic'
loop_
_space_group_symop_operation_xyz
x,y,z
-x,1/2-y,1/2+z
x,-y,-z
-x,1/2+y,1/2-z
-x,-y,-z
x,1/2+y,1/2-z
-x,y,z
x,1/2-y,1/2+z
1/2+x,1/2+y,z
1/2-x,-y,1/2+z
1/2+x,1/2-y,-z
1/2-x,y,1/2-z
1/2-x,1/2-y,-z
1/2+x,y,1/2-z
1/2-x,1/2+y,z
1/2+x,-y,1/2+z
loop_
_atom_site_type_symbol
_atom_site_label
_atom_site_fract_x
_atom_site_fract_y
_atom_site_fract_z
Si Si1 0.836249 0.309707 0.698989
Si Si2 0.665242 0.438526 0.653090
Si Si3 0.670979 0.128485 0.576783
Si Si4 0.167353 0.416974 0.543015
Si Si5 0.667350 0.909403 0.192594
Si Si6 0.659319 0.742131 0.075436
O O1 0.750000 0.277124 0.750000
O O2 0.757926 0.379986 0.682743
O O3 0.836050 0.263928 0.643440
O O4 0.000000 0.323882 0.715257
O O5 0.500000 0.416021 0.647508
O O6 0.733019 0.449295 0.590776
O O7 0.668843 0.508357 0.687486
O O8 0.500000 0.125562 0.585209
O O9 0.705502 0.079418 0.523289
O O10 0.754073 0.113017 0.634684
O O11 0.719828 0.204535 0.558831
O O12 0.174030 0.335799 0.556417
O O13 0.000000 0.437594 0.550878
O O14 0.500000 0.887239 0.193537
O O15 0.750000 0.889737 0.250000
O O16 0.500000 0.766730 0.058025
#
# Coordination Sequence:
#
# PCOD9478482 Si02
#       6
#    16  16  16  16  16  16
#     4  10  20  34  55  83 114 148 188 236 289 342
#     4  10  21  37  60  87 113 146 188 236 288 337
#     4  11  23  38  59  86 116 153 192 231 279 334
#     4   9  20  38  60  88 119 150 185 229 284 339
#     4  11  25  43  61  83 113 151 193 235 282 336
#     4   9  19  36  56  81 116 154 190 232 281 335
#
# _framework density 22.230537000000002
#
# number of rings (size 3 to 8) (size 9 to 14) (size 15 to 20)
#    0.000    2.000    0.000    4.000    0.000   10.000 
#    0.000    5.000    0.000    0.000    0.000    0.000 
#    0.000    0.000    0.000    0.000    0.000    0.000 
#
# Total GULP energy -268369.439236 kJ/mol
# GULP energy per Si atom -5591.029984 kJ/mol
# Density = 2.217994 g / cm^3
# Si number density = 22.230537 Si / 1000 Ang^3
#
#
#
# Elastic Constant Matrix: (Units=GPa)
#
#
# Indices 1 2 3 4 5 6 
#
# 1 135.7732 20.2860 72.8951 0.0000 0.0000 0.0000
# 2 20.2860 45.1501 -1.5161 0.0000 0.0000 0.0000
# 3 72.8951 -1.5161 142.6891 0.0000 0.0000 0.0000
# 4 0.0000 0.0000 0.0000 14.7328 0.0000 0.0000
# 5 0.0000 0.0000 0.0000 0.0000 33.9109 0.0000
# 6 0.0000 0.0000 0.0000 0.0000 0.0000 25.0387
#
#
#
# Elastic Compliance Matrix: (Units=1/GPa)
#
#
# Indices 1 2 3 4 5 6 
#
# 1 0.011273 -0.005260 -0.005815 0.000000 0.000000 0.000000
# 2 -0.005260 0.024611 0.002949 0.000000 0.000000 0.000000
# 3 -0.005815 0.002949 0.010010 0.000000 0.000000 0.000000
# 4 0.000000 0.000000 0.000000 0.067876 0.000000 0.000000
# 5 0.000000 0.000000 0.000000 0.000000 0.029489 0.000000
# 6 0.000000 0.000000 0.000000 0.000000 0.000000 0.039938
#
#
# Mechanical properties :
#
#
# Convention : Reuss Voigt Hill
#
# Bulk Modulus (GPa) = 33.73669 56.32693 45.03181
# Shear Modulus (GPa) = 23.88566 30.19965 27.04266
#
# Velocity S-wave (km/s) = 3.28144 3.68975 3.49157
# Velocity P-wave (km/s) = 5.43745 6.59886 6.04611
#
# Compressibility (1/GPa) = 0.02964132
#
# Stress axis : x y z
#
# Youngs Moduli (GPa) = 88.70627 40.63250 99.89757
#
# Poissons Ratio (x) = 0.21374 0.58090
# Poissons Ratio (y) = 0.46662 -0.29458
# Poissons Ratio (z) = 0.51582 -0.11982
#
# Static dielectric constant tensor:
#      x y z
#    x 1.761360 0.000000 0.000000 
#    y 0.000000 1.855810 0.000000 
#    z 0.000000 0.000000 1.853350 
# 
# From -- ./inp_files/42947.got.cif
#   From: 2010.05.17/outbox.cif.g08.bks.cpg/sg64_22_cif.got.tgz:42947.got - 2010.06.03 16:29:19.
