data_PCOD9478864
_publ_section_title
;
Structure prediction by ZEFSAII (Michael W. Deem and Ramdas Pophale) SiO2 
 PCOD9478864
Probable space group: C M C A
;
_chemical_formula_sum "Si O2"
_cell_formula_units_Z 96
_cell_length_a 8.723889
_cell_length_b 25.787300
_cell_length_c 24.159070
_cell_angle_alpha 90.000000
_cell_angle_beta 90.000000
_cell_angle_gamma 90.000000
_cell_volume 5434.958296
_symmetry_space_group_name_H-M "C M C A"
_symmetry_group_IT_number 64
_symmetry_cell_setting 'orthorhombic'
loop_
_space_group_symop_operation_xyz
x,y,z
-x,1/2-y,1/2+z
x,-y,-z
-x,1/2+y,1/2-z
-x,-y,-z
x,1/2+y,1/2-z
-x,y,z
x,1/2-y,1/2+z
1/2+x,1/2+y,z
1/2-x,-y,1/2+z
1/2+x,1/2-y,-z
1/2-x,y,1/2-z
1/2-x,1/2-y,-z
1/2+x,y,1/2-z
1/2-x,1/2+y,z
1/2+x,-y,1/2+z
loop_
_atom_site_type_symbol
_atom_site_label
_atom_site_fract_x
_atom_site_fract_y
_atom_site_fract_z
Si Si1 0.315413 0.403186 0.119136
Si Si2 0.683066 0.309691 0.810334
Si Si3 0.816764 0.998383 0.311378
Si Si4 0.184348 0.804300 0.190012
Si Si5 0.184809 0.938903 0.997539
Si Si6 0.183504 0.599549 0.117027
O O1 0.500000 0.408107 0.121884
O O2 0.244343 0.448255 0.156498
O O3 0.274739 0.347519 0.144764
O O4 0.270441 0.412444 0.055519
O O5 0.500000 0.308640 0.807129
O O6 0.750000 0.324805 0.750000
O O7 0.746384 0.252109 0.822298
O O8 0.739596 0.350347 0.855734
O O9 0.750000 0.000576 0.250000
O O10 0.772792 0.049563 0.345920
O O11 0.000000 0.996204 0.308482
O O12 0.250000 0.820424 0.250000
O O13 0.000000 0.800326 0.193641
O O14 0.261249 0.912132 0.944918
O O15 0.000000 0.936012 0.991753
O O16 0.226077 0.000000 0.000000
O O17 0.000000 0.605113 0.118595
#
# Coordination Sequence:
#
# PCOD9478864 Si02
#       6
#    16  16  16  16  16  16
#     4  10  21  37  58  84 114 150 190 232 282 338
#     4  11  22  38  61  86 114 149 189 233 287 343
#     4  11  23  35  53  81 114 147 183 230 283 338
#     4  10  20  36  58  84 115 148 187 231 281 339
#     4  10  20  37  60  83 113 154 194 235 284 339
#     4  11  23  38  57  84 115 150 192 237 284 337
#
# _framework density 17.663429000000001
#
# number of rings (size 3 to 8) (size 9 to 14) (size 15 to 20)
#    0.000    1.500    1.667    5.000    0.000    7.000 
#    0.000    0.833    0.000    0.000    0.000    0.000 
#    0.000    0.000    0.000    0.000    0.000    0.000 
#
# Total GULP energy -268264.874079 kJ/mol
# GULP energy per Si atom -5588.851543 kJ/mol
# Density = 1.762323 g / cm^3
# Si number density = 17.663429 Si / 1000 Ang^3
#
#
#
# Elastic Constant Matrix: (Units=GPa)
#
#
# Indices 1 2 3 4 5 6 
#
# 1 59.8246 51.5267 53.9022 0.0000 0.0000 0.0000
# 2 51.5267 115.5862 97.4398 0.0000 0.0000 0.0000
# 3 53.9022 97.4398 171.4583 0.0000 0.0000 0.0000
# 4 0.0000 0.0000 0.0000 16.1346 0.0000 0.0000
# 5 0.0000 0.0000 0.0000 0.0000 31.4131 0.0000
# 6 0.0000 0.0000 0.0000 0.0000 0.0000 7.4091
#
#
#
# Elastic Compliance Matrix: (Units=1/GPa)
#
#
# Indices 1 2 3 4 5 6 
#
# 1 0.028067 -0.009740 -0.003289 0.000000 0.000000 0.000000
# 2 -0.009740 0.019988 -0.008297 0.000000 0.000000 0.000000
# 3 -0.003289 -0.008297 0.011582 0.000000 0.000000 0.000000
# 4 0.000000 0.000000 0.000000 0.061979 0.000000 0.000000
# 5 0.000000 0.000000 0.000000 0.000000 0.031834 0.000000
# 6 0.000000 0.000000 0.000000 0.000000 0.000000 0.134969
#
#
# Mechanical properties :
#
#
# Convention : Reuss Voigt Hill
#
# Bulk Modulus (GPa) = 58.87302 83.62296 71.24799
# Shear Modulus (GPa) = 14.84864 20.59139 17.72001
#
# Velocity S-wave (km/s) = 2.90253 3.41803 3.17077
# Velocity P-wave (km/s) = 6.68100 7.93867 7.33683
#
# Compressibility (1/GPa) = 0.01698571
#
# Stress axis : x y z
#
# Youngs Moduli (GPa) = 35.62862 50.02996 86.34448
#
# Poissons Ratio (x) = 0.48728 0.28395
# Poissons Ratio (y) = 0.34701 0.71642
# Poissons Ratio (z) = 0.11717 0.41511
#
# Static dielectric constant tensor:
#      x y z
#    x 1.593180 0.000000 0.000000 
#    y 0.000000 1.582670 0.000000 
#    z 0.000000 0.000000 1.577510 
# 
# From -- ./inp_files/36954.got.cif
#   From: 2010.05.17/outbox.cif.g08.bks.cpg/sg64_19_cif.got.tgz:36954.got - 2010.06.03 16:29:19.
