data_PCOD9478480
_publ_section_title
;
Structure prediction by ZEFSAII (Michael W. Deem and Ramdas Pophale) SiO2 
 PCOD9478480
Probable space group: C M C A
;
_chemical_formula_sum "Si O2"
_cell_formula_units_Z 96
_cell_length_a 8.922875
_cell_length_b 22.393271
_cell_length_c 23.876759
_cell_angle_alpha 90.000000
_cell_angle_beta 90.000000
_cell_angle_gamma 90.000000
_cell_volume 4770.871517
_symmetry_space_group_name_H-M "C M C A"
_symmetry_group_IT_number 64
_symmetry_cell_setting 'orthorhombic'
loop_
_space_group_symop_operation_xyz
x,y,z
-x,1/2-y,1/2+z
x,-y,-z
-x,1/2+y,1/2-z
-x,-y,-z
x,1/2+y,1/2-z
-x,y,z
x,1/2-y,1/2+z
1/2+x,1/2+y,z
1/2-x,-y,1/2+z
1/2+x,1/2-y,-z
1/2-x,y,1/2-z
1/2-x,1/2-y,-z
1/2+x,y,1/2-z
1/2-x,1/2+y,z
1/2+x,-y,1/2+z
loop_
_atom_site_type_symbol
_atom_site_label
_atom_site_fract_x
_atom_site_fract_y
_atom_site_fract_z
Si Si1 0.325881 0.349272 0.189888
Si Si2 0.322491 0.420673 0.688744
Si Si3 0.180858 0.896199 0.019711
Si Si4 0.179601 0.348087 0.595779
Si Si5 0.174328 0.973182 0.120685
Si Si6 0.821452 0.788087 0.411779
O O1 0.500000 0.331848 0.194586
O O2 0.250000 0.354141 0.250000
O O3 0.321694 0.413107 0.158246
O O4 0.236357 0.304073 0.150218
O O5 0.500000 0.419395 0.693998
O O6 0.250000 0.423130 0.750000
O O7 0.262088 0.365176 0.652564
O O8 0.269716 0.477626 0.652410
O O9 0.226698 0.951502 0.059134
O O10 0.243080 0.835934 0.047988
O O11 0.000000 0.894343 0.023011
O O12 0.221687 0.893314 0.954540
O O13 0.215252 0.280812 0.576563
O O14 0.000000 0.351409 0.604122
O O15 0.000000 0.993185 0.116901
O O16 0.000000 0.795699 0.415392
#
# Coordination Sequence:
#
# PCOD9478480 Si02
#       6
#    16  16  16  16  16  16
#     4  10  20  34  55  82 112 148 190 237 289 341
#     4  12  26  42  61  83 111 150 192 236 283 334
#     4   9  19  37  62  89 117 150 186 229 282 336
#     4  10  22  40  60  84 116 154 192 229 277 336
#     4   9  19  37  60  85 113 146 184 229 282 338
#     4  10  20  34  56  85 117 152 189 233 281 332
#
# _framework density 20.122109999999999
#
# number of rings (size 3 to 8) (size 9 to 14) (size 15 to 20)
#    0.000    2.000    0.000    4.500    0.000    8.000 
#    0.000    3.333    0.000    0.000    0.000    0.000 
#    0.000    0.000    0.000    0.000    0.000    0.000 
#
# Total GULP energy -268194.748089 kJ/mol
# GULP energy per Si atom -5587.390585 kJ/mol
# Density = 2.007631 g / cm^3
# Si number density = 20.122110 Si / 1000 Ang^3
#
#
#
# Elastic Constant Matrix: (Units=GPa)
#
#
# Indices 1 2 3 4 5 6 
#
# 1 30.2548 13.3985 33.9621 0.0000 0.0000 0.0000
# 2 13.3985 51.4963 27.8940 0.0000 0.0000 0.0000
# 3 33.9621 27.8940 110.0596 0.0000 0.0000 0.0000
# 4 0.0000 0.0000 0.0000 20.5139 0.0000 0.0000
# 5 0.0000 0.0000 0.0000 0.0000 25.3388 0.0000
# 6 0.0000 0.0000 0.0000 0.0000 0.0000 30.0801
#
#
#
# Elastic Compliance Matrix: (Units=1/GPa)
#
#
# Indices 1 2 3 4 5 6 
#
# 1 0.051926 -0.005600 -0.014604 0.000000 0.000000 0.000000
# 2 -0.005600 0.023113 -0.004130 0.000000 0.000000 0.000000
# 3 -0.014604 -0.004130 0.014639 0.000000 0.000000 0.000000
# 4 0.000000 0.000000 0.000000 0.048747 0.000000 0.000000
# 5 0.000000 0.000000 0.000000 0.000000 0.039465 0.000000
# 6 0.000000 0.000000 0.000000 0.000000 0.000000 0.033245
#
#
# Mechanical properties :
#
#
# Convention : Reuss Voigt Hill
#
# Bulk Modulus (GPa) = 24.38386 38.03554 31.20970
# Shear Modulus (GPa) = 18.28334 22.95695 20.62015
#
# Velocity S-wave (km/s) = 3.01760 3.38136 3.20465
# Velocity P-wave (km/s) = 4.92803 5.84707 5.40711
#
# Compressibility (1/GPa) = 0.04101073
#
# Stress axis : x y z
#
# Youngs Moduli (GPa) = 19.25814 43.26597 68.30982
#
# Poissons Ratio (x) = 0.24228 0.99760
# Poissons Ratio (y) = 0.10784 0.28211
# Poissons Ratio (z) = 0.28125 0.17868
#
# Static dielectric constant tensor:
#      x y z
#    x 1.671390 0.000000 0.000000 
#    y 0.000000 1.731240 0.000000 
#    z 0.000000 0.000000 1.707670 
# 
# From -- ./inp_files/43008.got.cif
#   From: 2010.05.17/outbox.cif.g08.bks.cpg/sg64_22_cif.got.tgz:43008.got - 2010.06.03 16:29:19.
