data_PCOD9478976
_publ_section_title
;
Structure prediction by ZEFSAII (Michael W. Deem and Ramdas Pophale) SiO2 
 PCOD9478976
Probable space group: C M C A
;
_chemical_formula_sum "Si O2"
_cell_formula_units_Z 112
_cell_length_a 37.217908
_cell_length_b 13.300820
_cell_length_c 13.131801
_cell_angle_alpha 90.000000
_cell_angle_beta 90.000000
_cell_angle_gamma 90.000000
_cell_volume 6500.618313
_symmetry_space_group_name_H-M "C M C A"
_symmetry_group_IT_number 64
_symmetry_cell_setting 'orthorhombic'
loop_
_space_group_symop_operation_xyz
x,y,z
-x,1/2-y,1/2+z
x,-y,-z
-x,1/2+y,1/2-z
-x,-y,-z
x,1/2+y,1/2-z
-x,y,z
x,1/2-y,1/2+z
1/2+x,1/2+y,z
1/2-x,-y,1/2+z
1/2+x,1/2-y,-z
1/2-x,y,1/2-z
1/2-x,1/2-y,-z
1/2+x,y,1/2-z
1/2-x,1/2+y,z
1/2+x,-y,1/2+z
loop_
_atom_site_type_symbol
_atom_site_label
_atom_site_fract_x
_atom_site_fract_y
_atom_site_fract_z
Si Si1 0.459076 0.885017 0.463933
Si Si2 0.354657 0.732399 0.415074
Si Si3 0.219973 0.831964 0.022767
Si Si4 0.218923 0.482557 0.667947
Si Si5 0.594671 0.126919 0.717366
Si Si6 0.400348 0.276272 0.898908
Si Si7 0.140342 0.933765 0.757487
O O1 0.500000 0.847492 0.460876
O O2 0.439907 0.883101 0.354261
O O3 0.433823 0.824950 0.542342
O O4 0.459404 0.000000 0.500000
O O5 0.315870 0.772407 0.446847
O O6 0.374980 0.820944 0.353588
O O7 0.377107 0.716631 0.517805
O O8 0.354856 0.636547 0.341267
O O9 0.227484 0.911097 0.113681
O O10 0.250000 0.750000 0.000000
O O11 0.216755 0.899456 0.921260
O O12 0.250000 0.459841 0.750000
O O13 0.179128 0.480836 0.716350
O O14 0.587865 0.202187 0.809740
O O15 0.611096 0.021693 0.754285
O O16 0.375043 0.362454 0.848287
#
# Coordination Sequence:
#
# PCOD9478976 Si02
#       7
#    16  16  16  16  16  16  16
#     4  10  20  36  62  92 121 157 201 241 287 357
#     4  10  21  36  60  88 109 152 200 246 294 354
#     4  11  23  39  59  80 114 152 195 246 302 355
#     4  11  24  39  59  83 112 155 195 244 304 353
#     4  10  21  36  61  89 117 157 196 243 295 352
#     4  10  21  37  60  89 118 155 199 242 298 346
#     4  11  20  37  61  84 118 153 197 248 293 355
#
# _framework density 17.229130000000001
#
# number of rings (size 3 to 8) (size 9 to 14) (size 15 to 20)
#    0.000    1.571    4.286    0.857    0.000    4.000 
#    0.000    0.000    0.000    0.000    0.000    4.000 
#    0.000    0.000    0.000    0.000    0.000    0.000 
#
# Total GULP energy -312515.272187 kJ/mol
# GULP energy per Si atom -5580.629860 kJ/mol
# Density = 1.718992 g / cm^3
# Si number density = 17.229130 Si / 1000 Ang^3
#
#
#
# Elastic Constant Matrix: (Units=GPa)
#
#
# Indices 1 2 3 4 5 6 
#
# 1 128.0532 45.9696 62.7994 0.0000 0.0000 0.0000
# 2 45.9696 74.3092 43.6443 0.0000 0.0000 0.0000
# 3 62.7994 43.6443 101.1186 0.0000 0.0000 0.0000
# 4 0.0000 0.0000 0.0000 24.6934 0.0000 0.0000
# 5 0.0000 0.0000 0.0000 0.0000 18.9533 0.0000
# 6 0.0000 0.0000 0.0000 0.0000 0.0000 12.8999
#
#
#
# Elastic Compliance Matrix: (Units=1/GPa)
#
#
# Indices 1 2 3 4 5 6 
#
# 1 0.012101 -0.004115 -0.005739 0.000000 0.000000 0.000000
# 2 -0.004115 0.019427 -0.005829 0.000000 0.000000 0.000000
# 3 -0.005739 -0.005829 0.015970 0.000000 0.000000 0.000000
# 4 0.000000 0.000000 0.000000 0.040497 0.000000 0.000000
# 5 0.000000 0.000000 0.000000 0.000000 0.052761 0.000000
# 6 0.000000 0.000000 0.000000 0.000000 0.000000 0.077520
#
#
# Mechanical properties :
#
#
# Convention : Reuss Voigt Hill
#
# Bulk Modulus (GPa) = 61.99474 67.58974 64.79224
# Shear Modulus (GPa) = 19.60633 21.38047 20.49340
#
# Velocity S-wave (km/s) = 3.37705 3.52653 3.45260
# Velocity P-wave (km/s) = 7.16007 7.47643 7.31996
#
# Compressibility (1/GPa) = 0.01613040
#
# Stress axis : x y z
#
# Youngs Moduli (GPa) = 82.63645 51.47550 62.61901
#
# Poissons Ratio (x) = 0.21184 0.35938
# Poissons Ratio (y) = 0.34007 0.36501
# Poissons Ratio (z) = 0.47427 0.30005
#
# Static dielectric constant tensor:
#      x y z
#    x 1.565100 0.000000 0.000000 
#    y 0.000000 1.577170 0.000000 
#    z 0.000000 0.000000 1.586560 
# 
# From -- ./inp_files/28366.got.cif
#   From: 2010.05.17/outbox.cif.g08.bks.cpg/sg64_15_cif.got.tgz:28366.got - 2010.06.03 16:29:19.
