data_PCOD9478008
_publ_section_title
;
Structure prediction by ZEFSAII (Michael W. Deem and Ramdas Pophale) SiO2 
 PCOD9478008
Probable space group: C M C A
;
_chemical_formula_sum "Si O2"
_cell_formula_units_Z 72
_cell_length_a 18.880937
_cell_length_b 30.493782
_cell_length_c 5.562926
_cell_angle_alpha 90.000000
_cell_angle_beta 90.000000
_cell_angle_gamma 90.000000
_cell_volume 3202.861191
_symmetry_space_group_name_H-M "C M C A"
_symmetry_group_IT_number 64
_symmetry_cell_setting 'orthorhombic'
loop_
_space_group_symop_operation_xyz
x,y,z
-x,1/2-y,1/2+z
x,-y,-z
-x,1/2+y,1/2-z
-x,-y,-z
x,1/2+y,1/2-z
-x,y,z
x,1/2-y,1/2+z
1/2+x,1/2+y,z
1/2-x,-y,1/2+z
1/2+x,1/2-y,-z
1/2-x,y,1/2-z
1/2-x,1/2-y,-z
1/2+x,y,1/2-z
1/2-x,1/2+y,z
1/2+x,-y,1/2+z
loop_
_atom_site_type_symbol
_atom_site_label
_atom_site_fract_x
_atom_site_fract_y
_atom_site_fract_z
Si Si1 0.355423 0.871356 0.372947
Si Si2 0.000000 0.427921 0.369667
Si Si3 0.790627 0.500000 0.000000
Si Si4 0.500000 0.570535 0.370026
Si Si5 0.345044 0.094479 0.123373
Si Si6 0.835907 0.771865 0.226146
O O1 0.429926 0.897757 0.368455
O O2 0.319359 0.888191 0.619379
O O3 0.362014 0.819314 0.362216
O O4 0.319388 0.882964 0.119170
O O5 0.000000 0.453911 0.617728
O O6 0.000000 0.454061 0.122048
O O7 0.750000 0.512606 0.750000
O O8 0.832680 0.457241 0.913240
O O9 0.570016 0.600221 0.368874
O O10 0.857691 0.759640 0.501060
O O11 0.750000 0.772572 0.250000
#
# Coordination Sequence:
#
# PCOD9478008 Si02
#       6
#    16   8   8   8  16  16
#     4  10  19  36  59  81 107 144 183 218 278 338
#     4   8  16  30  52  82 110 131 170 231 270 318
#     4  12  26  41  54  81 122 148 180 232 272 314
#     4   8  16  33  56  81 104 135 184 229 268 317
#     4  10  21  37  59  82 109 147 184 226 274 327
#     4  10  21  36  53  77 108 140 182 232 267 308
#
# _framework density 22.479901999999999
#
# number of rings (size 3 to 8) (size 9 to 14) (size 15 to 20)
#    0.000    2.222    0.000    2.667    0.000    3.111 
#    0.000    1.111    0.000    9.333    0.000    0.000 
#    0.000    0.000    0.000    0.000    0.000    0.000 
#
# Total GULP energy -200567.337061 kJ/mol
# GULP energy per Si atom -5571.314918 kJ/mol
# Density = 2.242874 g / cm^3
# Si number density = 22.479902 Si / 1000 Ang^3
#
#
#
# Elastic Constant Matrix: (Units=GPa)
#
#
# Indices 1 2 3 4 5 6 
#
# 1 68.6222 2.6456 40.9078 0.0000 0.0000 0.0000
# 2 2.6456 108.2231 57.5704 0.0000 0.0000 0.0000
# 3 40.9078 57.5704 286.2065 0.0000 0.0000 0.0000
# 4 0.0000 0.0000 0.0000 42.3067 0.0000 0.0000
# 5 0.0000 0.0000 0.0000 0.0000 24.6803 0.0000
# 6 0.0000 0.0000 0.0000 0.0000 0.0000 -14.9775
#
#
#
# Elastic Compliance Matrix: (Units=1/GPa)
#
#
# Indices 1 2 3 4 5 6 
#
# 1 0.016012 0.000925 -0.002475 0.000000 0.000000 0.000000
# 2 0.000925 0.010401 -0.002224 0.000000 0.000000 0.000000
# 3 -0.002475 -0.002224 0.004295 0.000000 0.000000 0.000000
# 4 0.000000 0.000000 0.000000 0.023637 0.000000 0.000000
# 5 0.000000 0.000000 0.000000 0.000000 0.040518 0.000000
# 6 0.000000 0.000000 0.000000 0.000000 0.000000 -0.066767
#
#
# Mechanical properties :
#
#
# Convention : Reuss Voigt Hill
#
# Bulk Modulus (GPa) = 43.17789 73.92216 58.55003
# Shear Modulus (GPa) = 115.30270 34.53044 74.91657
#
# Velocity S-wave (km/s) = 7.16958 3.92351 5.77913
# Velocity P-wave (km/s) = 9.36942 7.31302 8.40436
#
# Compressibility (1/GPa) = 0.02316000
#
# Stress axis : x y z
#
# Youngs Moduli (GPa) = 62.45271 96.14633 232.82258
#
# Poissons Ratio (x) = -0.08894 0.57616
# Poissons Ratio (y) = -0.05777 0.51788
# Poissons Ratio (z) = 0.15455 0.21386
#
# Static dielectric constant tensor:
#      x y z
#    x 1.871070 0.000000 0.000000 
#    y 0.000000 1.775360 0.000000 
#    z 0.000000 0.000000 1.945430 
# 
# From -- ./inp_files/2291.got.cif
#   From: 2010.05.17/outbox.cif.g08.bks.cpg/sg64_2_cif.got.tgz:2291.got - 2010.06.03 16:29:19.
