data_PCOD9478280
_publ_section_title
;
Structure prediction by ZEFSAII (Michael W. Deem and Ramdas Pophale) SiO2 
 PCOD9478280
Probable space group: C M C A
;
_chemical_formula_sum "Si O2"
_cell_formula_units_Z 72
_cell_length_a 9.242481
_cell_length_b 18.255818
_cell_length_c 23.479188
_cell_angle_alpha 90.000000
_cell_angle_beta 90.000000
_cell_angle_gamma 90.000000
_cell_volume 3961.621110
_symmetry_space_group_name_H-M "C M C A"
_symmetry_group_IT_number 64
_symmetry_cell_setting 'orthorhombic'
loop_
_space_group_symop_operation_xyz
x,y,z
-x,1/2-y,1/2+z
x,-y,-z
-x,1/2+y,1/2-z
-x,-y,-z
x,1/2+y,1/2-z
-x,y,z
x,1/2-y,1/2+z
1/2+x,1/2+y,z
1/2-x,-y,1/2+z
1/2+x,1/2-y,-z
1/2-x,y,1/2-z
1/2-x,1/2-y,-z
1/2+x,y,1/2-z
1/2-x,1/2+y,z
1/2+x,-y,1/2+z
loop_
_atom_site_type_symbol
_atom_site_label
_atom_site_fract_x
_atom_site_fract_y
_atom_site_fract_z
Si Si1 0.668964 0.499111 0.690702
Si Si2 0.659157 0.383460 0.407219
Si Si3 0.328081 0.253589 0.560785
Si Si4 0.751781 0.500000 0.500000
Si Si5 0.833418 0.103738 0.102885
O O1 0.500000 0.478804 0.698814
O O2 0.750000 0.510424 0.750000
O O3 0.670535 0.570886 0.650756
O O4 0.755425 0.439441 0.653688
O O5 0.500000 0.348077 0.410769
O O6 0.782603 0.322842 0.410541
O O7 0.669970 0.441757 0.459338
O O8 0.500000 0.260721 0.555608
O O9 0.250000 0.250000 0.500000
O O10 0.258618 0.323651 0.591096
O O11 0.830725 0.551608 0.453598
O O12 0.000000 0.120606 0.115837
#
# Coordination Sequence:
#
# PCOD9478280 Si02
#       5
#    16  16  16   8  16
#     4  10  22  41  64  89 117 153 198 246 294 344
#     4  10  21  37  59  86 119 155 195 242 294 350
#     4  12  24  37  56  85 123 160 196 238 294 357
#     4  10  20  32  58  86 120 150 196 236 294 352
#     4  11  22  37  59  87 120 155 197 243 293 350
#
# _framework density 18.174378999999998
#
# number of rings (size 3 to 8) (size 9 to 14) (size 15 to 20)
#    0.000    1.333    2.222    4.000    0.000    6.222 
#    0.000    1.111    0.000    2.667    0.000    0.000 
#    0.000    0.000    0.000    0.000    0.000    0.000 
#
# Total GULP energy -200933.949825 kJ/mol
# GULP energy per Si atom -5581.498606 kJ/mol
# Density = 1.813301 g / cm^3
# Si number density = 18.174379 Si / 1000 Ang^3
#
#
#
# Elastic Constant Matrix: (Units=GPa)
#
#
# Indices 1 2 3 4 5 6 
#
# 1 196.7905 60.0926 56.8073 0.0000 0.0000 0.0000
# 2 60.0926 90.8817 29.4334 0.0000 0.0000 0.0000
# 3 56.8073 29.4334 119.2603 0.0000 0.0000 0.0000
# 4 0.0000 0.0000 0.0000 13.4542 0.0000 0.0000
# 5 0.0000 0.0000 0.0000 0.0000 15.9630 0.0000
# 6 0.0000 0.0000 0.0000 0.0000 0.0000 10.8979
#
#
#
# Elastic Compliance Matrix: (Units=1/GPa)
#
#
# Indices 1 2 3 4 5 6 
#
# 1 0.006928 -0.003817 -0.002358 0.000000 0.000000 0.000000
# 2 -0.003817 0.014062 -0.001652 0.000000 0.000000 0.000000
# 3 -0.002358 -0.001652 0.009916 0.000000 0.000000 0.000000
# 4 0.000000 0.000000 0.000000 0.074326 0.000000 0.000000
# 5 0.000000 0.000000 0.000000 0.000000 0.062645 0.000000
# 6 0.000000 0.000000 0.000000 0.000000 0.000000 0.091761
#
#
# Mechanical properties :
#
#
# Convention : Reuss Voigt Hill
#
# Bulk Modulus (GPa) = 65.56772 77.73324 71.65048
# Shear Modulus (GPa) = 17.83317 25.43631 21.63474
#
# Velocity S-wave (km/s) = 3.13585 3.74514 3.45396
# Velocity P-wave (km/s) = 7.01903 7.84634 7.44419
#
# Compressibility (1/GPa) = 0.01525141
#
# Stress axis : x y z
#
# Youngs Moduli (GPa) = 144.34586 71.11147 100.84771
#
# Poissons Ratio (x) = 0.27144 0.23778
# Poissons Ratio (y) = 0.55099 0.16664
# Poissons Ratio (z) = 0.34035 0.11750
#
# Static dielectric constant tensor:
#      x y z
#    x 1.621970 0.000000 0.000000 
#    y 0.000000 1.557840 0.000000 
#    z 0.000000 0.000000 1.601560 
# 
# From -- ./inp_files/42629.got.cif
#   From: 2010.05.17/outbox.cif.g08.bks.cpg/sg64_22_cif.got.tgz:42629.got - 2010.06.03 16:29:19.
