data_PCOD9478171
_publ_section_title
;
Structure prediction by ZEFSAII (Michael W. Deem and Ramdas Pophale) SiO2 
 PCOD9478171
Probable space group: C M C A
;
_chemical_formula_sum "Si O2"
_cell_formula_units_Z 104
_cell_length_a 22.274009
_cell_length_b 28.179894
_cell_length_c 7.535798
_cell_angle_alpha 90.000000
_cell_angle_beta 90.000000
_cell_angle_gamma 90.000000
_cell_volume 4730.063755
_symmetry_space_group_name_H-M "C M C A"
_symmetry_group_IT_number 64
_symmetry_cell_setting 'orthorhombic'
loop_
_space_group_symop_operation_xyz
x,y,z
-x,1/2-y,1/2+z
x,-y,-z
-x,1/2+y,1/2-z
-x,-y,-z
x,1/2+y,1/2-z
-x,y,z
x,1/2-y,1/2+z
1/2+x,1/2+y,z
1/2-x,-y,1/2+z
1/2+x,1/2-y,-z
1/2-x,y,1/2-z
1/2-x,1/2-y,-z
1/2+x,y,1/2-z
1/2-x,1/2+y,z
1/2+x,-y,1/2+z
loop_
_atom_site_type_symbol
_atom_site_label
_atom_site_fract_x
_atom_site_fract_y
_atom_site_fract_z
Si Si1 0.000000 0.945392 0.951465
Si Si2 0.250000 0.193605 0.750000
Si Si3 0.500000 0.443706 0.524457
Si Si4 0.376726 0.100732 0.021264
Si Si5 0.253012 0.388062 0.966708
Si Si6 0.069029 0.196497 0.990068
Si Si7 0.379402 0.205276 0.879239
Si Si8 0.879856 0.401421 0.571125
O O1 0.061614 0.922750 0.019494
O O2 0.000000 0.935782 0.738706
O O3 0.000000 0.000000 0.000000
O O4 0.259409 0.160731 0.576621
O O5 0.313559 0.217875 0.796335
O O6 0.500000 0.500000 0.500000
O O7 0.561404 0.420836 0.448070
O O8 0.308633 0.088540 0.963089
O O9 0.377480 0.084185 0.224606
O O10 0.376551 0.158117 0.999729
O O11 0.250000 0.381360 0.750000
O O12 0.315495 0.414015 0.007770
O O13 0.077020 0.190677 0.780637
O O14 0.000000 0.191419 0.047473
O O15 0.093359 0.248613 0.031399
O O16 0.109155 0.155117 0.072817
#
# Coordination Sequence:
#
# PCOD9478171 Si02
#       8
#     8   8   8  16  16  16  16  16
#     4  10  22  40  63  92 117 148 201 250 308 382
#     4  10  20  40  58  90 122 156 220 256 308 366
#     4  10  22  40  63  90 123 156 195 248 318 376
#     4   9  21  38  62  85 117 160 200 251 302 366
#     4   9  18  37  63  88 121 162 205 256 313 363
#     4  12  24  37  55  84 121 164 204 251 303 362
#     4  11  24  39  57  86 122 162 210 258 301 369
#     4  10  19  40  62  83 118 159 196 249 314 361
#
# _framework density 21.987020000000001
#
# number of rings (size 3 to 8) (size 9 to 14) (size 15 to 20)
#    0.000    1.846    2.308    1.385    2.154    1.846 
#    4.154    0.769    0.000    0.000    0.000    0.000 
#    0.000    0.000    0.000    0.000    0.000    0.000 
#
# Total GULP energy -289867.676903 kJ/mol
# GULP energy per Si atom -5574.378402 kJ/mol
# Density = 2.193698 g / cm^3
# Si number density = 21.987020 Si / 1000 Ang^3
#
#
#
# Elastic Constant Matrix: (Units=GPa)
#
#
# Indices 1 2 3 4 5 6 
#
# 1 239.2462 52.0182 8.2890 0.0000 0.0000 0.0000
# 2 52.0182 49.5081 -15.3280 0.0000 0.0000 0.0000
# 3 8.2890 -15.3280 61.8894 0.0000 0.0000 0.0000
# 4 0.0000 0.0000 0.0000 19.4032 0.0000 0.0000
# 5 0.0000 0.0000 0.0000 0.0000 8.4461 0.0000
# 6 0.0000 0.0000 0.0000 0.0000 0.0000 -14.9398
#
#
#
# Elastic Compliance Matrix: (Units=1/GPa)
#
#
# Indices 1 2 3 4 5 6 
#
# 1 0.005741 -0.006791 -0.002451 0.000000 0.000000 0.000000
# 2 -0.006791 0.029909 0.008317 0.000000 0.000000 0.000000
# 3 -0.002451 0.008317 0.018546 0.000000 0.000000 0.000000
# 4 0.000000 0.000000 0.000000 0.051538 0.000000 0.000000
# 5 0.000000 0.000000 0.000000 0.000000 0.118398 0.000000
# 6 0.000000 0.000000 0.000000 0.000000 0.000000 -0.066935
#
#
# Mechanical properties :
#
#
# Convention : Reuss Voigt Hill
#
# Bulk Modulus (GPa) = 19.10345 48.95579 34.02962
# Shear Modulus (GPa) = 28.32920 22.95952 25.64436
#
# Velocity S-wave (km/s) = 3.59339 3.23496 3.41888
# Velocity P-wave (km/s) = 5.09156 6.02224 5.57635
#
# Compressibility (1/GPa) = 0.05234656
#
# Stress axis : x y z
#
# Youngs Moduli (GPa) = 174.17698 33.43446 53.92002
#
# Poissons Ratio (x) = 0.22706 0.13215
# Poissons Ratio (y) = 1.18287 -0.44846
# Poissons Ratio (z) = 0.42689 -0.27808
#
# Static dielectric constant tensor:
#      x y z
#    x 1.890730 0.000000 0.000000 
#    y 0.000000 1.778820 0.000000 
#    z 0.000000 0.000000 1.816950 
# 
# From -- ./inp_files/8703.got.cif
#   From: 2010.05.17/outbox.cif.g08.bks.cpg/sg64_5_cif.got.tgz:8703.got - 2010.06.03 16:29:19.
