data_PCOD9478804
_publ_section_title
;
Structure prediction by ZEFSAII (Michael W. Deem and Ramdas Pophale) SiO2 
 PCOD9478804
Probable space group: C M C A
;
_chemical_formula_sum "Si O2"
_cell_formula_units_Z 128
_cell_length_a 25.570687
_cell_length_b 8.334879
_cell_length_c 24.902890
_cell_angle_alpha 90.000000
_cell_angle_beta 90.000000
_cell_angle_gamma 90.000000
_cell_volume 5307.517636
_symmetry_space_group_name_H-M "C M C A"
_symmetry_group_IT_number 64
_symmetry_cell_setting 'orthorhombic'
loop_
_space_group_symop_operation_xyz
x,y,z
-x,1/2-y,1/2+z
x,-y,-z
-x,1/2+y,1/2-z
-x,-y,-z
x,1/2+y,1/2-z
-x,y,z
x,1/2-y,1/2+z
1/2+x,1/2+y,z
1/2-x,-y,1/2+z
1/2+x,1/2-y,-z
1/2-x,y,1/2-z
1/2-x,1/2-y,-z
1/2+x,y,1/2-z
1/2-x,1/2+y,z
1/2+x,-y,1/2+z
loop_
_atom_site_type_symbol
_atom_site_label
_atom_site_fract_x
_atom_site_fract_y
_atom_site_fract_z
Si Si1 0.286383 0.147951 0.963236
Si Si2 0.291410 0.711119 0.210189
Si Si3 0.438116 0.980964 0.326760
Si Si4 0.559295 0.138313 0.564891
Si Si5 0.900918 0.829247 0.466110
Si Si6 0.600950 0.171956 0.236618
Si Si7 0.907226 0.954400 0.625904
Si Si8 0.789607 0.501736 0.141295
O O1 0.261341 0.079409 0.909559
O O2 0.250000 0.250000 0.000000
O O3 0.341988 0.224821 0.951960
O O4 0.300713 0.000000 0.000000
O O5 0.250000 0.791355 0.250000
O O6 0.338569 0.644296 0.245945
O O7 0.254398 0.596636 0.174213
O O8 0.312747 0.852648 0.174073
O O9 0.500000 0.943060 0.327665
O O10 0.418094 0.980637 0.388713
O O11 0.407970 0.842954 0.292358
O O12 0.429621 0.139352 0.291441
O O13 0.500000 0.087843 0.557140
O O14 0.579245 0.190617 0.505982
O O15 0.563676 0.305561 0.598220
O O16 0.922253 0.888797 0.408433
O O17 0.905371 0.000000 0.500000
O O18 0.583243 0.050840 0.189305
O O19 0.843636 0.916402 0.620687
#
# Coordination Sequence:
#
# PCOD9478804 Si02
#       8
#    16  16  16  16  16  16  16  16
#     4  10  20  36  56  80 113 156 198 245 298 361
#     4  12  25  38  59  86 123 163 207 256 302 363
#     4  10  22  39  59  85 119 157 201 254 311 374
#     4   9  18  33  56  85 114 149 198 253 314 369
#     4   8  16  30  51  76 109 142 182 242 298 345
#     4  11  22  37  60  84 118 158 204 247 307 370
#     4   9  18  33  50  77 112 148 188 240 296 358
#     4  11  23  38  56  83 121 160 203 247 304 362
#
# _framework density 24.116737000000001
#
# number of rings (size 3 to 8) (size 9 to 14) (size 15 to 20)
#    0.000    2.000    1.250    3.000    1.750    3.750 
#    0.000    0.000    0.000    0.000    0.000    0.000 
#    0.000   19.500    0.000    0.000    0.000    0.000 
#
# Total GULP energy -356735.450851 kJ/mol
# GULP energy per Si atom -5573.991420 kJ/mol
# Density = 2.406185 g / cm^3
# Si number density = 24.116737 Si / 1000 Ang^3
#
#
#
# Elastic Constant Matrix: (Units=GPa)
#
#
# Indices 1 2 3 4 5 6 
#
# 1 53.1170 3.2601 12.2971 0.0000 0.0000 0.0000
# 2 3.2601 38.0559 14.6946 0.0000 0.0000 0.0000
# 3 12.2971 14.6946 112.1281 0.0000 0.0000 0.0000
# 4 0.0000 0.0000 0.0000 33.4080 0.0000 0.0000
# 5 0.0000 0.0000 0.0000 0.0000 32.7421 0.0000
# 6 0.0000 0.0000 0.0000 0.0000 0.0000 -29.8510
#
#
#
# Elastic Compliance Matrix: (Units=1/GPa)
#
#
# Indices 1 2 3 4 5 6 
#
# 1 0.019345 -0.000883 -0.002006 0.000000 0.000000 0.000000
# 2 -0.000883 0.027718 -0.003536 0.000000 0.000000 0.000000
# 3 -0.002006 -0.003536 0.009602 0.000000 0.000000 0.000000
# 4 0.000000 0.000000 0.000000 0.029933 0.000000 0.000000
# 5 0.000000 0.000000 0.000000 0.000000 0.030542 0.000000
# 6 0.000000 0.000000 0.000000 0.000000 0.000000 -0.033500
#
#
# Mechanical properties :
#
#
# Convention : Reuss Voigt Hill
#
# Bulk Modulus (GPa) = 22.82262 29.31161 26.06712
# Shear Modulus (GPa) = 45.00712 18.79642 31.90177
#
# Velocity S-wave (km/s) = 4.32466 2.79479 3.64099
# Velocity P-wave (km/s) = 5.86693 4.75341 5.33928
#
# Compressibility (1/GPa) = 0.04381617
#
# Stress axis : x y z
#
# Youngs Moduli (GPa) = 51.69311 36.07762 104.14804
#
# Poissons Ratio (x) = 0.03184 0.20891
# Poissons Ratio (y) = 0.04563 0.36824
# Poissons Ratio (z) = 0.10369 0.12756
#
# Static dielectric constant tensor:
#      x y z
#    x 2.009570 0.000000 0.000000 
#    y 0.000000 1.983050 0.000000 
#    z 0.000000 0.000000 2.012290 
# 
# From -- ./inp_files/46982.got.cif
#   From: 2010.05.17/outbox.cif.g08.bks.cpg/sg64_24_cif.got.tgz:46982.got - 2010.06.03 16:29:19.
