data_PCOD9478357
_publ_section_title
;
Structure prediction by ZEFSAII (Michael W. Deem and Ramdas Pophale) SiO2 
 PCOD9478357
Probable space group: C M C A
;
_chemical_formula_sum "Si O2"
_cell_formula_units_Z 64
_cell_length_a 15.619743
_cell_length_b 13.506463
_cell_length_c 15.732148
_cell_angle_alpha 90.000000
_cell_angle_beta 90.000000
_cell_angle_gamma 90.000000
_cell_volume 3318.971633
_symmetry_space_group_name_H-M "C M C A"
_symmetry_group_IT_number 64
_symmetry_cell_setting 'orthorhombic'
loop_
_space_group_symop_operation_xyz
x,y,z
-x,1/2-y,1/2+z
x,-y,-z
-x,1/2+y,1/2-z
-x,-y,-z
x,1/2+y,1/2-z
-x,y,z
x,1/2-y,1/2+z
1/2+x,1/2+y,z
1/2-x,-y,1/2+z
1/2+x,1/2-y,-z
1/2-x,y,1/2-z
1/2-x,1/2-y,-z
1/2+x,y,1/2-z
1/2-x,1/2+y,z
1/2+x,-y,1/2+z
loop_
_atom_site_type_symbol
_atom_site_label
_atom_site_fract_x
_atom_site_fract_y
_atom_site_fract_z
Si Si1 0.405123 0.149695 0.378616
Si Si2 0.767121 0.641934 0.039568
Si Si3 0.096367 0.614869 0.901954
Si Si4 0.159058 0.940799 0.708266
O O1 0.500000 0.125359 0.410349
O O2 0.328215 0.106109 0.435891
O O3 0.396943 0.269472 0.376868
O O4 0.392590 0.111863 0.282934
O O5 0.818764 0.631415 0.128567
O O6 0.750000 0.750000 0.000000
O O7 0.827557 0.595073 0.968246
O O8 0.111642 0.537424 0.826740
O O9 0.000000 0.601153 0.936966
O O10 0.250000 0.969780 0.750000
#
# Coordination Sequence:
#
# PCOD9478357 Si02
#       4
#    16  16  16  16
#     4   9  19  36  55  78 109 142 178 222 271 322
#     4   9  19  34  52  77 109 141 175 218 267 315
#     4  10  20  34  55  82 109 139 180 226 268 318
#     4  10  20  33  54  79 107 144 179 219 269 321
#
# _framework density 19.283082
#
# number of rings (size 3 to 8) (size 9 to 14) (size 15 to 20)
#    0.000    2.500    0.000    1.500    0.000    8.000 
#    0.000    0.000    0.000   13.500    0.000    0.000 
#    0.000    0.000    0.000    0.000    0.000    0.000 
#
# Total GULP energy -178199.789936 kJ/mol
# GULP energy per Si atom -5568.743435 kJ/mol
# Density = 1.923919 g / cm^3
# Si number density = 19.283082 Si / 1000 Ang^3
#
#
#
# Elastic Constant Matrix: (Units=GPa)
#
#
# Indices 1 2 3 4 5 6 
#
# 1 140.7586 40.0740 54.6431 0.0000 0.0000 0.0000
# 2 40.0740 68.0081 28.1129 0.0000 0.0000 0.0000
# 3 54.6431 28.1129 84.9575 0.0000 0.0000 0.0000
# 4 0.0000 0.0000 0.0000 37.0628 0.0000 0.0000
# 5 0.0000 0.0000 0.0000 0.0000 17.0564 0.0000
# 6 0.0000 0.0000 0.0000 0.0000 0.0000 7.5395
#
#
#
# Elastic Compliance Matrix: (Units=1/GPa)
#
#
# Indices 1 2 3 4 5 6 
#
# 1 0.010270 -0.003847 -0.005332 0.000000 0.000000 0.000000
# 2 -0.003847 0.018475 -0.003639 0.000000 0.000000 0.000000
# 3 -0.005332 -0.003639 0.016404 0.000000 0.000000 0.000000
# 4 0.000000 0.000000 0.000000 0.026981 0.000000 0.000000
# 5 0.000000 0.000000 0.000000 0.000000 0.058629 0.000000
# 6 0.000000 0.000000 0.000000 0.000000 0.000000 0.132634
#
#
# Mechanical properties :
#
#
# Convention : Reuss Voigt Hill
#
# Bulk Modulus (GPa) = 51.24963 59.93158 55.59061
# Shear Modulus (GPa) = 16.91843 23.72468 20.32156
#
# Velocity S-wave (km/s) = 2.96526 3.51142 3.24983
# Velocity P-wave (km/s) = 6.19346 6.89837 6.55539
#
# Compressibility (1/GPa) = 0.01951234
#
# Stress axis : x y z
#
# Youngs Moduli (GPa) = 97.37436 54.12579 60.95929
#
# Poissons Ratio (x) = 0.20823 0.32505
# Poissons Ratio (y) = 0.37462 0.22184
# Poissons Ratio (z) = 0.51922 0.19697
#
# Static dielectric constant tensor:
#      x y z
#    x 1.696770 0.000000 0.000000 
#    y 0.000000 1.668330 0.000000 
#    z 0.000000 0.000000 1.660880 
# 
# From -- ./inp_files/15507.got.cif
#   From: 2010.05.17/outbox.cif.g08.bks.cpg/sg64_8_cif.got.tgz:15507.got - 2010.06.03 16:29:19.
