data_PCOD9478156
_publ_section_title
;
Structure prediction by ZEFSAII (Michael W. Deem and Ramdas Pophale) SiO2 
 PCOD9478156
Probable space group: C M C A
;
_chemical_formula_sum "Si O2"
_cell_formula_units_Z 72
_cell_length_a 10.088547
_cell_length_b 11.269777
_cell_length_c 25.303115
_cell_angle_alpha 90.000000
_cell_angle_beta 90.000000
_cell_angle_gamma 90.000000
_cell_volume 2876.854738
_symmetry_space_group_name_H-M "C M C A"
_symmetry_group_IT_number 64
_symmetry_cell_setting 'orthorhombic'
loop_
_space_group_symop_operation_xyz
x,y,z
-x,1/2-y,1/2+z
x,-y,-z
-x,1/2+y,1/2-z
-x,-y,-z
x,1/2+y,1/2-z
-x,y,z
x,1/2-y,1/2+z
1/2+x,1/2+y,z
1/2-x,-y,1/2+z
1/2+x,1/2-y,-z
1/2-x,y,1/2-z
1/2-x,1/2-y,-z
1/2+x,y,1/2-z
1/2-x,1/2+y,z
1/2+x,-y,1/2+z
loop_
_atom_site_type_symbol
_atom_site_label
_atom_site_fract_x
_atom_site_fract_y
_atom_site_fract_z
Si Si1 0.708150 0.580926 0.083257
Si Si2 0.000000 0.005561 0.409744
Si Si3 0.500000 0.360877 0.299530
Si Si4 0.500000 0.743770 0.536507
Si Si5 0.269227 0.834636 0.693723
Si Si6 0.000000 0.108464 0.935142
Si Si7 0.000000 0.310684 0.316135
O O1 0.864961 0.574236 0.077673
O O2 0.631038 0.696285 0.062549
O O3 0.689440 0.580146 0.146637
O O4 0.630850 0.471776 0.057324
O O5 0.000000 0.955162 0.348160
O O6 0.000000 0.891417 0.447619
O O7 0.374182 0.273020 0.305075
O O8 0.500000 0.393149 0.236733
O O9 0.500000 0.786025 0.476405
O O10 0.250000 0.897055 0.750000
O O11 0.128689 0.772663 0.684793
O O12 0.000000 0.136034 0.873837
#
# Coordination Sequence:
#
# PCOD9478156 Si02
#       7
#    16   8   8   8  16   8   8
#     4  11  23  43  69  99 135 177 234 276 343 416
#     4  12  24  42  75 106 129 184 232 281 352 407
#     4  10  19  39  65  95 140 176 216 283 345 408
#     4  11  26  52  66  94 150 178 225 302 336 394
#     4  10  20  38  65  97 140 176 212 285 347 396
#     4  11  25  45  66  94 136 187 228 283 347 401
#     4  10  22  38  63  99 131 177 227 269 344 417
#
# _framework density 25.027334
#
# number of rings (size 3 to 8) (size 9 to 14) (size 15 to 20)
#    0.000    1.333    2.222    4.000    0.000    2.667 
#    4.000    2.222    0.000    0.000    0.000    0.000 
#    0.000    0.000    0.000    0.000    0.000    0.000 
#
# Total GULP energy -201641.406843 kJ/mol
# GULP energy per Si atom -5601.150190 kJ/mol
# Density = 2.497037 g / cm^3
# Si number density = 25.027334 Si / 1000 Ang^3
#
#
#
# Elastic Constant Matrix: (Units=GPa)
#
#
# Indices 1 2 3 4 5 6 
#
# 1 195.6024 40.1796 69.9288 0.0000 0.0000 0.0000
# 2 40.1796 49.9261 51.6965 0.0000 0.0000 0.0000
# 3 69.9288 51.6965 154.7071 0.0000 0.0000 0.0000
# 4 0.0000 0.0000 0.0000 31.1012 0.0000 0.0000
# 5 0.0000 0.0000 0.0000 0.0000 14.0209 0.0000
# 6 0.0000 0.0000 0.0000 0.0000 0.0000 1.6671
#
#
#
# Elastic Compliance Matrix: (Units=1/GPa)
#
#
# Indices 1 2 3 4 5 6 
#
# 1 0.006438 -0.003315 -0.001802 0.000000 0.000000 0.000000
# 2 -0.003315 0.032333 -0.009306 0.000000 0.000000 0.000000
# 3 -0.001802 -0.009306 0.010388 0.000000 0.000000 0.000000
# 4 0.000000 0.000000 0.000000 0.032153 0.000000 0.000000
# 5 0.000000 0.000000 0.000000 0.000000 0.071322 0.000000
# 6 0.000000 0.000000 0.000000 0.000000 0.000000 0.599853
#
#
# Mechanical properties :
#
#
# Convention : Reuss Voigt Hill
#
# Bulk Modulus (GPa) = 49.22962 80.42728 64.82845
# Shear Modulus (GPa) = 6.34433 25.25322 15.79878
#
# Velocity S-wave (km/s) = 1.59388 3.17996 2.51522
# Velocity P-wave (km/s) = 4.80628 6.75932 5.86467
#
# Compressibility (1/GPa) = 0.02031298
#
# Stress axis : x y z
#
# Youngs Moduli (GPa) = 155.33719 30.92769 96.26346
#
# Poissons Ratio (x) = 0.10252 0.17349
# Poissons Ratio (y) = 0.51491 0.89584
# Poissons Ratio (z) = 0.27995 0.28782
#
# Static dielectric constant tensor:
#      x y z
#    x 1.930240 0.000000 0.000000 
#    y 0.000000 1.933380 0.000000 
#    z 0.000000 0.000000 2.057730 
# 
# From -- ./inp_files/47669.got.cif
#   From: 2010.05.17/outbox.cif.g08.bks.cpg/sg64_24_cif.got.tgz:47669.got - 2010.06.03 16:29:19.
