data_PCOD9478272
_publ_section_title
;
Structure prediction by ZEFSAII (Michael W. Deem and Ramdas Pophale) SiO2 
 PCOD9478272
Probable space group: C M C A
;
_chemical_formula_sum "Si O2"
_cell_formula_units_Z 44
_cell_length_a 21.578326
_cell_length_b 5.130834
_cell_length_c 14.505955
_cell_angle_alpha 90.000000
_cell_angle_beta 90.000000
_cell_angle_gamma 90.000000
_cell_volume 1606.024033
_symmetry_space_group_name_H-M "C M C A"
_symmetry_group_IT_number 64
_symmetry_cell_setting 'orthorhombic'
loop_
_space_group_symop_operation_xyz
x,y,z
-x,1/2-y,1/2+z
x,-y,-z
-x,1/2+y,1/2-z
-x,-y,-z
x,1/2+y,1/2-z
-x,y,z
x,1/2-y,1/2+z
1/2+x,1/2+y,z
1/2-x,-y,1/2+z
1/2+x,1/2-y,-z
1/2-x,y,1/2-z
1/2-x,1/2-y,-z
1/2+x,y,1/2-z
1/2-x,1/2+y,z
1/2+x,-y,1/2+z
loop_
_atom_site_type_symbol
_atom_site_label
_atom_site_fract_x
_atom_site_fract_y
_atom_site_fract_z
Si Si1 0.394717 0.864145 0.412152
Si Si2 0.000000 0.141265 0.196522
Si Si3 0.284088 0.475528 0.612029
Si Si4 0.000000 0.000000 0.500000
O O1 0.436066 0.068142 0.354440
O O2 0.347062 0.674115 0.360922
O O3 0.446724 0.689138 0.458087
O O4 0.361927 0.000000 0.500000
O O5 0.000000 0.945716 0.282769
O O6 0.286259 0.500000 0.500000
O O7 0.269120 0.769021 0.642435
#
# Coordination Sequence:
#
# PCOD9478272 Si02
#       4
#    16   8  16   4
#     4  11  23  39  66  92 128 165 213 262 316 380
#     4  11  28  43  62  90 130 169 210 263 321 377
#     4  10  20  34  58  96 128 155 199 263 318 360
#     4  10  20  32  56  90 116 158 200 250 298 372
#
# _framework density 27.396851000000002
#
# number of rings (size 3 to 8) (size 9 to 14) (size 15 to 20)
#    0.000    1.455    1.818    5.455   10.182    0.000 
#    0.000    0.000    0.000    6.545    0.000    0.000 
#    0.000    0.000    0.000    0.000    0.000    0.000 
#
# Total GULP energy -122726.533944 kJ/mol
# GULP energy per Si atom -5578.478816 kJ/mol
# Density = 2.733449 g / cm^3
# Si number density = 27.396851 Si / 1000 Ang^3
#
#
#
# Elastic Constant Matrix: (Units=GPa)
#
#
# Indices 1 2 3 4 5 6 
#
# 1 136.9018 19.9852 4.5144 0.0000 0.0000 0.0000
# 2 19.9852 138.4200 29.7252 0.0000 0.0000 0.0000
# 3 4.5144 29.7252 43.3497 0.0000 0.0000 0.0000
# 4 0.0000 0.0000 0.0000 41.4943 0.0000 0.0000
# 5 0.0000 0.0000 0.0000 0.0000 18.3858 0.0000
# 6 0.0000 0.0000 0.0000 0.0000 0.0000 39.8427
#
#
#
# Elastic Compliance Matrix: (Units=1/GPa)
#
#
# Indices 1 2 3 4 5 6 
#
# 1 0.007462 -0.001068 -0.000045 0.000000 0.000000 0.000000
# 2 -0.001068 0.008625 -0.005803 0.000000 0.000000 0.000000
# 3 -0.000045 -0.005803 0.027052 0.000000 0.000000 0.000000
# 4 0.000000 0.000000 0.000000 0.024100 0.000000 0.000000
# 5 0.000000 0.000000 0.000000 0.000000 0.054390 0.000000
# 6 0.000000 0.000000 0.000000 0.000000 0.000000 0.025099
#
#
# Mechanical properties :
#
#
# Convention : Reuss Voigt Hill
#
# Bulk Modulus (GPa) = 34.12090 47.45790 40.78940
# Shear Modulus (GPa) = 29.35535 37.57434 33.46485
#
# Velocity S-wave (km/s) = 3.27691 3.70737 3.49877
# Velocity P-wave (km/s) = 5.17676 5.97379 5.58950
#
# Compressibility (1/GPa) = 0.02930755
#
# Stress axis : x y z
#
# Youngs Moduli (GPa) = 134.01494 115.94632 36.96594
#
# Poissons Ratio (x) = 0.12380 0.00166
# Poissons Ratio (y) = 0.14309 0.21451
# Poissons Ratio (z) = 0.00602 0.67282
#
# Static dielectric constant tensor:
#      x y z
#    x 2.055670 0.000000 0.000000 
#    y 0.000000 2.093150 0.000000 
#    z 0.000000 0.000000 2.341150 
# 
# From -- ./inp_files/34727.got.cif
#   From: 2010.05.17/outbox.cif.g08.bks.cpg/sg64_18_cif.got.tgz:34727.got - 2010.06.03 16:29:19.
