data_PCOD9478471
_publ_section_title
;
Structure prediction by ZEFSAII (Michael W. Deem and Ramdas Pophale) SiO2 
 PCOD9478471
Probable space group: C M C A
;
_chemical_formula_sum "Si O2"
_cell_formula_units_Z 80
_cell_length_a 16.185327
_cell_length_b 30.680555
_cell_length_c 7.780861
_cell_angle_alpha 90.000000
_cell_angle_beta 90.000000
_cell_angle_gamma 90.000000
_cell_volume 3863.779613
_symmetry_space_group_name_H-M "C M C A"
_symmetry_group_IT_number 64
_symmetry_cell_setting 'orthorhombic'
loop_
_space_group_symop_operation_xyz
x,y,z
-x,1/2-y,1/2+z
x,-y,-z
-x,1/2+y,1/2-z
-x,-y,-z
x,1/2+y,1/2-z
-x,y,z
x,1/2-y,1/2+z
1/2+x,1/2+y,z
1/2-x,-y,1/2+z
1/2+x,1/2-y,-z
1/2-x,y,1/2-z
1/2-x,1/2-y,-z
1/2+x,y,1/2-z
1/2-x,1/2+y,z
1/2+x,-y,1/2+z
loop_
_atom_site_type_symbol
_atom_site_label
_atom_site_fract_x
_atom_site_fract_y
_atom_site_fract_z
Si Si1 0.900546 0.549441 0.014556
Si Si2 0.341575 0.788664 0.322322
Si Si3 0.598459 0.105453 0.327578
Si Si4 0.905110 0.201655 0.181700
Si Si5 0.152341 0.884222 0.219615
O O1 0.881856 0.580180 0.851641
O O2 0.000000 0.547755 0.028703
O O3 0.869569 0.500000 0.000000
O O4 0.868256 0.571268 0.190133
O O5 0.250000 0.783161 0.250000
O O6 0.392167 0.744609 0.291931
O O7 0.341313 0.795000 0.525770
O O8 0.378688 0.834240 0.250684
O O9 0.500000 0.098828 0.348365
O O10 0.609286 0.153634 0.243771
O O11 0.634429 0.104571 0.519972
O O12 0.000000 0.201363 0.116502
O O13 0.250000 0.882249 0.250000
#
# Coordination Sequence:
#
# PCOD9478471 Si02
#       5
#    16  16  16  16  16
#     4  10  22  41  65  90 114 153 203 245 300 360
#     4  10  21  36  54  80 117 158 194 235 294 356
#     4   9  20  39  60  87 122 155 196 251 296 346
#     4  10  20  34  54  85 115 151 199 241 287 342
#     4  10  22  40  59  87 122 159 197 242 301 359
#
# _framework density 20.705113999999998
#
# number of rings (size 3 to 8) (size 9 to 14) (size 15 to 20)
#    0.000    2.200    0.000    1.800    2.800    4.000 
#    3.600    3.000    0.000    0.000    0.000    0.000 
#    0.000    0.000    0.000    0.000    0.000    0.000 
#
# Total GULP energy -223116.553738 kJ/mol
# GULP energy per Si atom -5577.913843 kJ/mol
# Density = 2.065799 g / cm^3
# Si number density = 20.705114 Si / 1000 Ang^3
#
#
#
# Elastic Constant Matrix: (Units=GPa)
#
#
# Indices 1 2 3 4 5 6 
#
# 1 22.1355 34.0855 11.1272 0.0000 0.0000 0.0000
# 2 34.0855 158.2744 80.7576 0.0000 0.0000 0.0000
# 3 11.1272 80.7576 93.9682 0.0000 0.0000 0.0000
# 4 0.0000 0.0000 0.0000 35.5440 0.0000 0.0000
# 5 0.0000 0.0000 0.0000 0.0000 -46.9259 0.0000
# 6 0.0000 0.0000 0.0000 0.0000 0.0000 62.7115
#
#
#
# Elastic Compliance Matrix: (Units=1/GPa)
#
#
# Indices 1 2 3 4 5 6 
#
# 1 0.071168 -0.019638 0.008450 0.000000 0.000000 0.000000
# 2 -0.019638 0.016671 -0.012002 0.000000 0.000000 0.000000
# 3 0.008450 -0.012002 0.019956 0.000000 0.000000 0.000000
# 4 0.000000 0.000000 0.000000 0.028134 0.000000 0.000000
# 5 0.000000 0.000000 0.000000 0.000000 -0.021310 0.000000
# 6 0.000000 0.000000 0.000000 0.000000 0.000000 0.015946
#
#
# Mechanical properties :
#
#
# Convention : Reuss Voigt Hill
#
# Bulk Modulus (GPa) = 16.28263 58.47984 37.38123
# Shear Modulus (GPa) = 25.32700 20.15978 22.74339
#
# Velocity S-wave (km/s) = 3.50126 3.12374 3.31787
# Velocity P-wave (km/s) = 4.92201 6.42774 5.72460
#
# Compressibility (1/GPa) = 0.06141514
#
# Stress axis : x y z
#
# Youngs Moduli (GPa) = 14.05120 59.98355 50.11005
#
# Poissons Ratio (x) = 1.17796 -0.42342
# Poissons Ratio (y) = 0.27594 0.60142
# Poissons Ratio (z) = -0.11873 0.71993
#
# Static dielectric constant tensor:
#      x y z
#    x 1.740950 0.000000 0.000000 
#    y 0.000000 1.802430 0.000000 
#    z 0.000000 0.000000 1.733060 
# 
# From -- ./inp_files/7133.got.cif
#   From: 2010.05.17/outbox.cif.g08.bks.cpg/sg64_4_cif.got.tgz:7133.got - 2010.06.03 16:29:19.
