data_PCOD9478245
_publ_section_title
;
Structure prediction by ZEFSAII (Michael W. Deem and Ramdas Pophale) SiO2 
 PCOD9478245
Probable space group: C M C A
;
_chemical_formula_sum "Si O2"
_cell_formula_units_Z 96
_cell_length_a 8.743657
_cell_length_b 25.896382
_cell_length_c 25.936357
_cell_angle_alpha 90.000000
_cell_angle_beta 90.000000
_cell_angle_gamma 90.000000
_cell_volume 5872.745499
_symmetry_space_group_name_H-M "C M C A"
_symmetry_group_IT_number 64
_symmetry_cell_setting 'orthorhombic'
loop_
_space_group_symop_operation_xyz
x,y,z
-x,1/2-y,1/2+z
x,-y,-z
-x,1/2+y,1/2-z
-x,-y,-z
x,1/2+y,1/2-z
-x,y,z
x,1/2-y,1/2+z
1/2+x,1/2+y,z
1/2-x,-y,1/2+z
1/2+x,1/2-y,-z
1/2-x,y,1/2-z
1/2-x,1/2-y,-z
1/2+x,y,1/2-z
1/2-x,1/2+y,z
1/2+x,-y,1/2+z
loop_
_atom_site_type_symbol
_atom_site_label
_atom_site_fract_x
_atom_site_fract_y
_atom_site_fract_z
Si Si1 0.182652 0.111620 0.307873
Si Si2 0.316244 0.307883 0.503384
Si Si3 0.816488 0.812032 0.389124
Si Si4 0.317572 0.609334 0.807520
Si Si5 0.683569 0.809564 0.610899
Si Si6 0.683475 0.005288 0.307911
O O1 0.250000 0.116652 0.250000
O O2 0.243422 0.157516 0.343478
O O3 0.000000 0.111361 0.305112
O O4 0.242121 0.056844 0.330675
O O5 0.500000 0.306276 0.507821
O O6 0.250000 0.250000 0.500000
O O7 0.277086 0.330857 0.447232
O O8 0.244399 0.329775 0.555608
O O9 0.741903 0.846911 0.345616
O O10 0.774240 0.751310 0.384552
O O11 0.000000 0.814603 0.384150
O O12 0.500000 0.611857 0.803246
O O13 0.250000 0.614951 0.750000
O O14 0.278566 0.551735 0.828772
O O15 0.500000 0.813004 0.612210
O O16 0.500000 0.011252 0.306701
O O17 0.750000 0.003773 0.250000
#
# Coordination Sequence:
#
# PCOD9478245 Si02
#       6
#    16  16  16  16  16  16
#     4  11  21  33  51  74  99 130 163 200 244 291
#     4   9  17  31  50  72  96 127 165 203 241 286
#     4   9  19  33  50  72 100 130 161 197 240 287
#     4  10  20  32  50  73  99 130 163 199 242 287
#     4  10  20  34  51  73 100 131 164 202 244 290
#     4   9  17  31  49  70  94 124 162 201 238 283
#
# _framework density 16.346699000000001
#
# number of rings (size 3 to 8) (size 9 to 14) (size 15 to 20)
#    0.000    2.333    0.000    5.500    0.000    6.667 
#    0.000    0.000    0.000    1.000    0.000    7.000 
#    0.000    0.000    0.000    0.000    0.000    0.000 
#
# Total GULP energy -267413.445234 kJ/mol
# GULP energy per Si atom -5571.113442 kJ/mol
# Density = 1.630949 g / cm^3
# Si number density = 16.346699 Si / 1000 Ang^3
#
#
#
# Elastic Constant Matrix: (Units=GPa)
#
#
# Indices 1 2 3 4 5 6 
#
# 1 81.4713 50.3912 48.2937 0.0000 0.0000 0.0000
# 2 50.3912 101.9866 66.8430 0.0000 0.0000 0.0000
# 3 48.2937 66.8430 108.3212 0.0000 0.0000 0.0000
# 4 0.0000 0.0000 0.0000 0.7804 0.0000 0.0000
# 5 0.0000 0.0000 0.0000 0.0000 30.1793 0.0000
# 6 0.0000 0.0000 0.0000 0.0000 0.0000 23.1284
#
#
#
# Elastic Compliance Matrix: (Units=1/GPa)
#
#
# Indices 1 2 3 4 5 6 
#
# 1 0.018882 -0.006401 -0.004469 0.000000 0.000000 0.000000
# 2 -0.006401 0.018634 -0.008645 0.000000 0.000000 0.000000
# 3 -0.004469 -0.008645 0.016559 0.000000 0.000000 0.000000
# 4 0.000000 0.000000 0.000000 1.281450 0.000000 0.000000
# 5 0.000000 0.000000 0.000000 0.000000 0.033135 0.000000
# 6 0.000000 0.000000 0.000000 0.000000 0.000000 0.043237
#
#
# Mechanical properties :
#
#
# Convention : Reuss Voigt Hill
#
# Bulk Modulus (GPa) = 66.46245 69.20387 67.83316
# Shear Modulus (GPa) = 3.43421 19.23436 11.33428
#
# Velocity S-wave (km/s) = 1.45101 3.43396 2.63605
# Velocity P-wave (km/s) = 6.59951 7.62560 7.13103
#
# Compressibility (1/GPa) = 0.01504609
#
# Stress axis : x y z
#
# Youngs Moduli (GPa) = 52.96022 53.66623 60.39175
#
# Poissons Ratio (x) = 0.34351 0.26986
# Poissons Ratio (y) = 0.33899 0.52207
# Poissons Ratio (z) = 0.23665 0.46393
#
# Static dielectric constant tensor:
#      x y z
#    x 1.547020 0.000000 0.000000 
#    y 0.000000 1.501910 0.000000 
#    z 0.000000 0.000000 1.455890 
# 
# From -- ./inp_files/37067.got.cif
#   From: 2010.05.17/outbox.cif.g08.bks.cpg/sg64_19_cif.got.tgz:37067.got - 2010.06.03 16:29:19.
