data_PCOD9478387
_publ_section_title
;
Structure prediction by ZEFSAII (Michael W. Deem and Ramdas Pophale) SiO2 
 PCOD9478387
Probable space group: C M C A
;
_chemical_formula_sum "Si O2"
_cell_formula_units_Z 116
_cell_length_a 26.034657
_cell_length_b 10.453446
_cell_length_c 22.332771
_cell_angle_alpha 90.000000
_cell_angle_beta 90.000000
_cell_angle_gamma 90.000000
_cell_volume 6077.905637
_symmetry_space_group_name_H-M "C M C A"
_symmetry_group_IT_number 64
_symmetry_cell_setting 'orthorhombic'
loop_
_space_group_symop_operation_xyz
x,y,z
-x,1/2-y,1/2+z
x,-y,-z
-x,1/2+y,1/2-z
-x,-y,-z
x,1/2+y,1/2-z
-x,y,z
x,1/2-y,1/2+z
1/2+x,1/2+y,z
1/2-x,-y,1/2+z
1/2+x,1/2-y,-z
1/2-x,y,1/2-z
1/2-x,1/2-y,-z
1/2+x,y,1/2-z
1/2-x,1/2+y,z
1/2+x,-y,1/2+z
loop_
_atom_site_type_symbol
_atom_site_label
_atom_site_fract_x
_atom_site_fract_y
_atom_site_fract_z
Si Si1 0.595689 0.678172 0.518293
Si Si2 0.205870 0.142976 0.558430
Si Si3 0.438974 0.401194 0.181666
Si Si4 0.561097 0.843049 0.612423
Si Si5 0.380152 0.668277 0.377772
Si Si6 0.768071 0.872416 0.583040
Si Si7 0.939865 0.071801 0.676037
Si Si8 0.500000 0.000000 0.000000
O O1 0.645108 0.619941 0.552074
O O2 0.586940 0.815605 0.548638
O O3 0.604187 0.684492 0.447483
O O4 0.545202 0.593791 0.527179
O O5 0.220196 0.144521 0.488001
O O6 0.220882 0.275244 0.590705
O O7 0.235765 0.025342 0.589006
O O8 0.500000 0.375952 0.170056
O O9 0.422957 0.529380 0.146512
O O10 0.405335 0.283362 0.159114
O O11 0.433747 0.423574 0.252414
O O12 0.500000 0.852741 0.604304
O O13 0.570796 0.713881 0.650742
O O14 0.318273 0.667482 0.379469
O O15 0.404539 0.538481 0.351550
O O16 0.000000 0.040456 0.663247
#
# Coordination Sequence:
#
# PCOD9478387 Si02
#       8
#    16  16  16  16  16  16  16   4
#     4  11  22  32  54  87 121 158 192 243 300 366
#     4   9  18  35  52  81 118 145 192 238 293 358
#     4  10  22  37  52  77 118 160 200 247 298 357
#     4  10  20  34  50  76 113 150 189 236 295 354
#     4  11  22  35  57  88 113 153 205 246 297 363
#     4   9  18  33  55  79 110 147 186 243 294 347
#     4  10  20  35  57  79 109 157 207 250 289 346
#     4  12  20  32  52  82 124 160 200 230 282 362
#
# _framework density 19.085521
#
# number of rings (size 3 to 8) (size 9 to 14) (size 15 to 20)
#    0.000    1.931    0.690    4.552    3.862    3.862 
#    0.000    4.138    0.000    0.000    0.000   16.414 
#    0.000    0.000    0.000    0.000    0.000    0.000 
#
# Total GULP energy -323005.293743 kJ/mol
# GULP energy per Si atom -5569.056789 kJ/mol
# Density = 1.904208 g / cm^3
# Si number density = 19.085521 Si / 1000 Ang^3
#
#
#
# Elastic Constant Matrix: (Units=GPa)
#
#
# Indices 1 2 3 4 5 6 
#
# 1 78.0088 42.1190 18.4751 0.0000 0.0000 0.0000
# 2 42.1190 83.5666 17.4768 0.0000 0.0000 0.0000
# 3 18.4751 17.4768 59.8744 0.0000 0.0000 0.0000
# 4 0.0000 0.0000 0.0000 13.0963 0.0000 0.0000
# 5 0.0000 0.0000 0.0000 0.0000 18.2262 0.0000
# 6 0.0000 0.0000 0.0000 0.0000 0.0000 23.0757
#
#
#
# Elastic Compliance Matrix: (Units=1/GPa)
#
#
# Indices 1 2 3 4 5 6 
#
# 1 0.018143 -0.008492 -0.003120 0.000000 0.000000 0.000000
# 2 -0.008492 0.016719 -0.002260 0.000000 0.000000 0.000000
# 3 -0.003120 -0.002260 0.018324 0.000000 0.000000 0.000000
# 4 0.000000 0.000000 0.000000 0.076357 0.000000 0.000000
# 5 0.000000 0.000000 0.000000 0.000000 0.054866 0.000000
# 6 0.000000 0.000000 0.000000 0.000000 0.000000 0.043336
#
#
# Mechanical properties :
#
#
# Convention : Reuss Voigt Hill
#
# Bulk Modulus (GPa) = 39.30312 41.95462 40.62887
# Shear Modulus (GPa) = 18.94163 20.43823 19.68993
#
# Velocity S-wave (km/s) = 3.15375 3.27597 3.21544
# Velocity P-wave (km/s) = 5.82232 6.02823 5.92617
#
# Compressibility (1/GPa) = 0.02544327
#
# Stress axis : x y z
#
# Youngs Moduli (GPa) = 55.11805 59.81155 54.57365
#
# Poissons Ratio (x) = 0.50791 0.17025
# Poissons Ratio (y) = 0.46806 0.12333
# Poissons Ratio (z) = 0.17194 0.13517
#
# Static dielectric constant tensor:
#      x y z
#    x 1.680230 0.000000 0.000000 
#    y 0.000000 1.700880 0.000000 
#    z 0.000000 0.000000 1.675720 
# 
# From -- ./inp_files/46936.got.cif
#   From: 2010.05.17/outbox.cif.g08.bks.cpg/sg64_24_cif.got.tgz:46936.got - 2010.06.03 16:29:19.
