data_PCOD9478709
_publ_section_title
;
Structure prediction by ZEFSAII (Michael W. Deem and Ramdas Pophale) SiO2 
 PCOD9478709
Probable space group: C M C A
;
_chemical_formula_sum "Si O2"
_cell_formula_units_Z 72
_cell_length_a 22.466652
_cell_length_b 10.231211
_cell_length_c 15.343862
_cell_angle_alpha 90.000000
_cell_angle_beta 90.000000
_cell_angle_gamma 90.000000
_cell_volume 3526.956339
_symmetry_space_group_name_H-M "C M C A"
_symmetry_group_IT_number 64
_symmetry_cell_setting 'orthorhombic'
loop_
_space_group_symop_operation_xyz
x,y,z
-x,1/2-y,1/2+z
x,-y,-z
-x,1/2+y,1/2-z
-x,-y,-z
x,1/2+y,1/2-z
-x,y,z
x,1/2-y,1/2+z
1/2+x,1/2+y,z
1/2-x,-y,1/2+z
1/2+x,1/2-y,-z
1/2-x,y,1/2-z
1/2-x,1/2-y,-z
1/2+x,y,1/2-z
1/2-x,1/2+y,z
1/2+x,-y,1/2+z
loop_
_atom_site_type_symbol
_atom_site_label
_atom_site_fract_x
_atom_site_fract_y
_atom_site_fract_z
Si Si1 0.433371 0.982390 0.898261
Si Si2 0.693987 0.928978 0.690402
Si Si3 0.126556 0.834577 0.270742
Si Si4 0.158681 0.000000 0.000000
Si Si5 0.431055 0.810116 0.400266
O O1 0.500000 0.982723 0.859404
O O2 0.408054 0.837565 0.890382
O O3 0.394184 0.095128 0.858058
O O4 0.438961 0.000000 0.000000
O O5 0.750000 0.888539 0.750000
O O6 0.646261 0.813125 0.709165
O O7 0.695803 0.948055 0.584590
O O8 0.676388 0.071268 0.728533
O O9 0.074258 0.854535 0.199755
O O10 0.113438 0.108941 0.960967
O O11 0.500000 0.812437 0.430318
#
# Coordination Sequence:
#
# PCOD9478709 Si02
#       5
#    16  16  16   8  16
#     4  10  20  35  58  91 129 166 206 256 317 388
#     4  11  24  44  65  92 126 171 229 279 330 387
#     4  11  21  41  63  90 130 169 214 268 327 384
#     4  10  23  42  68  96 134 174 217 280 330 396
#     4  10  20  37  62  99 132 170 212 255 324 401
#
# _framework density 20.414202
#
# number of rings (size 3 to 8) (size 9 to 14) (size 15 to 20)
#    0.000    1.556    2.222    3.000    0.000    0.000 
#    2.000    7.778    0.000    0.000    0.000    0.000 
#    0.000    0.000    0.000    0.000    0.000    0.000 
#
# Total GULP energy -200426.851405 kJ/mol
# GULP energy per Si atom -5567.412539 kJ/mol
# Density = 2.036774 g / cm^3
# Si number density = 20.414202 Si / 1000 Ang^3
#
#
#
# Elastic Constant Matrix: (Units=GPa)
#
#
# Indices 1 2 3 4 5 6 
#
# 1 39.1872 13.1509 35.0721 0.0000 0.0000 0.0000
# 2 13.1509 73.5058 28.9312 0.0000 0.0000 0.0000
# 3 35.0721 28.9312 139.8782 0.0000 0.0000 0.0000
# 4 0.0000 0.0000 0.0000 29.7763 0.0000 0.0000
# 5 0.0000 0.0000 0.0000 0.0000 28.4798 0.0000
# 6 0.0000 0.0000 0.0000 0.0000 0.0000 28.8965
#
#
#
# Elastic Compliance Matrix: (Units=1/GPa)
#
#
# Indices 1 2 3 4 5 6 
#
# 1 0.033469 -0.002923 -0.007787 0.000000 0.000000 0.000000
# 2 -0.002923 0.015065 -0.002383 0.000000 0.000000 0.000000
# 3 -0.007787 -0.002383 0.009594 0.000000 0.000000 0.000000
# 4 0.000000 0.000000 0.000000 0.033584 0.000000 0.000000
# 5 0.000000 0.000000 0.000000 0.000000 0.035113 0.000000
# 6 0.000000 0.000000 0.000000 0.000000 0.000000 0.034606
#
#
# Mechanical properties :
#
#
# Convention : Reuss Voigt Hill
#
# Bulk Modulus (GPa) = 31.30659 45.20886 38.25773
# Shear Modulus (GPa) = 25.21874 29.12498 27.17186
#
# Velocity S-wave (km/s) = 3.51857 3.78127 3.65228
# Velocity P-wave (km/s) = 5.64589 6.42323 6.04706
#
# Compressibility (1/GPa) = 0.03194216
#
# Stress axis : x y z
#
# Youngs Moduli (GPa) = 29.87848 66.37778 104.22654
#
# Poissons Ratio (x) = 0.19402 0.81163
# Poissons Ratio (y) = 0.08733 0.24838
# Poissons Ratio (z) = 0.23267 0.15818
#
# Static dielectric constant tensor:
#      x y z
#    x 1.797490 0.000000 0.000000 
#    y 0.000000 1.607710 0.000000 
#    z 0.000000 0.000000 1.875900 
# 
# From -- ./inp_files/27804.got.cif
#   From: 2010.05.17/outbox.cif.g08.bks.cpg/sg64_14_cif.got.tgz:27804.got - 2010.06.03 16:29:19.
