data_PCOD9478310
_publ_section_title
;
Structure prediction by ZEFSAII (Michael W. Deem and Ramdas Pophale) SiO2 
 PCOD9478310
Probable space group: C M C A
;
_chemical_formula_sum "Si O2"
_cell_formula_units_Z 72
_cell_length_a 16.475271
_cell_length_b 12.897763
_cell_length_c 13.437039
_cell_angle_alpha 90.000000
_cell_angle_beta 90.000000
_cell_angle_gamma 90.000000
_cell_volume 2855.292056
_symmetry_space_group_name_H-M "C M C A"
_symmetry_group_IT_number 64
_symmetry_cell_setting 'orthorhombic'
loop_
_space_group_symop_operation_xyz
x,y,z
-x,1/2-y,1/2+z
x,-y,-z
-x,1/2+y,1/2-z
-x,-y,-z
x,1/2+y,1/2-z
-x,y,z
x,1/2-y,1/2+z
1/2+x,1/2+y,z
1/2-x,-y,1/2+z
1/2+x,1/2-y,-z
1/2-x,y,1/2-z
1/2-x,1/2-y,-z
1/2+x,y,1/2-z
1/2-x,1/2+y,z
1/2+x,-y,1/2+z
loop_
_atom_site_type_symbol
_atom_site_label
_atom_site_fract_x
_atom_site_fract_y
_atom_site_fract_z
Si Si1 0.185268 0.139502 0.325824
Si Si2 0.706485 0.500000 0.500000
Si Si3 0.407096 0.166698 0.891286
Si Si4 0.657302 0.058580 0.715216
Si Si5 0.096190 0.817018 0.051201
O O1 0.250000 0.188551 0.250000
O O2 0.235631 0.073589 0.409268
O O3 0.129793 0.219222 0.384958
O O4 0.136512 0.054507 0.259836
O O5 0.650485 0.417619 0.441455
O O6 0.500000 0.146292 0.919535
O O7 0.395678 0.143504 0.775536
O O8 0.387571 0.278722 0.938332
O O9 0.750000 0.074758 0.750000
O O10 0.642629 0.085723 0.599781
O O11 0.000000 0.833479 0.061482
#
# Coordination Sequence:
#
# PCOD9478310 Si02
#       5
#    16   8  16  16  16
#     4   9  18  33  51  74 100 127 162 203 248 292
#     4   8  15  28  50  74  95 124 166 208 245 280
#     4   9  17  30  49  72  98 127 164 207 244 282
#     4  10  20  33  51  74 101 132 162 200 248 296
#     4  10  20  33  52  76  99 129 167 205 246 289
#
# _framework density 25.216332999999999
#
# number of rings (size 3 to 8) (size 9 to 14) (size 15 to 20)
#    0.000    2.667    0.000    1.667    0.000    7.111 
#    0.000    4.444    0.000    0.000    0.000    5.444 
#    0.000    0.000    0.000    0.000    0.000    0.000 
#
# Total GULP energy -200890.020732 kJ/mol
# GULP energy per Si atom -5580.278354 kJ/mol
# Density = 2.515894 g / cm^3
# Si number density = 25.216333 Si / 1000 Ang^3
#
#
#
# Elastic Constant Matrix: (Units=GPa)
#
#
# Indices 1 2 3 4 5 6 
#
# 1 69.7043 7.3831 -16.6085 0.0000 0.0000 0.0000
# 2 7.3831 68.7596 4.0777 0.0000 0.0000 0.0000
# 3 -16.6085 4.0777 66.1873 0.0000 0.0000 0.0000
# 4 0.0000 0.0000 0.0000 53.7570 0.0000 0.0000
# 5 0.0000 0.0000 0.0000 0.0000 12.0709 0.0000
# 6 0.0000 0.0000 0.0000 0.0000 0.0000 -50.4389
#
#
#
# Elastic Compliance Matrix: (Units=1/GPa)
#
#
# Indices 1 2 3 4 5 6 
#
# 1 0.015503 -0.001902 0.004007 0.000000 0.000000 0.000000
# 2 -0.001902 0.014830 -0.001391 0.000000 0.000000 0.000000
# 3 0.004007 -0.001391 0.016200 0.000000 0.000000 0.000000
# 4 0.000000 0.000000 0.000000 0.018602 0.000000 0.000000
# 5 0.000000 0.000000 0.000000 0.000000 0.082844 0.000000
# 6 0.000000 0.000000 0.000000 0.000000 0.000000 -0.019826
#
#
# Mechanical properties :
#
#
# Convention : Reuss Voigt Hill
#
# Bulk Modulus (GPa) = 20.85038 21.59510 21.22274
# Shear Modulus (GPa) = 35.03562 17.06437 26.04999
#
# Velocity S-wave (km/s) = 3.73151 2.60420 3.21761
# Velocity P-wave (km/s) = 5.18190 4.19822 4.71578
#
# Compressibility (1/GPa) = 0.04796076
#
# Stress axis : x y z
#
# Youngs Moduli (GPa) = 64.50521 67.43013 61.72878
#
# Poissons Ratio (x) = 0.12827 -0.24737
# Poissons Ratio (y) = 0.12271 0.08586
# Poissons Ratio (z) = -0.25849 0.09380
#
# Static dielectric constant tensor:
#      x y z
#    x 1.968450 0.000000 0.000000 
#    y 0.000000 2.019660 0.000000 
#    z 0.000000 0.000000 2.147730 
# 
# From -- ./inp_files/15780.got.cif
#   From: 2010.05.17/outbox.cif.g08.bks.cpg/sg64_8_cif.got.tgz:15780.got - 2010.06.03 16:29:19.
