data_PCOD9478096
_publ_section_title
;
Structure prediction by ZEFSAII (Michael W. Deem and Ramdas Pophale) SiO2 
 PCOD9478096
Probable space group: C M C A
;
_chemical_formula_sum "Si O2"
_cell_formula_units_Z 112
_cell_length_a 18.870398
_cell_length_b 13.517925
_cell_length_c 22.733230
_cell_angle_alpha 90.000000
_cell_angle_beta 90.000000
_cell_angle_gamma 90.000000
_cell_volume 5798.988380
_symmetry_space_group_name_H-M "C M C A"
_symmetry_group_IT_number 64
_symmetry_cell_setting 'orthorhombic'
loop_
_space_group_symop_operation_xyz
x,y,z
-x,1/2-y,1/2+z
x,-y,-z
-x,1/2+y,1/2-z
-x,-y,-z
x,1/2+y,1/2-z
-x,y,z
x,1/2-y,1/2+z
1/2+x,1/2+y,z
1/2-x,-y,1/2+z
1/2+x,1/2-y,-z
1/2-x,y,1/2-z
1/2-x,1/2-y,-z
1/2+x,y,1/2-z
1/2-x,1/2+y,z
1/2+x,-y,1/2+z
loop_
_atom_site_type_symbol
_atom_site_label
_atom_site_fract_x
_atom_site_fract_y
_atom_site_fract_z
Si Si1 0.305093 0.894596 0.468243
Si Si2 0.081772 0.576092 0.256728
Si Si3 0.824040 0.010608 0.145030
Si Si4 0.657156 0.683586 0.479225
Si Si5 0.918445 0.400747 0.078085
Si Si6 0.581047 0.813437 0.630042
Si Si7 0.166410 0.575352 0.138778
O O1 0.315746 0.919833 0.399470
O O2 0.352900 0.800938 0.485832
O O3 0.226703 0.855393 0.485759
O O4 0.314672 0.000000 0.500000
O O5 0.128488 0.499580 0.296243
O O6 0.082993 0.672654 0.299077
O O7 0.117893 0.595383 0.194854
O O8 0.000000 0.544608 0.250757
O O9 0.865101 0.100406 0.111438
O O10 0.745683 0.049401 0.158964
O O11 0.594644 0.621834 0.509388
O O12 0.668224 0.659528 0.410923
O O13 0.901588 0.295695 0.109176
O O14 0.867013 0.482433 0.104266
O O15 0.000000 0.426145 0.089570
O O16 0.500000 0.835619 0.611478
#
# Coordination Sequence:
#
# PCOD9478096 Si02
#       7
#    16  16  16  16  16  16  16
#     4  11  20  38  62  90 125 165 209 273 323 376
#     4   9  21  41  63  87 126 168 213 269 322 379
#     4  10  19  37  64  90 122 159 211 267 316 383
#     4  11  24  37  59  95 132 166 212 261 332 378
#     4  11  22  39  62  90 129 175 215 251 320 397
#     4   8  19  39  63  87 119 166 214 263 313 378
#     4  12  22  37  61  95 127 170 209 264 321 383
#
# _framework density 19.313714000000001
#
# number of rings (size 3 to 8) (size 9 to 14) (size 15 to 20)
#    0.857    0.857    2.857    2.143    2.000    1.714 
#    2.571    1.429    3.143    3.857    0.000    0.000 
#    0.000    0.000    0.000    0.000    0.000    0.000 
#
# Total GULP energy -311979.783902 kJ/mol
# GULP energy per Si atom -5571.067570 kJ/mol
# Density = 1.926975 g / cm^3
# Si number density = 19.313714 Si / 1000 Ang^3
#
#
#
# Elastic Constant Matrix: (Units=GPa)
#
#
# Indices 1 2 3 4 5 6 
#
# 1 90.6865 32.4021 28.6134 0.0000 0.0000 0.0000
# 2 32.4021 71.0628 6.0493 0.0000 0.0000 0.0000
# 3 28.6134 6.0493 83.0034 0.0000 0.0000 0.0000
# 4 0.0000 0.0000 0.0000 11.6474 0.0000 0.0000
# 5 0.0000 0.0000 0.0000 0.0000 20.3076 0.0000
# 6 0.0000 0.0000 0.0000 0.0000 0.0000 17.1813
#
#
#
# Elastic Compliance Matrix: (Units=1/GPa)
#
#
# Indices 1 2 3 4 5 6 
#
# 1 0.014747 -0.006331 -0.004622 0.000000 0.000000 0.000000
# 2 -0.006331 0.016878 0.000952 0.000000 0.000000 0.000000
# 3 -0.004622 0.000952 0.013572 0.000000 0.000000 0.000000
# 4 0.000000 0.000000 0.000000 0.085856 0.000000 0.000000
# 5 0.000000 0.000000 0.000000 0.000000 0.049243 0.000000
# 6 0.000000 0.000000 0.000000 0.000000 0.000000 0.058203
#
#
# Mechanical properties :
#
#
# Convention : Reuss Voigt Hill
#
# Bulk Modulus (GPa) = 39.69038 42.09804 40.89421
# Shear Modulus (GPa) = 18.73369 21.67310 20.20340
#
# Velocity S-wave (km/s) = 3.11781 3.35350 3.23780
# Velocity P-wave (km/s) = 5.79275 6.06951 5.93274
#
# Compressibility (1/GPa) = 0.02519502
#
# Stress axis : x y z
#
# Youngs Moduli (GPa) = 67.80837 59.25012 73.68239
#
# Poissons Ratio (x) = 0.37510 0.34059
# Poissons Ratio (y) = 0.42928 -0.07017
# Poissons Ratio (z) = 0.31344 -0.05643
#
# Static dielectric constant tensor:
#      x y z
#    x 1.689460 0.000000 0.000000 
#    y 0.000000 1.667450 0.000000 
#    z 0.000000 0.000000 1.728270 
# 
# From -- ./inp_files/46341.got.cif
#   From: 2010.05.17/outbox.cif.g08.bks.cpg/sg64_24_cif.got.tgz:46341.got - 2010.06.03 16:29:19.
