data_PCOD9478103
_publ_section_title
;
Structure prediction by ZEFSAII (Michael W. Deem and Ramdas Pophale) SiO2 
 PCOD9478103
Probable space group: C M C A
;
_chemical_formula_sum "Si O2"
_cell_formula_units_Z 72
_cell_length_a 17.676119
_cell_length_b 8.142800
_cell_length_c 19.318132
_cell_angle_alpha 90.000000
_cell_angle_beta 90.000000
_cell_angle_gamma 90.000000
_cell_volume 2780.518660
_symmetry_space_group_name_H-M "C M C A"
_symmetry_group_IT_number 64
_symmetry_cell_setting 'orthorhombic'
loop_
_space_group_symop_operation_xyz
x,y,z
-x,1/2-y,1/2+z
x,-y,-z
-x,1/2+y,1/2-z
-x,-y,-z
x,1/2+y,1/2-z
-x,y,z
x,1/2-y,1/2+z
1/2+x,1/2+y,z
1/2-x,-y,1/2+z
1/2+x,1/2-y,-z
1/2-x,y,1/2-z
1/2-x,1/2-y,-z
1/2+x,y,1/2-z
1/2-x,1/2+y,z
1/2+x,-y,1/2+z
loop_
_atom_site_type_symbol
_atom_site_label
_atom_site_fract_x
_atom_site_fract_y
_atom_site_fract_z
Si Si1 0.580589 0.866251 0.667746
Si Si2 0.000000 0.299250 0.798166
Si Si3 0.270179 0.914179 0.329643
Si Si4 0.644158 0.388721 0.608628
Si Si5 0.413771 0.686378 0.011461
O O1 0.500000 0.978965 0.669803
O O2 0.565190 0.761303 0.735939
O O3 0.657606 0.964302 0.668947
O O4 0.579444 0.783785 0.593013
O O5 0.933346 0.371786 0.849115
O O6 0.250000 0.898350 0.250000
O O7 0.196196 0.956959 0.374462
O O8 0.301373 0.748285 0.359640
O O9 0.628408 0.325645 0.531030
O O10 0.500000 0.679194 0.983522
O O11 0.382471 0.500000 0.000000
#
# Coordination Sequence:
#
# PCOD9478103 Si02
#       5
#    16   8  16  16  16
#     4   9  20  39  62  97 136 171 226 276 347 395
#     4  10  22  40  66 102 121 181 227 283 329 413
#     4  12  24  41  65 102 141 179 225 297 340 404
#     4  12  25  42  70 101 139 179 235 281 350 407
#     4  10  19  37  67 102 130 180 231 285 328 419
#
# _framework density 25.894449999999999
#
# number of rings (size 3 to 8) (size 9 to 14) (size 15 to 20)
#    0.667    0.667    5.556    0.667    1.556    0.889 
#    0.000    0.000    2.444    0.000    0.000    4.667 
#    0.000    0.000    0.000    0.000    0.000    0.000 
#
# Total GULP energy -200437.264081 kJ/mol
# GULP energy per Si atom -5567.701780 kJ/mol
# Density = 2.583551 g / cm^3
# Si number density = 25.894450 Si / 1000 Ang^3
#
#
#
# Elastic Constant Matrix: (Units=GPa)
#
#
# Indices 1 2 3 4 5 6 
#
# 1 155.5775 40.0961 40.9593 0.0000 0.0000 0.0000
# 2 40.0961 44.0997 31.2860 0.0000 0.0000 0.0000
# 3 40.9593 31.2860 133.5196 0.0000 0.0000 0.0000
# 4 0.0000 0.0000 0.0000 15.2447 0.0000 0.0000
# 5 0.0000 0.0000 0.0000 0.0000 46.0986 0.0000
# 6 0.0000 0.0000 0.0000 0.0000 0.0000 33.9144
#
#
#
# Elastic Compliance Matrix: (Units=1/GPa)
#
#
# Indices 1 2 3 4 5 6 
#
# 1 0.008495 -0.007046 -0.000955 0.000000 0.000000 0.000000
# 2 -0.007046 0.033042 -0.005581 0.000000 0.000000 0.000000
# 3 -0.000955 -0.005581 0.009090 0.000000 0.000000 0.000000
# 4 0.000000 0.000000 0.000000 0.065597 0.000000 0.000000
# 5 0.000000 0.000000 0.000000 0.000000 0.021693 0.000000
# 6 0.000000 0.000000 0.000000 0.000000 0.000000 0.029486
#
#
# Mechanical properties :
#
#
# Convention : Reuss Voigt Hill
#
# Bulk Modulus (GPa) = 42.62036 61.98661 52.30348
# Shear Modulus (GPa) = 24.70515 33.77524 29.24019
#
# Velocity S-wave (km/s) = 3.09216 3.61549 3.36401
# Velocity P-wave (km/s) = 5.40773 6.43577 5.94402
#
# Compressibility (1/GPa) = 0.02346297
#
# Stress axis : x y z
#
# Youngs Moduli (GPa) = 117.71503 30.26482 110.00966
#
# Poissons Ratio (x) = 0.21326 0.10505
# Poissons Ratio (y) = 0.82947 0.61392
# Poissons Ratio (z) = 0.11241 0.16890
#
# Static dielectric constant tensor:
#      x y z
#    x 2.073090 0.000000 0.000000 
#    y 0.000000 0.347870 0.000000 
#    z 0.000000 0.000000 1.990370 
# 
# From -- ./inp_files/39936.got.cif
#   From: 2010.05.17/outbox.cif.g08.bks.cpg/sg64_20_cif.got.tgz:39936.got - 2010.06.03 16:29:19.
