data_PCOD9478781
_publ_section_title
;
Structure prediction by ZEFSAII (Michael W. Deem and Ramdas Pophale) SiO2 
 PCOD9478781
Probable space group: C M C A
;
_chemical_formula_sum "Si O2"
_cell_formula_units_Z 80
_cell_length_a 13.089966
_cell_length_b 18.839293
_cell_length_c 16.900910
_cell_angle_alpha 90.000000
_cell_angle_beta 90.000000
_cell_angle_gamma 90.000000
_cell_volume 4167.860823
_symmetry_space_group_name_H-M "C M C A"
_symmetry_group_IT_number 64
_symmetry_cell_setting 'orthorhombic'
loop_
_space_group_symop_operation_xyz
x,y,z
-x,1/2-y,1/2+z
x,-y,-z
-x,1/2+y,1/2-z
-x,-y,-z
x,1/2+y,1/2-z
-x,y,z
x,1/2-y,1/2+z
1/2+x,1/2+y,z
1/2-x,-y,1/2+z
1/2+x,1/2-y,-z
1/2-x,y,1/2-z
1/2-x,1/2-y,-z
1/2+x,y,1/2-z
1/2-x,1/2+y,z
1/2+x,-y,1/2+z
loop_
_atom_site_type_symbol
_atom_site_label
_atom_site_fract_x
_atom_site_fract_y
_atom_site_fract_z
Si Si1 0.687784 0.969374 0.585728
Si Si2 0.251006 0.180704 0.596793
Si Si3 0.121655 0.688743 0.437839
Si Si4 0.881617 0.950776 0.389895
Si Si5 0.115773 0.589644 0.704961
O O1 0.651150 0.889278 0.593045
O O2 0.809937 0.018163 0.407015
O O3 0.640481 0.979177 0.348216
O O4 0.655982 0.000000 0.500000
O O5 0.181921 0.249682 0.608544
O O6 0.332933 0.192726 0.527026
O O7 0.175098 0.116602 0.570574
O O8 0.311423 0.151260 0.672306
O O9 0.000000 0.698620 0.436245
O O10 0.874989 0.932391 0.296252
O O11 0.000000 0.958329 0.411233
O O12 0.000000 0.612097 0.691095
#
# Coordination Sequence:
#
# PCOD9478781 Si02
#       5
#    16  16  16  16  16
#     4  11  20  35  57  87 114 147 191 238 286 339
#     4  10  20  36  55  82 110 148 190 233 282 342
#     4  11  22  35  54  84 117 145 182 237 295 338
#     4  10  21  39  58  82 115 156 195 231 283 340
#     4  10  20  37  62  83 112 154 196 234 276 344
#
# _framework density 19.194499
#
# number of rings (size 3 to 8) (size 9 to 14) (size 15 to 20)
#    0.000    1.600    4.000    4.200    0.000    1.200 
#    0.000    6.000    0.000    4.800    0.000    0.000 
#    0.000    0.000    0.000    0.000    0.000    0.000 
#
# Total GULP energy -223310.963073 kJ/mol
# GULP energy per Si atom -5582.774077 kJ/mol
# Density = 1.915081 g / cm^3
# Si number density = 19.194499 Si / 1000 Ang^3
#
#
#
# Elastic Constant Matrix: (Units=GPa)
#
#
# Indices 1 2 3 4 5 6 
#
# 1 159.2538 69.0363 34.7833 0.0000 0.0000 0.0000
# 2 69.0363 134.3548 28.9849 0.0000 0.0000 0.0000
# 3 34.7833 28.9849 40.3746 0.0000 0.0000 0.0000
# 4 0.0000 0.0000 0.0000 16.3084 0.0000 0.0000
# 5 0.0000 0.0000 0.0000 0.0000 26.8414 0.0000
# 6 0.0000 0.0000 0.0000 0.0000 0.0000 24.5919
#
#
#
# Elastic Compliance Matrix: (Units=1/GPa)
#
#
# Indices 1 2 3 4 5 6 
#
# 1 0.008914 -0.003459 -0.005196 0.000000 0.000000 0.000000
# 2 -0.003459 0.010149 -0.004306 0.000000 0.000000 0.000000
# 3 -0.005196 -0.004306 0.032336 0.000000 0.000000 0.000000
# 4 0.000000 0.000000 0.000000 0.061318 0.000000 0.000000
# 5 0.000000 0.000000 0.000000 0.000000 0.037256 0.000000
# 6 0.000000 0.000000 0.000000 0.000000 0.000000 0.040664
#
#
# Mechanical properties :
#
#
# Convention : Reuss Voigt Hill
#
# Bulk Modulus (GPa) = 39.25204 66.62138 52.93671
# Shear Modulus (GPa) = 22.21718 26.96026 24.58872
#
# Velocity S-wave (km/s) = 3.40586 3.75184 3.58303
# Velocity P-wave (km/s) = 5.99671 7.31795 6.69003
#
# Compressibility (1/GPa) = 0.02547639
#
# Stress axis : x y z
#
# Youngs Moduli (GPa) = 112.18653 98.52761 30.92559
#
# Poissons Ratio (x) = 0.34083 0.16069
# Poissons Ratio (y) = 0.38808 0.13317
# Poissons Ratio (z) = 0.58291 0.42427
#
# Static dielectric constant tensor:
#      x y z
#    x 1.704620 0.000000 0.000000 
#    y 0.000000 1.660400 0.000000 
#    z 0.000000 0.000000 1.691700 
# 
# From -- ./inp_files/32251.got.cif
#   From: 2010.05.17/outbox.cif.g08.bks.cpg/sg64_17_cif.got.tgz:32251.got - 2010.06.03 16:29:19.
