data_PCOD9478854
_publ_section_title
;
Structure prediction by ZEFSAII (Michael W. Deem and Ramdas Pophale) SiO2 
 PCOD9478854
Probable space group: C M C A
;
_chemical_formula_sum "Si O2"
_cell_formula_units_Z 56
_cell_length_a 29.913305
_cell_length_b 10.659428
_cell_length_c 8.846647
_cell_angle_alpha 90.000000
_cell_angle_beta 90.000000
_cell_angle_gamma 90.000000
_cell_volume 2820.830547
_symmetry_space_group_name_H-M "C M C A"
_symmetry_group_IT_number 64
_symmetry_cell_setting 'orthorhombic'
loop_
_space_group_symop_operation_xyz
x,y,z
-x,1/2-y,1/2+z
x,-y,-z
-x,1/2+y,1/2-z
-x,-y,-z
x,1/2+y,1/2-z
-x,y,z
x,1/2-y,1/2+z
1/2+x,1/2+y,z
1/2-x,-y,1/2+z
1/2+x,1/2-y,-z
1/2-x,y,1/2-z
1/2-x,1/2-y,-z
1/2+x,y,1/2-z
1/2-x,1/2+y,z
1/2+x,-y,1/2+z
loop_
_atom_site_type_symbol
_atom_site_label
_atom_site_fract_x
_atom_site_fract_y
_atom_site_fract_z
Si Si1 0.588732 0.357832 0.434030
Si Si2 0.250000 0.751165 0.250000
Si Si3 0.312566 0.855207 0.995117
Si Si4 0.552174 0.378135 0.100401
O O1 0.582542 0.500000 0.500000
O O2 0.638375 0.302147 0.471000
O O3 0.580171 0.367866 0.255029
O O4 0.557249 0.251939 0.508122
O O5 0.288803 0.677745 0.338225
O O6 0.223657 0.826862 0.376578
O O7 0.321525 0.000000 0.000000
O O8 0.500000 0.396038 0.140976
O O9 0.565529 0.500000 0.000000
#
# Coordination Sequence:
#
# PCOD9478854 Si02
#       4
#    16   8  16  16
#     4  11  23  40  62  89 122 158 202 252 303 360
#     4  10  20  36  58  82 114 150 188 234 286 348
#     4  10  21  37  57  84 114 149 191 236 289 345
#     4  11  24  41  62  89 121 160 204 251 305 363
#
# _framework density 19.852309999999999
#
# number of rings (size 3 to 8) (size 9 to 14) (size 15 to 20)
#    0.000    1.429    0.000    5.143    0.000    6.857 
#    0.000    7.143    0.000    0.000    0.000    0.000 
#    0.000    0.000    0.000    0.000    0.000    0.000 
#
# Total GULP energy -156116.754236 kJ/mol
# GULP energy per Si atom -5575.598366 kJ/mol
# Density = 1.980713 g / cm^3
# Si number density = 19.852310 Si / 1000 Ang^3
#
#
#
# Elastic Constant Matrix: (Units=GPa)
#
#
# Indices 1 2 3 4 5 6 
#
# 1 87.3182 3.7630 25.6571 0.0000 0.0000 0.0000
# 2 3.7630 82.4134 33.5109 0.0000 0.0000 0.0000
# 3 25.6571 33.5109 130.4022 0.0000 0.0000 0.0000
# 4 0.0000 0.0000 0.0000 21.9758 0.0000 0.0000
# 5 0.0000 0.0000 0.0000 0.0000 36.8399 0.0000
# 6 0.0000 0.0000 0.0000 0.0000 0.0000 38.3785
#
#
#
# Elastic Compliance Matrix: (Units=1/GPa)
#
#
# Indices 1 2 3 4 5 6 
#
# 1 0.012171 0.000467 -0.002515 0.000000 0.000000 0.000000
# 2 0.000467 0.013568 -0.003578 0.000000 0.000000 0.000000
# 3 -0.002515 -0.003578 0.009083 0.000000 0.000000 0.000000
# 4 0.000000 0.000000 0.000000 0.045505 0.000000 0.000000
# 5 0.000000 0.000000 0.000000 0.000000 0.027145 0.000000
# 6 0.000000 0.000000 0.000000 0.000000 0.000000 0.026056
#
#
# Mechanical properties :
#
#
# Convention : Reuss Voigt Hill
#
# Bulk Modulus (GPa) = 42.42849 47.33287 44.88068
# Shear Modulus (GPa) = 32.75758 35.25233 34.00496
#
# Velocity S-wave (km/s) = 4.06650 4.21851 4.14321
# Velocity P-wave (km/s) = 6.59296 6.90087 6.74867
#
# Compressibility (1/GPa) = 0.02356907
#
# Stress axis : x y z
#
# Youngs Moduli (GPa) = 82.16147 73.70431 110.09629
#
# Poissons Ratio (x) = -0.03440 0.27686
# Poissons Ratio (y) = -0.03835 0.39398
# Poissons Ratio (z) = 0.20661 0.26375
#
# Static dielectric constant tensor:
#      x y z
#    x 1.762920 0.000000 0.000000 
#    y 0.000000 1.682760 0.000000 
#    z 0.000000 0.000000 1.680510 
# 
# From -- ./inp_files/9891.got.cif
#   From: 2010.05.17/outbox.cif.g08.bks.cpg/sg64_5_cif.got.tgz:9891.got - 2010.06.03 16:29:19.
