data_PCOD9478826
_publ_section_title
;
Structure prediction by ZEFSAII (Michael W. Deem and Ramdas Pophale) SiO2 
 PCOD9478826
Probable space group: C M C A
;
_chemical_formula_sum "Si O2"
_cell_formula_units_Z 80
_cell_length_a 8.773143
_cell_length_b 27.779310
_cell_length_c 18.467617
_cell_angle_alpha 90.000000
_cell_angle_beta 90.000000
_cell_angle_gamma 90.000000
_cell_volume 4500.777272
_symmetry_space_group_name_H-M "C M C A"
_symmetry_group_IT_number 64
_symmetry_cell_setting 'orthorhombic'
loop_
_space_group_symop_operation_xyz
x,y,z
-x,1/2-y,1/2+z
x,-y,-z
-x,1/2+y,1/2-z
-x,-y,-z
x,1/2+y,1/2-z
-x,y,z
x,1/2-y,1/2+z
1/2+x,1/2+y,z
1/2-x,-y,1/2+z
1/2+x,1/2-y,-z
1/2-x,y,1/2-z
1/2-x,1/2-y,-z
1/2+x,y,1/2-z
1/2-x,1/2+y,z
1/2+x,-y,1/2+z
loop_
_atom_site_type_symbol
_atom_site_label
_atom_site_fract_x
_atom_site_fract_y
_atom_site_fract_z
Si Si1 0.318996 0.957951 0.829182
Si Si2 0.817950 0.154863 0.673094
Si Si3 0.682902 0.557153 0.889338
Si Si4 0.817487 0.701321 0.532047
Si Si5 0.681309 0.100605 0.455659
O O1 0.500000 0.962442 0.824027
O O2 0.250000 0.949058 0.750000
O O3 0.272256 0.916916 0.886228
O O4 0.248909 0.007371 0.860769
O O5 0.750000 0.169794 0.750000
O O6 0.754871 0.101627 0.654278
O O7 0.757802 0.188669 0.608838
O O8 0.000000 0.154158 0.674947
O O9 0.500000 0.558090 0.880797
O O10 0.716127 0.567357 0.974124
O O11 0.750000 0.750000 0.500000
O O12 0.786274 0.655136 0.480636
O O13 0.000000 0.704401 0.540223
O O14 0.500000 0.096188 0.441693
#
# Coordination Sequence:
#
# PCOD9478826 Si02
#       5
#    16  16  16  16  16
#     4  12  24  36  53  78 111 149 188 227 268 320
#     4  11  21  35  56  84 116 146 182 229 278 327
#     4  10  20  36  57  81 112 147 182 223 273 328
#     4  10  21  39  62  86 112 144 182 226 278 333
#     4   9  20  38  58  80 109 143 179 223 273 324
#
# _framework density 17.774706999999999
#
# number of rings (size 3 to 8) (size 9 to 14) (size 15 to 20)
#    0.000    1.600    0.000    7.200    0.000    7.200 
#    0.000    1.000    0.000    4.800    0.000    0.000 
#    0.000    0.000    0.000    0.000    0.000    0.000 
#
# Total GULP energy -223599.345827 kJ/mol
# GULP energy per Si atom -5589.983646 kJ/mol
# Density = 1.773425 g / cm^3
# Si number density = 17.774707 Si / 1000 Ang^3
#
#
#
# Elastic Constant Matrix: (Units=GPa)
#
#
# Indices 1 2 3 4 5 6 
#
# 1 140.8943 66.8750 94.2395 0.0000 0.0000 0.0000
# 2 66.8750 88.4790 84.3009 0.0000 0.0000 0.0000
# 3 94.2395 84.3009 148.8964 0.0000 0.0000 0.0000
# 4 0.0000 0.0000 0.0000 15.3641 0.0000 0.0000
# 5 0.0000 0.0000 0.0000 0.0000 34.5538 0.0000
# 6 0.0000 0.0000 0.0000 0.0000 0.0000 17.2910
#
#
#
# Elastic Compliance Matrix: (Units=1/GPa)
#
#
# Indices 1 2 3 4 5 6 
#
# 1 0.013027 -0.004322 -0.005798 0.000000 0.000000 0.000000
# 2 -0.004322 0.025973 -0.011970 0.000000 0.000000 0.000000
# 3 -0.005798 -0.011970 0.017163 0.000000 0.000000 0.000000
# 4 0.000000 0.000000 0.000000 0.065087 0.000000 0.000000
# 5 0.000000 0.000000 0.000000 0.000000 0.028940 0.000000
# 6 0.000000 0.000000 0.000000 0.000000 0.000000 0.057833
#
#
# Mechanical properties :
#
#
# Convention : Reuss Voigt Hill
#
# Bulk Modulus (GPa) = 83.44917 96.56673 90.00795
# Shear Modulus (GPa) = 19.51611 22.29876 20.90744
#
# Velocity S-wave (km/s) = 3.31716 3.54577 3.43337
# Velocity P-wave (km/s) = 7.85631 8.43857 8.15264
#
# Compressibility (1/GPa) = 0.01198334
#
# Stress axis : x y z
#
# Youngs Moduli (GPa) = 76.76309 38.50079 58.26502
#
# Poissons Ratio (x) = 0.16640 0.33783
# Poissons Ratio (y) = 0.33176 0.69743
# Poissons Ratio (z) = 0.44509 0.46086
#
# Static dielectric constant tensor:
#      x y z
#    x 1.588050 0.000000 0.000000 
#    y 0.000000 1.584560 0.000000 
#    z 0.000000 0.000000 1.604550 
# 
# From -- ./inp_files/29706.got.cif
#   From: 2010.05.17/outbox.cif.g08.bks.cpg/sg64_15_cif.got.tgz:29706.got - 2010.06.03 16:29:19.
