data_PCOD9478249
_publ_section_title
;
Structure prediction by ZEFSAII (Michael W. Deem and Ramdas Pophale) SiO2 
 PCOD9478249
Probable space group: C M C A
;
_chemical_formula_sum "Si O2"
_cell_formula_units_Z 88
_cell_length_a 22.736936
_cell_length_b 14.672225
_cell_length_c 14.387919
_cell_angle_alpha 90.000000
_cell_angle_beta 90.000000
_cell_angle_gamma 90.000000
_cell_volume 4799.830509
_symmetry_space_group_name_H-M "C M C A"
_symmetry_group_IT_number 64
_symmetry_cell_setting 'orthorhombic'
loop_
_space_group_symop_operation_xyz
x,y,z
-x,1/2-y,1/2+z
x,-y,-z
-x,1/2+y,1/2-z
-x,-y,-z
x,1/2+y,1/2-z
-x,y,z
x,1/2-y,1/2+z
1/2+x,1/2+y,z
1/2-x,-y,1/2+z
1/2+x,1/2-y,-z
1/2-x,y,1/2-z
1/2-x,1/2-y,-z
1/2+x,y,1/2-z
1/2-x,1/2+y,z
1/2+x,-y,1/2+z
loop_
_atom_site_type_symbol
_atom_site_label
_atom_site_fract_x
_atom_site_fract_y
_atom_site_fract_z
Si Si1 0.131661 0.297770 0.813268
Si Si2 0.766631 0.813191 0.085637
Si Si3 0.689866 0.522492 0.302236
Si Si4 0.430926 0.609446 0.486277
Si Si5 0.256315 0.500000 0.500000
Si Si6 0.638635 0.839287 0.166318
O O1 0.178346 0.231774 0.864214
O O2 0.166729 0.381429 0.766731
O O3 0.107265 0.232689 0.732953
O O4 0.090207 0.347588 0.888389
O O5 0.707782 0.816667 0.148821
O O6 0.750000 0.750000 0.000000
O O7 0.777469 0.914150 0.043629
O O8 0.750000 0.498718 0.250000
O O9 0.704556 0.533285 0.412493
O O10 0.643211 0.441376 0.292303
O O11 0.423023 0.500000 0.500000
O O12 0.500000 0.627410 0.498136
O O13 0.392521 0.654990 0.567198
#
# Coordination Sequence:
#
# PCOD9478249 Si02
#       6
#    16  16  16  16   8  16
#     4  12  22  37  61  91 124 158 203 251 311 374
#     4  11  19  33  56  88 127 166 193 236 307 384
#     4  11  20  33  53  83 125 162 190 234 295 365
#     4  11  24  45  67  84 112 163 220 263 297 350
#     4  10  20  32  50  76 126 168 200 228 274 362
#     4  11  22  37  58  93 121 156 202 250 304 367
#
# _framework density 18.333981000000001
#
# number of rings (size 3 to 8) (size 9 to 14) (size 15 to 20)
#    0.000    0.909    5.455    4.909    1.273    0.727 
#    0.000    0.000    0.000    0.000    0.000    1.909 
#    0.000    0.000    0.000    0.000    0.000    0.000 
#
# Total GULP energy -245580.347514 kJ/mol
# GULP energy per Si atom -5581.371534 kJ/mol
# Density = 1.829225 g / cm^3
# Si number density = 18.333981 Si / 1000 Ang^3
#
#
#
# Elastic Constant Matrix: (Units=GPa)
#
#
# Indices 1 2 3 4 5 6 
#
# 1 57.8759 7.9294 13.9057 0.0000 0.0000 0.0000
# 2 7.9294 115.0667 27.4963 0.0000 0.0000 0.0000
# 3 13.9057 27.4963 79.4960 0.0000 0.0000 0.0000
# 4 0.0000 0.0000 0.0000 40.0310 0.0000 0.0000
# 5 0.0000 0.0000 0.0000 0.0000 12.8084 0.0000
# 6 0.0000 0.0000 0.0000 0.0000 0.0000 16.7448
#
#
#
# Elastic Compliance Matrix: (Units=1/GPa)
#
#
# Indices 1 2 3 4 5 6 
#
# 1 0.018066 -0.000534 -0.002976 0.000000 0.000000 0.000000
# 2 -0.000534 0.009489 -0.003189 0.000000 0.000000 0.000000
# 3 -0.002976 -0.003189 0.014203 0.000000 0.000000 0.000000
# 4 0.000000 0.000000 0.000000 0.024981 0.000000 0.000000
# 5 0.000000 0.000000 0.000000 0.000000 0.078074 0.000000
# 6 0.000000 0.000000 0.000000 0.000000 0.000000 0.059720
#
#
# Mechanical properties :
#
#
# Convention : Reuss Voigt Hill
#
# Bulk Modulus (GPa) = 35.25858 39.01127 37.13492
# Shear Modulus (GPa) = 21.98926 27.45732 24.72329
#
# Velocity S-wave (km/s) = 3.46695 3.87411 3.67617
# Velocity P-wave (km/s) = 5.94133 6.42930 6.19012
#
# Compressibility (1/GPa) = 0.02836189
#
# Stress axis : x y z
#
# Youngs Moduli (GPa) = 55.35123 105.38062 70.40914
#
# Poissons Ratio (x) = 0.05627 0.20951
# Poissons Ratio (y) = 0.02955 0.22452
# Poissons Ratio (z) = 0.16470 0.33604
#
# Static dielectric constant tensor:
#      x y z
#    x 1.628040 0.000000 0.000000 
#    y 0.000000 1.678370 0.000000 
#    z 0.000000 0.000000 1.673000 
# 
# From -- ./inp_files/27303.got.cif
#   From: 2010.05.17/outbox.cif.g08.bks.cpg/sg64_14_cif.got.tgz:27303.got - 2010.06.03 16:29:19.
