data_PCOD9478054
_publ_section_title
;
Structure prediction by ZEFSAII (Michael W. Deem and Ramdas Pophale) SiO2 
 PCOD9478054
Probable space group: C M C A
;
_chemical_formula_sum "Si O2"
_cell_formula_units_Z 80
_cell_length_a 22.512306
_cell_length_b 7.910445
_cell_length_c 16.911474
_cell_angle_alpha 90.000000
_cell_angle_beta 90.000000
_cell_angle_gamma 90.000000
_cell_volume 3011.635175
_symmetry_space_group_name_H-M "C M C A"
_symmetry_group_IT_number 64
_symmetry_cell_setting 'orthorhombic'
loop_
_space_group_symop_operation_xyz
x,y,z
-x,1/2-y,1/2+z
x,-y,-z
-x,1/2+y,1/2-z
-x,-y,-z
x,1/2+y,1/2-z
-x,y,z
x,1/2-y,1/2+z
1/2+x,1/2+y,z
1/2-x,-y,1/2+z
1/2+x,1/2-y,-z
1/2-x,y,1/2-z
1/2-x,1/2-y,-z
1/2+x,y,1/2-z
1/2-x,1/2+y,z
1/2+x,-y,1/2+z
loop_
_atom_site_type_symbol
_atom_site_label
_atom_site_fract_x
_atom_site_fract_y
_atom_site_fract_z
Si Si1 0.583804 0.508511 0.783032
Si Si2 0.000000 0.800101 0.319801
Si Si3 0.383657 0.000000 0.500000
Si Si4 0.809261 0.381276 0.646461
Si Si5 0.933928 0.794907 0.586661
Si Si6 0.187330 0.000051 0.592020
O O1 0.551053 0.349913 0.823152
O O2 0.551493 0.556969 0.702386
O O3 0.652563 0.455658 0.780755
O O4 0.568926 0.674118 0.835910
O O5 0.341122 0.982545 0.575117
O O6 0.423640 0.835934 0.486010
O O7 0.739381 0.410918 0.641857
O O8 0.819263 0.186590 0.626658
O O9 0.875573 0.907598 0.587140
O O10 0.000000 0.868660 0.576117
O O11 0.208608 0.000000 0.500000
#
# Coordination Sequence:
#
# PCOD9478054 Si02
#       6
#    16   8   8  16  16  16
#     4  10  23  41  72 100 126 178 225 300 342 432
#     4  10  20  46  68  94 130 166 234 278 384 398
#     4  10  19  36  64  88 149 176 230 276 322 427
#     4  11  22  41  65 103 137 189 238 274 343 404
#     4  11  22  40  61 105 144 184 234 273 353 407
#     4  12  23  40  66 100 152 202 228 271 330 425
#
# _framework density 26.563642000000002
#
# number of rings (size 3 to 8) (size 9 to 14) (size 15 to 20)
#    0.000    1.200    5.000    3.300    0.000    3.600 
#    3.600    0.000    0.000   14.400    0.000    0.000 
#    0.000    0.000    0.000    0.000    0.000    0.000 
#
# Total GULP energy -223197.140920 kJ/mol
# GULP energy per Si atom -5579.928523 kJ/mol
# Density = 2.650318 g / cm^3
# Si number density = 26.563642 Si / 1000 Ang^3
#
#
#
# Elastic Constant Matrix: (Units=GPa)
#
#
# Indices 1 2 3 4 5 6 
#
# 1 260.7447 77.6312 37.9689 0.0000 0.0000 0.0000
# 2 77.6312 128.4012 10.0976 0.0000 0.0000 0.0000
# 3 37.9689 10.0976 49.4210 0.0000 0.0000 0.0000
# 4 0.0000 0.0000 0.0000 33.2638 0.0000 0.0000
# 5 0.0000 0.0000 0.0000 0.0000 -7.0729 0.0000
# 6 0.0000 0.0000 0.0000 0.0000 0.0000 61.9215
#
#
#
# Elastic Compliance Matrix: (Units=1/GPa)
#
#
# Indices 1 2 3 4 5 6 
#
# 1 0.005183 -0.002867 -0.003396 0.000000 0.000000 0.000000
# 2 -0.002867 0.009501 0.000261 0.000000 0.000000 0.000000
# 3 -0.003396 0.000261 0.022790 0.000000 0.000000 0.000000
# 4 0.000000 0.000000 0.000000 0.030063 0.000000 0.000000
# 5 0.000000 0.000000 0.000000 0.000000 -0.141384 0.000000
# 6 0.000000 0.000000 0.000000 0.000000 0.000000 0.016149
#
#
# Mechanical properties :
#
#
# Convention : Reuss Voigt Hill
#
# Bulk Modulus (GPa) = 39.26105 76.66248 57.96176
# Shear Modulus (GPa) = -134.39522 38.48043 -47.95740
#
# Velocity S-wave (km/s) = -7.12064 3.81019 -4.25358
# Velocity P-wave (km/s) = 7.26585 6.94833 1.50221
#
# Compressibility (1/GPa) = 0.02547054
#
# Stress axis : x y z
#
# Youngs Moduli (GPa) = 192.92946 105.25500 43.87824
#
# Poissons Ratio (x) = 0.30173 0.14903
# Poissons Ratio (y) = 0.55307 -0.01146
# Poissons Ratio (z) = 0.65527 -0.02750
#
# Static dielectric constant tensor:
#      x y z
#    x 1.945450 0.000000 0.000000 
#    y 0.000000 2.070500 0.000000 
#    z 0.000000 0.000000 2.302610 
# 
# From -- ./inp_files/46151.got.cif
#   From: 2010.05.17/outbox.cif.g08.bks.cpg/sg64_24_cif.got.tgz:46151.got - 2010.06.03 16:29:19.
