data_PCOD9478534
_publ_section_title
;
Structure prediction by ZEFSAII (Michael W. Deem and Ramdas Pophale) SiO2 
 PCOD9478534
Probable space group: C M C A
;
_chemical_formula_sum "Si O2"
_cell_formula_units_Z 128
_cell_length_a 19.999500
_cell_length_b 19.159022
_cell_length_c 17.307786
_cell_angle_alpha 90.000000
_cell_angle_beta 90.000000
_cell_angle_gamma 90.000000
_cell_volume 6631.839255
_symmetry_space_group_name_H-M "C M C A"
_symmetry_group_IT_number 64
_symmetry_cell_setting 'orthorhombic'
loop_
_space_group_symop_operation_xyz
x,y,z
-x,1/2-y,1/2+z
x,-y,-z
-x,1/2+y,1/2-z
-x,-y,-z
x,1/2+y,1/2-z
-x,y,z
x,1/2-y,1/2+z
1/2+x,1/2+y,z
1/2-x,-y,1/2+z
1/2+x,1/2-y,-z
1/2-x,y,1/2-z
1/2-x,1/2-y,-z
1/2+x,y,1/2-z
1/2-x,1/2+y,z
1/2+x,-y,1/2+z
loop_
_atom_site_type_symbol
_atom_site_label
_atom_site_fract_x
_atom_site_fract_y
_atom_site_fract_z
Si Si1 0.924311 0.632950 0.336704
Si Si2 0.271639 0.839661 0.048114
Si Si3 0.422588 0.162452 0.629174
Si Si4 0.697111 0.755085 0.319935
Si Si5 0.765502 0.532628 0.839647
Si Si6 0.121885 0.994084 0.092045
Si Si7 0.179852 0.604575 0.203536
Si Si8 0.145488 0.208886 0.026999
O O1 0.921787 0.559222 0.381258
O O2 0.880686 0.618522 0.261285
O O3 0.887824 0.688283 0.392290
O O4 0.000000 0.653598 0.320266
O O5 0.234624 0.792975 0.111911
O O6 0.285218 0.909855 0.096121
O O7 0.332190 0.789678 0.024321
O O8 0.211892 0.840614 0.984688
O O9 0.500000 0.173548 0.647359
O O10 0.371593 0.201058 0.688213
O O11 0.406766 0.080066 0.620833
O O12 0.403600 0.192223 0.544171
O O13 0.750000 0.755287 0.250000
O O14 0.682570 0.675732 0.343983
O O15 0.750000 0.557652 0.750000
O O16 0.695398 0.501711 0.870361
O O17 0.819704 0.470604 0.836175
O O18 0.126982 0.000000 0.000000
O O19 0.250000 0.602210 0.250000
#
# Coordination Sequence:
#
# PCOD9478534 Si02
#       8
#    16  16  16  16  16  16  16  16
#     4  12  23  36  56  86 122 159 195 239 302 365
#     4  10  20  34  58  86 114 151 197 249 297 347
#     4  11  23  37  57  84 115 157 194 235 301 363
#     4  10  20  36  57  82 114 152 193 248 287 342
#     4  11  20  37  61  88 118 152 199 253 297 352
#     4  12  22  37  58  90 121 156 195 244 298 367
#     4  10  21  37  60  82 113 154 201 241 292 349
#     4  10  20  36  55  83 120 153 192 242 297 351
#
# _framework density 19.300829
#
# number of rings (size 3 to 8) (size 9 to 14) (size 15 to 20)
#    0.000    1.250    6.250    2.625    0.000    1.000 
#    2.250    0.000    0.000    1.500    0.000    0.875 
#    0.000    0.000    0.000    0.000    0.000    0.125 
#
# Total GULP energy -356999.751854 kJ/mol
# GULP energy per Si atom -5578.121123 kJ/mol
# Density = 1.925690 g / cm^3
# Si number density = 19.300829 Si / 1000 Ang^3
#
#
#
# Elastic Constant Matrix: (Units=GPa)
#
#
# Indices 1 2 3 4 5 6 
#
# 1 105.4856 34.7359 48.4683 0.0000 0.0000 0.0000
# 2 34.7359 97.0417 25.3564 0.0000 0.0000 0.0000
# 3 48.4683 25.3564 45.8935 0.0000 0.0000 0.0000
# 4 0.0000 0.0000 0.0000 14.3825 0.0000 0.0000
# 5 0.0000 0.0000 0.0000 0.0000 18.8732 0.0000
# 6 0.0000 0.0000 0.0000 0.0000 0.0000 8.6047
#
#
#
# Elastic Compliance Matrix: (Units=1/GPa)
#
#
# Indices 1 2 3 4 5 6 
#
# 1 0.018679 -0.001790 -0.018738 0.000000 0.000000 0.000000
# 2 -0.001790 0.012215 -0.004858 0.000000 0.000000 0.000000
# 3 -0.018738 -0.004858 0.044263 0.000000 0.000000 0.000000
# 4 0.000000 0.000000 0.000000 0.069529 0.000000 0.000000
# 5 0.000000 0.000000 0.000000 0.000000 0.052985 0.000000
# 6 0.000000 0.000000 0.000000 0.000000 0.000000 0.116215
#
#
# Mechanical properties :
#
#
# Convention : Reuss Voigt Hill
#
# Bulk Modulus (GPa) = 41.00992 51.72689 46.36841
# Shear Modulus (GPa) = 13.41245 17.69610 15.55427
#
# Velocity S-wave (km/s) = 2.63899 3.03125 2.84189
# Velocity P-wave (km/s) = 5.52988 6.25378 5.90294
#
# Compressibility (1/GPa) = 0.02438434
#
# Stress axis : x y z
#
# Youngs Moduli (GPa) = 53.53550 81.86612 22.59202
#
# Poissons Ratio (x) = 0.14654 0.42333
# Poissons Ratio (y) = 0.09583 0.10976
# Poissons Ratio (z) = 1.00316 0.39774
#
# Static dielectric constant tensor:
#      x y z
#    x 1.687190 0.000000 0.000000 
#    y 0.000000 1.753110 0.000000 
#    z 0.000000 0.000000 1.799240 
# 
# From -- ./inp_files/34684.got.cif
#   From: 2010.05.17/outbox.cif.g08.bks.cpg/sg64_18_cif.got.tgz:34684.got - 2010.06.03 16:29:19.
