data_PCOD9478447
_publ_section_title
;
Structure prediction by ZEFSAII (Michael W. Deem and Ramdas Pophale) SiO2 
 PCOD9478447
Probable space group: C M C A
;
_chemical_formula_sum "Si O2"
_cell_formula_units_Z 96
_cell_length_a 25.245911
_cell_length_b 9.442238
_cell_length_c 21.618150
_cell_angle_alpha 90.000000
_cell_angle_beta 90.000000
_cell_angle_gamma 90.000000
_cell_volume 5153.289203
_symmetry_space_group_name_H-M "C M C A"
_symmetry_group_IT_number 64
_symmetry_cell_setting 'orthorhombic'
loop_
_space_group_symop_operation_xyz
x,y,z
-x,1/2-y,1/2+z
x,-y,-z
-x,1/2+y,1/2-z
-x,-y,-z
x,1/2+y,1/2-z
-x,y,z
x,1/2-y,1/2+z
1/2+x,1/2+y,z
1/2-x,-y,1/2+z
1/2+x,1/2-y,-z
1/2-x,y,1/2-z
1/2-x,1/2-y,-z
1/2+x,y,1/2-z
1/2-x,1/2+y,z
1/2+x,-y,1/2+z
loop_
_atom_site_type_symbol
_atom_site_label
_atom_site_fract_x
_atom_site_fract_y
_atom_site_fract_z
Si Si1 0.645557 0.153250 0.405997
Si Si2 0.562126 0.814827 0.690041
Si Si3 0.175610 0.646860 0.620303
Si Si4 0.621737 0.072959 0.746533
Si Si5 0.780820 0.311290 0.189351
Si Si6 0.805331 0.832768 0.510721
O O1 0.587077 0.166689 0.377981
O O2 0.685448 0.198425 0.349767
O O3 0.655943 0.261895 0.460670
O O4 0.659585 0.990541 0.419731
O O5 0.500000 0.840266 0.692374
O O6 0.578826 0.663440 0.716493
O O7 0.595810 0.924281 0.731326
O O8 0.138187 0.643401 0.680656
O O9 0.235443 0.628064 0.645294
O O10 0.175236 0.787255 0.578896
O O11 0.676173 0.076089 0.785697
O O12 0.750000 0.253424 0.250000
O O13 0.750000 0.750000 0.500000
O O14 0.799878 0.000000 0.500000
#
# Coordination Sequence:
#
# PCOD9478447 Si02
#       6
#    16  16  16  16  16  16
#     4  10  21  35  54  81 110 147 192 226 274 331
#     4  10  20  37  59  82 113 148 186 237 281 325
#     4  10  20  34  54  78 117 148 180 229 272 333
#     4   9  20  34  54  84 111 145 187 225 280 338
#     4   9  18  30  50  80 114 146 176 218 275 332
#     4  12  24  37  55  79 113 152 187 226 273 334
#
# _framework density 18.628878
#
# number of rings (size 3 to 8) (size 9 to 14) (size 15 to 20)
#    0.000    2.000    1.667    2.000    0.000    8.667 
#    0.000    0.000    0.000    9.500    0.000    0.000 
#    0.000    0.000    0.000    0.000    0.000    0.000 
#
# Total GULP energy -267879.697607 kJ/mol
# GULP energy per Si atom -5580.827033 kJ/mol
# Density = 1.858648 g / cm^3
# Si number density = 18.628878 Si / 1000 Ang^3
#
#
#
# Elastic Constant Matrix: (Units=GPa)
#
#
# Indices 1 2 3 4 5 6 
#
# 1 73.3447 12.8550 16.8073 0.0000 0.0000 0.0000
# 2 12.8550 80.7686 22.9350 0.0000 0.0000 0.0000
# 3 16.8073 22.9350 59.0021 0.0000 0.0000 0.0000
# 4 0.0000 0.0000 0.0000 31.4683 0.0000 0.0000
# 5 0.0000 0.0000 0.0000 0.0000 18.1978 0.0000
# 6 0.0000 0.0000 0.0000 0.0000 0.0000 14.2339
#
#
#
# Elastic Compliance Matrix: (Units=1/GPa)
#
#
# Indices 1 2 3 4 5 6 
#
# 1 0.014706 -0.001294 -0.003686 0.000000 0.000000 0.000000
# 2 -0.001294 0.014031 -0.005086 0.000000 0.000000 0.000000
# 3 -0.003686 -0.005086 0.019975 0.000000 0.000000 0.000000
# 4 0.000000 0.000000 0.000000 0.031778 0.000000 0.000000
# 5 0.000000 0.000000 0.000000 0.000000 0.054952 0.000000
# 6 0.000000 0.000000 0.000000 0.000000 0.000000 0.070255
#
#
# Mechanical properties :
#
#
# Convention : Reuss Voigt Hill
#
# Bulk Modulus (GPa) = 34.98803 35.36777 35.17790
# Shear Modulus (GPa) = 21.24454 23.48122 22.36288
#
# Velocity S-wave (km/s) = 3.38066 3.55417 3.46850
# Velocity P-wave (km/s) = 5.83617 5.98911 5.91313
#
# Compressibility (1/GPa) = 0.02858121
#
# Stress axis : x y z
#
# Youngs Moduli (GPa) = 68.00085 71.27044 50.06162
#
# Poissons Ratio (x) = 0.09221 0.18453
# Poissons Ratio (y) = 0.08798 0.25459
# Poissons Ratio (z) = 0.25066 0.36245
#
# Static dielectric constant tensor:
#      x y z
#    x 1.616120 0.000000 0.000000 
#    y 0.000000 1.667660 0.000000 
#    z 0.000000 0.000000 1.693870 
# 
# From -- ./inp_files/41780.got.cif
#   From: 2010.05.17/outbox.cif.g08.bks.cpg/sg64_21_cif.got.tgz:41780.got - 2010.06.03 16:29:19.
