data_PCOD9478285
_publ_section_title
;
Structure prediction by ZEFSAII (Michael W. Deem and Ramdas Pophale) SiO2 
 PCOD9478285
Probable space group: C M C A
;
_chemical_formula_sum "Si O2"
_cell_formula_units_Z 96
_cell_length_a 19.664918
_cell_length_b 11.819682
_cell_length_c 21.783753
_cell_angle_alpha 90.000000
_cell_angle_beta 90.000000
_cell_angle_gamma 90.000000
_cell_volume 5063.264745
_symmetry_space_group_name_H-M "C M C A"
_symmetry_group_IT_number 64
_symmetry_cell_setting 'orthorhombic'
loop_
_space_group_symop_operation_xyz
x,y,z
-x,1/2-y,1/2+z
x,-y,-z
-x,1/2+y,1/2-z
-x,-y,-z
x,1/2+y,1/2-z
-x,y,z
x,1/2-y,1/2+z
1/2+x,1/2+y,z
1/2-x,-y,1/2+z
1/2+x,1/2-y,-z
1/2-x,y,1/2-z
1/2-x,1/2-y,-z
1/2+x,y,1/2-z
1/2-x,1/2+y,z
1/2+x,-y,1/2+z
loop_
_atom_site_type_symbol
_atom_site_label
_atom_site_fract_x
_atom_site_fract_y
_atom_site_fract_z
Si Si1 0.647034 0.241093 0.638139
Si Si2 0.173881 0.877725 0.266008
Si Si3 0.696581 0.787456 0.618203
Si Si4 0.578613 0.971972 0.840847
Si Si5 0.822883 0.023429 0.927379
Si Si6 0.831635 0.422531 0.059315
O O1 0.649848 0.186458 0.705502
O O2 0.721221 0.294052 0.621203
O O3 0.594576 0.343174 0.640900
O O4 0.636952 0.134993 0.592878
O O5 0.250000 0.918380 0.250000
O O6 0.176970 0.786153 0.321779
O O7 0.126257 0.981167 0.286158
O O8 0.663352 0.909946 0.611170
O O9 0.674304 0.713186 0.558592
O O10 0.500000 0.989344 0.827581
O O11 0.605608 0.044567 0.898252
O O12 0.742927 0.048100 0.913165
O O13 0.828500 0.000000 0.000000
O O14 0.836687 0.500000 0.000000
#
# Coordination Sequence:
#
# PCOD9478285 Si02
#       6
#    16  16  16  16  16  16
#     4  10  21  34  57  82 114 152 188 240 300 355
#     4   9  21  37  61  85 109 150 194 249 294 348
#     4   9  18  34  54  88 116 142 190 248 299 346
#     4  11  23  38  56  83 119 152 196 240 293 364
#     4  10  20  32  58  91 119 150 190 252 310 346
#     4   9  19  33  56  82 115 151 192 241 293 349
#
# _framework density 18.960100000000001
#
# number of rings (size 3 to 8) (size 9 to 14) (size 15 to 20)
#    0.000    2.333    1.667    1.000    4.667    3.667 
#    0.000    0.000    0.000    1.500    0.000    0.000 
#    0.000    0.000    0.000    0.000    0.000    0.000 
#
# Total GULP energy -267498.803941 kJ/mol
# GULP energy per Si atom -5572.891749 kJ/mol
# Density = 1.891695 g / cm^3
# Si number density = 18.960100 Si / 1000 Ang^3
#
#
#
# Elastic Constant Matrix: (Units=GPa)
#
#
# Indices 1 2 3 4 5 6 
#
# 1 78.8815 35.5545 20.5772 0.0000 0.0000 0.0000
# 2 35.5545 96.5492 17.0027 0.0000 0.0000 0.0000
# 3 20.5772 17.0027 51.8006 0.0000 0.0000 0.0000
# 4 0.0000 0.0000 0.0000 21.3219 0.0000 0.0000
# 5 0.0000 0.0000 0.0000 0.0000 6.4719 0.0000
# 6 0.0000 0.0000 0.0000 0.0000 0.0000 11.9682
#
#
#
# Elastic Compliance Matrix: (Units=1/GPa)
#
#
# Indices 1 2 3 4 5 6 
#
# 1 0.016237 -0.005140 -0.004763 0.000000 0.000000 0.000000
# 2 -0.005140 0.012620 -0.002100 0.000000 0.000000 0.000000
# 3 -0.004763 -0.002100 0.021886 0.000000 0.000000 0.000000
# 4 0.000000 0.000000 0.000000 0.046900 0.000000 0.000000
# 5 0.000000 0.000000 0.000000 0.000000 0.154515 0.000000
# 6 0.000000 0.000000 0.000000 0.000000 0.000000 0.083554
#
#
# Mechanical properties :
#
#
# Convention : Reuss Voigt Hill
#
# Bulk Modulus (GPa) = 37.40255 41.50001 39.45128
# Shear Modulus (GPa) = 13.56369 18.22553 15.89461
#
# Velocity S-wave (km/s) = 2.67756 3.10378 2.89851
# Velocity P-wave (km/s) = 5.41562 5.89747 5.66167
#
# Compressibility (1/GPa) = 0.02673614
#
# Stress axis : x y z
#
# Youngs Moduli (GPa) = 61.58929 79.23743 45.69116
#
# Poissons Ratio (x) = 0.40732 0.21761
# Poissons Ratio (y) = 0.31660 0.09597
# Poissons Ratio (z) = 0.29332 0.16643
#
# Static dielectric constant tensor:
#      x y z
#    x 1.622690 0.000000 0.000000 
#    y 0.000000 1.706310 0.000000 
#    z 0.000000 0.000000 1.714360 
# 
# From -- ./inp_files/40829.got.cif
#   From: 2010.05.17/outbox.cif.g08.bks.cpg/sg64_21_cif.got.tgz:40829.got - 2010.06.03 16:29:19.
