data_PCOD9478337
_publ_section_title
;
Structure prediction by ZEFSAII (Michael W. Deem and Ramdas Pophale) SiO2 
 PCOD9478337
Probable space group: C M C A
;
_chemical_formula_sum "Si O2"
_cell_formula_units_Z 96
_cell_length_a 8.597680
_cell_length_b 24.105773
_cell_length_c 25.962121
_cell_angle_alpha 90.000000
_cell_angle_beta 90.000000
_cell_angle_gamma 90.000000
_cell_volume 5380.746219
_symmetry_space_group_name_H-M "C M C A"
_symmetry_group_IT_number 64
_symmetry_cell_setting 'orthorhombic'
loop_
_space_group_symop_operation_xyz
x,y,z
-x,1/2-y,1/2+z
x,-y,-z
-x,1/2+y,1/2-z
-x,-y,-z
x,1/2+y,1/2-z
-x,y,z
x,1/2-y,1/2+z
1/2+x,1/2+y,z
1/2-x,-y,1/2+z
1/2+x,1/2-y,-z
1/2-x,y,1/2-z
1/2-x,1/2-y,-z
1/2+x,y,1/2-z
1/2-x,1/2+y,z
1/2+x,-y,1/2+z
loop_
_atom_site_type_symbol
_atom_site_label
_atom_site_fract_x
_atom_site_fract_y
_atom_site_fract_z
Si Si1 0.687574 0.440302 0.807002
Si Si2 0.685870 0.564495 0.692859
Si Si3 0.315071 0.385793 0.094928
Si Si4 0.314715 0.687914 0.501605
Si Si5 0.676034 0.001956 0.060603
Si Si6 0.317208 0.383693 0.908148
O O1 0.500000 0.444567 0.806821
O O2 0.750000 0.428085 0.750000
O O3 0.753161 0.501894 0.820909
O O4 0.731796 0.392551 0.848323
O O5 0.500000 0.563280 0.693337
O O6 0.750000 0.575234 0.750000
O O7 0.745358 0.610839 0.652643
O O8 0.500000 0.381069 0.097332
O O9 0.251317 0.342850 0.052532
O O10 0.260313 0.445694 0.075191
O O11 0.500000 0.687572 0.505107
O O12 0.250000 0.750000 0.500000
O O13 0.266531 0.656575 0.448622
O O14 0.500000 0.006353 0.083172
O O15 0.781848 0.054459 0.072283
O O16 0.656731 0.000000 0.000000
O O17 0.500000 0.370887 0.909682
#
# Coordination Sequence:
#
# PCOD9478337 Si02
#       6
#    16  16  16  16  16  16
#     4  10  20  33  52  81 119 157 194 232 280 339
#     4  11  21  34  54  82 120 158 195 234 282 342
#     4  12  23  37  58  84 117 154 192 236 289 346
#     4  12  26  44  63  85 112 148 194 242 295 348
#     4  11  21  32  51  82 116 151 190 232 285 346
#     4  11  22  36  57  84 117 154 191 236 288 344
#
# _framework density 17.841391000000002
#
# number of rings (size 3 to 8) (size 9 to 14) (size 15 to 20)
#    0.000    0.833    3.333    7.000    0.000    2.667 
#    0.000    0.000    0.000    1.000    0.000    4.667 
#    0.000    0.000    0.000    0.000    0.000    0.000 
#
# Total GULP energy -267843.143765 kJ/mol
# GULP energy per Si atom -5580.065495 kJ/mol
# Density = 1.780078 g / cm^3
# Si number density = 17.841391 Si / 1000 Ang^3
#
#
#
# Elastic Constant Matrix: (Units=GPa)
#
#
# Indices 1 2 3 4 5 6 
#
# 1 111.0436 17.1512 51.0945 0.0000 0.0000 0.0000
# 2 17.1512 87.7885 52.3569 0.0000 0.0000 0.0000
# 3 51.0945 52.3569 150.2233 0.0000 0.0000 0.0000
# 4 0.0000 0.0000 0.0000 15.9287 0.0000 0.0000
# 5 0.0000 0.0000 0.0000 0.0000 55.0580 0.0000
# 6 0.0000 0.0000 0.0000 0.0000 0.0000 32.6774
#
#
#
# Elastic Compliance Matrix: (Units=1/GPa)
#
#
# Indices 1 2 3 4 5 6 
#
# 1 0.010677 0.000101 -0.003667 0.000000 0.000000 0.000000
# 2 0.000101 0.014381 -0.005046 0.000000 0.000000 0.000000
# 3 -0.003667 -0.005046 0.009663 0.000000 0.000000 0.000000
# 4 0.000000 0.000000 0.000000 0.062780 0.000000 0.000000
# 5 0.000000 0.000000 0.000000 0.000000 0.018163 0.000000
# 6 0.000000 0.000000 0.000000 0.000000 0.000000 0.030602
#
#
# Mechanical properties :
#
#
# Convention : Reuss Voigt Hill
#
# Bulk Modulus (GPa) = 57.15542 65.58450 61.36996
# Shear Modulus (GPa) = 29.52952 35.96300 32.74626
#
# Velocity S-wave (km/s) = 4.07272 4.49453 4.28882
# Velocity P-wave (km/s) = 7.36349 7.98586 7.68098
#
# Compressibility (1/GPa) = 0.01749615
#
# Stress axis : x y z
#
# Youngs Moduli (GPa) = 93.65895 69.53616 103.49080
#
# Poissons Ratio (x) = -0.00701 0.37946
# Poissons Ratio (y) = -0.00944 0.52226
# Poissons Ratio (z) = 0.34341 0.35091
#
# Static dielectric constant tensor:
#      x y z
#    x 1.621110 0.000000 0.000000 
#    y 0.000000 1.568340 0.000000 
#    z 0.000000 0.000000 1.694770 
# 
# From -- ./inp_files/48339.got.cif
#   From: 2010.05.17/outbox.cif.g08.bks.cpg/sg64_25_cif.got.tgz:48339.got - 2010.06.03 16:29:19.
