data_PCOD9478816
_publ_section_title
;
Structure prediction by ZEFSAII (Michael W. Deem and Ramdas Pophale) SiO2 
 PCOD9478816
Probable space group: C M C A
;
_chemical_formula_sum "Si O2"
_cell_formula_units_Z 112
_cell_length_a 22.836388
_cell_length_b 13.171396
_cell_length_c 17.332945
_cell_angle_alpha 90.000000
_cell_angle_beta 90.000000
_cell_angle_gamma 90.000000
_cell_volume 5213.526427
_symmetry_space_group_name_H-M "C M C A"
_symmetry_group_IT_number 64
_symmetry_cell_setting 'orthorhombic'
loop_
_space_group_symop_operation_xyz
x,y,z
-x,1/2-y,1/2+z
x,-y,-z
-x,1/2+y,1/2-z
-x,-y,-z
x,1/2+y,1/2-z
-x,y,z
x,1/2-y,1/2+z
1/2+x,1/2+y,z
1/2-x,-y,1/2+z
1/2+x,1/2-y,-z
1/2-x,y,1/2-z
1/2-x,1/2-y,-z
1/2+x,y,1/2-z
1/2-x,1/2+y,z
1/2+x,-y,1/2+z
loop_
_atom_site_type_symbol
_atom_site_label
_atom_site_fract_x
_atom_site_fract_y
_atom_site_fract_z
Si Si1 0.131985 0.316410 0.613618
Si Si2 0.121999 0.559377 0.075933
Si Si3 0.707528 0.620672 0.854574
Si Si4 0.736277 0.681260 0.425276
Si Si5 0.396995 0.472465 0.085464
Si Si6 0.841519 0.606215 0.813166
Si Si7 0.433487 0.766644 0.453895
O O1 0.200631 0.346422 0.608177
O O2 0.099080 0.422424 0.632391
O O3 0.131241 0.216459 0.666936
O O4 0.108280 0.282295 0.529035
O O5 0.189082 0.595236 0.059840
O O6 0.122140 0.483482 0.147950
O O7 0.085092 0.661684 0.084945
O O8 0.101225 0.500000 0.000000
O O9 0.704830 0.741219 0.866426
O O10 0.671235 0.561855 0.918941
O O11 0.776420 0.600660 0.851294
O O12 0.673792 0.593049 0.776212
O O13 0.750000 0.750000 0.500000
O O14 0.426919 0.364542 0.102098
O O15 0.418634 0.500000 0.000000
O O16 0.500000 0.761709 0.481247
#
# Coordination Sequence:
#
# PCOD9478816 Si02
#       7
#    16  16  16  16  16  16  16
#     4  10  20  36  56  89 121 156 198 254 316 380
#     4  12  21  37  62  91 123 159 202 260 313 378
#     4  10  20  37  56  91 131 165 199 243 302 392
#     4  11  18  33  60  90 125 154 196 249 315 383
#     4  10  20  37  61  85 115 154 201 258 312 360
#     4  10  22  35  56  92 130 167 199 239 316 384
#     4  11  23  40  62  89 116 157 217 271 316 361
#
# _framework density 21.482579999999999
#
# number of rings (size 3 to 8) (size 9 to 14) (size 15 to 20)
#    0.000    1.429    4.286    2.571    0.000    6.286 
#    0.000    2.857    0.000    1.714    0.000    0.000 
#    0.000    0.000    0.000    0.000    0.000    0.000 
#
# Total GULP energy -312331.776641 kJ/mol
# GULP energy per Si atom -5577.353154 kJ/mol
# Density = 2.143368 g / cm^3
# Si number density = 21.482580 Si / 1000 Ang^3
#
#
#
# Elastic Constant Matrix: (Units=GPa)
#
#
# Indices 1 2 3 4 5 6 
#
# 1 46.5506 25.4991 0.1647 0.0000 0.0000 0.0000
# 2 25.4991 173.6046 32.0065 0.0000 0.0000 0.0000
# 3 0.1647 32.0065 39.2644 0.0000 0.0000 0.0000
# 4 0.0000 0.0000 0.0000 21.6954 0.0000 0.0000
# 5 0.0000 0.0000 0.0000 0.0000 7.1157 0.0000
# 6 0.0000 0.0000 0.0000 0.0000 0.0000 3.6227
#
#
#
# Elastic Compliance Matrix: (Units=1/GPa)
#
#
# Indices 1 2 3 4 5 6 
#
# 1 0.023703 -0.004076 0.003223 0.000000 0.000000 0.000000
# 2 -0.004076 0.007480 -0.006080 0.000000 0.000000 0.000000
# 3 0.003223 -0.006080 0.030411 0.000000 0.000000 0.000000
# 4 0.000000 0.000000 0.000000 0.046093 0.000000 0.000000
# 5 0.000000 0.000000 0.000000 0.000000 0.140534 0.000000
# 6 0.000000 0.000000 0.000000 0.000000 0.000000 0.276037
#
#
# Mechanical properties :
#
#
# Convention : Reuss Voigt Hill
#
# Bulk Modulus (GPa) = 20.95199 41.64005 31.29602
# Shear Modulus (GPa) = 9.02474 19.93672 14.48073
#
# Velocity S-wave (km/s) = 2.05185 3.04968 2.59910
# Velocity P-wave (km/s) = 3.92271 5.64145 4.85868
#
# Compressibility (1/GPa) = 0.04772817
#
# Stress axis : x y z
#
# Youngs Moduli (GPa) = 42.18844 133.69318 32.88281
#
# Poissons Ratio (x) = 0.54490 -0.10598
# Poissons Ratio (y) = 0.17195 0.19993
# Poissons Ratio (z) = -0.13597 0.81287
#
# Static dielectric constant tensor:
#      x y z
#    x 1.765270 0.000000 0.000000 
#    y 0.000000 1.844570 0.000000 
#    z 0.000000 0.000000 1.814800 
# 
# From -- ./inp_files/41550.got.cif
#   From: 2010.05.17/outbox.cif.g08.bks.cpg/sg64_21_cif.got.tgz:41550.got - 2010.06.03 16:29:19.
