data_PCOD9478214
_publ_section_title
;
Structure prediction by ZEFSAII (Michael W. Deem and Ramdas Pophale) SiO2 
 PCOD9478214
Probable space group: C M C A
;
_chemical_formula_sum "Si O2"
_cell_formula_units_Z 112
_cell_length_a 14.265896
_cell_length_b 11.362963
_cell_length_c 31.194159
_cell_angle_alpha 90.000000
_cell_angle_beta 90.000000
_cell_angle_gamma 90.000000
_cell_volume 5056.662028
_symmetry_space_group_name_H-M "C M C A"
_symmetry_group_IT_number 64
_symmetry_cell_setting 'orthorhombic'
loop_
_space_group_symop_operation_xyz
x,y,z
-x,1/2-y,1/2+z
x,-y,-z
-x,1/2+y,1/2-z
-x,-y,-z
x,1/2+y,1/2-z
-x,y,z
x,1/2-y,1/2+z
1/2+x,1/2+y,z
1/2-x,-y,1/2+z
1/2+x,1/2-y,-z
1/2-x,y,1/2-z
1/2-x,1/2-y,-z
1/2+x,y,1/2-z
1/2-x,1/2+y,z
1/2+x,-y,1/2+z
loop_
_atom_site_type_symbol
_atom_site_label
_atom_site_fract_x
_atom_site_fract_y
_atom_site_fract_z
Si Si1 0.850574 0.814721 0.726777
Si Si2 0.650885 0.418177 0.274239
Si Si3 0.393347 0.691290 0.084407
Si Si4 0.747602 0.799932 0.351406
Si Si5 0.199097 0.548256 0.572380
Si Si6 0.893200 0.210859 0.989500
Si Si7 0.602540 0.541870 0.450692
O O1 0.750000 0.825915 0.750000
O O2 0.894058 0.698972 0.751228
O O3 0.821671 0.774293 0.678978
O O4 0.891462 0.948674 0.727563
O O5 0.750000 0.429155 0.250000
O O6 0.684493 0.380133 0.321609
O O7 0.500000 0.715055 0.097219
O O8 0.318569 0.724154 0.120044
O O9 0.375379 0.555711 0.073935
O O10 0.374168 0.751305 0.038182
O O11 0.688500 0.874890 0.385118
O O12 0.179603 0.618308 0.528696
O O13 0.305652 0.502426 0.572851
O O14 0.891097 0.318209 0.956446
O O15 0.000000 0.164521 0.990236
O O16 0.603442 0.500000 0.500000
O O17 0.500000 0.509069 0.432368
#
# Coordination Sequence:
#
# PCOD9478214 Si02
#       7
#    16  16  16  16  16  16  16
#     4   8  15  30  52  83 115 146 183 233 284 348
#     4   8  15  29  51  80 112 144 180 227 280 344
#     4  11  23  37  53  77 112 152 197 249 300 351
#     4  10  20  31  51  82 114 142 184 238 294 348
#     4  12  22  34  55  80 108 147 196 250 300 356
#     4  10  22  39  54  71 102 150 201 247 299 355
#     4  10  21  36  53  74 103 140 186 242 304 363
#
# _framework density 22.148999
#
# number of rings (size 3 to 8) (size 9 to 14) (size 15 to 20)
#    0.000    2.429    0.000    4.286    0.000    5.714 
#    0.000    0.000    0.000    0.000    0.000   80.000 
#    0.000    0.000    0.000    0.000    0.000    0.000 
#
# Total GULP energy -312349.672033 kJ/mol
# GULP energy per Si atom -5577.672715 kJ/mol
# Density = 2.209859 g / cm^3
# Si number density = 22.148999 Si / 1000 Ang^3
#
#
#
# Elastic Constant Matrix: (Units=GPa)
#
#
# Indices 1 2 3 4 5 6 
#
# 1 75.5358 26.9910 19.1375 0.0000 0.0000 0.0000
# 2 26.9910 124.1678 13.6804 0.0000 0.0000 0.0000
# 3 19.1375 13.6804 76.0215 0.0000 0.0000 0.0000
# 4 0.0000 0.0000 0.0000 -69.5019 0.0000 0.0000
# 5 0.0000 0.0000 0.0000 0.0000 -30.3394 0.0000
# 6 0.0000 0.0000 0.0000 0.0000 0.0000 -25.1952
#
#
#
# Elastic Compliance Matrix: (Units=1/GPa)
#
#
# Indices 1 2 3 4 5 6 
#
# 1 0.015114 -0.002924 -0.003279 0.000000 0.000000 0.000000
# 2 -0.002924 0.008782 -0.000844 0.000000 0.000000 0.000000
# 3 -0.003279 -0.000844 0.014131 0.000000 0.000000 0.000000
# 4 0.000000 0.000000 0.000000 -0.014388 0.000000 0.000000
# 5 0.000000 0.000000 0.000000 0.000000 -0.032960 0.000000
# 6 0.000000 0.000000 0.000000 0.000000 0.000000 -0.039690
#
#
# Mechanical properties :
#
#
# Convention : Reuss Voigt Hill
#
# Bulk Modulus (GPa) = 41.78190 43.92698 42.85444
# Shear Modulus (GPa) = -185.60887 -10.61288 -98.11087
#
# Velocity S-wave (km/s) = -9.16417 -2.19134 -6.66273
# Velocity P-wave (km/s) = 9.64734 3.67054 6.30865
#
# Compressibility (1/GPa) = 0.02393381
#
# Stress axis : x y z
#
# Youngs Moduli (GPa) = 66.16240 113.86544 70.76413
#
# Poissons Ratio (x) = 0.33297 0.23201
# Poissons Ratio (y) = 0.19348 0.05974
# Poissons Ratio (z) = 0.21692 0.09613
#
# Static dielectric constant tensor:
#      x y z
#    x 1.796900 0.000000 0.000000 
#    y 0.000000 1.948780 0.000000 
#    z 0.000000 0.000000 1.791820 
# 
# From -- ./inp_files/53238.got.cif
#   From: 2010.05.17/outbox.cif.g08.bks.cpg/sg64_27_cif.got.tgz:53238.got - 2010.06.03 16:29:19.
