data_PCOD9478659
_publ_section_title
;
Structure prediction by ZEFSAII (Michael W. Deem and Ramdas Pophale) SiO2 
 PCOD9478659
Probable space group: C M C A
;
_chemical_formula_sum "Si O2"
_cell_formula_units_Z 80
_cell_length_a 8.110785
_cell_length_b 25.898690
_cell_length_c 19.312978
_cell_angle_alpha 90.000000
_cell_angle_beta 90.000000
_cell_angle_gamma 90.000000
_cell_volume 4056.859175
_symmetry_space_group_name_H-M "C M C A"
_symmetry_group_IT_number 64
_symmetry_cell_setting 'orthorhombic'
loop_
_space_group_symop_operation_xyz
x,y,z
-x,1/2-y,1/2+z
x,-y,-z
-x,1/2+y,1/2-z
-x,-y,-z
x,1/2+y,1/2-z
-x,y,z
x,1/2-y,1/2+z
1/2+x,1/2+y,z
1/2-x,-y,1/2+z
1/2+x,1/2-y,-z
1/2-x,y,1/2-z
1/2-x,1/2-y,-z
1/2+x,y,1/2-z
1/2-x,1/2+y,z
1/2+x,-y,1/2+z
loop_
_atom_site_type_symbol
_atom_site_label
_atom_site_fract_x
_atom_site_fract_y
_atom_site_fract_z
Si Si1 0.201572 0.585505 0.589644
Si Si2 0.196591 0.312586 0.329217
Si Si3 0.800913 0.483067 0.670301
Si Si4 0.201804 0.894291 0.933001
Si Si5 0.303718 0.776710 0.571461
O O1 0.258322 0.637869 0.627369
O O2 0.256443 0.535170 0.631670
O O3 0.251206 0.586194 0.509334
O O4 0.000000 0.585573 0.590269
O O5 0.250000 0.315748 0.250000
O O6 0.252434 0.260162 0.365985
O O7 0.000000 0.314120 0.332161
O O8 0.750000 0.481996 0.750000
O O9 0.743356 0.433395 0.626677
O O10 0.000000 0.483401 0.667844
O O11 0.259515 0.835394 0.923494
O O12 0.000000 0.893970 0.932169
O O13 0.500000 0.779843 0.570108
O O14 0.250000 0.750000 0.500000
#
# Coordination Sequence:
#
# PCOD9478659 Si02
#       5
#    16  16  16  16  16
#     4   9  17  33  58  84 108 141 187 233 277 331
#     4  11  22  37  57  85 117 149 189 235 284 339
#     4  10  20  35  57  81 111 146 182 228 280 333
#     4   9  18  34  58  84 107 141 190 233 273 333
#     4  11  21  37  59  84 114 149 190 235 283 337
#
# _framework density 19.719688000000001
#
# number of rings (size 3 to 8) (size 9 to 14) (size 15 to 20)
#    0.000    2.000    2.000    2.400    0.000    3.200 
#    0.000    5.000    0.000    1.200    0.000    0.000 
#    0.000    0.000    0.000    0.000    0.000    0.000 
#
# Total GULP energy -223433.703314 kJ/mol
# GULP energy per Si atom -5585.842583 kJ/mol
# Density = 1.967481 g / cm^3
# Si number density = 19.719688 Si / 1000 Ang^3
#
#
#
# Elastic Constant Matrix: (Units=GPa)
#
#
# Indices 1 2 3 4 5 6 
#
# 1 18.6677 14.2345 7.4938 0.0000 0.0000 0.0000
# 2 14.2345 200.2744 115.9647 0.0000 0.0000 0.0000
# 3 7.4938 115.9647 141.6164 0.0000 0.0000 0.0000
# 4 0.0000 0.0000 0.0000 39.5391 0.0000 0.0000
# 5 0.0000 0.0000 0.0000 0.0000 32.9256 0.0000
# 6 0.0000 0.0000 0.0000 0.0000 0.0000 17.8629
#
#
#
# Elastic Compliance Matrix: (Units=1/GPa)
#
#
# Indices 1 2 3 4 5 6 
#
# 1 0.056662 -0.004357 0.000569 0.000000 0.000000 0.000000
# 2 -0.004357 0.009830 -0.007819 0.000000 0.000000 0.000000
# 3 0.000569 -0.007819 0.013434 0.000000 0.000000 0.000000
# 4 0.000000 0.000000 0.000000 0.025291 0.000000 0.000000
# 5 0.000000 0.000000 0.000000 0.000000 0.030372 0.000000
# 6 0.000000 0.000000 0.000000 0.000000 0.000000 0.055982
#
#
# Mechanical properties :
#
#
# Convention : Reuss Voigt Hill
#
# Bulk Modulus (GPa) = 17.63262 70.66051 44.14656
# Shear Modulus (GPa) = 21.39593 32.92321 27.15957
#
# Velocity S-wave (km/s) = 3.29751 4.09046 3.71520
# Velocity P-wave (km/s) = 4.84347 7.63016 6.39056
#
# Compressibility (1/GPa) = 0.05671308
#
# Stress axis : x y z
#
# Youngs Moduli (GPa) = 17.64847 101.72576 74.43775
#
# Poissons Ratio (x) = 0.44322 -0.04239
# Poissons Ratio (y) = 0.07689 0.58204
# Poissons Ratio (z) = -0.01005 0.79541
#
# Static dielectric constant tensor:
#      x y z
#    x 1.716740 0.000000 0.000000 
#    y 0.000000 1.692050 0.000000 
#    z 0.000000 0.000000 1.643520 
# 
# From -- ./inp_files/29785.got.cif
#   From: 2010.05.17/outbox.cif.g08.bks.cpg/sg64_15_cif.got.tgz:29785.got - 2010.06.03 16:29:19.
