data_PCOD9478253
_publ_section_title
;
Structure prediction by ZEFSAII (Michael W. Deem and Ramdas Pophale) SiO2 
 PCOD9478253
Probable space group: C M C A
;
_chemical_formula_sum "Si O2"
_cell_formula_units_Z 68
_cell_length_a 8.419369
_cell_length_b 13.795350
_cell_length_c 23.046240
_cell_angle_alpha 90.000000
_cell_angle_beta 90.000000
_cell_angle_gamma 90.000000
_cell_volume 2676.777959
_symmetry_space_group_name_H-M "C M C A"
_symmetry_group_IT_number 64
_symmetry_cell_setting 'orthorhombic'
loop_
_space_group_symop_operation_xyz
x,y,z
-x,1/2-y,1/2+z
x,-y,-z
-x,1/2+y,1/2-z
-x,-y,-z
x,1/2+y,1/2-z
-x,y,z
x,1/2-y,1/2+z
1/2+x,1/2+y,z
1/2-x,-y,1/2+z
1/2+x,1/2-y,-z
1/2-x,y,1/2-z
1/2-x,1/2-y,-z
1/2+x,y,1/2-z
1/2-x,1/2+y,z
1/2+x,-y,1/2+z
loop_
_atom_site_type_symbol
_atom_site_label
_atom_site_fract_x
_atom_site_fract_y
_atom_site_fract_z
Si Si1 0.680420 0.482251 0.570802
Si Si2 0.177740 0.727950 0.687016
Si Si3 0.500000 0.500000 0.000000
Si Si4 0.679950 0.007749 0.311117
Si Si5 0.821022 0.283045 0.061663
O O1 0.500000 0.447533 0.553490
O O2 0.704282 0.461200 0.638005
O O3 0.681269 0.599444 0.563500
O O4 0.852237 0.457044 0.541832
O O5 0.250000 0.753539 0.750000
O O6 0.175770 0.609766 0.687211
O O7 0.248120 0.750374 0.623152
O O8 0.000000 0.764601 0.687258
O O9 0.500000 0.042563 0.318924
O O10 0.750000 0.036068 0.250000
O O11 0.000000 0.251079 0.061409
O O12 0.750000 0.250000 0.000000
#
# Coordination Sequence:
#
# PCOD9478253 Si02
#       5
#    16  16   4  16  16
#     4  10  21  35  51  78 107 140 178 218 261 318
#     4   9  16  26  43  67 102 136 166 205 260 318
#     4  12  22  36  56  70 112 140 182 208 264 314
#     4   9  15  26  45  71 103 134 162 210 269 318
#     4  10  20  32  51  76 109 139 174 217 264 314
#
# _framework density 25.403676000000001
#
# number of rings (size 3 to 8) (size 9 to 14) (size 15 to 20)
#    0.000    2.353    1.176    2.471    3.294    5.647 
#    0.000    0.000    0.000    0.000    0.000    1.647 
#    7.059    0.000    0.000    0.000    0.000    0.000 
#
# Total GULP energy -189321.776159 kJ/mol
# GULP energy per Si atom -5568.287534 kJ/mol
# Density = 2.534586 g / cm^3
# Si number density = 25.403676 Si / 1000 Ang^3
#
#
#
# Elastic Constant Matrix: (Units=GPa)
#
#
# Indices 1 2 3 4 5 6 
#
# 1 268.0504 27.3151 155.5557 0.0000 0.0000 0.0000
# 2 27.3151 110.5309 -1.0142 0.0000 0.0000 0.0000
# 3 155.5557 -1.0142 268.6873 0.0000 0.0000 0.0000
# 4 0.0000 0.0000 0.0000 7.7145 0.0000 0.0000
# 5 0.0000 0.0000 0.0000 0.0000 62.0372 0.0000
# 6 0.0000 0.0000 0.0000 0.0000 0.0000 16.5746
#
#
#
# Elastic Compliance Matrix: (Units=1/GPa)
#
#
# Indices 1 2 3 4 5 6 
#
# 1 0.005850 -0.001477 -0.003392 0.000000 0.000000 0.000000
# 2 -0.001477 0.009420 0.000891 0.000000 0.000000 0.000000
# 3 -0.003392 0.000891 0.005689 0.000000 0.000000 0.000000
# 4 0.000000 0.000000 0.000000 0.129625 0.000000 0.000000
# 5 0.000000 0.000000 0.000000 0.000000 0.016119 0.000000
# 6 0.000000 0.000000 0.000000 0.000000 0.000000 0.060333
#
#
# Mechanical properties :
#
#
# Convention : Reuss Voigt Hill
#
# Bulk Modulus (GPa) = 76.91005 112.33135 94.62070
# Shear Modulus (GPa) = 20.89181 48.29273 34.59227
#
# Velocity S-wave (km/s) = 2.87085 4.36479 3.69413
# Velocity P-wave (km/s) = 6.42884 8.34964 7.45139
#
# Compressibility (1/GPa) = 0.01300220
#
# Stress axis : x y z
#
# Youngs Moduli (GPa) = 170.94801 106.15311 175.77479
#
# Poissons Ratio (x) = 0.15676 0.59627
# Poissons Ratio (y) = 0.25245 -0.15653
# Poissons Ratio (z) = 0.57990 -0.09453
#
# Static dielectric constant tensor:
#      x y z
#    x 1.927960 0.000000 0.000000 
#    y 0.000000 2.128800 0.000000 
#    z 0.000000 0.000000 1.703690 
# 
# From -- ./inp_files/29659.got.cif
#   From: 2010.05.17/outbox.cif.g08.bks.cpg/sg64_15_cif.got.tgz:29659.got - 2010.06.03 16:29:19.
