data_PCOD9478313
_publ_section_title
;
Structure prediction by ZEFSAII (Michael W. Deem and Ramdas Pophale) SiO2 
 PCOD9478313
Probable space group: C M C A
;
_chemical_formula_sum "Si O2"
_cell_formula_units_Z 96
_cell_length_a 24.222675
_cell_length_b 9.003810
_cell_length_c 25.151514
_cell_angle_alpha 90.000000
_cell_angle_beta 90.000000
_cell_angle_gamma 90.000000
_cell_volume 5485.453737
_symmetry_space_group_name_H-M "C M C A"
_symmetry_group_IT_number 64
_symmetry_cell_setting 'orthorhombic'
loop_
_space_group_symop_operation_xyz
x,y,z
-x,1/2-y,1/2+z
x,-y,-z
-x,1/2+y,1/2-z
-x,-y,-z
x,1/2+y,1/2-z
-x,y,z
x,1/2-y,1/2+z
1/2+x,1/2+y,z
1/2-x,-y,1/2+z
1/2+x,1/2-y,-z
1/2-x,y,1/2-z
1/2-x,1/2-y,-z
1/2+x,y,1/2-z
1/2-x,1/2+y,z
1/2+x,-y,1/2+z
loop_
_atom_site_type_symbol
_atom_site_label
_atom_site_fract_x
_atom_site_fract_y
_atom_site_fract_z
Si Si1 0.500000 0.547261 0.322152
Si Si2 0.693201 0.411049 0.446687
Si Si3 0.500000 0.578963 0.944368
Si Si4 0.187976 0.944000 0.942484
Si Si5 0.000000 0.335493 0.018816
Si Si6 0.000000 0.392879 0.289949
Si Si7 0.088882 0.541498 0.364228
Si Si8 0.084817 0.627367 0.888677
O O1 0.500000 0.717889 0.303753
O O2 0.500000 0.439662 0.271155
O O3 0.448458 0.499905 0.358720
O O4 0.675949 0.500000 0.500000
O O5 0.753195 0.476921 0.433881
O O6 0.696582 0.232455 0.451546
O O7 0.645153 0.429723 0.403539
O O8 0.448234 0.524299 0.911606
O O9 0.500000 0.500000 0.000000
O O10 0.500000 0.745969 0.963969
O O11 0.149600 0.974655 0.890988
O O12 0.165199 0.000000 0.000000
O O13 0.053079 0.319548 0.057289
O O14 0.000000 0.500000 0.000000
O O15 0.056655 0.462716 0.315389
O O16 0.084109 0.718930 0.355839
#
# Coordination Sequence:
#
# PCOD9478313 Si02
#       8
#     8  16   8  16   8   8  16  16
#     4  11  23  39  60  81 108 133 173 222 279 330
#     4  10  20  34  51  76 110 150 184 221 259 306
#     4  11  17  31  48  70 105 142 174 211 259 318
#     4  10  20  33  51  75 111 149 185 221 256 311
#     4  11  21  29  44  74 109 138 172 217 263 314
#     4  11  23  39  60  83 104 136 173 224 279 331
#     4  10  21  34  54  76 104 141 182 217 266 321
#     4  10  21  36  51  76 108 142 177 221 266 318
#
# _framework density 17.500831000000002
#
# number of rings (size 3 to 8) (size 9 to 14) (size 15 to 20)
#    0.000    1.667    1.667    5.500    7.000    2.667 
#    0.000    0.000    0.000    1.000    0.000    7.000 
#    0.000    0.000    0.000    0.000    0.000    0.000 
#
# Total GULP energy -267238.166398 kJ/mol
# GULP energy per Si atom -5567.461800 kJ/mol
# Density = 1.746100 g / cm^3
# Si number density = 17.500831 Si / 1000 Ang^3
#
#
#
# Elastic Constant Matrix: (Units=GPa)
#
#
# Indices 1 2 3 4 5 6 
#
# 1 78.6603 39.2856 26.3471 0.0000 0.0000 0.0000
# 2 39.2856 119.3265 20.3423 0.0000 0.0000 0.0000
# 3 26.3471 20.3423 45.1203 0.0000 0.0000 0.0000
# 4 0.0000 0.0000 0.0000 29.4522 0.0000 0.0000
# 5 0.0000 0.0000 0.0000 0.0000 10.0331 0.0000
# 6 0.0000 0.0000 0.0000 0.0000 0.0000 10.9719
#
#
#
# Elastic Compliance Matrix: (Units=1/GPa)
#
#
# Indices 1 2 3 4 5 6 
#
# 1 0.017713 -0.004407 -0.008356 0.000000 0.000000 0.000000
# 2 -0.004407 0.010175 -0.002014 0.000000 0.000000 0.000000
# 3 -0.008356 -0.002014 0.027950 0.000000 0.000000 0.000000
# 4 0.000000 0.000000 0.000000 0.033953 0.000000 0.000000
# 5 0.000000 0.000000 0.000000 0.000000 0.099670 0.000000
# 6 0.000000 0.000000 0.000000 0.000000 0.000000 0.091142
#
#
# Mechanical properties :
#
#
# Convention : Reuss Voigt Hill
#
# Bulk Modulus (GPa) = 38.04626 46.11744 42.08185
# Shear Modulus (GPa) = 15.67803 20.56692 18.12248
#
# Velocity S-wave (km/s) = 2.99631 3.43183 3.22144
# Velocity P-wave (km/s) = 5.81011 6.48938 6.15912
#
# Compressibility (1/GPa) = 0.02628379
#
# Stress axis : x y z
#
# Youngs Moduli (GPa) = 56.45647 98.28415 35.77780
#
# Poissons Ratio (x) = 0.43314 0.29896
# Poissons Ratio (y) = 0.24880 0.07205
# Poissons Ratio (z) = 0.47176 0.19792
#
# Static dielectric constant tensor:
#      x y z
#    x 1.656190 0.000000 0.000000 
#    y 0.000000 1.593510 0.000000 
#    z 0.000000 0.000000 1.574340 
# 
# From -- ./inp_files/51009.got.cif
#   From: 2010.05.17/outbox.cif.g08.bks.cpg/sg64_26_cif.got.tgz:51009.got - 2010.06.03 16:29:19.
