data_PCOD9478238
_publ_section_title
;
Structure prediction by ZEFSAII (Michael W. Deem and Ramdas Pophale) SiO2 
 PCOD9478238
Probable space group: C M C A
;
_chemical_formula_sum "Si O2"
_cell_formula_units_Z 96
_cell_length_a 8.754820
_cell_length_b 28.043309
_cell_length_c 24.160118
_cell_angle_alpha 90.000000
_cell_angle_beta 90.000000
_cell_angle_gamma 90.000000
_cell_volume 5931.650170
_symmetry_space_group_name_H-M "C M C A"
_symmetry_group_IT_number 64
_symmetry_cell_setting 'orthorhombic'
loop_
_space_group_symop_operation_xyz
x,y,z
-x,1/2-y,1/2+z
x,-y,-z
-x,1/2+y,1/2-z
-x,-y,-z
x,1/2+y,1/2-z
-x,y,z
x,1/2-y,1/2+z
1/2+x,1/2+y,z
1/2-x,-y,1/2+z
1/2+x,1/2-y,-z
1/2-x,y,1/2-z
1/2-x,1/2-y,-z
1/2+x,y,1/2-z
1/2-x,1/2+y,z
1/2+x,-y,1/2+z
loop_
_atom_site_type_symbol
_atom_site_label
_atom_site_fract_x
_atom_site_fract_y
_atom_site_fract_z
Si Si1 0.317870 0.268166 0.587478
Si Si2 0.317607 0.677354 0.190091
Si Si3 0.183360 0.924301 0.023875
Si Si4 0.318097 0.320466 0.472949
Si Si5 0.681998 0.927502 0.809564
Si Si6 0.683557 0.019271 0.411992
O O1 0.500000 0.269162 0.595336
O O2 0.235705 0.287350 0.641962
O O3 0.279483 0.302301 0.535110
O O4 0.263640 0.215865 0.568877
O O5 0.500000 0.674847 0.193179
O O6 0.250000 0.691018 0.250000
O O7 0.251483 0.624677 0.177365
O O8 0.264611 0.874480 0.034006
O O9 0.000000 0.917739 0.025545
O O10 0.222325 0.966064 0.067376
O O11 0.220943 0.945542 0.963225
O O12 0.500000 0.316244 0.466382
O O13 0.500000 0.923665 0.806031
O O14 0.750000 0.941581 0.750000
O O15 0.732425 0.963452 0.857387
O O16 0.500000 0.021403 0.404025
#
# Coordination Sequence:
#
# PCOD9478238 Si02
#       6
#    16  16  16  16  16  16
#     4  10  20  34  51  73 101 132 166 203 245 292
#     4  11  21  34  52  74 101 131 164 202 245 293
#     4   9  18  32  51  73 100 133 164 199 245 294
#     4  10  20  32  49  74 102 132 166 204 245 291
#     4  11  21  33  50  73 100 131 165 202 245 290
#     4   9  18  33  51  73 100 131 166 201 242 292
#
# _framework density 16.184367000000002
#
# number of rings (size 3 to 8) (size 9 to 14) (size 15 to 20)
#    0.000    2.000    0.000    7.000    0.000    6.000 
#    0.000    1.667    0.000    1.000    0.000    2.333 
#    0.000    0.000    0.000    0.000    0.000    0.000 
#
# Total GULP energy -268012.082538 kJ/mol
# GULP energy per Si atom -5583.585053 kJ/mol
# Density = 1.614753 g / cm^3
# Si number density = 16.184367 Si / 1000 Ang^3
#
#
#
# Elastic Constant Matrix: (Units=GPa)
#
#
# Indices 1 2 3 4 5 6 
#
# 1 99.2307 55.2445 62.2038 0.0000 0.0000 0.0000
# 2 55.2445 106.4180 69.6894 0.0000 0.0000 0.0000
# 3 62.2038 69.6894 104.9396 0.0000 0.0000 0.0000
# 4 0.0000 0.0000 0.0000 20.6073 0.0000 0.0000
# 5 0.0000 0.0000 0.0000 0.0000 27.2238 0.0000
# 6 0.0000 0.0000 0.0000 0.0000 0.0000 29.3861
#
#
#
# Elastic Compliance Matrix: (Units=1/GPa)
#
#
# Indices 1 2 3 4 5 6 
#
# 1 0.016912 -0.003919 -0.007422 0.000000 0.000000 0.000000
# 2 -0.003919 0.017537 -0.009323 0.000000 0.000000 0.000000
# 3 -0.007422 -0.009323 0.020120 0.000000 0.000000 0.000000
# 4 0.000000 0.000000 0.000000 0.048527 0.000000 0.000000
# 5 0.000000 0.000000 0.000000 0.000000 0.036733 0.000000
# 6 0.000000 0.000000 0.000000 0.000000 0.000000 0.034030
#
#
# Mechanical properties :
#
#
# Convention : Reuss Voigt Hill
#
# Bulk Modulus (GPa) = 75.52518 76.09598 75.81058
# Shear Modulus (GPa) = 22.76876 23.67346 23.22111
#
# Velocity S-wave (km/s) = 3.75485 3.82872 3.79197
# Velocity P-wave (km/s) = 8.09724 8.16491 8.13115
#
# Compressibility (1/GPa) = 0.01324062
#
# Stress axis : x y z
#
# Youngs Moduli (GPa) = 59.12963 57.02361 49.70156
#
# Poissons Ratio (x) = 0.22347 0.36889
# Poissons Ratio (y) = 0.23173 0.46336
# Poissons Ratio (z) = 0.43887 0.53163
#
# Static dielectric constant tensor:
#      x y z
#    x 1.539280 0.000000 0.000000 
#    y 0.000000 1.520330 0.000000 
#    z 0.000000 0.000000 1.527100 
# 
# From -- ./inp_files/37079.got.cif
#   From: 2010.05.17/outbox.cif.g08.bks.cpg/sg64_19_cif.got.tgz:37079.got - 2010.06.03 16:29:19.
