data_PCOD9478197
_publ_section_title
;
Structure prediction by ZEFSAII (Michael W. Deem and Ramdas Pophale) SiO2 
 PCOD9478197
Probable space group: C M C A
;
_chemical_formula_sum "Si O2"
_cell_formula_units_Z 80
_cell_length_a 17.281488
_cell_length_b 11.634661
_cell_length_c 16.144866
_cell_angle_alpha 90.000000
_cell_angle_beta 90.000000
_cell_angle_gamma 90.000000
_cell_volume 3246.155446
_symmetry_space_group_name_H-M "C M C A"
_symmetry_group_IT_number 64
_symmetry_cell_setting 'orthorhombic'
loop_
_space_group_symop_operation_xyz
x,y,z
-x,1/2-y,1/2+z
x,-y,-z
-x,1/2+y,1/2-z
-x,-y,-z
x,1/2+y,1/2-z
-x,y,z
x,1/2-y,1/2+z
1/2+x,1/2+y,z
1/2-x,-y,1/2+z
1/2+x,1/2-y,-z
1/2-x,y,1/2-z
1/2-x,1/2-y,-z
1/2+x,y,1/2-z
1/2-x,1/2+y,z
1/2+x,-y,1/2+z
loop_
_atom_site_type_symbol
_atom_site_label
_atom_site_fract_x
_atom_site_fract_y
_atom_site_fract_z
Si Si1 0.087626 0.688845 0.970787
Si Si2 0.630847 0.026608 0.115030
Si Si3 0.091987 0.630931 0.601442
Si Si4 0.293181 0.561575 0.163570
Si Si5 0.086910 0.186271 0.250010
O O1 0.084520 0.599744 0.048016
O O2 0.116132 0.804451 0.016133
O O3 0.000000 0.709815 0.943801
O O4 0.128698 0.608290 0.903225
O O5 0.717940 0.074625 0.107347
O O6 0.594510 0.063392 0.202242
O O7 0.147544 0.526774 0.623235
O O8 0.099497 0.718899 0.679199
O O9 0.000000 0.602103 0.594917
O O10 0.250000 0.522959 0.250000
O O11 0.343388 0.674153 0.185417
O O12 0.000000 0.197049 0.218623
#
# Coordination Sequence:
#
# PCOD9478197 Si02
#       5
#    16  16  16  16  16
#     4   9  16  29  50  69  88 120 162 198 226 269
#     4   9  16  27  44  70  93 114 148 191 237 269
#     4   9  18  31  47  66  89 122 158 191 229 273
#     4  10  20  29  43  70  98 121 148 188 237 283
#     4   9  17  31  49  65  88 122 157 192 228 273
#
# _framework density 24.644539000000002
#
# number of rings (size 3 to 8) (size 9 to 14) (size 15 to 20)
#    0.000    2.800    0.000    4.200    0.000    4.800 
#    0.000    0.000    0.000    0.000    0.000   19.600 
#    0.000    0.000    0.000    0.000    0.000    0.000 
#
# Total GULP energy -223247.674352 kJ/mol
# GULP energy per Si atom -5581.191859 kJ/mol
# Density = 2.458845 g / cm^3
# Si number density = 24.644539 Si / 1000 Ang^3
#
#
#
# Elastic Constant Matrix: (Units=GPa)
#
#
# Indices 1 2 3 4 5 6 
#
# 1 128.1088 31.9409 22.1003 0.0000 0.0000 0.0000
# 2 31.9409 66.9165 44.0194 0.0000 0.0000 0.0000
# 3 22.1003 44.0194 65.3551 0.0000 0.0000 0.0000
# 4 0.0000 0.0000 0.0000 33.9685 0.0000 0.0000
# 5 0.0000 0.0000 0.0000 0.0000 -10.0675 0.0000
# 6 0.0000 0.0000 0.0000 0.0000 0.0000 215.6747
#
#
#
# Elastic Compliance Matrix: (Units=1/GPa)
#
#
# Indices 1 2 3 4 5 6 
#
# 1 0.008863 -0.004056 -0.000265 0.000000 0.000000 0.000000
# 2 -0.004056 0.028689 -0.017952 0.000000 0.000000 0.000000
# 3 -0.000265 -0.017952 0.027482 0.000000 0.000000 0.000000
# 4 0.000000 0.000000 0.000000 0.029439 0.000000 0.000000
# 5 0.000000 0.000000 0.000000 0.000000 -0.099329 0.000000
# 6 0.000000 0.000000 0.000000 0.000000 0.000000 0.004637
#
#
# Mechanical properties :
#
#
# Convention : Reuss Voigt Hill
#
# Bulk Modulus (GPa) = 48.80885 50.72240 49.76562
# Shear Modulus (GPa) = 97.74103 58.73645 78.23874
#
# Velocity S-wave (km/s) = 6.30448 4.88725 5.64055
# Velocity P-wave (km/s) = 8.53483 7.24384 7.91570
#
# Compressibility (1/GPa) = 0.02048809
#
# Stress axis : x y z
#
# Youngs Moduli (GPa) = 112.83003 34.85641 36.38761
#
# Poissons Ratio (x) = 0.14138 0.00965
# Poissons Ratio (y) = 0.45765 0.65322
# Poissons Ratio (z) = 0.02991 0.62573
#
# Static dielectric constant tensor:
#      x y z
#    x 1.952510 0.000000 0.000000 
#    y 0.000000 1.951590 0.000000 
#    z 0.000000 0.000000 2.086950 
# 
# From -- ./inp_files/32059.got.cif
#   From: 2010.05.17/outbox.cif.g08.bks.cpg/sg64_17_cif.got.tgz:32059.got - 2010.06.03 16:29:19.
