data_PCOD9478321
_publ_section_title
;
Structure prediction by ZEFSAII (Michael W. Deem and Ramdas Pophale) SiO2 
 PCOD9478321
Probable space group: C M C A
;
_chemical_formula_sum "Si O2"
_cell_formula_units_Z 96
_cell_length_a 26.807783
_cell_length_b 21.578924
_cell_length_c 9.581432
_cell_angle_alpha 90.000000
_cell_angle_beta 90.000000
_cell_angle_gamma 90.000000
_cell_volume 5542.696600
_symmetry_space_group_name_H-M "C M C A"
_symmetry_group_IT_number 64
_symmetry_cell_setting 'orthorhombic'
loop_
_space_group_symop_operation_xyz
x,y,z
-x,1/2-y,1/2+z
x,-y,-z
-x,1/2+y,1/2-z
-x,-y,-z
x,1/2+y,1/2-z
-x,y,z
x,1/2-y,1/2+z
1/2+x,1/2+y,z
1/2-x,-y,1/2+z
1/2+x,1/2-y,-z
1/2-x,y,1/2-z
1/2-x,1/2-y,-z
1/2+x,y,1/2-z
1/2-x,1/2+y,z
1/2+x,-y,1/2+z
loop_
_atom_site_type_symbol
_atom_site_label
_atom_site_fract_x
_atom_site_fract_y
_atom_site_fract_z
Si Si1 0.393942 0.935715 0.643897
Si Si2 0.440149 0.694345 0.818433
Si Si3 0.559285 0.943090 0.333708
Si Si4 0.107196 0.798639 0.873662
Si Si5 0.224435 0.943285 0.900230
Si Si6 0.226239 0.802619 0.903852
O O1 0.420647 0.936916 0.492444
O O2 0.402298 0.866082 0.696980
O O3 0.335249 0.945167 0.621159
O O4 0.415666 0.994724 0.725414
O O5 0.500000 0.701652 0.820919
O O6 0.429047 0.623808 0.768577
O O7 0.414726 0.744300 0.719618
O O8 0.418760 0.701742 0.974753
O O9 0.500000 0.951122 0.336164
O O10 0.166688 0.793512 0.893839
O O11 0.250000 0.949894 0.750000
O O12 0.235769 0.873553 0.954717
O O13 0.239016 0.000000 0.000000
O O14 0.250000 0.798330 0.750000
O O15 0.250000 0.750000 0.000000
#
# Coordination Sequence:
#
# PCOD9478321 Si02
#       6
#    16  16  16  16  16  16
#     4   9  16  31  53  72 102 129 175 214 258 300
#     4  10  20  33  51  79 108 136 172 216 265 317
#     4   9  16  28  51  78 101 127 172 221 256 297
#     4  10  20  34  55  76 105 140 173 218 266 310
#     4  10  20  35  53  77 108 140 175 225 270 316
#     4  10  21  37  55  79 110 142 184 224 266 327
#
# _framework density 17.32009
#
# number of rings (size 3 to 8) (size 9 to 14) (size 15 to 20)
#    0.000    2.333    1.667    2.500    0.000    2.667 
#    3.000    0.000    0.000    0.000    0.000    3.500 
#    0.000    0.000    0.000    0.000    0.000    0.000 
#
# Total GULP energy -267413.134187 kJ/mol
# GULP energy per Si atom -5571.106962 kJ/mol
# Density = 1.728067 g / cm^3
# Si number density = 17.320090 Si / 1000 Ang^3
#
#
#
# Elastic Constant Matrix: (Units=GPa)
#
#
# Indices 1 2 3 4 5 6 
#
# 1 72.7655 78.0812 25.9092 0.0000 0.0000 0.0000
# 2 78.0812 219.8284 66.6175 0.0000 0.0000 0.0000
# 3 25.9092 66.6175 40.9655 0.0000 0.0000 0.0000
# 4 0.0000 0.0000 0.0000 33.0905 0.0000 0.0000
# 5 0.0000 0.0000 0.0000 0.0000 -4.8360 0.0000
# 6 0.0000 0.0000 0.0000 0.0000 0.0000 31.6549
#
#
#
# Elastic Compliance Matrix: (Units=1/GPa)
#
#
# Indices 1 2 3 4 5 6 
#
# 1 0.022327 -0.007199 -0.002415 0.000000 0.000000 0.000000
# 2 -0.007199 0.011290 -0.013807 0.000000 0.000000 0.000000
# 3 -0.002415 -0.013807 0.048390 0.000000 0.000000 0.000000
# 4 0.000000 0.000000 0.000000 0.030220 0.000000 0.000000
# 5 0.000000 0.000000 0.000000 0.000000 -0.206783 0.000000
# 6 0.000000 0.000000 0.000000 0.000000 0.000000 0.031591
#
#
# Mechanical properties :
#
#
# Convention : Reuss Voigt Hill
#
# Bulk Modulus (GPa) = 28.43564 74.97502 51.70533
# Shear Modulus (GPa) = -1135.80692 22.84531 -556.48080
#
# Velocity S-wave (km/s) = -25.63587 3.63575 -17.94407
# Velocity P-wave (km/s) = 29.32253 7.81069 19.98504
#
# Compressibility (1/GPa) = 0.03516714
#
# Stress axis : x y z
#
# Youngs Moduli (GPa) = 44.78866 88.57492 20.66535
#
# Poissons Ratio (x) = 0.63762 0.04990
# Poissons Ratio (y) = 0.32242 0.28532
# Poissons Ratio (z) = 0.10816 1.22292
#
# Static dielectric constant tensor:
#      x y z
#    x 1.570870 0.000000 0.000000 
#    y 0.000000 1.655350 0.000000 
#    z 0.000000 0.000000 1.553220 
# 
# From -- ./inp_files/10375.got.cif
#   From: 2010.05.17/outbox.cif.g08.bks.cpg/sg64_6_cif.got.tgz:10375.got - 2010.06.03 16:29:19.
