data_PCOD9478373
_publ_section_title
;
Structure prediction by ZEFSAII (Michael W. Deem and Ramdas Pophale) SiO2 
 PCOD9478373
Probable space group: C M C A
;
_chemical_formula_sum "Si O2"
_cell_formula_units_Z 116
_cell_length_a 14.637332
_cell_length_b 18.393035
_cell_length_c 22.832685
_cell_angle_alpha 90.000000
_cell_angle_beta 90.000000
_cell_angle_gamma 90.000000
_cell_volume 6147.128701
_symmetry_space_group_name_H-M "C M C A"
_symmetry_group_IT_number 64
_symmetry_cell_setting 'orthorhombic'
loop_
_space_group_symop_operation_xyz
x,y,z
-x,1/2-y,1/2+z
x,-y,-z
-x,1/2+y,1/2-z
-x,-y,-z
x,1/2+y,1/2-z
-x,y,z
x,1/2-y,1/2+z
1/2+x,1/2+y,z
1/2-x,-y,1/2+z
1/2+x,1/2-y,-z
1/2-x,y,1/2-z
1/2-x,1/2-y,-z
1/2+x,y,1/2-z
1/2-x,1/2+y,z
1/2+x,-y,1/2+z
loop_
_atom_site_type_symbol
_atom_site_label
_atom_site_fract_x
_atom_site_fract_y
_atom_site_fract_z
Si Si1 0.107504 0.248476 0.601917
Si Si2 0.393213 0.293471 0.611684
Si Si3 0.500000 0.500000 0.500000
Si Si4 0.773584 0.657662 0.317591
Si Si5 0.603398 0.128959 0.613157
Si Si6 0.145005 0.631519 0.991134
Si Si7 0.891888 0.973051 0.866769
Si Si8 0.644879 0.112625 0.480245
O O1 0.165732 0.275751 0.657184
O O2 0.140314 0.175577 0.569659
O O3 0.122506 0.313451 0.554916
O O4 0.000000 0.243291 0.615153
O O5 0.500000 0.301571 0.628649
O O6 0.321491 0.343043 0.646347
O O7 0.360796 0.210338 0.621500
O O8 0.386003 0.314268 0.543427
O O9 0.420923 0.436982 0.491342
O O10 0.750000 0.664861 0.250000
O O11 0.832467 0.585553 0.331637
O O12 0.500000 0.131690 0.635765
O O13 0.600100 0.115851 0.543478
O O14 0.644343 0.055421 0.639947
O O15 0.247653 0.609408 0.006737
O O16 0.883501 0.949989 0.935148
O O17 0.000000 0.968620 0.851830
#
# Coordination Sequence:
#
# PCOD9478373 Si02
#       8
#    16  16   4  16  16  16  16  16
#     4  11  20  37  63  91 128 164 203 261 322 374
#     4  11  21  39  62  85 121 161 207 255 307 377
#     4  12  28  36  56  92 138 178 208 232 320 418
#     4  11  24  41  62  91 114 161 221 263 312 366
#     4  10  20  33  56  89 119 154 192 243 308 373
#     4  12  22  38  56  90 134 168 199 248 313 397
#     4  10  21  37  57  88 124 154 199 257 319 368
#     4  11  19  30  57  88 125 162 193 240 302 377
#
# _framework density 18.870598000000001
#
# number of rings (size 3 to 8) (size 9 to 14) (size 15 to 20)
#    0.000    1.103    5.517    4.138    1.931    2.207 
#    0.000    0.690    0.000    0.000    3.586    0.000 
#    0.000    0.000    0.000    0.000    0.000    0.000 
#
# Total GULP energy -323160.617592 kJ/mol
# GULP energy per Si atom -5571.734786 kJ/mol
# Density = 1.882765 g / cm^3
# Si number density = 18.870598 Si / 1000 Ang^3
#
#
#
# Elastic Constant Matrix: (Units=GPa)
#
#
# Indices 1 2 3 4 5 6 
#
# 1 125.0690 31.4986 28.5253 0.0000 0.0000 0.0000
# 2 31.4986 127.0612 21.9440 0.0000 0.0000 0.0000
# 3 28.5253 21.9440 79.8841 0.0000 0.0000 0.0000
# 4 0.0000 0.0000 0.0000 5.7447 0.0000 0.0000
# 5 0.0000 0.0000 0.0000 0.0000 12.0283 0.0000
# 6 0.0000 0.0000 0.0000 0.0000 0.0000 27.4883
#
#
#
# Elastic Compliance Matrix: (Units=1/GPa)
#
#
# Indices 1 2 3 4 5 6 
#
# 1 0.009070 -0.001773 -0.002752 0.000000 0.000000 0.000000
# 2 -0.001773 0.008609 -0.001732 0.000000 0.000000 0.000000
# 3 -0.002752 -0.001732 0.013976 0.000000 0.000000 0.000000
# 4 0.000000 0.000000 0.000000 0.174073 0.000000 0.000000
# 5 0.000000 0.000000 0.000000 0.000000 0.083137 0.000000
# 6 0.000000 0.000000 0.000000 0.000000 0.000000 0.036379
#
#
# Mechanical properties :
#
#
# Convention : Reuss Voigt Hill
#
# Bulk Modulus (GPa) = 52.24080 55.10558 53.67319
# Shear Modulus (GPa) = 14.52908 25.72204 20.12556
#
# Velocity S-wave (km/s) = 2.77778 3.69599 3.26928
# Velocity P-wave (km/s) = 6.16700 6.89050 6.53876
#
# Compressibility (1/GPa) = 0.01914212
#
# Stress axis : x y z
#
# Youngs Moduli (GPa) = 110.25691 116.15932 71.54942
#
# Poissons Ratio (x) = 0.20597 0.19687
# Poissons Ratio (y) = 0.19551 0.12390
# Poissons Ratio (z) = 0.30338 0.20115
#
# Static dielectric constant tensor:
#      x y z
#    x 1.684570 0.000000 0.000000 
#    y 0.000000 1.692910 0.000000 
#    z 0.000000 0.000000 1.630470 
# 
# From -- ./inp_files/45449.got.cif
#   From: 2010.05.17/outbox.cif.g08.bks.cpg/sg64_23_cif.got.tgz:45449.got - 2010.06.03 16:29:19.
