data_PCOD9478814
_publ_section_title
;
Structure prediction by ZEFSAII (Michael W. Deem and Ramdas Pophale) SiO2 
 PCOD9478814
Probable space group: C M C A
;
_chemical_formula_sum "Si O2"
_cell_formula_units_Z 96
_cell_length_a 24.153555
_cell_length_b 8.777916
_cell_length_c 22.235201
_cell_angle_alpha 90.000000
_cell_angle_beta 90.000000
_cell_angle_gamma 90.000000
_cell_volume 4714.260108
_symmetry_space_group_name_H-M "C M C A"
_symmetry_group_IT_number 64
_symmetry_cell_setting 'orthorhombic'
loop_
_space_group_symop_operation_xyz
x,y,z
-x,1/2-y,1/2+z
x,-y,-z
-x,1/2+y,1/2-z
-x,-y,-z
x,1/2+y,1/2-z
-x,y,z
x,1/2-y,1/2+z
1/2+x,1/2+y,z
1/2-x,-y,1/2+z
1/2+x,1/2-y,-z
1/2-x,y,1/2-z
1/2-x,1/2-y,-z
1/2+x,y,1/2-z
1/2-x,1/2+y,z
1/2+x,-y,1/2+z
loop_
_atom_site_type_symbol
_atom_site_label
_atom_site_fract_x
_atom_site_fract_y
_atom_site_fract_z
Si Si1 0.884159 0.316908 0.839673
Si Si2 0.000000 0.288775 0.162955
Si Si3 0.808576 0.677933 0.276843
Si Si4 0.619825 0.847031 0.120698
Si Si5 0.800063 0.582850 0.626706
Si Si6 0.716901 0.283697 0.940001
Si Si7 0.500000 0.132175 0.214052
O O1 0.846153 0.348133 0.781490
O O2 0.881706 0.470771 0.878123
O O3 0.857758 0.172018 0.872227
O O4 0.945659 0.295406 0.815367
O O5 0.942740 0.285889 0.126035
O O6 0.000000 0.452945 0.197482
O O7 0.000000 0.162325 0.214969
O O8 0.750000 0.734016 0.250000
O O9 0.846053 0.783357 0.320951
O O10 0.797671 0.521350 0.313645
O O11 0.656539 0.790974 0.064996
O O12 0.753734 0.709892 0.614020
O O13 0.791089 0.460424 0.574194
O O14 0.750000 0.250000 0.000000
#
# Coordination Sequence:
#
# PCOD9478814 Si02
#       7
#    16   8  16  16  16  16   8
#     4  11  21  36  55  88 127 164 204 241 297 374
#     4  10  20  36  56  87 123 168 212 250 302 368
#     4  11  21  33  53  84 123 166 200 245 302 377
#     4  10  21  36  57  85 119 160 207 254 307 370
#     4  11  24  37  58  88 119 160 204 255 315 370
#     4  11  23  42  63  87 116 156 210 272 329 367
#     4  10  22  34  58  85 129 177 210 241 291 364
#
# _framework density 20.363747
#
# number of rings (size 3 to 8) (size 9 to 14) (size 15 to 20)
#    0.000    1.333    1.667    5.500    2.333    2.667 
#    0.000    0.000    0.000    1.000    0.000   11.667 
#    0.000    0.000    0.000    0.000    0.000    0.000 
#
# Total GULP energy -268160.886559 kJ/mol
# GULP energy per Si atom -5586.685137 kJ/mol
# Density = 2.031740 g / cm^3
# Si number density = 20.363747 Si / 1000 Ang^3
#
#
#
# Elastic Constant Matrix: (Units=GPa)
#
#
# Indices 1 2 3 4 5 6 
#
# 1 180.9007 39.6499 48.3303 0.0000 0.0000 0.0000
# 2 39.6499 82.0110 24.9794 0.0000 0.0000 0.0000
# 3 48.3303 24.9794 58.4729 0.0000 0.0000 0.0000
# 4 0.0000 0.0000 0.0000 23.7371 0.0000 0.0000
# 5 0.0000 0.0000 0.0000 0.0000 29.4726 0.0000
# 6 0.0000 0.0000 0.0000 0.0000 0.0000 26.8349
#
#
#
# Elastic Compliance Matrix: (Units=1/GPa)
#
#
# Indices 1 2 3 4 5 6 
#
# 1 0.007359 -0.001960 -0.005245 0.000000 0.000000 0.000000
# 2 -0.001960 0.014540 -0.004591 0.000000 0.000000 0.000000
# 3 -0.005245 -0.004591 0.023398 0.000000 0.000000 0.000000
# 4 0.000000 0.000000 0.000000 0.042128 0.000000 0.000000
# 5 0.000000 0.000000 0.000000 0.000000 0.033930 0.000000
# 6 0.000000 0.000000 0.000000 0.000000 0.000000 0.037265
#
#
# Mechanical properties :
#
#
# Convention : Reuss Voigt Hill
#
# Bulk Modulus (GPa) = 46.07379 60.81155 53.44267
# Shear Modulus (GPa) = 26.39264 29.90393 28.14828
#
# Velocity S-wave (km/s) = 3.60399 3.83624 3.72193
# Velocity P-wave (km/s) = 6.32399 7.03916 6.69114
#
# Compressibility (1/GPa) = 0.02170431
#
# Stress axis : x y z
#
# Youngs Moduli (GPa) = 135.89153 68.77789 42.73800
#
# Poissons Ratio (x) = 0.13482 0.22416
# Poissons Ratio (y) = 0.26638 0.19621
# Poissons Ratio (z) = 0.71275 0.31576
#
# Static dielectric constant tensor:
#      x y z
#    x 1.726940 0.000000 0.000000 
#    y 0.000000 1.756090 0.000000 
#    z 0.000000 0.000000 1.769020 
# 
# From -- ./inp_files/46642.got.cif
#   From: 2010.05.17/outbox.cif.g08.bks.cpg/sg64_24_cif.got.tgz:46642.got - 2010.06.03 16:29:19.
