data_PCOD9478569
_publ_section_title
;
Structure prediction by ZEFSAII (Michael W. Deem and Ramdas Pophale) SiO2 
 PCOD9478569
Probable space group: C M C A
;
_chemical_formula_sum "Si O2"
_cell_formula_units_Z 80
_cell_length_a 7.427641
_cell_length_b 19.762089
_cell_length_c 25.272117
_cell_angle_alpha 90.000000
_cell_angle_beta 90.000000
_cell_angle_gamma 90.000000
_cell_volume 3709.585448
_symmetry_space_group_name_H-M "C M C A"
_symmetry_group_IT_number 64
_symmetry_cell_setting 'orthorhombic'
loop_
_space_group_symop_operation_xyz
x,y,z
-x,1/2-y,1/2+z
x,-y,-z
-x,1/2+y,1/2-z
-x,-y,-z
x,1/2+y,1/2-z
-x,y,z
x,1/2-y,1/2+z
1/2+x,1/2+y,z
1/2-x,-y,1/2+z
1/2+x,1/2-y,-z
1/2-x,y,1/2-z
1/2-x,1/2-y,-z
1/2+x,y,1/2-z
1/2-x,1/2+y,z
1/2+x,-y,1/2+z
loop_
_atom_site_type_symbol
_atom_site_label
_atom_site_fract_x
_atom_site_fract_y
_atom_site_fract_z
Si Si1 0.793479 0.489054 0.589000
Si Si2 0.285807 0.402525 0.689633
Si Si3 0.205708 0.730494 0.138035
Si Si4 0.218798 0.854700 0.964749
Si Si5 0.779212 0.358764 0.416124
O O1 0.789588 0.454657 0.646747
O O2 0.719785 0.431059 0.550127
O O3 0.716352 0.564203 0.591017
O O4 0.000000 0.498456 0.571726
O O5 0.500000 0.401373 0.680614
O O6 0.250000 0.420419 0.750000
O O7 0.214012 0.327010 0.676070
O O8 0.207876 0.694234 0.080475
O O9 0.285768 0.804170 0.126705
O O10 0.000000 0.740751 0.155699
O O11 0.000000 0.853115 0.960859
O O12 0.270933 0.837356 0.024280
O O13 0.000000 0.357517 0.413719
#
# Coordination Sequence:
#
# PCOD9478569 Si02
#       5
#    16  16  16  16  16
#     4   9  17  30  49  72  97 125 158 193 228 271
#     4  10  20  35  53  69  87 116 155 196 239 285
#     4   9  18  31  47  69  96 125 157 193 233 275
#     4   9  16  27  46  71  98 131 165 189 217 267
#     4   9  16  28  47  71 100 130 157 188 227 271
#
# _framework density 21.565753999999998
#
# number of rings (size 3 to 8) (size 9 to 14) (size 15 to 20)
#    0.000    2.800    0.000    1.800    0.000    3.200 
#    0.000    3.000    0.000    7.200    0.000    0.000 
#    0.000    0.000    0.000    0.000    0.000    0.000 
#
# Total GULP energy -223161.294920 kJ/mol
# GULP energy per Si atom -5579.032373 kJ/mol
# Density = 2.151667 g / cm^3
# Si number density = 21.565754 Si / 1000 Ang^3
#
#
#
# Elastic Constant Matrix: (Units=GPa)
#
#
# Indices 1 2 3 4 5 6 
#
# 1 75.3674 -7.5322 -13.6150 0.0000 0.0000 0.0000
# 2 -7.5322 72.7571 -19.2255 0.0000 0.0000 0.0000
# 3 -13.6150 -19.2255 46.1659 0.0000 0.0000 0.0000
# 4 0.0000 0.0000 0.0000 12.9403 0.0000 0.0000
# 5 0.0000 0.0000 0.0000 0.0000 8.2543 0.0000
# 6 0.0000 0.0000 0.0000 0.0000 0.0000 -54.0695
#
#
#
# Elastic Compliance Matrix: (Units=1/GPa)
#
#
# Indices 1 2 3 4 5 6 
#
# 1 0.014564 0.002970 0.005532 0.000000 0.000000 0.000000
# 2 0.002970 0.016049 0.007559 0.000000 0.000000 0.000000
# 3 0.005532 0.007559 0.026441 0.000000 0.000000 0.000000
# 4 0.000000 0.000000 0.000000 0.077278 0.000000 0.000000
# 5 0.000000 0.000000 0.000000 0.000000 0.121149 0.000000
# 6 0.000000 0.000000 0.000000 0.000000 0.000000 -0.018495
#
#
# Mechanical properties :
#
#
# Convention : Reuss Voigt Hill
#
# Bulk Modulus (GPa) = 11.21374 12.61607 11.91491
# Shear Modulus (GPa) = 21.31379 9.06922 15.19151
#
# Velocity S-wave (km/s) = 3.14716 2.05293 2.65698
# Velocity P-wave (km/s) = 4.29153 3.38852 3.86648
#
# Compressibility (1/GPa) = 0.08917630
#
# Stress axis : x y z
#
# Youngs Moduli (GPa) = 68.66025 62.30790 37.82069
#
# Poissons Ratio (x) = -0.18503 -0.20922
# Poissons Ratio (y) = -0.20389 -0.28590
# Poissons Ratio (z) = -0.37983 -0.47101
#
# Static dielectric constant tensor:
#      x y z
#    x 1.850210 0.000000 0.000000 
#    y 0.000000 1.827290 0.000000 
#    z 0.000000 0.000000 1.730410 
# 
# From -- ./inp_files/43934.got.cif
#   From: 2010.05.17/outbox.cif.g08.bks.cpg/sg64_22_cif.got.tgz:43934.got - 2010.06.03 16:29:19.
