data_PCOD9478815
_publ_section_title
;
Structure prediction by ZEFSAII (Michael W. Deem and Ramdas Pophale) SiO2 
 PCOD9478815
Probable space group: C M C A
;
_chemical_formula_sum "Si O2"
_cell_formula_units_Z 96
_cell_length_a 27.299820
_cell_length_b 18.522509
_cell_length_c 11.620676
_cell_angle_alpha 90.000000
_cell_angle_beta 90.000000
_cell_angle_gamma 90.000000
_cell_volume 5876.124525
_symmetry_space_group_name_H-M "C M C A"
_symmetry_group_IT_number 64
_symmetry_cell_setting 'orthorhombic'
loop_
_space_group_symop_operation_xyz
x,y,z
-x,1/2-y,1/2+z
x,-y,-z
-x,1/2+y,1/2-z
-x,-y,-z
x,1/2+y,1/2-z
-x,y,z
x,1/2-y,1/2+z
1/2+x,1/2+y,z
1/2-x,-y,1/2+z
1/2+x,1/2-y,-z
1/2-x,y,1/2-z
1/2-x,1/2-y,-z
1/2+x,y,1/2-z
1/2-x,1/2+y,z
1/2+x,-y,1/2+z
loop_
_atom_site_type_symbol
_atom_site_label
_atom_site_fract_x
_atom_site_fract_y
_atom_site_fract_z
Si Si1 0.350259 0.887567 0.147824
Si Si2 0.358968 0.040225 0.249533
Si Si3 0.943865 0.031337 0.629409
Si Si4 0.794539 0.423329 0.542340
Si Si5 0.801879 0.148688 0.405107
Si Si6 0.797869 0.313338 0.331200
O O1 0.341851 0.827620 0.243400
O O2 0.333978 0.965729 0.201232
O O3 0.407601 0.900134 0.124517
O O4 0.319695 0.868580 0.034717
O O5 0.415388 0.022079 0.218229
O O6 0.341337 0.057201 0.378508
O O7 0.339852 0.107007 0.175413
O O8 0.000000 0.044503 0.660784
O O9 0.942272 0.000000 0.500000
O O10 0.774617 0.500000 0.500000
O O11 0.751923 0.384385 0.613525
O O12 0.802527 0.371031 0.433869
O O13 0.798627 0.233466 0.382241
O O14 0.750000 0.324179 0.250000
#
# Coordination Sequence:
#
# PCOD9478815 Si02
#       6
#    16  16  16  16  16  16
#     4  10  20  39  56  81 117 147 197 241 286 345
#     4  10  20  36  56  89 105 148 194 239 290 342
#     4   9  17  35  63  91 110 139 198 258 299 341
#     4  12  22  35  56  78 118 159 197 228 279 342
#     4  12  23  34  55  82 119 157 189 236 289 343
#     4  12  25  37  51  82 123 164 194 231 284 354
#
# _framework density 16.337298000000001
#
# number of rings (size 3 to 8) (size 9 to 14) (size 15 to 20)
#    1.000    0.167    5.000    3.500    2.333    0.000 
#    0.000    0.000    0.000    6.500    0.000    0.000 
#    0.000    0.000    0.000    0.000    0.000    0.000 
#
# Total GULP energy -267316.693280 kJ/mol
# GULP energy per Si atom -5569.097777 kJ/mol
# Density = 1.630011 g / cm^3
# Si number density = 16.337298 Si / 1000 Ang^3
#
#
#
# Elastic Constant Matrix: (Units=GPa)
#
#
# Indices 1 2 3 4 5 6 
#
# 1 98.4237 15.2162 38.6960 0.0000 0.0000 0.0000
# 2 15.2162 98.5509 43.0779 0.0000 0.0000 0.0000
# 3 38.6960 43.0779 93.5436 0.0000 0.0000 0.0000
# 4 0.0000 0.0000 0.0000 12.1952 0.0000 0.0000
# 5 0.0000 0.0000 0.0000 0.0000 23.0145 0.0000
# 6 0.0000 0.0000 0.0000 0.0000 0.0000 1.0918
#
#
#
# Elastic Compliance Matrix: (Units=1/GPa)
#
#
# Indices 1 2 3 4 5 6 
#
# 1 0.012146 0.000402 -0.005210 0.000000 0.000000 0.000000
# 2 0.000402 0.012718 -0.006023 0.000000 0.000000 0.000000
# 3 -0.005210 -0.006023 0.015619 0.000000 0.000000 0.000000
# 4 0.000000 0.000000 0.000000 0.081999 0.000000 0.000000
# 5 0.000000 0.000000 0.000000 0.000000 0.043451 0.000000
# 6 0.000000 0.000000 0.000000 0.000000 0.000000 0.915933
#
#
# Mechanical properties :
#
#
# Convention : Reuss Voigt Hill
#
# Bulk Modulus (GPa) = 53.13067 53.83315 53.48191
# Shear Modulus (GPa) = 4.50531 20.16218 12.33375
#
# Velocity S-wave (km/s) = 1.66243 3.51682 2.75061
# Velocity P-wave (km/s) = 6.02300 7.03657 6.54942
#
# Compressibility (1/GPa) = 0.01882152
#
# Stress axis : x y z
#
# Youngs Moduli (GPa) = 82.33031 78.63075 64.02539
#
# Poissons Ratio (x) = -0.03159 0.33354
# Poissons Ratio (y) = -0.03308 0.38561
# Poissons Ratio (z) = 0.42890 0.47358
#
# Static dielectric constant tensor:
#      x y z
#    x 1.547130 0.000000 0.000000 
#    y 0.000000 1.547090 0.000000 
#    z 0.000000 0.000000 1.598610 
# 
# From -- ./inp_files/19145.got.cif
#   From: 2010.05.17/outbox.cif.g08.bks.cpg/sg64_10_cif.got.tgz:19145.got - 2010.06.03 16:29:19.
