data_PCOD9478868
_publ_section_title
;
Structure prediction by ZEFSAII (Michael W. Deem and Ramdas Pophale) SiO2 
 PCOD9478868
Probable space group: C M C A
;
_chemical_formula_sum "Si O2"
_cell_formula_units_Z 128
_cell_length_a 26.045361
_cell_length_b 22.458698
_cell_length_c 11.404057
_cell_angle_alpha 90.000000
_cell_angle_beta 90.000000
_cell_angle_gamma 90.000000
_cell_volume 6670.744947
_symmetry_space_group_name_H-M "C M C A"
_symmetry_group_IT_number 64
_symmetry_cell_setting 'orthorhombic'
loop_
_space_group_symop_operation_xyz
x,y,z
-x,1/2-y,1/2+z
x,-y,-z
-x,1/2+y,1/2-z
-x,-y,-z
x,1/2+y,1/2-z
-x,y,z
x,1/2-y,1/2+z
1/2+x,1/2+y,z
1/2-x,-y,1/2+z
1/2+x,1/2-y,-z
1/2-x,y,1/2-z
1/2-x,1/2-y,-z
1/2+x,y,1/2-z
1/2-x,1/2+y,z
1/2+x,-y,1/2+z
loop_
_atom_site_type_symbol
_atom_site_label
_atom_site_fract_x
_atom_site_fract_y
_atom_site_fract_z
Si Si1 0.145169 0.961707 0.282061
Si Si2 0.862919 0.083330 0.160498
Si Si3 0.808001 0.628765 0.954677
Si Si4 0.806433 0.683243 0.211282
Si Si5 0.708279 0.440813 0.054123
Si Si6 0.624215 0.273773 0.326793
Si Si7 0.940263 0.830386 0.934589
Si Si8 0.059064 0.871820 0.203358
O O1 0.162840 0.930349 0.403347
O O2 0.189526 0.948712 0.186321
O O3 0.095030 0.926864 0.237179
O O4 0.136097 0.031593 0.258080
O O5 0.821573 0.132333 0.197078
O O6 0.916846 0.116650 0.144852
O O7 0.840750 0.064268 0.033153
O O8 0.747884 0.613318 0.943752
O O9 0.832715 0.683311 0.882520
O O10 0.812705 0.650592 0.087754
O O11 0.750000 0.704124 0.250000
O O12 0.847178 0.735965 0.226628
O O13 0.735141 0.500000 0.000000
O O14 0.596491 0.226373 0.412260
O O15 0.580488 0.316108 0.275862
O O16 0.000000 0.817469 0.908488
O O17 0.936590 0.853548 0.067436
O O18 0.000000 0.884336 0.229819
#
# Coordination Sequence:
#
# PCOD9478868 Si02
#       8
#    16  16  16  16  16  16  16  16
#     4  10  22  36  58  88 119 154 191 247 299 354
#     4  10  21  38  57  85 124 150 192 248 297 354
#     4  11  23  38  60  86 118 164 201 239 295 363
#     4  11  23  38  57  84 118 160 200 242 290 357
#     4  10  20  36  58  84 119 154 192 237 292 351
#     4  10  23  39  55  85 118 155 199 252 301 355
#     4  10  20  37  61  84 112 155 199 253 312 355
#     4  10  20  36  59  84 112 148 199 252 304 359
#
# _framework density 19.188262000000002
#
# number of rings (size 3 to 8) (size 9 to 14) (size 15 to 20)
#    0.000    1.750    2.500    1.500    1.750    3.000 
#    0.000    1.250    0.000    6.750    0.000    7.000 
#    0.000    0.000    0.000    0.000    0.000    0.000 
#
# Total GULP energy -356659.104377 kJ/mol
# GULP energy per Si atom -5572.798506 kJ/mol
# Density = 1.914459 g / cm^3
# Si number density = 19.188262 Si / 1000 Ang^3
#
#
#
# Elastic Constant Matrix: (Units=GPa)
#
#
# Indices 1 2 3 4 5 6 
#
# 1 100.2839 38.4647 16.9025 0.0000 0.0000 0.0000
# 2 38.4647 70.3441 -2.9044 0.0000 0.0000 0.0000
# 3 16.9025 -2.9044 47.0971 0.0000 0.0000 0.0000
# 4 0.0000 0.0000 0.0000 24.6523 0.0000 0.0000
# 5 0.0000 0.0000 0.0000 0.0000 16.4992 0.0000
# 6 0.0000 0.0000 0.0000 0.0000 0.0000 29.4830
#
#
#
# Elastic Compliance Matrix: (Units=1/GPa)
#
#
# Indices 1 2 3 4 5 6 
#
# 1 0.013894 -0.007823 -0.005469 0.000000 0.000000 0.000000
# 2 -0.007823 0.018657 0.003958 0.000000 0.000000 0.000000
# 3 -0.005469 0.003958 0.023440 0.000000 0.000000 0.000000
# 4 0.000000 0.000000 0.000000 0.040564 0.000000 0.000000
# 5 0.000000 0.000000 0.000000 0.000000 0.060609 0.000000
# 6 0.000000 0.000000 0.000000 0.000000 0.000000 0.033918
#
#
# Mechanical properties :
#
#
# Convention : Reuss Voigt Hill
#
# Bulk Modulus (GPa) = 26.79316 35.85006 31.32161
# Shear Modulus (GPa) = 22.50324 25.14440 23.82382
#
# Velocity S-wave (km/s) = 3.42827 3.62388 3.52743
# Velocity P-wave (km/s) = 5.44650 6.01946 5.74013
#
# Compressibility (1/GPa) = 0.03732296
#
# Stress axis : x y z
#
# Youngs Moduli (GPa) = 71.97310 53.59912 42.66300
#
# Poissons Ratio (x) = 0.41932 0.23332
# Poissons Ratio (y) = 0.56306 -0.16887
# Poissons Ratio (z) = 0.39361 -0.21216
#
# Static dielectric constant tensor:
#      x y z
#    x 1.659820 0.000000 0.000000 
#    y 0.000000 1.693430 0.000000 
#    z 0.000000 0.000000 1.682830 
# 
# From -- ./inp_files/18679.got.cif
#   From: 2010.05.17/outbox.cif.g08.bks.cpg/sg64_10_cif.got.tgz:18679.got - 2010.06.03 16:29:19.
