data_PCOD9478426
_publ_section_title
;
Structure prediction by ZEFSAII (Michael W. Deem and Ramdas Pophale) SiO2 
 PCOD9478426
Probable space group: C M C A
;
_chemical_formula_sum "Si O2"
_cell_formula_units_Z 96
_cell_length_a 9.054340
_cell_length_b 19.453961
_cell_length_c 30.733636
_cell_angle_alpha 90.000000
_cell_angle_beta 90.000000
_cell_angle_gamma 90.000000
_cell_volume 5413.508000
_symmetry_space_group_name_H-M "C M C A"
_symmetry_group_IT_number 64
_symmetry_cell_setting 'orthorhombic'
loop_
_space_group_symop_operation_xyz
x,y,z
-x,1/2-y,1/2+z
x,-y,-z
-x,1/2+y,1/2-z
-x,-y,-z
x,1/2+y,1/2-z
-x,y,z
x,1/2-y,1/2+z
1/2+x,1/2+y,z
1/2-x,-y,1/2+z
1/2+x,1/2-y,-z
1/2-x,y,1/2-z
1/2-x,1/2-y,-z
1/2+x,y,1/2-z
1/2-x,1/2+y,z
1/2+x,-y,1/2+z
loop_
_atom_site_type_symbol
_atom_site_label
_atom_site_fract_x
_atom_site_fract_y
_atom_site_fract_z
Si Si1 0.675129 0.262866 0.127022
Si Si2 0.175461 0.845915 0.703900
Si Si3 0.674962 0.545711 0.142869
Si Si4 0.175814 0.594136 0.886000
Si Si5 0.674195 0.155729 0.434463
Si Si6 0.824147 0.078537 0.511281
O O1 0.500000 0.271457 0.121088
O O2 0.700124 0.215906 0.169642
O O3 0.754480 0.335615 0.131167
O O4 0.742997 0.220494 0.086573
O O5 0.250000 0.831757 0.750000
O O6 0.248599 0.912722 0.681825
O O7 0.000000 0.855488 0.708623
O O8 0.500000 0.539313 0.150221
O O9 0.749025 0.472460 0.134939
O O10 0.696319 0.592816 0.099696
O O11 0.202964 0.591361 0.937988
O O12 0.000000 0.592305 0.879133
O O13 0.500000 0.169914 0.437392
O O14 0.739200 0.130843 0.480111
O O15 0.000000 0.084660 0.502917
O O16 0.780822 0.000000 0.500000
#
# Coordination Sequence:
#
# PCOD9478426 Si02
#       6
#    16  16  16  16  16  16
#     4  10  22  39  58  81 114 151 186 229 285 341
#     4  10  21  39  64  89 112 142 180 224 276 336
#     4  10  20  35  57  84 114 145 183 229 276 329
#     4  11  22  36  56  82 114 151 191 235 284 333
#     4  10  20  34  55  81 109 147 194 237 276 327
#     4  10  20  34  53  78 111 151 194 239 285 331
#
# _framework density 17.733418
#
# number of rings (size 3 to 8) (size 9 to 14) (size 15 to 20)
#    0.000    1.833    1.667    2.500    0.000    5.667 
#    0.000    0.833    0.000    2.000    0.000    0.000 
#    0.000    0.000    0.000    0.000    0.000    0.000 
#
# Total GULP energy -268187.732278 kJ/mol
# GULP energy per Si atom -5587.244422 kJ/mol
# Density = 1.769306 g / cm^3
# Si number density = 17.733418 Si / 1000 Ang^3
#
#
#
# Elastic Constant Matrix: (Units=GPa)
#
#
# Indices 1 2 3 4 5 6 
#
# 1 97.4666 76.3798 56.9471 0.0000 0.0000 0.0000
# 2 76.3798 120.4296 30.4668 0.0000 0.0000 0.0000
# 3 56.9471 30.4668 60.6527 0.0000 0.0000 0.0000
# 4 0.0000 0.0000 0.0000 11.7715 0.0000 0.0000
# 5 0.0000 0.0000 0.0000 0.0000 32.0726 0.0000
# 6 0.0000 0.0000 0.0000 0.0000 0.0000 34.8671
#
#
#
# Elastic Compliance Matrix: (Units=1/GPa)
#
#
# Indices 1 2 3 4 5 6 
#
# 1 0.044868 -0.020390 -0.031884 0.000000 0.000000 0.000000
# 2 -0.020390 0.018779 0.009712 0.000000 0.000000 0.000000
# 3 -0.031884 0.009712 0.041545 0.000000 0.000000 0.000000
# 4 0.000000 0.000000 0.000000 0.084951 0.000000 0.000000
# 5 0.000000 0.000000 0.000000 0.000000 0.031179 0.000000
# 6 0.000000 0.000000 0.000000 0.000000 0.000000 0.028680
#
#
# Mechanical properties :
#
#
# Convention : Reuss Voigt Hill
#
# Bulk Modulus (GPa) = 49.83528 67.34846 58.59187
# Shear Modulus (GPa) = 14.62771 23.39259 19.01015
#
# Velocity S-wave (km/s) = 2.87517 3.63592 3.27769
# Velocity P-wave (km/s) = 6.25984 7.46239 6.88741
#
# Compressibility (1/GPa) = 0.02006611
#
# Stress axis : x y z
#
# Youngs Moduli (GPa) = 22.28766 53.25166 24.07008
#
# Poissons Ratio (x) = 1.08581 0.76746
# Poissons Ratio (y) = 0.45445 -0.23376
# Poissons Ratio (z) = 0.71063 -0.51716
#
# Static dielectric constant tensor:
#      x y z
#    x 1.585130 0.000000 0.000000 
#    y 0.000000 1.584220 0.000000 
#    z 0.000000 0.000000 1.581840 
# 
# From -- ./inp_files/48158.got.cif
#   From: 2010.05.17/outbox.cif.g08.bks.cpg/sg64_25_cif.got.tgz:48158.got - 2010.06.03 16:29:19.
