data_PCOD9478220
_publ_section_title
;
Structure prediction by ZEFSAII (Michael W. Deem and Ramdas Pophale) SiO2 
 PCOD9478220
Probable space group: C M C A
;
_chemical_formula_sum "Si O2"
_cell_formula_units_Z 72
_cell_length_a 13.104251
_cell_length_b 17.242294
_cell_length_c 20.426614
_cell_angle_alpha 90.000000
_cell_angle_beta 90.000000
_cell_angle_gamma 90.000000
_cell_volume 4615.339270
_symmetry_space_group_name_H-M "C M C A"
_symmetry_group_IT_number 64
_symmetry_cell_setting 'orthorhombic'
loop_
_space_group_symop_operation_xyz
x,y,z
-x,1/2-y,1/2+z
x,-y,-z
-x,1/2+y,1/2-z
-x,-y,-z
x,1/2+y,1/2-z
-x,y,z
x,1/2-y,1/2+z
1/2+x,1/2+y,z
1/2-x,-y,1/2+z
1/2+x,1/2-y,-z
1/2-x,y,1/2-z
1/2-x,1/2-y,-z
1/2+x,y,1/2-z
1/2-x,1/2+y,z
1/2+x,-y,1/2+z
loop_
_atom_site_type_symbol
_atom_site_label
_atom_site_fract_x
_atom_site_fract_y
_atom_site_fract_z
Si Si1 0.880785 0.987630 0.646438
Si Si2 0.120729 0.822973 0.866096
Si Si3 0.880447 0.350920 0.083761
Si Si4 0.751792 0.419622 0.531163
Si Si5 0.250000 0.896297 0.750000
O O1 0.835613 0.947255 0.581636
O O2 0.822848 0.951158 0.707333
O O3 0.000000 0.972542 0.651833
O O4 0.865153 0.079415 0.635561
O O5 0.135439 0.732992 0.884846
O O6 0.165513 0.873604 0.926259
O O7 0.183613 0.846288 0.801267
O O8 0.000000 0.837106 0.857283
O O9 0.000000 0.355977 0.062046
O O10 0.802820 0.368399 0.024557
O O11 0.792798 0.500000 0.500000
#
# Coordination Sequence:
#
# PCOD9478220 Si02
#       5
#    16  16  16  16   8
#     4   9  17  30  48  67  88 117 154 191 222 261
#     4  10  20  32  47  68  94 122 150 184 225 267
#     4   9  17  30  49  71  92 115 147 188 229 266
#     4   9  17  30  49  71  93 118 147 181 225 273
#     4  10  20  32  46  64  90 124 156 186 222 266
#
# _framework density 15.600154
#
# number of rings (size 3 to 8) (size 9 to 14) (size 15 to 20)
#    0.000    2.667    0.000    2.000    0.000    4.000 
#    0.000    0.000    0.000    1.333    0.000    0.000 
#    0.000    0.000    0.000    0.000    0.000    0.000 
#
# Total GULP energy -200593.657055 kJ/mol
# GULP energy per Si atom -5572.046029 kJ/mol
# Density = 1.556465 g / cm^3
# Si number density = 15.600154 Si / 1000 Ang^3
#
#
#
# Elastic Constant Matrix: (Units=GPa)
#
#
# Indices 1 2 3 4 5 6 
#
# 1 102.3070 75.7075 56.1720 0.0000 0.0000 0.0000
# 2 75.7075 116.7815 65.2471 0.0000 0.0000 0.0000
# 3 56.1720 65.2471 92.5013 0.0000 0.0000 0.0000
# 4 0.0000 0.0000 0.0000 12.9558 0.0000 0.0000
# 5 0.0000 0.0000 0.0000 0.0000 14.8210 0.0000
# 6 0.0000 0.0000 0.0000 0.0000 0.0000 22.5214
#
#
#
# Elastic Compliance Matrix: (Units=1/GPa)
#
#
# Indices 1 2 3 4 5 6 
#
# 1 0.020083 -0.010242 -0.004971 0.000000 0.000000 0.000000
# 2 -0.010242 0.019356 -0.007433 0.000000 0.000000 0.000000
# 3 -0.004971 -0.007433 0.019073 0.000000 0.000000 0.000000
# 4 0.000000 0.000000 0.000000 0.077185 0.000000 0.000000
# 5 0.000000 0.000000 0.000000 0.000000 0.067472 0.000000
# 6 0.000000 0.000000 0.000000 0.000000 0.000000 0.044402
#
#
# Mechanical properties :
#
#
# Convention : Reuss Voigt Hill
#
# Bulk Modulus (GPa) = 75.65231 78.42700 77.03966
# Shear Modulus (GPa) = 16.81970 17.69053 17.25511
#
# Velocity S-wave (km/s) = 3.28712 3.37114 3.32940
# Velocity P-wave (km/s) = 7.93768 8.09538 8.01692
#
# Compressibility (1/GPa) = 0.01321837
#
# Stress axis : x y z
#
# Youngs Moduli (GPa) = 49.79307 51.66393 52.43100
#
# Poissons Ratio (x) = 0.52915 0.26065
# Poissons Ratio (y) = 0.50998 0.38974
# Poissons Ratio (z) = 0.24753 0.38404
#
# Static dielectric constant tensor:
#      x y z
#    x 1.498960 0.000000 0.000000 
#    y 0.000000 1.512470 0.000000 
#    z 0.000000 0.000000 1.501740 
# 
# From -- ./inp_files/30657.got.cif
#   From: 2010.05.17/outbox.cif.g08.bks.cpg/sg64_16_cif.got.tgz:30657.got - 2010.06.03 16:29:19.
