data_PCOD9478121
_publ_section_title
;
Structure prediction by ZEFSAII (Michael W. Deem and Ramdas Pophale) SiO2 
 PCOD9478121
Probable space group: C M C A
;
_chemical_formula_sum "Si O2"
_cell_formula_units_Z 56
_cell_length_a 13.905048
_cell_length_b 18.733373
_cell_length_c 9.566861
_cell_angle_alpha 90.000000
_cell_angle_beta 90.000000
_cell_angle_gamma 90.000000
_cell_volume 2492.056801
_symmetry_space_group_name_H-M "C M C A"
_symmetry_group_IT_number 64
_symmetry_cell_setting 'orthorhombic'
loop_
_space_group_symop_operation_xyz
x,y,z
-x,1/2-y,1/2+z
x,-y,-z
-x,1/2+y,1/2-z
-x,-y,-z
x,1/2+y,1/2-z
-x,y,z
x,1/2-y,1/2+z
1/2+x,1/2+y,z
1/2-x,-y,1/2+z
1/2+x,1/2-y,-z
1/2-x,y,1/2-z
1/2-x,1/2-y,-z
1/2+x,y,1/2-z
1/2-x,1/2+y,z
1/2+x,-y,1/2+z
loop_
_atom_site_type_symbol
_atom_site_label
_atom_site_fract_x
_atom_site_fract_y
_atom_site_fract_z
Si Si1 0.714983 0.500000 0.500000
Si Si2 0.103261 0.408350 0.537508
Si Si3 0.360660 0.389566 0.285273
Si Si4 0.824090 0.240118 0.126052
O O1 0.795495 0.551931 0.426846
O O2 0.647463 0.453725 0.396919
O O3 0.099161 0.406823 0.367560
O O4 0.112882 0.328393 0.592353
O O5 0.000000 0.437453 0.589542
O O6 0.250000 0.376619 0.250000
O O7 0.386119 0.312042 0.347309
O O8 0.750000 0.223837 0.250000
O O9 0.750000 0.250000 0.000000
#
# Coordination Sequence:
#
# PCOD9478121 Si02
#       4
#     8  16  16  16
#     4  10  19  38  61  86 118 172 214 242 295 384
#     4  11  23  39  62  96 130 155 200 272 320 350
#     4   9  19  37  62  88 120 165 208 248 300 378
#     4  11  19  39  64  92 121 166 217 245 298 383
#
# _framework density 22.471397
#
# number of rings (size 3 to 8) (size 9 to 14) (size 15 to 20)
#    0.000    1.714    8.571    0.429    0.000    4.571 
#    0.000    0.714    0.000    0.000    0.000    2.000 
#    0.000    0.000    0.000    0.000    0.000    0.000 
#
# Total GULP energy -155905.546817 kJ/mol
# GULP energy per Si atom -5568.055243 kJ/mol
# Density = 2.242025 g / cm^3
# Si number density = 22.471397 Si / 1000 Ang^3
#
#
#
# Elastic Constant Matrix: (Units=GPa)
#
#
# Indices 1 2 3 4 5 6 
#
# 1 84.3014 11.5467 21.6580 0.0000 0.0000 0.0000
# 2 11.5467 175.9463 52.4122 0.0000 0.0000 0.0000
# 3 21.6580 52.4122 108.1928 0.0000 0.0000 0.0000
# 4 0.0000 0.0000 0.0000 41.8346 0.0000 0.0000
# 5 0.0000 0.0000 0.0000 0.0000 -0.2135 0.0000
# 6 0.0000 0.0000 0.0000 0.0000 0.0000 17.0272
#
#
#
# Elastic Compliance Matrix: (Units=1/GPa)
#
#
# Indices 1 2 3 4 5 6 
#
# 1 0.012506 -0.000088 -0.002461 0.000000 0.000000 0.000000
# 2 -0.000088 0.006643 -0.003200 0.000000 0.000000 0.000000
# 3 -0.002461 -0.003200 0.011286 0.000000 0.000000 0.000000
# 4 0.000000 0.000000 0.000000 0.023904 0.000000 0.000000
# 5 0.000000 0.000000 0.000000 0.000000 -4.683964 0.000000
# 6 0.000000 0.000000 0.000000 0.000000 0.000000 0.058730
#
#
# Mechanical properties :
#
#
# Convention : Reuss Voigt Hill
#
# Bulk Modulus (GPa) = 52.80745 59.96382 56.38564
# Shear Modulus (GPa) = -1.09816 30.58456 14.74320
#
# Velocity S-wave (km/s) = -0.69982 3.69324 2.56420
# Velocity P-wave (km/s) = 4.78517 6.70292 5.82353
#
# Compressibility (1/GPa) = 0.01893672
#
# Stress axis : x y z
#
# Youngs Moduli (GPa) = 79.95852 150.54212 88.60697
#
# Poissons Ratio (x) = 0.01319 0.21807
# Poissons Ratio (y) = 0.00701 0.28358
# Poissons Ratio (z) = 0.19679 0.48179
#
# Static dielectric constant tensor:
#      x y z
#    x 1.932130 0.000000 0.000000 
#    y 0.000000 1.985290 0.000000 
#    z 0.000000 0.000000 1.816170 
# 
# From -- ./inp_files/7925.got.cif
#   From: 2010.05.17/outbox.cif.g08.bks.cpg/sg64_4_cif.got.tgz:7925.got - 2010.06.03 16:29:19.
