data_PCOD9478276
_publ_section_title
;
Structure prediction by ZEFSAII (Michael W. Deem and Ramdas Pophale) SiO2 
 PCOD9478276
Probable space group: C M C A
;
_chemical_formula_sum "Si O2"
_cell_formula_units_Z 116
_cell_length_a 14.717332
_cell_length_b 24.135110
_cell_length_c 17.497849
_cell_angle_alpha 90.000000
_cell_angle_beta 90.000000
_cell_angle_gamma 90.000000
_cell_volume 6215.313423
_symmetry_space_group_name_H-M "C M C A"
_symmetry_group_IT_number 64
_symmetry_cell_setting 'orthorhombic'
loop_
_space_group_symop_operation_xyz
x,y,z
-x,1/2-y,1/2+z
x,-y,-z
-x,1/2+y,1/2-z
-x,-y,-z
x,1/2+y,1/2-z
-x,y,z
x,1/2-y,1/2+z
1/2+x,1/2+y,z
1/2-x,-y,1/2+z
1/2+x,1/2-y,-z
1/2-x,y,1/2-z
1/2-x,1/2-y,-z
1/2+x,y,1/2-z
1/2-x,1/2+y,z
1/2+x,-y,1/2+z
loop_
_atom_site_type_symbol
_atom_site_label
_atom_site_fract_x
_atom_site_fract_y
_atom_site_fract_z
Si Si1 0.606232 0.249733 0.585547
Si Si2 0.264832 0.158160 0.659808
Si Si3 0.391947 0.723145 0.590191
Si Si4 0.179864 0.951582 0.080699
Si Si5 0.608014 0.657163 0.155628
Si Si6 0.394304 0.632689 0.331152
Si Si7 0.240321 0.929584 0.916317
Si Si8 0.000000 0.500000 0.500000
O O1 0.500000 0.233507 0.588078
O O2 0.667169 0.204007 0.625590
O O3 0.630158 0.260434 0.497089
O O4 0.616608 0.307550 0.629576
O O5 0.250000 0.163669 0.750000
O O6 0.169083 0.172737 0.619045
O O7 0.306859 0.098812 0.638106
O O8 0.500000 0.711835 0.594680
O O9 0.371886 0.778352 0.640017
O O10 0.209833 0.010629 0.114763
O O11 0.080798 0.963839 0.044473
O O12 0.242994 0.936718 0.007456
O O13 0.500000 0.649555 0.142551
O O14 0.629798 0.640028 0.242237
O O15 0.664860 0.617069 0.101414
O O16 0.500000 0.617037 0.335651
O O17 0.331011 0.590521 0.375844
#
# Coordination Sequence:
#
# PCOD9478276 Si02
#       8
#    16  16  16  16  16  16  16   4
#     4  10  21  37  61  87 117 163 209 254 296 362
#     4  12  24  37  57  89 131 167 198 249 324 387
#     4  10  21  39  60  88 123 165 214 254 297 368
#     4  10  24  40  63  89 114 150 210 251 310 357
#     4  10  20  32  57  89 117 152 201 253 306 356
#     4  10  20  35  55  86 120 157 198 245 304 360
#     4  10  20  38  61  81 112 149 200 261 299 345
#     4   8  20  44  68  88 110 148 208 274 288 334
#
# _framework density 18.66358
#
# number of rings (size 3 to 8) (size 9 to 14) (size 15 to 20)
#    0.000    1.931    0.000    4.138    4.828    2.759 
#    0.000    2.069    0.000    0.000    0.000    0.000 
#    0.000    0.000    0.000    0.000    0.000    0.000 
#
# Total GULP energy -323377.069362 kJ/mol
# GULP energy per Si atom -5575.466713 kJ/mol
# Density = 1.862110 g / cm^3
# Si number density = 18.663580 Si / 1000 Ang^3
#
#
#
# Elastic Constant Matrix: (Units=GPa)
#
#
# Indices 1 2 3 4 5 6 
#
# 1 53.8091 29.2297 7.7114 0.0000 0.0000 0.0000
# 2 29.2297 44.2504 -4.3548 0.0000 0.0000 0.0000
# 3 7.7114 -4.3548 43.1016 0.0000 0.0000 0.0000
# 4 0.0000 0.0000 0.0000 -51.3924 0.0000 0.0000
# 5 0.0000 0.0000 0.0000 0.0000 3.2472 0.0000
# 6 0.0000 0.0000 0.0000 0.0000 0.0000 6.7702
#
#
#
# Elastic Compliance Matrix: (Units=1/GPa)
#
#
# Indices 1 2 3 4 5 6 
#
# 1 0.031373 -0.021490 -0.007784 0.000000 0.000000 0.000000
# 2 -0.021490 0.037545 0.007638 0.000000 0.000000 0.000000
# 3 -0.007784 0.007638 0.025365 0.000000 0.000000 0.000000
# 4 0.000000 0.000000 0.000000 -0.019458 0.000000 0.000000
# 5 0.000000 0.000000 0.000000 0.000000 0.307960 0.000000
# 6 0.000000 0.000000 0.000000 0.000000 0.000000 0.147705
#
#
# Mechanical properties :
#
#
# Convention : Reuss Voigt Hill
#
# Bulk Modulus (GPa) = 19.60306 22.92596 21.26451
# Shear Modulus (GPa) = 8.46358 -1.03667 3.71346
#
# Velocity S-wave (km/s) = 2.13182 -0.74609 1.41209
# Velocity P-wave (km/s) = 4.07256 3.40121 3.75193
#
# Compressibility (1/GPa) = 0.05101245
#
# Stress axis : x y z
#
# Youngs Moduli (GPa) = 31.87430 26.63440 39.42381
#
# Poissons Ratio (x) = 0.57237 0.30688
# Poissons Ratio (y) = 0.68497 -0.30113
# Poissons Ratio (z) = 0.24812 -0.20344
#
# Static dielectric constant tensor:
#      x y z
#    x 1.657950 0.000000 0.000000 
#    y 0.000000 1.640090 0.000000 
#    z 0.000000 0.000000 1.655410 
# 
# From -- ./inp_files/32501.got.cif
#   From: 2010.05.17/outbox.cif.g08.bks.cpg/sg64_17_cif.got.tgz:32501.got - 2010.06.03 16:29:19.
