data_PCOD9478719
_publ_section_title
;
Structure prediction by ZEFSAII (Michael W. Deem and Ramdas Pophale) SiO2 
 PCOD9478719
Probable space group: C M C A
;
_chemical_formula_sum "Si O2"
_cell_formula_units_Z 112
_cell_length_a 15.176559
_cell_length_b 29.945480
_cell_length_c 12.509608
_cell_angle_alpha 90.000000
_cell_angle_beta 90.000000
_cell_angle_gamma 90.000000
_cell_volume 5685.233341
_symmetry_space_group_name_H-M "C M C A"
_symmetry_group_IT_number 64
_symmetry_cell_setting 'orthorhombic'
loop_
_space_group_symop_operation_xyz
x,y,z
-x,1/2-y,1/2+z
x,-y,-z
-x,1/2+y,1/2-z
-x,-y,-z
x,1/2+y,1/2-z
-x,y,z
x,1/2-y,1/2+z
1/2+x,1/2+y,z
1/2-x,-y,1/2+z
1/2+x,1/2-y,-z
1/2-x,y,1/2-z
1/2-x,1/2-y,-z
1/2+x,y,1/2-z
1/2-x,1/2+y,z
1/2+x,-y,1/2+z
loop_
_atom_site_type_symbol
_atom_site_label
_atom_site_fract_x
_atom_site_fract_y
_atom_site_fract_z
Si Si1 0.690937 0.734701 0.344946
Si Si2 0.103378 0.446787 0.001461
Si Si3 0.760905 0.399194 0.374294
Si Si4 0.897811 0.479693 0.381027
Si Si5 0.605238 0.563849 0.251242
Si Si6 0.172092 0.811193 0.006488
Si Si7 0.900835 0.659141 0.295726
O O1 0.750000 0.755815 0.250000
O O2 0.750598 0.710484 0.433914
O O3 0.642214 0.774323 0.407238
O O4 0.640613 0.695449 0.283038
O O5 0.115541 0.433175 0.878017
O O6 0.000000 0.439927 0.031380
O O7 0.119896 0.500000 0.000000
O O8 0.171832 0.420538 0.075643
O O9 0.750000 0.388159 0.250000
O O10 0.836654 0.436703 0.380842
O O11 0.790974 0.355222 0.437263
O O12 0.897550 0.500000 0.500000
O O13 0.861293 0.518099 0.301272
O O14 0.000000 0.468906 0.353035
O O15 0.500000 0.561608 0.226523
O O16 0.642540 0.610007 0.204637
O O17 0.101742 0.823674 0.916607
O O18 0.000000 0.652830 0.257930
#
# Coordination Sequence:
#
# PCOD9478719 Si02
#       7
#    16  16  16  16  16  16  16
#     4   9  19  38  60  79 106 145 184 232 286 339
#     4  10  21  38  58  81 112 151 200 256 303 344
#     4  12  24  36  56  85 116 155 198 240 298 369
#     4  10  21  37  56  82 120 160 195 237 290 350
#     4   9  18  35  58  81 111 150 192 241 289 339
#     4  10  21  37  57  81 113 148 186 233 290 352
#     4  10  20  35  59  88 112 143 188 235 288 346
#
# _framework density 19.700158999999999
#
# number of rings (size 3 to 8) (size 9 to 14) (size 15 to 20)
#    0.000    2.000    0.000    3.429    0.000    4.000 
#    0.000    5.000    0.000   10.286    0.000    0.000 
#    0.000    0.000    0.000    0.000    0.000    0.000 
#
# Total GULP energy -312492.096318 kJ/mol
# GULP energy per Si atom -5580.216006 kJ/mol
# Density = 1.965532 g / cm^3
# Si number density = 19.700159 Si / 1000 Ang^3
#
#
#
# Elastic Constant Matrix: (Units=GPa)
#
#
# Indices 1 2 3 4 5 6 
#
# 1 53.8205 33.4296 23.3884 0.0000 0.0000 0.0000
# 2 33.4296 118.6589 55.2173 0.0000 0.0000 0.0000
# 3 23.3884 55.2173 93.7276 0.0000 0.0000 0.0000
# 4 0.0000 0.0000 0.0000 35.1591 0.0000 0.0000
# 5 0.0000 0.0000 0.0000 0.0000 15.1312 0.0000
# 6 0.0000 0.0000 0.0000 0.0000 0.0000 1.4449
#
#
#
# Elastic Compliance Matrix: (Units=1/GPa)
#
#
# Indices 1 2 3 4 5 6 
#
# 1 0.022988 -0.005245 -0.002646 0.000000 0.000000 0.000000
# 2 -0.005245 0.012807 -0.006236 0.000000 0.000000 0.000000
# 3 -0.002646 -0.006236 0.015004 0.000000 0.000000 0.000000
# 4 0.000000 0.000000 0.000000 0.028442 0.000000 0.000000
# 5 0.000000 0.000000 0.000000 0.000000 0.066088 0.000000
# 6 0.000000 0.000000 0.000000 0.000000 0.000000 0.692091
#
#
# Mechanical properties :
#
#
# Convention : Reuss Voigt Hill
#
# Bulk Modulus (GPa) = 44.35845 54.47529 49.41687
# Shear Modulus (GPa) = 5.72613 20.62516 13.17564
#
# Velocity S-wave (km/s) = 1.70674 3.23918 2.58894
# Velocity P-wave (km/s) = 5.14292 6.45770 5.83745
#
# Compressibility (1/GPa) = 0.02254362
#
# Stress axis : x y z
#
# Youngs Moduli (GPa) = 43.50080 78.08135 66.65104
#
# Poissons Ratio (x) = 0.40953 0.17639
# Poissons Ratio (y) = 0.22816 0.41565
# Poissons Ratio (z) = 0.11512 0.48693
#
# Static dielectric constant tensor:
#      x y z
#    x 0.048040 0.000000 0.000000 
#    y 0.000000 1.718300 0.000000 
#    z 0.000000 0.000000 1.689130 
# 
# From -- ./inp_files/14948.got.cif
#   From: 2010.05.17/outbox.cif.g08.bks.cpg/sg64_8_cif.got.tgz:14948.got - 2010.06.03 16:29:19.
