data_PCOD9478673
_publ_section_title
;
Structure prediction by ZEFSAII (Michael W. Deem and Ramdas Pophale) SiO2 
 PCOD9478673
Probable space group: C M C A
;
_chemical_formula_sum "Si O2"
_cell_formula_units_Z 96
_cell_length_a 9.040159
_cell_length_b 29.765223
_cell_length_c 18.629152
_cell_angle_alpha 90.000000
_cell_angle_beta 90.000000
_cell_angle_gamma 90.000000
_cell_volume 5012.775972
_symmetry_space_group_name_H-M "C M C A"
_symmetry_group_IT_number 64
_symmetry_cell_setting 'orthorhombic'
loop_
_space_group_symop_operation_xyz
x,y,z
-x,1/2-y,1/2+z
x,-y,-z
-x,1/2+y,1/2-z
-x,-y,-z
x,1/2+y,1/2-z
-x,y,z
x,1/2-y,1/2+z
1/2+x,1/2+y,z
1/2-x,-y,1/2+z
1/2+x,1/2-y,-z
1/2-x,y,1/2-z
1/2-x,1/2-y,-z
1/2+x,y,1/2-z
1/2-x,1/2+y,z
1/2+x,-y,1/2+z
loop_
_atom_site_type_symbol
_atom_site_label
_atom_site_fract_x
_atom_site_fract_y
_atom_site_fract_z
Si Si1 0.324546 0.285674 0.903720
Si Si2 0.675921 0.813291 0.054422
Si Si3 0.175263 0.009538 0.826925
Si Si4 0.326401 0.060319 0.065997
Si Si5 0.671932 0.360511 0.680192
Si Si6 0.324916 0.406247 0.078459
O O1 0.500000 0.293709 0.907159
O O2 0.300043 0.232151 0.900005
O O3 0.252534 0.314514 0.840913
O O4 0.249880 0.302911 0.977423
O O5 0.500000 0.819578 0.044466
O O6 0.747418 0.858082 0.085986
O O7 0.250000 0.002430 0.750000
O O8 0.195503 0.060576 0.854451
O O9 0.000000 0.000088 0.822941
O O10 0.249309 0.978045 0.887005
O O11 0.500000 0.050400 0.054778
O O12 0.315505 0.105446 0.113805
O O13 0.245991 0.069685 0.991119
O O14 0.500000 0.352881 0.694768
O O15 0.750000 0.380666 0.750000
O O16 0.500000 0.400260 0.066398
#
# Coordination Sequence:
#
# PCOD9478673 Si02
#       6
#    16  16  16  16  16  16
#     4  10  20  35  57  84 117 155 194 241 294 348
#     4  10  20  35  58  88 117 150 195 242 292 348
#     4  11  25  43  62  87 119 158 201 246 301 359
#     4  11  23  39  62  91 120 155 199 248 300 357
#     4  11  23  37  56  85 121 159 201 246 299 360
#     4  11  23  39  62  91 121 156 200 250 298 352
#
# _framework density 19.151066
#
# number of rings (size 3 to 8) (size 9 to 14) (size 15 to 20)
#    0.000    1.333    1.667    4.000    0.000   10.000 
#    0.000    0.833    0.000    2.000    0.000    0.000 
#    0.000    0.000    0.000    0.000    0.000    0.000 
#
# Total GULP energy -268360.398065 kJ/mol
# GULP energy per Si atom -5590.841626 kJ/mol
# Density = 1.910748 g / cm^3
# Si number density = 19.151066 Si / 1000 Ang^3
#
#
#
# Elastic Constant Matrix: (Units=GPa)
#
#
# Indices 1 2 3 4 5 6 
#
# 1 118.3887 64.0088 22.6791 0.0000 0.0000 0.0000
# 2 64.0088 106.2192 8.5883 0.0000 0.0000 0.0000
# 3 22.6791 8.5883 33.2649 0.0000 0.0000 0.0000
# 4 0.0000 0.0000 0.0000 3.4748 0.0000 0.0000
# 5 0.0000 0.0000 0.0000 0.0000 30.5351 0.0000
# 6 0.0000 0.0000 0.0000 0.0000 0.0000 35.1509
#
#
#
# Elastic Compliance Matrix: (Units=1/GPa)
#
#
# Indices 1 2 3 4 5 6 
#
# 1 0.014203 -0.007941 -0.007633 0.000000 0.000000 0.000000
# 2 -0.007941 0.014056 0.001785 0.000000 0.000000 0.000000
# 3 -0.007633 0.001785 0.034804 0.000000 0.000000 0.000000
# 4 0.000000 0.000000 0.000000 0.287787 0.000000 0.000000
# 5 0.000000 0.000000 0.000000 0.000000 0.032749 0.000000
# 6 0.000000 0.000000 0.000000 0.000000 0.000000 0.028449
#
#
# Mechanical properties :
#
#
# Convention : Reuss Voigt Hill
#
# Bulk Modulus (GPa) = 28.18060 49.82503 39.00281
# Shear Modulus (GPa) = 11.07533 24.67193 17.87363
#
# Velocity S-wave (km/s) = 2.40742 3.59316 3.05831
# Velocity P-wave (km/s) = 4.74072 6.57934 5.73420
#
# Compressibility (1/GPa) = 0.03548540
#
# Stress axis : x y z
#
# Youngs Moduli (GPa) = 70.40967 71.14518 28.73192
#
# Poissons Ratio (x) = 0.56500 0.21930
# Poissons Ratio (y) = 0.55916 -0.05130
# Poissons Ratio (z) = 0.53741 -0.12702
#
# Static dielectric constant tensor:
#      x y z
#    x 1.638050 0.000000 0.000000 
#    y 0.000000 1.686330 0.000000 
#    z 0.000000 0.000000 1.634900 
# 
# From -- ./inp_files/37080.got.cif
#   From: 2010.05.17/outbox.cif.g08.bks.cpg/sg64_19_cif.got.tgz:37080.got - 2010.06.03 16:29:19.
