data_PCOD9478578
_publ_section_title
;
Structure prediction by ZEFSAII (Michael W. Deem and Ramdas Pophale) SiO2 
 PCOD9478578
Probable space group: C M C A
;
_chemical_formula_sum "Si O2"
_cell_formula_units_Z 80
_cell_length_a 22.445907
_cell_length_b 8.908340
_cell_length_c 22.152033
_cell_angle_alpha 90.000000
_cell_angle_beta 90.000000
_cell_angle_gamma 90.000000
_cell_volume 4429.426841
_symmetry_space_group_name_H-M "C M C A"
_symmetry_group_IT_number 64
_symmetry_cell_setting 'orthorhombic'
loop_
_space_group_symop_operation_xyz
x,y,z
-x,1/2-y,1/2+z
x,-y,-z
-x,1/2+y,1/2-z
-x,-y,-z
x,1/2+y,1/2-z
-x,y,z
x,1/2-y,1/2+z
1/2+x,1/2+y,z
1/2-x,-y,1/2+z
1/2+x,1/2-y,-z
1/2-x,y,1/2-z
1/2-x,1/2-y,-z
1/2+x,y,1/2-z
1/2-x,1/2+y,z
1/2+x,-y,1/2+z
loop_
_atom_site_type_symbol
_atom_site_label
_atom_site_fract_x
_atom_site_fract_y
_atom_site_fract_z
Si Si1 0.150023 0.597046 0.943574
Si Si2 0.432518 0.824914 0.488531
Si Si3 0.569667 0.142357 0.128353
Si Si4 0.284656 0.158846 0.825169
Si Si5 0.327336 0.331907 0.717627
O O1 0.114560 0.734205 0.972390
O O2 0.102674 0.493320 0.907019
O O3 0.198159 0.648700 0.894910
O O4 0.174038 0.500000 0.000000
O O5 0.500000 0.775755 0.504888
O O6 0.425199 0.780463 0.418463
O O7 0.427318 0.000000 0.500000
O O8 0.500000 0.111948 0.138990
O O9 0.607698 0.172261 0.188317
O O10 0.323054 0.281207 0.787147
O O11 0.217250 0.213569 0.814961
O O12 0.300527 0.996488 0.796651
#
# Coordination Sequence:
#
# PCOD9478578 Si02
#       5
#    16  16  16  16  16
#     4   9  18  34  54  77 104 139 178 214 262 319
#     4   9  17  29  48  75 104 135 170 210 257 305
#     4   9  18  34  53  73 102 136 170 209 255 311
#     4  10  20  35  55  76 104 137 177 218 263 319
#     4  10  20  35  54  76 100 136 175 213 263 315
#
# _framework density 18.061026999999999
#
# number of rings (size 3 to 8) (size 9 to 14) (size 15 to 20)
#    0.000    2.600    0.000    3.000    0.000    5.600 
#    0.000   15.000    0.000    0.000    0.000    0.000 
#    0.000    0.000    0.000    0.000    0.000    0.000 
#
# Total GULP energy -222934.401602 kJ/mol
# GULP energy per Si atom -5573.360040 kJ/mol
# Density = 1.801992 g / cm^3
# Si number density = 18.061027 Si / 1000 Ang^3
#
#
#
# Elastic Constant Matrix: (Units=GPa)
#
#
# Indices 1 2 3 4 5 6 
#
# 1 42.3513 -6.3946 22.4728 0.0000 0.0000 0.0000
# 2 -6.3946 46.9346 0.0569 0.0000 0.0000 0.0000
# 3 22.4728 0.0569 86.8921 0.0000 0.0000 0.0000
# 4 0.0000 0.0000 0.0000 16.0568 0.0000 0.0000
# 5 0.0000 0.0000 0.0000 0.0000 37.8560 0.0000
# 6 0.0000 0.0000 0.0000 0.0000 0.0000 15.7820
#
#
#
# Elastic Compliance Matrix: (Units=1/GPa)
#
#
# Indices 1 2 3 4 5 6 
#
# 1 0.028040 0.003829 -0.007254 0.000000 0.000000 0.000000
# 2 0.003829 0.021829 -0.001005 0.000000 0.000000 0.000000
# 3 -0.007254 -0.001005 0.013385 0.000000 0.000000 0.000000
# 4 0.000000 0.000000 0.000000 0.062279 0.000000 0.000000
# 5 0.000000 0.000000 0.000000 0.000000 0.026416 0.000000
# 6 0.000000 0.000000 0.000000 0.000000 0.000000 0.063363
#
#
# Mechanical properties :
#
#
# Convention : Reuss Voigt Hill
#
# Bulk Modulus (GPa) = 18.38428 23.16090 20.77259
# Shear Modulus (GPa) = 20.63530 24.60850 22.62190
#
# Velocity S-wave (km/s) = 3.38380 3.69524 3.54294
# Velocity P-wave (km/s) = 5.04657 5.57296 5.31629
#
# Compressibility (1/GPa) = 0.05439430
#
# Stress axis : x y z
#
# Youngs Moduli (GPa) = 35.66392 45.81029 74.70851
#
# Poissons Ratio (x) = -0.17541 0.54196
# Poissons Ratio (y) = -0.13656 0.07505
# Poissons Ratio (z) = 0.25872 0.04602
#
# Static dielectric constant tensor:
#      x y z
#    x 1.612670 0.000000 0.000000 
#    y 0.000000 1.620630 0.000000 
#    z 0.000000 0.000000 1.632960 
# 
# From -- ./inp_files/35366.got.cif
#   From: 2010.05.17/outbox.cif.g08.bks.cpg/sg64_18_cif.got.tgz:35366.got - 2010.06.03 16:29:19.
