data_PCOD9478324
_publ_section_title
;
Structure prediction by ZEFSAII (Michael W. Deem and Ramdas Pophale) SiO2 
 PCOD9478324
Probable space group: C M C A
;
_chemical_formula_sum "Si O2"
_cell_formula_units_Z 80
_cell_length_a 23.555453
_cell_length_b 34.376578
_cell_length_c 5.014161
_cell_angle_alpha 90.000000
_cell_angle_beta 90.000000
_cell_angle_gamma 90.000000
_cell_volume 4060.246290
_symmetry_space_group_name_H-M "C M C A"
_symmetry_group_IT_number 64
_symmetry_cell_setting 'orthorhombic'
loop_
_space_group_symop_operation_xyz
x,y,z
-x,1/2-y,1/2+z
x,-y,-z
-x,1/2+y,1/2-z
-x,-y,-z
x,1/2+y,1/2-z
-x,y,z
x,1/2-y,1/2+z
1/2+x,1/2+y,z
1/2-x,-y,1/2+z
1/2+x,1/2-y,-z
1/2-x,y,1/2-z
1/2-x,1/2-y,-z
1/2+x,y,1/2-z
1/2-x,1/2+y,z
1/2+x,-y,1/2+z
loop_
_atom_site_type_symbol
_atom_site_label
_atom_site_fract_x
_atom_site_fract_y
_atom_site_fract_z
Si Si1 0.932207 0.224951 0.235969
Si Si2 0.366065 0.039971 0.612379
Si Si3 0.934306 0.563480 0.119602
Si Si4 0.691103 0.377917 0.097737
Si Si5 0.625900 0.854775 0.902798
O O1 0.918159 0.259423 0.443190
O O2 0.901305 0.185753 0.320867
O O3 0.000000 0.218433 0.251293
O O4 0.418015 0.047826 0.409550
O O5 0.323041 0.076079 0.592330
O O6 0.340340 0.000000 0.500000
O O7 0.393149 0.042760 0.905460
O O8 0.917610 0.609130 0.126522
O O9 0.000000 0.557811 0.055325
O O10 0.750000 0.371675 0.250000
O O11 0.645762 0.357080 0.292129
O O12 0.678430 0.363345 0.799156
#
# Coordination Sequence:
#
# PCOD9478324 Si02
#       5
#    16  16  16  16  16
#     4  10  20  34  56  86 116 144 172 209 264 322
#     4  10  21  35  51  77 107 135 176 223 266 316
#     4  10  20  33  52  77 107 144 176 208 259 321
#     4  10  21  38  58  77 100 140 186 227 273 313
#     4  10  20  36  57  79 108 139 179 225 260 317
#
# _framework density 19.703237999999999
#
# number of rings (size 3 to 8) (size 9 to 14) (size 15 to 20)
#    0.000    2.000    0.000    3.600    0.000    2.400 
#    0.000   12.000    0.000   12.000    0.000    0.000 
#    0.000    0.000    0.000    0.000    0.000    0.000 
#
# Total GULP energy -223246.438482 kJ/mol
# GULP energy per Si atom -5581.160962 kJ/mol
# Density = 1.965839 g / cm^3
# Si number density = 19.703238 Si / 1000 Ang^3
#
#
#
# Elastic Constant Matrix: (Units=GPa)
#
#
# Indices 1 2 3 4 5 6 
#
# 1 14.1046 13.6079 -2.8716 0.0000 0.0000 0.0000
# 2 13.6079 84.8460 0.7756 0.0000 0.0000 0.0000
# 3 -2.8716 0.7756 71.8366 0.0000 0.0000 0.0000
# 4 0.0000 0.0000 0.0000 23.0974 0.0000 0.0000
# 5 0.0000 0.0000 0.0000 0.0000 15.2715 0.0000
# 6 0.0000 0.0000 0.0000 0.0000 0.0000 2.8412
#
#
#
# Elastic Compliance Matrix: (Units=1/GPa)
#
#
# Indices 1 2 3 4 5 6 
#
# 1 0.084766 -0.013627 0.003536 0.000000 0.000000 0.000000
# 2 -0.013627 0.013978 -0.000696 0.000000 0.000000 0.000000
# 3 0.003536 -0.000696 0.014069 0.000000 0.000000 0.000000
# 4 0.000000 0.000000 0.000000 0.043295 0.000000 0.000000
# 5 0.000000 0.000000 0.000000 0.000000 0.065482 0.000000
# 6 0.000000 0.000000 0.000000 0.000000 0.000000 0.351960
#
#
# Mechanical properties :
#
#
# Convention : Reuss Voigt Hill
#
# Bulk Modulus (GPa) = 10.96032 21.53458 16.24745
# Shear Modulus (GPa) = 7.99312 18.86037 13.42674
#
# Velocity S-wave (km/s) = 2.01632 3.09726 2.61329
# Velocity P-wave (km/s) = 3.31595 4.87277 4.16770
#
# Compressibility (1/GPa) = 0.09123819
#
# Stress axis : x y z
#
# Youngs Moduli (GPa) = 11.79720 71.54086 71.07666
#
# Poissons Ratio (x) = 0.97491 -0.25129
# Poissons Ratio (y) = 0.16076 0.04944
# Poissons Ratio (z) = -0.04171 0.04977
#
# Static dielectric constant tensor:
#      x y z
#    x 1.667710 0.000000 0.000000 
#    y 0.000000 1.692250 0.000000 
#    z 0.000000 0.000000 1.671060 
# 
# From -- ./inp_files/2365.got.cif
#   From: 2010.05.17/outbox.cif.g08.bks.cpg/sg64_2_cif.got.tgz:2365.got - 2010.06.03 16:29:19.
