data_PCOD9478916
_publ_section_title
;
Structure prediction by ZEFSAII (Michael W. Deem and Ramdas Pophale) SiO2 
 PCOD9478916
Probable space group: C M C A
;
_chemical_formula_sum "Si O2"
_cell_formula_units_Z 64
_cell_length_a 18.500672
_cell_length_b 10.542268
_cell_length_c 15.645987
_cell_angle_alpha 90.000000
_cell_angle_beta 90.000000
_cell_angle_gamma 90.000000
_cell_volume 3051.578322
_symmetry_space_group_name_H-M "C M C A"
_symmetry_group_IT_number 64
_symmetry_cell_setting 'orthorhombic'
loop_
_space_group_symop_operation_xyz
x,y,z
-x,1/2-y,1/2+z
x,-y,-z
-x,1/2+y,1/2-z
-x,-y,-z
x,1/2+y,1/2-z
-x,y,z
x,1/2-y,1/2+z
1/2+x,1/2+y,z
1/2-x,-y,1/2+z
1/2+x,1/2-y,-z
1/2-x,y,1/2-z
1/2-x,1/2-y,-z
1/2+x,y,1/2-z
1/2-x,1/2+y,z
1/2+x,-y,1/2+z
loop_
_atom_site_type_symbol
_atom_site_label
_atom_site_fract_x
_atom_site_fract_y
_atom_site_fract_z
Si Si1 0.208941 0.284284 0.087017
Si Si2 0.356526 0.744536 0.825445
Si Si3 0.328410 0.516326 0.706430
Si Si4 0.416422 0.650268 0.006673
O O1 0.270071 0.250522 0.155454
O O2 0.187523 0.428065 0.111300
O O3 0.250000 0.250000 0.000000
O O4 0.136131 0.204537 0.079363
O O5 0.366455 0.630524 0.758586
O O6 0.394935 0.710610 0.914909
O O7 0.372745 0.886518 0.795067
O O8 0.250000 0.496754 0.750000
O O9 0.500000 0.675134 0.024865
O O10 0.404517 0.500000 0.000000
#
# Coordination Sequence:
#
# PCOD9478916 Si02
#       4
#    16  16  16  16
#     4   9  20  34  60  89 121 154 203 252 304 356
#     4  10  22  37  62  91 123 157 207 252 310 365
#     4  10  20  36  59  95 123 157 198 258 311 363
#     4  10  23  41  60  86 125 167 207 252 308 366
#
# _framework density 20.972752
#
# number of rings (size 3 to 8) (size 9 to 14) (size 15 to 20)
#    0.000    2.250    0.000    2.250   14.000    3.000 
#    0.000    5.000    0.000    0.000    0.000    0.000 
#    0.000    0.000    0.000    0.000    0.000    0.000 
#
# Total GULP energy -178491.068905 kJ/mol
# GULP energy per Si atom -5577.845903 kJ/mol
# Density = 2.092502 g / cm^3
# Si number density = 20.972752 Si / 1000 Ang^3
#
#
#
# Elastic Constant Matrix: (Units=GPa)
#
#
# Indices 1 2 3 4 5 6 
#
# 1 70.7968 43.5943 2.7042 0.0000 0.0000 0.0000
# 2 43.5943 143.7530 37.7112 0.0000 0.0000 0.0000
# 3 2.7042 37.7112 71.7093 0.0000 0.0000 0.0000
# 4 0.0000 0.0000 0.0000 32.6839 0.0000 0.0000
# 5 0.0000 0.0000 0.0000 0.0000 10.7803 0.0000
# 6 0.0000 0.0000 0.0000 0.0000 0.0000 17.8139
#
#
#
# Elastic Compliance Matrix: (Units=1/GPa)
#
#
# Indices 1 2 3 4 5 6 
#
# 1 0.017748 -0.006040 0.002507 0.000000 0.000000 0.000000
# 2 -0.006040 0.010125 -0.005097 0.000000 0.000000 0.000000
# 3 0.002507 -0.005097 0.016531 0.000000 0.000000 0.000000
# 4 0.000000 0.000000 0.000000 0.030596 0.000000 0.000000
# 5 0.000000 0.000000 0.000000 0.000000 0.092762 0.000000
# 6 0.000000 0.000000 0.000000 0.000000 0.000000 0.056136
#
#
# Mechanical properties :
#
#
# Convention : Reuss Voigt Hill
#
# Bulk Modulus (GPa) = 36.83941 50.47541 43.65741
# Shear Modulus (GPa) = 19.98346 25.73891 22.86118
#
# Velocity S-wave (km/s) = 3.09014 3.50702 3.30516
# Velocity P-wave (km/s) = 5.50777 6.36540 5.95205
#
# Compressibility (1/GPa) = 0.02714484
#
# Stress axis : x y z
#
# Youngs Moduli (GPa) = 56.34304 98.76377 60.49215
#
# Poissons Ratio (x) = 0.59654 -0.15166
# Poissons Ratio (y) = 0.34031 0.30832
# Poissons Ratio (z) = -0.14126 0.50339
#
# Static dielectric constant tensor:
#      x y z
#    x 1.728430 0.000000 0.000000 
#    y 0.000000 1.800960 0.000000 
#    z 0.000000 0.000000 1.820650 
# 
# From -- ./inp_files/24864.got.cif
#   From: 2010.05.17/outbox.cif.g08.bks.cpg/sg64_13_cif.got.tgz:24864.got - 2010.06.03 16:29:19.
