data_PCOD9478801
_publ_section_title
;
Structure prediction by ZEFSAII (Michael W. Deem and Ramdas Pophale) SiO2 
 PCOD9478801
Probable space group: C M C A
;
_chemical_formula_sum "Si O2"
_cell_formula_units_Z 64
_cell_length_a 27.348269
_cell_length_b 25.477046
_cell_length_c 5.031249
_cell_angle_alpha 90.000000
_cell_angle_beta 90.000000
_cell_angle_gamma 90.000000
_cell_volume 3505.538375
_symmetry_space_group_name_H-M "C M C A"
_symmetry_group_IT_number 64
_symmetry_cell_setting 'orthorhombic'
loop_
_space_group_symop_operation_xyz
x,y,z
-x,1/2-y,1/2+z
x,-y,-z
-x,1/2+y,1/2-z
-x,-y,-z
x,1/2+y,1/2-z
-x,y,z
x,1/2-y,1/2+z
1/2+x,1/2+y,z
1/2-x,-y,1/2+z
1/2+x,1/2-y,-z
1/2-x,y,1/2-z
1/2-x,1/2-y,-z
1/2+x,y,1/2-z
1/2-x,1/2+y,z
1/2+x,-y,1/2+z
loop_
_atom_site_type_symbol
_atom_site_label
_atom_site_fract_x
_atom_site_fract_y
_atom_site_fract_z
Si Si1 0.750000 0.536750 0.750000
Si Si2 0.500000 0.961423 0.748273
Si Si3 0.155574 0.395863 0.090557
Si Si4 0.895945 0.561614 0.421987
Si Si5 0.191070 0.281987 0.237767
O O1 0.761091 0.500000 0.500000
O O2 0.796660 0.572160 0.816549
O O3 0.449223 0.931024 0.711733
O O4 0.500000 0.000000 0.500000
O O5 0.500000 0.000000 0.000000
O O6 0.112883 0.409182 0.300913
O O7 0.168149 0.334899 0.123211
O O8 0.141546 0.416780 0.798851
O O9 0.889584 0.500000 0.500000
O O10 0.177692 0.264912 0.535321
O O11 0.250000 0.288404 0.250000
#
# Coordination Sequence:
#
# PCOD9478801 Si02
#       5
#     8   8  16  16  16
#     4  12  24  34  48  76 118 152 178 206 262 340
#     4  10  20  36  56  80 110 148 190 234 272 312
#     4  12  22  37  55  83 111 152 185 225 280 334
#     4  11  22  36  57  82 116 148 187 228 272 335
#     4  10  21  38  58  79 107 144 193 245 278 315
#
# _framework density 18.256824999999999
#
# number of rings (size 3 to 8) (size 9 to 14) (size 15 to 20)
#    0.000    1.000    1.250    9.000    0.000    0.000 
#    0.000    0.000    0.000    0.000    0.000   17.500 
#    0.000    0.000    0.000    0.000    0.000    0.000 
#
# Total GULP energy -178689.997347 kJ/mol
# GULP energy per Si atom -5584.062417 kJ/mol
# Density = 1.821527 g / cm^3
# Si number density = 18.256825 Si / 1000 Ang^3
#
#
#
# Elastic Constant Matrix: (Units=GPa)
#
#
# Indices 1 2 3 4 5 6 
#
# 1 53.0553 19.1986 2.0801 0.0000 0.0000 0.0000
# 2 19.1986 93.1281 23.2755 0.0000 0.0000 0.0000
# 3 2.0801 23.2755 109.0622 0.0000 0.0000 0.0000
# 4 0.0000 0.0000 0.0000 20.7404 0.0000 0.0000
# 5 0.0000 0.0000 0.0000 0.0000 30.3246 0.0000
# 6 0.0000 0.0000 0.0000 0.0000 0.0000 7.4620
#
#
#
# Elastic Compliance Matrix: (Units=1/GPa)
#
#
# Indices 1 2 3 4 5 6 
#
# 1 0.020397 -0.004339 0.000537 0.000000 0.000000 0.000000
# 2 -0.004339 0.012266 -0.002535 0.000000 0.000000 0.000000
# 3 0.000537 -0.002535 0.009700 0.000000 0.000000 0.000000
# 4 0.000000 0.000000 0.000000 0.048215 0.000000 0.000000
# 5 0.000000 0.000000 0.000000 0.000000 0.032976 0.000000
# 6 0.000000 0.000000 0.000000 0.000000 0.000000 0.134013
#
#
# Mechanical properties :
#
#
# Convention : Reuss Voigt Hill
#
# Bulk Modulus (GPa) = 33.68261 38.26155 35.97208
# Shear Modulus (GPa) = 17.84832 25.75149 21.79991
#
# Velocity S-wave (km/s) = 3.13009 3.75975 3.45928
# Velocity P-wave (km/s) = 5.61718 6.31273 5.97508
#
# Compressibility (1/GPa) = 0.02968891
#
# Stress axis : x y z
#
# Youngs Moduli (GPa) = 49.02591 81.52620 103.09451
#
# Poissons Ratio (x) = 0.35376 -0.05536
# Poissons Ratio (y) = 0.21273 0.26134
# Poissons Ratio (z) = -0.02633 0.20667
#
# Static dielectric constant tensor:
#      x y z
#    x 1.698740 0.000000 0.000000 
#    y 0.000000 1.617060 0.000000 
#    z 0.000000 0.000000 1.625060 
# 
# From -- ./inp_files/2735.got.cif
#   From: 2010.05.17/outbox.cif.g08.bks.cpg/sg64_2_cif.got.tgz:2735.got - 2010.06.03 16:29:19.
