data_PCOD9478306
_publ_section_title
;
Structure prediction by ZEFSAII (Michael W. Deem and Ramdas Pophale) SiO2 
 PCOD9478306
Probable space group: C M C A
;
_chemical_formula_sum "Si O2"
_cell_formula_units_Z 96
_cell_length_a 8.851027
_cell_length_b 25.774123
_cell_length_c 24.189935
_cell_angle_alpha 90.000000
_cell_angle_beta 90.000000
_cell_angle_gamma 90.000000
_cell_volume 5518.388395
_symmetry_space_group_name_H-M "C M C A"
_symmetry_group_IT_number 64
_symmetry_cell_setting 'orthorhombic'
loop_
_space_group_symop_operation_xyz
x,y,z
-x,1/2-y,1/2+z
x,-y,-z
-x,1/2+y,1/2-z
-x,-y,-z
x,1/2+y,1/2-z
-x,y,z
x,1/2-y,1/2+z
1/2+x,1/2+y,z
1/2-x,-y,1/2+z
1/2+x,1/2-y,-z
1/2-x,y,1/2-z
1/2-x,1/2-y,-z
1/2+x,y,1/2-z
1/2-x,1/2+y,z
1/2+x,-y,1/2+z
loop_
_atom_site_type_symbol
_atom_site_label
_atom_site_fract_x
_atom_site_fract_y
_atom_site_fract_z
Si Si1 0.681639 0.248869 0.310430
Si Si2 0.680890 0.058201 0.690377
Si Si3 0.317534 0.653155 0.109829
Si Si4 0.182058 0.148966 0.621939
Si Si5 0.318374 0.561856 0.190778
Si Si6 0.818834 0.192273 0.501894
O O1 0.500000 0.248535 0.306137
O O2 0.750000 0.242550 0.250000
O O3 0.723824 0.201945 0.351230
O O4 0.727206 0.303213 0.338313
O O5 0.500000 0.061466 0.693307
O O6 0.750000 0.072825 0.750000
O O7 0.743286 0.096878 0.644392
O O8 0.723739 0.998046 0.679898
O O9 0.500000 0.653566 0.103221
O O10 0.272776 0.601167 0.142506
O O11 0.241512 0.660992 0.050772
O O12 0.223252 0.164747 0.559556
O O13 0.000000 0.144114 0.624559
O O14 0.500000 0.564398 0.195332
O O15 0.250000 0.577284 0.250000
O O16 0.750000 0.250000 0.500000
O O17 0.000000 0.196479 0.500310
#
# Coordination Sequence:
#
# PCOD9478306 Si02
#       6
#    16  16  16  16  16  16
#     4  10  20  33  50  76 108 137 171 217 269 321
#     4  10  20  35  56  83 110 145 184 222 272 325
#     4  10  20  37  56  78 110 144 179 225 271 319
#     4  10  21  37  54  77 108 142 181 225 269 320
#     4   9  19  35  57  82 112 145 182 225 272 323
#     4  11  22  38  58  80 108 144 185 225 271 324
#
# _framework density 17.396384000000001
#
# number of rings (size 3 to 8) (size 9 to 14) (size 15 to 20)
#    0.000    2.000    1.667    2.000    0.000    5.333 
#    0.000    0.833    0.000    5.000    0.000    0.000 
#    0.000    0.000    0.000    0.000    0.000    0.000 
#
# Total GULP energy -268021.950332 kJ/mol
# GULP energy per Si atom -5583.790632 kJ/mol
# Density = 1.735679 g / cm^3
# Si number density = 17.396384 Si / 1000 Ang^3
#
#
#
# Elastic Constant Matrix: (Units=GPa)
#
#
# Indices 1 2 3 4 5 6 
#
# 1 22.9258 31.4196 38.1470 0.0000 0.0000 0.0000
# 2 31.4196 94.9129 64.7219 0.0000 0.0000 0.0000
# 3 38.1470 64.7219 130.4844 0.0000 0.0000 0.0000
# 4 0.0000 0.0000 0.0000 26.9733 0.0000 0.0000
# 5 0.0000 0.0000 0.0000 0.0000 35.5911 0.0000
# 6 0.0000 0.0000 0.0000 0.0000 0.0000 23.8284
#
#
#
# Elastic Compliance Matrix: (Units=1/GPa)
#
#
# Indices 1 2 3 4 5 6 
#
# 1 0.107682 -0.021427 -0.020853 0.000000 0.000000 0.000000
# 2 -0.021427 0.020185 -0.003748 0.000000 0.000000 0.000000
# 3 -0.020853 -0.003748 0.015619 0.000000 0.000000 0.000000
# 4 0.000000 0.000000 0.000000 0.037074 0.000000 0.000000
# 5 0.000000 0.000000 0.000000 0.000000 0.028097 0.000000
# 6 0.000000 0.000000 0.000000 0.000000 0.000000 0.041967
#
#
# Mechanical properties :
#
#
# Convention : Reuss Voigt Hill
#
# Bulk Modulus (GPa) = 19.44353 57.43334 38.43843
# Shear Modulus (GPa) = 13.89575 24.88085 19.38830
#
# Velocity S-wave (km/s) = 2.82932 3.78594 3.34204
# Velocity P-wave (km/s) = 4.67701 7.22477 6.08571
#
# Compressibility (1/GPa) = 0.05143100
#
# Stress axis : x y z
#
# Youngs Moduli (GPa) = 9.28657 49.54248 64.02491
#
# Poissons Ratio (x) = 1.06155 1.33509
# Poissons Ratio (y) = 0.19898 0.23994
# Poissons Ratio (z) = 0.19365 0.18567
#
# Static dielectric constant tensor:
#      x y z
#    x 1.583100 0.000000 0.000000 
#    y 0.000000 1.587910 0.000000 
#    z 0.000000 0.000000 1.561630 
# 
# From -- ./inp_files/36990.got.cif
#   From: 2010.05.17/outbox.cif.g08.bks.cpg/sg64_19_cif.got.tgz:36990.got - 2010.06.03 16:29:19.
