data_PCOD9478001
_publ_section_title
;
Structure prediction by ZEFSAII (Michael W. Deem and Ramdas Pophale) SiO2 
 PCOD9478001
Probable space group: C M C A
;
_chemical_formula_sum "Si O2"
_cell_formula_units_Z 88
_cell_length_a 22.187766
_cell_length_b 13.323087
_cell_length_c 15.929408
_cell_angle_alpha 90.000000
_cell_angle_beta 90.000000
_cell_angle_gamma 90.000000
_cell_volume 4708.884920
_symmetry_space_group_name_H-M "C M C A"
_symmetry_group_IT_number 64
_symmetry_cell_setting 'orthorhombic'
loop_
_space_group_symop_operation_xyz
x,y,z
-x,1/2-y,1/2+z
x,-y,-z
-x,1/2+y,1/2-z
-x,-y,-z
x,1/2+y,1/2-z
-x,y,z
x,1/2-y,1/2+z
1/2+x,1/2+y,z
1/2-x,-y,1/2+z
1/2+x,1/2-y,-z
1/2-x,y,1/2-z
1/2-x,1/2-y,-z
1/2+x,y,1/2-z
1/2-x,1/2+y,z
1/2+x,-y,1/2+z
loop_
_atom_site_type_symbol
_atom_site_label
_atom_site_fract_x
_atom_site_fract_y
_atom_site_fract_z
Si Si1 0.287003 0.576703 0.359084
Si Si2 0.335128 0.999761 0.682149
Si Si3 0.377283 0.000000 0.000000
Si Si4 0.429640 0.286726 0.483147
Si Si5 0.928076 0.671428 0.310256
Si Si6 0.357918 0.767222 0.348220
O O1 0.309968 0.521698 0.275189
O O2 0.217961 0.547722 0.375029
O O3 0.332846 0.538761 0.428467
O O4 0.298845 0.695550 0.348516
O O5 0.343566 0.116677 0.665678
O O6 0.396366 0.936217 0.676831
O O7 0.416961 0.905116 0.026268
O O8 0.500000 0.269183 0.500606
O O9 0.414782 0.234093 0.394837
O O10 0.391419 0.247649 0.562610
O O11 0.898733 0.724071 0.228329
O O12 0.000000 0.663716 0.299783
#
# Coordination Sequence:
#
# PCOD9478001 Si02
#       6
#    16  16   8  16  16  16
#     4   9  21  36  56  83 108 141 187 230 275 329
#     4  10  21  38  58  81 113 150 180 226 285 332
#     4  10  19  36  58  82 109 144 188 234 278 324
#     4  10  21  36  56  83 113 146 186 230 275 328
#     4  10  22  38  56  82 113 147 189 230 273 329
#     4  10  21  38  58  81 112 147 185 228 276 332
#
# _framework density 18.688077
#
# number of rings (size 3 to 8) (size 9 to 14) (size 15 to 20)
#    0.000    2.182    0.000    1.909    0.000   10.909 
#    0.000   10.000    0.000    0.000    0.000    0.000 
#    0.000    0.000    0.000    0.000    0.000    0.000 
#
# Total GULP energy -245468.618301 kJ/mol
# GULP energy per Si atom -5578.832234 kJ/mol
# Density = 1.864554 g / cm^3
# Si number density = 18.688077 Si / 1000 Ang^3
#
#
#
# Elastic Constant Matrix: (Units=GPa)
#
#
# Indices 1 2 3 4 5 6 
#
# 1 77.1772 56.6102 21.6912 0.0000 0.0000 0.0000
# 2 56.6102 169.7290 31.1605 0.0000 0.0000 0.0000
# 3 21.6912 31.1605 60.8189 0.0000 0.0000 0.0000
# 4 0.0000 0.0000 0.0000 15.1315 0.0000 0.0000
# 5 0.0000 0.0000 0.0000 0.0000 11.1122 0.0000
# 6 0.0000 0.0000 0.0000 0.0000 0.0000 11.8426
#
#
#
# Elastic Compliance Matrix: (Units=1/GPa)
#
#
# Indices 1 2 3 4 5 6 
#
# 1 0.017864 -0.005286 -0.003663 0.000000 0.000000 0.000000
# 2 -0.005286 0.008067 -0.002248 0.000000 0.000000 0.000000
# 3 -0.003663 -0.002248 0.018901 0.000000 0.000000 0.000000
# 4 0.000000 0.000000 0.000000 0.066087 0.000000 0.000000
# 5 0.000000 0.000000 0.000000 0.000000 0.089991 0.000000
# 6 0.000000 0.000000 0.000000 0.000000 0.000000 0.084441
#
#
# Mechanical properties :
#
#
# Convention : Reuss Voigt Hill
#
# Bulk Modulus (GPa) = 44.56737 58.51656 51.54197
# Shear Modulus (GPa) = 15.86172 20.83481 18.34826
#
# Velocity S-wave (km/s) = 2.91651 3.34259 3.13679
# Velocity P-wave (km/s) = 5.93643 6.80275 6.38430
#
# Compressibility (1/GPa) = 0.02243794
#
# Stress axis : x y z
#
# Youngs Moduli (GPa) = 55.97910 123.95510 52.90844
#
# Poissons Ratio (x) = 0.65519 0.19381
# Poissons Ratio (y) = 0.29589 0.11895
# Poissons Ratio (z) = 0.20506 0.27868
#
# Static dielectric constant tensor:
#      x y z
#    x 1.656530 0.000000 0.000000 
#    y 0.000000 1.672400 0.000000 
#    z 0.000000 0.000000 1.676300 
# 
# From -- ./inp_files/27165.got.cif
#   From: 2010.05.17/outbox.cif.g08.bks.cpg/sg64_14_cif.got.tgz:27165.got - 2010.06.03 16:29:19.
