data_PCOD9478915
_publ_section_title
;
Structure prediction by ZEFSAII (Michael W. Deem and Ramdas Pophale) SiO2 
 PCOD9478915
Probable space group: C M C A
;
_chemical_formula_sum "Si O2"
_cell_formula_units_Z 104
_cell_length_a 20.059184
_cell_length_b 14.002006
_cell_length_c 18.202595
_cell_angle_alpha 90.000000
_cell_angle_beta 90.000000
_cell_angle_gamma 90.000000
_cell_volume 5112.541283
_symmetry_space_group_name_H-M "C M C A"
_symmetry_group_IT_number 64
_symmetry_cell_setting 'orthorhombic'
loop_
_space_group_symop_operation_xyz
x,y,z
-x,1/2-y,1/2+z
x,-y,-z
-x,1/2+y,1/2-z
-x,-y,-z
x,1/2+y,1/2-z
-x,y,z
x,1/2-y,1/2+z
1/2+x,1/2+y,z
1/2-x,-y,1/2+z
1/2+x,1/2-y,-z
1/2-x,y,1/2-z
1/2-x,1/2-y,-z
1/2+x,y,1/2-z
1/2-x,1/2+y,z
1/2+x,-y,1/2+z
loop_
_atom_site_type_symbol
_atom_site_label
_atom_site_fract_x
_atom_site_fract_y
_atom_site_fract_z
Si Si1 0.366299 0.925046 0.654485
Si Si2 0.256158 0.414533 0.161834
Si Si3 0.379941 0.541246 0.579677
Si Si4 0.500000 0.117641 0.982155
Si Si5 0.747483 0.798329 0.839438
Si Si6 0.000000 0.239220 0.879151
Si Si7 0.891051 0.125310 0.324238
Si Si8 0.000000 0.010545 0.913000
O O1 0.318603 0.835656 0.632192
O O2 0.384284 0.905418 0.739886
O O3 0.314226 0.011797 0.644044
O O4 0.434264 0.955747 0.616064
O O5 0.250000 0.418505 0.250000
O O6 0.184810 0.433128 0.125732
O O7 0.271721 0.307447 0.138060
O O8 0.359845 0.500000 0.500000
O O9 0.431822 0.625951 0.563497
O O10 0.418497 0.461225 0.627347
O O11 0.500000 0.197479 0.045586
O O12 0.500000 0.000000 0.000000
O O13 0.750000 0.800888 0.750000
O O14 0.683222 0.861090 0.856954
O O15 0.935460 0.280397 0.835455
O O16 0.000000 0.124435 0.890495
O O17 0.000000 0.000000 0.000000
#
# Coordination Sequence:
#
# PCOD9478915 Si02
#       8
#    16  16  16   8  16   8  16   8
#     4  11  22  45  67  94 136 181 228 279 342 405
#     4  11  20  38  65  98 130 171 218 276 338 401
#     4  11  20  36  62  97 132 169 210 275 350 392
#     4  10  20  36  59  94 131 165 211 276 345 400
#     4   9  20  36  64  95 127 168 223 274 328 403
#     4  12  23  43  71  98 136 180 232 283 351 420
#     4  11  19  40  71  97 132 171 222 288 340 407
#     4  12  31  49  66  92 143 197 233 285 351 414
#
# _framework density 20.342134000000001
#
# number of rings (size 3 to 8) (size 9 to 14) (size 15 to 20)
#    0.000    1.231    6.154    1.846    0.000    1.846 
#    0.000    0.769    3.385    0.000    0.000    0.000 
#    0.000    0.000    0.000    0.000    0.000    0.000 
#
# Total GULP energy -289820.324094 kJ/mol
# GULP energy per Si atom -5573.467771 kJ/mol
# Density = 2.029583 g / cm^3
# Si number density = 20.342134 Si / 1000 Ang^3
#
#
#
# Elastic Constant Matrix: (Units=GPa)
#
#
# Indices 1 2 3 4 5 6 
#
# 1 151.1388 23.1622 49.2380 0.0000 0.0000 0.0000
# 2 23.1622 59.4527 12.4105 0.0000 0.0000 0.0000
# 3 49.2380 12.4105 76.5405 0.0000 0.0000 0.0000
# 4 0.0000 0.0000 0.0000 14.3749 0.0000 0.0000
# 5 0.0000 0.0000 0.0000 0.0000 35.7420 0.0000
# 6 0.0000 0.0000 0.0000 0.0000 0.0000 18.8846
#
#
#
# Elastic Compliance Matrix: (Units=1/GPa)
#
#
# Indices 1 2 3 4 5 6 
#
# 1 0.008662 -0.002289 -0.005201 0.000000 0.000000 0.000000
# 2 -0.002289 0.018014 -0.001448 0.000000 0.000000 0.000000
# 3 -0.005201 -0.001448 0.016645 0.000000 0.000000 0.000000
# 4 0.000000 0.000000 0.000000 0.069566 0.000000 0.000000
# 5 0.000000 0.000000 0.000000 0.000000 0.027978 0.000000
# 6 0.000000 0.000000 0.000000 0.000000 0.000000 0.052953
#
#
# Mechanical properties :
#
#
# Convention : Reuss Voigt Hill
#
# Bulk Modulus (GPa) = 39.30046 50.75037 45.02542
# Shear Modulus (GPa) = 22.70907 27.28838 24.99872
#
# Velocity S-wave (km/s) = 3.34482 3.66658 3.50939
# Velocity P-wave (km/s) = 5.85480 6.55192 6.21315
#
# Compressibility (1/GPa) = 0.02544499
#
# Stress axis : x y z
#
# Youngs Moduli (GPa) = 115.45328 55.51189 60.07637
#
# Poissons Ratio (x) = 0.12706 0.31244
# Poissons Ratio (y) = 0.26425 0.08702
# Poissons Ratio (z) = 0.60045 0.08041
#
# Static dielectric constant tensor:
#      x y z
#    x 1.774580 0.000000 0.000000 
#    y 0.000000 1.798720 0.000000 
#    z 0.000000 0.000000 1.745430 
# 
# From -- ./inp_files/34396.got.cif
#   From: 2010.05.17/outbox.cif.g08.bks.cpg/sg64_18_cif.got.tgz:34396.got - 2010.06.03 16:29:19.
