data_PCOD9478230
_publ_section_title
;
Structure prediction by ZEFSAII (Michael W. Deem and Ramdas Pophale) SiO2 
 PCOD9478230
Probable space group: C M C A
;
_chemical_formula_sum "Si O2"
_cell_formula_units_Z 96
_cell_length_a 8.853056
_cell_length_b 19.903624
_cell_length_c 32.181624
_cell_angle_alpha 90.000000
_cell_angle_beta 90.000000
_cell_angle_gamma 90.000000
_cell_volume 5670.656315
_symmetry_space_group_name_H-M "C M C A"
_symmetry_group_IT_number 64
_symmetry_cell_setting 'orthorhombic'
loop_
_space_group_symop_operation_xyz
x,y,z
-x,1/2-y,1/2+z
x,-y,-z
-x,1/2+y,1/2-z
-x,-y,-z
x,1/2+y,1/2-z
-x,y,z
x,1/2-y,1/2+z
1/2+x,1/2+y,z
1/2-x,-y,1/2+z
1/2+x,1/2-y,-z
1/2-x,y,1/2-z
1/2-x,1/2-y,-z
1/2+x,y,1/2-z
1/2-x,1/2+y,z
1/2+x,-y,1/2+z
loop_
_atom_site_type_symbol
_atom_site_label
_atom_site_fract_x
_atom_site_fract_y
_atom_site_fract_z
Si Si1 0.180488 0.175816 0.048474
Si Si2 0.317995 0.177749 0.547052
Si Si3 0.180301 0.426042 0.291236
Si Si4 0.818270 0.428548 0.383277
Si Si5 0.319283 0.923736 0.791388
Si Si6 0.180525 0.077409 0.383865
O O1 0.243206 0.250573 0.056075
O O2 0.249974 0.123952 0.080864
O O3 0.000000 0.175523 0.052031
O O4 0.219954 0.158592 0.000500
O O5 0.500000 0.185217 0.549453
O O6 0.271751 0.121587 0.580191
O O7 0.250000 0.392775 0.250000
O O8 0.214948 0.398661 0.337277
O O9 0.249644 0.501168 0.292566
O O10 0.000000 0.429915 0.286445
O O11 0.743147 0.501553 0.387250
O O12 0.000000 0.437709 0.385399
O O13 0.500000 0.927788 0.787075
O O14 0.250000 0.890651 0.750000
O O15 0.283269 0.895689 0.837166
O O16 0.000000 0.075728 0.387489
#
# Coordination Sequence:
#
# PCOD9478230 Si02
#       6
#    16  16  16  16  16  16
#     4  10  20  34  53  73  94 125 163 201 242 291
#     4   9  19  36  54  71  94 125 162 202 244 291
#     4   9  15  24  41  65  93 124 155 188 229 277
#     4   9  18  32  50  72  98 128 160 196 239 284
#     4   9  16  26  42  65  93 125 157 191 232 276
#     4  10  20  32  48  73 103 130 158 197 241 283
#
# _framework density 16.929257
#
# number of rings (size 3 to 8) (size 9 to 14) (size 15 to 20)
#    0.000    2.667    0.000    3.000    0.000    4.667 
#    0.000    3.333    0.000    1.000    0.000    2.333 
#    0.000    0.000    0.000    0.000    0.000    0.000 
#
# Total GULP energy -267345.603564 kJ/mol
# GULP energy per Si atom -5569.700074 kJ/mol
# Density = 1.689073 g / cm^3
# Si number density = 16.929257 Si / 1000 Ang^3
#
#
#
# Elastic Constant Matrix: (Units=GPa)
#
#
# Indices 1 2 3 4 5 6 
#
# 1 49.9244 31.9859 62.8637 0.0000 0.0000 0.0000
# 2 31.9859 59.6385 88.5591 0.0000 0.0000 0.0000
# 3 62.8637 88.5591 188.5214 0.0000 0.0000 0.0000
# 4 0.0000 0.0000 0.0000 -8.0386 0.0000 0.0000
# 5 0.0000 0.0000 0.0000 0.0000 29.4325 0.0000
# 6 0.0000 0.0000 0.0000 0.0000 0.0000 21.0924
#
#
#
# Elastic Compliance Matrix: (Units=1/GPa)
#
#
# Indices 1 2 3 4 5 6 
#
# 1 0.034931 -0.004755 -0.009414 0.000000 0.000000 0.000000
# 2 -0.004755 0.056088 -0.024762 0.000000 0.000000 0.000000
# 3 -0.009414 -0.024762 0.020076 0.000000 0.000000 0.000000
# 4 0.000000 0.000000 0.000000 -0.124400 0.000000 0.000000
# 5 0.000000 0.000000 0.000000 0.000000 0.033976 0.000000
# 6 0.000000 0.000000 0.000000 0.000000 0.000000 0.047410
#
#
# Mechanical properties :
#
#
# Convention : Reuss Voigt Hill
#
# Bulk Modulus (GPa) = 30.09135 73.87799 51.98467
# Shear Modulus (GPa) = 31.84294 16.14231 23.99263
#
# Velocity S-wave (km/s) = 4.34169 3.09126 3.76869
# Velocity P-wave (km/s) = 6.55340 7.51499 7.05061
#
# Compressibility (1/GPa) = 0.03323214
#
# Stress axis : x y z
#
# Youngs Moduli (GPa) = 28.62787 17.82919 49.81108
#
# Poissons Ratio (x) = 0.08477 0.46894
# Poissons Ratio (y) = 0.13612 1.23343
# Poissons Ratio (z) = 0.26951 0.44149
#
# Static dielectric constant tensor:
#      x y z
#    x 1.566130 0.000000 0.000000 
#    y 0.000000 1.522770 0.000000 
#    z 0.000000 0.000000 1.634330 
# 
# From -- ./inp_files/48146.got.cif
#   From: 2010.05.17/outbox.cif.g08.bks.cpg/sg64_25_cif.got.tgz:48146.got - 2010.06.03 16:29:19.
