data_PCOD9478881
_publ_section_title
;
Structure prediction by ZEFSAII (Michael W. Deem and Ramdas Pophale) SiO2 
 PCOD9478881
Probable space group: C M C A
;
_chemical_formula_sum "Si O2"
_cell_formula_units_Z 80
_cell_length_a 14.318080
_cell_length_b 13.289292
_cell_length_c 21.993721
_cell_angle_alpha 90.000000
_cell_angle_beta 90.000000
_cell_angle_gamma 90.000000
_cell_volume 4184.902462
_symmetry_space_group_name_H-M "C M C A"
_symmetry_group_IT_number 64
_symmetry_cell_setting 'orthorhombic'
loop_
_space_group_symop_operation_xyz
x,y,z
-x,1/2-y,1/2+z
x,-y,-z
-x,1/2+y,1/2-z
-x,-y,-z
x,1/2+y,1/2-z
-x,y,z
x,1/2-y,1/2+z
1/2+x,1/2+y,z
1/2-x,-y,1/2+z
1/2+x,1/2-y,-z
1/2-x,y,1/2-z
1/2-x,1/2-y,-z
1/2+x,y,1/2-z
1/2-x,1/2+y,z
1/2+x,-y,1/2+z
loop_
_atom_site_type_symbol
_atom_site_label
_atom_site_fract_x
_atom_site_fract_y
_atom_site_fract_z
Si Si1 0.678359 0.833874 0.480482
Si Si2 0.500000 0.675571 0.284785
Si Si3 0.500000 0.217829 0.583626
Si Si4 0.333668 0.479516 0.700698
Si Si5 0.500000 0.012456 0.650476
Si Si6 0.500000 0.380860 0.280759
Si Si7 0.689722 0.528420 0.098213
O O1 0.750000 0.750000 0.500000
O O2 0.590272 0.770577 0.457220
O O3 0.668444 0.903066 0.540076
O O4 0.701861 0.913769 0.426770
O O5 0.500000 0.723274 0.352868
O O6 0.406614 0.607962 0.280483
O O7 0.500000 0.762818 0.234043
O O8 0.500000 0.099185 0.599611
O O9 0.250000 0.498171 0.750000
O O10 0.403585 0.575340 0.691106
O O11 0.280144 0.449330 0.638875
O O12 0.402066 0.959012 0.640097
O O13 0.500000 0.067695 0.714271
#
# Coordination Sequence:
#
# PCOD9478881 Si02
#       7
#    16   8   8  16   8   8  16
#     4  10  20  36  58  87 114 154 206 242 303 358
#     4  10  23  40  58  88 125 158 201 245 309 367
#     4   9  18  35  57  83 117 153 189 250 295 350
#     4  11  22  39  61  88 122 160 199 251 308 360
#     4   9  16  33  58  81 109 149 190 238 292 344
#     4  10  21  40  57  83 121 158 197 237 298 369
#     4  10  20  36  60  86 118 153 197 257 296 358
#
# _framework density 19.116336
#
# number of rings (size 3 to 8) (size 9 to 14) (size 15 to 20)
#    0.000    2.000    2.000    1.800    0.000    3.200 
#    3.600    2.000    0.000    7.200    0.000    0.000 
#    0.000    0.000    0.000    0.000    0.000    0.000 
#
# Total GULP energy -222744.536467 kJ/mol
# GULP energy per Si atom -5568.613412 kJ/mol
# Density = 1.907283 g / cm^3
# Si number density = 19.116336 Si / 1000 Ang^3
#
#
#
# Elastic Constant Matrix: (Units=GPa)
#
#
# Indices 1 2 3 4 5 6 
#
# 1 131.8036 34.0246 29.4436 0.0000 0.0000 0.0000
# 2 34.0246 69.9671 0.8893 0.0000 0.0000 0.0000
# 3 29.4436 0.8893 53.5719 0.0000 0.0000 0.0000
# 4 0.0000 0.0000 0.0000 25.2393 0.0000 0.0000
# 5 0.0000 0.0000 0.0000 0.0000 23.8526 0.0000
# 6 0.0000 0.0000 0.0000 0.0000 0.0000 20.1343
#
#
#
# Elastic Compliance Matrix: (Units=1/GPa)
#
#
# Indices 1 2 3 4 5 6 
#
# 1 0.010046 -0.004816 -0.005441 0.000000 0.000000 0.000000
# 2 -0.004816 0.016604 0.002371 0.000000 0.000000 0.000000
# 3 -0.005441 0.002371 0.021618 0.000000 0.000000 0.000000
# 4 0.000000 0.000000 0.000000 0.039621 0.000000 0.000000
# 5 0.000000 0.000000 0.000000 0.000000 0.041924 0.000000
# 6 0.000000 0.000000 0.000000 0.000000 0.000000 0.049666
#
#
# Mechanical properties :
#
#
# Convention : Reuss Voigt Hill
#
# Bulk Modulus (GPa) = 30.77324 42.67306 36.72315
# Shear Modulus (GPa) = 24.26203 26.57758 25.41980
#
# Velocity S-wave (km/s) = 3.56642 3.73273 3.65052
# Velocity P-wave (km/s) = 5.75256 6.39914 6.08444
#
# Compressibility (1/GPa) = 0.03249577
#
# Stress axis : x y z
#
# Youngs Moduli (GPa) = 99.54371 60.22525 46.25824
#
# Poissons Ratio (x) = 0.29005 0.25171
# Poissons Ratio (y) = 0.47941 -0.10969
# Poissons Ratio (z) = 0.54165 -0.14281
#
# Static dielectric constant tensor:
#      x y z
#    x 1.863210 0.000000 0.000000 
#    y 0.000000 1.752600 0.000000 
#    z 0.000000 0.000000 1.806470 
# 
# From -- ./inp_files/44019.got.cif
#   From: 2010.05.17/outbox.cif.g08.bks.cpg/sg64_23_cif.got.tgz:44019.got - 2010.06.03 16:29:19.
