data_PCOD9478632
_publ_section_title
;
Structure prediction by ZEFSAII (Michael W. Deem and Ramdas Pophale) SiO2 
 PCOD9478632
Probable space group: C M C A
;
_chemical_formula_sum "Si O2"
_cell_formula_units_Z 112
_cell_length_a 18.130246
_cell_length_b 30.464630
_cell_length_c 11.516111
_cell_angle_alpha 90.000000
_cell_angle_beta 90.000000
_cell_angle_gamma 90.000000
_cell_volume 6360.707825
_symmetry_space_group_name_H-M "C M C A"
_symmetry_group_IT_number 64
_symmetry_cell_setting 'orthorhombic'
loop_
_space_group_symop_operation_xyz
x,y,z
-x,1/2-y,1/2+z
x,-y,-z
-x,1/2+y,1/2-z
-x,-y,-z
x,1/2+y,1/2-z
-x,y,z
x,1/2-y,1/2+z
1/2+x,1/2+y,z
1/2-x,-y,1/2+z
1/2+x,1/2-y,-z
1/2-x,y,1/2-z
1/2-x,1/2-y,-z
1/2+x,y,1/2-z
1/2-x,1/2+y,z
1/2+x,-y,1/2+z
loop_
_atom_site_type_symbol
_atom_site_label
_atom_site_fract_x
_atom_site_fract_y
_atom_site_fract_z
Si Si1 0.338158 0.329801 0.062065
Si Si2 0.412573 0.456871 0.433446
Si Si3 0.664031 0.669695 0.214371
Si Si4 0.664977 0.820657 0.090431
Si Si5 0.912966 0.126630 0.399607
Si Si6 0.588093 0.260419 0.233326
Si Si7 0.835813 0.403422 0.258021
O O1 0.252851 0.315571 0.084439
O O2 0.386361 0.293119 0.129316
O O3 0.350211 0.378826 0.118241
O O4 0.346964 0.330670 0.924031
O O5 0.383124 0.500000 0.500000
O O6 0.500000 0.462779 0.415755
O O7 0.402146 0.417394 0.525748
O O8 0.379801 0.441987 0.308379
O O9 0.750000 0.670654 0.250000
O O10 0.624886 0.627997 0.274478
O O11 0.623782 0.712566 0.266185
O O12 0.622127 0.781151 0.149129
O O13 0.652122 0.861565 0.175515
O O14 0.629099 0.835784 0.971681
O O15 0.000000 0.135156 0.392384
O O16 0.500000 0.258499 0.236435
O O17 0.750000 0.415584 0.250000
#
# Coordination Sequence:
#
# PCOD9478632 Si02
#       7
#    16  16  16  16  16  16  16
#     4  10  21  38  56  78 108 150 194 240 285 342
#     4   9  18  35  62  90 114 143 181 227 279 342
#     4  12  24  37  54  77 109 155 192 233 285 343
#     4   9  17  36  58  78 100 145 189 235 280 335
#     4  10  20  35  56  82 110 141 185 235 282 333
#     4  11  24  36  51  78 112 146 194 247 286 326
#     4   8  16  32  58  83 111 138 179 229 279 329
#
# _framework density 17.608103
#
# number of rings (size 3 to 8) (size 9 to 14) (size 15 to 20)
#    0.000    2.143    1.429    3.000    2.000    5.714 
#    0.000    0.714    0.000    0.000    0.000    3.000 
#    0.000    0.000    0.000    0.000    0.000    0.000 
#
# Total GULP energy -311860.454143 kJ/mol
# GULP energy per Si atom -5568.936681 kJ/mol
# Density = 1.756803 g / cm^3
# Si number density = 17.608103 Si / 1000 Ang^3
#
#
#
# Elastic Constant Matrix: (Units=GPa)
#
#
# Indices 1 2 3 4 5 6 
#
# 1 81.7885 51.1785 31.9561 0.0000 0.0000 0.0000
# 2 51.1785 45.3634 29.3321 0.0000 0.0000 0.0000
# 3 31.9561 29.3321 110.7573 0.0000 0.0000 0.0000
# 4 0.0000 0.0000 0.0000 18.8006 0.0000 0.0000
# 5 0.0000 0.0000 0.0000 0.0000 18.2608 0.0000
# 6 0.0000 0.0000 0.0000 0.0000 0.0000 13.5910
#
#
#
# Elastic Compliance Matrix: (Units=1/GPa)
#
#
# Indices 1 2 3 4 5 6 
#
# 1 0.041605 -0.047272 0.000515 0.000000 0.000000 0.000000
# 2 -0.047272 0.080309 -0.007629 0.000000 0.000000 0.000000
# 3 0.000515 -0.007629 0.010901 0.000000 0.000000 0.000000
# 4 0.000000 0.000000 0.000000 0.053190 0.000000 0.000000
# 5 0.000000 0.000000 0.000000 0.000000 0.054762 0.000000
# 6 0.000000 0.000000 0.000000 0.000000 0.000000 0.073578
#
#
# Mechanical properties :
#
#
# Convention : Reuss Voigt Hill
#
# Bulk Modulus (GPa) = 41.59278 51.42694 46.50986
# Shear Modulus (GPa) = 11.59742 18.49333 15.04537
#
# Velocity S-wave (km/s) = 2.56918 3.24431 2.92628
# Velocity P-wave (km/s) = 5.69856 6.58057 6.15538
#
# Compressibility (1/GPa) = 0.02404263
#
# Stress axis : x y z
#
# Youngs Moduli (GPa) = 24.03542 12.45196 91.73744
#
# Poissons Ratio (x) = 0.58862 -0.04724
# Poissons Ratio (y) = 1.13619 0.69989
# Poissons Ratio (z) = -0.01238 0.09500
#
# Static dielectric constant tensor:
#      x y z
#    x 1.597460 0.000000 0.000000 
#    y 0.000000 1.632130 0.000000 
#    z 0.000000 0.000000 1.585830 
# 
# From -- ./inp_files/14981.got.cif
#   From: 2010.05.17/outbox.cif.g08.bks.cpg/sg64_8_cif.got.tgz:14981.got - 2010.06.03 16:29:19.
