data_PCOD9478174
_publ_section_title
;
Structure prediction by ZEFSAII (Michael W. Deem and Ramdas Pophale) SiO2 
 PCOD9478174
Probable space group: C M C A
;
_chemical_formula_sum "Si O2"
_cell_formula_units_Z 80
_cell_length_a 14.910198
_cell_length_b 10.558031
_cell_length_c 23.455422
_cell_angle_alpha 90.000000
_cell_angle_beta 90.000000
_cell_angle_gamma 90.000000
_cell_volume 3692.407246
_symmetry_space_group_name_H-M "C M C A"
_symmetry_group_IT_number 64
_symmetry_cell_setting 'orthorhombic'
loop_
_space_group_symop_operation_xyz
x,y,z
-x,1/2-y,1/2+z
x,-y,-z
-x,1/2+y,1/2-z
-x,-y,-z
x,1/2+y,1/2-z
-x,y,z
x,1/2-y,1/2+z
1/2+x,1/2+y,z
1/2-x,-y,1/2+z
1/2+x,1/2-y,-z
1/2-x,y,1/2-z
1/2-x,1/2-y,-z
1/2+x,y,1/2-z
1/2-x,1/2+y,z
1/2+x,-y,1/2+z
loop_
_atom_site_type_symbol
_atom_site_label
_atom_site_fract_x
_atom_site_fract_y
_atom_site_fract_z
Si Si1 0.348070 0.214092 0.479184
Si Si2 0.500000 0.603367 0.950571
Si Si3 0.000000 0.593055 0.947883
Si Si4 0.000000 0.574533 0.343107
Si Si5 0.000000 0.871487 0.330808
Si Si6 0.691163 0.400537 0.859882
Si Si7 0.700698 0.124574 0.809975
O O1 0.250000 0.250000 0.500000
O O2 0.409101 0.177030 0.533720
O O3 0.408553 0.325987 0.452931
O O4 0.336664 0.113677 0.426882
O O5 0.500000 0.533028 0.891383
O O6 0.500000 0.500000 0.000000
O O7 0.000000 0.535785 0.885038
O O8 0.000000 0.500000 0.000000
O O9 0.000000 0.726700 0.355987
O O10 0.102458 0.564215 0.322002
O O11 0.093826 0.885622 0.299876
O O12 0.719318 0.259742 0.840357
O O13 0.763649 0.508342 0.848250
O O14 0.750000 0.121494 0.750000
#
# Coordination Sequence:
#
# PCOD9478174 Si02
#       7
#    16   8   8   8   8  16  16
#     4  11  24  37  60  98 136 180 215 278 325 405
#     4  11  19  36  59  86 129 176 228 238 319 405
#     4  11  22  41  62  94 135 186 220 261 346 407
#     4  10  19  40  64  88 133 182 210 275 329 400
#     4  10  22  47  65  94 142 173 220 299 351 404
#     4  11  23  43  67  97 135 173 230 284 348 407
#     4  11  25  46  72  96 127 177 231 289 355 415
#
# _framework density 21.666081999999999
#
# number of rings (size 3 to 8) (size 9 to 14) (size 15 to 20)
#    0.000    1.200    6.000    0.600    5.600    1.600 
#    0.000    4.000    0.000    0.000    0.000    0.000 
#    0.000    0.000    0.000    0.000    0.000    0.000 
#
# Total GULP energy -222936.992272 kJ/mol
# GULP energy per Si atom -5573.424807 kJ/mol
# Density = 2.161677 g / cm^3
# Si number density = 21.666082 Si / 1000 Ang^3
#
#
#
# Elastic Constant Matrix: (Units=GPa)
#
#
# Indices 1 2 3 4 5 6 
#
# 1 203.9463 62.1610 38.3047 0.0000 0.0000 0.0000
# 2 62.1610 90.6297 33.9077 0.0000 0.0000 0.0000
# 3 38.3047 33.9077 79.1149 0.0000 0.0000 0.0000
# 4 0.0000 0.0000 0.0000 28.0675 0.0000 0.0000
# 5 0.0000 0.0000 0.0000 0.0000 21.3342 0.0000
# 6 0.0000 0.0000 0.0000 0.0000 0.0000 29.2000
#
#
#
# Elastic Compliance Matrix: (Units=1/GPa)
#
#
# Indices 1 2 3 4 5 6 
#
# 1 0.006333 -0.003807 -0.001435 0.000000 0.000000 0.000000
# 2 -0.003807 0.015430 -0.004770 0.000000 0.000000 0.000000
# 3 -0.001435 -0.004770 0.015379 0.000000 0.000000 0.000000
# 4 0.000000 0.000000 0.000000 0.035628 0.000000 0.000000
# 5 0.000000 0.000000 0.000000 0.000000 0.046873 0.000000
# 6 0.000000 0.000000 0.000000 0.000000 0.000000 0.034247
#
#
# Mechanical properties :
#
#
# Convention : Reuss Voigt Hill
#
# Bulk Modulus (GPa) = 58.41579 71.38198 64.89889
# Shear Modulus (GPa) = 27.83684 31.67483 29.75583
#
# Velocity S-wave (km/s) = 3.58832 3.82770 3.70994
# Velocity P-wave (km/s) = 6.64744 7.24934 6.95490
#
# Compressibility (1/GPa) = 0.01711866
#
# Stress axis : x y z
#
# Youngs Moduli (GPa) = 157.90247 64.81080 65.02511
#
# Poissons Ratio (x) = 0.24673 0.09329
# Poissons Ratio (y) = 0.60113 0.31015
# Poissons Ratio (z) = 0.22653 0.30913
#
# Static dielectric constant tensor:
#      x y z
#    x 1.833410 0.000000 0.000000 
#    y 0.000000 1.664590 0.000000 
#    z 0.000000 0.000000 1.814310 
# 
# From -- ./inp_files/45018.got.cif
#   From: 2010.05.17/outbox.cif.g08.bks.cpg/sg64_23_cif.got.tgz:45018.got - 2010.06.03 16:29:19.
