data_PCOD9478539
_publ_section_title
;
Structure prediction by ZEFSAII (Michael W. Deem and Ramdas Pophale) SiO2 
 PCOD9478539
Probable space group: C M C A
;
_chemical_formula_sum "Si O2"
_cell_formula_units_Z 96
_cell_length_a 8.920668
_cell_length_b 20.962670
_cell_length_c 28.771286
_cell_angle_alpha 90.000000
_cell_angle_beta 90.000000
_cell_angle_gamma 90.000000
_cell_volume 5380.259813
_symmetry_space_group_name_H-M "C M C A"
_symmetry_group_IT_number 64
_symmetry_cell_setting 'orthorhombic'
loop_
_space_group_symop_operation_xyz
x,y,z
-x,1/2-y,1/2+z
x,-y,-z
-x,1/2+y,1/2-z
-x,-y,-z
x,1/2+y,1/2-z
-x,y,z
x,1/2-y,1/2+z
1/2+x,1/2+y,z
1/2-x,-y,1/2+z
1/2+x,1/2-y,-z
1/2-x,y,1/2-z
1/2-x,1/2-y,-z
1/2+x,y,1/2-z
1/2-x,1/2+y,z
1/2+x,-y,1/2+z
loop_
_atom_site_type_symbol
_atom_site_label
_atom_site_fract_x
_atom_site_fract_y
_atom_site_fract_z
Si Si1 0.820060 0.373161 0.545399
Si Si2 0.319999 0.751244 0.607605
Si Si3 0.178542 0.298673 0.799131
Si Si4 0.679389 0.501998 0.107227
Si Si5 0.820454 0.880729 0.443682
Si Si6 0.320769 0.550457 0.299359
O O1 0.776509 0.310123 0.574181
O O2 0.786160 0.435535 0.576103
O O3 0.738756 0.376504 0.496193
O O4 0.000000 0.371329 0.537890
O O5 0.500000 0.754392 0.613596
O O6 0.243752 0.760768 0.657315
O O7 0.282279 0.684638 0.583212
O O8 0.250000 0.279294 0.750000
O O9 0.214411 0.374058 0.806081
O O10 0.000000 0.292370 0.796869
O O11 0.500000 0.497136 0.111095
O O12 0.745682 0.440399 0.081977
O O13 0.751121 0.512653 0.157690
O O14 0.000000 0.887827 0.443660
O O15 0.500000 0.543435 0.298154
O O16 0.250000 0.531483 0.250000
#
# Coordination Sequence:
#
# PCOD9478539 Si02
#       6
#    16  16  16  16  16  16
#     4  10  21  38  60  83 110 150 197 238 282 335
#     4  10  21  39  59  83 116 152 190 235 284 336
#     4  10  20  34  58  88 116 147 185 233 282 335
#     4  11  22  38  60  84 115 153 191 235 285 337
#     4  11  24  38  56  83 118 154 190 237 287 338
#     4  10  20  35  58  88 117 146 186 233 283 336
#
# _framework density 17.843004000000001
#
# number of rings (size 3 to 8) (size 9 to 14) (size 15 to 20)
#    0.000    1.667    1.667    3.000    0.000    6.667 
#    0.000    0.833    0.000    4.000    0.000    0.000 
#    0.000    0.000    0.000    0.000    0.000    0.000 
#
# Total GULP energy -268251.628377 kJ/mol
# GULP energy per Si atom -5588.575591 kJ/mol
# Density = 1.780239 g / cm^3
# Si number density = 17.843004 Si / 1000 Ang^3
#
#
#
# Elastic Constant Matrix: (Units=GPa)
#
#
# Indices 1 2 3 4 5 6 
#
# 1 46.9880 51.1372 65.1552 0.0000 0.0000 0.0000
# 2 51.1372 109.7727 65.4648 0.0000 0.0000 0.0000
# 3 65.1552 65.4648 172.2106 0.0000 0.0000 0.0000
# 4 0.0000 0.0000 0.0000 -28.1224 0.0000 0.0000
# 5 0.0000 0.0000 0.0000 0.0000 41.5926 0.0000
# 6 0.0000 0.0000 0.0000 0.0000 0.0000 27.1496
#
#
#
# Elastic Compliance Matrix: (Units=1/GPa)
#
#
# Indices 1 2 3 4 5 6 
#
# 1 0.070693 -0.021960 -0.018398 0.000000 0.000000 0.000000
# 2 -0.021960 0.018602 0.001237 0.000000 0.000000 0.000000
# 3 -0.018398 0.001237 0.012298 0.000000 0.000000 0.000000
# 4 0.000000 0.000000 0.000000 -0.035559 0.000000 0.000000
# 5 0.000000 0.000000 0.000000 0.000000 0.024043 0.000000
# 6 0.000000 0.000000 0.000000 0.000000 0.000000 0.036833
#
#
# Mechanical properties :
#
#
# Convention : Reuss Voigt Hill
#
# Bulk Modulus (GPa) = 42.82685 76.94284 59.88485
# Shear Modulus (GPa) = 23.48137 17.93825 20.70981
#
# Velocity S-wave (km/s) = 3.63161 3.17415 3.41055
# Velocity P-wave (km/s) = 6.45282 7.52658 7.01029
#
# Compressibility (1/GPa) = 0.02334984
#
# Stress axis : x y z
#
# Youngs Moduli (GPa) = 14.14572 53.75796 81.31669
#
# Poissons Ratio (x) = 1.18051 1.49610
# Poissons Ratio (y) = 0.31064 -0.10059
# Poissons Ratio (z) = 0.26026 -0.06650
#
# Static dielectric constant tensor:
#      x y z
#    x 1.593390 0.000000 0.000000 
#    y 0.000000 1.592670 0.000000 
#    z 0.000000 0.000000 1.572030 
# 
# From -- ./inp_files/48026.got.cif
#   From: 2010.05.17/outbox.cif.g08.bks.cpg/sg64_25_cif.got.tgz:48026.got - 2010.06.03 16:29:19.
