data_PCOD9478079
_publ_section_title
;
Structure prediction by ZEFSAII (Michael W. Deem and Ramdas Pophale) SiO2 
 PCOD9478079
Probable space group: C M C A
;
_chemical_formula_sum "Si O2"
_cell_formula_units_Z 64
_cell_length_a 15.237128
_cell_length_b 9.156191
_cell_length_c 21.067192
_cell_angle_alpha 90.000000
_cell_angle_beta 90.000000
_cell_angle_gamma 90.000000
_cell_volume 2939.169368
_symmetry_space_group_name_H-M "C M C A"
_symmetry_group_IT_number 64
_symmetry_cell_setting 'orthorhombic'
loop_
_space_group_symop_operation_xyz
x,y,z
-x,1/2-y,1/2+z
x,-y,-z
-x,1/2+y,1/2-z
-x,-y,-z
x,1/2+y,1/2-z
-x,y,z
x,1/2-y,1/2+z
1/2+x,1/2+y,z
1/2-x,-y,1/2+z
1/2+x,1/2-y,-z
1/2-x,y,1/2-z
1/2-x,1/2-y,-z
1/2+x,y,1/2-z
1/2-x,1/2+y,z
1/2+x,-y,1/2+z
loop_
_atom_site_type_symbol
_atom_site_label
_atom_site_fract_x
_atom_site_fract_y
_atom_site_fract_z
Si Si1 0.190454 0.393413 0.810047
Si Si2 0.650259 0.000000 0.000000
Si Si3 0.000000 0.635549 0.079551
Si Si4 0.500000 0.764078 0.793824
Si Si5 0.190436 0.812939 0.382857
Si Si6 0.500000 0.677220 0.651810
O O1 0.250000 0.365829 0.750000
O O2 0.193977 0.561288 0.829468
O O3 0.234029 0.301359 0.867173
O O4 0.093119 0.345825 0.791347
O O5 0.699780 0.099714 0.948869
O O6 0.585293 0.887370 0.963292
O O7 0.000000 0.769339 0.129405
O O8 0.000000 0.515659 0.879109
O O9 0.500000 0.670977 0.728715
O O10 0.090703 0.752078 0.374085
#
# Coordination Sequence:
#
# PCOD9478079 Si02
#       6
#    16   8   8   8  16   8
#     4  12  24  40  62  94 126 159 206 259 317 369
#     4   9  18  38  64  83 124 166 216 243 294 381
#     4   9  18  36  62  91 115 168 210 242 307 377
#     4  12  21  39  62  89 124 161 198 262 305 370
#     4  11  23  40  63  95 122 166 209 254 307 369
#     4  10  19  37  60  87 120 161 197 250 308 368
#
# _framework density 21.774861000000001
#
# number of rings (size 3 to 8) (size 9 to 14) (size 15 to 20)
#    0.000    1.250    7.500    1.500    0.000    1.000 
#    0.000    0.000    0.000    0.750    0.000    0.000 
#    0.000    0.000    0.000    0.000    0.000    0.000 
#
# Total GULP energy -178406.543345 kJ/mol
# GULP energy per Si atom -5575.204480 kJ/mol
# Density = 2.172530 g / cm^3
# Si number density = 21.774861 Si / 1000 Ang^3
#
#
#
# Elastic Constant Matrix: (Units=GPa)
#
#
# Indices 1 2 3 4 5 6 
#
# 1 133.3553 27.1478 10.8507 0.0000 0.0000 0.0000
# 2 27.1478 37.1064 2.8925 0.0000 0.0000 0.0000
# 3 10.8507 2.8925 104.1285 0.0000 0.0000 0.0000
# 4 0.0000 0.0000 0.0000 42.4342 0.0000 0.0000
# 5 0.0000 0.0000 0.0000 0.0000 25.4432 0.0000
# 6 0.0000 0.0000 0.0000 0.0000 0.0000 2.7313
#
#
#
# Elastic Compliance Matrix: (Units=1/GPa)
#
#
# Indices 1 2 3 4 5 6 
#
# 1 0.008868 -0.006430 -0.000746 0.000000 0.000000 0.000000
# 2 -0.006430 0.031670 -0.000210 0.000000 0.000000 0.000000
# 3 -0.000746 -0.000210 0.009687 0.000000 0.000000 0.000000
# 4 0.000000 0.000000 0.000000 0.023566 0.000000 0.000000
# 5 0.000000 0.000000 0.000000 0.000000 0.039303 0.000000
# 6 0.000000 0.000000 0.000000 0.000000 0.000000 0.366129
#
#
# Mechanical properties :
#
#
# Convention : Reuss Voigt Hill
#
# Bulk Modulus (GPa) = 28.20476 39.59691 33.90084
# Shear Modulus (GPa) = 9.88508 29.70169 19.79339
#
# Velocity S-wave (km/s) = 2.13296 3.69729 3.01824
# Velocity P-wave (km/s) = 4.36429 6.03745 5.26773
#
# Compressibility (1/GPa) = 0.03545500
#
# Stress axis : x y z
#
# Youngs Moduli (GPa) = 112.75921 31.57524 103.23081
#
# Poissons Ratio (x) = 0.20304 0.07696
# Poissons Ratio (y) = 0.72507 0.02165
# Poissons Ratio (z) = 0.08406 0.00662
#
# Static dielectric constant tensor:
#      x y z
#    x 1.858750 0.000000 0.000000 
#    y 0.000000 1.776110 0.000000 
#    z 0.000000 0.000000 1.895460 
# 
# From -- ./inp_files/31715.got.cif
#   From: 2010.05.17/outbox.cif.g08.bks.cpg/sg64_16_cif.got.tgz:31715.got - 2010.06.03 16:29:19.
