data_PCOD9478240
_publ_section_title
;
Structure prediction by ZEFSAII (Michael W. Deem and Ramdas Pophale) SiO2 
 PCOD9478240
Probable space group: C M C A
;
_chemical_formula_sum "Si O2"
_cell_formula_units_Z 96
_cell_length_a 32.659320
_cell_length_b 8.649530
_cell_length_c 18.860106
_cell_angle_alpha 90.000000
_cell_angle_beta 90.000000
_cell_angle_gamma 90.000000
_cell_volume 5327.749250
_symmetry_space_group_name_H-M "C M C A"
_symmetry_group_IT_number 64
_symmetry_cell_setting 'orthorhombic'
loop_
_space_group_symop_operation_xyz
x,y,z
-x,1/2-y,1/2+z
x,-y,-z
-x,1/2+y,1/2-z
-x,-y,-z
x,1/2+y,1/2-z
-x,y,z
x,1/2-y,1/2+z
1/2+x,1/2+y,z
1/2-x,-y,1/2+z
1/2+x,1/2-y,-z
1/2-x,y,1/2-z
1/2-x,1/2-y,-z
1/2+x,y,1/2-z
1/2-x,1/2+y,z
1/2+x,-y,1/2+z
loop_
_atom_site_type_symbol
_atom_site_label
_atom_site_fract_x
_atom_site_fract_y
_atom_site_fract_z
Si Si1 0.289192 0.931142 0.421290
Si Si2 0.955073 0.565430 0.341653
Si Si3 0.872801 0.587477 0.177688
Si Si4 0.129759 0.543440 0.663695
Si Si5 0.455446 0.567580 0.682779
Si Si6 0.703233 0.061305 0.079722
O O1 0.328506 0.988235 0.378027
O O2 0.290577 0.745773 0.423843
O O3 0.291500 0.000000 0.500000
O O4 0.245234 0.985582 0.392275
O O5 0.911939 0.513750 0.374714
O O6 0.952210 0.748395 0.326040
O O7 0.955631 0.476110 0.266147
O O8 0.000000 0.536616 0.375487
O O9 0.873874 0.772457 0.173933
O O10 0.867767 0.535735 0.259193
O O11 0.915977 0.517243 0.151869
O O12 0.835214 0.529346 0.130158
O O13 0.500000 0.517847 0.654180
O O14 0.696093 0.000000 0.000000
#
# Coordination Sequence:
#
# PCOD9478240 Si02
#       6
#    16  16  16  16  16  16
#     4  10  21  36  54  74  96 127 165 201 242 292
#     4   9  16  26  43  68  97 129 162 196 237 284
#     4  10  20  32  49  75 102 129 162 200 243 287
#     4  10  20  32  49  75 102 129 162 200 243 287
#     4   9  16  26  43  68  97 129 162 196 237 284
#     4  10  21  36  54  74  96 127 165 201 242 292
#
# _framework density 18.018865999999999
#
# number of rings (size 3 to 8) (size 9 to 14) (size 15 to 20)
#    0.000    2.333    0.000    6.000    0.000    8.000 
#    0.000    3.333    0.000    1.000    0.000    0.000 
#    0.000    0.000    0.000    0.000    0.000    0.000 
#
# Total GULP energy -267547.998022 kJ/mol
# GULP energy per Si atom -5573.916625 kJ/mol
# Density = 1.797785 g / cm^3
# Si number density = 18.018866 Si / 1000 Ang^3
#
#
#
# Elastic Constant Matrix: (Units=GPa)
#
#
# Indices 1 2 3 4 5 6 
#
# 1 162.1710 13.0367 31.0326 0.0000 0.0000 0.0000
# 2 13.0367 25.9431 -0.9038 0.0000 0.0000 0.0000
# 3 31.0326 -0.9038 16.6937 0.0000 0.0000 0.0000
# 4 0.0000 0.0000 0.0000 16.2004 0.0000 0.0000
# 5 0.0000 0.0000 0.0000 0.0000 -17.9417 0.0000
# 6 0.0000 0.0000 0.0000 0.0000 0.0000 77.1650
#
#
#
# Elastic Compliance Matrix: (Units=1/GPa)
#
#
# Indices 1 2 3 4 5 6 
#
# 1 0.010404 -0.005913 -0.019660 0.000000 0.000000 0.000000
# 2 -0.005913 0.041979 0.013265 0.000000 0.000000 0.000000
# 3 -0.019660 0.013265 0.097168 0.000000 0.000000 0.000000
# 4 0.000000 0.000000 0.000000 0.061727 0.000000 0.000000
# 5 0.000000 0.000000 0.000000 0.000000 -0.055736 0.000000
# 6 0.000000 0.000000 0.000000 0.000000 0.000000 0.012959
#
#
# Mechanical properties :
#
#
# Convention : Reuss Voigt Hill
#
# Bulk Modulus (GPa) = 8.00421 32.34874 20.17648
# Shear Modulus (GPa) = 21.29807 25.86089 23.57948
#
# Velocity S-wave (km/s) = 3.44173 3.79253 3.62138
# Velocity P-wave (km/s) = 4.49953 6.09667 5.35795
#
# Compressibility (1/GPa) = 0.12493431
#
# Stress axis : x y z
#
# Youngs Moduli (GPa) = 96.11897 23.82126 10.29142
#
# Poissons Ratio (x) = 0.14085 0.20233
# Poissons Ratio (y) = 0.56834 -0.13651
# Poissons Ratio (z) = 1.88971 -0.31598
#
# Static dielectric constant tensor:
#      x y z
#    x 1.690140 0.000000 0.000000 
#    y 0.000000 1.606440 0.000000 
#    z 0.000000 0.000000 1.587070 
# 
# From -- ./inp_files/46838.got.cif
#   From: 2010.05.17/outbox.cif.g08.bks.cpg/sg64_24_cif.got.tgz:46838.got - 2010.06.03 16:29:19.
