data_PCOD9478218
_publ_section_title
;
Structure prediction by ZEFSAII (Michael W. Deem and Ramdas Pophale) SiO2 
 PCOD9478218
Probable space group: C M C A
;
_chemical_formula_sum "Si O2"
_cell_formula_units_Z 104
_cell_length_a 21.003042
_cell_length_b 14.872797
_cell_length_c 17.687696
_cell_angle_alpha 90.000000
_cell_angle_beta 90.000000
_cell_angle_gamma 90.000000
_cell_volume 5525.175997
_symmetry_space_group_name_H-M "C M C A"
_symmetry_group_IT_number 64
_symmetry_cell_setting 'orthorhombic'
loop_
_space_group_symop_operation_xyz
x,y,z
-x,1/2-y,1/2+z
x,-y,-z
-x,1/2+y,1/2-z
-x,-y,-z
x,1/2+y,1/2-z
-x,y,z
x,1/2-y,1/2+z
1/2+x,1/2+y,z
1/2-x,-y,1/2+z
1/2+x,1/2-y,-z
1/2-x,y,1/2-z
1/2-x,1/2-y,-z
1/2+x,y,1/2-z
1/2-x,1/2+y,z
1/2+x,-y,1/2+z
loop_
_atom_site_type_symbol
_atom_site_label
_atom_site_fract_x
_atom_site_fract_y
_atom_site_fract_z
Si Si1 0.500000 0.900739 0.857696
Si Si2 0.314304 0.799852 0.289313
Si Si3 0.864370 0.519974 0.756521
Si Si4 0.500000 0.584314 0.721621
Si Si5 0.869940 0.052499 0.421918
Si Si6 0.237451 0.199232 0.423061
Si Si7 0.136464 0.668671 0.324048
Si Si8 0.000000 0.298180 0.692551
O O1 0.567281 0.887593 0.900363
O O2 0.500000 0.849130 0.776043
O O3 0.500000 0.009846 0.845605
O O4 0.250000 0.766833 0.250000
O O5 0.319526 0.905126 0.278377
O O6 0.306784 0.765003 0.372836
O O7 0.365388 0.748464 0.238557
O O8 0.935122 0.556041 0.736970
O O9 0.859448 0.510414 0.847527
O O10 0.852033 0.423143 0.721397
O O11 0.500000 0.689202 0.700597
O O12 0.805769 0.110698 0.431053
O O13 0.881912 0.000000 0.500000
O O14 0.250000 0.250000 0.500000
O O15 0.305948 0.182126 0.382664
O O16 0.063663 0.670537 0.351305
#
# Coordination Sequence:
#
# PCOD9478218 Si02
#       8
#     8  16  16   8  16  16  16   8
#     4  10  21  42  60  99 132 164 214 272 327 398
#     4  10  22  36  62  89 121 164 213 263 316 384
#     4  11  21  38  62  95 122 164 219 261 319 384
#     4  10  20  31  61  94 122 153 209 266 323 374
#     4  11  24  39  63  93 137 171 209 269 331 388
#     4  11  26  43  59  94 136 170 216 272 329 394
#     4  11  22  40  65  92 128 168 217 268 324 388
#     4  12  18  37  65  93 130 166 211 278 325 382
#
# _framework density 18.822929999999999
#
# number of rings (size 3 to 8) (size 9 to 14) (size 15 to 20)
#    0.000    1.231    6.154    0.231    6.462    0.000 
#    0.000    0.769    0.000    0.000    0.000    2.692 
#    0.000    0.000    0.000    0.000    0.000    0.000 
#
# Total GULP energy -289608.258866 kJ/mol
# GULP energy per Si atom -5569.389594 kJ/mol
# Density = 1.878009 g / cm^3
# Si number density = 18.822930 Si / 1000 Ang^3
#
#
#
# Elastic Constant Matrix: (Units=GPa)
#
#
# Indices 1 2 3 4 5 6 
#
# 1 122.4583 12.5167 36.5366 0.0000 0.0000 0.0000
# 2 12.5167 88.3845 22.0927 0.0000 0.0000 0.0000
# 3 36.5366 22.0927 66.9282 0.0000 0.0000 0.0000
# 4 0.0000 0.0000 0.0000 27.8917 0.0000 0.0000
# 5 0.0000 0.0000 0.0000 0.0000 14.9273 0.0000
# 6 0.0000 0.0000 0.0000 0.0000 0.0000 33.7882
#
#
#
# Elastic Compliance Matrix: (Units=1/GPa)
#
#
# Indices 1 2 3 4 5 6 
#
# 1 0.009755 -0.000055 -0.005307 0.000000 0.000000 0.000000
# 2 -0.000055 0.012332 -0.004041 0.000000 0.000000 0.000000
# 3 -0.005307 -0.004041 0.019173 0.000000 0.000000 0.000000
# 4 0.000000 0.000000 0.000000 0.035853 0.000000 0.000000
# 5 0.000000 0.000000 0.000000 0.000000 0.066991 0.000000
# 6 0.000000 0.000000 0.000000 0.000000 0.000000 0.029596
#
#
# Mechanical properties :
#
#
# Convention : Reuss Voigt Hill
#
# Bulk Modulus (GPa) = 44.53594 46.67366 45.60480
# Shear Modulus (GPa) = 25.00120 29.09645 27.04883
#
# Velocity S-wave (km/s) = 3.64844 3.93593 3.79491
# Velocity P-wave (km/s) = 6.43895 6.74577 6.59414
#
# Compressibility (1/GPa) = 0.02245378
#
# Stress axis : x y z
#
# Youngs Moduli (GPa) = 102.51019 81.08975 52.15800
#
# Poissons Ratio (x) = 0.00445 0.27682
# Poissons Ratio (y) = 0.00562 0.21076
# Poissons Ratio (z) = 0.54405 0.32767
#
# Static dielectric constant tensor:
#      x y z
#    x 1.790570 0.000000 0.000000 
#    y 0.000000 1.657190 0.000000 
#    z 0.000000 0.000000 1.649420 
# 
# From -- ./inp_files/34388.got.cif
#   From: 2010.05.17/outbox.cif.g08.bks.cpg/sg64_18_cif.got.tgz:34388.got - 2010.06.03 16:29:19.
