data_PCOD9478198
_publ_section_title
;
Structure prediction by ZEFSAII (Michael W. Deem and Ramdas Pophale) SiO2 
 PCOD9478198
Probable space group: C M C A
;
_chemical_formula_sum "Si O2"
_cell_formula_units_Z 104
_cell_length_a 28.403025
_cell_length_b 8.603453
_cell_length_c 19.406601
_cell_angle_alpha 90.000000
_cell_angle_beta 90.000000
_cell_angle_gamma 90.000000
_cell_volume 4742.276406
_symmetry_space_group_name_H-M "C M C A"
_symmetry_group_IT_number 64
_symmetry_cell_setting 'orthorhombic'
loop_
_space_group_symop_operation_xyz
x,y,z
-x,1/2-y,1/2+z
x,-y,-z
-x,1/2+y,1/2-z
-x,-y,-z
x,1/2+y,1/2-z
-x,y,z
x,1/2-y,1/2+z
1/2+x,1/2+y,z
1/2-x,-y,1/2+z
1/2+x,1/2-y,-z
1/2-x,y,1/2-z
1/2-x,1/2-y,-z
1/2+x,y,1/2-z
1/2-x,1/2+y,z
1/2+x,-y,1/2+z
loop_
_atom_site_type_symbol
_atom_site_label
_atom_site_fract_x
_atom_site_fract_y
_atom_site_fract_z
Si Si1 0.580829 0.335349 0.157952
Si Si2 0.681892 0.244853 0.137049
Si Si3 0.247748 0.492893 0.609391
Si Si4 0.187948 0.763445 0.469410
Si Si5 0.000000 0.014661 0.223394
Si Si6 0.500000 0.746092 0.592389
Si Si7 0.500000 0.879895 0.878858
Si Si8 0.402578 0.117282 0.438419
O O1 0.629758 0.244906 0.168626
O O2 0.545591 0.402596 0.215642
O O3 0.546405 0.227851 0.110329
O O4 0.597093 0.497167 0.124036
O O5 0.710610 0.402397 0.150066
O O6 0.717235 0.107225 0.156345
O O7 0.680591 0.235421 0.052047
O O8 0.217015 0.383699 0.559239
O O9 0.282140 0.598477 0.563131
O O10 0.136609 0.748870 0.436149
O O11 0.000000 0.150777 0.164344
O O12 0.000000 0.089033 0.297257
O O13 0.500000 0.557410 0.593479
O O14 0.453390 0.806548 0.555125
O O15 0.390967 0.000000 0.500000
#
# Coordination Sequence:
#
# PCOD9478198 Si02
#       8
#    16  16  16  16   8   8   8  16
#     4  10  21  36  62  85 111 141 187 229 295 344
#     4  11  18  32  49  82 116 154 197 226 258 317
#     4  10  20  29  50  78 120 170 203 222 253 299
#     4  11  18  31  50  74 118 168 196 224 253 306
#     4   9  21  44  66  81 103 133 172 247 315 357
#     4  10  23  35  58  81 104 139 190 222 294 360
#     4  11  23  43  61  86 103 124 189 267 296 341
#     4  11  20  37  51  76 120 165 182 217 272 346
#
# _framework density 21.930395999999998
#
# number of rings (size 3 to 8) (size 9 to 14) (size 15 to 20)
#    0.000    1.538    3.077    5.308    2.154    0.000 
#    0.000    1.538    0.000    0.000    0.000    3.231 
#    0.000    0.000    0.000    0.000    0.000    0.000 
#
# Total GULP energy -290005.370575 kJ/mol
# GULP energy per Si atom -5577.026357 kJ/mol
# Density = 2.188048 g / cm^3
# Si number density = 21.930396 Si / 1000 Ang^3
#
#
#
# Elastic Constant Matrix: (Units=GPa)
#
#
# Indices 1 2 3 4 5 6 
#
# 1 176.1746 33.8261 0.7876 0.0000 0.0000 0.0000
# 2 33.8261 84.9230 -10.8622 0.0000 0.0000 0.0000
# 3 0.7876 -10.8622 19.8693 0.0000 0.0000 0.0000
# 4 0.0000 0.0000 0.0000 11.4613 0.0000 0.0000
# 5 0.0000 0.0000 0.0000 0.0000 3.1007 0.0000
# 6 0.0000 0.0000 0.0000 0.0000 0.0000 21.4476
#
#
#
# Elastic Compliance Matrix: (Units=1/GPa)
#
#
# Indices 1 2 3 4 5 6 
#
# 1 0.006200 -0.002689 -0.001716 0.000000 0.000000 0.000000
# 2 -0.002689 0.013827 0.007666 0.000000 0.000000 0.000000
# 3 -0.001716 0.007666 0.054587 0.000000 0.000000 0.000000
# 4 0.000000 0.000000 0.000000 0.087250 0.000000 0.000000
# 5 0.000000 0.000000 0.000000 0.000000 0.322507 0.000000
# 6 0.000000 0.000000 0.000000 0.000000 0.000000 0.046625
#
#
# Mechanical properties :
#
#
# Convention : Reuss Voigt Hill
#
# Bulk Modulus (GPa) = 12.32503 36.49668 24.41085
# Shear Modulus (GPa) = 9.06583 24.34960 16.70772
#
# Velocity S-wave (km/s) = 2.03541 3.33575 2.76316
# Velocity P-wave (km/s) = 3.34008 5.61378 4.61902
#
# Compressibility (1/GPa) = 0.08113572
#
# Stress axis : x y z
#
# Youngs Moduli (GPa) = 161.28584 72.32254 18.31924
#
# Poissons Ratio (x) = 0.19448 0.03143
# Poissons Ratio (y) = 0.43371 -0.14043
# Poissons Ratio (z) = 0.27674 -0.55439
#
# Static dielectric constant tensor:
#      x y z
#    x 1.834230 0.000000 0.000000 
#    y 0.000000 1.881040 0.000000 
#    z 0.000000 0.000000 1.832140 
# 
# From -- ./inp_files/41892.got.cif
#   From: 2010.05.17/outbox.cif.g08.bks.cpg/sg64_21_cif.got.tgz:41892.got - 2010.06.03 16:29:19.
