data_PCOD9478200
_publ_section_title
;
Structure prediction by ZEFSAII (Michael W. Deem and Ramdas Pophale) SiO2 
 PCOD9478200
Probable space group: C M C A
;
_chemical_formula_sum "Si O2"
_cell_formula_units_Z 56
_cell_length_a 27.541844
_cell_length_b 18.336242
_cell_length_c 5.131067
_cell_angle_alpha 90.000000
_cell_angle_beta 90.000000
_cell_angle_gamma 90.000000
_cell_volume 2591.260243
_symmetry_space_group_name_H-M "C M C A"
_symmetry_group_IT_number 64
_symmetry_cell_setting 'orthorhombic'
loop_
_space_group_symop_operation_xyz
x,y,z
-x,1/2-y,1/2+z
x,-y,-z
-x,1/2+y,1/2-z
-x,-y,-z
x,1/2+y,1/2-z
-x,y,z
x,1/2-y,1/2+z
1/2+x,1/2+y,z
1/2-x,-y,1/2+z
1/2+x,1/2-y,-z
1/2-x,y,1/2-z
1/2-x,1/2-y,-z
1/2+x,y,1/2-z
1/2-x,1/2+y,z
1/2+x,-y,1/2+z
loop_
_atom_site_type_symbol
_atom_site_label
_atom_site_fract_x
_atom_site_fract_y
_atom_site_fract_z
Si Si1 0.302870 0.552815 0.750172
Si Si2 0.098806 0.413809 0.063500
Si Si3 0.557268 0.200025 0.284044
Si Si4 0.000000 0.551782 0.746835
O O1 0.299448 0.500000 0.500000
O O2 0.250000 0.590702 0.750000
O O3 0.350536 0.601679 0.706112
O O4 0.309512 0.500000 0.000000
O O5 0.089778 0.368496 0.801130
O O6 0.049784 0.403487 0.232936
O O7 0.100466 0.500000 0.000000
O O8 0.500000 0.178552 0.274948
O O9 0.566099 0.257494 0.049704
O O10 0.000000 0.500000 0.500000
O O11 0.000000 0.500000 0.000000
#
# Coordination Sequence:
#
# PCOD9478200 Si02
#       4
#    16  16  16   8
#     4   9  18  32  51  78 109 138 173 221 274 319
#     4  10  20  36  57  83 108 141 183 228 266 317
#     4  10  22  38  53  75 110 149 179 214 270 330
#     4  10  20  30  46  78 108 128 163 220 265 298
#
# _framework density 21.611104999999998
#
# number of rings (size 3 to 8) (size 9 to 14) (size 15 to 20)
#    0.000    2.286    1.429    0.857    0.000    9.143 
#    0.000    0.000    0.000    1.714    0.000    0.000 
#    0.000    0.000    0.000    0.000    0.000    0.000 
#
# Total GULP energy -156440.774948 kJ/mol
# GULP energy per Si atom -5587.170534 kJ/mol
# Density = 2.156192 g / cm^3
# Si number density = 21.611105 Si / 1000 Ang^3
#
#
#
# Elastic Constant Matrix: (Units=GPa)
#
#
# Indices 1 2 3 4 5 6 
#
# 1 181.3811 2.9582 4.3084 0.0000 0.0000 0.0000
# 2 2.9582 82.5063 13.6030 0.0000 0.0000 0.0000
# 3 4.3084 13.6030 118.4035 0.0000 0.0000 0.0000
# 4 0.0000 0.0000 0.0000 29.7596 0.0000 0.0000
# 5 0.0000 0.0000 0.0000 0.0000 22.4382 0.0000
# 6 0.0000 0.0000 0.0000 0.0000 0.0000 1.7646
#
#
#
# Elastic Compliance Matrix: (Units=1/GPa)
#
#
# Indices 1 2 3 4 5 6 
#
# 1 0.005520 -0.000168 -0.000182 0.000000 0.000000 0.000000
# 2 -0.000168 0.012359 -0.001414 0.000000 0.000000 0.000000
# 3 -0.000182 -0.001414 0.008615 0.000000 0.000000 0.000000
# 4 0.000000 0.000000 0.000000 0.033603 0.000000 0.000000
# 5 0.000000 0.000000 0.000000 0.000000 0.044567 0.000000
# 6 0.000000 0.000000 0.000000 0.000000 0.000000 0.566687
#
#
# Mechanical properties :
#
#
# Convention : Reuss Voigt Hill
#
# Bulk Modulus (GPa) = 43.53945 47.11447 45.32696
# Shear Modulus (GPa) = 7.32565 34.88722 21.10643
#
# Velocity S-wave (km/s) = 1.84313 4.02222 3.12853
# Velocity P-wave (km/s) = 4.97192 6.58934 5.83692
#
# Compressibility (1/GPa) = 0.02296768
#
# Stress axis : x y z
#
# Youngs Moduli (GPa) = 181.14934 80.91004 116.08018
#
# Poissons Ratio (x) = 0.01359 0.02108
# Poissons Ratio (y) = 0.03043 0.16412
# Poissons Ratio (z) = 0.03289 0.11439
#
# Static dielectric constant tensor:
#      x y z
#    x 1.900880 0.000000 0.000000 
#    y 0.000000 1.740680 0.000000 
#    z 0.000000 0.000000 1.817840 
# 
# From -- ./inp_files/2697.got.cif
#   From: 2010.05.17/outbox.cif.g08.bks.cpg/sg64_2_cif.got.tgz:2697.got - 2010.06.03 16:29:19.
