data_PCOD9478651
_publ_section_title
;
Structure prediction by ZEFSAII (Michael W. Deem and Ramdas Pophale) SiO2 
 PCOD9478651
Probable space group: C M C A
;
_chemical_formula_sum "Si O2"
_cell_formula_units_Z 104
_cell_length_a 27.416226
_cell_length_b 9.400882
_cell_length_c 20.950280
_cell_angle_alpha 90.000000
_cell_angle_beta 90.000000
_cell_angle_gamma 90.000000
_cell_volume 5399.656147
_symmetry_space_group_name_H-M "C M C A"
_symmetry_group_IT_number 64
_symmetry_cell_setting 'orthorhombic'
loop_
_space_group_symop_operation_xyz
x,y,z
-x,1/2-y,1/2+z
x,-y,-z
-x,1/2+y,1/2-z
-x,-y,-z
x,1/2+y,1/2-z
-x,y,z
x,1/2-y,1/2+z
1/2+x,1/2+y,z
1/2-x,-y,1/2+z
1/2+x,1/2-y,-z
1/2-x,y,1/2-z
1/2-x,1/2-y,-z
1/2+x,y,1/2-z
1/2-x,1/2+y,z
1/2+x,-y,1/2+z
loop_
_atom_site_type_symbol
_atom_site_label
_atom_site_fract_x
_atom_site_fract_y
_atom_site_fract_z
Si Si1 0.444217 0.535448 0.210983
Si Si2 0.345143 0.358920 0.821564
Si Si3 0.847924 0.684361 0.094412
Si Si4 0.705161 0.500000 0.500000
Si Si5 0.685233 0.041864 0.801071
Si Si6 0.555708 0.716939 0.335625
Si Si7 0.776873 0.448145 0.383177
O O1 0.500000 0.574250 0.193735
O O2 0.401825 0.605734 0.168676
O O3 0.439440 0.366055 0.202676
O O4 0.436459 0.592930 0.283038
O O5 0.327639 0.459302 0.763261
O O6 0.338105 0.197047 0.802223
O O7 0.308869 0.407860 0.877795
O O8 0.829482 0.625246 0.026701
O O9 0.835659 0.557726 0.143266
O O10 0.904346 0.716270 0.108558
O O11 0.814608 0.818730 0.112978
O O12 0.741120 0.450379 0.443603
O O13 0.741423 0.062775 0.821932
O O14 0.500000 0.706931 0.358773
#
# Coordination Sequence:
#
# PCOD9478651 Si02
#       7
#    16  16  16   8  16  16  16
#     4  10  20  35  56  85 118 151 185 223 277 345
#     4  12  21  36  55  86 118 152 187 230 288 340
#     4  11  21  40  59  82 115 151 194 245 285 342
#     4  10  24  40  61  82 107 150 202 244 296 340
#     4  11  23  34  54  85 121 153 189 226 284 349
#     4  10  20  36  59  87 117 154 187 228 285 345
#     4  11  23  40  59  81 112 151 194 240 286 346
#
# _framework density 19.260486
#
# number of rings (size 3 to 8) (size 9 to 14) (size 15 to 20)
#    0.000    1.231    3.077    4.615    0.000    2.462 
#    0.000    0.385    0.000    0.000    0.000    6.462 
#    0.000    0.000    0.000    0.000    0.000    0.000 
#
# Total GULP energy -290316.449190 kJ/mol
# GULP energy per Si atom -5583.008638 kJ/mol
# Density = 1.921665 g / cm^3
# Si number density = 19.260486 Si / 1000 Ang^3
#
#
#
# Elastic Constant Matrix: (Units=GPa)
#
#
# Indices 1 2 3 4 5 6 
#
# 1 146.3612 20.0249 42.9679 0.0000 0.0000 0.0000
# 2 20.0249 96.9269 22.6865 0.0000 0.0000 0.0000
# 3 42.9679 22.6865 42.1313 0.0000 0.0000 0.0000
# 4 0.0000 0.0000 0.0000 20.0823 0.0000 0.0000
# 5 0.0000 0.0000 0.0000 0.0000 30.2268 0.0000
# 6 0.0000 0.0000 0.0000 0.0000 0.0000 31.2086
#
#
#
# Elastic Compliance Matrix: (Units=1/GPa)
#
#
# Indices 1 2 3 4 5 6 
#
# 1 0.009763 0.000359 -0.010150 0.000000 0.000000 0.000000
# 2 0.000359 0.011818 -0.006729 0.000000 0.000000 0.000000
# 3 -0.010150 -0.006729 0.037711 0.000000 0.000000 0.000000
# 4 0.000000 0.000000 0.000000 0.049795 0.000000 0.000000
# 5 0.000000 0.000000 0.000000 0.000000 0.033083 0.000000
# 6 0.000000 0.000000 0.000000 0.000000 0.000000 0.032042
#
#
# Mechanical properties :
#
#
# Convention : Reuss Voigt Hill
#
# Bulk Modulus (GPa) = 38.09535 50.75312 44.42423
# Shear Modulus (GPa) = 23.14766 29.61953 26.38360
#
# Velocity S-wave (km/s) = 3.47049 3.92578 3.70514
# Velocity P-wave (km/s) = 5.99008 6.85253 6.43577
#
# Compressibility (1/GPa) = 0.02624992
#
# Stress axis : x y z
#
# Youngs Moduli (GPa) = 102.42577 84.61642 26.51772
#
# Poissons Ratio (x) = -0.03035 0.26916
# Poissons Ratio (y) = -0.03674 0.17845
# Poissons Ratio (z) = 1.03964 0.56942
#
# Static dielectric constant tensor:
#      x y z
#    x 1.723690 0.000000 0.000000 
#    y 0.000000 1.670470 0.000000 
#    z 0.000000 0.000000 1.709640 
# 
# From -- ./inp_files/41857.got.cif
#   From: 2010.05.17/outbox.cif.g08.bks.cpg/sg64_21_cif.got.tgz:41857.got - 2010.06.03 16:29:19.
