data_PCOD9478468
_publ_section_title
;
Structure prediction by ZEFSAII (Michael W. Deem and Ramdas Pophale) SiO2 
 PCOD9478468
Probable space group: C M C A
;
_chemical_formula_sum "Si O2"
_cell_formula_units_Z 116
_cell_length_a 7.435169
_cell_length_b 25.633662
_cell_length_c 25.906105
_cell_angle_alpha 90.000000
_cell_angle_beta 90.000000
_cell_angle_gamma 90.000000
_cell_volume 4937.460330
_symmetry_space_group_name_H-M "C M C A"
_symmetry_group_IT_number 64
_symmetry_cell_setting 'orthorhombic'
loop_
_space_group_symop_operation_xyz
x,y,z
-x,1/2-y,1/2+z
x,-y,-z
-x,1/2+y,1/2-z
-x,-y,-z
x,1/2+y,1/2-z
-x,y,z
x,1/2-y,1/2+z
1/2+x,1/2+y,z
1/2-x,-y,1/2+z
1/2+x,1/2-y,-z
1/2-x,y,1/2-z
1/2-x,1/2-y,-z
1/2+x,y,1/2-z
1/2-x,1/2+y,z
1/2+x,-y,1/2+z
loop_
_atom_site_type_symbol
_atom_site_label
_atom_site_fract_x
_atom_site_fract_y
_atom_site_fract_z
Si Si1 0.500000 0.500000 0.000000
Si Si2 0.705349 0.798201 0.343908
Si Si3 0.281265 0.911724 0.002021
Si Si4 0.283776 0.807740 0.806849
Si Si5 0.285294 0.478411 0.810789
Si Si6 0.214323 0.593436 0.689314
Si Si7 0.296877 0.888244 0.887331
Si Si8 0.287717 0.795240 0.041528
O O1 0.659851 0.459309 0.021801
O O2 0.500000 0.803631 0.325076
O O3 0.787764 0.751013 0.311651
O O4 0.787485 0.855549 0.338811
O O5 0.702835 0.782167 0.403456
O O6 0.500000 0.920289 0.006275
O O7 0.221660 0.906807 0.941650
O O8 0.237560 0.854306 0.024993
O O9 0.500000 0.806562 0.812605
O O10 0.250000 0.829915 0.750000
O O11 0.211167 0.841851 0.854176
O O12 0.500000 0.475645 0.818488
O O13 0.250000 0.469889 0.750000
O O14 0.216042 0.536242 0.824453
O O15 0.200753 0.435565 0.847270
O O16 0.250000 0.600870 0.750000
O O17 0.000000 0.590049 0.680733
O O18 0.500000 0.871496 0.900790
O O19 0.500000 0.796010 0.049489
O O20 0.250000 0.750000 0.000000
#
# Coordination Sequence:
#
# PCOD9478468 Si02
#       8
#     4  16  16  16  16  16  16  16
#     4  12  26  44  76  98 136 180 234 274 360 426
#     4  10  21  38  60  88 123 161 206 259 322 387
#     4  10  25  47  68 101 139 178 228 293 353 414
#     4  10  21  37  58  89 128 170 210 265 325 390
#     4  10  20  34  54  84 118 157 207 254 310 379
#     4   9  19  35  55  81 115 152 193 245 298 366
#     4  10  21  39  60  85 123 164 210 267 332 389
#     4  11  24  43  68  96 130 169 221 284 340 403
#
# _framework density 23.493859
#
# number of rings (size 3 to 8) (size 9 to 14) (size 15 to 20)
#    0.000    1.931    0.000    2.690    2.897    6.621 
#    2.483    1.379    0.000    0.000    0.000    0.000 
#    0.000    0.000    0.000    0.000    0.000    0.000 
#
# Total GULP energy -323471.024212 kJ/mol
# GULP energy per Si atom -5577.086624 kJ/mol
# Density = 2.344039 g / cm^3
# Si number density = 23.493859 Si / 1000 Ang^3
#
#
#
# Elastic Constant Matrix: (Units=GPa)
#
#
# Indices 1 2 3 4 5 6 
#
# 1 107.2501 10.6592 -13.5186 0.0000 0.0000 0.0000
# 2 10.6592 102.8091 3.2532 0.0000 0.0000 0.0000
# 3 -13.5186 3.2532 40.2791 0.0000 0.0000 0.0000
# 4 0.0000 0.0000 0.0000 -10.6067 0.0000 0.0000
# 5 0.0000 0.0000 0.0000 0.0000 13.8992 0.0000
# 6 0.0000 0.0000 0.0000 0.0000 0.0000 39.1383
#
#
#
# Elastic Compliance Matrix: (Units=1/GPa)
#
#
# Indices 1 2 3 4 5 6 
#
# 1 0.009865 -0.001130 0.003402 0.000000 0.000000 0.000000
# 2 -0.001130 0.009881 -0.001177 0.000000 0.000000 0.000000
# 3 0.003402 -0.001177 0.026064 0.000000 0.000000 0.000000
# 4 0.000000 0.000000 0.000000 -0.094280 0.000000 0.000000
# 5 0.000000 0.000000 0.000000 0.000000 0.071947 0.000000
# 6 0.000000 0.000000 0.000000 0.000000 0.000000 0.025550
#
#
# Mechanical properties :
#
#
# Convention : Reuss Voigt Hill
#
# Bulk Modulus (GPa) = 20.83383 27.90289 24.36836
# Shear Modulus (GPa) = 79.56950 25.14912 52.35931
#
# Velocity S-wave (km/s) = 5.82595 3.27533 4.72597
# Velocity P-wave (km/s) = 7.35817 5.11920 6.33833
#
# Compressibility (1/GPa) = 0.04799885
#
# Stress axis : x y z
#
# Youngs Moduli (GPa) = 101.36635 101.20196 38.36742
#
# Poissons Ratio (x) = 0.11441 -0.13054
# Poissons Ratio (y) = 0.11459 0.04518
# Poissons Ratio (z) = -0.34488 0.11916
#
# Static dielectric constant tensor:
#      x y z
#    x 1.947420 0.000000 0.000000 
#    y 0.000000 1.940800 0.000000 
#    z 0.000000 0.000000 1.927620 
# 
# From -- ./inp_files/48563.got.cif
#   From: 2010.05.17/outbox.cif.g08.bks.cpg/sg64_25_cif.got.tgz:48563.got - 2010.06.03 16:29:19.
