data_PCOD9478007
_publ_section_title
;
Structure prediction by ZEFSAII (Michael W. Deem and Ramdas Pophale) SiO2 
 PCOD9478007
Probable space group: C M C A
;
_chemical_formula_sum "Si O2"
_cell_formula_units_Z 80
_cell_length_a 18.865862
_cell_length_b 16.698999
_cell_length_c 12.333070
_cell_angle_alpha 90.000000
_cell_angle_beta 90.000000
_cell_angle_gamma 90.000000
_cell_volume 3885.422837
_symmetry_space_group_name_H-M "C M C A"
_symmetry_group_IT_number 64
_symmetry_cell_setting 'orthorhombic'
loop_
_space_group_symop_operation_xyz
x,y,z
-x,1/2-y,1/2+z
x,-y,-z
-x,1/2+y,1/2-z
-x,-y,-z
x,1/2+y,1/2-z
-x,y,z
x,1/2-y,1/2+z
1/2+x,1/2+y,z
1/2-x,-y,1/2+z
1/2+x,1/2-y,-z
1/2-x,y,1/2-z
1/2-x,1/2-y,-z
1/2+x,y,1/2-z
1/2-x,1/2+y,z
1/2+x,-y,1/2+z
loop_
_atom_site_type_symbol
_atom_site_label
_atom_site_fract_x
_atom_site_fract_y
_atom_site_fract_z
Si Si1 0.750000 0.655200 0.750000
Si Si2 0.000000 0.341457 0.612022
Si Si3 0.854022 0.068612 0.328643
Si Si4 0.115814 0.741337 0.250590
Si Si5 0.000000 0.012777 0.284378
Si Si6 0.500000 0.351937 0.142626
Si Si7 0.709767 0.005085 0.614218
O O1 0.814839 0.710579 0.784988
O O2 0.725448 0.594474 0.844658
O O3 0.931502 0.289658 0.648793
O O4 0.000000 0.364634 0.486447
O O5 0.000000 0.416431 0.694398
O O6 0.863436 0.163388 0.319760
O O7 0.928548 0.026174 0.353718
O O8 0.785094 0.041294 0.394551
O O9 0.834419 0.037534 0.207813
O O10 0.067503 0.799419 0.178318
O O11 0.000000 0.930956 0.217080
O O12 0.671903 0.000000 0.500000
#
# Coordination Sequence:
#
# PCOD9478007 Si02
#       7
#     8   8  16  16   8   8  16
#     4  10  20  36  56  80 106 142 182 222 264 316
#     4   9  22  37  55  81 112 143 176 218 272 317
#     4   9  20  38  54  77 112 144 174 220 272 317
#     4  10  21  37  55  79 112 144 176 220 270 317
#     4  10  19  36  59  80 108 144 179 220 263 314
#     4  11  20  35  57  83 108 141 184 222 258 317
#     4  10  21  37  57  80 106 141 183 222 265 319
#
# _framework density 20.589780000000001
#
# number of rings (size 3 to 8) (size 9 to 14) (size 15 to 20)
#    0.000    2.400    0.000    4.500    0.000    8.000 
#    0.000    3.500    0.000    0.000    0.000    0.000 
#    0.000    0.000    0.000    0.000    0.000    0.000 
#
# Total GULP energy -223363.510351 kJ/mol
# GULP energy per Si atom -5584.087759 kJ/mol
# Density = 2.054292 g / cm^3
# Si number density = 20.589780 Si / 1000 Ang^3
#
#
#
# Elastic Constant Matrix: (Units=GPa)
#
#
# Indices 1 2 3 4 5 6 
#
# 1 103.0442 37.3099 -27.6558 0.0000 0.0000 0.0000
# 2 37.3099 122.8235 -9.2229 0.0000 0.0000 0.0000
# 3 -27.6558 -9.2229 30.9447 0.0000 0.0000 0.0000
# 4 0.0000 0.0000 0.0000 -1.8427 0.0000 0.0000
# 5 0.0000 0.0000 0.0000 0.0000 -4.2731 0.0000
# 6 0.0000 0.0000 0.0000 0.0000 0.0000 -61.5562
#
#
#
# Elastic Compliance Matrix: (Units=1/GPa)
#
#
# Indices 1 2 3 4 5 6 
#
# 1 0.014027 -0.003396 0.011524 0.000000 0.000000 0.000000
# 2 -0.003396 0.009150 -0.000308 0.000000 0.000000 0.000000
# 3 0.011524 -0.000308 0.042523 0.000000 0.000000 0.000000
# 4 0.000000 0.000000 0.000000 -0.542689 0.000000 0.000000
# 5 0.000000 0.000000 0.000000 0.000000 -0.234020 0.000000
# 6 0.000000 0.000000 0.000000 0.000000 0.000000 -0.016245
#
#
# Mechanical properties :
#
#
# Convention : Reuss Voigt Hill
#
# Bulk Modulus (GPa) = 12.29372 28.63053 20.46212
# Shear Modulus (GPa) = -6.98538 3.55768 -1.71385
#
# Velocity S-wave (km/s) = -1.84391 1.31592 -0.91334
# Velocity P-wave (km/s) = 1.20433 4.03042 2.97445
#
# Compressibility (1/GPa) = 0.08134235
#
# Stress axis : x y z
#
# Youngs Moduli (GPa) = 71.29119 109.28785 23.51651
#
# Poissons Ratio (x) = 0.37110 -0.27101
# Poissons Ratio (y) = 0.24208 0.00723
# Poissons Ratio (z) = -0.82157 0.03361
#
# Static dielectric constant tensor:
#      x y z
#    x 1.790660 0.000000 0.000000 
#    y 0.000000 1.719440 0.000000 
#    z 0.000000 0.000000 1.687320 
# 
# From -- ./inp_files/25372.got.cif
#   From: 2010.05.17/outbox.cif.g08.bks.cpg/sg64_13_cif.got.tgz:25372.got - 2010.06.03 16:29:19.
