data_PCOD9478544
_publ_section_title
;
Structure prediction by ZEFSAII (Michael W. Deem and Ramdas Pophale) SiO2 
 PCOD9478544
Probable space group: C M C A
;
_chemical_formula_sum "Si O2"
_cell_formula_units_Z 88
_cell_length_a 9.152180
_cell_length_b 23.760349
_cell_length_c 20.704342
_cell_angle_alpha 90.000000
_cell_angle_beta 90.000000
_cell_angle_gamma 90.000000
_cell_volume 4502.345319
_symmetry_space_group_name_H-M "C M C A"
_symmetry_group_IT_number 64
_symmetry_cell_setting 'orthorhombic'
loop_
_space_group_symop_operation_xyz
x,y,z
-x,1/2-y,1/2+z
x,-y,-z
-x,1/2+y,1/2-z
-x,-y,-z
x,1/2+y,1/2-z
-x,y,z
x,1/2-y,1/2+z
1/2+x,1/2+y,z
1/2-x,-y,1/2+z
1/2+x,1/2-y,-z
1/2-x,y,1/2-z
1/2-x,1/2-y,-z
1/2+x,y,1/2-z
1/2-x,1/2+y,z
1/2+x,-y,1/2+z
loop_
_atom_site_type_symbol
_atom_site_label
_atom_site_fract_x
_atom_site_fract_y
_atom_site_fract_z
Si Si1 0.834333 0.824416 0.350962
Si Si2 0.826349 0.397841 0.453210
Si Si3 0.825830 0.789601 0.684013
Si Si4 0.667874 0.996346 0.365171
Si Si5 0.672862 0.383366 0.893818
Si Si6 0.750000 0.416857 0.250000
O O1 0.764062 0.850780 0.415199
O O2 0.733789 0.773154 0.328347
O O3 0.834907 0.873871 0.296992
O O4 0.000000 0.804852 0.360834
O O5 0.773296 0.457136 0.422801
O O6 0.813325 0.393853 0.529638
O O7 0.000000 0.392152 0.436929
O O8 0.750000 0.809789 0.750000
O O9 0.767491 0.830750 0.628601
O O10 0.000000 0.789649 0.689341
O O11 0.500000 0.007120 0.383040
O O12 0.673164 0.958748 0.300726
O O13 0.729311 0.059056 0.359841
O O14 0.500000 0.372876 0.879183
#
# Coordination Sequence:
#
# PCOD9478544 Si02
#       6
#    16  16  16  16  16   8
#     4  11  22  38  63  90 120 156 201 254 305 356
#     4   9  19  37  62  91 123 162 204 246 296 351
#     4  12  26  43  63  87 120 159 200 249 303 360
#     4   9  18  34  59  89 122 161 203 245 295 354
#     4  10  21  39  62  89 124 164 203 245 295 356
#     4  10  20  34  58  90 122 156 198 254 306 354
#
# _framework density 19.545369000000001
#
# number of rings (size 3 to 8) (size 9 to 14) (size 15 to 20)
#    0.000    1.818    0.909    3.273    1.273    5.091 
#    0.000    3.636    0.000    5.455    0.000    0.000 
#    0.000    0.000    0.000    0.000    0.000    0.000 
#
# Total GULP energy -245419.215774 kJ/mol
# GULP energy per Si atom -5577.709449 kJ/mol
# Density = 1.950088 g / cm^3
# Si number density = 19.545369 Si / 1000 Ang^3
#
#
#
# Elastic Constant Matrix: (Units=GPa)
#
#
# Indices 1 2 3 4 5 6 
#
# 1 108.8565 39.8932 29.6746 0.0000 0.0000 0.0000
# 2 39.8932 85.4056 41.9500 0.0000 0.0000 0.0000
# 3 29.6746 41.9500 65.1409 0.0000 0.0000 0.0000
# 4 0.0000 0.0000 0.0000 16.4294 0.0000 0.0000
# 5 0.0000 0.0000 0.0000 0.0000 15.5385 0.0000
# 6 0.0000 0.0000 0.0000 0.0000 0.0000 22.7185
#
#
#
# Elastic Compliance Matrix: (Units=1/GPa)
#
#
# Indices 1 2 3 4 5 6 
#
# 1 0.011371 -0.004047 -0.002574 0.000000 0.000000 0.000000
# 2 -0.004047 0.018567 -0.010113 0.000000 0.000000 0.000000
# 3 -0.002574 -0.010113 0.023036 0.000000 0.000000 0.000000
# 4 0.000000 0.000000 0.000000 0.060866 0.000000 0.000000
# 5 0.000000 0.000000 0.000000 0.000000 0.064356 0.000000
# 6 0.000000 0.000000 0.000000 0.000000 0.000000 0.044017
#
#
# Mechanical properties :
#
#
# Convention : Reuss Voigt Hill
#
# Bulk Modulus (GPa) = 51.26543 53.60429 52.43486
# Shear Modulus (GPa) = 19.07056 20.79630 19.93343
#
# Velocity S-wave (km/s) = 3.12702 3.26544 3.19698
# Velocity P-wave (km/s) = 6.27085 6.45775 6.36499
#
# Compressibility (1/GPa) = 0.01950632
#
# Stress axis : x y z
#
# Youngs Moduli (GPa) = 87.94097 53.85966 43.40949
#
# Poissons Ratio (x) = 0.21799 0.11172
# Poissons Ratio (y) = 0.35593 0.43900
# Poissons Ratio (z) = 0.22633 0.54468
#
# Static dielectric constant tensor:
#      x y z
#    x 1.674820 0.000000 0.000000 
#    y 0.000000 1.705850 0.000000 
#    z 0.000000 0.000000 1.685790 
# 
# From -- ./inp_files/36755.got.cif
#   From: 2010.05.17/outbox.cif.g08.bks.cpg/sg64_19_cif.got.tgz:36755.got - 2010.06.03 16:29:19.
