data_PCOD9478131
_publ_section_title
;
Structure prediction by ZEFSAII (Michael W. Deem and Ramdas Pophale) SiO2 
 PCOD9478131
Probable space group: C M C A
;
_chemical_formula_sum "Si O2"
_cell_formula_units_Z 120
_cell_length_a 17.161619
_cell_length_b 18.515325
_cell_length_c 14.767524
_cell_angle_alpha 90.000000
_cell_angle_beta 90.000000
_cell_angle_gamma 90.000000
_cell_volume 4692.424364
_symmetry_space_group_name_H-M "C M C A"
_symmetry_group_IT_number 64
_symmetry_cell_setting 'orthorhombic'
loop_
_space_group_symop_operation_xyz
x,y,z
-x,1/2-y,1/2+z
x,-y,-z
-x,1/2+y,1/2-z
-x,-y,-z
x,1/2+y,1/2-z
-x,y,z
x,1/2-y,1/2+z
1/2+x,1/2+y,z
1/2-x,-y,1/2+z
1/2+x,1/2-y,-z
1/2-x,y,1/2-z
1/2-x,1/2-y,-z
1/2+x,y,1/2-z
1/2-x,1/2+y,z
1/2+x,-y,1/2+z
loop_
_atom_site_type_symbol
_atom_site_label
_atom_site_fract_x
_atom_site_fract_y
_atom_site_fract_z
Si Si1 0.666084 0.634943 0.209993
Si Si2 0.586937 0.421185 0.340897
Si Si3 0.000000 0.749132 0.508308
Si Si4 0.581976 0.623215 0.391479
Si Si5 0.164550 0.294451 0.245630
Si Si6 0.218254 0.422578 0.007827
Si Si7 0.910306 0.501616 0.648435
Si Si8 0.636117 0.845353 0.441495
O O1 0.750000 0.612486 0.250000
O O2 0.599380 0.641152 0.287541
O O3 0.676593 0.720206 0.190927
O O4 0.639083 0.572077 0.142462
O O5 0.500000 0.425461 0.380137
O O6 0.598418 0.340590 0.302280
O O7 0.658321 0.428320 0.408645
O O8 0.594877 0.473711 0.254534
O O9 0.065617 0.810208 0.541182
O O10 0.069355 0.688538 0.497060
O O11 0.500000 0.580963 0.394574
O O12 0.659825 0.586634 0.424944
O O13 0.250000 0.331745 0.250000
O O14 0.140787 0.295340 0.350988
O O15 0.278301 0.357410 0.017926
O O16 0.258456 0.500000 0.000000
O O17 0.886809 0.574245 0.594889
O O18 0.000000 0.485931 0.627157
#
# Coordination Sequence:
#
# PCOD9478131 Si02
#       8
#    16  16   8  16  16  16  16  16
#     4  11  23  36  65 100 137 165 214 280 339 396
#     4  10  22  38  64  97 129 168 219 274 332 403
#     4  10  22  46  68  90 130 176 229 271 328 412
#     4  10  23  43  68  97 133 180 218 274 344 391
#     4  10  19  38  62  95 130 165 215 279 326 390
#     4  12  26  41  67  97 138 177 224 281 332 404
#     4  10  22  36  63  94 130 173 220 269 338 402
#     4  11  22  42  67  95 125 182 225 265 338 400
#
# _framework density 25.573134
#
# number of rings (size 3 to 8) (size 9 to 14) (size 15 to 20)
#    0.400    1.067    3.333    1.600    4.667    3.733 
#    0.000    0.333    0.000    0.000    0.000    0.000 
#    0.000    0.000    0.000    0.000    0.000    0.000 
#
# Total GULP energy -334323.571931 kJ/mol
# GULP energy per Si atom -5572.059532 kJ/mol
# Density = 2.551493 g / cm^3
# Si number density = 25.573134 Si / 1000 Ang^3
#
#
#
# Elastic Constant Matrix: (Units=GPa)
#
#
# Indices 1 2 3 4 5 6 
#
# 1 138.2796 44.7896 11.3539 0.0000 0.0000 0.0000
# 2 44.7896 113.5742 -3.3566 0.0000 0.0000 0.0000
# 3 11.3539 -3.3566 41.6858 0.0000 0.0000 0.0000
# 4 0.0000 0.0000 0.0000 4.6727 0.0000 0.0000
# 5 0.0000 0.0000 0.0000 0.0000 22.8731 0.0000
# 6 0.0000 0.0000 0.0000 0.0000 0.0000 49.7929
#
#
#
# Elastic Compliance Matrix: (Units=1/GPa)
#
#
# Indices 1 2 3 4 5 6 
#
# 1 0.008565 -0.003455 -0.002611 0.000000 0.000000 0.000000
# 2 -0.003455 0.010219 0.001764 0.000000 0.000000 0.000000
# 3 -0.002611 0.001764 0.024842 0.000000 0.000000 0.000000
# 4 0.000000 0.000000 0.000000 0.214008 0.000000 0.000000
# 5 0.000000 0.000000 0.000000 0.000000 0.043720 0.000000
# 6 0.000000 0.000000 0.000000 0.000000 0.000000 0.020083
#
#
# Mechanical properties :
#
#
# Convention : Reuss Voigt Hill
#
# Bulk Modulus (GPa) = 28.55301 44.34593 36.44947
# Shear Modulus (GPa) = 14.63204 31.51792 23.07498
#
# Velocity S-wave (km/s) = 2.39459 3.51445 3.00711
# Velocity P-wave (km/s) = 4.33992 5.81782 5.13234
#
# Compressibility (1/GPa) = 0.03502258
#
# Stress axis : x y z
#
# Youngs Moduli (GPa) = 116.75143 97.85243 40.25404
#
# Poissons Ratio (x) = 0.33808 0.10511
# Poissons Ratio (y) = 0.40337 -0.07100
# Poissons Ratio (z) = 0.30485 -0.17260
#
# Static dielectric constant tensor:
#      x y z
#    x 1.981530 0.000000 0.000000 
#    y 0.000000 2.070990 0.000000 
#    z 0.000000 0.000000 2.115800 
# 
# From -- ./inp_files/33657.got.cif
#   From: 2010.05.17/outbox.cif.g08.bks.cpg/sg64_17_cif.got.tgz:33657.got - 2010.06.03 16:29:19.
