data_PCOD9478083
_publ_section_title
;
Structure prediction by ZEFSAII (Michael W. Deem and Ramdas Pophale) SiO2 
 PCOD9478083
Probable space group: C M C A
;
_chemical_formula_sum "Si O2"
_cell_formula_units_Z 116
_cell_length_a 25.560206
_cell_length_b 9.779898
_cell_length_c 21.491125
_cell_angle_alpha 90.000000
_cell_angle_beta 90.000000
_cell_angle_gamma 90.000000
_cell_volume 5372.269923
_symmetry_space_group_name_H-M "C M C A"
_symmetry_group_IT_number 64
_symmetry_cell_setting 'orthorhombic'
loop_
_space_group_symop_operation_xyz
x,y,z
-x,1/2-y,1/2+z
x,-y,-z
-x,1/2+y,1/2-z
-x,-y,-z
x,1/2+y,1/2-z
-x,y,z
x,1/2-y,1/2+z
1/2+x,1/2+y,z
1/2-x,-y,1/2+z
1/2+x,1/2-y,-z
1/2-x,y,1/2-z
1/2-x,1/2-y,-z
1/2+x,y,1/2-z
1/2-x,1/2+y,z
1/2+x,-y,1/2+z
loop_
_atom_site_type_symbol
_atom_site_label
_atom_site_fract_x
_atom_site_fract_y
_atom_site_fract_z
Si Si1 0.439267 0.588788 0.945593
Si Si2 0.367061 0.272095 0.740724
Si Si3 0.732284 0.606858 0.320742
Si Si4 0.419141 0.884234 0.100057
Si Si5 0.556700 0.609985 0.172290
Si Si6 0.687787 0.334245 0.357660
Si Si7 0.437227 0.814958 0.861929
Si Si8 0.500000 0.500000 0.500000
O O1 0.500000 0.615660 0.964572
O O2 0.439862 0.494410 0.884583
O O3 0.417599 0.733305 0.922736
O O4 0.414066 0.500000 0.000000
O O5 0.322055 0.314836 0.692732
O O6 0.392679 0.391372 0.783608
O O7 0.342146 0.169353 0.790311
O O8 0.416376 0.235160 0.698181
O O9 0.750000 0.572281 0.250000
O O10 0.721846 0.470198 0.358455
O O11 0.774920 0.703192 0.353191
O O12 0.442366 0.760888 0.141022
O O13 0.358573 0.839954 0.092150
O O14 0.419534 0.028628 0.136963
O O15 0.454391 0.918230 0.040664
O O16 0.500000 0.589617 0.204032
O O17 0.500000 0.814843 0.864940
#
# Coordination Sequence:
#
# PCOD9478083 Si02
#       8
#    16  16  16  16  16  16  16   4
#     4   9  21  35  53  78 119 169 224 264 315 380
#     4  10  21  33  58  90 132 163 212 258 330 397
#     4  10  19  37  61  86 125 165 211 263 319 387
#     4  11  23  38  62  94 123 168 219 267 323 389
#     4  10  20  36  53  85 129 173 208 266 326 394
#     4  10  22  40  60  94 125 164 214 269 323 394
#     4  11  21  36  57  91 127 177 212 263 324 406
#     4  12  24  40  72  90 132 168 220 266 320 408
#
# _framework density 21.592362999999999
#
# number of rings (size 3 to 8) (size 9 to 14) (size 15 to 20)
#    0.000    1.793    2.759    1.655    3.862    0.000 
#    2.483    2.759    0.000    0.828    1.793    0.000 
#    0.000    0.000    0.000    0.000    0.000    0.000 
#
# Total GULP energy -323003.188004 kJ/mol
# GULP energy per Si atom -5569.020483 kJ/mol
# Density = 2.154322 g / cm^3
# Si number density = 21.592363 Si / 1000 Ang^3
#
#
#
# Elastic Constant Matrix: (Units=GPa)
#
#
# Indices 1 2 3 4 5 6 
#
# 1 116.8122 31.0221 16.7223 0.0000 0.0000 0.0000
# 2 31.0221 82.7004 12.7681 0.0000 0.0000 0.0000
# 3 16.7223 12.7681 37.6662 0.0000 0.0000 0.0000
# 4 0.0000 0.0000 0.0000 25.3978 0.0000 0.0000
# 5 0.0000 0.0000 0.0000 0.0000 24.8216 0.0000
# 6 0.0000 0.0000 0.0000 0.0000 0.0000 24.6907
#
#
#
# Elastic Compliance Matrix: (Units=1/GPa)
#
#
# Indices 1 2 3 4 5 6 
#
# 1 0.009883 -0.003197 -0.003304 0.000000 0.000000 0.000000
# 2 -0.003197 0.013794 -0.003256 0.000000 0.000000 0.000000
# 3 -0.003304 -0.003256 0.029120 0.000000 0.000000 0.000000
# 4 0.000000 0.000000 0.000000 0.039373 0.000000 0.000000
# 5 0.000000 0.000000 0.000000 0.000000 0.040288 0.000000
# 6 0.000000 0.000000 0.000000 0.000000 0.000000 0.040501
#
#
# Mechanical properties :
#
#
# Convention : Reuss Voigt Hill
#
# Bulk Modulus (GPa) = 30.04665 39.80043 34.92354
# Shear Modulus (GPa) = 24.56194 26.75977 25.66085
#
# Velocity S-wave (km/s) = 3.37639 3.52421 3.45109
# Velocity P-wave (km/s) = 5.39867 5.91885 5.66473
#
# Compressibility (1/GPa) = 0.03328158
#
# Stress axis : x y z
#
# Youngs Moduli (GPa) = 101.18613 72.49594 34.34104
#
# Poissons Ratio (x) = 0.23178 0.11346
# Poissons Ratio (y) = 0.32350 0.11183
# Poissons Ratio (z) = 0.33430 0.23608
#
# Static dielectric constant tensor:
#      x y z
#    x 1.821930 0.000000 0.000000 
#    y 0.000000 1.837020 0.000000 
#    z 0.000000 0.000000 1.825240 
# 
# From -- ./inp_files/46946.got.cif
#   From: 2010.05.17/outbox.cif.g08.bks.cpg/sg64_24_cif.got.tgz:46946.got - 2010.06.03 16:29:19.
