data_PCOD9478671
_publ_section_title
;
Structure prediction by ZEFSAII (Michael W. Deem and Ramdas Pophale) SiO2 
 PCOD9478671
Probable space group: C M C A
;
_chemical_formula_sum "Si O2"
_cell_formula_units_Z 96
_cell_length_a 8.766524
_cell_length_b 23.947863
_cell_length_c 25.885286
_cell_angle_alpha 90.000000
_cell_angle_beta 90.000000
_cell_angle_gamma 90.000000
_cell_volume 5434.344408
_symmetry_space_group_name_H-M "C M C A"
_symmetry_group_IT_number 64
_symmetry_cell_setting 'orthorhombic'
loop_
_space_group_symop_operation_xyz
x,y,z
-x,1/2-y,1/2+z
x,-y,-z
-x,1/2+y,1/2-z
-x,-y,-z
x,1/2+y,1/2-z
-x,y,z
x,1/2-y,1/2+z
1/2+x,1/2+y,z
1/2-x,-y,1/2+z
1/2+x,1/2-y,-z
1/2-x,y,1/2-z
1/2-x,1/2-y,-z
1/2+x,y,1/2-z
1/2-x,1/2+y,z
1/2+x,-y,1/2+z
loop_
_atom_site_type_symbol
_atom_site_label
_atom_site_fract_x
_atom_site_fract_y
_atom_site_fract_z
Si Si1 0.818241 0.248540 0.057884
Si Si2 0.183282 0.433839 0.693421
Si Si3 0.683574 0.436959 0.193839
Si Si4 0.182809 0.362648 0.402989
Si Si5 0.181523 0.934878 0.994155
Si Si6 0.181124 0.634313 0.099058
O O1 0.766623 0.304667 0.086796
O O2 0.754190 0.194228 0.086667
O O3 0.000000 0.245251 0.054200
O O4 0.750000 0.250000 0.000000
O O5 0.250000 0.421531 0.750000
O O6 0.224908 0.498631 0.681332
O O7 0.251430 0.393356 0.650512
O O8 0.000000 0.429826 0.694013
O O9 0.500000 0.435010 0.196563
O O10 0.750000 0.423235 0.250000
O O11 0.732266 0.395115 0.148618
O O12 0.208696 0.402534 0.452354
O O13 0.000000 0.352729 0.400063
O O14 0.000000 0.930540 0.982194
O O15 0.273456 0.905631 0.948624
O O16 0.218465 0.000000 0.000000
O O17 0.000000 0.639541 0.102800
#
# Coordination Sequence:
#
# PCOD9478671 Si02
#       6
#    16  16  16  16  16  16
#     4  12  24  40  60  83 113 154 197 243 296 353
#     4  10  20  38  62  89 120 157 195 238 291 348
#     4   9  19  36  60  88 119 156 193 234 287 345
#     4  10  20  36  58  84 116 153 195 238 287 349
#     4  10  20  35  57  84 116 153 189 235 295 353
#     4  12  24  38  58  86 117 153 197 244 291 347
#
# _framework density 17.665424000000002
#
# number of rings (size 3 to 8) (size 9 to 14) (size 15 to 20)
#    0.000    1.500    1.667    4.500    0.000    4.333 
#    0.000    2.500    0.000    2.000    0.000    0.000 
#    0.000    0.000    0.000    0.000    0.000    0.000 
#
# Total GULP energy -268280.599694 kJ/mol
# GULP energy per Si atom -5589.179160 kJ/mol
# Density = 1.762522 g / cm^3
# Si number density = 17.665424 Si / 1000 Ang^3
#
#
#
# Elastic Constant Matrix: (Units=GPa)
#
#
# Indices 1 2 3 4 5 6 
#
# 1 102.7823 81.4735 76.4782 0.0000 0.0000 0.0000
# 2 81.4735 161.2909 104.2786 0.0000 0.0000 0.0000
# 3 76.4782 104.2786 149.1594 0.0000 0.0000 0.0000
# 4 0.0000 0.0000 0.0000 10.9559 0.0000 0.0000
# 5 0.0000 0.0000 0.0000 0.0000 32.8878 0.0000
# 6 0.0000 0.0000 0.0000 0.0000 0.0000 25.0102
#
#
#
# Elastic Compliance Matrix: (Units=1/GPa)
#
#
# Indices 1 2 3 4 5 6 
#
# 1 0.018283 -0.005793 -0.005324 0.000000 0.000000 0.000000
# 2 -0.005793 0.013149 -0.006222 0.000000 0.000000 0.000000
# 3 -0.005324 -0.006222 0.013784 0.000000 0.000000 0.000000
# 4 0.000000 0.000000 0.000000 0.091275 0.000000 0.000000
# 5 0.000000 0.000000 0.000000 0.000000 0.030406 0.000000
# 6 0.000000 0.000000 0.000000 0.000000 0.000000 0.039984
#
#
# Mechanical properties :
#
#
# Convention : Reuss Voigt Hill
#
# Bulk Modulus (GPa) = 94.90379 104.18814 99.54597
# Shear Modulus (GPa) = 20.40201 23.83760 22.11981
#
# Velocity S-wave (km/s) = 3.40209 3.67739 3.54242
# Velocity P-wave (km/s) = 8.32297 8.78280 8.55597
#
# Compressibility (1/GPa) = 0.01053699
#
# Stress axis : x y z
#
# Youngs Moduli (GPa) = 54.69549 76.04974 72.54659
#
# Poissons Ratio (x) = 0.44057 0.38625
# Poissons Ratio (y) = 0.31686 0.45142
# Poissons Ratio (z) = 0.29121 0.47322
#
# Static dielectric constant tensor:
#      x y z
#    x 1.596260 0.000000 0.000000 
#    y 0.000000 1.583060 0.000000 
#    z 0.000000 0.000000 1.573250 
# 
# From -- ./inp_files/48113.got.cif
#   From: 2010.05.17/outbox.cif.g08.bks.cpg/sg64_25_cif.got.tgz:48113.got - 2010.06.03 16:29:19.
