data_PCOD9478576
_publ_section_title
;
Structure prediction by ZEFSAII (Michael W. Deem and Ramdas Pophale) SiO2 
 PCOD9478576
Probable space group: C M C A
;
_chemical_formula_sum "Si O2"
_cell_formula_units_Z 112
_cell_length_a 11.332362
_cell_length_b 23.047480
_cell_length_c 22.975070
_cell_angle_alpha 90.000000
_cell_angle_beta 90.000000
_cell_angle_gamma 90.000000
_cell_volume 6000.683614
_symmetry_space_group_name_H-M "C M C A"
_symmetry_group_IT_number 64
_symmetry_cell_setting 'orthorhombic'
loop_
_space_group_symop_operation_xyz
x,y,z
-x,1/2-y,1/2+z
x,-y,-z
-x,1/2+y,1/2-z
-x,-y,-z
x,1/2+y,1/2-z
-x,y,z
x,1/2-y,1/2+z
1/2+x,1/2+y,z
1/2-x,-y,1/2+z
1/2+x,1/2-y,-z
1/2-x,y,1/2-z
1/2-x,1/2-y,-z
1/2+x,y,1/2-z
1/2-x,1/2+y,z
1/2+x,-y,1/2+z
loop_
_atom_site_type_symbol
_atom_site_label
_atom_site_fract_x
_atom_site_fract_y
_atom_site_fract_z
Si Si1 0.866434 0.237051 0.903965
Si Si2 0.129504 0.652267 0.028946
Si Si3 0.364985 0.483186 0.067656
Si Si4 0.204662 0.298516 0.687943
Si Si5 0.371902 0.170413 0.784956
Si Si6 0.368096 0.112430 0.406765
Si Si7 0.204567 0.875495 0.405008
O O1 0.861955 0.278484 0.960509
O O2 0.812335 0.275797 0.852152
O O3 0.794236 0.178654 0.909155
O O4 0.000000 0.222793 0.890788
O O5 0.251777 0.627898 0.055565
O O6 0.000000 0.635876 0.055514
O O7 0.127849 0.632605 0.962609
O O8 0.500000 0.461179 0.069534
O O9 0.360028 0.543533 0.102746
O O10 0.275337 0.435322 0.090341
O O11 0.340544 0.500000 0.000000
O O12 0.250000 0.320346 0.750000
O O13 0.133107 0.239149 0.699735
O O14 0.140694 0.347403 0.650187
O O15 0.500000 0.158538 0.756596
O O16 0.250000 0.159324 0.750000
O O17 0.361931 0.134259 0.844541
O O18 0.500000 0.122586 0.433660
#
# Coordination Sequence:
#
# PCOD9478576 Si02
#       7
#    16  16  16  16  16  16  16
#     4   9  19  32  50  80 114 145 180 227 284 343
#     4  10  20  35  53  80 115 145 179 230 287 342
#     4  10  20  35  55  83 117 153 196 237 276 333
#     4   9  19  34  57  84 112 146 186 232 287 337
#     4  10  22  39  59  86 116 146 187 232 283 345
#     4  10  20  36  57  83 113 148 193 236 276 328
#     4  11  20  34  56  80 111 152 190 230 281 337
#
# _framework density 18.664539999999999
#
# number of rings (size 3 to 8) (size 9 to 14) (size 15 to 20)
#    0.000    2.143    1.429    1.714    0.000    6.857 
#    0.000    6.429    0.000    0.000    0.000    0.000 
#    0.000    0.000    0.000    0.000    0.000    0.000 
#
# Total GULP energy -312004.040820 kJ/mol
# GULP energy per Si atom -5571.500729 kJ/mol
# Density = 1.862206 g / cm^3
# Si number density = 18.664540 Si / 1000 Ang^3
#
#
#
# Elastic Constant Matrix: (Units=GPa)
#
#
# Indices 1 2 3 4 5 6 
#
# 1 160.2465 41.7155 37.1075 0.0000 0.0000 0.0000
# 2 41.7155 72.9822 20.4922 0.0000 0.0000 0.0000
# 3 37.1075 20.4922 69.7928 0.0000 0.0000 0.0000
# 4 0.0000 0.0000 0.0000 16.8159 0.0000 0.0000
# 5 0.0000 0.0000 0.0000 0.0000 -11.3597 0.0000
# 6 0.0000 0.0000 0.0000 0.0000 0.0000 7.8374
#
#
#
# Elastic Compliance Matrix: (Units=1/GPa)
#
#
# Indices 1 2 3 4 5 6 
#
# 1 0.007916 -0.003643 -0.003139 0.000000 0.000000 0.000000
# 2 -0.003643 0.016610 -0.002940 0.000000 0.000000 0.000000
# 3 -0.003139 -0.002940 0.016860 0.000000 0.000000 0.000000
# 4 0.000000 0.000000 0.000000 0.059467 0.000000 0.000000
# 5 0.000000 0.000000 0.000000 0.000000 -0.088031 0.000000
# 6 0.000000 0.000000 0.000000 0.000000 0.000000 0.127593
#
#
# Mechanical properties :
#
#
# Convention : Reuss Voigt Hill
#
# Bulk Modulus (GPa) = 45.57512 55.73910 50.65711
# Shear Modulus (GPa) = 29.90910 16.23915 23.07413
#
# Velocity S-wave (km/s) = 4.00741 2.95287 3.51986
# Velocity P-wave (km/s) = 6.77374 6.44627 6.61203
#
# Compressibility (1/GPa) = 0.02194179
#
# Stress axis : x y z
#
# Youngs Moduli (GPa) = 126.33241 60.20546 59.31115
#
# Poissons Ratio (x) = 0.21933 0.18617
# Poissons Ratio (y) = 0.46024 0.17437
# Poissons Ratio (z) = 0.39655 0.17700
#
# Static dielectric constant tensor:
#      x y z
#    x 1.695000 0.000000 0.000000 
#    y 0.000000 1.617260 0.000000 
#    z 0.000000 0.000000 1.680340 
# 
# From -- ./inp_files/38479.got.cif
#   From: 2010.05.17/outbox.cif.g08.bks.cpg/sg64_20_cif.got.tgz:38479.got - 2010.06.03 16:29:19.
