data_PCOD9478173
_publ_section_title
;
Structure prediction by ZEFSAII (Michael W. Deem and Ramdas Pophale) SiO2 
 PCOD9478173
Probable space group: C M C A
;
_chemical_formula_sum "Si O2"
_cell_formula_units_Z 88
_cell_length_a 31.317775
_cell_length_b 10.696899
_cell_length_c 14.077322
_cell_angle_alpha 90.000000
_cell_angle_beta 90.000000
_cell_angle_gamma 90.000000
_cell_volume 4715.946173
_symmetry_space_group_name_H-M "C M C A"
_symmetry_group_IT_number 64
_symmetry_cell_setting 'orthorhombic'
loop_
_space_group_symop_operation_xyz
x,y,z
-x,1/2-y,1/2+z
x,-y,-z
-x,1/2+y,1/2-z
-x,-y,-z
x,1/2+y,1/2-z
-x,y,z
x,1/2-y,1/2+z
1/2+x,1/2+y,z
1/2-x,-y,1/2+z
1/2+x,1/2-y,-z
1/2-x,y,1/2-z
1/2-x,1/2-y,-z
1/2+x,y,1/2-z
1/2-x,1/2+y,z
1/2+x,-y,1/2+z
loop_
_atom_site_type_symbol
_atom_site_label
_atom_site_fract_x
_atom_site_fract_y
_atom_site_fract_z
Si Si1 0.500000 0.241961 0.344530
Si Si2 0.062719 0.274036 0.319442
Si Si3 0.000000 0.134170 0.450949
Si Si4 0.000000 0.529453 0.608442
Si Si5 0.715999 0.639825 0.015601
Si Si6 0.836996 0.189297 0.830676
Si Si7 0.299230 0.571571 0.227243
O O1 0.458107 0.282266 0.285644
O O2 0.500000 0.277992 0.454926
O O3 0.500000 0.094598 0.332471
O O4 0.040509 0.163494 0.382150
O O5 0.042159 0.393789 0.369217
O O6 0.113066 0.281226 0.322138
O O7 0.000000 0.000000 0.500000
O O8 0.000000 0.500000 0.500000
O O9 0.698593 0.632795 0.122284
O O10 0.735086 0.500000 0.000000
O O11 0.750000 0.750000 0.000000
O O12 0.679201 0.660067 0.937335
O O13 0.813917 0.316352 0.795862
O O14 0.824338 0.061158 0.774045
O O15 0.250000 0.541042 0.250000
#
# Coordination Sequence:
#
# PCOD9478173 Si02
#       7
#     8  16   8   8  16  16  16
#     4  10  21  39  66  84 123 168 194 259 313 370
#     4  10  25  38  62  98 121 164 212 256 316 377
#     4  10  22  42  64  90 133 166 205 257 318 384
#     4  10  19  40  64  84 123 162 208 242 308 386
#     4  10  22  40  63  87 122 167 209 260 318 376
#     4  11  25  41  63  96 130 163 215 270 312 386
#     4  11  23  41  66  90 126 172 214 263 325 382
#
# _framework density 18.660094000000001
#
# number of rings (size 3 to 8) (size 9 to 14) (size 15 to 20)
#    0.000    1.818    3.636    0.545   10.182    3.636 
#    0.000    0.909    0.000    0.000    0.000    0.000 
#    0.000    0.000    0.000    0.000    0.000    0.000 
#
# Total GULP energy -245134.630249 kJ/mol
# GULP energy per Si atom -5571.241597 kJ/mol
# Density = 1.861762 g / cm^3
# Si number density = 18.660094 Si / 1000 Ang^3
#
#
#
# Elastic Constant Matrix: (Units=GPa)
#
#
# Indices 1 2 3 4 5 6 
#
# 1 132.9030 44.9646 18.6282 0.0000 0.0000 0.0000
# 2 44.9646 99.1016 5.5827 0.0000 0.0000 0.0000
# 3 18.6282 5.5827 76.1066 0.0000 0.0000 0.0000
# 4 0.0000 0.0000 0.0000 37.6826 0.0000 0.0000
# 5 0.0000 0.0000 0.0000 0.0000 13.2020 0.0000
# 6 0.0000 0.0000 0.0000 0.0000 0.0000 32.9552
#
#
#
# Elastic Compliance Matrix: (Units=1/GPa)
#
#
# Indices 1 2 3 4 5 6 
#
# 1 0.009167 -0.004050 -0.001947 0.000000 0.000000 0.000000
# 2 -0.004050 0.011922 0.000117 0.000000 0.000000 0.000000
# 3 -0.001947 0.000117 0.013607 0.000000 0.000000 0.000000
# 4 0.000000 0.000000 0.000000 0.026537 0.000000 0.000000
# 5 0.000000 0.000000 0.000000 0.000000 0.075746 0.000000
# 6 0.000000 0.000000 0.000000 0.000000 0.000000 0.030344
#
#
# Mechanical properties :
#
#
# Convention : Reuss Voigt Hill
#
# Bulk Modulus (GPa) = 43.59824 49.60689 46.60257
# Shear Modulus (GPa) = 26.77681 32.69703 29.73692
#
# Velocity S-wave (km/s) = 3.79222 4.19052 3.99634
# Velocity P-wave (km/s) = 6.52608 7.07504 6.80610
#
# Compressibility (1/GPa) = 0.02293671
#
# Stress axis : x y z
#
# Youngs Moduli (GPa) = 109.08360 83.88188 73.48948
#
# Poissons Ratio (x) = 0.33970 0.14307
# Poissons Ratio (y) = 0.44176 -0.00858
# Poissons Ratio (z) = 0.21236 -0.00979
#
# Static dielectric constant tensor:
#      x y z
#    x 1.600480 0.000000 0.000000 
#    y 0.000000 1.702960 0.000000 
#    z 0.000000 0.000000 1.499280 
# 
# From -- ./inp_files/28316.got.cif
#   From: 2010.05.17/outbox.cif.g08.bks.cpg/sg64_15_cif.got.tgz:28316.got - 2010.06.03 16:29:19.
