data_PCOD9478423
_publ_section_title
;
Structure prediction by ZEFSAII (Michael W. Deem and Ramdas Pophale) SiO2 
 PCOD9478423
Probable space group: C M C A
;
_chemical_formula_sum "Si O2"
_cell_formula_units_Z 96
_cell_length_a 8.564888
_cell_length_b 20.392463
_cell_length_c 31.186208
_cell_angle_alpha 90.000000
_cell_angle_beta 90.000000
_cell_angle_gamma 90.000000
_cell_volume 5446.956944
_symmetry_space_group_name_H-M "C M C A"
_symmetry_group_IT_number 64
_symmetry_cell_setting 'orthorhombic'
loop_
_space_group_symop_operation_xyz
x,y,z
-x,1/2-y,1/2+z
x,-y,-z
-x,1/2+y,1/2-z
-x,-y,-z
x,1/2+y,1/2-z
-x,y,z
x,1/2-y,1/2+z
1/2+x,1/2+y,z
1/2-x,-y,1/2+z
1/2+x,1/2-y,-z
1/2-x,y,1/2-z
1/2-x,1/2-y,-z
1/2+x,y,1/2-z
1/2-x,1/2+y,z
1/2+x,-y,1/2+z
loop_
_atom_site_type_symbol
_atom_site_label
_atom_site_fract_x
_atom_site_fract_y
_atom_site_fract_z
Si Si1 0.312725 0.202126 0.702881
Si Si2 0.310883 0.445472 0.965799
Si Si3 0.312501 0.701418 0.130344
Si Si4 0.311340 0.949311 0.296882
Si Si5 0.813987 0.200142 0.464670
Si Si6 0.810371 0.448829 0.631715
O O1 0.500000 0.204942 0.703277
O O2 0.250000 0.220564 0.750000
O O3 0.248632 0.249129 0.666083
O O4 0.264635 0.126271 0.694954
O O5 0.500000 0.440540 0.966838
O O6 0.243310 0.373629 0.974710
O O7 0.264503 0.464319 0.917217
O O8 0.262408 0.500000 0.000000
O O9 0.500000 0.703084 0.129067
O O10 0.249456 0.716795 0.082844
O O11 0.263352 0.626300 0.140649
O O12 0.500000 0.950986 0.296147
O O13 0.250000 0.968120 0.250000
O O14 0.254568 0.998957 0.333466
O O15 0.750000 0.250000 0.500000
O O16 0.000000 0.202242 0.464090
O O17 0.000000 0.450257 0.632797
#
# Coordination Sequence:
#
# PCOD9478423 Si02
#       6
#    16  16  16  16  16  16
#     4  10  20  34  53  77 106 140 177 218 263 314
#     4   9  18  34  56  80 107 140 176 216 267 322
#     4  10  20  36  56  78 106 138 175 220 269 321
#     4   9  18  33  51  72 100 134 172 212 254 303
#     4  11  22  37  56  79 109 143 182 225 270 322
#     4   8  16  32  52  74 100 131 167 209 256 305
#
# _framework density 17.62452
#
# number of rings (size 3 to 8) (size 9 to 14) (size 15 to 20)
#    0.000    2.500    0.000    3.500    0.000    3.000 
#    0.000    9.167    0.000    0.000    0.000    0.000 
#    0.000    0.000    0.000    0.000    0.000    0.000 
#
# Total GULP energy -267796.878953 kJ/mol
# GULP energy per Si atom -5579.101645 kJ/mol
# Density = 1.758441 g / cm^3
# Si number density = 17.624520 Si / 1000 Ang^3
#
#
#
# Elastic Constant Matrix: (Units=GPa)
#
#
# Indices 1 2 3 4 5 6 
#
# 1 50.0739 38.9902 46.9512 0.0000 0.0000 0.0000
# 2 38.9902 131.9624 143.5646 0.0000 0.0000 0.0000
# 3 46.9512 143.5646 183.8595 0.0000 0.0000 0.0000
# 4 0.0000 0.0000 0.0000 45.6335 0.0000 0.0000
# 5 0.0000 0.0000 0.0000 0.0000 29.8941 0.0000
# 6 0.0000 0.0000 0.0000 0.0000 0.0000 23.3699
#
#
#
# Elastic Compliance Matrix: (Units=1/GPa)
#
#
# Indices 1 2 3 4 5 6 
#
# 1 0.026447 -0.003101 -0.004332 0.000000 0.000000 0.000000
# 2 -0.003101 0.050712 -0.038806 0.000000 0.000000 0.000000
# 3 -0.004332 -0.038806 0.036847 0.000000 0.000000 0.000000
# 4 0.000000 0.000000 0.000000 0.021914 0.000000 0.000000
# 5 0.000000 0.000000 0.000000 0.000000 0.033451 0.000000
# 6 0.000000 0.000000 0.000000 0.000000 0.000000 0.042790
#
#
# Mechanical properties :
#
#
# Convention : Reuss Voigt Hill
#
# Bulk Modulus (GPa) = 46.45310 91.65642 69.05476
# Shear Modulus (GPa) = 16.03511 28.87216 22.45363
#
# Velocity S-wave (km/s) = 3.01959 4.05184 3.57319
# Velocity P-wave (km/s) = 6.21060 8.60278 7.50264
#
# Compressibility (1/GPa) = 0.02152709
#
# Stress axis : x y z
#
# Youngs Moduli (GPa) = 37.81111 19.71912 27.13955
#
# Poissons Ratio (x) = 0.06115 0.11758
# Poissons Ratio (y) = 0.11725 1.05318
# Poissons Ratio (z) = 0.16381 0.76522
#
# Static dielectric constant tensor:
#      x y z
#    x 1.599670 0.000000 0.000000 
#    y 0.000000 1.588300 0.000000 
#    z 0.000000 0.000000 1.575710 
# 
# From -- ./inp_files/48076.got.cif
#   From: 2010.05.17/outbox.cif.g08.bks.cpg/sg64_25_cif.got.tgz:48076.got - 2010.06.03 16:29:19.
