data_PCOD9478525
_publ_section_title
;
Structure prediction by ZEFSAII (Michael W. Deem and Ramdas Pophale) SiO2 
 PCOD9478525
Probable space group: C M C A
;
_chemical_formula_sum "Si O2"
_cell_formula_units_Z 96
_cell_length_a 8.192302
_cell_length_b 30.363172
_cell_length_c 18.870738
_cell_angle_alpha 90.000000
_cell_angle_beta 90.000000
_cell_angle_gamma 90.000000
_cell_volume 4693.988037
_symmetry_space_group_name_H-M "C M C A"
_symmetry_group_IT_number 64
_symmetry_cell_setting 'orthorhombic'
loop_
_space_group_symop_operation_xyz
x,y,z
-x,1/2-y,1/2+z
x,-y,-z
-x,1/2+y,1/2-z
-x,-y,-z
x,1/2+y,1/2-z
-x,y,z
x,1/2-y,1/2+z
1/2+x,1/2+y,z
1/2-x,-y,1/2+z
1/2+x,1/2-y,-z
1/2-x,y,1/2-z
1/2-x,1/2-y,-z
1/2+x,y,1/2-z
1/2-x,1/2+y,z
1/2+x,-y,1/2+z
loop_
_atom_site_type_symbol
_atom_site_label
_atom_site_fract_x
_atom_site_fract_y
_atom_site_fract_z
Si Si1 0.690747 0.939159 0.935187
Si Si2 0.198009 0.404393 0.085975
Si Si3 0.691263 0.214075 0.102073
Si Si4 0.196868 0.986765 0.328944
Si Si5 0.194430 0.191648 0.945661
Si Si6 0.811719 0.869139 0.828382
O O1 0.500000 0.949285 0.946875
O O2 0.709751 0.896626 0.885490
O O3 0.759772 0.979455 0.889038
O O4 0.757389 0.926793 0.012261
O O5 0.245896 0.437430 0.148704
O O6 0.263410 0.354947 0.088622
O O7 0.000000 0.402009 0.083578
O O8 0.500000 0.211006 0.119499
O O9 0.741367 0.265262 0.099640
O O10 0.788697 0.182193 0.153748
O O11 0.719286 0.196474 0.021904
O O12 0.250000 0.998646 0.250000
O O13 0.000000 0.988929 0.330611
O O14 0.000000 0.194445 0.958306
O O15 0.750000 0.878888 0.750000
O O16 0.000000 0.881618 0.835845
#
# Coordination Sequence:
#
# PCOD9478525 Si02
#       6
#    16  16  16  16  16  16
#     4  10  20  37  60  85 114 149 193 242 291 345
#     4  10  20  36  60  86 115 152 194 240 288 344
#     4  10  20  36  56  81 115 152 189 231 283 339
#     4  10  22  39  58  83 114 154 196 236 290 348
#     4  10  20  34  57  87 115 145 186 235 284 337
#     4  12  24  37  56  84 119 155 195 240 294 350
#
# _framework density 20.451694
#
# number of rings (size 3 to 8) (size 9 to 14) (size 15 to 20)
#    0.000    1.667    1.667    3.500    0.000    6.667 
#    0.000    0.833    0.000    5.000    0.000    0.000 
#    0.000    0.000    0.000    0.000    0.000    0.000 
#
# Total GULP energy -268146.454200 kJ/mol
# GULP energy per Si atom -5586.384462 kJ/mol
# Density = 2.040514 g / cm^3
# Si number density = 20.451694 Si / 1000 Ang^3
#
#
#
# Elastic Constant Matrix: (Units=GPa)
#
#
# Indices 1 2 3 4 5 6 
#
# 1 18.1709 0.4145 -6.3843 0.0000 0.0000 0.0000
# 2 0.4145 113.7928 1.9423 0.0000 0.0000 0.0000
# 3 -6.3843 1.9423 28.8771 0.0000 0.0000 0.0000
# 4 0.0000 0.0000 0.0000 -1.8158 0.0000 0.0000
# 5 0.0000 0.0000 0.0000 0.0000 19.6811 0.0000
# 6 0.0000 0.0000 0.0000 0.0000 0.0000 18.8537
#
#
#
# Elastic Compliance Matrix: (Units=1/GPa)
#
#
# Indices 1 2 3 4 5 6 
#
# 1 0.059690 -0.000443 0.013227 0.000000 0.000000 0.000000
# 2 -0.000443 0.008801 -0.000690 0.000000 0.000000 0.000000
# 3 0.013227 -0.000690 0.037600 0.000000 0.000000 0.000000
# 4 0.000000 0.000000 0.000000 -0.550723 0.000000 0.000000
# 5 0.000000 0.000000 0.000000 0.000000 0.050810 0.000000
# 6 0.000000 0.000000 0.000000 0.000000 0.000000 0.053040
#
#
# Mechanical properties :
#
#
# Convention : Reuss Voigt Hill
#
# Bulk Modulus (GPa) = 7.67586 16.97620 12.32603
# Shear Modulus (GPa) = -15.55009 18.33502 1.39246
#
# Velocity S-wave (km/s) = -2.76040 2.99742 0.82603
# Velocity P-wave (km/s) = 2.52952 4.50533 2.63624
#
# Compressibility (1/GPa) = 0.13027851
#
# Stress axis : x y z
#
# Youngs Moduli (GPa) = 16.75311 113.61966 26.59568
#
# Poissons Ratio (x) = 0.05036 -0.35177
# Poissons Ratio (y) = 0.00742 0.01835
# Poissons Ratio (z) = -0.22159 0.07839
#
# Static dielectric constant tensor:
#      x y z
#    x 1.724740 0.000000 0.000000 
#    y 0.000000 1.751650 0.000000 
#    z 0.000000 0.000000 1.683760 
# 
# From -- ./inp_files/37114.got.cif
#   From: 2010.05.17/outbox.cif.g08.bks.cpg/sg64_19_cif.got.tgz:37114.got - 2010.06.03 16:29:19.
