data_PCOD9478413
_publ_section_title
;
Structure prediction by ZEFSAII (Michael W. Deem and Ramdas Pophale) SiO2 
 PCOD9478413
Probable space group: C M C A
;
_chemical_formula_sum "Si O2"
_cell_formula_units_Z 112
_cell_length_a 14.908313
_cell_length_b 24.901630
_cell_length_c 14.238136
_cell_angle_alpha 90.000000
_cell_angle_beta 90.000000
_cell_angle_gamma 90.000000
_cell_volume 5285.784036
_symmetry_space_group_name_H-M "C M C A"
_symmetry_group_IT_number 64
_symmetry_cell_setting 'orthorhombic'
loop_
_space_group_symop_operation_xyz
x,y,z
-x,1/2-y,1/2+z
x,-y,-z
-x,1/2+y,1/2-z
-x,-y,-z
x,1/2+y,1/2-z
-x,y,z
x,1/2-y,1/2+z
1/2+x,1/2+y,z
1/2-x,-y,1/2+z
1/2+x,1/2-y,-z
1/2-x,y,1/2-z
1/2-x,1/2-y,-z
1/2+x,y,1/2-z
1/2-x,1/2+y,z
1/2+x,-y,1/2+z
loop_
_atom_site_type_symbol
_atom_site_label
_atom_site_fract_x
_atom_site_fract_y
_atom_site_fract_z
Si Si1 0.858579 0.680807 0.749872
Si Si2 0.896444 0.277931 0.626166
Si Si3 0.152463 0.567239 0.702403
Si Si4 0.394870 0.748592 0.431779
Si Si5 0.105062 0.340010 0.803245
Si Si6 0.397869 0.564681 0.004842
Si Si7 0.852014 0.946625 0.783318
O O1 0.750000 0.680667 0.750000
O O2 0.892593 0.717261 0.834754
O O3 0.891366 0.619589 0.748443
O O4 0.888191 0.711379 0.655694
O O5 0.853512 0.275700 0.523846
O O6 0.853954 0.313544 0.708864
O O7 0.000000 0.296624 0.618253
O O8 0.250000 0.563928 0.750000
O O9 0.154945 0.579694 0.590126
O O10 0.110945 0.507753 0.715754
O O11 0.500000 0.740769 0.456492
O O12 0.357890 0.691515 0.393658
O O13 0.108271 0.403399 0.788695
O O14 0.000000 0.324770 0.803548
O O15 0.500000 0.585569 0.997396
O O16 0.401180 0.500000 0.000000
O O17 0.361855 0.575564 0.109736
O O18 0.750000 0.949975 0.750000
#
# Coordination Sequence:
#
# PCOD9478413 Si02
#       7
#    16  16  16  16  16  16  16
#     4  10  20  34  52  80 108 136 176 221 268 322
#     4   9  19  36  56  77 104 140 178 220 271 325
#     4   9  20  37  53  78 117 148 177 226 284 334
#     4   9  19  36  56  77 104 140 176 219 274 325
#     4   9  18  33  52  78 108 136 180 229 267 323
#     4   9  18  33  56  84 107 137 190 240 271 316
#     4  10  20  35  53  80 114 150 181 220 284 338
#
# _framework density 21.18891
#
# number of rings (size 3 to 8) (size 9 to 14) (size 15 to 20)
#    0.000    2.714    0.000    1.714    2.000    4.571 
#    5.143    0.000    0.000    0.000    0.000    3.000 
#    0.000    0.000    0.000    0.000    0.000    0.000 
#
# Total GULP energy -311908.368614 kJ/mol
# GULP energy per Si atom -5569.792297 kJ/mol
# Density = 2.114068 g / cm^3
# Si number density = 21.188910 Si / 1000 Ang^3
#
#
#
# Elastic Constant Matrix: (Units=GPa)
#
#
# Indices 1 2 3 4 5 6 
#
# 1 57.2337 -10.0055 24.5305 0.0000 0.0000 0.0000
# 2 -10.0055 90.1388 -7.7077 0.0000 0.0000 0.0000
# 3 24.5305 -7.7077 71.9288 0.0000 0.0000 0.0000
# 4 0.0000 0.0000 0.0000 19.0811 0.0000 0.0000
# 5 0.0000 0.0000 0.0000 0.0000 24.5289 0.0000
# 6 0.0000 0.0000 0.0000 0.0000 0.0000 18.9627
#
#
#
# Elastic Compliance Matrix: (Units=1/GPa)
#
#
# Indices 1 2 3 4 5 6 
#
# 1 0.020722 0.001712 -0.006884 0.000000 0.000000 0.000000
# 2 0.001712 0.011338 0.000631 0.000000 0.000000 0.000000
# 3 -0.006884 0.000631 0.016318 0.000000 0.000000 0.000000
# 4 0.000000 0.000000 0.000000 0.052408 0.000000 0.000000
# 5 0.000000 0.000000 0.000000 0.000000 0.040768 0.000000
# 6 0.000000 0.000000 0.000000 0.000000 0.000000 0.052735
#
#
# Mechanical properties :
#
#
# Convention : Reuss Voigt Hill
#
# Bulk Modulus (GPa) = 25.44785 25.88177 25.66481
# Shear Modulus (GPa) = 23.09801 26.68015 24.88908
#
# Velocity S-wave (km/s) = 3.30525 3.55231 3.43100
# Velocity P-wave (km/s) = 5.15774 5.39133 5.27583
#
# Compressibility (1/GPa) = 0.03929605
#
# Stress axis : x y z
#
# Youngs Moduli (GPa) = 48.25851 88.19930 61.28266
#
# Poissons Ratio (x) = -0.15096 0.42184
# Poissons Ratio (y) = -0.08260 -0.03868
# Poissons Ratio (z) = 0.33219 -0.05568
#
# Static dielectric constant tensor:
#      x y z
#    x 1.830100 0.000000 0.000000 
#    y 0.000000 1.822500 0.000000 
#    z 0.000000 0.000000 1.792560 
# 
# From -- ./inp_files/24426.got.cif
#   From: 2010.05.17/outbox.cif.g08.bks.cpg/sg64_13_cif.got.tgz:24426.got - 2010.06.03 16:29:19.
