data_PCOD9478176
_publ_section_title
;
Structure prediction by ZEFSAII (Michael W. Deem and Ramdas Pophale) SiO2 
 PCOD9478176
Probable space group: C M C A
;
_chemical_formula_sum "Si O2"
_cell_formula_units_Z 96
_cell_length_a 14.696510
_cell_length_b 15.159547
_cell_length_c 21.211511
_cell_angle_alpha 90.000000
_cell_angle_beta 90.000000
_cell_angle_gamma 90.000000
_cell_volume 4725.764166
_symmetry_space_group_name_H-M "C M C A"
_symmetry_group_IT_number 64
_symmetry_cell_setting 'orthorhombic'
loop_
_space_group_symop_operation_xyz
x,y,z
-x,1/2-y,1/2+z
x,-y,-z
-x,1/2+y,1/2-z
-x,-y,-z
x,1/2+y,1/2-z
-x,y,z
x,1/2-y,1/2+z
1/2+x,1/2+y,z
1/2-x,-y,1/2+z
1/2+x,1/2-y,-z
1/2-x,y,1/2-z
1/2-x,1/2-y,-z
1/2+x,y,1/2-z
1/2-x,1/2+y,z
1/2+x,-y,1/2+z
loop_
_atom_site_type_symbol
_atom_site_label
_atom_site_fract_x
_atom_site_fract_y
_atom_site_fract_z
Si Si1 0.293951 0.348016 0.990935
Si Si2 0.194421 0.914198 0.394144
Si Si3 0.694876 0.249998 0.805049
Si Si4 0.000000 0.298519 0.870029
Si Si5 0.000000 0.774865 0.266726
Si Si6 0.691467 0.899410 0.864485
Si Si7 0.000000 0.291031 0.509361
Si Si8 0.500000 0.125986 0.897189
O O1 0.268512 0.405924 0.051684
O O2 0.402881 0.340446 0.983201
O O3 0.250000 0.250000 0.000000
O O4 0.239251 0.387639 0.932387
O O5 0.194003 0.818697 0.361707
O O6 0.090913 0.923602 0.418270
O O7 0.203263 0.997899 0.348988
O O8 0.750000 0.201910 0.750000
O O9 0.593258 0.271972 0.784996
O O10 0.750816 0.336015 0.820556
O O11 0.000000 0.228390 0.810505
O O12 0.089718 0.359863 0.865503
O O13 0.000000 0.251067 0.938548
O O14 0.000000 0.855825 0.319991
O O15 0.000000 0.217486 0.564433
#
# Coordination Sequence:
#
# PCOD9478176 Si02
#       8
#    16  16  16   8   8  16   8   8
#     4  12  21  41  64  96 127 170 208 265 330 393
#     4  11  23  40  65  98 128 166 220 266 323 385
#     4  11  22  42  65  87 128 174 210 263 324 382
#     4  12  21  38  65 101 127 167 219 279 323 381
#     4  10  22  38  67  92 127 170 218 257 330 392
#     4  12  24  40  67  96 132 168 216 271 327 382
#     4  12  22  38  73  93 128 175 221 256 337 401
#     4  10  19  40  65 100 129 171 214 276 324 389
#
# _framework density 20.314174999999999
#
# number of rings (size 3 to 8) (size 9 to 14) (size 15 to 20)
#    0.000    0.667    6.667    2.000    0.000    0.667 
#    0.000    5.000    0.000    0.000    0.000    0.000 
#    0.000    0.000    0.000    0.000    0.000    0.000 
#
# Total GULP energy -267600.802233 kJ/mol
# GULP energy per Si atom -5575.016713 kJ/mol
# Density = 2.026794 g / cm^3
# Si number density = 20.314175 Si / 1000 Ang^3
#
#
#
# Elastic Constant Matrix: (Units=GPa)
#
#
# Indices 1 2 3 4 5 6 
#
# 1 162.6442 21.3133 11.5122 0.0000 0.0000 0.0000
# 2 21.3133 62.5559 3.5955 0.0000 0.0000 0.0000
# 3 11.5122 3.5955 79.6338 0.0000 0.0000 0.0000
# 4 0.0000 0.0000 0.0000 8.6114 0.0000 0.0000
# 5 0.0000 0.0000 0.0000 0.0000 31.3691 0.0000
# 6 0.0000 0.0000 0.0000 0.0000 0.0000 21.9603
#
#
#
# Elastic Compliance Matrix: (Units=1/GPa)
#
#
# Indices 1 2 3 4 5 6 
#
# 1 0.006491 -0.002163 -0.000841 0.000000 0.000000 0.000000
# 2 -0.002163 0.016748 -0.000443 0.000000 0.000000 0.000000
# 3 -0.000841 -0.000443 0.012699 0.000000 0.000000 0.000000
# 4 0.000000 0.000000 0.000000 0.116125 0.000000 0.000000
# 5 0.000000 0.000000 0.000000 0.000000 0.031879 0.000000
# 6 0.000000 0.000000 0.000000 0.000000 0.000000 0.045537
#
#
# Mechanical properties :
#
#
# Convention : Reuss Voigt Hill
#
# Bulk Modulus (GPa) = 34.43097 41.96398 38.19748
# Shear Modulus (GPa) = 20.32067 30.28235 25.30151
#
# Velocity S-wave (km/s) = 3.16621 3.86515 3.53301
# Velocity P-wave (km/s) = 5.50932 6.37350 5.95710
#
# Compressibility (1/GPa) = 0.02904362
#
# Stress axis : x y z
#
# Youngs Moduli (GPa) = 154.05024 59.70765 78.74611
#
# Poissons Ratio (x) = 0.12917 0.06621
# Poissons Ratio (y) = 0.33326 0.03492
# Poissons Ratio (z) = 0.12952 0.02648
#
# Static dielectric constant tensor:
#      x y z
#    x 1.756890 0.000000 0.000000 
#    y 0.000000 1.744700 0.000000 
#    z 0.000000 0.000000 2.004820 
# 
# From -- ./inp_files/45208.got.cif
#   From: 2010.05.17/outbox.cif.g08.bks.cpg/sg64_23_cif.got.tgz:45208.got - 2010.06.03 16:29:19.
