data_PCOD9478233
_publ_section_title
;
Structure prediction by ZEFSAII (Michael W. Deem and Ramdas Pophale) SiO2 
 PCOD9478233
Probable space group: C M C A
;
_chemical_formula_sum "Si O2"
_cell_formula_units_Z 68
_cell_length_a 14.109749
_cell_length_b 5.316272
_cell_length_c 37.883972
_cell_angle_alpha 90.000000
_cell_angle_beta 90.000000
_cell_angle_gamma 90.000000
_cell_volume 2841.724607
_symmetry_space_group_name_H-M "C M C A"
_symmetry_group_IT_number 64
_symmetry_cell_setting 'orthorhombic'
loop_
_space_group_symop_operation_xyz
x,y,z
-x,1/2-y,1/2+z
x,-y,-z
-x,1/2+y,1/2-z
-x,-y,-z
x,1/2+y,1/2-z
-x,y,z
x,1/2-y,1/2+z
1/2+x,1/2+y,z
1/2-x,-y,1/2+z
1/2+x,1/2-y,-z
1/2-x,y,1/2-z
1/2-x,1/2-y,-z
1/2+x,y,1/2-z
1/2-x,1/2+y,z
1/2+x,-y,1/2+z
loop_
_atom_site_type_symbol
_atom_site_label
_atom_site_fract_x
_atom_site_fract_y
_atom_site_fract_z
Si Si1 0.884254 0.419787 0.386266
Si Si2 0.144597 0.461122 0.764573
Si Si3 0.392242 0.094893 0.535416
Si Si4 0.385577 0.080962 0.844937
Si Si5 0.000000 0.500000 0.000000
O O1 0.849831 0.446184 0.426507
O O2 0.857333 0.155402 0.368982
O O3 0.000000 0.418724 0.388735
O O4 0.857003 0.654524 0.361973
O O5 0.100598 0.688025 0.742096
O O6 0.250000 0.423105 0.750000
O O7 0.147909 0.539229 0.805162
O O8 0.500000 0.958086 0.534660
O O9 0.419153 0.381357 0.527036
O O10 0.342685 0.000000 0.500000
O O11 0.500000 0.081405 0.843273
#
# Coordination Sequence:
#
# PCOD9478233 Si02
#       5
#    16  16  16  16   4
#     4   9  18  28  43  64 101 134 170 211 246 291
#     4  10  21  37  56  74  95 126 162 206 257 309
#     4   8  15  21  35  56  85 131 178 206 230 277
#     4  10  20  32  48  73  99 132 166 205 258 303
#     4   8  14  20  36  54  84 128 190 204 226 280
#
# _framework density 23.929129
#
# number of rings (size 3 to 8) (size 9 to 14) (size 15 to 20)
#    0.706    2.118    0.000    1.412    3.294    0.941 
#    0.000    0.000    0.000    0.000    0.000    0.000 
#    0.000    0.000    0.000   84.706    0.000   37.647 
#
# Total GULP energy -189324.131318 kJ/mol
# GULP energy per Si atom -5568.356803 kJ/mol
# Density = 2.387467 g / cm^3
# Si number density = 23.929129 Si / 1000 Ang^3
#
#
#
# Elastic Constant Matrix: (Units=GPa)
#
#
# Indices 1 2 3 4 5 6 
#
# 1 86.8935 -14.1491 -7.8132 0.0000 0.0000 0.0000
# 2 -14.1491 71.0763 -30.8354 0.0000 0.0000 0.0000
# 3 -7.8132 -30.8354 101.6322 0.0000 0.0000 0.0000
# 4 0.0000 0.0000 0.0000 46.9166 0.0000 0.0000
# 5 0.0000 0.0000 0.0000 0.0000 26.8302 0.0000
# 6 0.0000 0.0000 0.0000 0.0000 0.0000 -29.9090
#
#
#
# Elastic Compliance Matrix: (Units=1/GPa)
#
#
# Indices 1 2 3 4 5 6 
#
# 1 0.012214 0.003269 0.001931 0.000000 0.000000 0.000000
# 2 0.003269 0.017077 0.005433 0.000000 0.000000 0.000000
# 3 0.001931 0.005433 0.011636 0.000000 0.000000 0.000000
# 4 0.000000 0.000000 0.000000 0.021314 0.000000 0.000000
# 5 0.000000 0.000000 0.000000 0.000000 0.037271 0.000000
# 6 0.000000 0.000000 0.000000 0.000000 0.000000 -0.033435
#
#
# Mechanical properties :
#
#
# Convention : Reuss Voigt Hill
#
# Bulk Modulus (GPa) = 16.07910 17.11182 16.59546
# Shear Modulus (GPa) = 76.28450 29.59422 52.93936
#
# Velocity S-wave (km/s) = 5.65231 3.52055 4.70865
# Velocity P-wave (km/s) = 7.02368 4.86747 6.04253
#
# Compressibility (1/GPa) = 0.06219254
#
# Stress axis : x y z
#
# Youngs Moduli (GPa) = 81.87126 58.55827 85.93964
#
# Poissons Ratio (x) = -0.19144 -0.16594
# Poissons Ratio (y) = -0.26765 -0.46687
# Poissons Ratio (z) = -0.15808 -0.31812
#
# Static dielectric constant tensor:
#      x y z
#    x 1.878190 0.000000 0.000000 
#    y 0.000000 1.931600 0.000000 
#    z 0.000000 0.000000 1.834090 
# 
# From -- ./inp_files/50587.got.cif
#   From: 2010.05.17/outbox.cif.g08.bks.cpg/sg64_26_cif.got.tgz:50587.got - 2010.06.03 16:29:19.
