data_PCOD9478451
_publ_section_title
;
Structure prediction by ZEFSAII (Michael W. Deem and Ramdas Pophale) SiO2 
 PCOD9478451
Probable space group: C M C A
;
_chemical_formula_sum "Si O2"
_cell_formula_units_Z 88
_cell_length_a 13.887189
_cell_length_b 20.560194
_cell_length_c 16.112851
_cell_angle_alpha 90.000000
_cell_angle_beta 90.000000
_cell_angle_gamma 90.000000
_cell_volume 4600.594389
_symmetry_space_group_name_H-M "C M C A"
_symmetry_group_IT_number 64
_symmetry_cell_setting 'orthorhombic'
loop_
_space_group_symop_operation_xyz
x,y,z
-x,1/2-y,1/2+z
x,-y,-z
-x,1/2+y,1/2-z
-x,-y,-z
x,1/2+y,1/2-z
-x,y,z
x,1/2-y,1/2+z
1/2+x,1/2+y,z
1/2-x,-y,1/2+z
1/2+x,1/2-y,-z
1/2-x,y,1/2-z
1/2-x,1/2-y,-z
1/2+x,y,1/2-z
1/2-x,1/2+y,z
1/2+x,-y,1/2+z
loop_
_atom_site_type_symbol
_atom_site_label
_atom_site_fract_x
_atom_site_fract_y
_atom_site_fract_z
Si Si1 0.611593 0.190029 0.998921
Si Si2 0.308979 0.189620 0.590690
Si Si3 0.384106 0.050032 0.072589
Si Si4 0.384898 0.029981 0.769135
Si Si5 0.250000 0.856488 0.250000
Si Si6 0.115180 0.453845 0.423654
O O1 0.500000 0.184141 0.970715
O O2 0.624845 0.254190 0.054612
O O3 0.638697 0.124067 0.048615
O O4 0.696927 0.199505 0.932678
O O5 0.311890 0.186740 0.689214
O O6 0.340309 0.117368 0.564039
O O7 0.500000 0.047108 0.072451
O O8 0.355864 0.025079 0.164345
O O9 0.352617 0.000000 0.000000
O O10 0.500000 0.039957 0.776095
O O11 0.325423 0.094374 0.793631
O O12 0.363612 0.020639 0.670467
O O13 0.142577 0.500000 0.500000
O O14 0.000000 0.446725 0.426281
#
# Coordination Sequence:
#
# PCOD9478451 Si02
#       6
#    16  16  16  16   8  16
#     4  10  21  37  55  76 107 144 180 222 272 326
#     4  10  21  36  55  79 107 142 182 222 271 328
#     4   9  17  31  53  78 103 133 170 214 266 318
#     4   9  18  32  51  78 108 136 173 221 269 320
#     4  10  20  34  54  80 106 136 176 220 268 322
#     4   9  18  34  56  80 109 145 182 221 266 318
#
# _framework density 19.127963000000001
#
# number of rings (size 3 to 8) (size 9 to 14) (size 15 to 20)
#    0.000    2.545    0.000    1.636    0.000    6.545 
#    0.000    4.545    0.000    2.182    0.000    0.000 
#    0.000    0.000    0.000    0.000    0.000    0.000 
#
# Total GULP energy -245085.999179 kJ/mol
# GULP energy per Si atom -5570.136345 kJ/mol
# Density = 1.908443 g / cm^3
# Si number density = 19.127963 Si / 1000 Ang^3
#
#
#
# Elastic Constant Matrix: (Units=GPa)
#
#
# Indices 1 2 3 4 5 6 
#
# 1 91.7065 6.9105 -1.7060 0.0000 0.0000 0.0000
# 2 6.9105 97.3911 42.2341 0.0000 0.0000 0.0000
# 3 -1.7060 42.2341 59.9600 0.0000 0.0000 0.0000
# 4 0.0000 0.0000 0.0000 27.6199 0.0000 0.0000
# 5 0.0000 0.0000 0.0000 0.0000 -5.4480 0.0000
# 6 0.0000 0.0000 0.0000 0.0000 0.0000 58.6608
#
#
#
# Elastic Compliance Matrix: (Units=1/GPa)
#
#
# Indices 1 2 3 4 5 6 
#
# 1 0.011027 -0.001322 0.001245 0.000000 0.000000 0.000000
# 2 -0.001322 0.014942 -0.010562 0.000000 0.000000 0.000000
# 3 0.001245 -0.010562 0.024153 0.000000 0.000000 0.000000
# 4 0.000000 0.000000 0.000000 0.036206 0.000000 0.000000
# 5 0.000000 0.000000 0.000000 0.000000 -0.183555 0.000000
# 6 0.000000 0.000000 0.000000 0.000000 0.000000 0.017047
#
#
# Mechanical properties :
#
#
# Convention : Reuss Voigt Hill
#
# Bulk Modulus (GPa) = 34.67031 38.21496 36.44264
# Shear Modulus (GPa) = -101.44858 29.60782 -35.92038
#
# Velocity S-wave (km/s) = -7.29054 3.93858 -4.33817
# Velocity P-wave (km/s) = 7.25978 6.38006 2.44941
#
# Compressibility (1/GPa) = 0.02884312
#
# Stress axis : x y z
#
# Youngs Moduli (GPa) = 90.68507 66.92469 41.40256
#
# Poissons Ratio (x) = 0.08850 -0.05156
# Poissons Ratio (y) = 0.11993 0.43731
# Poissons Ratio (z) = -0.11292 0.70689
#
# Static dielectric constant tensor:
#      x y z
#    x 1.684670 0.000000 0.000000 
#    y 0.000000 1.502990 0.000000 
#    z 0.000000 0.000000 1.708120 
# 
# From -- ./inp_files/32152.got.cif
#   From: 2010.05.17/outbox.cif.g08.bks.cpg/sg64_17_cif.got.tgz:32152.got - 2010.06.03 16:29:19.
