data_PCOD9478796
_publ_section_title
;
Structure prediction by ZEFSAII (Michael W. Deem and Ramdas Pophale) SiO2 
 PCOD9478796
Probable space group: C M C A
;
_chemical_formula_sum "Si O2"
_cell_formula_units_Z 112
_cell_length_a 15.532954
_cell_length_b 22.382742
_cell_length_c 16.201543
_cell_angle_alpha 90.000000
_cell_angle_beta 90.000000
_cell_angle_gamma 90.000000
_cell_volume 5632.792105
_symmetry_space_group_name_H-M "C M C A"
_symmetry_group_IT_number 64
_symmetry_cell_setting 'orthorhombic'
loop_
_space_group_symop_operation_xyz
x,y,z
-x,1/2-y,1/2+z
x,-y,-z
-x,1/2+y,1/2-z
-x,-y,-z
x,1/2+y,1/2-z
-x,y,z
x,1/2-y,1/2+z
1/2+x,1/2+y,z
1/2-x,-y,1/2+z
1/2+x,1/2-y,-z
1/2-x,y,1/2-z
1/2-x,1/2-y,-z
1/2+x,y,1/2-z
1/2-x,1/2+y,z
1/2+x,-y,1/2+z
loop_
_atom_site_type_symbol
_atom_site_label
_atom_site_fract_x
_atom_site_fract_y
_atom_site_fract_z
Si Si1 0.156881 0.392634 0.209155
Si Si2 0.277977 0.957096 0.569078
Si Si3 0.907622 0.559415 0.111647
Si Si4 0.905575 0.984807 0.785221
Si Si5 0.405040 0.695808 0.446930
Si Si6 0.401627 0.191530 0.654521
Si Si7 0.238884 0.650112 0.953947
O O1 0.250000 0.401119 0.250000
O O2 0.106127 0.451044 0.239858
O O3 0.117111 0.334055 0.254092
O O4 0.175941 0.383269 0.112451
O O5 0.178381 0.973885 0.584887
O O6 0.272129 0.891845 0.528383
O O7 0.316048 0.000000 0.500000
O O8 0.331595 0.968183 0.651093
O O9 0.903678 0.561764 0.210398
O O10 0.905801 0.626252 0.076978
O O11 0.000000 0.531457 0.089605
O O12 0.000000 0.984126 0.825193
O O13 0.500000 0.709807 0.483725
O O14 0.397067 0.738042 0.366649
O O15 0.323290 0.700915 0.507527
O O16 0.500000 0.172630 0.633093
O O17 0.324450 0.166773 0.597105
#
# Coordination Sequence:
#
# PCOD9478796 Si02
#       7
#    16  16  16  16  16  16  16
#     4  10  20  36  56  79 109 147 192 234 276 333
#     4  11  21  34  53  78 111 143 177 227 278 329
#     4   9  19  36  56  78 105 141 183 225 273 327
#     4  11  22  36  56  81 112 147 184 226 276 341
#     4   9  19  36  57  82 112 145 185 235 285 333
#     4  10  20  36  57  80 112 149 185 231 285 342
#     4  10  21  36  57  83 113 148 190 235 284 341
#
# _framework density 19.883566999999999
#
# number of rings (size 3 to 8) (size 9 to 14) (size 15 to 20)
#    0.000    2.000    0.000    4.714    0.000    2.286 
#    0.000   12.857    0.000    3.429    0.000    0.000 
#    0.000    0.000    0.000    0.000    0.000    0.000 
#
# Total GULP energy -311799.374787 kJ/mol
# GULP energy per Si atom -5567.845978 kJ/mol
# Density = 1.983831 g / cm^3
# Si number density = 19.883567 Si / 1000 Ang^3
#
#
#
# Elastic Constant Matrix: (Units=GPa)
#
#
# Indices 1 2 3 4 5 6 
#
# 1 130.0786 23.0992 39.6709 0.0000 0.0000 0.0000
# 2 23.0992 31.2407 18.4636 0.0000 0.0000 0.0000
# 3 39.6709 18.4636 79.6186 0.0000 0.0000 0.0000
# 4 0.0000 0.0000 0.0000 27.5768 0.0000 0.0000
# 5 0.0000 0.0000 0.0000 0.0000 -29.6973 0.0000
# 6 0.0000 0.0000 0.0000 0.0000 0.0000 20.4759
#
#
#
# Elastic Compliance Matrix: (Units=1/GPa)
#
#
# Indices 1 2 3 4 5 6 
#
# 1 0.009695 -0.004999 -0.003671 0.000000 0.000000 0.000000
# 2 -0.004999 0.039671 -0.006709 0.000000 0.000000 0.000000
# 3 -0.003671 -0.006709 0.015945 0.000000 0.000000 0.000000
# 4 0.000000 0.000000 0.000000 0.036262 0.000000 0.000000
# 5 0.000000 0.000000 0.000000 0.000000 -0.033673 0.000000
# 6 0.000000 0.000000 0.000000 0.000000 0.000000 0.048838
#
#
# Mechanical properties :
#
#
# Convention : Reuss Voigt Hill
#
# Bulk Modulus (GPa) = 28.94145 44.82282 36.88213
# Shear Modulus (GPa) = 31.44387 14.31803 22.88095
#
# Velocity S-wave (km/s) = 3.98100 2.68637 3.39595
# Velocity P-wave (km/s) = 5.97647 5.67571 5.82803
#
# Compressibility (1/GPa) = 0.03455252
#
# Stress axis : x y z
#
# Youngs Moduli (GPa) = 103.14581 25.20758 62.71530
#
# Poissons Ratio (x) = 0.12600 0.23026
# Poissons Ratio (y) = 0.51558 0.42076
# Poissons Ratio (z) = 0.37870 0.16912
#
# Static dielectric constant tensor:
#      x y z
#    x 1.755050 0.000000 0.000000 
#    y 0.000000 1.733130 0.000000 
#    z 0.000000 0.000000 0.474090 
# 
# From -- ./inp_files/24226.got.cif
#   From: 2010.05.17/outbox.cif.g08.bks.cpg/sg64_13_cif.got.tgz:24226.got - 2010.06.03 16:29:19.
