data_PCOD9478841
_publ_section_title
;
Structure prediction by ZEFSAII (Michael W. Deem and Ramdas Pophale) SiO2 
 PCOD9478841
Probable space group: C M C A
;
_chemical_formula_sum "Si O2"
_cell_formula_units_Z 104
_cell_length_a 18.417793
_cell_length_b 27.501208
_cell_length_c 8.624905
_cell_angle_alpha 90.000000
_cell_angle_beta 90.000000
_cell_angle_gamma 90.000000
_cell_volume 4368.614054
_symmetry_space_group_name_H-M "C M C A"
_symmetry_group_IT_number 64
_symmetry_cell_setting 'orthorhombic'
loop_
_space_group_symop_operation_xyz
x,y,z
-x,1/2-y,1/2+z
x,-y,-z
-x,1/2+y,1/2-z
-x,-y,-z
x,1/2+y,1/2-z
-x,y,z
x,1/2-y,1/2+z
1/2+x,1/2+y,z
1/2-x,-y,1/2+z
1/2+x,1/2-y,-z
1/2-x,y,1/2-z
1/2-x,1/2-y,-z
1/2+x,y,1/2-z
1/2-x,1/2+y,z
1/2+x,-y,1/2+z
loop_
_atom_site_type_symbol
_atom_site_label
_atom_site_fract_x
_atom_site_fract_y
_atom_site_fract_z
Si Si1 0.139575 0.500000 0.000000
Si Si2 0.917502 0.136549 0.683360
Si Si3 0.699132 0.178682 0.387286
Si Si4 0.079556 0.341137 0.826706
Si Si5 0.755850 0.920634 0.933532
Si Si6 0.665166 0.045399 0.703922
Si Si7 0.917260 0.727397 0.599175
O O1 0.185146 0.549037 0.020251
O O2 0.115241 0.488662 0.181363
O O3 0.911589 0.139178 0.498883
O O4 0.861558 0.099528 0.755731
O O5 0.910516 0.189970 0.758301
O O6 0.000000 0.120247 0.719803
O O7 0.750000 0.200112 0.250000
O O8 0.639449 0.146085 0.297208
O O9 0.743105 0.136842 0.478176
O O10 0.650935 0.215163 0.488204
O O11 0.084794 0.282676 0.845702
O O12 0.000000 0.354773 0.770547
O O13 0.750000 0.922963 0.750000
O O14 0.823018 0.948550 0.016883
O O15 0.750000 0.035644 0.750000
O O16 0.000000 0.720270 0.531708
#
# Coordination Sequence:
#
# PCOD9478841 Si02
#       7
#     8  16  16  16  16  16  16
#     4  10  22  38  65  94 115 162 206 244 310 390
#     4  10  21  37  60  89 121 162 210 265 317 358
#     4  11  23  35  57  94 127 160 201 268 321 365
#     4  10  22  39  60  85 119 168 223 259 304 377
#     4  10  20  36  57  92 124 153 201 248 309 374
#     4  10  21  38  62  92 121 160 204 256 307 385
#     4  10  20  40  63  83 118 172 221 257 303 375
#
# _framework density 23.806177999999999
#
# number of rings (size 3 to 8) (size 9 to 14) (size 15 to 20)
#    0.000    1.846    1.538    2.769    8.615    3.077 
#    0.000    1.923    0.000    0.000    0.000   16.154 
#    0.000    0.000    0.000    0.000    0.000    0.000 
#
# Total GULP energy -289570.057342 kJ/mol
# GULP energy per Si atom -5568.654949 kJ/mol
# Density = 2.375199 g / cm^3
# Si number density = 23.806178 Si / 1000 Ang^3
#
#
#
# Elastic Constant Matrix: (Units=GPa)
#
#
# Indices 1 2 3 4 5 6 
#
# 1 74.4418 8.5606 4.9056 0.0000 0.0000 0.0000
# 2 8.5606 82.1044 -7.5547 0.0000 0.0000 0.0000
# 3 4.9056 -7.5547 83.1607 0.0000 0.0000 0.0000
# 4 0.0000 0.0000 0.0000 31.0199 0.0000 0.0000
# 5 0.0000 0.0000 0.0000 0.0000 31.1421 0.0000
# 6 0.0000 0.0000 0.0000 0.0000 0.0000 3.3501
#
#
#
# Elastic Compliance Matrix: (Units=1/GPa)
#
#
# Indices 1 2 3 4 5 6 
#
# 1 0.013669 -0.001512 -0.000944 0.000000 0.000000 0.000000
# 2 -0.001512 0.012450 0.001220 0.000000 0.000000 0.000000
# 3 -0.000944 0.001220 0.012191 0.000000 0.000000 0.000000
# 4 0.000000 0.000000 0.000000 0.032237 0.000000 0.000000
# 5 0.000000 0.000000 0.000000 0.000000 0.032111 0.000000
# 6 0.000000 0.000000 0.000000 0.000000 0.000000 0.298499
#
#
# Mechanical properties :
#
#
# Convention : Reuss Voigt Hill
#
# Bulk Modulus (GPa) = 27.90249 27.94779 27.92514
# Shear Modulus (GPa) = 12.03150 28.68878 20.36014
#
# Velocity S-wave (km/s) = 2.25054 3.47522 2.92763
# Velocity P-wave (km/s) = 4.30109 5.27902 4.81495
#
# Compressibility (1/GPa) = 0.03583910
#
# Stress axis : x y z
#
# Youngs Moduli (GPa) = 73.15621 80.32426 82.02484
#
# Poissons Ratio (x) = 0.12146 0.07741
# Poissons Ratio (y) = 0.11062 -0.10008
# Poissons Ratio (z) = 0.06904 -0.09801
#
# Static dielectric constant tensor:
#      x y z
#    x 1.978510 0.000000 0.000000 
#    y 0.000000 1.908300 0.000000 
#    z 0.000000 0.000000 2.079750 
# 
# From -- ./inp_files/8679.got.cif
#   From: 2010.05.17/outbox.cif.g08.bks.cpg/sg64_5_cif.got.tgz:8679.got - 2010.06.03 16:29:19.
