data_PCOD9478599
_publ_section_title
;
Structure prediction by ZEFSAII (Michael W. Deem and Ramdas Pophale) SiO2 
 PCOD9478599
Probable space group: C M C A
;
_chemical_formula_sum "Si O2"
_cell_formula_units_Z 96
_cell_length_a 8.744524
_cell_length_b 19.677185
_cell_length_c 31.298140
_cell_angle_alpha 90.000000
_cell_angle_beta 90.000000
_cell_angle_gamma 90.000000
_cell_volume 5385.396350
_symmetry_space_group_name_H-M "C M C A"
_symmetry_group_IT_number 64
_symmetry_cell_setting 'orthorhombic'
loop_
_space_group_symop_operation_xyz
x,y,z
-x,1/2-y,1/2+z
x,-y,-z
-x,1/2+y,1/2-z
-x,-y,-z
x,1/2+y,1/2-z
-x,y,z
x,1/2-y,1/2+z
1/2+x,1/2+y,z
1/2-x,-y,1/2+z
1/2+x,1/2-y,-z
1/2-x,y,1/2-z
1/2-x,1/2-y,-z
1/2+x,y,1/2-z
1/2-x,1/2+y,z
1/2+x,-y,1/2+z
loop_
_atom_site_type_symbol
_atom_site_label
_atom_site_fract_x
_atom_site_fract_y
_atom_site_fract_z
Si Si1 0.317240 0.199247 0.704036
Si Si2 0.183480 0.453698 0.960085
Si Si3 0.317521 0.706371 0.130730
Si Si4 0.182388 0.950950 0.295732
Si Si5 0.817305 0.205770 0.461769
Si Si6 0.818365 0.454251 0.631815
O O1 0.500000 0.196615 0.706311
O O2 0.250000 0.220939 0.750000
O O3 0.262190 0.249342 0.667021
O O4 0.251886 0.123732 0.695790
O O5 0.216579 0.374299 0.968767
O O6 0.264249 0.473127 0.915868
O O7 0.000000 0.460362 0.954449
O O8 0.229905 0.500000 0.000000
O O9 0.500000 0.716089 0.132334
O O10 0.255702 0.724977 0.083772
O O11 0.285135 0.626123 0.137136
O O12 0.500000 0.945977 0.207173
O O13 0.250000 0.973545 0.250000
O O14 0.232340 0.001807 0.332884
O O15 0.750000 0.250000 0.500000
O O16 0.000000 0.213721 0.459680
O O17 0.000000 0.464230 0.635970
#
# Coordination Sequence:
#
# PCOD9478599 Si02
#       6
#    16  16  16  16  16  16
#     4  11  22  38  59  83 112 144 182 226 274 328
#     4   9  19  36  56  78 106 142 183 226 272 322
#     4  10  21  38  58  81 111 146 185 229 277 327
#     4  11  22  38  59  82 112 146 183 226 273 325
#     4  10  20  35  55  79 109 144 183 228 277 328
#     4  10  21  37  57  82 112 145 184 228 273 324
#
# _framework density 17.825984999999999
#
# number of rings (size 3 to 8) (size 9 to 14) (size 15 to 20)
#    0.000    1.833    0.000    5.500    0.000    5.000 
#    0.000    5.000    0.000    0.000    0.000    0.000 
#    0.000    0.000    0.000    0.000    0.000    0.000 
#
# Total GULP energy -268180.318748 kJ/mol
# GULP energy per Si atom -5587.089974 kJ/mol
# Density = 1.778541 g / cm^3
# Si number density = 17.825985 Si / 1000 Ang^3
#
#
#
# Elastic Constant Matrix: (Units=GPa)
#
#
# Indices 1 2 3 4 5 6 
#
# 1 125.6388 64.9580 96.1356 0.0000 0.0000 0.0000
# 2 64.9580 67.1370 98.4992 0.0000 0.0000 0.0000
# 3 96.1356 98.4992 180.6930 0.0000 0.0000 0.0000
# 4 0.0000 0.0000 0.0000 42.9770 0.0000 0.0000
# 5 0.0000 0.0000 0.0000 0.0000 39.4167 0.0000
# 6 0.0000 0.0000 0.0000 0.0000 0.0000 28.2643
#
#
#
# Elastic Compliance Matrix: (Units=1/GPa)
#
#
# Indices 1 2 3 4 5 6 
#
# 1 0.015931 -0.014876 -0.000367 0.000000 0.000000 0.000000
# 2 -0.014876 0.088277 -0.040207 0.000000 0.000000 0.000000
# 3 -0.000367 -0.040207 0.027647 0.000000 0.000000 0.000000
# 4 0.000000 0.000000 0.000000 0.023268 0.000000 0.000000
# 5 0.000000 0.000000 0.000000 0.000000 0.025370 0.000000
# 6 0.000000 0.000000 0.000000 0.000000 0.000000 0.035380
#
#
# Mechanical properties :
#
#
# Convention : Reuss Voigt Hill
#
# Bulk Modulus (GPa) = 47.71930 99.18380 73.45155
# Shear Modulus (GPa) = 14.98088 29.72333 22.35211
#
# Velocity S-wave (km/s) = 2.90210 4.08783 3.54489
# Velocity P-wave (km/s) = 6.16905 8.83410 7.61901
#
# Compressibility (1/GPa) = 0.02095588
#
# Stress axis : x y z
#
# Youngs Moduli (GPa) = 62.76990 11.32797 36.17019
#
# Poissons Ratio (x) = 0.16851 0.01327
# Poissons Ratio (y) = 0.93375 1.45430
# Poissons Ratio (z) = 0.02303 0.45546
#
# Static dielectric constant tensor:
#      x y z
#    x 1.596070 0.000000 0.000000 
#    y 0.000000 1.590530 0.000000 
#    z 0.000000 0.000000 1.576540 
# 
# From -- ./inp_files/10364.got.cif
#   From: 2010.05.17/outbox.cif.g08.bks.cpg/sg64_6_cif.got.tgz:10364.got - 2010.06.03 16:29:19.
