data_PCOD9478543
_publ_section_title
;
Structure prediction by ZEFSAII (Michael W. Deem and Ramdas Pophale) SiO2 
 PCOD9478543
Probable space group: C M C A
;
_chemical_formula_sum "Si O2"
_cell_formula_units_Z 96
_cell_length_a 21.175636
_cell_length_b 13.846850
_cell_length_c 15.487981
_cell_angle_alpha 90.000000
_cell_angle_beta 90.000000
_cell_angle_gamma 90.000000
_cell_volume 4541.321597
_symmetry_space_group_name_H-M "C M C A"
_symmetry_group_IT_number 64
_symmetry_cell_setting 'orthorhombic'
loop_
_space_group_symop_operation_xyz
x,y,z
-x,1/2-y,1/2+z
x,-y,-z
-x,1/2+y,1/2-z
-x,-y,-z
x,1/2+y,1/2-z
-x,y,z
x,1/2-y,1/2+z
1/2+x,1/2+y,z
1/2-x,-y,1/2+z
1/2+x,1/2-y,-z
1/2-x,y,1/2-z
1/2-x,1/2-y,-z
1/2+x,y,1/2-z
1/2-x,1/2+y,z
1/2+x,-y,1/2+z
loop_
_atom_site_type_symbol
_atom_site_label
_atom_site_fract_x
_atom_site_fract_y
_atom_site_fract_z
Si Si1 0.903606 0.107764 0.519285
Si Si2 0.190701 0.543108 0.683075
Si Si3 0.929784 0.654043 0.167608
Si Si4 0.226560 0.828402 0.433135
Si Si5 0.182583 0.176157 0.203560
Si Si6 0.930740 0.575970 0.792266
O O1 0.920889 0.170281 0.435187
O O2 0.827834 0.106843 0.525265
O O3 0.927016 0.131205 0.615742
O O4 0.927161 0.000000 0.500000
O O5 0.250000 0.542671 0.750000
O O6 0.217280 0.607697 0.605663
O O7 0.175390 0.430920 0.661706
O O8 0.129024 0.587193 0.729474
O O9 0.873398 0.691389 0.227601
O O10 0.926873 0.537937 0.182101
O O11 0.000000 0.686231 0.193386
O O12 0.250000 0.750000 0.500000
O O13 0.191326 0.764019 0.361174
O O14 0.250000 0.172043 0.250000
O O15 0.000000 0.592689 0.753112
#
# Coordination Sequence:
#
# PCOD9478543 Si02
#       6
#    16  16  16  16  16  16
#     4  10  20  34  58  89 121 154 198 244 299 357
#     4  10  20  38  61  87 119 158 204 250 297 362
#     4   9  18  36  61  89 122 158 198 246 299 361
#     4  12  25  36  60  86 124 158 203 256 303 357
#     4  10  22  38  61  88 120 159 201 248 303 360
#     4   9  17  33  61  91 118 157 200 246 301 358
#
# _framework density 21.139220999999999
#
# number of rings (size 3 to 8) (size 9 to 14) (size 15 to 20)
#    0.000    2.000    1.667    2.000    4.667    2.000 
#    0.000    1.667    0.000    2.000    0.000    4.667 
#    0.000    0.000    0.000    0.000    0.000    0.000 
#
# Total GULP energy -267870.226560 kJ/mol
# GULP energy per Si atom -5580.629720 kJ/mol
# Density = 2.109111 g / cm^3
# Si number density = 21.139221 Si / 1000 Ang^3
#
#
#
# Elastic Constant Matrix: (Units=GPa)
#
#
# Indices 1 2 3 4 5 6 
#
# 1 179.6466 16.6246 45.2040 0.0000 0.0000 0.0000
# 2 16.6246 85.9642 19.7696 0.0000 0.0000 0.0000
# 3 45.2040 19.7696 39.2778 0.0000 0.0000 0.0000
# 4 0.0000 0.0000 0.0000 26.7069 0.0000 0.0000
# 5 0.0000 0.0000 0.0000 0.0000 29.3879 0.0000
# 6 0.0000 0.0000 0.0000 0.0000 0.0000 106.8200
#
#
#
# Elastic Compliance Matrix: (Units=1/GPa)
#
#
# Indices 1 2 3 4 5 6 
#
# 1 0.007866 0.000634 -0.009372 0.000000 0.000000 0.000000
# 2 0.000634 0.013207 -0.007377 0.000000 0.000000 0.000000
# 3 -0.009372 -0.007377 0.039959 0.000000 0.000000 0.000000
# 4 0.000000 0.000000 0.000000 0.037444 0.000000 0.000000
# 5 0.000000 0.000000 0.000000 0.000000 0.034028 0.000000
# 6 0.000000 0.000000 0.000000 0.000000 0.000000 0.009362
#
#
# Mechanical properties :
#
#
# Convention : Reuss Voigt Hill
#
# Bulk Modulus (GPa) = 34.72036 52.00944 43.36490
# Shear Modulus (GPa) = 27.21906 47.46898 37.34402
#
# Velocity S-wave (km/s) = 3.59222 4.74385 4.20762
# Velocity P-wave (km/s) = 5.80221 7.39339 6.64560
#
# Compressibility (1/GPa) = 0.02880154
#
# Stress axis : x y z
#
# Youngs Moduli (GPa) = 127.12835 75.71933 25.02575
#
# Poissons Ratio (x) = -0.04802 0.23454
# Poissons Ratio (y) = -0.08062 0.18462
# Poissons Ratio (z) = 1.19145 0.55859
#
# Static dielectric constant tensor:
#      x y z
#    x 1.734620 0.000000 0.000000 
#    y 0.000000 1.816430 0.000000 
#    z 0.000000 0.000000 1.797100 
# 
# From -- ./inp_files/26317.got.cif
#   From: 2010.05.17/outbox.cif.g08.bks.cpg/sg64_14_cif.got.tgz:26317.got - 2010.06.03 16:29:19.
