data_PCOD9478407
_publ_section_title
;
Structure prediction by ZEFSAII (Michael W. Deem and Ramdas Pophale) SiO2 
 PCOD9478407
Probable space group: C M C A
;
_chemical_formula_sum "Si O2"
_cell_formula_units_Z 80
_cell_length_a 34.266207
_cell_length_b 9.170801
_cell_length_c 12.751381
_cell_angle_alpha 90.000000
_cell_angle_beta 90.000000
_cell_angle_gamma 90.000000
_cell_volume 4007.103186
_symmetry_space_group_name_H-M "C M C A"
_symmetry_group_IT_number 64
_symmetry_cell_setting 'orthorhombic'
loop_
_space_group_symop_operation_xyz
x,y,z
-x,1/2-y,1/2+z
x,-y,-z
-x,1/2+y,1/2-z
-x,-y,-z
x,1/2+y,1/2-z
-x,y,z
x,1/2-y,1/2+z
1/2+x,1/2+y,z
1/2-x,-y,1/2+z
1/2+x,1/2-y,-z
1/2-x,y,1/2-z
1/2-x,1/2-y,-z
1/2+x,y,1/2-z
1/2-x,1/2+y,z
1/2+x,-y,1/2+z
loop_
_atom_site_type_symbol
_atom_site_label
_atom_site_fract_x
_atom_site_fract_y
_atom_site_fract_z
Si Si1 0.333894 0.287030 0.633837
Si Si2 0.589395 0.766234 0.739049
Si Si3 0.295246 0.504138 0.773870
Si Si4 0.150727 0.642386 0.430794
Si Si5 0.953325 0.497918 0.123826
O O1 0.374984 0.234210 0.682423
O O2 0.320780 0.445774 0.674906
O O3 0.339412 0.272581 0.509894
O O4 0.304489 0.164941 0.681048
O O5 0.613497 0.839806 0.643744
O O6 0.567148 0.633716 0.685457
O O7 0.560364 0.862525 0.809134
O O8 0.250000 0.490101 0.750000
O O9 0.311192 0.393433 0.862159
O O10 0.143842 0.500000 0.500000
O O11 0.000000 0.483789 0.126596
O O12 0.941663 0.500000 0.000000
#
# Coordination Sequence:
#
# PCOD9478407 Si02
#       5
#    16  16  16  16  16
#     4  10  20  36  56  80 107 145 191 230 279 337
#     4  11  21  39  63  84 117 154 192 241 286 345
#     4  10  20  34  52  77 111 145 182 233 285 335
#     4   9  19  35  57  82 109 147 192 234 282 340
#     4  11  24  40  61  91 122 153 191 238 294 351
#
# _framework density 19.964547
#
# number of rings (size 3 to 8) (size 9 to 14) (size 15 to 20)
#    0.000    1.800    0.000    6.000    0.000    0.800 
#    0.000    9.000    0.000    9.600    0.000    0.000 
#    0.000    0.000    0.000    0.000    0.000    0.000 
#
# Total GULP energy -223112.441799 kJ/mol
# GULP energy per Si atom -5577.811045 kJ/mol
# Density = 1.991911 g / cm^3
# Si number density = 19.964547 Si / 1000 Ang^3
#
#
#
# Elastic Constant Matrix: (Units=GPa)
#
#
# Indices 1 2 3 4 5 6 
#
# 1 93.1611 9.0280 8.0718 0.0000 0.0000 0.0000
# 2 9.0280 29.8740 14.0904 0.0000 0.0000 0.0000
# 3 8.0718 14.0904 62.0436 0.0000 0.0000 0.0000
# 4 0.0000 0.0000 0.0000 31.5845 0.0000 0.0000
# 5 0.0000 0.0000 0.0000 0.0000 13.6609 0.0000
# 6 0.0000 0.0000 0.0000 0.0000 0.0000 6.6022
#
#
#
# Elastic Compliance Matrix: (Units=1/GPa)
#
#
# Indices 1 2 3 4 5 6 
#
# 1 0.011090 -0.002991 -0.000763 0.000000 0.000000 0.000000
# 2 -0.002991 0.038297 -0.008308 0.000000 0.000000 0.000000
# 3 -0.000763 -0.008308 0.018104 0.000000 0.000000 0.000000
# 4 0.000000 0.000000 0.000000 0.031661 0.000000 0.000000
# 5 0.000000 0.000000 0.000000 0.000000 0.073202 0.000000
# 6 0.000000 0.000000 0.000000 0.000000 0.000000 0.151465
#
#
# Mechanical properties :
#
#
# Convention : Reuss Voigt Hill
#
# Bulk Modulus (GPa) = 23.06030 27.49546 25.27788
# Shear Modulus (GPa) = 13.79695 20.62876 17.21285
#
# Velocity S-wave (km/s) = 2.63168 3.21794 2.93946
# Velocity P-wave (km/s) = 4.56180 5.25441 4.92031
#
# Compressibility (1/GPa) = 0.04336457
#
# Stress axis : x y z
#
# Youngs Moduli (GPa) = 90.17030 26.11201 55.23691
#
# Poissons Ratio (x) = 0.07811 0.04217
# Poissons Ratio (y) = 0.26973 0.45892
# Poissons Ratio (z) = 0.06884 0.21694
#
# Static dielectric constant tensor:
#      x y z
#    x 1.669440 0.000000 0.000000 
#    y 0.000000 1.754840 0.000000 
#    z 0.000000 0.000000 1.786080 
# 
# From -- ./inp_files/19603.got.cif
#   From: 2010.05.17/outbox.cif.g08.bks.cpg/sg64_10_cif.got.tgz:19603.got - 2010.06.03 16:29:19.
