data_PCOD9478505
_publ_section_title
;
Structure prediction by ZEFSAII (Michael W. Deem and Ramdas Pophale) SiO2 
 PCOD9478505
Probable space group: C M C A
;
_chemical_formula_sum "Si O2"
_cell_formula_units_Z 72
_cell_length_a 20.692979
_cell_length_b 8.540555
_cell_length_c 20.087694
_cell_angle_alpha 90.000000
_cell_angle_beta 90.000000
_cell_angle_gamma 90.000000
_cell_volume 3550.088624
_symmetry_space_group_name_H-M "C M C A"
_symmetry_group_IT_number 64
_symmetry_cell_setting 'orthorhombic'
loop_
_space_group_symop_operation_xyz
x,y,z
-x,1/2-y,1/2+z
x,-y,-z
-x,1/2+y,1/2-z
-x,-y,-z
x,1/2+y,1/2-z
-x,y,z
x,1/2-y,1/2+z
1/2+x,1/2+y,z
1/2-x,-y,1/2+z
1/2+x,1/2-y,-z
1/2-x,y,1/2-z
1/2-x,1/2-y,-z
1/2+x,y,1/2-z
1/2-x,1/2+y,z
1/2+x,-y,1/2+z
loop_
_atom_site_type_symbol
_atom_site_label
_atom_site_fract_x
_atom_site_fract_y
_atom_site_fract_z
Si Si1 0.241681 0.000000 0.500000
Si Si2 0.500000 0.325191 0.346759
Si Si3 0.000000 0.812453 0.700856
Si Si4 0.775638 0.255824 0.904341
Si Si5 0.129878 0.368366 0.298182
Si Si6 0.634342 0.772355 0.654801
O O1 0.202917 0.912169 0.557841
O O2 0.284459 0.877545 0.459505
O O3 0.500000 0.212672 0.280980
O O4 0.500000 0.506275 0.321449
O O5 0.567981 0.281883 0.380680
O O6 0.935673 0.719801 0.679998
O O7 0.812549 0.214017 0.837924
O O8 0.699493 0.266947 0.887818
O O9 0.128314 0.550583 0.317096
O O10 0.139486 0.340639 0.219537
#
# Coordination Sequence:
#
# PCOD9478505 Si02
#       6
#     8   8   8  16  16  16
#     4  10  24  42  58  84 112 158 198 244 288 334
#     4  10  20  34  56  85 122 155 182 227 293 359
#     4  10  20  34  56  85 122 155 182 227 293 359
#     4  11  23  40  64  84 115 151 202 242 286 341
#     4  11  22  36  60  91 122 151 186 238 294 348
#     4  11  22  36  60  91 122 151 186 238 294 348
#
# _framework density 20.281184
#
# number of rings (size 3 to 8) (size 9 to 14) (size 15 to 20)
#    0.000    1.333    2.222    6.667    6.222    1.778 
#    0.000    0.000    0.000    8.000    0.000    0.000 
#    0.000    0.000    0.000    0.000    0.000    0.000 
#
# Total GULP energy -200896.805287 kJ/mol
# GULP energy per Si atom -5580.466814 kJ/mol
# Density = 2.023502 g / cm^3
# Si number density = 20.281184 Si / 1000 Ang^3
#
#
#
# Elastic Constant Matrix: (Units=GPa)
#
#
# Indices 1 2 3 4 5 6 
#
# 1 135.6324 24.3822 26.5840 0.0000 0.0000 0.0000
# 2 24.3822 101.7222 9.0381 0.0000 0.0000 0.0000
# 3 26.5840 9.0381 42.6407 0.0000 0.0000 0.0000
# 4 0.0000 0.0000 0.0000 31.7040 0.0000 0.0000
# 5 0.0000 0.0000 0.0000 0.0000 -4.8794 0.0000
# 6 0.0000 0.0000 0.0000 0.0000 0.0000-1006.5584
#
#
#
# Elastic Compliance Matrix: (Units=1/GPa)
#
#
# Indices 1 2 3 4 5 6 
#
# 1 0.008655 -0.001626 -0.005051 0.000000 0.000000 0.000000
# 2 -0.001626 0.010325 -0.001175 0.000000 0.000000 0.000000
# 3 -0.005051 -0.001175 0.026850 0.000000 0.000000 0.000000
# 4 0.000000 0.000000 0.000000 0.031542 0.000000 0.000000
# 5 0.000000 0.000000 0.000000 0.000000 -0.204942 0.000000
# 6 0.000000 0.000000 0.000000 0.000000 0.000000 -0.000993
#
#
# Mechanical properties :
#
#
# Convention : Reuss Voigt Hill
#
# Bulk Modulus (GPa) = 33.19398 44.44488 38.81943
# Shear Modulus (GPa) = -48.62988 -181.28071 -114.95529
#
# Velocity S-wave (km/s) = -4.90203 -9.46455 -7.53683
# Velocity P-wave (km/s) = 3.95442 9.87295 7.52039
#
# Compressibility (1/GPa) = 0.03012595
#
# Stress axis : x y z
#
# Youngs Moduli (GPa) = 115.53727 96.85447 37.24381
#
# Poissons Ratio (x) = 0.15746 0.18813
# Poissons Ratio (y) = 0.18784 0.04376
# Poissons Ratio (z) = 0.58363 0.11379
#
# Static dielectric constant tensor:
#      x y z
#    x 1.769920 0.000000 0.000000 
#    y 0.000000 1.782060 0.000000 
#    z 0.000000 0.000000 1.693260 
# 
# From -- ./inp_files/40732.got.cif
#   From: 2010.05.17/outbox.cif.g08.bks.cpg/sg64_21_cif.got.tgz:40732.got - 2010.06.03 16:29:19.
