data_PCOD9478967
_publ_section_title
;
Structure prediction by ZEFSAII (Michael W. Deem and Ramdas Pophale) SiO2 
 PCOD9478967
Probable space group: C M C A
;
_chemical_formula_sum "Si O2"
_cell_formula_units_Z 96
_cell_length_a 15.503847
_cell_length_b 11.961027
_cell_length_c 21.022736
_cell_angle_alpha 90.000000
_cell_angle_beta 90.000000
_cell_angle_gamma 90.000000
_cell_volume 3898.496792
_symmetry_space_group_name_H-M "C M C A"
_symmetry_group_IT_number 64
_symmetry_cell_setting 'orthorhombic'
loop_
_space_group_symop_operation_xyz
x,y,z
-x,1/2-y,1/2+z
x,-y,-z
-x,1/2+y,1/2-z
-x,-y,-z
x,1/2+y,1/2-z
-x,y,z
x,1/2-y,1/2+z
1/2+x,1/2+y,z
1/2-x,-y,1/2+z
1/2+x,1/2-y,-z
1/2-x,y,1/2-z
1/2-x,1/2-y,-z
1/2+x,y,1/2-z
1/2-x,1/2+y,z
1/2+x,-y,1/2+z
loop_
_atom_site_type_symbol
_atom_site_label
_atom_site_fract_x
_atom_site_fract_y
_atom_site_fract_z
Si Si1 0.267007 0.833863 0.063014
Si Si2 0.402902 0.415075 0.113603
Si Si3 0.407850 0.621280 0.466473
Si Si4 0.155229 0.474650 0.844151
Si Si5 0.327115 0.645766 0.159449
Si Si6 0.645130 0.838918 0.249282
O O1 0.166800 0.867435 0.064279
O O2 0.180403 0.666585 0.002674
O O3 0.304923 0.935551 0.106340
O O4 0.297147 0.727533 0.103199
O O5 0.500000 0.405368 0.091567
O O6 0.381891 0.542981 0.132802
O O7 0.388045 0.347049 0.179397
O O8 0.413774 0.500000 0.500000
O O9 0.500000 0.677732 0.481695
O O10 0.399735 0.603335 0.390837
O O11 0.236310 0.406463 0.817569
O O12 0.113513 0.551952 0.790067
O O13 0.373129 0.724595 0.211413
O O14 0.750000 0.847424 0.250000
#
# Coordination Sequence:
#
# PCOD9478967 Si02
#       6
#    16  16  16  16  16  16
#     4   9  19  37  61  86 125 173 207 262 325 384
#     4  11  24  39  60  97 132 166 218 270 317 387
#     4   9  18  35  60  90 123 160 216 274 320 380
#     4   9  19  34  59  89 120 159 212 259 319 376
#     4  10  20  36  62  84 119 170 218 251 326 391
#     4  11  20  36  63  89 121 173 213 259 316 390
#
# _framework density 24.624874999999999
#
# number of rings (size 3 to 8) (size 9 to 14) (size 15 to 20)
#    0.000    2.167    5.000    0.000    2.333    2.667 
#    0.000    5.833    0.000   13.500    0.000    0.000 
#    0.000    0.000    0.000    0.000    0.000    0.000 
#
# Total GULP energy -268483.203445 kJ/mol
# GULP energy per Si atom -5593.400072 kJ/mol
# Density = 2.456883 g / cm^3
# Si number density = 24.624875 Si / 1000 Ang^3
#
#
#
# Elastic Constant Matrix: (Units=GPa)
#
#
# Indices 1 2 3 4 5 6 
#
# 1 166.9883 44.2236 45.2983 0.0000 0.0000 0.0000
# 2 44.2236 146.0607 48.1921 0.0000 0.0000 0.0000
# 3 45.2983 48.1921 71.1249 0.0000 0.0000 0.0000
# 4 0.0000 0.0000 0.0000 38.6244 0.0000 0.0000
# 5 0.0000 0.0000 0.0000 0.0000 15.2103 0.0000
# 6 0.0000 0.0000 0.0000 0.0000 0.0000 -5.7660
#
#
#
# Elastic Compliance Matrix: (Units=1/GPa)
#
#
# Indices 1 2 3 4 5 6 
#
# 1 0.007325 -0.000874 -0.004073 0.000000 0.000000 0.000000
# 2 -0.000874 0.008922 -0.005489 0.000000 0.000000 0.000000
# 3 -0.004073 -0.005489 0.020373 0.000000 0.000000 0.000000
# 4 0.000000 0.000000 0.000000 0.025890 0.000000 0.000000
# 5 0.000000 0.000000 0.000000 0.000000 0.065745 0.000000
# 6 0.000000 0.000000 0.000000 0.000000 0.000000 -0.173429
#
#
# Mechanical properties :
#
#
# Convention : Reuss Voigt Hill
#
# Bulk Modulus (GPa) = 63.49823 73.28909 68.39366
# Shear Modulus (GPa) = -262.41145 26.04439 -118.18353
#
# Velocity S-wave (km/s) = -10.33416 3.25567 -6.93525
# Velocity P-wave (km/s) = 10.79588 6.63019 6.02460
#
# Compressibility (1/GPa) = 0.01574847
#
# Stress axis : x y z
#
# Youngs Moduli (GPa) = 136.52419 112.08188 49.08534
#
# Poissons Ratio (x) = 0.09795 0.19992
# Poissons Ratio (y) = 0.11931 0.26942
# Poissons Ratio (z) = 0.55604 0.61519
#
# Static dielectric constant tensor:
#      x y z
#    x 1.972950 0.000000 0.000000 
#    y 0.000000 2.006350 0.000000 
#    z 0.000000 0.000000 1.958750 
# 
# From -- ./inp_files/45768.got.cif
#   From: 2010.05.17/outbox.cif.g08.bks.cpg/sg64_23_cif.got.tgz:45768.got - 2010.06.03 16:29:19.
