data_PCOD9478317
_publ_section_title
;
Structure prediction by ZEFSAII (Michael W. Deem and Ramdas Pophale) SiO2 
 PCOD9478317
Probable space group: C M C A
;
_chemical_formula_sum "Si O2"
_cell_formula_units_Z 80
_cell_length_a 8.789072
_cell_length_b 28.231221
_cell_length_c 18.727803
_cell_angle_alpha 90.000000
_cell_angle_beta 90.000000
_cell_angle_gamma 90.000000
_cell_volume 4646.859230
_symmetry_space_group_name_H-M "C M C A"
_symmetry_group_IT_number 64
_symmetry_cell_setting 'orthorhombic'
loop_
_space_group_symop_operation_xyz
x,y,z
-x,1/2-y,1/2+z
x,-y,-z
-x,1/2+y,1/2-z
-x,-y,-z
x,1/2+y,1/2-z
-x,y,z
x,1/2-y,1/2+z
1/2+x,1/2+y,z
1/2-x,-y,1/2+z
1/2+x,1/2-y,-z
1/2-x,y,1/2-z
1/2-x,1/2-y,-z
1/2+x,y,1/2-z
1/2-x,1/2+y,z
1/2+x,-y,1/2+z
loop_
_atom_site_type_symbol
_atom_site_label
_atom_site_fract_x
_atom_site_fract_y
_atom_site_fract_z
Si Si1 0.182464 0.646688 0.537769
Si Si2 0.183675 0.192711 0.398903
Si Si3 0.684019 0.551966 0.474674
Si Si4 0.682069 0.594672 0.325755
Si Si5 0.683426 0.292291 0.171426
O O1 0.243430 0.681525 0.475533
O O2 0.248443 0.594926 0.520762
O O3 0.227784 0.667295 0.614711
O O4 0.000000 0.645532 0.533891
O O5 0.225188 0.148309 0.348284
O O6 0.230448 0.241916 0.363159
O O7 0.000000 0.192653 0.407203
O O8 0.730849 0.500000 0.500000
O O9 0.500000 0.555076 0.478561
O O10 0.728840 0.562178 0.392599
O O11 0.500000 0.593136 0.320840
O O12 0.750000 0.581493 0.250000
O O13 0.500000 0.291796 0.176291
O O14 0.750000 0.298313 0.250000
#
# Coordination Sequence:
#
# PCOD9478317 Si02
#       5
#    16  16  16  16  16
#     4  10  20  33  51  77 103 128 165 211 254 297
#     4   9  18  33  51  72 100 135 172 204 240 294
#     4   9  19  37  57  73  94 130 171 207 251 307
#     4   9  17  29  48  74  99 123 156 200 248 295
#     4  10  21  34  49  73 105 139 174 207 241 289
#
# _framework density 17.215928999999999
#
# number of rings (size 3 to 8) (size 9 to 14) (size 15 to 20)
#    0.000    2.600    0.000    3.000    0.000    6.000 
#    0.000    1.000    0.000    4.800    0.000    0.000 
#    0.000    0.000    0.000    0.000    0.000    0.000 
#
# Total GULP energy -223121.735508 kJ/mol
# GULP energy per Si atom -5578.043388 kJ/mol
# Density = 1.717675 g / cm^3
# Si number density = 17.215929 Si / 1000 Ang^3
#
#
#
# Elastic Constant Matrix: (Units=GPa)
#
#
# Indices 1 2 3 4 5 6 
#
# 1 14.3021 32.4286 39.2905 0.0000 0.0000 0.0000
# 2 32.4286 128.2091 112.6935 0.0000 0.0000 0.0000
# 3 39.2905 112.6935 174.6092 0.0000 0.0000 0.0000
# 4 0.0000 0.0000 0.0000 15.4297 0.0000 0.0000
# 5 0.0000 0.0000 0.0000 0.0000 32.8978 0.0000
# 6 0.0000 0.0000 0.0000 0.0000 0.0000 16.5417
#
#
#
# Elastic Compliance Matrix: (Units=1/GPa)
#
#
# Indices 1 2 3 4 5 6 
#
# 1 0.219305 -0.027950 -0.031309 0.000000 0.000000 0.000000
# 2 -0.027950 0.021588 -0.007644 0.000000 0.000000 0.000000
# 3 -0.031309 -0.007644 0.017705 0.000000 0.000000 0.000000
# 4 0.000000 0.000000 0.000000 0.064810 0.000000 0.000000
# 5 0.000000 0.000000 0.000000 0.000000 0.030397 0.000000
# 6 0.000000 0.000000 0.000000 0.000000 0.000000 0.060453
#
#
# Mechanical properties :
#
#
# Convention : Reuss Voigt Hill
#
# Bulk Modulus (GPa) = 8.01326 76.21617 42.11471
# Shear Modulus (GPa) = 8.47945 21.82104 15.15024
#
# Velocity S-wave (km/s) = 2.22172 3.56405 2.96972
# Velocity P-wave (km/s) = 3.35351 7.82965 6.02285
#
# Compressibility (1/GPa) = 0.12479319
#
# Stress axis : x y z
#
# Youngs Moduli (GPa) = 4.55986 46.32215 56.48003
#
# Poissons Ratio (x) = 1.29471 1.76832
# Poissons Ratio (y) = 0.12745 0.43171
# Poissons Ratio (z) = 0.14276 0.35407
#
# Static dielectric constant tensor:
#      x y z
#    x 1.590890 0.000000 0.000000 
#    y 0.000000 1.574860 0.000000 
#    z 0.000000 0.000000 1.568380 
# 
# From -- ./inp_files/22538.got.cif
#   From: 2010.05.17/outbox.cif.g08.bks.cpg/sg64_12_cif.got.tgz:22538.got - 2010.06.03 16:29:19.
