data_PCOD9478834
_publ_section_title
;
Structure prediction by ZEFSAII (Michael W. Deem and Ramdas Pophale) SiO2 
 PCOD9478834
Probable space group: C M C A
;
_chemical_formula_sum "Si O2"
_cell_formula_units_Z 96
_cell_length_a 25.267299
_cell_length_b 22.203775
_cell_length_c 8.651756
_cell_angle_alpha 90.000000
_cell_angle_beta 90.000000
_cell_angle_gamma 90.000000
_cell_volume 4853.889667
_symmetry_space_group_name_H-M "C M C A"
_symmetry_group_IT_number 64
_symmetry_cell_setting 'orthorhombic'
loop_
_space_group_symop_operation_xyz
x,y,z
-x,1/2-y,1/2+z
x,-y,-z
-x,1/2+y,1/2-z
-x,-y,-z
x,1/2+y,1/2-z
-x,y,z
x,1/2-y,1/2+z
1/2+x,1/2+y,z
1/2-x,-y,1/2+z
1/2+x,1/2-y,-z
1/2-x,y,1/2-z
1/2-x,1/2-y,-z
1/2+x,y,1/2-z
1/2-x,1/2+y,z
1/2+x,-y,1/2+z
loop_
_atom_site_type_symbol
_atom_site_label
_atom_site_fract_x
_atom_site_fract_y
_atom_site_fract_z
Si Si1 0.902615 0.320889 0.384354
Si Si2 0.261276 0.064257 0.064759
Si Si3 0.789169 0.266229 0.362903
Si Si4 0.439508 0.206154 0.962616
Si Si5 0.641768 0.571094 0.024721
Si Si6 0.152056 0.853442 0.664644
O O1 0.841727 0.300769 0.405817
O O2 0.921886 0.306777 0.212287
O O3 0.934124 0.277361 0.500189
O O4 0.899323 0.390947 0.422715
O O5 0.250000 0.060433 0.250000
O O6 0.204692 0.079493 0.988937
O O7 0.308578 0.111357 0.049282
O O8 0.278193 0.000000 0.000000
O O9 0.750000 0.300902 0.250000
O O10 0.750000 0.250000 0.500000
O O11 0.812626 0.204613 0.285481
O O12 0.500000 0.187683 0.986340
O O13 0.398902 0.172606 0.077322
O O14 0.637368 0.601615 0.195686
O O15 0.632677 0.500000 0.000000
#
# Coordination Sequence:
#
# PCOD9478834 Si02
#       6
#    16  16  16  16  16  16
#     4  11  22  38  60  88 117 153 197 242 302 365
#     4   9  18  32  53  83 121 161 194 228 278 348
#     4  11  19  31  53  84 121 152 183 234 295 358
#     4  11  24  41  64  88 113 150 198 260 315 355
#     4  10  21  38  60  87 124 164 198 234 287 363
#     4  10  20  36  57  84 118 156 197 241 295 353
#
# _framework density 19.777953
#
# number of rings (size 3 to 8) (size 9 to 14) (size 15 to 20)
#    0.000    1.667    0.000    8.000    0.000    4.000 
#    0.000    4.167    0.000    8.000    0.000    0.000 
#    0.000    0.000    0.000    0.000    0.000    0.000 
#
# Total GULP energy -267802.127990 kJ/mol
# GULP energy per Si atom -5579.211000 kJ/mol
# Density = 1.973294 g / cm^3
# Si number density = 19.777953 Si / 1000 Ang^3
#
#
#
# Elastic Constant Matrix: (Units=GPa)
#
#
# Indices 1 2 3 4 5 6 
#
# 1 115.0988 42.3172 35.4672 0.0000 0.0000 0.0000
# 2 42.3172 129.4894 32.5145 0.0000 0.0000 0.0000
# 3 35.4672 32.5145 66.8046 0.0000 0.0000 0.0000
# 4 0.0000 0.0000 0.0000 30.3326 0.0000 0.0000
# 5 0.0000 0.0000 0.0000 0.0000 13.0212 0.0000
# 6 0.0000 0.0000 0.0000 0.0000 0.0000 7.0271
#
#
#
# Elastic Compliance Matrix: (Units=1/GPa)
#
#
# Indices 1 2 3 4 5 6 
#
# 1 0.011020 -0.002429 -0.004668 0.000000 0.000000 0.000000
# 2 -0.002429 0.009333 -0.003253 0.000000 0.000000 0.000000
# 3 -0.004668 -0.003253 0.019031 0.000000 0.000000 0.000000
# 4 0.000000 0.000000 0.000000 0.032968 0.000000 0.000000
# 5 0.000000 0.000000 0.000000 0.000000 0.076798 0.000000
# 6 0.000000 0.000000 0.000000 0.000000 0.000000 0.142307
#
#
# Mechanical properties :
#
#
# Convention : Reuss Voigt Hill
#
# Bulk Modulus (GPa) = 53.52420 59.11008 56.31714
# Shear Modulus (GPa) = 15.70429 23.48243 19.59336
#
# Velocity S-wave (km/s) = 2.82091 3.44947 3.15090
# Velocity P-wave (km/s) = 6.14259 6.76881 6.46329
#
# Compressibility (1/GPa) = 0.01868314
#
# Stress axis : x y z
#
# Youngs Moduli (GPa) = 90.74609 107.14350 52.54670
#
# Poissons Ratio (x) = 0.26026 0.24530
# Poissons Ratio (y) = 0.22043 0.17093
# Poissons Ratio (z) = 0.42362 0.34854
#
# Static dielectric constant tensor:
#      x y z
#    x 1.681370 0.000000 0.000000 
#    y 0.000000 1.749610 0.000000 
#    z 0.000000 0.000000 1.779990 
# 
# From -- ./inp_files/10377.got.cif
#   From: 2010.05.17/outbox.cif.g08.bks.cpg/sg64_6_cif.got.tgz:10377.got - 2010.06.03 16:29:19.
