data_PCOD9478776
_publ_section_title
;
Structure prediction by ZEFSAII (Michael W. Deem and Ramdas Pophale) SiO2 
 PCOD9478776
Probable space group: C M C A
;
_chemical_formula_sum "Si O2"
_cell_formula_units_Z 72
_cell_length_a 19.442312
_cell_length_b 21.915475
_cell_length_c 9.158093
_cell_angle_alpha 90.000000
_cell_angle_beta 90.000000
_cell_angle_gamma 90.000000
_cell_volume 3902.148975
_symmetry_space_group_name_H-M "C M C A"
_symmetry_group_IT_number 64
_symmetry_cell_setting 'orthorhombic'
loop_
_space_group_symop_operation_xyz
x,y,z
-x,1/2-y,1/2+z
x,-y,-z
-x,1/2+y,1/2-z
-x,-y,-z
x,1/2+y,1/2-z
-x,y,z
x,1/2-y,1/2+z
1/2+x,1/2+y,z
1/2-x,-y,1/2+z
1/2+x,1/2-y,-z
1/2-x,y,1/2-z
1/2-x,1/2-y,-z
1/2+x,y,1/2-z
1/2-x,1/2+y,z
1/2+x,-y,1/2+z
loop_
_atom_site_type_symbol
_atom_site_label
_atom_site_fract_x
_atom_site_fract_y
_atom_site_fract_z
Si Si1 0.500000 0.045673 0.298071
Si Si2 0.395724 0.867916 0.539950
Si Si3 0.000000 0.599496 0.698926
Si Si4 0.424397 0.274879 0.706166
Si Si5 0.709281 0.702099 0.897222
Si Si6 0.000000 0.629362 0.034129
O O1 0.431690 0.076612 0.370688
O O2 0.500000 0.068825 0.131961
O O3 0.500000 0.973910 0.315730
O O4 0.434832 0.874850 0.387472
O O5 0.415007 0.809105 0.639011
O O6 0.316929 0.855029 0.495567
O O7 0.000000 0.615999 0.866539
O O8 0.500000 0.244051 0.711138
O O9 0.359297 0.236231 0.661409
O O10 0.436129 0.328790 0.587218
O O11 0.750000 0.685198 0.750000
O O12 0.750000 0.750000 0.000000
#
# Coordination Sequence:
#
# PCOD9478776 Si02
#       6
#     8  16   8  16  16   8
#     4   9  19  38  58  91 115 149 190 259 303 329
#     4  10  20  36  54  83 115 152 192 237 291 351
#     4  11  19  32  64  95 107 147 202 255 293 341
#     4   9  20  38  55  82 124 155 190 240 297 349
#     4  12  25  38  56  85 124 164 196 235 296 367
#     4   8  19  32  58  90 120 140 187 246 298 346
#
# _framework density 18.451371000000002
#
# number of rings (size 3 to 8) (size 9 to 14) (size 15 to 20)
#    0.667    1.333    4.444    1.667    6.222    0.000 
#    0.000    0.000    0.000    0.000   34.667    0.000 
#    0.000    0.000    0.000    0.000    0.000    0.000 
#
# Total GULP energy -200439.733810 kJ/mol
# GULP energy per Si atom -5567.770384 kJ/mol
# Density = 1.840938 g / cm^3
# Si number density = 18.451371 Si / 1000 Ang^3
#
#
#
# Elastic Constant Matrix: (Units=GPa)
#
#
# Indices 1 2 3 4 5 6 
#
# 1 85.5193 35.8443 32.6732 0.0000 0.0000 0.0000
# 2 35.8443 87.1821 36.2366 0.0000 0.0000 0.0000
# 3 32.6732 36.2366 144.4404 0.0000 0.0000 0.0000
# 4 0.0000 0.0000 0.0000 19.9323 0.0000 0.0000
# 5 0.0000 0.0000 0.0000 0.0000 26.0657 0.0000
# 6 0.0000 0.0000 0.0000 0.0000 0.0000 14.1715
#
#
#
# Elastic Compliance Matrix: (Units=1/GPa)
#
#
# Indices 1 2 3 4 5 6 
#
# 1 0.014633 -0.005181 -0.002010 0.000000 0.000000 0.000000
# 2 -0.005181 0.014640 -0.002501 0.000000 0.000000 0.000000
# 3 -0.002010 -0.002501 0.008005 0.000000 0.000000 0.000000
# 4 0.000000 0.000000 0.000000 0.050170 0.000000 0.000000
# 5 0.000000 0.000000 0.000000 0.000000 0.038365 0.000000
# 6 0.000000 0.000000 0.000000 0.000000 0.000000 0.070564
#
#
# Mechanical properties :
#
#
# Convention : Reuss Voigt Hill
#
# Bulk Modulus (GPa) = 55.88372 58.51665 57.20019
# Shear Modulus (GPa) = 22.55050 26.19308 24.37179
#
# Velocity S-wave (km/s) = 3.49973 3.77181 3.63832
# Velocity P-wave (km/s) = 6.83254 7.12401 6.97980
#
# Compressibility (1/GPa) = 0.01789430
#
# Stress axis : x y z
#
# Youngs Moduli (GPa) = 68.34021 68.30757 124.91529
#
# Poissons Ratio (x) = 0.35387 0.25112
# Poissons Ratio (y) = 0.35404 0.31240
# Poissons Ratio (z) = 0.13739 0.17083
#
# Static dielectric constant tensor:
#      x y z
#    x 1.657110 0.000000 0.000000 
#    y 0.000000 1.665620 0.000000 
#    z 0.000000 0.000000 1.673430 
# 
# From -- ./inp_files/8066.got.cif
#   From: 2010.05.17/outbox.cif.g08.bks.cpg/sg64_5_cif.got.tgz:8066.got - 2010.06.03 16:29:19.
