data_PCOD9478513
_publ_section_title
;
Structure prediction by ZEFSAII (Michael W. Deem and Ramdas Pophale) SiO2 
 PCOD9478513
Probable space group: C M C A
;
_chemical_formula_sum "Si O2"
_cell_formula_units_Z 112
_cell_length_a 14.480755
_cell_length_b 14.575911
_cell_length_c 28.225831
_cell_angle_alpha 90.000000
_cell_angle_beta 90.000000
_cell_angle_gamma 90.000000
_cell_volume 5957.631684
_symmetry_space_group_name_H-M "C M C A"
_symmetry_group_IT_number 64
_symmetry_cell_setting 'orthorhombic'
loop_
_space_group_symop_operation_xyz
x,y,z
-x,1/2-y,1/2+z
x,-y,-z
-x,1/2+y,1/2-z
-x,-y,-z
x,1/2+y,1/2-z
-x,y,z
x,1/2-y,1/2+z
1/2+x,1/2+y,z
1/2-x,-y,1/2+z
1/2+x,1/2-y,-z
1/2-x,y,1/2-z
1/2-x,1/2-y,-z
1/2+x,y,1/2-z
1/2-x,1/2+y,z
1/2+x,-y,1/2+z
loop_
_atom_site_type_symbol
_atom_site_label
_atom_site_fract_x
_atom_site_fract_y
_atom_site_fract_z
Si Si1 0.104869 0.703080 0.719434
Si Si2 0.779262 0.428014 0.345468
Si Si3 0.604512 0.661545 0.925715
Si Si4 0.110004 0.694709 0.831983
Si Si5 0.599765 0.342111 0.638419
Si Si6 0.108465 0.599096 0.476184
Si Si7 0.197816 0.118633 0.125770
O O1 0.175041 0.633310 0.695544
O O2 0.115505 0.709468 0.775323
O O3 0.114210 0.798344 0.690682
O O4 0.000000 0.671632 0.708895
O O5 0.822395 0.395927 0.395696
O O6 0.671902 0.395421 0.344284
O O7 0.820272 0.530726 0.340909
O O8 0.500000 0.619926 0.924330
O O9 0.597797 0.756590 0.897862
O O10 0.630512 0.668584 0.980765
O O11 0.159740 0.784301 0.854985
O O12 0.000000 0.689047 0.844384
O O13 0.500000 0.388906 0.636911
O O14 0.691655 0.392254 0.624292
O O15 0.124877 0.500000 0.500000
O O16 0.160944 0.609675 0.427349
O O17 0.000000 0.607707 0.465384
#
# Coordination Sequence:
#
# PCOD9478513 Si02
#       7
#    16  16  16  16  16  16  16
#     4   9  19  40  63  79 114 158 195 247 305 352
#     4  11  21  37  60  89 118 156 199 247 303 364
#     4   9  17  35  60  82 112 150 194 245 297 345
#     4  11  24  42  59  88 128 159 197 258 312 357
#     4   9  19  37  60  85 113 152 201 246 290 356
#     4  10  20  34  56  90 123 150 197 261 306 352
#     4  12  23  36  64  90 119 162 207 246 305 372
#
# _framework density 18.799417999999999
#
# number of rings (size 3 to 8) (size 9 to 14) (size 15 to 20)
#    0.000    1.857    4.286    2.143    0.000    2.857 
#    5.143    0.000    0.000    0.429    0.000    0.000 
#    0.000    0.000    0.000    0.000    0.000    0.000 
#
# Total GULP energy -311771.608496 kJ/mol
# GULP energy per Si atom -5567.350152 kJ/mol
# Density = 1.875663 g / cm^3
# Si number density = 18.799418 Si / 1000 Ang^3
#
#
#
# Elastic Constant Matrix: (Units=GPa)
#
#
# Indices 1 2 3 4 5 6 
#
# 1 84.1279 -2.4965 42.5099 0.0000 0.0000 0.0000
# 2 -2.4965 22.7357 13.6744 0.0000 0.0000 0.0000
# 3 42.5099 13.6744 92.3050 0.0000 0.0000 0.0000
# 4 0.0000 0.0000 0.0000 12.4336 0.0000 0.0000
# 5 0.0000 0.0000 0.0000 0.0000 5.5414 0.0000
# 6 0.0000 0.0000 0.0000 0.0000 0.0000 15.0460
#
#
#
# Elastic Compliance Matrix: (Units=1/GPa)
#
#
# Indices 1 2 3 4 5 6 
#
# 1 0.016443 0.006982 -0.008607 0.000000 0.000000 0.000000
# 2 0.006982 0.051251 -0.010808 0.000000 0.000000 0.000000
# 3 -0.008607 -0.010808 0.016399 0.000000 0.000000 0.000000
# 4 0.000000 0.000000 0.000000 0.080427 0.000000 0.000000
# 5 0.000000 0.000000 0.000000 0.000000 0.180459 0.000000
# 6 0.000000 0.000000 0.000000 0.000000 0.000000 0.066463
#
#
# Mechanical properties :
#
#
# Convention : Reuss Voigt Hill
#
# Bulk Modulus (GPa) = 16.88425 34.06047 25.47236
# Shear Modulus (GPa) = 10.96373 16.30292 13.63332
#
# Velocity S-wave (km/s) = 2.41756 2.94803 2.69587
# Velocity P-wave (km/s) = 4.09800 5.45390 4.82382
#
# Compressibility (1/GPa) = 0.05922680
#
# Stress axis : x y z
#
# Youngs Moduli (GPa) = 60.81622 19.51187 60.98064
#
# Poissons Ratio (x) = -0.13624 0.52486
# Poissons Ratio (y) = -0.42463 0.65908
# Poissons Ratio (z) = 0.52344 0.21089
#
# Static dielectric constant tensor:
#      x y z
#    x 1.720420 0.000000 0.000000 
#    y 0.000000 1.729840 0.000000 
#    z 0.000000 0.000000 1.634220 
# 
# From -- ./inp_files/53365.got.cif
#   From: 2010.05.17/outbox.cif.g08.bks.cpg/sg64_27_cif.got.tgz:53365.got - 2010.06.03 16:29:19.
