data_PCOD9478600
_publ_section_title
;
Structure prediction by ZEFSAII (Michael W. Deem and Ramdas Pophale) SiO2 
 PCOD9478600
Probable space group: C M C A
;
_chemical_formula_sum "Si O2"
_cell_formula_units_Z 80
_cell_length_a 8.865007
_cell_length_b 19.466361
_cell_length_c 25.704520
_cell_angle_alpha 90.000000
_cell_angle_beta 90.000000
_cell_angle_gamma 90.000000
_cell_volume 4435.814276
_symmetry_space_group_name_H-M "C M C A"
_symmetry_group_IT_number 64
_symmetry_cell_setting 'orthorhombic'
loop_
_space_group_symop_operation_xyz
x,y,z
-x,1/2-y,1/2+z
x,-y,-z
-x,1/2+y,1/2-z
-x,-y,-z
x,1/2+y,1/2-z
-x,y,z
x,1/2-y,1/2+z
1/2+x,1/2+y,z
1/2-x,-y,1/2+z
1/2+x,1/2-y,-z
1/2-x,y,1/2-z
1/2-x,1/2-y,-z
1/2+x,y,1/2-z
1/2-x,1/2+y,z
1/2+x,-y,1/2+z
loop_
_atom_site_type_symbol
_atom_site_label
_atom_site_fract_x
_atom_site_fract_y
_atom_site_fract_z
Si Si1 0.321049 0.119235 0.971727
Si Si2 0.321118 0.482501 0.374843
Si Si3 0.179724 0.617157 0.416202
Si Si4 0.179829 0.734602 0.598459
Si Si5 0.179337 0.866526 0.194319
O O1 0.500000 0.125224 0.981473
O O2 0.257343 0.189199 0.946592
O O3 0.297351 0.060393 0.928434
O O4 0.236474 0.103545 0.025009
O O5 0.500000 0.490897 0.367857
O O6 0.241118 0.555322 0.380978
O O7 0.252888 0.435134 0.329688
O O8 0.250953 0.689965 0.400369
O O9 0.000000 0.620343 0.414620
O O10 0.207491 0.693515 0.652118
O O11 0.000000 0.737512 0.589458
O O12 0.250000 0.850653 0.250000
O O13 0.000000 0.875485 0.198711
#
# Coordination Sequence:
#
# PCOD9478600 Si02
#       5
#    16  16  16  16  16
#     4  10  20  35  55  79 110 149 187 222 266 321
#     4  10  21  37  57  81 110 144 184 226 268 320
#     4  12  23  34  52  80 115 149 182 224 272 321
#     4  10  21  37  56  80 110 144 184 225 268 321
#     4  10  21  39  63  85 106 137 177 223 273 326
#
# _framework density 18.035019999999999
#
# number of rings (size 3 to 8) (size 9 to 14) (size 15 to 20)
#    0.000    1.600    0.000    5.400    0.000    7.200 
#    0.000    1.000    0.000    2.400    0.000    0.000 
#    0.000    0.000    0.000    0.000    0.000    0.000 
#
# Total GULP energy -223636.737057 kJ/mol
# GULP energy per Si atom -5590.918426 kJ/mol
# Density = 1.799397 g / cm^3
# Si number density = 18.035020 Si / 1000 Ang^3
#
#
#
# Elastic Constant Matrix: (Units=GPa)
#
#
# Indices 1 2 3 4 5 6 
#
# 1 71.7340 24.3444 4.7878 0.0000 0.0000 0.0000
# 2 24.3444 64.4748 -24.2542 0.0000 0.0000 0.0000
# 3 4.7878 -24.2542 32.3386 0.0000 0.0000 0.0000
# 4 0.0000 0.0000 0.0000 7.4791 0.0000 0.0000
# 5 0.0000 0.0000 0.0000 0.0000 33.1577 0.0000
# 6 0.0000 0.0000 0.0000 0.0000 0.0000 31.5191
#
#
#
# Elastic Compliance Matrix: (Units=1/GPa)
#
#
# Indices 1 2 3 4 5 6 
#
# 1 0.018462 -0.011143 -0.011091 0.000000 0.000000 0.000000
# 2 -0.011143 0.028331 0.022899 0.000000 0.000000 0.000000
# 3 -0.011091 0.022899 0.049739 0.000000 0.000000 0.000000
# 4 0.000000 0.000000 0.000000 0.133705 0.000000 0.000000
# 5 0.000000 0.000000 0.000000 0.000000 0.030159 0.000000
# 6 0.000000 0.000000 0.000000 0.000000 0.000000 0.031727
#
#
# Mechanical properties :
#
#
# Convention : Reuss Voigt Hill
#
# Bulk Modulus (GPa) = 10.21851 19.81148 15.01500
# Shear Modulus (GPa) = 15.46002 25.34248 20.40125
#
# Velocity S-wave (km/s) = 2.93101 3.75264 3.36698
# Velocity P-wave (km/s) = 4.13916 5.45759 4.84345
#
# Compressibility (1/GPa) = 0.09786162
#
# Stress axis : x y z
#
# Youngs Moduli (GPa) = 54.16445 35.29656 20.10498
#
# Poissons Ratio (x) = 0.39332 0.22298
# Poissons Ratio (y) = 0.60356 -0.46037
# Poissons Ratio (z) = 0.60073 -0.80824
#
# Static dielectric constant tensor:
#      x y z
#    x 1.593810 0.000000 0.000000 
#    y 0.000000 1.605010 0.000000 
#    z 0.000000 0.000000 1.599740 
# 
# From -- ./inp_files/47820.got.cif
#   From: 2010.05.17/outbox.cif.g08.bks.cpg/sg64_24_cif.got.tgz:47820.got - 2010.06.03 16:29:19.
