data_PCOD9478558
_publ_section_title
;
Structure prediction by ZEFSAII (Michael W. Deem and Ramdas Pophale) SiO2 
 PCOD9478558
Probable space group: C M C A
;
_chemical_formula_sum "Si O2"
_cell_formula_units_Z 72
_cell_length_a 10.921579
_cell_length_b 14.272344
_cell_length_c 21.958217
_cell_angle_alpha 90.000000
_cell_angle_beta 90.000000
_cell_angle_gamma 90.000000
_cell_volume 3422.770726
_symmetry_space_group_name_H-M "C M C A"
_symmetry_group_IT_number 64
_symmetry_cell_setting 'orthorhombic'
loop_
_space_group_symop_operation_xyz
x,y,z
-x,1/2-y,1/2+z
x,-y,-z
-x,1/2+y,1/2-z
-x,-y,-z
x,1/2+y,1/2-z
-x,y,z
x,1/2-y,1/2+z
1/2+x,1/2+y,z
1/2-x,-y,1/2+z
1/2+x,1/2-y,-z
1/2-x,y,1/2-z
1/2-x,1/2-y,-z
1/2+x,y,1/2-z
1/2-x,1/2+y,z
1/2+x,-y,1/2+z
loop_
_atom_site_type_symbol
_atom_site_label
_atom_site_fract_x
_atom_site_fract_y
_atom_site_fract_z
Si Si1 0.642626 0.389626 0.000336
Si Si2 0.266024 0.593759 0.323449
Si Si3 0.755698 0.245808 0.908501
Si Si4 0.500000 0.014230 0.807880
Si Si5 0.500000 0.710415 0.646837
Si Si6 0.000000 0.577021 0.324060
O O1 0.500000 0.379406 0.980839
O O2 0.660319 0.335658 0.064648
O O3 0.670664 0.500000 0.000000
O O4 0.732414 0.329377 0.957242
O O5 0.250000 0.597001 0.250000
O O6 0.296536 0.696919 0.348836
O O7 0.377257 0.525398 0.338382
O O8 0.135120 0.559403 0.351116
O O9 0.621589 0.205550 0.893620
O O10 0.500000 0.974422 0.739956
O O11 0.500000 0.124904 0.807495
O O12 0.500000 0.810065 0.680655
#
# Coordination Sequence:
#
# PCOD9478558 Si02
#       6
#    16  16  16   8   8   8
#     4  10  22  40  62  86 117 159 206 252 305 366
#     4   9  19  37  62  89 127 157 196 249 301 365
#     4  10  21  39  62  87 122 159 197 253 312 356
#     4  10  20  34  61  93 114 158 211 244 286 362
#     4  10  20  38  63  84 123 162 191 252 315 353
#     4   8  18  40  58  80 127 163 191 240 303 361
#
# _framework density 21.035589999999999
#
# number of rings (size 3 to 8) (size 9 to 14) (size 15 to 20)
#    0.000    2.444    1.111    0.000    4.667    0.000 
#    0.000   27.222    0.000    0.000    0.000    0.000 
#    0.000    0.000    0.000    0.000    0.000    0.000 
#
# Total GULP energy -200685.680523 kJ/mol
# GULP energy per Si atom -5574.602237 kJ/mol
# Density = 2.098771 g / cm^3
# Si number density = 21.035590 Si / 1000 Ang^3
#
#
#
# Elastic Constant Matrix: (Units=GPa)
#
#
# Indices 1 2 3 4 5 6 
#
# 1 81.3825 54.2138 8.0007 0.0000 0.0000 0.0000
# 2 54.2138 119.4825 21.6581 0.0000 0.0000 0.0000
# 3 8.0007 21.6581 35.1179 0.0000 0.0000 0.0000
# 4 0.0000 0.0000 0.0000 9.9358 0.0000 0.0000
# 5 0.0000 0.0000 0.0000 0.0000 16.2649 0.0000
# 6 0.0000 0.0000 0.0000 0.0000 0.0000 12.9705
#
#
#
# Elastic Compliance Matrix: (Units=1/GPa)
#
#
# Indices 1 2 3 4 5 6 
#
# 1 0.017644 -0.008193 0.001033 0.000000 0.000000 0.000000
# 2 -0.008193 0.013227 -0.006291 0.000000 0.000000 0.000000
# 3 0.001033 -0.006291 0.032120 0.000000 0.000000 0.000000
# 4 0.000000 0.000000 0.000000 0.100646 0.000000 0.000000
# 5 0.000000 0.000000 0.000000 0.000000 0.061482 0.000000
# 6 0.000000 0.000000 0.000000 0.000000 0.000000 0.077098
#
#
# Mechanical properties :
#
#
# Convention : Reuss Voigt Hill
#
# Bulk Modulus (GPa) = 27.70901 44.85869 36.28385
# Shear Modulus (GPa) = 14.65633 17.97491 16.31562
#
# Velocity S-wave (km/s) = 2.64245 2.92635 2.78802
# Velocity P-wave (km/s) = 4.74458 5.72621 5.25835
#
# Compressibility (1/GPa) = 0.03608935
#
# Stress axis : x y z
#
# Youngs Moduli (GPa) = 56.67663 75.60149 31.13328
#
# Poissons Ratio (x) = 0.61940 -0.03216
# Poissons Ratio (y) = 0.46435 0.19586
# Poissons Ratio (z) = -0.05855 0.47561
#
# Static dielectric constant tensor:
#      x y z
#    x 1.803870 0.000000 0.000000 
#    y 0.000000 1.711820 0.000000 
#    z 0.000000 0.000000 1.831500 
# 
# From -- ./inp_files/43874.got.cif
#   From: 2010.05.17/outbox.cif.g08.bks.cpg/sg64_22_cif.got.tgz:43874.got - 2010.06.03 16:29:19.
