data_PCOD9478995
_publ_section_title
;
Structure prediction by ZEFSAII (Michael W. Deem and Ramdas Pophale) SiO2 
 PCOD9478995
Probable space group: C M C A
;
_chemical_formula_sum "Si O2"
_cell_formula_units_Z 88
_cell_length_a 26.752699
_cell_length_b 18.140769
_cell_length_c 8.720737
_cell_angle_alpha 90.000000
_cell_angle_beta 90.000000
_cell_angle_gamma 90.000000
_cell_volume 4232.300402
_symmetry_space_group_name_H-M "C M C A"
_symmetry_group_IT_number 64
_symmetry_cell_setting 'orthorhombic'
loop_
_space_group_symop_operation_xyz
x,y,z
-x,1/2-y,1/2+z
x,-y,-z
-x,1/2+y,1/2-z
-x,-y,-z
x,1/2+y,1/2-z
-x,y,z
x,1/2-y,1/2+z
1/2+x,1/2+y,z
1/2-x,-y,1/2+z
1/2+x,1/2-y,-z
1/2-x,y,1/2-z
1/2-x,1/2-y,-z
1/2+x,y,1/2-z
1/2-x,1/2+y,z
1/2+x,-y,1/2+z
loop_
_atom_site_type_symbol
_atom_site_label
_atom_site_fract_x
_atom_site_fract_y
_atom_site_fract_z
Si Si1 0.250000 0.755994 0.250000
Si Si2 0.605498 0.168977 0.911037
Si Si3 0.946810 0.768971 0.697724
Si Si4 0.441200 0.039298 0.742540
Si Si5 0.321700 0.707086 0.000476
Si Si6 0.584177 0.392592 0.919153
O O1 0.292134 0.801492 0.341652
O O2 0.220855 0.706425 0.371035
O O3 0.595596 0.213191 0.752829
O O4 0.592469 0.085596 0.863273
O O5 0.564383 0.193341 0.036633
O O6 0.653895 0.209823 0.983876
O O7 0.945840 0.830282 0.829141
O O8 0.000000 0.730302 0.695004
O O9 0.500000 0.031698 0.788360
O O10 0.439755 0.080919 0.577770
O O11 0.416241 0.961279 0.697996
O O12 0.362976 0.645904 0.040662
#
# Coordination Sequence:
#
# PCOD9478995 Si02
#       6
#     8  16  16  16  16  16
#     4  10  20  36  64  84 108 130 190 240 306 372
#     4  11  22  34  55  83 117 147 197 241 293 346
#     4  11  20  33  51  79 114 153 191 242 283 334
#     4  11  21  36  56  83 117 167 203 227 269 352
#     4  10  20  37  58  88 109 145 182 250 305 348
#     4  10  21  36  56  79 118 154 197 238 292 347
#
# _framework density 20.792476000000001
#
# number of rings (size 3 to 8) (size 9 to 14) (size 15 to 20)
#    0.000    1.455    0.000    9.273    0.000    0.727 
#    0.000    1.818    0.000   14.182    0.000    0.000 
#    0.000    0.000    0.000    0.000    0.000    0.364 
#
# Total GULP energy -245362.954404 kJ/mol
# GULP energy per Si atom -5576.430782 kJ/mol
# Density = 2.074515 g / cm^3
# Si number density = 20.792476 Si / 1000 Ang^3
#
#
#
# Elastic Constant Matrix: (Units=GPa)
#
#
# Indices 1 2 3 4 5 6 
#
# 1 125.6633 42.0739 28.6513 0.0000 0.0000 0.0000
# 2 42.0739 94.7989 17.6579 0.0000 0.0000 0.0000
# 3 28.6513 17.6579 64.2097 0.0000 0.0000 0.0000
# 4 0.0000 0.0000 0.0000 33.7831 0.0000 0.0000
# 5 0.0000 0.0000 0.0000 0.0000 37.1375 0.0000
# 6 0.0000 0.0000 0.0000 0.0000 0.0000 19.2449
#
#
#
# Elastic Compliance Matrix: (Units=1/GPa)
#
#
# Indices 1 2 3 4 5 6 
#
# 1 0.010012 -0.003806 -0.003421 0.000000 0.000000 0.000000
# 2 -0.003806 0.012565 -0.001757 0.000000 0.000000 0.000000
# 3 -0.003421 -0.001757 0.017584 0.000000 0.000000 0.000000
# 4 0.000000 0.000000 0.000000 0.029601 0.000000 0.000000
# 5 0.000000 0.000000 0.000000 0.000000 0.026927 0.000000
# 6 0.000000 0.000000 0.000000 0.000000 0.000000 0.051962
#
#
# Mechanical properties :
#
#
# Convention : Reuss Voigt Hill
#
# Bulk Modulus (GPa) = 45.06020 51.27091 48.16555
# Shear Modulus (GPa) = 28.73292 31.11902 29.92597
#
# Velocity S-wave (km/s) = 3.72141 3.87285 3.79789
# Velocity P-wave (km/s) = 6.33906 6.68660 6.51514
#
# Compressibility (1/GPa) = 0.02219253
#
# Stress axis : x y z
#
# Youngs Moduli (GPa) = 99.87846 79.58424 56.87135
#
# Poissons Ratio (x) = 0.30293 0.19454
# Poissons Ratio (y) = 0.38018 0.09992
# Poissons Ratio (z) = 0.34166 0.13983
#
# Static dielectric constant tensor:
#      x y z
#    x 1.769690 0.000000 0.000000 
#    y 0.000000 1.783070 0.000000 
#    z 0.000000 0.000000 1.798540 
# 
# From -- ./inp_files/11076.got.cif
#   From: 2010.05.17/outbox.cif.g08.bks.cpg/sg64_6_cif.got.tgz:11076.got - 2010.06.03 16:29:19.
