data_PCOD9478902
_publ_section_title
;
Structure prediction by ZEFSAII (Michael W. Deem and Ramdas Pophale) SiO2 
 PCOD9478902
Probable space group: C M C A
;
_chemical_formula_sum "Si O2"
_cell_formula_units_Z 80
_cell_length_a 8.565407
_cell_length_b 18.779979
_cell_length_c 26.329872
_cell_angle_alpha 90.000000
_cell_angle_beta 90.000000
_cell_angle_gamma 90.000000
_cell_volume 4235.374857
_symmetry_space_group_name_H-M "C M C A"
_symmetry_group_IT_number 64
_symmetry_cell_setting 'orthorhombic'
loop_
_space_group_symop_operation_xyz
x,y,z
-x,1/2-y,1/2+z
x,-y,-z
-x,1/2+y,1/2-z
-x,-y,-z
x,1/2+y,1/2-z
-x,y,z
x,1/2-y,1/2+z
1/2+x,1/2+y,z
1/2-x,-y,1/2+z
1/2+x,1/2-y,-z
1/2-x,y,1/2-z
1/2-x,1/2-y,-z
1/2+x,y,1/2-z
1/2-x,1/2+y,z
1/2+x,-y,1/2+z
loop_
_atom_site_type_symbol
_atom_site_label
_atom_site_fract_x
_atom_site_fract_y
_atom_site_fract_z
Si Si1 0.312595 0.078662 0.305295
Si Si2 0.809719 0.918203 0.000526
Si Si3 0.310979 0.827902 0.597920
Si Si4 0.812706 0.331670 0.399425
Si Si5 0.814032 0.919708 0.305401
O O1 0.500000 0.075150 0.303536
O O2 0.250000 0.100529 0.250000
O O3 0.266031 0.131915 0.350179
O O4 0.249615 0.999303 0.315864
O O5 0.761103 0.876943 0.051319
O O6 0.000000 0.919457 0.000345
O O7 0.761567 0.875226 0.950371
O O8 0.756353 0.000000 0.000000
O O9 0.500000 0.822826 0.597088
O O10 0.241191 0.749443 0.595263
O O11 0.743190 0.367125 0.349064
O O12 0.000000 0.334875 0.396756
O O13 0.750000 0.898621 0.250000
O O14 0.000000 0.921858 0.303559
#
# Coordination Sequence:
#
# PCOD9478902 Si02
#       5
#    16  16  16  16  16
#     4  10  20  36  59  84 112 147 187 231 279 331
#     4   9  18  35  59  83 109 146 191 235 280 333
#     4  10  21  37  57  82 115 153 191 233 281 333
#     4  11  22  36  57  84 115 150 188 232 284 338
#     4  11  22  38  60  84 113 147 187 233 279 333
#
# _framework density 18.888528999999998
#
# number of rings (size 3 to 8) (size 9 to 14) (size 15 to 20)
#    0.000    1.800    0.000    6.000    0.000    5.600 
#    0.000    3.000    0.000    4.200    0.000    0.000 
#    0.000    0.000    0.000    0.000    0.000    0.000 
#
# Total GULP energy -223554.404270 kJ/mol
# GULP energy per Si atom -5588.860107 kJ/mol
# Density = 1.884554 g / cm^3
# Si number density = 18.888529 Si / 1000 Ang^3
#
#
#
# Elastic Constant Matrix: (Units=GPa)
#
#
# Indices 1 2 3 4 5 6 
#
# 1 58.3037 44.8683 47.6618 0.0000 0.0000 0.0000
# 2 44.8683 176.1138 137.4449 0.0000 0.0000 0.0000
# 3 47.6618 137.4449 174.1931 0.0000 0.0000 0.0000
# 4 0.0000 0.0000 0.0000 41.5676 0.0000 0.0000
# 5 0.0000 0.0000 0.0000 0.0000 14.2133 0.0000
# 6 0.0000 0.0000 0.0000 0.0000 0.0000 -7.8960
#
#
#
# Elastic Compliance Matrix: (Units=1/GPa)
#
#
# Indices 1 2 3 4 5 6 
#
# 1 0.022480 -0.002412 -0.004247 0.000000 0.000000 0.000000
# 2 -0.002412 0.015038 -0.011205 0.000000 0.000000 0.000000
# 3 -0.004247 -0.011205 0.015744 0.000000 0.000000 0.000000
# 4 0.000000 0.000000 0.000000 0.024057 0.000000 0.000000
# 5 0.000000 0.000000 0.000000 0.000000 0.070357 0.000000
# 6 0.000000 0.000000 0.000000 0.000000 0.000000 -0.126647
#
#
# Mechanical properties :
#
#
# Convention : Reuss Voigt Hill
#
# Bulk Modulus (GPa) = 57.03851 96.50673 76.77262
# Shear Modulus (GPa) = 79.86865 21.48603 50.67734
#
# Velocity S-wave (km/s) = 6.50969 3.37637 5.18536
# Velocity P-wave (km/s) = 9.31474 8.14884 8.75122
#
# Compressibility (1/GPa) = 0.01753202
#
# Stress axis : x y z
#
# Youngs Moduli (GPa) = 44.48352 66.49977 63.51540
#
# Poissons Ratio (x) = 0.16043 0.26978
# Poissons Ratio (y) = 0.10731 0.71170
# Poissons Ratio (z) = 0.18894 0.74514
#
# Static dielectric constant tensor:
#      x y z
#    x 1.642740 0.000000 0.000000 
#    y 0.000000 1.615990 0.000000 
#    z 0.000000 0.000000 1.648750 
# 
# From -- ./inp_files/47781.got.cif
#   From: 2010.05.17/outbox.cif.g08.bks.cpg/sg64_24_cif.got.tgz:47781.got - 2010.06.03 16:29:19.
