data_PCOD9478289
_publ_section_title
;
Structure prediction by ZEFSAII (Michael W. Deem and Ramdas Pophale) SiO2 
 PCOD9478289
Probable space group: C M C A
;
_chemical_formula_sum "Si O2"
_cell_formula_units_Z 72
_cell_length_a 32.198808
_cell_length_b 21.746642
_cell_length_c 5.342163
_cell_angle_alpha 90.000000
_cell_angle_beta 90.000000
_cell_angle_gamma 90.000000
_cell_volume 3740.667742
_symmetry_space_group_name_H-M "C M C A"
_symmetry_group_IT_number 64
_symmetry_cell_setting 'orthorhombic'
loop_
_space_group_symop_operation_xyz
x,y,z
-x,1/2-y,1/2+z
x,-y,-z
-x,1/2+y,1/2-z
-x,-y,-z
x,1/2+y,1/2-z
-x,y,z
x,1/2-y,1/2+z
1/2+x,1/2+y,z
1/2-x,-y,1/2+z
1/2+x,1/2-y,-z
1/2-x,y,1/2-z
1/2-x,1/2-y,-z
1/2+x,y,1/2-z
1/2-x,1/2+y,z
1/2+x,-y,1/2+z
loop_
_atom_site_type_symbol
_atom_site_label
_atom_site_fract_x
_atom_site_fract_y
_atom_site_fract_z
Si Si1 0.250000 0.790909 0.250000
Si Si2 0.908282 0.178511 0.840963
Si Si3 0.293853 0.367121 0.900984
Si Si4 0.125647 0.319902 0.841910
Si Si5 0.000000 0.211793 0.716904
Si Si6 0.221874 0.000000 0.000000
O O1 0.250000 0.750000 0.500000
O O2 0.287329 0.836138 0.326945
O O3 0.883182 0.150775 0.609868
O O4 0.890442 0.249113 0.866612
O O5 0.956460 0.179021 0.769396
O O6 0.900433 0.151489 0.113553
O O7 0.250000 0.367331 0.750000
O O8 0.327306 0.327911 0.748123
O O9 0.303808 0.438531 0.940194
O O10 0.000000 0.234886 0.430608
O O11 0.250000 0.987860 0.250000
#
# Coordination Sequence:
#
# PCOD9478289 Si02
#       6
#     8  16  16  16   8   8
#     4  12  26  36  52  82 108 146 182 222 282 352
#     4  10  20  33  48  76 109 143 169 222 258 355
#     4  11  25  41  58  79 110 156 196 244 281 330
#     4  10  21  31  48  73 106 135 176 216 280 309
#     4  12  16  32  52  72 104 150 184 198 268 330
#     4  10  22  42  62  76  98 143 216 249 278 316
#
# _framework density 19.247899
#
# number of rings (size 3 to 8) (size 9 to 14) (size 15 to 20)
#    0.000    1.333    6.667    0.000    9.333    0.000 
#    0.000    0.000    0.000    0.000    0.000    0.000 
#    0.000    9.778    0.000    0.000    0.000    0.000 
#
# Total GULP energy -200555.576410 kJ/mol
# GULP energy per Si atom -5570.988234 kJ/mol
# Density = 1.920409 g / cm^3
# Si number density = 19.247899 Si / 1000 Ang^3
#
#
#
# Elastic Constant Matrix: (Units=GPa)
#
#
# Indices 1 2 3 4 5 6 
#
# 1 91.2664 9.0901 -9.0550 0.0000 0.0000 0.0000
# 2 9.0901 60.7093 6.6068 0.0000 0.0000 0.0000
# 3 -9.0550 6.6068 102.7664 0.0000 0.0000 0.0000
# 4 0.0000 0.0000 0.0000 8.7538 0.0000 0.0000
# 5 0.0000 0.0000 0.0000 0.0000 32.7726 0.0000
# 6 0.0000 0.0000 0.0000 0.0000 0.0000 3.2137
#
#
#
# Elastic Compliance Matrix: (Units=1/GPa)
#
#
# Indices 1 2 3 4 5 6 
#
# 1 0.011246 -0.001804 0.001107 0.000000 0.000000 0.000000
# 2 -0.001804 0.016877 -0.001244 0.000000 0.000000 0.000000
# 3 0.001107 -0.001244 0.009908 0.000000 0.000000 0.000000
# 4 0.000000 0.000000 0.000000 0.114236 0.000000 0.000000
# 5 0.000000 0.000000 0.000000 0.000000 0.030513 0.000000
# 6 0.000000 0.000000 0.000000 0.000000 0.000000 0.311172
#
#
# Mechanical properties :
#
#
# Convention : Reuss Voigt Hill
#
# Bulk Modulus (GPa) = 29.28316 29.78064 29.53190
# Shear Modulus (GPa) = 9.81893 25.48803 17.65348
#
# Velocity S-wave (km/s) = 2.26106 3.64290 3.03176
# Velocity P-wave (km/s) = 4.69715 5.76195 5.25658
#
# Compressibility (1/GPa) = 0.03414933
#
# Stress axis : x y z
#
# Youngs Moduli (GPa) = 88.91670 59.25053 100.92530
#
# Poissons Ratio (x) = 0.10691 -0.11172
# Poissons Ratio (y) = 0.16044 0.12555
# Poissons Ratio (z) = -0.09843 0.07371
#
# Static dielectric constant tensor:
#      x y z
#    x 1.748540 0.000000 0.000000 
#    y 0.000000 1.739490 0.000000 
#    z 0.000000 0.000000 1.790950 
# 
# From -- ./inp_files/3255.got.cif
#   From: 2010.05.17/outbox.cif.g08.bks.cpg/sg64_2_cif.got.tgz:3255.got - 2010.06.03 16:29:19.
