data_PCOD9478372
_publ_section_title
;
Structure prediction by ZEFSAII (Michael W. Deem and Ramdas Pophale) SiO2 
 PCOD9478372
Probable space group: C M C A
;
_chemical_formula_sum "Si O2"
_cell_formula_units_Z 104
_cell_length_a 14.543484
_cell_length_b 18.364065
_cell_length_c 22.088589
_cell_angle_alpha 90.000000
_cell_angle_beta 90.000000
_cell_angle_gamma 90.000000
_cell_volume 5899.364808
_symmetry_space_group_name_H-M "C M C A"
_symmetry_group_IT_number 64
_symmetry_cell_setting 'orthorhombic'
loop_
_space_group_symop_operation_xyz
x,y,z
-x,1/2-y,1/2+z
x,-y,-z
-x,1/2+y,1/2-z
-x,-y,-z
x,1/2+y,1/2-z
-x,y,z
x,1/2-y,1/2+z
1/2+x,1/2+y,z
1/2-x,-y,1/2+z
1/2+x,1/2-y,-z
1/2-x,y,1/2-z
1/2-x,1/2-y,-z
1/2+x,y,1/2-z
1/2-x,1/2+y,z
1/2+x,-y,1/2+z
loop_
_atom_site_type_symbol
_atom_site_label
_atom_site_fract_x
_atom_site_fract_y
_atom_site_fract_z
Si Si1 0.248961 0.006589 0.932221
Si Si2 0.393805 0.627067 0.538167
Si Si3 0.181503 0.652788 0.090335
Si Si4 0.500000 0.774642 0.706175
Si Si5 0.677113 0.269239 0.358842
Si Si6 0.500000 0.313383 0.662382
Si Si7 0.295930 0.096553 0.688464
Si Si8 0.500000 0.346337 0.203073
O O1 0.340286 0.052871 0.947635
O O2 0.209374 0.050853 0.874438
O O3 0.271344 0.926077 0.909372
O O4 0.201901 0.000000 0.000000
O O5 0.500000 0.612656 0.528267
O O6 0.351097 0.662829 0.478453
O O7 0.376882 0.681935 0.592829
O O8 0.250930 0.714964 0.110706
O O9 0.091209 0.656042 0.131917
O O10 0.597922 0.778338 0.673462
O O11 0.500000 0.825005 0.765484
O O12 0.500000 0.691717 0.731420
O O13 0.737869 0.327923 0.321045
O O14 0.500000 0.224429 0.658332
O O15 0.250000 0.063563 0.750000
O O16 0.403984 0.112420 0.697217
#
# Coordination Sequence:
#
# PCOD9478372 Si02
#       8
#    16  16  16   8  16   8  16   8
#     4   9  23  40  59  84 123 164 198 243 304 354
#     4  10  20  35  62  87 110 152 204 253 290 349
#     4  11  21  37  56  86 122 151 192 240 310 352
#     4  10  20  35  55  90 115 155 195 239 307 347
#     4  11  20  36  61  84 121 149 193 250 298 358
#     4  10  20  33  56  88 115 146 190 243 290 354
#     4  11  20  39  62  90 116 157 204 248 297 358
#     4  10  20  36  61  92 113 153 202 248 297 355
#
# _framework density 17.629016
#
# number of rings (size 3 to 8) (size 9 to 14) (size 15 to 20)
#    0.462    1.231    4.615    0.462    1.077    0.923 
#    2.769    1.154    0.000    0.000    0.000    0.000 
#    0.000    0.000    0.000    0.000    0.000    0.000 
#
# Total GULP energy -289476.733333 kJ/mol
# GULP energy per Si atom -5566.860256 kJ/mol
# Density = 1.758889 g / cm^3
# Si number density = 17.629016 Si / 1000 Ang^3
#
#
#
# Elastic Constant Matrix: (Units=GPa)
#
#
# Indices 1 2 3 4 5 6 
#
# 1 75.8066 -9.6164 16.7886 0.0000 0.0000 0.0000
# 2 -9.6164 32.1329 14.2632 0.0000 0.0000 0.0000
# 3 16.7886 14.2632 71.3683 0.0000 0.0000 0.0000
# 4 0.0000 0.0000 0.0000 17.4026 0.0000 0.0000
# 5 0.0000 0.0000 0.0000 0.0000 24.8564 0.0000
# 6 0.0000 0.0000 0.0000 0.0000 0.0000 3.2888
#
#
#
# Elastic Compliance Matrix: (Units=1/GPa)
#
#
# Indices 1 2 3 4 5 6 
#
# 1 0.015126 0.006701 -0.004897 0.000000 0.000000 0.000000
# 2 0.006701 0.037119 -0.008995 0.000000 0.000000 0.000000
# 3 -0.004897 -0.008995 0.016961 0.000000 0.000000 0.000000
# 4 0.000000 0.000000 0.000000 0.057463 0.000000 0.000000
# 5 0.000000 0.000000 0.000000 0.000000 0.040231 0.000000
# 6 0.000000 0.000000 0.000000 0.000000 0.000000 0.304063
#
#
# Mechanical properties :
#
#
# Convention : Reuss Voigt Hill
#
# Bulk Modulus (GPa) = 18.24034 24.68651 21.46343
# Shear Modulus (GPa) = 9.92812 19.63439 14.78125
#
# Velocity S-wave (km/s) = 2.37569 3.34092 2.89876
# Velocity P-wave (km/s) = 4.23018 5.37736 4.83790
#
# Compressibility (1/GPa) = 0.05482355
#
# Stress axis : x y z
#
# Youngs Moduli (GPa) = 66.11097 26.94071 58.95715
#
# Poissons Ratio (x) = -0.18052 0.28874
# Poissons Ratio (y) = -0.44299 0.53029
# Poissons Ratio (z) = 0.32377 0.24232
#
# Static dielectric constant tensor:
#      x y z
#    x 1.583660 0.000000 0.000000 
#    y 0.000000 1.583860 0.000000 
#    z 0.000000 0.000000 1.653800 
# 
# From -- ./inp_files/39503.got.cif
#   From: 2010.05.17/outbox.cif.g08.bks.cpg/sg64_20_cif.got.tgz:39503.got - 2010.06.03 16:29:19.
