data_PCOD9478386
_publ_section_title
;
Structure prediction by ZEFSAII (Michael W. Deem and Ramdas Pophale) SiO2 
 PCOD9478386
Probable space group: C M C A
;
_chemical_formula_sum "Si O2"
_cell_formula_units_Z 104
_cell_length_a 22.668633
_cell_length_b 26.316203
_cell_length_c 9.453681
_cell_angle_alpha 90.000000
_cell_angle_beta 90.000000
_cell_angle_gamma 90.000000
_cell_volume 5639.615596
_symmetry_space_group_name_H-M "C M C A"
_symmetry_group_IT_number 64
_symmetry_cell_setting 'orthorhombic'
loop_
_space_group_symop_operation_xyz
x,y,z
-x,1/2-y,1/2+z
x,-y,-z
-x,1/2+y,1/2-z
-x,-y,-z
x,1/2+y,1/2-z
-x,y,z
x,1/2-y,1/2+z
1/2+x,1/2+y,z
1/2-x,-y,1/2+z
1/2+x,1/2-y,-z
1/2-x,y,1/2-z
1/2-x,1/2-y,-z
1/2+x,y,1/2-z
1/2-x,1/2+y,z
1/2+x,-y,1/2+z
loop_
_atom_site_type_symbol
_atom_site_label
_atom_site_fract_x
_atom_site_fract_y
_atom_site_fract_z
Si Si1 0.777813 0.316690 0.475873
Si Si2 0.861916 0.330948 0.040820
Si Si3 0.110826 0.140710 0.850408
Si Si4 0.930251 0.636223 0.232417
Si Si5 0.930810 0.945355 0.960156
Si Si6 0.932774 0.272725 0.542722
Si Si7 0.750000 0.265113 0.750000
O O1 0.709033 0.330737 0.466367
O O2 0.825118 0.357564 0.427086
O O3 0.786556 0.298596 0.637970
O O4 0.785024 0.271519 0.358551
O O5 0.881163 0.358037 0.184379
O O6 0.887845 0.273743 0.048884
O O7 0.890906 0.356165 0.904511
O O8 0.076307 0.092546 0.908132
O O9 0.079285 0.192114 0.905713
O O10 0.909558 0.588234 0.326864
O O11 0.926774 0.687099 0.329041
O O12 0.000000 0.630178 0.197978
O O13 0.000000 0.953140 0.931187
O O14 0.904279 0.000000 0.000000
O O15 0.000000 0.253359 0.539765
#
# Coordination Sequence:
#
# PCOD9478386 Si02
#       7
#    16  16  16  16  16  16   8
#     4  11  23  34  52  81 112 156 199 234 262 322
#     4  12  22  32  52  82 122 153 185 230 270 328
#     4  11  22  36  55  80 113 148 190 229 283 336
#     4   9  20  35  54  84 115 146 192 236 280 338
#     4   9  20  42  67  84 102 137 187 239 290 346
#     4  10  21  34  50  76 114 158 192 222 268 331
#     4  10  20  34  50  72 114 160 202 222 258 308
#
# _framework density 18.440971999999999
#
# number of rings (size 3 to 8) (size 9 to 14) (size 15 to 20)
#    0.000    1.692    1.538    4.615    6.462    3.692 
#    0.000    0.769    0.000    6.462    0.000    0.000 
#    0.000    0.000    0.000    0.000    0.000    0.000 
#
# Total GULP energy -290315.560945 kJ/mol
# GULP energy per Si atom -5582.991557 kJ/mol
# Density = 1.839900 g / cm^3
# Si number density = 18.440972 Si / 1000 Ang^3
#
#
#
# Elastic Constant Matrix: (Units=GPa)
#
#
# Indices 1 2 3 4 5 6 
#
# 1 60.0534 -4.0379 18.8687 0.0000 0.0000 0.0000
# 2 -4.0379 69.2046 25.9358 0.0000 0.0000 0.0000
# 3 18.8687 25.9358 142.0826 0.0000 0.0000 0.0000
# 4 0.0000 0.0000 0.0000 0.4888 0.0000 0.0000
# 5 0.0000 0.0000 0.0000 0.0000 13.3901 0.0000
# 6 0.0000 0.0000 0.0000 0.0000 0.0000 12.1578
#
#
#
# Elastic Compliance Matrix: (Units=1/GPa)
#
#
# Indices 1 2 3 4 5 6 
#
# 1 0.017643 0.002048 -0.002717 0.000000 0.000000 0.000000
# 2 0.002048 0.015749 -0.003147 0.000000 0.000000 0.000000
# 3 -0.002717 -0.003147 0.007973 0.000000 0.000000 0.000000
# 4 0.000000 0.000000 0.000000 2.045972 0.000000 0.000000
# 5 0.000000 0.000000 0.000000 0.000000 0.074682 0.000000
# 6 0.000000 0.000000 0.000000 0.000000 0.000000 0.082252
#
#
# Mechanical properties :
#
#
# Convention : Reuss Voigt Hill
#
# Bulk Modulus (GPa) = 29.64424 39.20821 34.42622
# Shear Modulus (GPa) = 2.20931 20.57894 11.39413
#
# Velocity S-wave (km/s) = 1.09574 3.34419 2.48840
# Velocity P-wave (km/s) = 4.20844 6.01823 5.19278
#
# Compressibility (1/GPa) = 0.03373337
#
# Stress axis : x y z
#
# Youngs Moduli (GPa) = 56.67930 63.49746 125.41782
#
# Poissons Ratio (x) = -0.13002 0.34073
# Poissons Ratio (y) = -0.11606 0.39465
# Poissons Ratio (z) = 0.15399 0.19981
#
# Static dielectric constant tensor:
#      x y z
#    x 1.681210 0.000000 0.000000 
#    y 0.000000 1.638110 0.000000 
#    z 0.000000 0.000000 1.652990 
# 
# From -- ./inp_files/9684.got.cif
#   From: 2010.05.17/outbox.cif.g08.bks.cpg/sg64_5_cif.got.tgz:9684.got - 2010.06.03 16:29:19.
