data_PCOD9478081
_publ_section_title
;
Structure prediction by ZEFSAII (Michael W. Deem and Ramdas Pophale) SiO2 
 PCOD9478081
Probable space group: C M C A
;
_chemical_formula_sum "Si O2"
_cell_formula_units_Z 120
_cell_length_a 14.668775
_cell_length_b 28.061092
_cell_length_c 12.564421
_cell_angle_alpha 90.000000
_cell_angle_beta 90.000000
_cell_angle_gamma 90.000000
_cell_volume 5171.790151
_symmetry_space_group_name_H-M "C M C A"
_symmetry_group_IT_number 64
_symmetry_cell_setting 'orthorhombic'
loop_
_space_group_symop_operation_xyz
x,y,z
-x,1/2-y,1/2+z
x,-y,-z
-x,1/2+y,1/2-z
-x,-y,-z
x,1/2+y,1/2-z
-x,y,z
x,1/2-y,1/2+z
1/2+x,1/2+y,z
1/2-x,-y,1/2+z
1/2+x,1/2-y,-z
1/2-x,y,1/2-z
1/2-x,1/2-y,-z
1/2+x,y,1/2-z
1/2-x,1/2+y,z
1/2+x,-y,1/2+z
loop_
_atom_site_type_symbol
_atom_site_label
_atom_site_fract_x
_atom_site_fract_y
_atom_site_fract_z
Si Si1 0.141586 0.792399 0.883640
Si Si2 0.643568 0.714307 0.343169
Si Si3 0.838648 0.508135 0.878029
Si Si4 0.749369 0.608172 0.588156
Si Si5 0.000000 0.039728 0.232784
Si Si6 0.397225 0.675659 0.881540
Si Si7 0.305587 0.074216 0.351644
Si Si8 0.404336 0.815617 0.066842
O O1 0.250617 0.792281 0.872908
O O2 0.112241 0.808695 0.767161
O O3 0.109682 0.817819 0.989962
O O4 0.110322 0.737907 0.894146
O O5 0.630974 0.771774 0.340187
O O6 0.592950 0.690650 0.440249
O O7 0.747602 0.476110 0.863986
O O8 0.918421 0.489726 0.800575
O O9 0.870405 0.500000 0.000000
O O10 0.801897 0.561798 0.869008
O O11 0.835857 0.630613 0.648131
O O12 0.780550 0.598155 0.465264
O O13 0.678853 0.651287 0.592119
O O14 0.914067 0.067896 0.169264
O O15 0.500000 0.667459 0.850937
O O16 0.250000 0.096821 0.250000
O O17 0.500000 0.835305 0.105705
#
# Coordination Sequence:
#
# PCOD9478081 Si02
#       8
#    16  16  16  16   8  16  16  16
#     4  10  19  37  61  79 119 176 214 265 314 372
#     4  10  19  37  61  81 119 174 217 264 314 378
#     4   9  20  40  65  89 121 164 201 244 315 396
#     4  11  22  40  59  88 130 153 199 271 326 369
#     4  10  19  40  71  92 116 156 214 242 303 390
#     4  11  22  37  59  86 122 166 214 260 322 388
#     4   9  21  41  62  90 121 156 198 254 311 390
#     4  11  22  37  59  88 123 162 214 263 321 385
#
# _framework density 23.202798000000001
#
# number of rings (size 3 to 8) (size 9 to 14) (size 15 to 20)
#    0.000    1.867    2.667    2.600    1.867    3.200 
#    6.000    5.000    0.000    0.000    0.000    0.000 
#    0.000    0.000    0.000    0.000    0.000    0.000 
#
# Total GULP energy -334112.644887 kJ/mol
# GULP energy per Si atom -5568.544081 kJ/mol
# Density = 2.314999 g / cm^3
# Si number density = 23.202798 Si / 1000 Ang^3
#
#
#
# Elastic Constant Matrix: (Units=GPa)
#
#
# Indices 1 2 3 4 5 6 
#
# 1 181.6852 13.5919 15.7314 0.0000 0.0000 0.0000
# 2 13.5919 69.1549 -12.7389 0.0000 0.0000 0.0000
# 3 15.7314 -12.7389 118.1652 0.0000 0.0000 0.0000
# 4 0.0000 0.0000 0.0000 -74.6395 0.0000 0.0000
# 5 0.0000 0.0000 0.0000 0.0000 129.9215 0.0000
# 6 0.0000 0.0000 0.0000 0.0000 0.0000 -13.1841
#
#
#
# Elastic Compliance Matrix: (Units=1/GPa)
#
#
# Indices 1 2 3 4 5 6 
#
# 1 0.005677 -0.001280 -0.000894 0.000000 0.000000 0.000000
# 2 -0.001280 0.015042 0.001792 0.000000 0.000000 0.000000
# 3 -0.000894 0.001792 0.008775 0.000000 0.000000 0.000000
# 4 0.000000 0.000000 0.000000 -0.013398 0.000000 0.000000
# 5 0.000000 0.000000 0.000000 0.000000 0.007697 0.000000
# 6 0.000000 0.000000 0.000000 0.000000 0.000000 -0.075849
#
#
# Mechanical properties :
#
#
# Convention : Reuss Voigt Hill
#
# Bulk Modulus (GPa) = 34.80710 44.68600 39.74655
# Shear Modulus (GPa) = -119.86310 31.91430 -43.97440
#
# Velocity S-wave (km/s) = -7.19521 3.71273 -4.35813
# Velocity P-wave (km/s) = 7.34808 6.13839 2.85608
#
# Compressibility (1/GPa) = 0.02872977
#
# Stress axis : x y z
#
# Youngs Moduli (GPa) = 176.14282 66.48021 113.96104
#
# Poissons Ratio (x) = 0.08513 0.10186
# Poissons Ratio (y) = 0.22554 -0.20423
# Poissons Ratio (z) = 0.15745 -0.11914
#
# Static dielectric constant tensor:
#      x y z
#    x 2.107060 0.000000 0.000000 
#    y 0.000000 1.878660 0.000000 
#    z 0.000000 0.000000 1.986620 
# 
# From -- ./inp_files/24519.got.cif
#   From: 2010.05.17/outbox.cif.g08.bks.cpg/sg64_13_cif.got.tgz:24519.got - 2010.06.03 16:29:19.
