data_PCOD9478139
_publ_section_title
;
Structure prediction by ZEFSAII (Michael W. Deem and Ramdas Pophale) SiO2 
 PCOD9478139
Probable space group: C M C A
;
_chemical_formula_sum "Si O2"
_cell_formula_units_Z 80
_cell_length_a 25.855874
_cell_length_b 12.440405
_cell_length_c 13.319369
_cell_angle_alpha 90.000000
_cell_angle_beta 90.000000
_cell_angle_gamma 90.000000
_cell_volume 4284.275523
_symmetry_space_group_name_H-M "C M C A"
_symmetry_group_IT_number 64
_symmetry_cell_setting 'orthorhombic'
loop_
_space_group_symop_operation_xyz
x,y,z
-x,1/2-y,1/2+z
x,-y,-z
-x,1/2+y,1/2-z
-x,-y,-z
x,1/2+y,1/2-z
-x,y,z
x,1/2-y,1/2+z
1/2+x,1/2+y,z
1/2-x,-y,1/2+z
1/2+x,1/2-y,-z
1/2-x,y,1/2-z
1/2-x,1/2-y,-z
1/2+x,y,1/2-z
1/2-x,1/2+y,z
1/2+x,-y,1/2+z
loop_
_atom_site_type_symbol
_atom_site_label
_atom_site_fract_x
_atom_site_fract_y
_atom_site_fract_z
Si Si1 0.700866 0.946047 0.110239
Si Si2 0.559468 0.377299 0.539537
Si Si3 0.870287 0.263505 0.586121
Si Si4 0.208339 0.190668 0.926266
Si Si5 0.149208 0.859734 0.704055
O O1 0.665294 0.840639 0.110807
O O2 0.760197 0.909283 0.116920
O O3 0.680474 0.030064 0.190841
O O4 0.694439 0.000000 0.000000
O O5 0.564214 0.500000 0.500000
O O6 0.500000 0.360018 0.568490
O O7 0.577672 0.290495 0.456259
O O8 0.600395 0.364654 0.629133
O O9 0.840747 0.328026 0.497884
O O10 0.870769 0.333107 0.685899
O O11 0.188145 0.268695 0.838942
O O12 0.250000 0.250000 0.000000
#
# Coordination Sequence:
#
# PCOD9478139 Si02
#       5
#    16  16  16  16  16
#     4  11  18  39  55  73 118 156 187 241 274 337
#     4  10  19  38  66  85 110 151 189 243 305 349
#     4  10  20  36  57  87 113 147 197 242 280 347
#     4   9  19  35  51  79 115 153 190 231 276 341
#     4  11  20  37  57  85 119 148 195 242 285 343
#
# _framework density 18.672937000000001
#
# number of rings (size 3 to 8) (size 9 to 14) (size 15 to 20)
#    0.000    1.800    8.000    0.000    0.000    4.000 
#    7.200    0.000    0.000    0.000    0.000    1.400 
#    0.000    0.000    0.000    0.000    0.000    0.000 
#
# Total GULP energy -223226.228142 kJ/mol
# GULP energy per Si atom -5580.655704 kJ/mol
# Density = 1.863044 g / cm^3
# Si number density = 18.672937 Si / 1000 Ang^3
#
#
#
# Elastic Constant Matrix: (Units=GPa)
#
#
# Indices 1 2 3 4 5 6 
#
# 1 108.3476 45.5636 27.1288 0.0000 0.0000 0.0000
# 2 45.5636 69.3969 36.8631 0.0000 0.0000 0.0000
# 3 27.1288 36.8631 49.3235 0.0000 0.0000 0.0000
# 4 0.0000 0.0000 0.0000 26.4988 0.0000 0.0000
# 5 0.0000 0.0000 0.0000 0.0000 8.5684 0.0000
# 6 0.0000 0.0000 0.0000 0.0000 0.0000 29.4960
#
#
#
# Elastic Compliance Matrix: (Units=1/GPa)
#
#
# Indices 1 2 3 4 5 6 
#
# 1 0.012797 -0.007733 -0.001259 0.000000 0.000000 0.000000
# 2 -0.007733 0.028570 -0.017099 0.000000 0.000000 0.000000
# 3 -0.001259 -0.017099 0.033746 0.000000 0.000000 0.000000
# 4 0.000000 0.000000 0.000000 0.037738 0.000000 0.000000
# 5 0.000000 0.000000 0.000000 0.000000 0.116707 0.000000
# 6 0.000000 0.000000 0.000000 0.000000 0.000000 0.033903
#
#
# Mechanical properties :
#
#
# Convention : Reuss Voigt Hill
#
# Bulk Modulus (GPa) = 43.60982 49.57544 46.59263
# Shear Modulus (GPa) = 15.46612 20.74682 18.10647
#
# Velocity S-wave (km/s) = 2.88108 3.33688 3.11732
# Velocity P-wave (km/s) = 5.87135 6.43843 6.16142
#
# Compressibility (1/GPa) = 0.02293061
#
# Stress axis : x y z
#
# Youngs Moduli (GPa) = 78.14438 35.00147 29.63298
#
# Poissons Ratio (x) = 0.27068 0.03730
# Poissons Ratio (y) = 0.60431 0.50670
# Poissons Ratio (z) = 0.09837 0.59850
#
# Static dielectric constant tensor:
#      x y z
#    x 1.638840 0.000000 0.000000 
#    y 0.000000 1.641490 0.000000 
#    z 0.000000 0.000000 1.684300 
# 
# From -- ./inp_files/27895.got.cif
#   From: 2010.05.17/outbox.cif.g08.bks.cpg/sg64_14_cif.got.tgz:27895.got - 2010.06.03 16:29:19.
