data_PCOD9478107
_publ_section_title
;
Structure prediction by ZEFSAII (Michael W. Deem and Ramdas Pophale) SiO2 
 PCOD9478107
Probable space group: C M C A
;
_chemical_formula_sum "Si O2"
_cell_formula_units_Z 112
_cell_length_a 30.593813
_cell_length_b 11.603321
_cell_length_c 16.698137
_cell_angle_alpha 90.000000
_cell_angle_beta 90.000000
_cell_angle_gamma 90.000000
_cell_volume 5927.668863
_symmetry_space_group_name_H-M "C M C A"
_symmetry_group_IT_number 64
_symmetry_cell_setting 'orthorhombic'
loop_
_space_group_symop_operation_xyz
x,y,z
-x,1/2-y,1/2+z
x,-y,-z
-x,1/2+y,1/2-z
-x,-y,-z
x,1/2+y,1/2-z
-x,y,z
x,1/2-y,1/2+z
1/2+x,1/2+y,z
1/2-x,-y,1/2+z
1/2+x,1/2-y,-z
1/2-x,y,1/2-z
1/2-x,1/2-y,-z
1/2+x,y,1/2-z
1/2-x,1/2+y,z
1/2+x,-y,1/2+z
loop_
_atom_site_type_symbol
_atom_site_label
_atom_site_fract_x
_atom_site_fract_y
_atom_site_fract_z
Si Si1 0.884184 0.242827 0.977620
Si Si2 0.622334 0.116175 0.800457
Si Si3 0.332004 0.941574 0.912724
Si Si4 0.343595 0.069696 0.627570
Si Si5 0.827993 0.800878 0.870275
Si Si6 0.448472 0.105567 0.936998
Si Si7 0.735020 0.249747 0.593718
O O1 0.869722 0.343457 0.916479
O O2 0.877209 0.119299 0.938509
O O3 0.847420 0.247542 0.046604
O O4 0.928925 0.281722 0.018443
O O5 0.629075 0.082612 0.709292
O O6 0.638216 0.248724 0.806752
O O7 0.578461 0.097143 0.853374
O O8 0.656743 0.037551 0.848855
O O9 0.288705 0.871495 0.893301
O O10 0.329397 0.000000 0.000000
O O11 0.300142 0.150644 0.616389
O O12 0.328917 0.937880 0.621795
O O13 0.779819 0.751292 0.857064
O O14 0.500000 0.110876 0.923388
O O15 0.439870 0.000000 0.000000
O O16 0.750000 0.250000 0.500000
#
# Coordination Sequence:
#
# PCOD9478107 Si02
#       7
#    16  16  16  16  16  16  16
#     4  10  19  38  62  88 117 160 207 251 316 365
#     4  11  23  41  58  90 127 165 199 264 334 371
#     4  11  18  35  60  81 113 161 200 257 300 359
#     4  11  26  38  60  85 127 172 207 260 324 377
#     4  11  23  39  59  83 119 169 219 255 300 375
#     4  10  19  37  71 101 120 151 210 266 308 386
#     4  11  23  37  59  83 115 159 223 256 290 349
#
# _framework density 18.894442999999999
#
# number of rings (size 3 to 8) (size 9 to 14) (size 15 to 20)
#    0.000    1.286    7.143    0.429    8.000    0.571 
#    0.000    0.714    0.000   12.000    0.000    0.000 
#    0.000    0.000    0.000    0.000    0.000    0.000 
#
# Total GULP energy -312095.024858 kJ/mol
# GULP energy per Si atom -5573.125444 kJ/mol
# Density = 1.885144 g / cm^3
# Si number density = 18.894443 Si / 1000 Ang^3
#
#
#
# Elastic Constant Matrix: (Units=GPa)
#
#
# Indices 1 2 3 4 5 6 
#
# 1 130.4193 38.7022 29.0397 0.0000 0.0000 0.0000
# 2 38.7022 101.7652 7.3941 0.0000 0.0000 0.0000
# 3 29.0397 7.3941 55.5205 0.0000 0.0000 0.0000
# 4 0.0000 0.0000 0.0000 16.2707 0.0000 0.0000
# 5 0.0000 0.0000 0.0000 0.0000 10.4051 0.0000
# 6 0.0000 0.0000 0.0000 0.0000 0.0000 24.0033
#
#
#
# Elastic Compliance Matrix: (Units=1/GPa)
#
#
# Indices 1 2 3 4 5 6 
#
# 1 0.009691 -0.003350 -0.004623 0.000000 0.000000 0.000000
# 2 -0.003350 0.011080 0.000276 0.000000 0.000000 0.000000
# 3 -0.004623 0.000276 0.020392 0.000000 0.000000 0.000000
# 4 0.000000 0.000000 0.000000 0.061460 0.000000 0.000000
# 5 0.000000 0.000000 0.000000 0.000000 0.096107 0.000000
# 6 0.000000 0.000000 0.000000 0.000000 0.000000 0.041661
#
#
# Mechanical properties :
#
#
# Convention : Reuss Voigt Hill
#
# Bulk Modulus (GPa) = 38.80217 48.66409 43.73313
# Shear Modulus (GPa) = 18.91262 24.30711 21.60986
#
# Velocity S-wave (km/s) = 3.16723 3.59063 3.38555
# Velocity P-wave (km/s) = 5.82718 6.55758 6.20314
#
# Compressibility (1/GPa) = 0.02577176
#
# Stress axis : x y z
#
# Youngs Moduli (GPa) = 103.18970 90.24975 49.03785
#
# Poissons Ratio (x) = 0.30231 0.22669
# Poissons Ratio (y) = 0.34565 -0.01355
# Poissons Ratio (z) = 0.47701 -0.02494
#
# Static dielectric constant tensor:
#      x y z
#    x 1.648050 0.000000 0.000000 
#    y 0.000000 1.690410 0.000000 
#    z 0.000000 0.000000 1.737580 
# 
# From -- ./inp_files/28378.got.cif
#   From: 2010.05.17/outbox.cif.g08.bks.cpg/sg64_15_cif.got.tgz:28378.got - 2010.06.03 16:29:19.
