data_PCOD9478323
_publ_section_title
;
Structure prediction by ZEFSAII (Michael W. Deem and Ramdas Pophale) SiO2 
 PCOD9478323
Probable space group: C M C A
;
_chemical_formula_sum "Si O2"
_cell_formula_units_Z 112
_cell_length_a 14.961572
_cell_length_b 14.329371
_cell_length_c 22.594830
_cell_angle_alpha 90.000000
_cell_angle_beta 90.000000
_cell_angle_gamma 90.000000
_cell_volume 4844.103704
_symmetry_space_group_name_H-M "C M C A"
_symmetry_group_IT_number 64
_symmetry_cell_setting 'orthorhombic'
loop_
_space_group_symop_operation_xyz
x,y,z
-x,1/2-y,1/2+z
x,-y,-z
-x,1/2+y,1/2-z
-x,-y,-z
x,1/2+y,1/2-z
-x,y,z
x,1/2-y,1/2+z
1/2+x,1/2+y,z
1/2-x,-y,1/2+z
1/2+x,1/2-y,-z
1/2-x,y,1/2-z
1/2-x,1/2-y,-z
1/2+x,y,1/2-z
1/2-x,1/2+y,z
1/2+x,-y,1/2+z
loop_
_atom_site_type_symbol
_atom_site_label
_atom_site_fract_x
_atom_site_fract_y
_atom_site_fract_z
Si Si1 0.901114 0.262319 0.254790
Si Si2 0.394734 0.044224 0.725984
Si Si3 0.400463 0.046125 0.867827
Si Si4 0.300159 0.365029 0.813776
Si Si5 0.219177 0.396882 0.029883
Si Si6 0.374118 0.160966 0.129144
Si Si7 0.103606 0.723188 0.521216
O O1 0.855180 0.352161 0.283619
O O2 0.866361 0.221076 0.193832
O O3 0.904561 0.182636 0.304111
O O4 0.000000 0.296425 0.243113
O O5 0.500000 0.033405 0.711804
O O6 0.383603 0.034806 0.797336
O O7 0.345122 0.965077 0.689171
O O8 0.500000 0.088209 0.876966
O O9 0.318230 0.091012 0.903025
O O10 0.406472 0.939415 0.890541
O O11 0.250000 0.357315 0.750000
O O12 0.232797 0.348843 0.866499
O O13 0.320240 0.357620 0.019490
O O14 0.211646 0.500000 0.000000
O O15 0.151160 0.316612 0.005483
O O16 0.403246 0.245984 0.089559
O O17 0.000000 0.705626 0.500504
#
# Coordination Sequence:
#
# PCOD9478323 Si02
#       7
#    16  16  16  16  16  16  16
#     4  10  20  35  55  83 122 169 217 263 320 387
#     4  10  21  36  57  85 125 174 216 266 331 390
#     4  11  21  38  66  95 126 169 223 280 332 391
#     4  10  20  33  51  82 119 160 208 267 312 376
#     4  11  25  44  71 106 133 167 225 284 342 407
#     4  11  22  37  61  91 123 170 222 270 324 391
#     4  11  25  46  71  99 137 178 221 278 346 416
#
# _framework density 23.120891
#
# number of rings (size 3 to 8) (size 9 to 14) (size 15 to 20)
#    0.000    1.429    4.286    2.143    2.000    3.714 
#    0.000    0.000    0.000    1.714    0.000    0.000 
#    0.000    0.000    0.000    0.000    0.000    0.000 
#
# Total GULP energy -312175.269135 kJ/mol
# GULP energy per Si atom -5574.558377 kJ/mol
# Density = 2.306827 g / cm^3
# Si number density = 23.120891 Si / 1000 Ang^3
#
#
#
# Elastic Constant Matrix: (Units=GPa)
#
#
# Indices 1 2 3 4 5 6 
#
# 1 124.5024 29.5733 22.9004 0.0000 0.0000 0.0000
# 2 29.5733 89.6359 12.8432 0.0000 0.0000 0.0000
# 3 22.9004 12.8432 31.1640 0.0000 0.0000 0.0000
# 4 0.0000 0.0000 0.0000 23.9737 0.0000 0.0000
# 5 0.0000 0.0000 0.0000 0.0000 23.6299 0.0000
# 6 0.0000 0.0000 0.0000 0.0000 0.0000 33.1398
#
#
#
# Elastic Compliance Matrix: (Units=1/GPa)
#
#
# Indices 1 2 3 4 5 6 
#
# 1 0.009721 -0.002321 -0.006187 0.000000 0.000000 0.000000
# 2 -0.002321 0.012410 -0.003409 0.000000 0.000000 0.000000
# 3 -0.006187 -0.003409 0.038040 0.000000 0.000000 0.000000
# 4 0.000000 0.000000 0.000000 0.041712 0.000000 0.000000
# 5 0.000000 0.000000 0.000000 0.000000 0.042319 0.000000
# 6 0.000000 0.000000 0.000000 0.000000 0.000000 0.030175
#
#
# Mechanical properties :
#
#
# Convention : Reuss Voigt Hill
#
# Bulk Modulus (GPa) = 27.51988 41.77068 34.64528
# Shear Modulus (GPa) = 23.77277 28.14771 25.96024
#
# Velocity S-wave (km/s) = 3.21003 3.49293 3.35446
# Velocity P-wave (km/s) = 5.06631 5.86284 5.47907
#
# Compressibility (1/GPa) = 0.03633737
#
# Stress axis : x y z
#
# Youngs Moduli (GPa) = 102.86732 80.57747 26.28832
#
# Poissons Ratio (x) = 0.18701 0.16265
# Poissons Ratio (y) = 0.23874 0.08962
# Poissons Ratio (z) = 0.63645 0.27470
#
# Static dielectric constant tensor:
#      x y z
#    x 2.004220 0.000000 0.000000 
#    y 0.000000 2.007130 0.000000 
#    z 0.000000 0.000000 1.892860 
# 
# From -- ./inp_files/50073.got.cif
#   From: 2010.05.17/outbox.cif.g08.bks.cpg/sg64_26_cif.got.tgz:50073.got - 2010.06.03 16:29:19.
