data_PCOD9478790
_publ_section_title
;
Structure prediction by ZEFSAII (Michael W. Deem and Ramdas Pophale) SiO2 
 PCOD9478790
Probable space group: C M C A
;
_chemical_formula_sum "Si O2"
_cell_formula_units_Z 64
_cell_length_a 14.589088
_cell_length_b 22.672544
_cell_length_c 6.777912
_cell_angle_alpha 90.000000
_cell_angle_beta 90.000000
_cell_angle_gamma 90.000000
_cell_volume 2241.941743
_symmetry_space_group_name_H-M "C M C A"
_symmetry_group_IT_number 64
_symmetry_cell_setting 'orthorhombic'
loop_
_space_group_symop_operation_xyz
x,y,z
-x,1/2-y,1/2+z
x,-y,-z
-x,1/2+y,1/2-z
-x,-y,-z
x,1/2+y,1/2-z
-x,y,z
x,1/2-y,1/2+z
1/2+x,1/2+y,z
1/2-x,-y,1/2+z
1/2+x,1/2-y,-z
1/2-x,y,1/2-z
1/2-x,1/2-y,-z
1/2+x,y,1/2-z
1/2-x,1/2+y,z
1/2+x,-y,1/2+z
loop_
_atom_site_type_symbol
_atom_site_label
_atom_site_fract_x
_atom_site_fract_y
_atom_site_fract_z
Si Si1 0.860734 0.920635 0.794321
Si Si2 0.157529 0.797711 0.872268
Si Si3 0.603619 0.327931 0.279950
Si Si4 0.640679 0.047210 0.750848
O O1 0.750000 0.917268 0.750000
O O2 0.893902 0.853193 0.772115
O O3 0.617727 0.063478 0.524170
O O4 0.893239 0.981763 0.696437
O O5 0.250000 0.790756 0.750000
O O6 0.113508 0.733362 0.895653
O O7 0.172332 0.820828 0.094526
O O8 0.500000 0.327328 0.200028
O O9 0.616919 0.393131 0.369172
O O10 0.750000 0.042252 0.750000
#
# Coordination Sequence:
#
# PCOD9478790 Si02
#       4
#    16  16  16  16
#     4   8  16  31  52  78  99 125 171 217 251 292
#     4  10  20  36  56  76 100 136 178 213 249 304
#     4  11  22  35  51  78 109 137 168 212 261 304
#     4   9  17  32  53  76 101 132 169 210 252 302
#
# _framework density 28.546685
#
# number of rings (size 3 to 8) (size 9 to 14) (size 15 to 20)
#    0.000    2.500    0.000    2.250    0.000    4.000 
#    0.000   11.250    0.000    0.000    0.000   17.500 
#    0.000    0.000    0.000    0.000    0.000    0.000 
#
# Total GULP energy -178770.510002 kJ/mol
# GULP energy per Si atom -5586.578438 kJ/mol
# Density = 2.848171 g / cm^3
# Si number density = 28.546685 Si / 1000 Ang^3
#
#
#
# Elastic Constant Matrix: (Units=GPa)
#
#
# Indices 1 2 3 4 5 6 
#
# 1 108.0675 31.4041 -0.3653 0.0000 0.0000 0.0000
# 2 31.4041 432.9360 46.7314 0.0000 0.0000 0.0000
# 3 -0.3653 46.7314 73.3127 0.0000 0.0000 0.0000
# 4 0.0000 0.0000 0.0000 53.6213 0.0000 0.0000
# 5 0.0000 0.0000 0.0000 0.0000 3.5955 0.0000
# 6 0.0000 0.0000 0.0000 0.0000 0.0000 -65.0781
#
#
#
# Elastic Compliance Matrix: (Units=1/GPa)
#
#
# Indices 1 2 3 4 5 6 
#
# 1 0.009471 -0.000743 0.000521 0.000000 0.000000 0.000000
# 2 -0.000743 0.002539 -0.001622 0.000000 0.000000 0.000000
# 3 0.000521 -0.001622 0.014677 0.000000 0.000000 0.000000
# 4 0.000000 0.000000 0.000000 0.018649 0.000000 0.000000
# 5 0.000000 0.000000 0.000000 0.000000 0.278126 0.000000
# 6 0.000000 0.000000 0.000000 0.000000 0.000000 -0.015366
#
#
# Mechanical properties :
#
#
# Convention : Reuss Voigt Hill
#
# Bulk Modulus (GPa) = 43.48180 85.53963 64.51072
# Shear Modulus (GPa) = 15.65186 34.19749 24.92468
#
# Velocity S-wave (km/s) = 2.34410 3.46490 2.95807
# Velocity P-wave (km/s) = 4.75303 6.78507 5.85784
#
# Compressibility (1/GPa) = 0.02299813
#
# Stress axis : x y z
#
# Youngs Moduli (GPa) = 105.58300 393.88637 68.13524
#
# Poissons Ratio (x) = 0.29276 -0.03550
# Poissons Ratio (y) = 0.07847 0.11052
# Poissons Ratio (z) = -0.05500 0.63888
#
# Static dielectric constant tensor:
#      x y z
#    x 2.244350 0.000000 0.000000 
#    y 0.000000 2.255180 0.000000 
#    z 0.000000 0.000000 2.427690 
# 
# From -- ./inp_files/6607.got.cif
#   From: 2010.05.17/outbox.cif.g08.bks.cpg/sg64_4_cif.got.tgz:6607.got - 2010.06.03 16:29:19.
