data_PCOD9478393
_publ_section_title
;
Structure prediction by ZEFSAII (Michael W. Deem and Ramdas Pophale) SiO2 
 PCOD9478393
Probable space group: C M C A
;
_chemical_formula_sum "Si O2"
_cell_formula_units_Z 116
_cell_length_a 9.348188
_cell_length_b 23.199552
_cell_length_c 30.734852
_cell_angle_alpha 90.000000
_cell_angle_beta 90.000000
_cell_angle_gamma 90.000000
_cell_volume 6665.583335
_symmetry_space_group_name_H-M "C M C A"
_symmetry_group_IT_number 64
_symmetry_cell_setting 'orthorhombic'
loop_
_space_group_symop_operation_xyz
x,y,z
-x,1/2-y,1/2+z
x,-y,-z
-x,1/2+y,1/2-z
-x,-y,-z
x,1/2+y,1/2-z
-x,y,z
x,1/2-y,1/2+z
1/2+x,1/2+y,z
1/2-x,-y,1/2+z
1/2+x,1/2-y,-z
1/2-x,y,1/2-z
1/2-x,1/2-y,-z
1/2+x,y,1/2-z
1/2-x,1/2+y,z
1/2+x,-y,1/2+z
loop_
_atom_site_type_symbol
_atom_site_label
_atom_site_fract_x
_atom_site_fract_y
_atom_site_fract_z
Si Si1 0.336620 0.137605 0.506793
Si Si2 0.330065 0.213780 0.588719
Si Si3 0.253562 0.035373 0.935051
Si Si4 0.835317 0.944645 0.866736
Si Si5 0.000000 0.500000 0.000000
Si Si6 0.329149 0.650981 0.418228
Si Si7 0.326644 0.478153 0.296285
Si Si8 0.163591 0.623109 0.859202
O O1 0.500000 0.149626 0.492842
O O2 0.288508 0.185586 0.542147
O O3 0.331699 0.077162 0.532461
O O4 0.231030 0.136538 0.466150
O O5 0.500000 0.205171 0.591649
O O6 0.300130 0.281387 0.589583
O O7 0.257519 0.177420 0.626980
O O8 0.375997 0.005021 0.962409
O O9 0.322347 0.078473 0.899439
O O10 0.166549 0.988969 0.907537
O O11 0.754271 0.888162 0.883788
O O12 0.000000 0.934220 0.854050
O O13 0.744327 0.975277 0.828757
O O14 0.500000 0.641014 0.416686
O O15 0.500000 0.484579 0.294339
O O16 0.250000 0.482829 0.250000
O O17 0.295351 0.415320 0.317629
O O18 0.000000 0.641262 0.854657
#
# Coordination Sequence:
#
# PCOD9478393 Si02
#       8
#    16  16  16  16   4  16  16  16
#     4  10  20  34  51  72 102 140 193 242 284 324
#     4   9  20  36  52  74 104 144 187 236 281 324
#     4  10  21  31  50  74 106 142 185 228 280 326
#     4  11  23  38  56  78 112 149 188 232 284 334
#     4  12  20  28  46  72 108 144 186 220 272 326
#     4  11  23  35  50  73 106 147 193 234 279 328
#     4  10  21  38  63  93 119 140 173 215 276 342
#     4   9  18  34  55  81 108 136 176 220 270 323
#
# _framework density 17.402829000000001
#
# number of rings (size 3 to 8) (size 9 to 14) (size 15 to 20)
#    0.000    1.931    0.690    2.897    4.828    5.517 
#    0.000    2.069    0.000    0.828    0.000    1.931 
#    0.000    0.000    0.000    0.000    0.000    0.000 
#
# Total GULP energy -323174.127142 kJ/mol
# GULP energy per Si atom -5571.967709 kJ/mol
# Density = 1.736322 g / cm^3
# Si number density = 17.402829 Si / 1000 Ang^3
#
#
#
# Elastic Constant Matrix: (Units=GPa)
#
#
# Indices 1 2 3 4 5 6 
#
# 1 93.9830 49.3055 58.1254 0.0000 0.0000 0.0000
# 2 49.3055 90.9815 49.5617 0.0000 0.0000 0.0000
# 3 58.1254 49.5617 104.1618 0.0000 0.0000 0.0000
# 4 0.0000 0.0000 0.0000 16.8770 0.0000 0.0000
# 5 0.0000 0.0000 0.0000 0.0000 20.7523 0.0000
# 6 0.0000 0.0000 0.0000 0.0000 0.0000 16.7581
#
#
#
# Elastic Compliance Matrix: (Units=1/GPa)
#
#
# Indices 1 2 3 4 5 6 
#
# 1 0.018317 -0.005883 -0.007422 0.000000 0.000000 0.000000
# 2 -0.005883 0.016727 -0.004676 0.000000 0.000000 0.000000
# 3 -0.007422 -0.004676 0.015967 0.000000 0.000000 0.000000
# 4 0.000000 0.000000 0.000000 0.059252 0.000000 0.000000
# 5 0.000000 0.000000 0.000000 0.000000 0.048187 0.000000
# 6 0.000000 0.000000 0.000000 0.000000 0.000000 0.059673
#
#
# Mechanical properties :
#
#
# Convention : Reuss Voigt Hill
#
# Bulk Modulus (GPa) = 66.45229 67.01238 66.73234
# Shear Modulus (GPa) = 19.29743 19.68637 19.49190
#
# Velocity S-wave (km/s) = 3.33358 3.36701 3.35033
# Velocity P-wave (km/s) = 7.28592 7.32843 7.30720
#
# Compressibility (1/GPa) = 0.01504839
#
# Stress axis : x y z
#
# Youngs Moduli (GPa) = 54.59376 59.78463 62.62932
#
# Poissons Ratio (x) = 0.35174 0.46484
# Poissons Ratio (y) = 0.32120 0.29284
# Poissons Ratio (z) = 0.40520 0.27953
#
# Static dielectric constant tensor:
#      x y z
#    x 1.589020 0.000000 0.000000 
#    y 0.000000 1.610670 0.000000 
#    z 0.000000 0.000000 1.575460 
# 
# From -- ./inp_files/52265.got.cif
#   From: 2010.05.17/outbox.cif.g08.bks.cpg/sg64_27_cif.got.tgz:52265.got - 2010.06.03 16:29:19.
