data_PCOD9478743
_publ_section_title
;
Structure prediction by ZEFSAII (Michael W. Deem and Ramdas Pophale) SiO2 
 PCOD9478743
Probable space group: C M C A
;
_chemical_formula_sum "Si O2"
_cell_formula_units_Z 96
_cell_length_a 17.835611
_cell_length_b 25.032913
_cell_length_c 11.854384
_cell_angle_alpha 90.000000
_cell_angle_beta 90.000000
_cell_angle_gamma 90.000000
_cell_volume 5292.713343
_symmetry_space_group_name_H-M "C M C A"
_symmetry_group_IT_number 64
_symmetry_cell_setting 'orthorhombic'
loop_
_space_group_symop_operation_xyz
x,y,z
-x,1/2-y,1/2+z
x,-y,-z
-x,1/2+y,1/2-z
-x,-y,-z
x,1/2+y,1/2-z
-x,y,z
x,1/2-y,1/2+z
1/2+x,1/2+y,z
1/2-x,-y,1/2+z
1/2+x,1/2-y,-z
1/2-x,y,1/2-z
1/2-x,1/2-y,-z
1/2+x,y,1/2-z
1/2-x,1/2+y,z
1/2+x,-y,1/2+z
loop_
_atom_site_type_symbol
_atom_site_label
_atom_site_fract_x
_atom_site_fract_y
_atom_site_fract_z
Si Si1 0.327204 0.707890 0.098926
Si Si2 0.201633 0.122927 0.444891
Si Si3 0.412003 0.621123 0.244371
Si Si4 0.587654 0.159970 0.600749
Si Si5 0.675186 0.671117 0.679913
Si Si6 0.352234 0.560475 0.036742
O O1 0.249206 0.675440 0.093898
O O2 0.381107 0.674656 0.182819
O O3 0.318618 0.767992 0.137755
O O4 0.364525 0.701479 0.975250
O O5 0.136714 0.112617 0.355879
O O6 0.171244 0.134606 0.569523
O O7 0.265164 0.077177 0.447922
O O8 0.500000 0.624913 0.265479
O O9 0.393614 0.574954 0.153446
O O10 0.500000 0.167047 0.579551
O O11 0.608288 0.165758 0.731128
O O12 0.614141 0.102274 0.554141
O O13 0.750000 0.657367 0.750000
O O14 0.361146 0.500000 0.000000
#
# Coordination Sequence:
#
# PCOD9478743 Si02
#       6
#    16  16  16  16  16  16
#     4  10  20  35  61  82 115 162 203 240 279 339
#     4  10  21  39  58  90 116 152 200 247 292 348
#     4  10  21  38  58  91 127 149 194 246 293 355
#     4  10  23  39  55  88 122 146 198 248 289 362
#     4  12  21  37  58  84 120 163 196 241 296 351
#     4  10  20  41  69  86 108 152 204 250 297 352
#
# _framework density 18.138145000000002
#
# number of rings (size 3 to 8) (size 9 to 14) (size 15 to 20)
#    0.000    2.000    3.333    5.500    2.333    3.333 
#    6.000    0.000    0.000    0.500    0.000    0.000 
#    0.000    0.000    0.000    0.000    0.000    0.000 
#
# Total GULP energy -268081.461355 kJ/mol
# GULP energy per Si atom -5585.030445 kJ/mol
# Density = 1.809686 g / cm^3
# Si number density = 18.138145 Si / 1000 Ang^3
#
#
#
# Elastic Constant Matrix: (Units=GPa)
#
#
# Indices 1 2 3 4 5 6 
#
# 1 95.0213 8.8233 50.5449 0.0000 0.0000 0.0000
# 2 8.8233 44.6303 32.9195 0.0000 0.0000 0.0000
# 3 50.5449 32.9195 103.4953 0.0000 0.0000 0.0000
# 4 0.0000 0.0000 0.0000 9.3279 0.0000 0.0000
# 5 0.0000 0.0000 0.0000 0.0000 27.8524 0.0000
# 6 0.0000 0.0000 0.0000 0.0000 0.0000 3.4560
#
#
#
# Elastic Compliance Matrix: (Units=1/GPa)
#
#
# Indices 1 2 3 4 5 6 
#
# 1 0.014536 0.003087 -0.008081 0.000000 0.000000 0.000000
# 2 0.003087 0.029930 -0.011028 0.000000 0.000000 0.000000
# 3 -0.008081 -0.011028 0.017116 0.000000 0.000000 0.000000
# 4 0.000000 0.000000 0.000000 0.107205 0.000000 0.000000
# 5 0.000000 0.000000 0.000000 0.000000 0.035904 0.000000
# 6 0.000000 0.000000 0.000000 0.000000 0.000000 0.289351
#
#
# Mechanical properties :
#
#
# Convention : Reuss Voigt Hill
#
# Bulk Modulus (GPa) = 33.85358 47.52471 40.68914
# Shear Modulus (GPa) = 9.32956 18.18454 13.75705
#
# Velocity S-wave (km/s) = 2.27041 3.16975 2.75700
# Velocity P-wave (km/s) = 5.05746 6.29721 5.71107
#
# Compressibility (1/GPa) = 0.02953898
#
# Stress axis : x y z
#
# Youngs Moduli (GPa) = 68.79582 33.41119 58.42358
#
# Poissons Ratio (x) = -0.10313 0.47211
# Poissons Ratio (y) = -0.21235 0.64427
# Poissons Ratio (z) = 0.55592 0.36844
#
# Static dielectric constant tensor:
#      x y z
#    x 1.616890 0.000000 0.000000 
#    y 0.000000 1.600990 0.000000 
#    z 0.000000 0.000000 1.644290 
# 
# From -- ./inp_files/16328.got.cif
#   From: 2010.05.17/outbox.cif.g08.bks.cpg/sg64_9_cif.got.tgz:16328.got - 2010.06.03 16:29:19.
