data_PCOD9478650
_publ_section_title
;
Structure prediction by ZEFSAII (Michael W. Deem and Ramdas Pophale) SiO2 
 PCOD9478650
Probable space group: C M C A
;
_chemical_formula_sum "Si O2"
_cell_formula_units_Z 80
_cell_length_a 8.810748
_cell_length_b 27.524090
_cell_length_c 18.494197
_cell_angle_alpha 90.000000
_cell_angle_beta 90.000000
_cell_angle_gamma 90.000000
_cell_volume 4484.987414
_symmetry_space_group_name_H-M "C M C A"
_symmetry_group_IT_number 64
_symmetry_cell_setting 'orthorhombic'
loop_
_space_group_symop_operation_xyz
x,y,z
-x,1/2-y,1/2+z
x,-y,-z
-x,1/2+y,1/2-z
-x,-y,-z
x,1/2+y,1/2-z
-x,y,z
x,1/2-y,1/2+z
1/2+x,1/2+y,z
1/2-x,-y,1/2+z
1/2+x,1/2-y,-z
1/2-x,y,1/2-z
1/2-x,1/2-y,-z
1/2+x,y,1/2-z
1/2-x,1/2+y,z
1/2+x,-y,1/2+z
loop_
_atom_site_type_symbol
_atom_site_label
_atom_site_fract_x
_atom_site_fract_y
_atom_site_fract_z
Si Si1 0.180059 0.956129 0.829699
Si Si2 0.820076 0.157762 0.671713
Si Si3 0.821486 0.551521 0.895730
Si Si4 0.818598 0.699794 0.528232
Si Si5 0.818182 0.104461 0.456608
O O1 0.250000 0.953325 0.750000
O O2 0.252858 0.916281 0.882682
O O3 0.000000 0.950549 0.826548
O O4 0.223348 0.008245 0.864021
O O5 0.750000 0.166557 0.750000
O O6 0.800236 0.101063 0.649711
O O7 0.739131 0.188585 0.609285
O O8 0.000000 0.167513 0.670897
O O9 0.000000 0.537742 0.892067
O O10 0.785899 0.566168 0.978366
O O11 0.750000 0.750000 0.500000
O O12 0.756140 0.655092 0.480282
O O13 0.000000 0.700863 0.526108
O O14 0.000000 0.110005 0.453709
#
# Coordination Sequence:
#
# PCOD9478650 Si02
#       5
#    16  16  16  16  16
#     4  12  24  36  53  79 113 152 191 229 272 325
#     4  10  20  35  56  85 117 148 184 230 282 329
#     4   9  19  35  56  81 112 148 184 225 273 326
#     4  11  22  39  62  86 112 145 185 228 278 334
#     4  10  21  39  60  82 110 144 184 230 279 330
#
# _framework density 17.837285000000001
#
# number of rings (size 3 to 8) (size 9 to 14) (size 15 to 20)
#    0.000    1.600    0.000    7.200    0.000    8.800 
#    0.000    1.000    0.000    0.000    0.000    0.000 
#    0.000    0.000    0.000    0.000    0.000    0.000 
#
# Total GULP energy -223624.474958 kJ/mol
# GULP energy per Si atom -5590.611874 kJ/mol
# Density = 1.779669 g / cm^3
# Si number density = 17.837285 Si / 1000 Ang^3
#
#
#
# Elastic Constant Matrix: (Units=GPa)
#
#
# Indices 1 2 3 4 5 6 
#
# 1 154.0441 76.7249 92.5006 0.0000 0.0000 0.0000
# 2 76.7249 92.6401 80.8168 0.0000 0.0000 0.0000
# 3 92.5006 80.8168 137.7586 0.0000 0.0000 0.0000
# 4 0.0000 0.0000 0.0000 15.4715 0.0000 0.0000
# 5 0.0000 0.0000 0.0000 0.0000 33.6363 0.0000
# 6 0.0000 0.0000 0.0000 0.0000 0.0000 33.5758
#
#
#
# Elastic Compliance Matrix: (Units=1/GPa)
#
#
# Indices 1 2 3 4 5 6 
#
# 1 0.012379 -0.006147 -0.004706 0.000000 0.000000 0.000000
# 2 -0.006147 0.025162 -0.010634 0.000000 0.000000 0.000000
# 3 -0.004706 -0.010634 0.016658 0.000000 0.000000 0.000000
# 4 0.000000 0.000000 0.000000 0.064635 0.000000 0.000000
# 5 0.000000 0.000000 0.000000 0.000000 0.029730 0.000000
# 6 0.000000 0.000000 0.000000 0.000000 0.000000 0.029783
#
#
# Mechanical properties :
#
#
# Convention : Reuss Voigt Hill
#
# Bulk Modulus (GPa) = 89.08860 98.28081 93.68471
# Shear Modulus (GPa) = 22.21595 25.49675 23.85635
#
# Velocity S-wave (km/s) = 3.53296 3.78485 3.66107
# Velocity P-wave (km/s) = 8.16676 8.62081 8.39685
#
# Compressibility (1/GPa) = 0.01122478
#
# Stress axis : x y z
#
# Youngs Moduli (GPa) = 80.78050 39.74183 60.03277
#
# Poissons Ratio (x) = 0.24430 0.28252
# Poissons Ratio (y) = 0.49657 0.63839
# Poissons Ratio (z) = 0.38016 0.42262
#
# Static dielectric constant tensor:
#      x y z
#    x 1.590070 0.000000 0.000000 
#    y 0.000000 1.587560 0.000000 
#    z 0.000000 0.000000 1.593520 
# 
# From -- ./inp_files/29705.got.cif
#   From: 2010.05.17/outbox.cif.g08.bks.cpg/sg64_15_cif.got.tgz:29705.got - 2010.06.03 16:29:19.
