data_PCOD9478934
_publ_section_title
;
Structure prediction by ZEFSAII (Michael W. Deem and Ramdas Pophale) SiO2 
 PCOD9478934
Probable space group: C M C A
;
_chemical_formula_sum "Si O2"
_cell_formula_units_Z 64
_cell_length_a 20.854229
_cell_length_b 8.383015
_cell_length_c 16.246019
_cell_angle_alpha 90.000000
_cell_angle_beta 90.000000
_cell_angle_gamma 90.000000
_cell_volume 2840.150397
_symmetry_space_group_name_H-M "C M C A"
_symmetry_group_IT_number 64
_symmetry_cell_setting 'orthorhombic'
loop_
_space_group_symop_operation_xyz
x,y,z
-x,1/2-y,1/2+z
x,-y,-z
-x,1/2+y,1/2-z
-x,-y,-z
x,1/2+y,1/2-z
-x,y,z
x,1/2-y,1/2+z
1/2+x,1/2+y,z
1/2-x,-y,1/2+z
1/2+x,1/2-y,-z
1/2-x,y,1/2-z
1/2-x,1/2-y,-z
1/2+x,y,1/2-z
1/2-x,1/2+y,z
1/2+x,-y,1/2+z
loop_
_atom_site_type_symbol
_atom_site_label
_atom_site_fract_x
_atom_site_fract_y
_atom_site_fract_z
Si Si1 0.302556 0.098231 0.665741
Si Si2 0.202006 0.782110 0.925895
Si Si3 0.117504 0.116241 0.280572
Si Si4 0.070563 0.682740 0.873945
O O1 0.236845 0.195768 0.652073
O O2 0.355539 0.237457 0.666419
O O3 0.303964 0.968292 0.593570
O O4 0.323404 0.986313 0.742435
O O5 0.131108 0.710113 0.933413
O O6 0.250000 0.750000 0.000000
O O7 0.081609 0.192613 0.201857
O O8 0.077339 0.991818 0.333487
O O9 0.000000 0.705047 0.909723
#
# Coordination Sequence:
#
# PCOD9478934 Si02
#       4
#    16  16  16  16
#     4  10  21  36  59  87 118 153 198 258 305 352
#     4  11  23  38  59  86 121 165 213 249 289 357
#     4   9  20  36  59  93 122 151 197 255 321 374
#     4  10  20  36  60  89 125 162 200 255 318 375
#
# _framework density 22.534018
#
# number of rings (size 3 to 8) (size 9 to 14) (size 15 to 20)
#    0.000    2.000    0.000    3.000    0.000   17.000 
#    0.000    1.250    0.000   30.000    0.000    0.000 
#    0.000    0.000    0.000    0.000    0.000    0.000 
#
# Total GULP energy -178684.738905 kJ/mol
# GULP energy per Si atom -5583.898091 kJ/mol
# Density = 2.248273 g / cm^3
# Si number density = 22.534018 Si / 1000 Ang^3
#
#
#
# Elastic Constant Matrix: (Units=GPa)
#
#
# Indices 1 2 3 4 5 6 
#
# 1 179.6274 41.4860 35.4967 0.0000 0.0000 0.0000
# 2 41.4860 147.9074 28.3972 0.0000 0.0000 0.0000
# 3 35.4967 28.3972 52.1840 0.0000 0.0000 0.0000
# 4 0.0000 0.0000 0.0000 24.6711 0.0000 0.0000
# 5 0.0000 0.0000 0.0000 0.0000 25.4980 0.0000
# 6 0.0000 0.0000 0.0000 0.0000 0.0000 16.4790
#
#
#
# Elastic Compliance Matrix: (Units=1/GPa)
#
#
# Indices 1 2 3 4 5 6 
#
# 1 0.006589 -0.001103 -0.003882 0.000000 0.000000 0.000000
# 2 -0.001103 0.007734 -0.003459 0.000000 0.000000 0.000000
# 3 -0.003882 -0.003459 0.023686 0.000000 0.000000 0.000000
# 4 0.000000 0.000000 0.000000 0.040533 0.000000 0.000000
# 5 0.000000 0.000000 0.000000 0.000000 0.039219 0.000000
# 6 0.000000 0.000000 0.000000 0.000000 0.000000 0.060683
#
#
# Mechanical properties :
#
#
# Convention : Reuss Voigt Hill
#
# Bulk Modulus (GPa) = 47.34347 65.60873 56.47610
# Shear Modulus (GPa) = 24.70708 31.61890 28.16299
#
# Velocity S-wave (km/s) = 3.31484 3.74995 3.53908
# Velocity P-wave (km/s) = 5.97547 6.92301 6.46662
#
# Compressibility (1/GPa) = 0.02112224
#
# Stress axis : x y z
#
# Youngs Moduli (GPa) = 151.77120 129.29329 42.21986
#
# Poissons Ratio (x) = 0.14259 0.16389
# Poissons Ratio (y) = 0.16738 0.14603
# Poissons Ratio (z) = 0.58914 0.44718
#
# Static dielectric constant tensor:
#      x y z
#    x 1.849870 0.000000 0.000000 
#    y 0.000000 1.815490 0.000000 
#    z 0.000000 0.000000 1.986010 
# 
# From -- ./inp_files/33890.got.cif
#   From: 2010.05.17/outbox.cif.g08.bks.cpg/sg64_17_cif.got.tgz:33890.got - 2010.06.03 16:29:19.
