data_PCOD9478611
_publ_section_title
;
Structure prediction by ZEFSAII (Michael W. Deem and Ramdas Pophale) SiO2 
 PCOD9478611
Probable space group: C M C A
;
_chemical_formula_sum "Si O2"
_cell_formula_units_Z 80
_cell_length_a 8.302578
_cell_length_b 15.326684
_cell_length_c 30.977439
_cell_angle_alpha 90.000000
_cell_angle_beta 90.000000
_cell_angle_gamma 90.000000
_cell_volume 3941.909762
_symmetry_space_group_name_H-M "C M C A"
_symmetry_group_IT_number 64
_symmetry_cell_setting 'orthorhombic'
loop_
_space_group_symop_operation_xyz
x,y,z
-x,1/2-y,1/2+z
x,-y,-z
-x,1/2+y,1/2-z
-x,-y,-z
x,1/2+y,1/2-z
-x,y,z
x,1/2-y,1/2+z
1/2+x,1/2+y,z
1/2-x,-y,1/2+z
1/2+x,1/2-y,-z
1/2-x,y,1/2-z
1/2-x,1/2-y,-z
1/2+x,y,1/2-z
1/2-x,1/2+y,z
1/2+x,-y,1/2+z
loop_
_atom_site_type_symbol
_atom_site_label
_atom_site_fract_x
_atom_site_fract_y
_atom_site_fract_z
Si Si1 0.696855 0.714995 0.860678
Si Si2 0.680695 0.771256 0.453418
Si Si3 0.813868 0.956572 0.453512
Si Si4 0.806959 0.868245 0.700976
Si Si5 0.807325 0.512558 0.634389
O O1 0.500000 0.715385 0.862636
O O2 0.756262 0.752822 0.907050
O O3 0.747440 0.778515 0.822354
O O4 0.743842 0.613399 0.856237
O O5 0.500000 0.736752 0.453620
O O6 0.750000 0.750000 0.500000
O O7 0.692072 0.875972 0.451099
O O8 0.774174 0.013252 0.411328
O O9 0.000000 0.926147 0.450438
O O10 0.795370 0.000000 0.500000
O O11 0.750000 0.873113 0.750000
O O12 0.000000 0.869957 0.700062
O O13 0.743888 0.948267 0.672277
O O14 0.000000 0.510663 0.629755
#
# Coordination Sequence:
#
# PCOD9478611 Si02
#       5
#    16  16  16  16  16
#     4   8  19  39  60  81 117 157 193 240 298 354
#     4  10  20  35  55  83 116 155 198 245 297 356
#     4  10  21  36  55  82 117 159 200 241 295 356
#     4  11  23  41  63  89 117 154 198 246 301 360
#     4  10  21  40  62  88 120 156 198 249 302 359
#
# _framework density 20.294730999999999
#
# number of rings (size 3 to 8) (size 9 to 14) (size 15 to 20)
#    0.000    2.200    0.000    3.600    2.800    2.400 
#    0.000   13.000    0.000    0.000    0.000    0.000 
#    0.000    0.000    0.000    0.000    0.000    0.000 
#
# Total GULP energy -223101.139911 kJ/mol
# GULP energy per Si atom -5577.528498 kJ/mol
# Density = 2.024854 g / cm^3
# Si number density = 20.294731 Si / 1000 Ang^3
#
#
#
# Elastic Constant Matrix: (Units=GPa)
#
#
# Indices 1 2 3 4 5 6 
#
# 1 41.8585 14.3155 33.7983 0.0000 0.0000 0.0000
# 2 14.3155 76.9677 70.6475 0.0000 0.0000 0.0000
# 3 33.7983 70.6475 205.6332 0.0000 0.0000 0.0000
# 4 0.0000 0.0000 0.0000 37.7014 0.0000 0.0000
# 5 0.0000 0.0000 0.0000 0.0000 28.6183 0.0000
# 6 0.0000 0.0000 0.0000 0.0000 0.0000 19.8546
#
#
#
# Elastic Compliance Matrix: (Units=1/GPa)
#
#
# Indices 1 2 3 4 5 6 
#
# 1 0.027651 -0.001419 -0.004057 0.000000 0.000000 0.000000
# 2 -0.001419 0.019050 -0.006312 0.000000 0.000000 0.000000
# 3 -0.004057 -0.006312 0.007698 0.000000 0.000000 0.000000
# 4 0.000000 0.000000 0.000000 0.026524 0.000000 0.000000
# 5 0.000000 0.000000 0.000000 0.000000 0.034943 0.000000
# 6 0.000000 0.000000 0.000000 0.000000 0.000000 0.050366
#
#
# Mechanical properties :
#
#
# Convention : Reuss Voigt Hill
#
# Bulk Modulus (GPa) = 32.44232 62.44246 47.44239
# Shear Modulus (GPa) = 24.98973 30.94807 27.96890
#
# Velocity S-wave (km/s) = 3.51285 3.90927 3.71635
# Velocity P-wave (km/s) = 5.69858 7.15620 6.46858
#
# Compressibility (1/GPa) = 0.03082394
#
# Stress axis : x y z
#
# Youngs Moduli (GPa) = 36.16456 52.49465 129.89879
#
# Poissons Ratio (x) = 0.07448 0.52705
# Poissons Ratio (y) = 0.05131 0.81986
# Poissons Ratio (z) = 0.14673 0.33132
#
# Static dielectric constant tensor:
#      x y z
#    x 1.723250 0.000000 0.000000 
#    y 0.000000 1.723290 0.000000 
#    z 0.000000 0.000000 1.747780 
# 
# From -- ./inp_files/47809.got.cif
#   From: 2010.05.17/outbox.cif.g08.bks.cpg/sg64_24_cif.got.tgz:47809.got - 2010.06.03 16:29:19.
