data_PCOD9478712
_publ_section_title
;
Structure prediction by ZEFSAII (Michael W. Deem and Ramdas Pophale) SiO2 
 PCOD9478712
Probable space group: C M C A
;
_chemical_formula_sum "Si O2"
_cell_formula_units_Z 96
_cell_length_a 15.139796
_cell_length_b 19.172763
_cell_length_c 16.558265
_cell_angle_alpha 90.000000
_cell_angle_beta 90.000000
_cell_angle_gamma 90.000000
_cell_volume 4806.396071
_symmetry_space_group_name_H-M "C M C A"
_symmetry_group_IT_number 64
_symmetry_cell_setting 'orthorhombic'
loop_
_space_group_symop_operation_xyz
x,y,z
-x,1/2-y,1/2+z
x,-y,-z
-x,1/2+y,1/2-z
-x,-y,-z
x,1/2+y,1/2-z
-x,y,z
x,1/2-y,1/2+z
1/2+x,1/2+y,z
1/2-x,-y,1/2+z
1/2+x,1/2-y,-z
1/2-x,y,1/2-z
1/2-x,1/2-y,-z
1/2+x,y,1/2-z
1/2-x,1/2+y,z
1/2+x,-y,1/2+z
loop_
_atom_site_type_symbol
_atom_site_label
_atom_site_fract_x
_atom_site_fract_y
_atom_site_fract_z
Si Si1 0.199052 0.127111 0.099242
Si Si2 0.500000 0.935846 0.111110
Si Si3 0.693740 0.022402 0.671791
Si Si4 0.000000 0.362425 0.605621
Si Si5 0.500000 0.494299 0.778485
Si Si6 0.686255 0.892078 0.055118
Si Si7 0.682965 0.272202 0.314133
Si Si8 0.000000 0.716756 0.808303
O O1 0.205716 0.196132 0.153159
O O2 0.096537 0.124314 0.066136
O O3 0.208687 0.058828 0.153224
O O4 0.274814 0.126046 0.031912
O O5 0.500000 0.995107 0.181101
O O6 0.591964 0.932260 0.061266
O O7 0.500000 0.861840 0.159254
O O8 0.750000 0.041741 0.750000
O O9 0.589601 0.030227 0.688819
O O10 0.736646 0.063274 0.597691
O O11 0.000000 0.415170 0.684155
O O12 0.000000 0.279851 0.626029
O O13 0.674964 0.822494 0.108953
O O14 0.750000 0.300671 0.250000
O O15 0.591274 0.270519 0.265398
#
# Coordination Sequence:
#
# PCOD9478712 Si02
#       8
#    16   8  16   8   8  16  16   8
#     4  10  21  38  58  84 116 150 186 239 294 346
#     4  10  20  36  58  83 118 154 188 234 290 347
#     4  11  21  37  59  83 111 150 194 237 279 342
#     4   8  18  37  59  82 112 151 190 237 291 334
#     4  10  20  35  59  84 110 146 197 240 277 333
#     4  11  22  37  58  85 117 149 189 237 297 343
#     4  10  20  37  59  84 111 151 194 237 284 346
#     4   8  18  34  57  80 113 140 189 237 283 327
#
# _framework density 19.973385
#
# number of rings (size 3 to 8) (size 9 to 14) (size 15 to 20)
#    0.000    2.000    1.667    2.000    2.333    0.667 
#    0.000    6.667    0.000    0.000    0.000    0.000 
#    0.000    0.000    0.000    0.000    0.000    0.000 
#
# Total GULP energy -267413.600673 kJ/mol
# GULP energy per Si atom -5571.116681 kJ/mol
# Density = 1.992792 g / cm^3
# Si number density = 19.973385 Si / 1000 Ang^3
#
#
#
# Elastic Constant Matrix: (Units=GPa)
#
#
# Indices 1 2 3 4 5 6 
#
# 1 129.5325 12.0038 43.3969 0.0000 0.0000 0.0000
# 2 12.0038 92.3923 8.0823 0.0000 0.0000 0.0000
# 3 43.3969 8.0823 43.0389 0.0000 0.0000 0.0000
# 4 0.0000 0.0000 0.0000 28.6300 0.0000 0.0000
# 5 0.0000 0.0000 0.0000 0.0000 27.7537 0.0000
# 6 0.0000 0.0000 0.0000 0.0000 0.0000 7.8131
#
#
#
# Elastic Compliance Matrix: (Units=1/GPa)
#
#
# Indices 1 2 3 4 5 6 
#
# 1 0.011681 -0.000495 -0.011685 0.000000 0.000000 0.000000
# 2 -0.000495 0.011025 -0.001571 0.000000 0.000000 0.000000
# 3 -0.011685 -0.001571 0.035312 0.000000 0.000000 0.000000
# 4 0.000000 0.000000 0.000000 0.034928 0.000000 0.000000
# 5 0.000000 0.000000 0.000000 0.000000 0.036031 0.000000
# 6 0.000000 0.000000 0.000000 0.000000 0.000000 0.127991
#
#
# Mechanical properties :
#
#
# Convention : Reuss Voigt Hill
#
# Bulk Modulus (GPa) = 32.77030 43.54775 38.15902
# Shear Modulus (GPa) = 16.96974 26.27141 21.62058
#
# Velocity S-wave (km/s) = 2.91798 3.63067 3.29366
# Velocity P-wave (km/s) = 5.27214 6.27901 5.79747
#
# Compressibility (1/GPa) = 0.03051544
#
# Stress axis : x y z
#
# Youngs Moduli (GPa) = 85.61110 90.70137 28.31914
#
# Poissons Ratio (x) = 0.04494 0.33090
# Poissons Ratio (y) = 0.04241 0.04449
# Poissons Ratio (z) = 1.00035 0.14248
#
# Static dielectric constant tensor:
#      x y z
#    x 1.785140 0.000000 0.000000 
#    y 0.000000 1.708790 0.000000 
#    z 0.000000 0.000000 1.656070 
# 
# From -- ./inp_files/24010.got.cif
#   From: 2010.05.17/outbox.cif.g08.bks.cpg/sg64_13_cif.got.tgz:24010.got - 2010.06.03 16:29:19.
