data_PCOD9478956
_publ_section_title
;
Structure prediction by ZEFSAII (Michael W. Deem and Ramdas Pophale) SiO2 
 PCOD9478956
Probable space group: C M C A
;
_chemical_formula_sum "Si O2"
_cell_formula_units_Z 80
_cell_length_a 22.115119
_cell_length_b 14.034176
_cell_length_c 11.383694
_cell_angle_alpha 90.000000
_cell_angle_beta 90.000000
_cell_angle_gamma 90.000000
_cell_volume 3533.128332
_symmetry_space_group_name_H-M "C M C A"
_symmetry_group_IT_number 64
_symmetry_cell_setting 'orthorhombic'
loop_
_space_group_symop_operation_xyz
x,y,z
-x,1/2-y,1/2+z
x,-y,-z
-x,1/2+y,1/2-z
-x,-y,-z
x,1/2+y,1/2-z
-x,y,z
x,1/2-y,1/2+z
1/2+x,1/2+y,z
1/2-x,-y,1/2+z
1/2+x,1/2-y,-z
1/2-x,y,1/2-z
1/2-x,1/2-y,-z
1/2+x,y,1/2-z
1/2-x,1/2+y,z
1/2+x,-y,1/2+z
loop_
_atom_site_type_symbol
_atom_site_label
_atom_site_fract_x
_atom_site_fract_y
_atom_site_fract_z
Si Si1 0.928686 0.966375 0.634831
Si Si2 0.764561 0.900746 0.001584
Si Si3 0.822537 0.752092 0.371445
Si Si4 0.931408 0.239246 0.449326
Si Si5 0.631649 0.889353 0.314497
O O1 0.915131 0.853330 0.629767
O O2 0.000000 0.977954 0.664914
O O3 0.921159 0.000000 0.500000
O O4 0.889361 0.030276 0.723411
O O5 0.720802 0.824543 0.059703
O O6 0.821223 0.922399 0.087359
O O7 0.791609 0.850993 0.885241
O O8 0.729969 0.000000 0.000000
O O9 0.885531 0.752401 0.442478
O O10 0.833752 0.801499 0.248445
O O11 0.924202 0.336444 0.376565
O O12 0.000000 0.224208 0.489688
#
# Coordination Sequence:
#
# PCOD9478956 Si02
#       5
#    16  16  16  16  16
#     4  10  20  36  61  92 122 160 208 250 302 370
#     4  10  24  42  62  88 124 162 205 259 308 364
#     4  10  22  42  61  89 123 158 208 249 308 372
#     4  10  22  38  61  91 123 159 200 256 307 361
#     4  11  22  38  63  89 123 163 205 252 313 360
#
# _framework density 22.642823
#
# number of rings (size 3 to 8) (size 9 to 14) (size 15 to 20)
#    0.000    1.800    2.000    1.200    5.600    0.800 
#    0.000    2.000    0.000    3.000    0.000    0.000 
#    0.000    0.000    0.000    0.000    0.000    0.000 
#
# Total GULP energy -223487.418256 kJ/mol
# GULP energy per Si atom -5587.185456 kJ/mol
# Density = 2.259129 g / cm^3
# Si number density = 22.642823 Si / 1000 Ang^3
#
#
#
# Elastic Constant Matrix: (Units=GPa)
#
#
# Indices 1 2 3 4 5 6 
#
# 1 58.1837 2.3028 0.7774 0.0000 0.0000 0.0000
# 2 2.3028 75.0879 -3.5431 0.0000 0.0000 0.0000
# 3 0.7774 -3.5431 45.1222 0.0000 0.0000 0.0000
# 4 0.0000 0.0000 0.0000 25.6155 0.0000 0.0000
# 5 0.0000 0.0000 0.0000 0.0000 21.2942 0.0000
# 6 0.0000 0.0000 0.0000 0.0000 0.0000 25.3345
#
#
#
# Elastic Compliance Matrix: (Units=1/GPa)
#
#
# Indices 1 2 3 4 5 6 
#
# 1 0.017213 -0.000544 -0.000339 0.000000 0.000000 0.000000
# 2 -0.000544 0.013384 0.001060 0.000000 0.000000 0.000000
# 3 -0.000339 0.001060 0.022251 0.000000 0.000000 0.000000
# 4 0.000000 0.000000 0.000000 0.039039 0.000000 0.000000
# 5 0.000000 0.000000 0.000000 0.000000 0.046961 0.000000
# 6 0.000000 0.000000 0.000000 0.000000 0.000000 0.039472
#
#
# Mechanical properties :
#
#
# Convention : Reuss Voigt Hill
#
# Bulk Modulus (GPa) = 18.79594 19.71866 19.25730
# Shear Modulus (GPa) = 25.54924 26.37261 25.96093
#
# Velocity S-wave (km/s) = 3.36275 3.41651 3.38973
# Velocity P-wave (km/s) = 4.83700 4.92857 4.88300
#
# Compressibility (1/GPa) = 0.05320297
#
# Stress axis : x y z
#
# Youngs Moduli (GPa) = 58.09561 74.71360 44.94148
#
# Poissons Ratio (x) = 0.04064 0.01525
# Poissons Ratio (y) = 0.03160 -0.04765
# Poissons Ratio (z) = 0.01971 -0.07922
#
# Static dielectric constant tensor:
#      x y z
#    x 1.835770 0.000000 0.000000 
#    y 0.000000 1.949060 0.000000 
#    z 0.000000 0.000000 1.848740 
# 
# From -- ./inp_files/18047.got.cif
#   From: 2010.05.17/outbox.cif.g08.bks.cpg/sg64_10_cif.got.tgz:18047.got - 2010.06.03 16:29:19.
