data_PCOD9478619
_publ_section_title
;
Structure prediction by ZEFSAII (Michael W. Deem and Ramdas Pophale) SiO2 
 PCOD9478619
Probable space group: C M C A
;
_chemical_formula_sum "Si O2"
_cell_formula_units_Z 96
_cell_length_a 23.236059
_cell_length_b 9.080507
_cell_length_c 21.304070
_cell_angle_alpha 90.000000
_cell_angle_beta 90.000000
_cell_angle_gamma 90.000000
_cell_volume 4495.056434
_symmetry_space_group_name_H-M "C M C A"
_symmetry_group_IT_number 64
_symmetry_cell_setting 'orthorhombic'
loop_
_space_group_symop_operation_xyz
x,y,z
-x,1/2-y,1/2+z
x,-y,-z
-x,1/2+y,1/2-z
-x,-y,-z
x,1/2+y,1/2-z
-x,y,z
x,1/2-y,1/2+z
1/2+x,1/2+y,z
1/2-x,-y,1/2+z
1/2+x,1/2-y,-z
1/2-x,y,1/2-z
1/2-x,1/2-y,-z
1/2+x,y,1/2-z
1/2-x,1/2+y,z
1/2+x,-y,1/2+z
loop_
_atom_site_type_symbol
_atom_site_label
_atom_site_fract_x
_atom_site_fract_y
_atom_site_fract_z
Si Si1 0.436365 0.615997 0.600357
Si Si2 0.434779 0.629425 0.292811
Si Si3 0.323220 0.539916 0.436096
Si Si4 0.771723 0.375597 0.183411
Si Si5 0.846523 0.681689 0.628978
Si Si6 0.627637 0.863137 0.664855
O O1 0.500000 0.609846 0.571459
O O2 0.436959 0.511534 0.661904
O O3 0.382434 0.553662 0.562367
O O4 0.419311 0.776589 0.624079
O O5 0.500000 0.177916 0.220737
O O6 0.398873 0.752203 0.330430
O O7 0.401178 0.588823 0.230000
O O8 0.290411 0.500000 0.500000
O O9 0.291372 0.485162 0.372564
O O10 0.339990 0.711531 0.430700
O O11 0.750000 0.444060 0.250000
O O12 0.713714 0.294916 0.163531
O O13 0.822643 0.254244 0.183855
O O14 0.852217 0.506076 0.626597
#
# Coordination Sequence:
#
# PCOD9478619 Si02
#       6
#    16  16  16  16  16  16
#     4   9  20  38  59  86 123 169 213 265 329 387
#     4  10  20  35  55  86 128 166 200 254 327 395
#     4  10  24  44  65  93 128 176 227 267 316 390
#     4  11  23  41  64  93 133 172 209 266 331 393
#     4  11  23  37  62  91 122 167 213 263 320 390
#     4  11  21  34  57  91 126 161 206 267 326 390
#
# _framework density 21.356795000000002
#
# number of rings (size 3 to 8) (size 9 to 14) (size 15 to 20)
#    0.000    1.667    1.667    2.500    4.667    5.000 
#    0.000    3.333    0.000    1.000    0.000    0.000 
#    0.000    0.000    0.000    0.000    0.000    0.000 
#
# Total GULP energy -267803.501271 kJ/mol
# GULP energy per Si atom -5579.239610 kJ/mol
# Density = 2.130819 g / cm^3
# Si number density = 21.356795 Si / 1000 Ang^3
#
#
#
# Elastic Constant Matrix: (Units=GPa)
#
#
# Indices 1 2 3 4 5 6 
#
# 1 107.3898 19.4662 15.1783 0.0000 0.0000 0.0000
# 2 19.4662 94.5959 40.8785 0.0000 0.0000 0.0000
# 3 15.1783 40.8785 86.7292 0.0000 0.0000 0.0000
# 4 0.0000 0.0000 0.0000 6.3786 0.0000 0.0000
# 5 0.0000 0.0000 0.0000 0.0000 9.6181 0.0000
# 6 0.0000 0.0000 0.0000 0.0000 0.0000 -2.0596
#
#
#
# Elastic Compliance Matrix: (Units=1/GPa)
#
#
# Indices 1 2 3 4 5 6 
#
# 1 0.009735 -0.001591 -0.000954 0.000000 0.000000 0.000000
# 2 -0.001591 0.013535 -0.006101 0.000000 0.000000 0.000000
# 3 -0.000954 -0.006101 0.014573 0.000000 0.000000 0.000000
# 4 0.000000 0.000000 0.000000 0.156774 0.000000 0.000000
# 5 0.000000 0.000000 0.000000 0.000000 0.103971 0.000000
# 6 0.000000 0.000000 0.000000 0.000000 0.000000 -0.485542
#
#
# Mechanical properties :
#
#
# Convention : Reuss Voigt Hill
#
# Bulk Modulus (GPa) = 48.65959 48.86233 48.76096
# Shear Modulus (GPa) = -30.71044 17.00022 -6.85511
#
# Velocity S-wave (km/s) = -3.79617 2.82443 -1.79354
# Velocity P-wave (km/s) = 1.90237 5.79355 4.31186
#
# Compressibility (1/GPa) = 0.02055094
#
# Stress axis : x y z
#
# Youngs Moduli (GPa) = 102.72112 73.88105 68.62120
#
# Poissons Ratio (x) = 0.11756 0.06545
# Poissons Ratio (y) = 0.16345 0.41867
# Poissons Ratio (z) = 0.09797 0.45076
#
# Static dielectric constant tensor:
#      x y z
#    x 1.794540 0.000000 0.000000 
#    y 0.000000 1.790410 0.000000 
#    z 0.000000 0.000000 1.912790 
# 
# From -- ./inp_files/41806.got.cif
#   From: 2010.05.17/outbox.cif.g08.bks.cpg/sg64_21_cif.got.tgz:41806.got - 2010.06.03 16:29:19.
