data_PCOD9478231
_publ_section_title
;
Structure prediction by ZEFSAII (Michael W. Deem and Ramdas Pophale) SiO2 
 PCOD9478231
Probable space group: C M C A
;
_chemical_formula_sum "Si O2"
_cell_formula_units_Z 80
_cell_length_a 9.124782
_cell_length_b 28.000136
_cell_length_c 18.418632
_cell_angle_alpha 90.000000
_cell_angle_beta 90.000000
_cell_angle_gamma 90.000000
_cell_volume 4705.870906
_symmetry_space_group_name_H-M "C M C A"
_symmetry_group_IT_number 64
_symmetry_cell_setting 'orthorhombic'
loop_
_space_group_symop_operation_xyz
x,y,z
-x,1/2-y,1/2+z
x,-y,-z
-x,1/2+y,1/2-z
-x,-y,-z
x,1/2+y,1/2-z
-x,y,z
x,1/2-y,1/2+z
1/2+x,1/2+y,z
1/2-x,-y,1/2+z
1/2+x,1/2-y,-z
1/2-x,y,1/2-z
1/2-x,1/2-y,-z
1/2+x,y,1/2-z
1/2-x,1/2+y,z
1/2+x,-y,1/2+z
loop_
_atom_site_type_symbol
_atom_site_label
_atom_site_fract_x
_atom_site_fract_y
_atom_site_fract_z
Si Si1 0.176612 0.458128 0.672660
Si Si2 0.674730 0.936224 0.382056
Si Si3 0.674531 0.700746 0.521496
Si Si4 0.826349 0.157037 0.677786
Si Si5 0.324838 0.892856 0.537660
O O1 0.250000 0.449284 0.750000
O O2 0.216247 0.511074 0.643891
O O3 0.218227 0.419873 0.611064
O O4 0.000000 0.456905 0.679631
O O5 0.500000 0.930143 0.370142
O O6 0.760541 0.895215 0.339293
O O7 0.701808 0.926786 0.467561
O O8 0.500000 0.703229 0.511083
O O9 0.750000 0.750000 0.500000
O O10 0.703060 0.688309 0.606121
O O11 0.741134 0.656373 0.476753
O O12 0.750000 0.176129 0.750000
O O13 0.000000 0.153669 0.688173
O O14 0.500000 0.883826 0.539643
#
# Coordination Sequence:
#
# PCOD9478231 Si02
#       5
#    16  16  16  16  16
#     4  10  20  32  48  73 105 140 175 208 245 293
#     4   9  17  31  52  75 101 135 172 209 249 294
#     4  10  21  37  57  79 101 128 166 210 256 305
#     4  10  20  33  51  78 107 132 163 205 252 301
#     4   9  18  34  54  74  99 133 172 211 251 298
#
# _framework density 17.000042000000001
#
# number of rings (size 3 to 8) (size 9 to 14) (size 15 to 20)
#    0.000    2.400    0.000    2.400    0.000    8.000 
#    0.000    1.000    0.000    6.000    0.000    0.000 
#    0.000    0.000    0.000    0.000    0.000    0.000 
#
# Total GULP energy -223233.155843 kJ/mol
# GULP energy per Si atom -5580.828896 kJ/mol
# Density = 1.696135 g / cm^3
# Si number density = 17.000042 Si / 1000 Ang^3
#
#
#
# Elastic Constant Matrix: (Units=GPa)
#
#
# Indices 1 2 3 4 5 6 
#
# 1 54.7750 62.6794 70.1673 0.0000 0.0000 0.0000
# 2 62.6794 111.6746 86.9038 0.0000 0.0000 0.0000
# 3 70.1673 86.9038 140.4214 0.0000 0.0000 0.0000
# 4 0.0000 0.0000 0.0000 11.7277 0.0000 0.0000
# 5 0.0000 0.0000 0.0000 0.0000 32.7155 0.0000
# 6 0.0000 0.0000 0.0000 0.0000 0.0000 21.4972
#
#
#
# Elastic Compliance Matrix: (Units=1/GPa)
#
#
# Indices 1 2 3 4 5 6 
#
# 1 0.075136 -0.024990 -0.022079 0.000000 0.000000 0.000000
# 2 -0.024990 0.025585 -0.003347 0.000000 0.000000 0.000000
# 3 -0.022079 -0.003347 0.020226 0.000000 0.000000 0.000000
# 4 0.000000 0.000000 0.000000 0.085268 0.000000 0.000000
# 5 0.000000 0.000000 0.000000 0.000000 0.030567 0.000000
# 6 0.000000 0.000000 0.000000 0.000000 0.000000 0.046518
#
#
# Mechanical properties :
#
#
# Convention : Reuss Voigt Hill
#
# Bulk Modulus (GPa) = 49.71412 82.93024 66.32218
# Shear Modulus (GPa) = 12.79310 18.99613 15.89461
#
# Velocity S-wave (km/s) = 2.74621 3.34640 3.06105
# Velocity P-wave (km/s) = 6.27396 7.98871 7.18269
#
# Compressibility (1/GPa) = 0.02011501
#
# Stress axis : x y z
#
# Youngs Moduli (GPa) = 13.30916 39.08537 49.44233
#
# Poissons Ratio (x) = 0.97673 1.09165
# Poissons Ratio (y) = 0.33259 0.16548
# Poissons Ratio (z) = 0.29386 0.13081
#
# Static dielectric constant tensor:
#      x y z
#    x 1.564800 0.000000 0.000000 
#    y 0.000000 1.539760 0.000000 
#    z 0.000000 0.000000 1.577230 
# 
# From -- ./inp_files/29691.got.cif
#   From: 2010.05.17/outbox.cif.g08.bks.cpg/sg64_15_cif.got.tgz:29691.got - 2010.06.03 16:29:19.
