data_PCOD9478438
_publ_section_title
;
Structure prediction by ZEFSAII (Michael W. Deem and Ramdas Pophale) SiO2 
 PCOD9478438
Probable space group: C M C A
;
_chemical_formula_sum "Si O2"
_cell_formula_units_Z 116
_cell_length_a 8.031522
_cell_length_b 30.093494
_cell_length_c 25.334203
_cell_angle_alpha 90.000000
_cell_angle_beta 90.000000
_cell_angle_gamma 90.000000
_cell_volume 6123.189693
_symmetry_space_group_name_H-M "C M C A"
_symmetry_group_IT_number 64
_symmetry_cell_setting 'orthorhombic'
loop_
_space_group_symop_operation_xyz
x,y,z
-x,1/2-y,1/2+z
x,-y,-z
-x,1/2+y,1/2-z
-x,-y,-z
x,1/2+y,1/2-z
-x,y,z
x,1/2-y,1/2+z
1/2+x,1/2+y,z
1/2-x,-y,1/2+z
1/2+x,1/2-y,-z
1/2-x,y,1/2-z
1/2-x,1/2-y,-z
1/2+x,y,1/2-z
1/2-x,1/2+y,z
1/2+x,-y,1/2+z
loop_
_atom_site_type_symbol
_atom_site_label
_atom_site_fract_x
_atom_site_fract_y
_atom_site_fract_z
Si Si1 0.807285 0.286942 0.439489
Si Si2 0.000000 0.500000 0.500000
Si Si3 0.198712 0.444030 0.310178
Si Si4 0.191459 0.870121 0.391440
Si Si5 0.700120 0.955976 0.689750
Si Si6 0.305625 0.093918 0.414676
Si Si7 0.189208 0.056596 0.522224
Si Si8 0.194254 0.310520 0.945033
O O1 0.792676 0.324786 0.395719
O O2 0.748891 0.237689 0.423546
O O3 0.714166 0.304156 0.491830
O O4 0.000000 0.281814 0.455114
O O5 0.151842 0.474541 0.466801
O O6 0.250000 0.436500 0.250000
O O7 0.267346 0.404893 0.345969
O O8 0.260816 0.493980 0.323605
O O9 0.000000 0.444143 0.314920
O O10 0.215931 0.898684 0.444582
O O11 0.000000 0.856958 0.387894
O O12 0.500000 0.957077 0.689553
O O13 0.750000 0.945145 0.750000
O O14 0.748768 0.922307 0.643146
O O15 0.500000 0.079936 0.423586
O O16 0.203510 0.070017 0.460850
O O17 0.289841 0.146544 0.423831
O O18 0.000000 0.040737 0.534377
O O19 0.500000 0.182300 0.067295
#
# Coordination Sequence:
#
# PCOD9478438 Si02
#       8
#    16   4  16  16  16  16  16  16
#     4  10  20  34  55  80 112 150 188 233 292 350
#     4  12  26  40  56  74 124 160 198 232 296 344
#     4  10  21  38  60  82 110 148 193 238 287 338
#     4  11  23  37  56  83 116 147 192 241 285 346
#     4   9  21  38  58  82 109 146 194 239 284 339
#     4  11  21  36  57  83 117 154 192 238 290 348
#     4  11  25  39  55  84 117 157 198 236 287 352
#     4  10  20  34  53  82 114 148 190 236 286 349
#
# _framework density 18.944375999999998
#
# number of rings (size 3 to 8) (size 9 to 14) (size 15 to 20)
#    0.000    1.655    2.069    2.276    3.862    3.310 
#    0.000    0.000    0.000    0.828    0.000    1.931 
#    0.000    0.000    0.000    0.000    0.000    0.000 
#
# Total GULP energy -323212.112724 kJ/mol
# GULP energy per Si atom -5572.622633 kJ/mol
# Density = 1.890126 g / cm^3
# Si number density = 18.944376 Si / 1000 Ang^3
#
#
#
# Elastic Constant Matrix: (Units=GPa)
#
#
# Indices 1 2 3 4 5 6 
#
# 1 76.2072 17.2913 2.5281 0.0000 0.0000 0.0000
# 2 17.2913 102.3143 39.9746 0.0000 0.0000 0.0000
# 3 2.5281 39.9746 73.2405 0.0000 0.0000 0.0000
# 4 0.0000 0.0000 0.0000 10.3580 0.0000 0.0000
# 5 0.0000 0.0000 0.0000 0.0000 22.4076 0.0000
# 6 0.0000 0.0000 0.0000 0.0000 0.0000 23.7999
#
#
#
# Elastic Compliance Matrix: (Units=1/GPa)
#
#
# Indices 1 2 3 4 5 6 
#
# 1 0.013703 -0.002709 0.001005 0.000000 0.000000 0.000000
# 2 -0.002709 0.012958 -0.006979 0.000000 0.000000 0.000000
# 3 0.001005 -0.006979 0.017428 0.000000 0.000000 0.000000
# 4 0.000000 0.000000 0.000000 0.096544 0.000000 0.000000
# 5 0.000000 0.000000 0.000000 0.000000 0.044628 0.000000
# 6 0.000000 0.000000 0.000000 0.000000 0.000000 0.042017
#
#
# Mechanical properties :
#
#
# Convention : Reuss Voigt Hill
#
# Bulk Modulus (GPa) = 37.41822 41.26111 39.33966
# Shear Modulus (GPa) = 19.71982 24.11096 21.91539
#
# Velocity S-wave (km/s) = 3.22985 3.57140 3.40491
# Velocity P-wave (km/s) = 5.80549 6.23169 6.02236
#
# Compressibility (1/GPa) = 0.02672495
#
# Stress axis : x y z
#
# Youngs Moduli (GPa) = 72.97475 77.17022 57.37842
#
# Poissons Ratio (x) = 0.20903 -0.05769
# Poissons Ratio (y) = 0.19767 0.40045
# Poissons Ratio (z) = -0.07337 0.53858
#
# Static dielectric constant tensor:
#      x y z
#    x 1.673090 0.000000 0.000000 
#    y 0.000000 1.721360 0.000000 
#    z 0.000000 0.000000 1.657480 
# 
# From -- ./inp_files/43577.got.cif
#   From: 2010.05.17/outbox.cif.g08.bks.cpg/sg64_22_cif.got.tgz:43577.got - 2010.06.03 16:29:19.
