data_PCOD9478150
_publ_section_title
;
Structure prediction by ZEFSAII (Michael W. Deem and Ramdas Pophale) SiO2 
 PCOD9478150
Probable space group: C M C A
;
_chemical_formula_sum "Si O2"
_cell_formula_units_Z 104
_cell_length_a 28.257666
_cell_length_b 13.832306
_cell_length_c 13.618544
_cell_angle_alpha 90.000000
_cell_angle_beta 90.000000
_cell_angle_gamma 90.000000
_cell_volume 5323.062357
_symmetry_space_group_name_H-M "C M C A"
_symmetry_group_IT_number 64
_symmetry_cell_setting 'orthorhombic'
loop_
_space_group_symop_operation_xyz
x,y,z
-x,1/2-y,1/2+z
x,-y,-z
-x,1/2+y,1/2-z
-x,-y,-z
x,1/2+y,1/2-z
-x,y,z
x,1/2-y,1/2+z
1/2+x,1/2+y,z
1/2-x,-y,1/2+z
1/2+x,1/2-y,-z
1/2-x,y,1/2-z
1/2-x,1/2-y,-z
1/2+x,y,1/2-z
1/2-x,1/2+y,z
1/2+x,-y,1/2+z
loop_
_atom_site_type_symbol
_atom_site_label
_atom_site_fract_x
_atom_site_fract_y
_atom_site_fract_z
Si Si1 0.942709 0.419010 0.582587
Si Si2 0.250000 0.267514 0.750000
Si Si3 0.000000 0.614679 0.112014
Si Si4 0.500000 0.112440 0.878874
Si Si5 0.195972 0.369544 0.097960
Si Si6 0.595833 0.220859 0.866165
Si Si7 0.189976 0.911269 0.624924
Si Si8 0.594313 0.871905 0.785215
O O1 0.932228 0.500000 0.500000
O O2 0.920647 0.311503 0.564096
O O3 0.920904 0.439273 0.691636
O O4 0.000000 0.410619 0.590590
O O5 0.226249 0.203111 0.664366
O O6 0.211690 0.339029 0.796864
O O7 0.047106 0.656017 0.158138
O O8 0.000000 0.501226 0.139347
O O9 0.000000 0.624773 0.996284
O O10 0.548479 0.160976 0.844078
O O11 0.204613 0.477669 0.137166
O O12 0.206263 0.374829 0.981910
O O13 0.112220 0.224301 0.231875
O O14 0.640264 0.158948 0.899770
O O15 0.133346 0.911981 0.641740
#
# Coordination Sequence:
#
# PCOD9478150 Si02
#       8
#    16   8   8   8  16  16  16  16
#     4   9  17  34  59  82 124 169 211 260 314 360
#     4  12  22  48  70  98 126 158 216 270 328 398
#     4  11  21  34  55  82 119 165 207 258 312 377
#     4  11  21  34  55  82 119 167 211 254 312 381
#     4  11  24  43  69  98 128 169 208 264 335 389
#     4  10  19  39  59  87 128 163 212 261 312 384
#     4  11  24  43  69  95 130 166 208 266 326 396
#     4  10  19  39  59  87 127 162 210 262 314 380
#
# _framework density 19.537625999999999
#
# number of rings (size 3 to 8) (size 9 to 14) (size 15 to 20)
#    0.923    0.615    3.077    3.231    0.000    2.462 
#    2.769    3.077    6.769    0.000    0.000    0.000 
#    0.000    0.000    0.000    0.000    0.000    0.000 
#
# Total GULP energy -289724.923193 kJ/mol
# GULP energy per Si atom -5571.633138 kJ/mol
# Density = 1.949316 g / cm^3
# Si number density = 19.537626 Si / 1000 Ang^3
#
#
#
# Elastic Constant Matrix: (Units=GPa)
#
#
# Indices 1 2 3 4 5 6 
#
# 1 82.7335 28.8999 20.9982 0.0000 0.0000 0.0000
# 2 28.8999 89.2432 41.2556 0.0000 0.0000 0.0000
# 3 20.9982 41.2556 64.6150 0.0000 0.0000 0.0000
# 4 0.0000 0.0000 0.0000 20.2454 0.0000 0.0000
# 5 0.0000 0.0000 0.0000 0.0000 23.6360 0.0000
# 6 0.0000 0.0000 0.0000 0.0000 0.0000 25.6945
#
#
#
# Elastic Compliance Matrix: (Units=1/GPa)
#
#
# Indices 1 2 3 4 5 6 
#
# 1 0.013871 -0.003416 -0.002326 0.000000 0.000000 0.000000
# 2 -0.003416 0.016739 -0.009577 0.000000 0.000000 0.000000
# 3 -0.002326 -0.009577 0.022347 0.000000 0.000000 0.000000
# 4 0.000000 0.000000 0.000000 0.049394 0.000000 0.000000
# 5 0.000000 0.000000 0.000000 0.000000 0.042308 0.000000
# 6 0.000000 0.000000 0.000000 0.000000 0.000000 0.038919
#
#
# Mechanical properties :
#
#
# Convention : Reuss Voigt Hill
#
# Bulk Modulus (GPa) = 44.80899 46.54434 45.67667
# Shear Modulus (GPa) = 22.55728 23.61104 23.08416
#
# Velocity S-wave (km/s) = 3.40156 3.48011 3.44106
# Velocity P-wave (km/s) = 6.19774 6.32636 6.26238
#
# Compressibility (1/GPa) = 0.02231695
#
# Stress axis : x y z
#
# Youngs Moduli (GPa) = 72.09369 59.74006 44.74803
#
# Poissons Ratio (x) = 0.20410 0.10410
# Poissons Ratio (y) = 0.24630 0.42857
# Poissons Ratio (z) = 0.16772 0.57216
#
# Static dielectric constant tensor:
#      x y z
#    x 1.742040 0.000000 0.000000 
#    y 0.000000 1.690580 0.000000 
#    z 0.000000 0.000000 1.694860 
# 
# From -- ./inp_files/35548.got.cif
#   From: 2010.05.17/outbox.cif.g08.bks.cpg/sg64_18_cif.got.tgz:35548.got - 2010.06.03 16:29:19.
