data_PCOD9478739
_publ_section_title
;
Structure prediction by ZEFSAII (Michael W. Deem and Ramdas Pophale) SiO2 
 PCOD9478739
Probable space group: C M C A
;
_chemical_formula_sum "Si O2"
_cell_formula_units_Z 80
_cell_length_a 14.869778
_cell_length_b 19.091712
_cell_length_c 12.485805
_cell_angle_alpha 90.000000
_cell_angle_beta 90.000000
_cell_angle_gamma 90.000000
_cell_volume 3544.589177
_symmetry_space_group_name_H-M "C M C A"
_symmetry_group_IT_number 64
_symmetry_cell_setting 'orthorhombic'
loop_
_space_group_symop_operation_xyz
x,y,z
-x,1/2-y,1/2+z
x,-y,-z
-x,1/2+y,1/2-z
-x,-y,-z
x,1/2+y,1/2-z
-x,y,z
x,1/2-y,1/2+z
1/2+x,1/2+y,z
1/2-x,-y,1/2+z
1/2+x,1/2-y,-z
1/2-x,y,1/2-z
1/2-x,1/2-y,-z
1/2+x,y,1/2-z
1/2-x,1/2+y,z
1/2+x,-y,1/2+z
loop_
_atom_site_type_symbol
_atom_site_label
_atom_site_fract_x
_atom_site_fract_y
_atom_site_fract_z
Si Si1 0.500000 0.816409 0.408559
Si Si2 0.341918 0.737685 0.289858
Si Si3 0.500000 0.806667 0.656426
Si Si4 0.309047 0.094125 0.086432
Si Si5 0.000000 0.077252 0.341505
Si Si6 0.800076 0.067170 0.642713
Si Si7 0.500000 0.424863 0.280129
O O1 0.409717 0.773155 0.375470
O O2 0.500000 0.830941 0.534728
O O3 0.500000 0.883321 0.330797
O O4 0.250000 0.771919 0.250000
O O5 0.407714 0.732655 0.186130
O O6 0.306932 0.663486 0.341024
O O7 0.500000 0.863105 0.752398
O O8 0.415567 0.081091 0.081960
O O9 0.280703 0.017230 0.129343
O O10 0.269281 0.102332 0.968264
O O11 0.000000 0.008311 0.269725
O O12 0.750000 0.085843 0.750000
O O13 0.905116 0.086730 0.660249
#
# Coordination Sequence:
#
# PCOD9478739 Si02
#       7
#     8  16   8  16   8  16   8
#     4  11  25  40  58  87 118 155 204 256 292 336
#     4  10  22  40  62  84 117 162 200 237 291 363
#     4   9  21  40  60  88 117 147 200 250 298 359
#     4   9  18  35  61  89 117 152 193 235 292 353
#     4   8  16  37  63  85 113 152 193 244 302 357
#     4  10  20  35  60  92 120 146 188 245 294 345
#     4  10  22  37  55  83 118 151 191 242 298 342
#
# _framework density 22.569610999999998
#
# number of rings (size 3 to 8) (size 9 to 14) (size 15 to 20)
#    0.000    2.400    0.000    1.800    0.000    9.200 
#    0.000    4.000    0.000    0.000    0.000    0.000 
#    0.000    0.000    0.000    0.000    0.000    0.000 
#
# Total GULP energy -222881.480614 kJ/mol
# GULP energy per Si atom -5572.037015 kJ/mol
# Density = 2.251824 g / cm^3
# Si number density = 22.569611 Si / 1000 Ang^3
#
#
#
# Elastic Constant Matrix: (Units=GPa)
#
#
# Indices 1 2 3 4 5 6 
#
# 1 99.9016 29.6390 49.9090 0.0000 0.0000 0.0000
# 2 29.6390 72.3192 35.7689 0.0000 0.0000 0.0000
# 3 49.9090 35.7689 176.7259 0.0000 0.0000 0.0000
# 4 0.0000 0.0000 0.0000 16.1130 0.0000 0.0000
# 5 0.0000 0.0000 0.0000 0.0000 -75.8895 0.0000
# 6 0.0000 0.0000 0.0000 0.0000 0.0000 -2.8481
#
#
#
# Elastic Compliance Matrix: (Units=1/GPa)
#
#
# Indices 1 2 3 4 5 6 
#
# 1 0.012509 -0.003755 -0.002773 0.000000 0.000000 0.000000
# 2 -0.003755 0.016493 -0.002278 0.000000 0.000000 0.000000
# 3 -0.002773 -0.002278 0.006902 0.000000 0.000000 0.000000
# 4 0.000000 0.000000 0.000000 0.062062 0.000000 0.000000
# 5 0.000000 0.000000 0.000000 0.000000 -0.013177 0.000000
# 6 0.000000 0.000000 0.000000 0.000000 0.000000 -0.351105
#
#
# Mechanical properties :
#
#
# Convention : Reuss Voigt Hill
#
# Bulk Modulus (GPa) = 54.66399 64.39783 59.53091
# Shear Modulus (GPa) = -20.60946 3.05040 -8.77953
#
# Velocity S-wave (km/s) = -3.02512 1.16382 -1.97444
# Velocity P-wave (km/s) = 3.47433 5.51370 4.60825
#
# Compressibility (1/GPa) = 0.01829358
#
# Stress axis : x y z
#
# Youngs Moduli (GPa) = 79.94149 60.63113 144.87547
#
# Poissons Ratio (x) = 0.22769 0.40168
# Poissons Ratio (y) = 0.30021 0.32997
# Poissons Ratio (z) = 0.22165 0.13810
#
# Static dielectric constant tensor:
#      x y z
#    x 1.951380 0.000000 0.000000 
#    y 0.000000 1.921740 0.000000 
#    z 0.000000 0.000000 1.797340 
# 
# From -- ./inp_files/14521.got.cif
#   From: 2010.05.17/outbox.cif.g08.bks.cpg/sg64_8_cif.got.tgz:14521.got - 2010.06.03 16:29:19.
