data_PCOD9478596
_publ_section_title
;
Structure prediction by ZEFSAII (Michael W. Deem and Ramdas Pophale) SiO2 
 PCOD9478596
Probable space group: C M C A
;
_chemical_formula_sum "Si O2"
_cell_formula_units_Z 80
_cell_length_a 8.938698
_cell_length_b 19.623249
_cell_length_c 26.083201
_cell_angle_alpha 90.000000
_cell_angle_beta 90.000000
_cell_angle_gamma 90.000000
_cell_volume 4575.157691
_symmetry_space_group_name_H-M "C M C A"
_symmetry_group_IT_number 64
_symmetry_cell_setting 'orthorhombic'
loop_
_space_group_symop_operation_xyz
x,y,z
-x,1/2-y,1/2+z
x,-y,-z
-x,1/2+y,1/2-z
-x,-y,-z
x,1/2+y,1/2-z
-x,y,z
x,1/2-y,1/2+z
1/2+x,1/2+y,z
1/2-x,-y,1/2+z
1/2+x,1/2-y,-z
1/2-x,y,1/2-z
1/2-x,1/2-y,-z
1/2+x,y,1/2-z
1/2-x,1/2+y,z
1/2+x,-y,1/2+z
loop_
_atom_site_type_symbol
_atom_site_label
_atom_site_fract_x
_atom_site_fract_y
_atom_site_fract_z
Si Si1 0.321664 0.272740 0.883020
Si Si2 0.177812 0.508894 0.109938
Si Si3 0.178739 0.876819 0.694323
Si Si4 0.821794 0.887807 0.966801
Si Si5 0.179126 0.369086 0.414038
O O1 0.500000 0.268373 0.876431
O O2 0.248585 0.312529 0.835518
O O3 0.292052 0.320492 0.932816
O O4 0.251760 0.199014 0.891779
O O5 0.210736 0.557667 0.158371
O O6 0.236420 0.550306 0.060359
O O7 0.259780 0.436911 0.112787
O O8 0.000000 0.499293 0.106438
O O9 0.250000 0.884219 0.750000
O O10 0.000000 0.869336 0.697795
O O11 0.000000 0.901948 0.964302
O O12 0.780476 0.876074 0.025646
O O13 0.000000 0.365305 0.410355
#
# Coordination Sequence:
#
# PCOD9478596 Si02
#       5
#    16  16  16  16  16
#     4  10  20  35  55  79 108 141 179 219 262 313
#     4  10  21  35  53  79 108 139 178 220 263 316
#     4  10  21  39  61  81 102 132 173 219 267 319
#     4   9  19  34  52  76 108 147 183 216 258 311
#     4  11  21  33  51  78 113 146 178 218 263 310
#
# _framework density 17.485734999999998
#
# number of rings (size 3 to 8) (size 9 to 14) (size 15 to 20)
#    0.000    2.000    0.000    3.600    0.000    7.200 
#    0.000    1.000    0.000    2.400    0.000    0.000 
#    0.000    0.000    0.000    0.000    0.000    0.000 
#
# Total GULP energy -223463.537097 kJ/mol
# GULP energy per Si atom -5586.588427 kJ/mol
# Density = 1.744594 g / cm^3
# Si number density = 17.485735 Si / 1000 Ang^3
#
#
#
# Elastic Constant Matrix: (Units=GPa)
#
#
# Indices 1 2 3 4 5 6 
#
# 1 71.8113 74.4819 56.9811 0.0000 0.0000 0.0000
# 2 74.4819 145.7545 57.2536 0.0000 0.0000 0.0000
# 3 56.9811 57.2536 111.6989 0.0000 0.0000 0.0000
# 4 0.0000 0.0000 0.0000 5.3801 0.0000 0.0000
# 5 0.0000 0.0000 0.0000 0.0000 28.3808 0.0000
# 6 0.0000 0.0000 0.0000 0.0000 0.0000 36.1024
#
#
#
# Elastic Compliance Matrix: (Units=1/GPa)
#
#
# Indices 1 2 3 4 5 6 
#
# 1 0.039786 -0.015474 -0.012364 0.000000 0.000000 0.000000
# 2 -0.015474 0.014609 0.000406 0.000000 0.000000 0.000000
# 3 -0.012364 0.000406 0.015052 0.000000 0.000000 0.000000
# 4 0.000000 0.000000 0.000000 0.185871 0.000000 0.000000
# 5 0.000000 0.000000 0.000000 0.000000 0.035235 0.000000
# 6 0.000000 0.000000 0.000000 0.000000 0.000000 0.027699
#
#
# Mechanical properties :
#
#
# Convention : Reuss Voigt Hill
#
# Bulk Modulus (GPa) = 68.58090 78.52198 73.55144
# Shear Modulus (GPa) = 13.22825 23.34252 18.28538
#
# Velocity S-wave (km/s) = 2.75347 3.65766 3.23729
# Velocity P-wave (km/s) = 7.02958 7.92728 7.49189
#
# Compressibility (1/GPa) = 0.01458132
#
# Stress axis : x y z
#
# Youngs Moduli (GPa) = 25.13445 68.45139 66.43554
#
# Poissons Ratio (x) = 1.05923 0.82144
# Poissons Ratio (y) = 0.38893 -0.02696
# Poissons Ratio (z) = 0.31077 -0.02777
#
# Static dielectric constant tensor:
#      x y z
#    x 1.578800 0.000000 0.000000 
#    y 0.000000 1.573070 0.000000 
#    z 0.000000 0.000000 1.571290 
# 
# From -- ./inp_files/47785.got.cif
#   From: 2010.05.17/outbox.cif.g08.bks.cpg/sg64_24_cif.got.tgz:47785.got - 2010.06.03 16:29:19.
