data_PCOD9478351
_publ_section_title
;
Structure prediction by ZEFSAII (Michael W. Deem and Ramdas Pophale) SiO2 
 PCOD9478351
Probable space group: C M C A
;
_chemical_formula_sum "Si O2"
_cell_formula_units_Z 96
_cell_length_a 8.063611
_cell_length_b 20.191911
_cell_length_c 24.193981
_cell_angle_alpha 90.000000
_cell_angle_beta 90.000000
_cell_angle_gamma 90.000000
_cell_volume 3939.257107
_symmetry_space_group_name_H-M "C M C A"
_symmetry_group_IT_number 64
_symmetry_cell_setting 'orthorhombic'
loop_
_space_group_symop_operation_xyz
x,y,z
-x,1/2-y,1/2+z
x,-y,-z
-x,1/2+y,1/2-z
-x,-y,-z
x,1/2+y,1/2-z
-x,y,z
x,1/2-y,1/2+z
1/2+x,1/2+y,z
1/2-x,-y,1/2+z
1/2+x,1/2-y,-z
1/2-x,y,1/2-z
1/2-x,1/2-y,-z
1/2+x,y,1/2-z
1/2-x,1/2+y,z
1/2+x,-y,1/2+z
loop_
_atom_site_type_symbol
_atom_site_label
_atom_site_fract_x
_atom_site_fract_y
_atom_site_fract_z
Si Si1 0.186074 0.346282 0.309958
Si Si2 0.201711 0.831475 0.545391
Si Si3 0.805983 0.209537 0.161743
Si Si4 0.196992 0.058691 0.189834
Si Si5 0.806887 0.480025 0.923796
Si Si6 0.301733 0.123668 0.932834
O O1 0.250000 0.368872 0.250000
O O2 0.198294 0.266325 0.310552
O O3 0.271620 0.362407 0.368502
O O4 0.000000 0.370501 0.315413
O O5 0.279975 0.790277 0.595353
O O6 0.256662 0.826226 0.481255
O O7 0.000000 0.825267 0.550103
O O8 0.254751 0.907581 0.559619
O O9 0.758089 0.136367 0.182221
O O10 0.000000 0.221390 0.173692
O O11 0.250000 0.036793 0.250000
O O12 0.000000 0.053367 0.182089
O O13 0.287198 0.018443 0.142226
O O14 0.735054 0.549214 0.944910
O O15 0.000000 0.479207 0.938787
O O16 0.500000 0.121603 0.939936
#
# Coordination Sequence:
#
# PCOD9478351 Si02
#       6
#    16  16  16  16  16  16
#     4  12  26  43  62  83 111 150 193 236 284 337
#     4   9  18  35  61  91 119 148 186 232 282 334
#     4  10  21  38  60  86 115 147 187 235 287 340
#     4  10  20  33  53  81 111 145 186 235 287 338
#     4   9  18  34  57  84 115 151 189 231 280 333
#     4  10  21  38  60  86 117 153 191 231 277 333
#
# _framework density 24.370079
#
# number of rings (size 3 to 8) (size 9 to 14) (size 15 to 20)
#    0.000    2.000    0.000    3.500    0.000    8.000 
#    0.000    0.000    0.000    5.000    0.000    0.000 
#    0.000    0.000    0.000    0.000    0.000    0.000 
#
# Total GULP energy -268237.942291 kJ/mol
# GULP energy per Si atom -5588.290464 kJ/mol
# Density = 2.431461 g / cm^3
# Si number density = 24.370079 Si / 1000 Ang^3
#
#
#
# Elastic Constant Matrix: (Units=GPa)
#
#
# Indices 1 2 3 4 5 6 
#
# 1 26.6713 -7.5936 -3.6665 0.0000 0.0000 0.0000
# 2 -7.5936 46.4442 4.2238 0.0000 0.0000 0.0000
# 3 -3.6665 4.2238 160.2023 0.0000 0.0000 0.0000
# 4 0.0000 0.0000 0.0000 19.9327 0.0000 0.0000
# 5 0.0000 0.0000 0.0000 0.0000 22.6716 0.0000
# 6 0.0000 0.0000 0.0000 0.0000 0.0000 -2.5698
#
#
#
# Elastic Compliance Matrix: (Units=1/GPa)
#
#
# Indices 1 2 3 4 5 6 
#
# 1 0.039410 0.006377 0.000734 0.000000 0.000000 0.000000
# 2 0.006377 0.022615 -0.000450 0.000000 0.000000 0.000000
# 3 0.000734 -0.000450 0.006271 0.000000 0.000000 0.000000
# 4 0.000000 0.000000 0.000000 0.050169 0.000000 0.000000
# 5 0.000000 0.000000 0.000000 0.000000 0.044108 0.000000
# 6 0.000000 0.000000 0.000000 0.000000 0.000000 -0.389140
#
#
# Mechanical properties :
#
#
# Convention : Reuss Voigt Hill
#
# Bulk Modulus (GPa) = 12.25249 24.36058 18.30654
# Shear Modulus (GPa) = -23.50918 24.03052 0.26067
#
# Velocity S-wave (km/s) = -3.10929 3.14358 0.32741
# Velocity P-wave (km/s) = 2.80208 4.81600 2.76968
#
# Compressibility (1/GPa) = 0.08161603
#
# Stress axis : x y z
#
# Youngs Moduli (GPa) = 25.37435 44.21886 159.46991
#
# Poissons Ratio (x) = -0.28197 -0.11702
# Poissons Ratio (y) = -0.16181 0.07181
# Poissons Ratio (z) = -0.01862 0.01991
#
# Static dielectric constant tensor:
#      x y z
#    x 1.855350 0.000000 0.000000 
#    y 0.000000 1.999930 0.000000 
#    z 0.000000 0.000000 1.942990 
# 
# From -- ./inp_files/42971.got.cif
#   From: 2010.05.17/outbox.cif.g08.bks.cpg/sg64_22_cif.got.tgz:42971.got - 2010.06.03 16:29:19.
