data_PCOD9478940
_publ_section_title
;
Structure prediction by ZEFSAII (Michael W. Deem and Ramdas Pophale) SiO2 
 PCOD9478940
Probable space group: C M C A
;
_chemical_formula_sum "Si O2"
_cell_formula_units_Z 72
_cell_length_a 23.324092
_cell_length_b 8.808678
_cell_length_c 13.714480
_cell_angle_alpha 90.000000
_cell_angle_beta 90.000000
_cell_angle_gamma 90.000000
_cell_volume 2817.700480
_symmetry_space_group_name_H-M "C M C A"
_symmetry_group_IT_number 64
_symmetry_cell_setting 'orthorhombic'
loop_
_space_group_symop_operation_xyz
x,y,z
-x,1/2-y,1/2+z
x,-y,-z
-x,1/2+y,1/2-z
-x,-y,-z
x,1/2+y,1/2-z
-x,y,z
x,1/2-y,1/2+z
1/2+x,1/2+y,z
1/2-x,-y,1/2+z
1/2+x,1/2-y,-z
1/2-x,y,1/2-z
1/2-x,1/2-y,-z
1/2+x,y,1/2-z
1/2-x,1/2+y,z
1/2+x,-y,1/2+z
loop_
_atom_site_type_symbol
_atom_site_label
_atom_site_fract_x
_atom_site_fract_y
_atom_site_fract_z
Si Si1 0.435479 0.830486 0.953526
Si Si2 0.376276 0.299506 0.873453
Si Si3 0.567828 0.489116 0.266632
Si Si4 0.250000 0.019958 0.750000
Si Si5 0.742237 0.724843 0.385248
O O1 0.500000 0.769596 0.968012
O O2 0.425427 0.868062 0.841320
O O3 0.390464 0.731346 0.012932
O O4 0.434796 0.000000 0.000000
O O5 0.405270 0.451459 0.833150
O O6 0.308849 0.298936 0.856261
O O7 0.403388 0.155335 0.817215
O O8 0.500000 0.460112 0.257300
O O9 0.284846 0.921601 0.831427
O O10 0.281561 0.132438 0.674180
O O11 0.750000 0.750000 0.500000
#
# Coordination Sequence:
#
# PCOD9478940 Si02
#       5
#    16  16  16   8  16
#     4   8  16  31  52  80 115 154 193 232 287 370
#     4  11  21  36  61  88 119 160 207 255 319 388
#     4  10  20  36  60  91 126 162 203 255 319 398
#     4  10  24  44  64  88 126 166 220 288 346 392
#     4  11  24  42  65  93 127 173 228 286 341 399
#
# _framework density 25.552752000000002
#
# number of rings (size 3 to 8) (size 9 to 14) (size 15 to 20)
#    0.000    2.000    0.000    5.333    0.000    8.889 
#    0.000    3.333    0.000    4.000    0.000    0.000 
#    0.000    0.000    0.000    0.000    0.000    0.000 
#
# Total GULP energy -201145.069219 kJ/mol
# GULP energy per Si atom -5587.363034 kJ/mol
# Density = 2.549459 g / cm^3
# Si number density = 25.552752 Si / 1000 Ang^3
#
#
#
# Elastic Constant Matrix: (Units=GPa)
#
#
# Indices 1 2 3 4 5 6 
#
# 1 117.2873 -12.3730 -16.7266 0.0000 0.0000 0.0000
# 2 -12.3730 80.5363 32.2312 0.0000 0.0000 0.0000
# 3 -16.7266 32.2312 150.1413 0.0000 0.0000 0.0000
# 4 0.0000 0.0000 0.0000 45.0152 0.0000 0.0000
# 5 0.0000 0.0000 0.0000 0.0000 18.8093 0.0000
# 6 0.0000 0.0000 0.0000 0.0000 0.0000 16.8032
#
#
#
# Elastic Compliance Matrix: (Units=1/GPa)
#
#
# Indices 1 2 3 4 5 6 
#
# 1 0.008743 0.001043 0.000750 0.000000 0.000000 0.000000
# 2 0.001043 0.013708 -0.002827 0.000000 0.000000 0.000000
# 3 0.000750 -0.002827 0.007351 0.000000 0.000000 0.000000
# 4 0.000000 0.000000 0.000000 0.022215 0.000000 0.000000
# 5 0.000000 0.000000 0.000000 0.000000 0.053165 0.000000
# 6 0.000000 0.000000 0.000000 0.000000 0.000000 0.059513
#
#
# Mechanical properties :
#
#
# Convention : Reuss Voigt Hill
#
# Bulk Modulus (GPa) = 36.05530 39.35869 37.70700
# Shear Modulus (GPa) = 28.40803 39.11441 33.76122
#
# Velocity S-wave (km/s) = 3.33789 3.91670 3.63882
# Velocity P-wave (km/s) = 5.38481 5.99086 5.69590
#
# Compressibility (1/GPa) = 0.02773517
#
# Stress axis : x y z
#
# Youngs Moduli (GPa) = 114.37615 72.94888 136.04058
#
# Poissons Ratio (x) = -0.07609 -0.10205
# Poissons Ratio (y) = -0.11930 0.38453
# Poissons Ratio (z) = -0.08580 0.20620
#
# Static dielectric constant tensor:
#      x y z
#    x 2.016160 0.000000 0.000000 
#    y 0.000000 2.124670 0.000000 
#    z 0.000000 0.000000 2.060230 
# 
# From -- ./inp_files/27805.got.cif
#   From: 2010.05.17/outbox.cif.g08.bks.cpg/sg64_14_cif.got.tgz:27805.got - 2010.06.03 16:29:19.
