data_PCOD9478604
_publ_section_title
;
Structure prediction by ZEFSAII (Michael W. Deem and Ramdas Pophale) SiO2 
 PCOD9478604
Probable space group: C M C A
;
_chemical_formula_sum "Si O2"
_cell_formula_units_Z 96
_cell_length_a 16.753389
_cell_length_b 14.460545
_cell_length_c 20.372087
_cell_angle_alpha 90.000000
_cell_angle_beta 90.000000
_cell_angle_gamma 90.000000
_cell_volume 4935.405674
_symmetry_space_group_name_H-M "C M C A"
_symmetry_group_IT_number 64
_symmetry_cell_setting 'orthorhombic'
loop_
_space_group_symop_operation_xyz
x,y,z
-x,1/2-y,1/2+z
x,-y,-z
-x,1/2+y,1/2-z
-x,-y,-z
x,1/2+y,1/2-z
-x,y,z
x,1/2-y,1/2+z
1/2+x,1/2+y,z
1/2-x,-y,1/2+z
1/2+x,1/2-y,-z
1/2-x,y,1/2-z
1/2-x,1/2-y,-z
1/2+x,y,1/2-z
1/2-x,1/2+y,z
1/2+x,-y,1/2+z
loop_
_atom_site_type_symbol
_atom_site_label
_atom_site_fract_x
_atom_site_fract_y
_atom_site_fract_z
Si Si1 0.165219 0.203437 0.483596
Si Si2 0.405276 0.354322 0.760114
Si Si3 0.407421 0.792041 0.598839
Si Si4 0.725517 0.944792 0.564429
Si Si5 0.095278 0.782637 0.147423
Si Si6 0.687664 0.538744 0.804607
O O1 0.250000 0.250000 0.500000
O O2 0.115384 0.207567 0.550935
O O3 0.191903 0.106058 0.453534
O O4 0.122933 0.261649 0.426468
O O5 0.500000 0.374469 0.754260
O O6 0.396230 0.285286 0.822793
O O7 0.377079 0.300823 0.695322
O O8 0.358705 0.448622 0.776328
O O9 0.500000 0.817063 0.587912
O O10 0.345955 0.872606 0.578669
O O11 0.701343 0.000000 0.500000
O O12 0.731885 0.006667 0.628960
O O13 0.130112 0.878319 0.174297
O O14 0.000000 0.785495 0.150090
O O15 0.750000 0.570335 0.750000
#
# Coordination Sequence:
#
# PCOD9478604 Si02
#       6
#    16  16  16  16  16  16
#     4  10  20  35  55  80 112 146 186 236 287 340
#     4   9  20  38  56  80 115 149 187 237 287 340
#     4   9  18  34  57  80 106 145 189 236 288 340
#     4  10  21  35  52  80 115 148 185 237 291 343
#     4  11  23  39  61  86 114 153 197 241 289 342
#     4  11  22  35  57  85 114 152 194 236 288 345
#
# _framework density 19.451288999999999
#
# number of rings (size 3 to 8) (size 9 to 14) (size 15 to 20)
#    0.000    2.000    0.000    4.000    0.000    7.000 
#    0.000    0.000    0.000    2.000    0.000    0.000 
#    0.000    0.000    0.000    0.000    0.000    0.000 
#
# Total GULP energy -267768.881815 kJ/mol
# GULP energy per Si atom -5578.518371 kJ/mol
# Density = 1.940702 g / cm^3
# Si number density = 19.451289 Si / 1000 Ang^3
#
#
#
# Elastic Constant Matrix: (Units=GPa)
#
#
# Indices 1 2 3 4 5 6 
#
# 1 37.2483 -3.5595 3.4995 0.0000 0.0000 0.0000
# 2 -3.5595 30.2085 -11.7802 0.0000 0.0000 0.0000
# 3 3.4995 -11.7802 53.7131 0.0000 0.0000 0.0000
# 4 0.0000 0.0000 0.0000 21.5286 0.0000 0.0000
# 5 0.0000 0.0000 0.0000 0.0000 32.8322 0.0000
# 6 0.0000 0.0000 0.0000 0.0000 0.0000 11.3699
#
#
#
# Elastic Compliance Matrix: (Units=1/GPa)
#
#
# Indices 1 2 3 4 5 6 
#
# 1 0.027220 0.002751 -0.001170 0.000000 0.000000 0.000000
# 2 0.002751 0.036477 0.007821 0.000000 0.000000 0.000000
# 3 -0.001170 0.007821 0.020409 0.000000 0.000000 0.000000
# 4 0.000000 0.000000 0.000000 0.046450 0.000000 0.000000
# 5 0.000000 0.000000 0.000000 0.000000 0.030458 0.000000
# 6 0.000000 0.000000 0.000000 0.000000 0.000000 0.087952
#
#
# Mechanical properties :
#
#
# Convention : Reuss Voigt Hill
#
# Bulk Modulus (GPa) = 9.71727 10.83216 10.27471
# Shear Modulus (GPa) = 18.90612 22.01348 20.45980
#
# Velocity S-wave (km/s) = 3.12103 3.36776 3.24674
# Velocity P-wave (km/s) = 4.24197 4.55009 4.39873
#
# Compressibility (1/GPa) = 0.10290959
#
# Stress axis : x y z
#
# Youngs Moduli (GPa) = 36.73808 27.41432 48.99822
#
# Poissons Ratio (x) = -0.07542 0.05733
# Poissons Ratio (y) = -0.10107 -0.38321
# Poissons Ratio (z) = 0.04299 -0.21440
#
# Static dielectric constant tensor:
#      x y z
#    x 1.660130 0.000000 0.000000 
#    y 0.000000 1.711810 0.000000 
#    z 0.000000 0.000000 1.715850 
# 
# From -- ./inp_files/39159.got.cif
#   From: 2010.05.17/outbox.cif.g08.bks.cpg/sg64_20_cif.got.tgz:39159.got - 2010.06.03 16:29:19.
