data_PCOD9478768
_publ_section_title
;
Structure prediction by ZEFSAII (Michael W. Deem and Ramdas Pophale) SiO2 
 PCOD9478768
Probable space group: C M C A
;
_chemical_formula_sum "Si O2"
_cell_formula_units_Z 96
_cell_length_a 26.162382
_cell_length_b 24.484350
_cell_length_c 8.606639
_cell_angle_alpha 90.000000
_cell_angle_beta 90.000000
_cell_angle_gamma 90.000000
_cell_volume 5513.145429
_symmetry_space_group_name_H-M "C M C A"
_symmetry_group_IT_number 64
_symmetry_cell_setting 'orthorhombic'
loop_
_space_group_symop_operation_xyz
x,y,z
-x,1/2-y,1/2+z
x,-y,-z
-x,1/2+y,1/2-z
-x,-y,-z
x,1/2+y,1/2-z
-x,y,z
x,1/2-y,1/2+z
1/2+x,1/2+y,z
1/2-x,-y,1/2+z
1/2+x,1/2-y,-z
1/2-x,y,1/2-z
1/2-x,1/2-y,-z
1/2+x,y,1/2-z
1/2-x,1/2+y,z
1/2+x,-y,1/2+z
loop_
_atom_site_type_symbol
_atom_site_label
_atom_site_fract_x
_atom_site_fract_y
_atom_site_fract_z
Si Si1 0.558057 0.820137 0.951625
Si Si2 0.658417 0.867147 0.054774
Si Si3 0.750438 0.440058 0.437527
Si Si4 0.172184 0.346671 0.418245
Si Si5 0.800081 0.229445 0.344986
Si Si6 0.100144 0.714269 0.365082
O O1 0.500000 0.833341 0.993055
O O2 0.600371 0.865314 0.995434
O O3 0.563110 0.808067 0.768078
O O4 0.575947 0.765028 0.042730
O O5 0.684897 0.814749 0.973605
O O6 0.694854 0.917633 0.011730
O O7 0.659096 0.860964 0.240470
O O8 0.760943 0.500000 0.500000
O O9 0.750000 0.440811 0.250000
O O10 0.793320 0.395497 0.484535
O O11 0.204764 0.290457 0.411555
O O12 0.122059 0.330876 0.516172
O O13 0.750000 0.214165 0.250000
O O14 0.849366 0.231922 0.231679
#
# Coordination Sequence:
#
# PCOD9478768 Si02
#       6
#    16  16  16  16  16  16
#     4  11  21  34  50  74 108 143 181 223 266 311
#     4  10  20  36  52  77 109 144 179 217 262 311
#     4  10  23  37  55  78 110 143 176 214 259 317
#     4  11  19  33  53  77 110 143 176 209 261 323
#     4  11  19  29  51  82 110 143 172 205 257 326
#     4  11  20  32  49  77 109 145 177 210 263 321
#
# _framework density 17.412925999999999
#
# number of rings (size 3 to 8) (size 9 to 14) (size 15 to 20)
#    0.000    1.333    5.000    3.000    0.000    5.333 
#    0.000    0.833    0.000    0.500    0.000    0.000 
#    0.000    8.000    0.000    0.000    0.000    0.000 
#
# Total GULP energy -268012.523815 kJ/mol
# GULP energy per Si atom -5583.594246 kJ/mol
# Density = 1.737329 g / cm^3
# Si number density = 17.412926 Si / 1000 Ang^3
#
#
#
# Elastic Constant Matrix: (Units=GPa)
#
#
# Indices 1 2 3 4 5 6 
#
# 1 118.3277 25.9437 19.4958 0.0000 0.0000 0.0000
# 2 25.9437 80.9403 11.7430 0.0000 0.0000 0.0000
# 3 19.4958 11.7430 60.6273 0.0000 0.0000 0.0000
# 4 0.0000 0.0000 0.0000 23.1808 0.0000 0.0000
# 5 0.0000 0.0000 0.0000 0.0000 19.4567 0.0000
# 6 0.0000 0.0000 0.0000 0.0000 0.0000 11.3574
#
#
#
# Elastic Compliance Matrix: (Units=1/GPa)
#
#
# Indices 1 2 3 4 5 6 
#
# 1 0.009451 -0.002663 -0.002523 0.000000 0.000000 0.000000
# 2 -0.002663 0.013462 -0.001751 0.000000 0.000000 0.000000
# 3 -0.002523 -0.001751 0.017645 0.000000 0.000000 0.000000
# 4 0.000000 0.000000 0.000000 0.043139 0.000000 0.000000
# 5 0.000000 0.000000 0.000000 0.000000 0.051396 0.000000
# 6 0.000000 0.000000 0.000000 0.000000 0.000000 0.088048
#
#
# Mechanical properties :
#
#
# Convention : Reuss Voigt Hill
#
# Bulk Modulus (GPa) = 37.47720 41.58446 39.53083
# Shear Modulus (GPa) = 20.33255 24.31316 22.32286
#
# Velocity S-wave (km/s) = 3.42083 3.74072 3.58435
# Velocity P-wave (km/s) = 6.09689 6.52615 6.31517
#
# Compressibility (1/GPa) = 0.02668289
#
# Stress axis : x y z
#
# Youngs Moduli (GPa) = 105.81175 74.28055 56.67395
#
# Poissons Ratio (x) = 0.19782 0.14300
# Poissons Ratio (y) = 0.28179 0.09925
# Poissons Ratio (z) = 0.26699 0.13008
#
# Static dielectric constant tensor:
#      x y z
#    x 1.619420 0.000000 0.000000 
#    y 0.000000 1.576560 0.000000 
#    z 0.000000 0.000000 1.652640 
# 
# From -- ./inp_files/10348.got.cif
#   From: 2010.05.17/outbox.cif.g08.bks.cpg/sg64_6_cif.got.tgz:10348.got - 2010.06.03 16:29:19.
