data_PCOD9478347
_publ_section_title
;
Structure prediction by ZEFSAII (Michael W. Deem and Ramdas Pophale) SiO2 
 PCOD9478347
Probable space group: C M C A
;
_chemical_formula_sum "Si O2"
_cell_formula_units_Z 80
_cell_length_a 8.768298
_cell_length_b 19.449271
_cell_length_c 26.600989
_cell_angle_alpha 90.000000
_cell_angle_beta 90.000000
_cell_angle_gamma 90.000000
_cell_volume 4536.452968
_symmetry_space_group_name_H-M "C M C A"
_symmetry_group_IT_number 64
_symmetry_cell_setting 'orthorhombic'
loop_
_space_group_symop_operation_xyz
x,y,z
-x,1/2-y,1/2+z
x,-y,-z
-x,1/2+y,1/2-z
-x,-y,-z
x,1/2+y,1/2-z
-x,y,z
x,1/2-y,1/2+z
1/2+x,1/2+y,z
1/2-x,-y,1/2+z
1/2+x,1/2-y,-z
1/2-x,y,1/2-z
1/2-x,1/2-y,-z
1/2+x,y,1/2-z
1/2-x,1/2+y,z
1/2+x,-y,1/2+z
loop_
_atom_site_type_symbol
_atom_site_label
_atom_site_fract_x
_atom_site_fract_y
_atom_site_fract_z
Si Si1 0.319148 0.071264 0.606354
Si Si2 0.317626 0.673673 0.196154
Si Si3 0.823983 0.916547 0.496867
Si Si4 0.183457 0.919325 0.608324
Si Si5 0.183064 0.825749 0.196846
O O1 0.500000 0.058588 0.606784
O O2 0.271869 0.101853 0.552152
O O3 0.281145 0.122873 0.651456
O O4 0.234260 0.998636 0.612936
O O5 0.500000 0.674136 0.198553
O O6 0.250000 0.650803 0.250000
O O7 0.258857 0.625210 0.151786
O O8 0.255336 0.750862 0.187829
O O9 0.770827 0.893867 0.552165
O O10 0.000000 0.895763 0.489604
O O11 0.821782 0.000000 0.500000
O O12 0.000000 0.915556 0.610983
O O13 0.250000 0.851071 0.250000
O O14 0.000000 0.818867 0.200783
#
# Coordination Sequence:
#
# PCOD9478347 Si02
#       5
#    16  16  16  16  16
#     4  10  20  33  53  81 109 137 174 218 260 308
#     4  11  22  37  57  78 103 137 175 214 261 313
#     4   8  16  31  51  75 104 139 173 210 260 309
#     4  10  20  35  55  79 108 139 174 216 259 307
#     4  10  21  37  55  76 104 138 174 213 260 310
#
# _framework density 17.634923000000001
#
# number of rings (size 3 to 8) (size 9 to 14) (size 15 to 20)
#    0.000    2.200    0.000    6.000    0.000    8.400 
#    0.000    3.000    0.000    0.000    0.000    0.000 
#    0.000    0.000    0.000    0.000    0.000    0.000 
#
# Total GULP energy -223171.157645 kJ/mol
# GULP energy per Si atom -5579.278941 kJ/mol
# Density = 1.759479 g / cm^3
# Si number density = 17.634923 Si / 1000 Ang^3
#
#
#
# Elastic Constant Matrix: (Units=GPa)
#
#
# Indices 1 2 3 4 5 6 
#
# 1 92.5453 40.5134 81.2269 0.0000 0.0000 0.0000
# 2 40.5134 47.0686 77.3722 0.0000 0.0000 0.0000
# 3 81.2269 77.3722 193.5408 0.0000 0.0000 0.0000
# 4 0.0000 0.0000 0.0000 -99.5884 0.0000 0.0000
# 5 0.0000 0.0000 0.0000 0.0000 34.8430 0.0000
# 6 0.0000 0.0000 0.0000 0.0000 0.0000 25.2716
#
#
#
# Elastic Compliance Matrix: (Units=1/GPa)
#
#
# Indices 1 2 3 4 5 6 
#
# 1 0.018366 -0.009152 -0.004049 0.000000 0.000000 0.000000
# 2 -0.009152 0.066528 -0.022755 0.000000 0.000000 0.000000
# 3 -0.004049 -0.022755 0.015963 0.000000 0.000000 0.000000
# 4 0.000000 0.000000 0.000000 -0.010041 0.000000 0.000000
# 5 0.000000 0.000000 0.000000 0.000000 0.028700 0.000000
# 6 0.000000 0.000000 0.000000 0.000000 0.000000 0.039570
#
#
# Mechanical properties :
#
#
# Convention : Reuss Voigt Hill
#
# Bulk Modulus (GPa) = 34.54866 81.26442 57.90654
# Shear Modulus (GPa) = 20.77733 1.04138 10.90935
#
# Velocity S-wave (km/s) = 3.43620 0.76929 2.48991
# Velocity P-wave (km/s) = 5.94785 6.85351 6.41668
#
# Compressibility (1/GPa) = 0.02894468
#
# Stress axis : x y z
#
# Youngs Moduli (GPa) = 54.44837 15.03128 62.64399
#
# Poissons Ratio (x) = 0.13756 0.25367
# Poissons Ratio (y) = 0.49830 1.42547
# Poissons Ratio (z) = 0.22048 0.34204
#
# Static dielectric constant tensor:
#      x y z
#    x 1.590670 0.000000 0.000000 
#    y 0.000000 1.571440 0.000000 
#    z 0.000000 0.000000 1.617550 
# 
# From -- ./inp_files/47824.got.cif
#   From: 2010.05.17/outbox.cif.g08.bks.cpg/sg64_24_cif.got.tgz:47824.got - 2010.06.03 16:29:19.
