data_PCOD9478670
_publ_section_title
;
Structure prediction by ZEFSAII (Michael W. Deem and Ramdas Pophale) SiO2 
 PCOD9478670
Probable space group: C M C A
;
_chemical_formula_sum "Si O2"
_cell_formula_units_Z 96
_cell_length_a 18.776041
_cell_length_b 25.595271
_cell_length_c 9.813636
_cell_angle_alpha 90.000000
_cell_angle_beta 90.000000
_cell_angle_gamma 90.000000
_cell_volume 4716.216165
_symmetry_space_group_name_H-M "C M C A"
_symmetry_group_IT_number 64
_symmetry_cell_setting 'orthorhombic'
loop_
_space_group_symop_operation_xyz
x,y,z
-x,1/2-y,1/2+z
x,-y,-z
-x,1/2+y,1/2-z
-x,-y,-z
x,1/2+y,1/2-z
-x,y,z
x,1/2-y,1/2+z
1/2+x,1/2+y,z
1/2-x,-y,1/2+z
1/2+x,1/2-y,-z
1/2-x,y,1/2-z
1/2-x,1/2-y,-z
1/2+x,y,1/2-z
1/2-x,1/2+y,z
1/2+x,-y,1/2+z
loop_
_atom_site_type_symbol
_atom_site_label
_atom_site_fract_x
_atom_site_fract_y
_atom_site_fract_z
Si Si1 0.586261 0.369120 0.706313
Si Si2 0.310802 0.533808 0.861568
Si Si3 0.915155 0.297108 0.541969
Si Si4 0.822432 0.651932 0.683136
Si Si5 0.414278 0.487533 0.655925
Si Si6 0.916088 0.676423 0.921810
O O1 0.500000 0.369311 0.704377
O O2 0.605168 0.338559 0.842185
O O3 0.609262 0.428733 0.693335
O O4 0.609554 0.338322 0.572236
O O5 0.250000 0.520331 0.750000
O O6 0.306386 0.596134 0.886936
O O7 0.382441 0.522664 0.775812
O O8 0.306795 0.500000 0.000000
O O9 0.864371 0.309299 0.415763
O O10 0.906466 0.238397 0.596698
O O11 0.000000 0.302857 0.506734
O O12 0.750000 0.673010 0.750000
O O13 0.874579 0.643608 0.810796
O O14 0.391263 0.500000 0.500000
O O15 0.500000 0.490466 0.656892
O O16 0.000000 0.665067 0.912112
#
# Coordination Sequence:
#
# PCOD9478670 Si02
#       6
#    16  16  16  16  16  16
#     4   9  18  33  55  84 111 140 188 241 289 345
#     4  11  24  41  60  83 116 158 203 247 295 353
#     4  10  20  37  61  86 114 151 194 238 286 345
#     4  11  24  39  56  86 121 153 193 241 294 346
#     4  10  20  35  57  84 114 149 190 241 299 353
#     4  10  20  37  62  86 112 151 193 236 288 347
#
# _framework density 20.355301000000001
#
# number of rings (size 3 to 8) (size 9 to 14) (size 15 to 20)
#    0.000    1.833    0.000    4.000    0.000    7.667 
#    0.000    0.833    0.000    0.000    0.000    0.000 
#    0.000    0.000    0.000    0.000    0.000    0.000 
#
# Total GULP energy -267984.759577 kJ/mol
# GULP energy per Si atom -5583.015825 kJ/mol
# Density = 2.030897 g / cm^3
# Si number density = 20.355301 Si / 1000 Ang^3
#
#
#
# Elastic Constant Matrix: (Units=GPa)
#
#
# Indices 1 2 3 4 5 6 
#
# 1 51.2145 25.9445 36.5030 0.0000 0.0000 0.0000
# 2 25.9445 55.6762 17.6689 0.0000 0.0000 0.0000
# 3 36.5030 17.6689 87.7464 0.0000 0.0000 0.0000
# 4 0.0000 0.0000 0.0000 41.9214 0.0000 0.0000
# 5 0.0000 0.0000 0.0000 0.0000 8.7092 0.0000
# 6 0.0000 0.0000 0.0000 0.0000 0.0000 160.6580
#
#
#
# Elastic Compliance Matrix: (Units=1/GPa)
#
#
# Indices 1 2 3 4 5 6 
#
# 1 0.034019 -0.012137 -0.011708 0.000000 0.000000 0.000000
# 2 -0.012137 0.023517 0.000314 0.000000 0.000000 0.000000
# 3 -0.011708 0.000314 0.016204 0.000000 0.000000 0.000000
# 4 0.000000 0.000000 0.000000 0.023854 0.000000 0.000000
# 5 0.000000 0.000000 0.000000 0.000000 0.114821 0.000000
# 6 0.000000 0.000000 0.000000 0.000000 0.000000 0.006224
#
#
# Mechanical properties :
#
#
# Convention : Reuss Voigt Hill
#
# Bulk Modulus (GPa) = 37.48533 39.43000 38.45766
# Shear Modulus (GPa) = 18.20861 49.89242 34.05051
#
# Velocity S-wave (km/s) = 2.99413 4.95621 4.09443
# Velocity P-wave (km/s) = 5.51440 7.22253 6.42548
#
# Compressibility (1/GPa) = 0.02667710
#
# Stress axis : x y z
#
# Youngs Moduli (GPa) = 29.39528 42.52215 61.71298
#
# Poissons Ratio (x) = 0.51609 0.72255
# Poissons Ratio (y) = 0.35677 -0.01935
# Poissons Ratio (z) = 0.34417 -0.01333
#
# Static dielectric constant tensor:
#      x y z
#    x 1.746790 0.000000 0.000000 
#    y 0.000000 1.730860 0.000000 
#    z 0.000000 0.000000 1.709470 
# 
# From -- ./inp_files/8383.got.cif
#   From: 2010.05.17/outbox.cif.g08.bks.cpg/sg64_5_cif.got.tgz:8383.got - 2010.06.03 16:29:19.
