data_PCOD9478580
_publ_section_title
;
Structure prediction by ZEFSAII (Michael W. Deem and Ramdas Pophale) SiO2 
 PCOD9478580
Probable space group: C M C A
;
_chemical_formula_sum "Si O2"
_cell_formula_units_Z 96
_cell_length_a 7.600083
_cell_length_b 28.400170
_cell_length_c 19.457620
_cell_angle_alpha 90.000000
_cell_angle_beta 90.000000
_cell_angle_gamma 90.000000
_cell_volume 4199.803706
_symmetry_space_group_name_H-M "C M C A"
_symmetry_group_IT_number 64
_symmetry_cell_setting 'orthorhombic'
loop_
_space_group_symop_operation_xyz
x,y,z
-x,1/2-y,1/2+z
x,-y,-z
-x,1/2+y,1/2-z
-x,-y,-z
x,1/2+y,1/2-z
-x,y,z
x,1/2-y,1/2+z
1/2+x,1/2+y,z
1/2-x,-y,1/2+z
1/2+x,1/2-y,-z
1/2-x,y,1/2-z
1/2-x,1/2-y,-z
1/2+x,y,1/2-z
1/2-x,1/2+y,z
1/2+x,-y,1/2+z
loop_
_atom_site_type_symbol
_atom_site_label
_atom_site_fract_x
_atom_site_fract_y
_atom_site_fract_z
Si Si1 0.804042 0.701080 0.034740
Si Si2 0.715831 0.598417 0.453551
Si Si3 0.210303 0.852207 0.329863
Si Si4 0.711069 0.038137 0.169664
Si Si5 0.210380 0.246327 0.170065
Si Si6 0.284999 0.555271 0.591673
O O1 0.716429 0.650187 0.025414
O O2 0.795870 0.711151 0.116159
O O3 0.000000 0.694291 0.008107
O O4 0.750000 0.750000 0.000000
O O5 0.500000 0.600825 0.452250
O O6 0.774047 0.580695 0.378911
O O7 0.762566 0.560355 0.511798
O O8 0.250000 0.860359 0.250000
O O9 0.274811 0.799591 0.346630
O O10 0.275766 0.896264 0.372885
O O11 0.000000 0.850570 0.338447
O O12 0.500000 0.037259 0.163990
O O13 0.750000 0.041639 0.250000
O O14 0.776519 0.989685 0.134629
O O15 0.250000 0.237343 0.250000
O O16 0.000000 0.244395 0.160373
O O17 0.500000 0.554433 0.594063
#
# Coordination Sequence:
#
# PCOD9478580 Si02
#       6
#    16  16  16  16  16  16
#     4  11  22  37  57  81 110 144 185 231 279 329
#     4   9  19  35  55  79 105 137 179 223 264 314
#     4   9  17  29  48  75 106 138 172 218 269 317
#     4  10  20  35  57  82 108 139 174 214 261 316
#     4  10  20  35  54  78 110 146 186 230 277 329
#     4   9  16  30  54  80 104 134 175 218 261 313
#
# _framework density 22.858211000000001
#
# number of rings (size 3 to 8) (size 9 to 14) (size 15 to 20)
#    0.000    2.333    0.000    3.000    0.000    6.000 
#    0.000    3.333    0.000    5.000    0.000    0.000 
#    0.000    0.000    0.000    0.000    0.000    0.000 
#
# Total GULP energy -268031.263148 kJ/mol
# GULP energy per Si atom -5583.984649 kJ/mol
# Density = 2.280618 g / cm^3
# Si number density = 22.858211 Si / 1000 Ang^3
#
#
#
# Elastic Constant Matrix: (Units=GPa)
#
#
# Indices 1 2 3 4 5 6 
#
# 1 48.7941 5.1825 -3.9975 0.0000 0.0000 0.0000
# 2 5.1825 112.6178 65.9708 0.0000 0.0000 0.0000
# 3 -3.9975 65.9708 121.9081 0.0000 0.0000 0.0000
# 4 0.0000 0.0000 0.0000 41.7961 0.0000 0.0000
# 5 0.0000 0.0000 0.0000 0.0000 22.6627 0.0000
# 6 0.0000 0.0000 0.0000 0.0000 0.0000 6.0583
#
#
#
# Elastic Compliance Matrix: (Units=1/GPa)
#
#
# Indices 1 2 3 4 5 6 
#
# 1 0.020850 -0.001991 0.001761 0.000000 0.000000 0.000000
# 2 -0.001991 0.013191 -0.007204 0.000000 0.000000 0.000000
# 3 0.001761 -0.007204 0.012159 0.000000 0.000000 0.000000
# 4 0.000000 0.000000 0.000000 0.023926 0.000000 0.000000
# 5 0.000000 0.000000 0.000000 0.000000 0.044125 0.000000
# 6 0.000000 0.000000 0.000000 0.000000 0.000000 0.165063
#
#
# Mechanical properties :
#
#
# Convention : Reuss Voigt Hill
#
# Bulk Modulus (GPa) = 31.91543 46.40350 39.15946
# Shear Modulus (GPa) = 16.41357 28.51437 22.46397
#
# Velocity S-wave (km/s) = 2.68257 3.53575 3.13829
# Velocity P-wave (km/s) = 4.85670 6.08386 5.50459
#
# Compressibility (1/GPa) = 0.03133281
#
# Stress axis : x y z
#
# Youngs Moduli (GPa) = 47.96146 75.80878 82.24403
#
# Poissons Ratio (x) = 0.15095 -0.14485
# Poissons Ratio (y) = 0.09550 0.59246
# Poissons Ratio (z) = -0.08447 0.54610
#
# Static dielectric constant tensor:
#      x y z
#    x 1.977770 0.000000 0.000000 
#    y 0.000000 1.859850 0.000000 
#    z 0.000000 0.000000 1.829280 
# 
# From -- ./inp_files/36948.got.cif
#   From: 2010.05.17/outbox.cif.g08.bks.cpg/sg64_19_cif.got.tgz:36948.got - 2010.06.03 16:29:19.
