data_PCOD9478683
_publ_section_title
;
Structure prediction by ZEFSAII (Michael W. Deem and Ramdas Pophale) SiO2 
 PCOD9478683
Probable space group: C M C A
;
_chemical_formula_sum "Si O2"
_cell_formula_units_Z 96
_cell_length_a 7.904107
_cell_length_b 24.398188
_cell_length_c 22.516638
_cell_angle_alpha 90.000000
_cell_angle_beta 90.000000
_cell_angle_gamma 90.000000
_cell_volume 4342.241062
_symmetry_space_group_name_H-M "C M C A"
_symmetry_group_IT_number 64
_symmetry_cell_setting 'orthorhombic'
loop_
_space_group_symop_operation_xyz
x,y,z
-x,1/2-y,1/2+z
x,-y,-z
-x,1/2+y,1/2-z
-x,-y,-z
x,1/2+y,1/2-z
-x,y,z
x,1/2-y,1/2+z
1/2+x,1/2+y,z
1/2-x,-y,1/2+z
1/2+x,1/2-y,-z
1/2-x,y,1/2-z
1/2-x,1/2-y,-z
1/2+x,y,1/2-z
1/2-x,1/2+y,z
1/2+x,-y,1/2+z
loop_
_atom_site_type_symbol
_atom_site_label
_atom_site_fract_x
_atom_site_fract_y
_atom_site_fract_z
Si Si1 0.701948 0.195836 0.314612
Si Si2 0.696297 0.061704 0.684866
Si Si3 0.199024 0.614079 0.082630
Si Si4 0.205179 0.181528 0.657079
Si Si5 0.304972 0.495918 0.067694
Si Si6 0.796810 0.189633 0.521816
O O1 0.500000 0.195731 0.322797
O O2 0.750000 0.174465 0.250000
O O3 0.779712 0.158106 0.365293
O O4 0.760334 0.259199 0.318904
O O5 0.500000 0.048317 0.680333
O O6 0.750000 0.040022 0.750000
O O7 0.722795 0.127067 0.685942
O O8 0.773638 0.040040 0.621852
O O9 0.295410 0.557736 0.092171
O O10 0.000000 0.601373 0.075956
O O11 0.265808 0.643734 0.023333
O O12 0.260374 0.180653 0.588500
O O13 0.000000 0.179046 0.660794
O O14 0.500000 0.477661 0.059324
O O15 0.230841 0.500000 0.000000
O O16 0.750000 0.250000 0.500000
O O17 0.000000 0.186577 0.521524
#
# Coordination Sequence:
#
# PCOD9478683 Si02
#       6
#    16  16  16  16  16  16
#     4  11  23  39  59  84 120 162 202 247 300 360
#     4  11  24  41  64  92 122 163 210 261 318 378
#     4  11  23  38  61  92 123 157 199 246 303 367
#     4  10  21  38  61  90 124 161 202 251 305 363
#     4  10  23  44  67  91 122 163 212 263 318 375
#     4  10  20  35  57  89 124 158 196 241 298 361
#
# _framework density 22.1084
#
# number of rings (size 3 to 8) (size 9 to 14) (size 15 to 20)
#    0.000    1.500    1.667    3.000    0.000    6.333 
#    0.000    1.667    0.000    0.000    0.000    0.000 
#    0.000    0.000    0.000    0.000    0.000    0.000 
#
# Total GULP energy -268142.223799 kJ/mol
# GULP energy per Si atom -5586.296329 kJ/mol
# Density = 2.205808 g / cm^3
# Si number density = 22.108400 Si / 1000 Ang^3
#
#
#
# Elastic Constant Matrix: (Units=GPa)
#
#
# Indices 1 2 3 4 5 6 
#
# 1 31.1104 -8.4495 5.0122 0.0000 0.0000 0.0000
# 2 -8.4495 76.6258 23.6038 0.0000 0.0000 0.0000
# 3 5.0122 23.6038 167.7347 0.0000 0.0000 0.0000
# 4 0.0000 0.0000 0.0000 11.9273 0.0000 0.0000
# 5 0.0000 0.0000 0.0000 0.0000 18.3735 0.0000
# 6 0.0000 0.0000 0.0000 0.0000 0.0000 19.7131
#
#
#
# Elastic Compliance Matrix: (Units=1/GPa)
#
#
# Indices 1 2 3 4 5 6 
#
# 1 0.033538 0.004188 -0.001592 0.000000 0.000000 0.000000
# 2 0.004188 0.014165 -0.002118 0.000000 0.000000 0.000000
# 3 -0.001592 -0.002118 0.006307 0.000000 0.000000 0.000000
# 4 0.000000 0.000000 0.000000 0.083841 0.000000 0.000000
# 5 0.000000 0.000000 0.000000 0.000000 0.054426 0.000000
# 6 0.000000 0.000000 0.000000 0.000000 0.000000 0.050728
#
#
# Mechanical properties :
#
#
# Convention : Reuss Voigt Hill
#
# Bulk Modulus (GPa) = 18.19281 35.08931 26.64106
# Shear Modulus (GPa) = 19.20338 27.02306 23.11322
#
# Velocity S-wave (km/s) = 2.95040 3.49993 3.23685
# Velocity P-wave (km/s) = 4.45570 5.67791 5.10352
#
# Compressibility (1/GPa) = 0.05496678
#
# Stress axis : x y z
#
# Youngs Moduli (GPa) = 29.81728 70.59722 158.54229
#
# Poissons Ratio (x) = -0.29569 0.25233
# Poissons Ratio (y) = -0.12489 0.33586
# Poissons Ratio (z) = 0.04746 0.14956
#
# Static dielectric constant tensor:
#      x y z
#    x 1.816020 0.000000 0.000000 
#    y 0.000000 1.781330 0.000000 
#    z 0.000000 0.000000 1.862880 
# 
# From -- ./inp_files/37085.got.cif
#   From: 2010.05.17/outbox.cif.g08.bks.cpg/sg64_19_cif.got.tgz:37085.got - 2010.06.03 16:29:19.
