data_PCOD9478724
_publ_section_title
;
Structure prediction by ZEFSAII (Michael W. Deem and Ramdas Pophale) SiO2 
 PCOD9478724
Probable space group: C M C A
;
_chemical_formula_sum "Si O2"
_cell_formula_units_Z 72
_cell_length_a 9.900792
_cell_length_b 22.232804
_cell_length_c 14.976132
_cell_angle_alpha 90.000000
_cell_angle_beta 90.000000
_cell_angle_gamma 90.000000
_cell_volume 3296.581639
_symmetry_space_group_name_H-M "C M C A"
_symmetry_group_IT_number 64
_symmetry_cell_setting 'orthorhombic'
loop_
_space_group_symop_operation_xyz
x,y,z
-x,1/2-y,1/2+z
x,-y,-z
-x,1/2+y,1/2-z
-x,-y,-z
x,1/2+y,1/2-z
-x,y,z
x,1/2-y,1/2+z
1/2+x,1/2+y,z
1/2-x,-y,1/2+z
1/2+x,1/2-y,-z
1/2-x,y,1/2-z
1/2-x,1/2-y,-z
1/2+x,y,1/2-z
1/2-x,1/2+y,z
1/2+x,-y,1/2+z
loop_
_atom_site_type_symbol
_atom_site_label
_atom_site_fract_x
_atom_site_fract_y
_atom_site_fract_z
Si Si1 0.851144 0.782065 0.568371
Si Si2 0.750000 0.335960 0.750000
Si Si3 0.846770 0.420007 0.324812
Si Si4 0.652550 0.916269 0.006817
Si Si5 0.355525 0.945328 0.639485
O O1 0.750000 0.750000 0.500000
O O2 0.806690 0.793797 0.670961
O O3 0.860775 0.849077 0.529735
O O4 0.000000 0.753389 0.566200
O O5 0.654930 0.385286 0.800423
O O6 0.750000 0.392314 0.250000
O O7 0.761539 0.414456 0.414843
O O8 0.860015 0.491990 0.308103
O O9 0.000000 0.396208 0.328104
O O10 0.500000 0.936358 0.031068
O O11 0.726248 0.949768 0.924933
O O12 0.500000 0.942010 0.588952
#
# Coordination Sequence:
#
# PCOD9478724 Si02
#       5
#    16   8  16  16  16
#     4  10  23  42  66  94 123 160 207 260 319 372
#     4  10  20  40  66  94 122 158 204 258 312 370
#     4  11  22  36  56  86 122 163 203 243 298 360
#     4  10  22  39  58  84 120 159 200 249 305 363
#     4  10  20  35  59  89 120 155 199 247 298 362
#
# _framework density 21.840806000000001
#
# number of rings (size 3 to 8) (size 9 to 14) (size 15 to 20)
#    0.000    1.778    1.111    2.667    0.000   10.667 
#    2.000    0.000    0.000    0.000    0.000    0.000 
#    0.000    0.000    0.000    0.000    0.000    0.000 
#
# Total GULP energy -200619.690215 kJ/mol
# GULP energy per Si atom -5572.769173 kJ/mol
# Density = 2.179110 g / cm^3
# Si number density = 21.840806 Si / 1000 Ang^3
#
#
#
# Elastic Constant Matrix: (Units=GPa)
#
#
# Indices 1 2 3 4 5 6 
#
# 1 225.1215 12.2459 82.1438 0.0000 0.0000 0.0000
# 2 12.2459 14.9644 16.0170 0.0000 0.0000 0.0000
# 3 82.1438 16.0170 120.3359 0.0000 0.0000 0.0000
# 4 0.0000 0.0000 0.0000 31.8839 0.0000 0.0000
# 5 0.0000 0.0000 0.0000 0.0000 28.3108 0.0000
# 6 0.0000 0.0000 0.0000 0.0000 0.0000 16.0729
#
#
#
# Elastic Compliance Matrix: (Units=1/GPa)
#
#
# Indices 1 2 3 4 5 6 
#
# 1 0.005920 -0.000605 -0.003961 0.000000 0.000000 0.000000
# 2 -0.000605 0.077989 -0.009967 0.000000 0.000000 0.000000
# 3 -0.003961 -0.009967 0.012340 0.000000 0.000000 0.000000
# 4 0.000000 0.000000 0.000000 0.031364 0.000000 0.000000
# 5 0.000000 0.000000 0.000000 0.000000 0.035322 0.000000
# 6 0.000000 0.000000 0.000000 0.000000 0.000000 0.062216
#
#
# Mechanical properties :
#
#
# Convention : Reuss Voigt Hill
#
# Bulk Modulus (GPa) = 14.88478 64.58170 39.73324
# Shear Modulus (GPa) = 18.07583 31.92122 24.99852
#
# Velocity S-wave (km/s) = 2.87995 3.82716 3.38683
# Velocity P-wave (km/s) = 4.22951 7.01163 5.79015
#
# Compressibility (1/GPa) = 0.06718274
#
# Stress axis : x y z
#
# Youngs Moduli (GPa) = 168.91429 12.82234 81.03498
#
# Poissons Ratio (x) = 0.00776 0.32095
# Poissons Ratio (y) = 0.10227 0.80769
# Poissons Ratio (z) = 0.66901 0.12780
#
# Static dielectric constant tensor:
#      x y z
#    x 1.826340 0.000000 0.000000 
#    y 0.000000 1.820320 0.000000 
#    z 0.000000 0.000000 1.926300 
# 
# From -- ./inp_files/21173.got.cif
#   From: 2010.05.17/outbox.cif.g08.bks.cpg/sg64_11_cif.got.tgz:21173.got - 2010.06.03 16:29:19.
