data_PCOD9478788
_publ_section_title
;
Structure prediction by ZEFSAII (Michael W. Deem and Ramdas Pophale) SiO2 
 PCOD9478788
Probable space group: C M C A
;
_chemical_formula_sum "Si O2"
_cell_formula_units_Z 96
_cell_length_a 19.236880
_cell_length_b 8.862478
_cell_length_c 26.146495
_cell_angle_alpha 90.000000
_cell_angle_beta 90.000000
_cell_angle_gamma 90.000000
_cell_volume 4457.622479
_symmetry_space_group_name_H-M "C M C A"
_symmetry_group_IT_number 64
_symmetry_cell_setting 'orthorhombic'
loop_
_space_group_symop_operation_xyz
x,y,z
-x,1/2-y,1/2+z
x,-y,-z
-x,1/2+y,1/2-z
-x,-y,-z
x,1/2+y,1/2-z
-x,y,z
x,1/2-y,1/2+z
1/2+x,1/2+y,z
1/2-x,-y,1/2+z
1/2+x,1/2-y,-z
1/2-x,y,1/2-z
1/2-x,1/2-y,-z
1/2+x,y,1/2-z
1/2-x,1/2+y,z
1/2+x,-y,1/2+z
loop_
_atom_site_type_symbol
_atom_site_label
_atom_site_fract_x
_atom_site_fract_y
_atom_site_fract_z
Si Si1 0.417734 0.094701 0.552397
Si Si2 0.341185 0.187497 0.892029
Si Si3 0.308010 0.389378 0.206911
Si Si4 0.173214 0.679431 0.001801
Si Si5 0.785764 0.882689 0.641232
Si Si6 0.581983 0.431710 0.837547
O O1 0.500000 0.127286 0.551372
O O2 0.370377 0.242825 0.546664
O O3 0.402074 0.000000 0.500000
O O4 0.403189 0.015285 0.607228
O O5 0.266386 0.273222 0.889685
O O6 0.386348 0.265723 0.847989
O O7 0.332328 0.008812 0.885370
O O8 0.367664 0.215805 0.949023
O O9 0.250000 0.358361 0.250000
O O10 0.266127 0.507297 0.171754
O O11 0.323107 0.230406 0.179921
O O12 0.380441 0.479886 0.208918
O O13 0.181293 0.500000 0.000000
O O14 0.250000 0.750000 0.000000
O O15 0.500000 0.426437 0.830776
#
# Coordination Sequence:
#
# PCOD9478788 Si02
#       6
#    16  16  16  16  16  16
#     4  10  21  40  60  84 127 182 224 257 313 379
#     4  10  20  36  55  86 126 170 211 262 320 370
#     4  10  20  37  66  94 122 153 207 259 326 390
#     4  12  25  33  55  88 133 169 228 278 309 361
#     4   9  20  35  60  88 123 155 202 260 324 379
#     4  10  22  40  64  92 130 173 213 262 322 391
#
# _framework density 21.536144
#
# number of rings (size 3 to 8) (size 9 to 14) (size 15 to 20)
#    0.000    1.833    1.667    2.000    9.333    0.333 
#    0.000    1.667    0.000   16.000    0.000    0.000 
#    0.000    0.000    0.000    0.000    0.000    0.167 
#
# Total GULP energy -267521.937204 kJ/mol
# GULP energy per Si atom -5573.373692 kJ/mol
# Density = 2.148713 g / cm^3
# Si number density = 21.536144 Si / 1000 Ang^3
#
#
#
# Elastic Constant Matrix: (Units=GPa)
#
#
# Indices 1 2 3 4 5 6 
#
# 1 75.4036 40.6308 17.3549 0.0000 0.0000 0.0000
# 2 40.6308 153.1192 23.9382 0.0000 0.0000 0.0000
# 3 17.3549 23.9382 46.5511 0.0000 0.0000 0.0000
# 4 0.0000 0.0000 0.0000 15.8802 0.0000 0.0000
# 5 0.0000 0.0000 0.0000 0.0000 27.4130 0.0000
# 6 0.0000 0.0000 0.0000 0.0000 0.0000 18.4097
#
#
#
# Elastic Compliance Matrix: (Units=1/GPa)
#
#
# Indices 1 2 3 4 5 6 
#
# 1 0.016183 -0.003644 -0.004159 0.000000 0.000000 0.000000
# 2 -0.003644 0.007922 -0.002715 0.000000 0.000000 0.000000
# 3 -0.004159 -0.002715 0.024429 0.000000 0.000000 0.000000
# 4 0.000000 0.000000 0.000000 0.062972 0.000000 0.000000
# 5 0.000000 0.000000 0.000000 0.000000 0.036479 0.000000
# 6 0.000000 0.000000 0.000000 0.000000 0.000000 0.054319
#
#
# Mechanical properties :
#
#
# Convention : Reuss Voigt Hill
#
# Bulk Modulus (GPa) = 36.36822 48.76909 42.56865
# Shear Modulus (GPa) = 21.50476 25.21724 23.36100
#
# Velocity S-wave (km/s) = 3.16340 3.42559 3.29710
# Velocity P-wave (km/s) = 5.50150 6.19198 5.85693
#
# Compressibility (1/GPa) = 0.02749654
#
# Stress axis : x y z
#
# Youngs Moduli (GPa) = 61.79405 126.22583 40.93526
#
# Poissons Ratio (x) = 0.45996 0.17026
# Poissons Ratio (y) = 0.22517 0.11116
# Poissons Ratio (z) = 0.25702 0.34276
#
# Static dielectric constant tensor:
#      x y z
#    x 1.851640 0.000000 0.000000 
#    y 0.000000 1.794630 0.000000 
#    z 0.000000 0.000000 1.920660 
# 
# From -- ./inp_files/50670.got.cif
#   From: 2010.05.17/outbox.cif.g08.bks.cpg/sg64_26_cif.got.tgz:50670.got - 2010.06.03 16:29:19.
