data_PCOD9478844
_publ_section_title
;
Structure prediction by ZEFSAII (Michael W. Deem and Ramdas Pophale) SiO2 
 PCOD9478844
Probable space group: C M C A
;
_chemical_formula_sum "Si O2"
_cell_formula_units_Z 112
_cell_length_a 16.791352
_cell_length_b 30.733985
_cell_length_c 11.618750
_cell_angle_alpha 90.000000
_cell_angle_beta 90.000000
_cell_angle_gamma 90.000000
_cell_volume 5996.032084
_symmetry_space_group_name_H-M "C M C A"
_symmetry_group_IT_number 64
_symmetry_cell_setting 'orthorhombic'
loop_
_space_group_symop_operation_xyz
x,y,z
-x,1/2-y,1/2+z
x,-y,-z
-x,1/2+y,1/2-z
-x,-y,-z
x,1/2+y,1/2-z
-x,y,z
x,1/2-y,1/2+z
1/2+x,1/2+y,z
1/2-x,-y,1/2+z
1/2+x,1/2-y,-z
1/2-x,y,1/2-z
1/2-x,1/2-y,-z
1/2+x,y,1/2-z
1/2-x,1/2+y,z
1/2+x,-y,1/2+z
loop_
_atom_site_type_symbol
_atom_site_label
_atom_site_fract_x
_atom_site_fract_y
_atom_site_fract_z
Si Si1 0.410447 0.838445 0.823942
Si Si2 0.407811 0.781934 0.600320
Si Si3 0.782095 0.591539 0.140140
Si Si4 0.143116 0.185416 0.577681
Si Si5 0.909137 0.949088 0.468572
Si Si6 0.815001 0.144530 0.961935
Si Si7 0.408539 0.110269 0.754744
O O1 0.500000 0.857373 0.812998
O O2 0.404814 0.801188 0.728825
O O3 0.336982 0.870737 0.804304
O O4 0.396739 0.822136 0.953309
O O5 0.500000 0.773726 0.569773
O O6 0.362071 0.736421 0.600503
O O7 0.371929 0.818402 0.515325
O O8 0.750000 0.565244 0.250000
O O9 0.843672 0.569527 0.054039
O O10 0.712665 0.611432 0.061613
O O11 0.233690 0.168559 0.575294
O O12 0.099637 0.154032 0.668375
O O13 0.888969 0.930235 0.340929
O O14 0.000000 0.932829 0.488658
O O15 0.910534 0.000000 0.500000
O O16 0.853510 0.118625 0.855709
O O17 0.500000 0.104870 0.717656
#
# Coordination Sequence:
#
# PCOD9478844 Si02
#       7
#    16  16  16  16  16  16  16
#     4  10  20  36  58  78 110 159 207 255 297 353
#     4  11  23  37  54  83 122 167 216 262 305 356
#     4  11  21  40  61  89 122 156 199 248 308 370
#     4  11  23  37  58  82 118 163 217 261 303 359
#     4  10  22  43  71  96 118 155 204 251 306 383
#     4  11  23  39  58  87 124 161 203 258 316 365
#     4  11  22  40  63  89 122 160 205 257 315 377
#
# _framework density 18.679020000000001
#
# number of rings (size 3 to 8) (size 9 to 14) (size 15 to 20)
#    0.000    1.286    4.286    3.000    2.000    0.000 
#    7.714    0.000    0.000    0.000    0.000    3.000 
#    0.000    0.000    0.000    0.000    0.000    0.000 
#
# Total GULP energy -312377.267988 kJ/mol
# GULP energy per Si atom -5578.165500 kJ/mol
# Density = 1.863651 g / cm^3
# Si number density = 18.679020 Si / 1000 Ang^3
#
#
#
# Elastic Constant Matrix: (Units=GPa)
#
#
# Indices 1 2 3 4 5 6 
#
# 1 87.9015 19.7094 65.1290 0.0000 0.0000 0.0000
# 2 19.7094 67.0650 44.5031 0.0000 0.0000 0.0000
# 3 65.1290 44.5031 121.9254 0.0000 0.0000 0.0000
# 4 0.0000 0.0000 0.0000 5.6318 0.0000 0.0000
# 5 0.0000 0.0000 0.0000 0.0000 6.2781 0.0000
# 6 0.0000 0.0000 0.0000 0.0000 0.0000 10.8961
#
#
#
# Elastic Compliance Matrix: (Units=1/GPa)
#
#
# Indices 1 2 3 4 5 6 
#
# 1 0.018944 0.001514 -0.010672 0.000000 0.000000 0.000000
# 2 0.001514 0.019798 -0.008035 0.000000 0.000000 0.000000
# 3 -0.010672 -0.008035 0.016835 0.000000 0.000000 0.000000
# 4 0.000000 0.000000 0.000000 0.177564 0.000000 0.000000
# 5 0.000000 0.000000 0.000000 0.000000 0.159283 0.000000
# 6 0.000000 0.000000 0.000000 0.000000 0.000000 0.091776
#
#
# Mechanical properties :
#
#
# Convention : Reuss Voigt Hill
#
# Bulk Modulus (GPa) = 47.18882 59.50833 53.34858
# Shear Modulus (GPa) = 9.51202 14.39788 11.95495
#
# Velocity S-wave (km/s) = 2.25907 2.77935 2.53261
# Velocity P-wave (km/s) = 5.66766 6.49825 6.09712
#
# Compressibility (1/GPa) = 0.02119146
#
# Stress axis : x y z
#
# Youngs Moduli (GPa) = 52.78664 50.51044 59.39856
#
# Poissons Ratio (x) = -0.07650 0.63391
# Poissons Ratio (y) = -0.07994 0.47728
# Poissons Ratio (z) = 0.56335 0.40587
#
# Static dielectric constant tensor:
#      x y z
#    x 1.668000 0.000000 0.000000 
#    y 0.000000 1.652180 0.000000 
#    z 0.000000 0.000000 1.645840 
# 
# From -- ./inp_files/14947.got.cif
#   From: 2010.05.17/outbox.cif.g08.bks.cpg/sg64_8_cif.got.tgz:14947.got - 2010.06.03 16:29:19.
