data_PCOD9478726
_publ_section_title
;
Structure prediction by ZEFSAII (Michael W. Deem and Ramdas Pophale) SiO2 
 PCOD9478726
Probable space group: C M C A
;
_chemical_formula_sum "Si O2"
_cell_formula_units_Z 96
_cell_length_a 21.247276
_cell_length_b 13.898708
_cell_length_c 14.899255
_cell_angle_alpha 90.000000
_cell_angle_beta 90.000000
_cell_angle_gamma 90.000000
_cell_volume 4399.894300
_symmetry_space_group_name_H-M "C M C A"
_symmetry_group_IT_number 64
_symmetry_cell_setting 'orthorhombic'
loop_
_space_group_symop_operation_xyz
x,y,z
-x,1/2-y,1/2+z
x,-y,-z
-x,1/2+y,1/2-z
-x,-y,-z
x,1/2+y,1/2-z
-x,y,z
x,1/2-y,1/2+z
1/2+x,1/2+y,z
1/2-x,-y,1/2+z
1/2+x,1/2-y,-z
1/2-x,y,1/2-z
1/2-x,1/2-y,-z
1/2+x,y,1/2-z
1/2-x,1/2+y,z
1/2+x,-y,1/2+z
loop_
_atom_site_type_symbol
_atom_site_label
_atom_site_fract_x
_atom_site_fract_y
_atom_site_fract_z
Si Si1 0.633157 0.317190 0.379077
Si Si2 0.250000 0.046220 0.250000
Si Si3 0.369221 0.167039 0.230789
Si Si4 0.245013 0.432166 0.417153
Si Si5 0.500000 0.386739 0.376903
Si Si6 0.131850 0.706690 0.557139
Si Si7 0.500000 0.221714 0.529377
Si Si8 0.000000 0.101082 0.332476
O O1 0.638375 0.216766 0.327111
O O2 0.695385 0.380035 0.372021
O O3 0.570594 0.368507 0.339994
O O4 0.631647 0.294305 0.485666
O O5 0.307128 0.106916 0.209117
O O6 0.218360 0.990204 0.167464
O O7 0.369464 0.251634 0.157008
O O8 0.434823 0.109352 0.222435
O O9 0.264059 0.500000 0.500000
O O10 0.192705 0.358624 0.453174
O O11 0.500000 0.294541 0.444856
O O12 0.500000 0.502683 0.390996
O O13 0.063632 0.661123 0.536663
O O14 0.500000 0.302067 0.608072
#
# Coordination Sequence:
#
# PCOD9478726 Si02
#       8
#    16   8  16  16   8  16   8   8
#     4  11  22  39  61  86 118 159 197 238 293 359
#     4  12  24  38  58  88 118 152 196 248 296 342
#     4  11  22  40  61  85 118 158 197 238 293 361
#     4  12  24  39  59  88 119 152 197 250 296 342
#     4  10  20  35  59  90 118 147 192 246 293 338
#     4  10  21  40  61  84 115 156 197 238 291 357
#     4   8  19  36  61  86 116 155 195 231 287 357
#     4  10  20  35  59  90 119 148 190 245 291 337
#
# _framework density 21.818705999999999
#
# number of rings (size 3 to 8) (size 9 to 14) (size 15 to 20)
#    0.000    1.333    0.000    6.250    0.000    2.667 
#    0.000    1.250    0.000    0.000    0.000    0.000 
#    0.000    0.000    0.000    0.000    0.000    0.000 
#
# Total GULP energy -267526.061740 kJ/mol
# GULP energy per Si atom -5573.459620 kJ/mol
# Density = 2.176905 g / cm^3
# Si number density = 21.818706 Si / 1000 Ang^3
#
#
#
# Elastic Constant Matrix: (Units=GPa)
#
#
# Indices 1 2 3 4 5 6 
#
# 1 127.0442 41.3804 -3.8218 0.0000 0.0000 0.0000
# 2 41.3804 44.3740 -2.8852 0.0000 0.0000 0.0000
# 3 -3.8218 -2.8852 51.4081 0.0000 0.0000 0.0000
# 4 0.0000 0.0000 0.0000 18.8073 0.0000 0.0000
# 5 0.0000 0.0000 0.0000 0.0000 14.7661 0.0000
# 6 0.0000 0.0000 0.0000 0.0000 0.0000 -0.4451
#
#
#
# Elastic Compliance Matrix: (Units=1/GPa)
#
#
# Indices 1 2 3 4 5 6 
#
# 1 0.011308 -0.010529 0.000250 0.000000 0.000000 0.000000
# 2 -0.010529 0.032422 0.001037 0.000000 0.000000 0.000000
# 3 0.000250 0.001037 0.019529 0.000000 0.000000 0.000000
# 4 0.000000 0.000000 0.000000 0.053171 0.000000 0.000000
# 5 0.000000 0.000000 0.000000 0.000000 0.067723 0.000000
# 6 0.000000 0.000000 0.000000 0.000000 0.000000 -2.246918
#
#
# Mechanical properties :
#
#
# Convention : Reuss Voigt Hill
#
# Bulk Modulus (GPa) = 22.33435 32.46370 27.39902
# Shear Modulus (GPa) = -2.46384 19.16919 8.35268
#
# Velocity S-wave (km/s) = -1.06381 2.96728 1.95871
# Velocity P-wave (km/s) = 2.95798 5.16244 4.20716
#
# Compressibility (1/GPa) = 0.04477409
#
# Stress axis : x y z
#
# Youngs Moduli (GPa) = 88.43039 30.84324 51.20609
#
# Poissons Ratio (x) = 0.32475 -0.01279
# Poissons Ratio (y) = 0.93110 -0.05309
# Poissons Ratio (z) = -0.02209 -0.03198
#
# Static dielectric constant tensor:
#      x y z
#    x 1.896020 0.000000 0.000000 
#    y 0.000000 1.791520 0.000000 
#    z 0.000000 0.000000 1.774090 
# 
# From -- ./inp_files/26413.got.cif
#   From: 2010.05.17/outbox.cif.g08.bks.cpg/sg64_14_cif.got.tgz:26413.got - 2010.06.03 16:29:19.
