data_PCOD9478004
_publ_section_title
;
Structure prediction by ZEFSAII (Michael W. Deem and Ramdas Pophale) SiO2 
 PCOD9478004
Probable space group: C M C A
;
_chemical_formula_sum "Si O2"
_cell_formula_units_Z 88
_cell_length_a 19.652947
_cell_length_b 26.493417
_cell_length_c 9.419807
_cell_angle_alpha 90.000000
_cell_angle_beta 90.000000
_cell_angle_gamma 90.000000
_cell_volume 4904.645954
_symmetry_space_group_name_H-M "C M C A"
_symmetry_group_IT_number 64
_symmetry_cell_setting 'orthorhombic'
loop_
_space_group_symop_operation_xyz
x,y,z
-x,1/2-y,1/2+z
x,-y,-z
-x,1/2+y,1/2-z
-x,-y,-z
x,1/2+y,1/2-z
-x,y,z
x,1/2-y,1/2+z
1/2+x,1/2+y,z
1/2-x,-y,1/2+z
1/2+x,1/2-y,-z
1/2-x,y,1/2-z
1/2-x,1/2-y,-z
1/2+x,y,1/2-z
1/2-x,1/2+y,z
1/2+x,-y,1/2+z
loop_
_atom_site_type_symbol
_atom_site_label
_atom_site_fract_x
_atom_site_fract_y
_atom_site_fract_z
Si Si1 0.667842 0.806454 0.254545
Si Si2 0.750000 0.871492 0.750000
Si Si3 0.079569 0.506265 0.661900
Si Si4 0.421506 0.602368 0.652299
Si Si5 0.313535 0.716220 0.061103
Si Si6 0.839782 0.952485 0.589549
O O1 0.750000 0.815709 0.250000
O O2 0.628070 0.851337 0.180458
O O3 0.648063 0.800193 0.419111
O O4 0.652698 0.754924 0.170384
O O5 0.708288 0.832850 0.649751
O O6 0.790476 0.908513 0.643851
O O7 0.101609 0.500000 0.500000
O O8 0.083623 0.563756 0.715711
O O9 0.124479 0.474529 0.770693
O O10 0.000000 0.490996 0.672385
O O11 0.500000 0.617404 0.635483
O O12 0.395595 0.571538 0.515573
O O13 0.250000 0.750000 0.000000
O O14 0.808953 0.000000 0.500000
#
# Coordination Sequence:
#
# PCOD9478004 Si02
#       6
#    16   8  16  16  16  16
#     4  10  20  36  60  87 113 150 198 242 293 356
#     4  12  22  36  62  88 124 156 200 244 304 356
#     4   9  19  37  57  81 113 154 200 243 293 355
#     4  10  21  39  62  85 117 162 202 245 304 361
#     4  10  19  36  58  85 114 154 196 237 295 363
#     4  10  22  38  56  86 118 160 196 247 296 360
#
# _framework density 17.942171999999999
#
# number of rings (size 3 to 8) (size 9 to 14) (size 15 to 20)
#    0.000    2.000    2.727    2.727    2.545    2.909 
#    9.818    0.909    0.000    0.000    0.000    0.000 
#    0.000    0.000    0.000    0.000    0.000    0.000 
#
# Total GULP energy -245292.000306 kJ/mol
# GULP energy per Si atom -5574.818189 kJ/mol
# Density = 1.790134 g / cm^3
# Si number density = 17.942172 Si / 1000 Ang^3
#
#
#
# Elastic Constant Matrix: (Units=GPa)
#
#
# Indices 1 2 3 4 5 6 
#
# 1 39.0425 39.3542 19.0053 0.0000 0.0000 0.0000
# 2 39.3542 120.5784 54.8358 0.0000 0.0000 0.0000
# 3 19.0053 54.8358 138.9800 0.0000 0.0000 0.0000
# 4 0.0000 0.0000 0.0000 28.3491 0.0000 0.0000
# 5 0.0000 0.0000 0.0000 0.0000 18.6171 0.0000
# 6 0.0000 0.0000 0.0000 0.0000 0.0000 -14.3996
#
#
#
# Elastic Compliance Matrix: (Units=1/GPa)
#
#
# Indices 1 2 3 4 5 6 
#
# 1 0.038186 -0.012294 -0.000371 0.000000 0.000000 0.000000
# 2 -0.012294 0.014065 -0.003868 0.000000 0.000000 0.000000
# 3 -0.000371 -0.003868 0.008772 0.000000 0.000000 0.000000
# 4 0.000000 0.000000 0.000000 0.035275 0.000000 0.000000
# 5 0.000000 0.000000 0.000000 0.000000 0.053714 0.000000
# 6 0.000000 0.000000 0.000000 0.000000 0.000000 -0.069446
#
#
# Mechanical properties :
#
#
# Convention : Reuss Voigt Hill
#
# Bulk Modulus (GPa) = 35.77017 58.33239 47.05128
# Shear Modulus (GPa) = 40.66606 18.87368 29.76987
#
# Velocity S-wave (km/s) = 4.76595 3.24685 4.07776
# Velocity P-wave (km/s) = 7.08981 6.82920 6.96072
#
# Compressibility (1/GPa) = 0.02795626
#
# Stress axis : x y z
#
# Youngs Moduli (GPa) = 26.18734 71.09743 113.99525
#
# Poissons Ratio (x) = 0.87411 0.04230
# Poissons Ratio (y) = 0.32196 0.44097
# Poissons Ratio (z) = 0.00972 0.27503
#
# Static dielectric constant tensor:
#      x y z
#    x 1.619860 0.000000 0.000000 
#    y 0.000000 1.619200 0.000000 
#    z 0.000000 0.000000 1.645300 
# 
# From -- ./inp_files/8260.got.cif
#   From: 2010.05.17/outbox.cif.g08.bks.cpg/sg64_5_cif.got.tgz:8260.got - 2010.06.03 16:29:19.
