data_PCOD9478349
_publ_section_title
;
Structure prediction by ZEFSAII (Michael W. Deem and Ramdas Pophale) SiO2 
 PCOD9478349
Probable space group: C M C A
;
_chemical_formula_sum "Si O2"
_cell_formula_units_Z 96
_cell_length_a 8.139100
_cell_length_b 22.022038
_cell_length_c 23.933565
_cell_angle_alpha 90.000000
_cell_angle_beta 90.000000
_cell_angle_gamma 90.000000
_cell_volume 4289.841887
_symmetry_space_group_name_H-M "C M C A"
_symmetry_group_IT_number 64
_symmetry_cell_setting 'orthorhombic'
loop_
_space_group_symop_operation_xyz
x,y,z
-x,1/2-y,1/2+z
x,-y,-z
-x,1/2+y,1/2-z
-x,-y,-z
x,1/2+y,1/2-z
-x,y,z
x,1/2-y,1/2+z
1/2+x,1/2+y,z
1/2-x,-y,1/2+z
1/2+x,1/2-y,-z
1/2-x,y,1/2-z
1/2-x,1/2-y,-z
1/2+x,y,1/2-z
1/2-x,1/2+y,z
1/2+x,-y,1/2+z
loop_
_atom_site_type_symbol
_atom_site_label
_atom_site_fract_x
_atom_site_fract_y
_atom_site_fract_z
Si Si1 0.696393 0.411067 0.583058
Si Si2 0.804249 0.726381 0.877495
Si Si3 0.809102 0.837915 0.484407
Si Si4 0.693989 0.108026 0.687619
Si Si5 0.196365 0.344973 0.686199
Si Si6 0.192797 0.044171 0.923097
O O1 0.500000 0.412385 0.577683
O O2 0.763310 0.355202 0.544774
O O3 0.744730 0.399186 0.646688
O O4 0.765582 0.475289 0.562795
O O5 0.735082 0.709110 0.939289
O O6 0.776950 0.668001 0.838093
O O7 0.736743 0.784224 0.844494
O O8 0.000000 0.734276 0.884275
O O9 0.795557 0.903655 0.453838
O O10 0.000000 0.821711 0.491830
O O11 0.500000 0.119796 0.688167
O O12 0.750000 0.094791 0.750000
O O13 0.724872 0.054985 0.642831
O O14 0.250000 0.348584 0.750000
O O15 0.000000 0.342979 0.685244
O O16 0.000000 0.056132 0.933955
#
# Coordination Sequence:
#
# PCOD9478349 Si02
#       6
#    16  16  16  16  16  16
#     4  11  23  38  58  83 114 152 189 228 276 333
#     4   9  19  37  60  84 112 145 182 228 280 333
#     4   9  19  37  60  87 116 146 183 228 282 338
#     4  10  20  33  53  81 110 143 184 232 283 332
#     4  11  24  41  60  82 111 149 190 231 277 330
#     4  10  21  36  55  82 115 150 190 235 282 333
#
# _framework density 22.378447999999999
#
# number of rings (size 3 to 8) (size 9 to 14) (size 15 to 20)
#    0.000    2.000    0.000    3.000    0.000    9.333 
#    0.000    1.667    0.000    0.000    0.000    0.000 
#    0.000    0.000    0.000    0.000    0.000    0.000 
#
# Total GULP energy -268175.971704 kJ/mol
# GULP energy per Si atom -5586.999411 kJ/mol
# Density = 2.232751 g / cm^3
# Si number density = 22.378448 Si / 1000 Ang^3
#
#
#
# Elastic Constant Matrix: (Units=GPa)
#
#
# Indices 1 2 3 4 5 6 
#
# 1 38.9618 0.9980 5.0371 0.0000 0.0000 0.0000
# 2 0.9980 66.2070 9.5548 0.0000 0.0000 0.0000
# 3 5.0371 9.5548 124.9598 0.0000 0.0000 0.0000
# 4 0.0000 0.0000 0.0000 33.7567 0.0000 0.0000
# 5 0.0000 0.0000 0.0000 0.0000 21.5302 0.0000
# 6 0.0000 0.0000 0.0000 0.0000 0.0000 15.1812
#
#
#
# Elastic Compliance Matrix: (Units=1/GPa)
#
#
# Indices 1 2 3 4 5 6 
#
# 1 0.025804 -0.000242 -0.001022 0.000000 0.000000 0.000000
# 2 -0.000242 0.015275 -0.001158 0.000000 0.000000 0.000000
# 3 -0.001022 -0.001158 0.008132 0.000000 0.000000 0.000000
# 4 0.000000 0.000000 0.000000 0.029624 0.000000 0.000000
# 5 0.000000 0.000000 0.000000 0.000000 0.046446 0.000000
# 6 0.000000 0.000000 0.000000 0.000000 0.000000 0.065871
#
#
# Mechanical properties :
#
#
# Convention : Reuss Voigt Hill
#
# Bulk Modulus (GPa) = 22.53838 29.03427 25.78632
# Shear Modulus (GPa) = 23.72082 28.39619 26.05850
#
# Velocity S-wave (km/s) = 3.25927 3.56604 3.41610
# Velocity P-wave (km/s) = 4.92515 5.47338 5.20649
#
# Compressibility (1/GPa) = 0.04436877
#
# Stress axis : x y z
#
# Youngs Moduli (GPa) = 38.75300 65.46669 122.96611
#
# Poissons Ratio (x) = 0.01581 0.12563
# Poissons Ratio (y) = 0.00936 0.14242
# Poissons Ratio (z) = 0.03959 0.07583
#
# Static dielectric constant tensor:
#      x y z
#    x 1.778410 0.000000 0.000000 
#    y 0.000000 1.831510 0.000000 
#    z 0.000000 0.000000 1.858550 
# 
# From -- ./inp_files/42955.got.cif
#   From: 2010.05.17/outbox.cif.g08.bks.cpg/sg64_22_cif.got.tgz:42955.got - 2010.06.03 16:29:19.
