data_PCOD9478162
_publ_section_title
;
Structure prediction by ZEFSAII (Michael W. Deem and Ramdas Pophale) SiO2 
 PCOD9478162
Probable space group: C M C A
;
_chemical_formula_sum "Si O2"
_cell_formula_units_Z 96
_cell_length_a 29.683314
_cell_length_b 18.286539
_cell_length_c 9.171444
_cell_angle_alpha 90.000000
_cell_angle_beta 90.000000
_cell_angle_gamma 90.000000
_cell_volume 4978.306386
_symmetry_space_group_name_H-M "C M C A"
_symmetry_group_IT_number 64
_symmetry_cell_setting 'orthorhombic'
loop_
_space_group_symop_operation_xyz
x,y,z
-x,1/2-y,1/2+z
x,-y,-z
-x,1/2+y,1/2-z
-x,-y,-z
x,1/2+y,1/2-z
-x,y,z
x,1/2-y,1/2+z
1/2+x,1/2+y,z
1/2-x,-y,1/2+z
1/2+x,1/2-y,-z
1/2-x,y,1/2-z
1/2-x,1/2-y,-z
1/2+x,y,1/2-z
1/2-x,1/2+y,z
1/2+x,-y,1/2+z
loop_
_atom_site_type_symbol
_atom_site_label
_atom_site_fract_x
_atom_site_fract_y
_atom_site_fract_z
Si Si1 0.122655 0.319949 0.255599
Si Si2 0.238877 0.674630 0.082289
Si Si3 0.134635 0.834362 0.585710
Si Si4 0.822469 0.413554 0.478547
Si Si5 0.448376 0.582845 0.879649
Si Si6 0.906863 0.925900 0.823891
O O1 0.132038 0.240859 0.323326
O O2 0.158614 0.376379 0.330422
O O3 0.073657 0.347877 0.304183
O O4 0.123446 0.319878 0.082324
O O5 0.250000 0.687286 0.250000
O O6 0.187723 0.646042 0.078588
O O7 0.274346 0.618510 0.015907
O O8 0.250000 0.750000 0.000000
O O9 0.100869 0.892206 0.664255
O O10 0.819437 0.500000 0.500000
O O11 0.861201 0.397130 0.597762
O O12 0.500000 0.567909 0.843083
O O13 0.416907 0.513358 0.830662
O O14 0.443743 0.596388 0.054135
#
# Coordination Sequence:
#
# PCOD9478162 Si02
#       6
#    16  16  16  16  16  16
#     4  11  23  42  67  91 134 171 223 273 339 396
#     4  12  24  39  62  91 128 175 230 266 312 386
#     4  12  24  41  64  96 131 183 217 274 335 387
#     4  11  21  42  61  91 131 175 217 272 321 393
#     4  10  21  43  72  97 124 169 216 271 343 413
#     4  10  19  39  67  93 129 164 214 260 339 396
#
# _framework density 19.283667000000001
#
# number of rings (size 3 to 8) (size 9 to 14) (size 15 to 20)
#    0.000    1.000    6.667    4.000    0.000    0.667 
#    6.000    6.667    0.000    0.000    0.000    0.000 
#    0.000    0.000    0.000    0.000    0.000    0.000 
#
# Total GULP energy -267357.453379 kJ/mol
# GULP energy per Si atom -5569.946945 kJ/mol
# Density = 1.923978 g / cm^3
# Si number density = 19.283667 Si / 1000 Ang^3
#
#
#
# Elastic Constant Matrix: (Units=GPa)
#
#
# Indices 1 2 3 4 5 6 
#
# 1 108.1149 39.4313 31.0733 0.0000 0.0000 0.0000
# 2 39.4313 77.4550 35.0468 0.0000 0.0000 0.0000
# 3 31.0733 35.0468 128.2495 0.0000 0.0000 0.0000
# 4 0.0000 0.0000 0.0000 29.3228 0.0000 0.0000
# 5 0.0000 0.0000 0.0000 0.0000 14.7124 0.0000
# 6 0.0000 0.0000 0.0000 0.0000 0.0000 19.8668
#
#
#
# Elastic Compliance Matrix: (Units=1/GPa)
#
#
# Indices 1 2 3 4 5 6 
#
# 1 0.011563 -0.005271 -0.001361 0.000000 0.000000 0.000000
# 2 -0.005271 0.017135 -0.003405 0.000000 0.000000 0.000000
# 3 -0.001361 -0.003405 0.009058 0.000000 0.000000 0.000000
# 4 0.000000 0.000000 0.000000 0.034103 0.000000 0.000000
# 5 0.000000 0.000000 0.000000 0.000000 0.067970 0.000000
# 6 0.000000 0.000000 0.000000 0.000000 0.000000 0.050335
#
#
# Mechanical properties :
#
#
# Convention : Reuss Voigt Hill
#
# Bulk Modulus (GPa) = 56.55825 58.32466 57.44145
# Shear Modulus (GPa) = 23.13404 26.66495 24.89950
#
# Velocity S-wave (km/s) = 3.46738 3.72260 3.59726
# Velocity P-wave (km/s) = 6.73970 6.98486 6.86338
#
# Compressibility (1/GPa) = 0.01768089
#
# Stress axis : x y z
#
# Youngs Moduli (GPa) = 86.48329 58.36085 110.40302
#
# Poissons Ratio (x) = 0.30760 0.15029
# Poissons Ratio (y) = 0.45582 0.37597
# Poissons Ratio (z) = 0.11773 0.19874
#
# Static dielectric constant tensor:
#      x y z
#    x 1.746230 0.000000 0.000000 
#    y 0.000000 1.703020 0.000000 
#    z 0.000000 0.000000 1.694040 
# 
# From -- ./inp_files/10394.got.cif
#   From: 2010.05.17/outbox.cif.g08.bks.cpg/sg64_6_cif.got.tgz:10394.got - 2010.06.03 16:29:19.
