data_PCOD9478878
_publ_section_title
;
Structure prediction by ZEFSAII (Michael W. Deem and Ramdas Pophale) SiO2 
 PCOD9478878
Probable space group: C M C A
;
_chemical_formula_sum "Si O2"
_cell_formula_units_Z 72
_cell_length_a 10.674838
_cell_length_b 30.516437
_cell_length_c 10.342787
_cell_angle_alpha 90.000000
_cell_angle_beta 90.000000
_cell_angle_gamma 90.000000
_cell_volume 3369.245828
_symmetry_space_group_name_H-M "C M C A"
_symmetry_group_IT_number 64
_symmetry_cell_setting 'orthorhombic'
loop_
_space_group_symop_operation_xyz
x,y,z
-x,1/2-y,1/2+z
x,-y,-z
-x,1/2+y,1/2-z
-x,-y,-z
x,1/2+y,1/2-z
-x,y,z
x,1/2-y,1/2+z
1/2+x,1/2+y,z
1/2-x,-y,1/2+z
1/2+x,1/2-y,-z
1/2-x,y,1/2-z
1/2-x,1/2-y,-z
1/2+x,y,1/2-z
1/2-x,1/2+y,z
1/2+x,-y,1/2+z
loop_
_atom_site_type_symbol
_atom_site_label
_atom_site_fract_x
_atom_site_fract_y
_atom_site_fract_z
Si Si1 0.129365 0.968960 0.817382
Si Si2 0.135314 0.932461 0.108362
Si Si3 0.000000 0.293013 0.054513
Si Si4 0.000000 0.287922 0.747206
Si Si5 0.750000 0.655449 0.250000
Si Si6 0.144028 0.624344 0.979260
O O1 0.250000 0.952066 0.750000
O O2 0.000000 0.954652 0.753968
O O3 0.134667 0.021798 0.814834
O O4 0.129872 0.951309 0.962125
O O5 0.000000 0.909845 0.134875
O O6 0.260488 0.903509 0.107742
O O7 0.000000 0.278879 0.902777
O O8 0.881897 0.326116 0.070356
O O9 0.000000 0.254458 0.156584
O O10 0.873845 0.315695 0.718875
O O11 0.793373 0.630169 0.120330
O O12 0.000000 0.606320 0.986114
#
# Coordination Sequence:
#
# PCOD9478878 Si02
#       6
#    16  16   8   8   8  16
#     4   9  19  35  53  81 106 151 198 230 281 340
#     4   9  19  35  57  78 113 148 190 239 283 338
#     4   8  20  40  62  87 114 151 194 242 286 368
#     4  10  20  38  64  84 118 150 193 241 290 354
#     4  10  20  36  58  86 112 146 186 238 290 350
#     4   9  20  35  52  86 111 144 183 240 283 348
#
# _framework density 21.369765999999998
#
# number of rings (size 3 to 8) (size 9 to 14) (size 15 to 20)
#    0.667    2.222    1.111    1.333    3.111    5.333 
#    0.000    2.222    9.778    0.000    0.000    0.000 
#    0.000    0.000    0.000    0.000    0.000    0.000 
#
# Total GULP energy -200490.838894 kJ/mol
# GULP energy per Si atom -5569.189969 kJ/mol
# Density = 2.132113 g / cm^3
# Si number density = 21.369766 Si / 1000 Ang^3
#
#
#
# Elastic Constant Matrix: (Units=GPa)
#
#
# Indices 1 2 3 4 5 6 
#
# 1 198.7635 58.0621 38.2782 0.0000 0.0000 0.0000
# 2 58.0621 96.8901 33.1402 0.0000 0.0000 0.0000
# 3 38.2782 33.1402 39.8502 0.0000 0.0000 0.0000
# 4 0.0000 0.0000 0.0000 25.1070 0.0000 0.0000
# 5 0.0000 0.0000 0.0000 0.0000 15.1434 0.0000
# 6 0.0000 0.0000 0.0000 0.0000 0.0000 48.5064
#
#
#
# Elastic Compliance Matrix: (Units=1/GPa)
#
#
# Indices 1 2 3 4 5 6 
#
# 1 0.006576 -0.002488 -0.004248 0.000000 0.000000 0.000000
# 2 -0.002488 0.015365 -0.010388 0.000000 0.000000 0.000000
# 3 -0.004248 -0.010388 0.037813 0.000000 0.000000 0.000000
# 4 0.000000 0.000000 0.000000 0.039829 0.000000 0.000000
# 5 0.000000 0.000000 0.000000 0.000000 0.066035 0.000000
# 6 0.000000 0.000000 0.000000 0.000000 0.000000 0.020616
#
#
# Mechanical properties :
#
#
# Convention : Reuss Voigt Hill
#
# Bulk Modulus (GPa) = 39.20525 66.05163 52.62844
# Shear Modulus (GPa) = 21.83564 31.48626 26.66095
#
# Velocity S-wave (km/s) = 3.20003 3.84266 3.53597
# Velocity P-wave (km/s) = 5.66035 7.11787 6.43054
#
# Compressibility (1/GPa) = 0.02550679
#
# Stress axis : x y z
#
# Youngs Moduli (GPa) = 152.07223 65.08326 26.44600
#
# Poissons Ratio (x) = 0.16191 0.11233
# Poissons Ratio (y) = 0.37832 0.27472
# Poissons Ratio (z) = 0.64593 0.67609
#
# Static dielectric constant tensor:
#      x y z
#    x 1.822680 0.000000 0.000000 
#    y 0.000000 1.781670 0.000000 
#    z 0.000000 0.000000 1.794150 
# 
# From -- ./inp_files/13118.got.cif
#   From: 2010.05.17/outbox.cif.g08.bks.cpg/sg64_7_cif.got.tgz:13118.got - 2010.06.03 16:29:19.
