data_PCOD9478607
_publ_section_title
;
Structure prediction by ZEFSAII (Michael W. Deem and Ramdas Pophale) SiO2 
 PCOD9478607
Probable space group: C M C A
;
_chemical_formula_sum "Si O2"
_cell_formula_units_Z 116
_cell_length_a 7.905643
_cell_length_b 25.356750
_cell_length_c 26.604504
_cell_angle_alpha 90.000000
_cell_angle_beta 90.000000
_cell_angle_gamma 90.000000
_cell_volume 5333.176468
_symmetry_space_group_name_H-M "C M C A"
_symmetry_group_IT_number 64
_symmetry_cell_setting 'orthorhombic'
loop_
_space_group_symop_operation_xyz
x,y,z
-x,1/2-y,1/2+z
x,-y,-z
-x,1/2+y,1/2-z
-x,-y,-z
x,1/2+y,1/2-z
-x,y,z
x,1/2-y,1/2+z
1/2+x,1/2+y,z
1/2-x,-y,1/2+z
1/2+x,1/2-y,-z
1/2-x,y,1/2-z
1/2-x,1/2-y,-z
1/2+x,y,1/2-z
1/2-x,1/2+y,z
1/2+x,-y,1/2+z
loop_
_atom_site_type_symbol
_atom_site_label
_atom_site_fract_x
_atom_site_fract_y
_atom_site_fract_z
Si Si1 0.312794 0.871634 0.033853
Si Si2 0.705763 0.016493 0.917982
Si Si3 0.802578 0.386513 0.670312
Si Si4 0.311140 0.495855 0.695275
Si Si5 0.691841 0.342654 0.932549
Si Si6 0.197020 0.229143 0.909351
Si Si7 0.500000 0.500000 0.000000
Si Si8 0.201659 0.770493 0.696917
O O1 0.500000 0.876081 0.011833
O O2 0.284867 0.921160 0.069361
O O3 0.294402 0.816844 0.062842
O O4 0.192564 0.870380 0.985934
O O5 0.500000 0.001739 0.924137
O O6 0.763095 0.008250 0.860021
O O7 0.845822 0.992952 0.956359
O O8 0.698051 0.432203 0.696292
O O9 0.741316 0.378550 0.612671
O O10 0.781640 0.328640 0.693585
O O11 0.000000 0.401776 0.671874
O O12 0.500000 0.515917 0.690954
O O13 0.250000 0.514503 0.750000
O O14 0.500000 0.329567 0.917744
O O15 0.784975 0.286537 0.935021
O O16 0.255779 0.238263 0.852162
O O17 0.000000 0.214201 0.909654
O O18 0.250000 0.745957 0.750000
O O19 0.000000 0.776906 0.693329
#
# Coordination Sequence:
#
# PCOD9478607 Si02
#       8
#    16  16  16  16  16  16   4  16
#     4  11  23  40  60  84 122 159 200 253 308 370
#     4  10  27  46  67 102 132 172 219 272 335 392
#     4  10  21  35  57  88 120 156 203 247 308 382
#     4  11  24  43  65  90 128 168 216 271 325 393
#     4  10  21  35  57  88 121 159 202 244 303 373
#     4  10  21  37  57  83 116 155 201 243 297 365
#     4  12  26  44  80  94 140 168 214 278 328 406
#     4  10  20  35  55  81 114 152 194 248 304 360
#
# _framework density 21.750640000000001
#
# number of rings (size 3 to 8) (size 9 to 14) (size 15 to 20)
#    0.000    1.655    0.000    3.517    5.793    3.310 
#    0.000    0.690    0.000    3.310    0.000    0.000 
#    0.000    0.000    0.000    0.000    0.000    0.000 
#
# Total GULP energy -323279.165636 kJ/mol
# GULP energy per Si atom -5573.778718 kJ/mol
# Density = 2.170113 g / cm^3
# Si number density = 21.750640 Si / 1000 Ang^3
#
#
#
# Elastic Constant Matrix: (Units=GPa)
#
#
# Indices 1 2 3 4 5 6 
#
# 1 75.0631 4.7894 33.7972 0.0000 0.0000 0.0000
# 2 4.7894 39.0070 25.5550 0.0000 0.0000 0.0000
# 3 33.7972 25.5550 170.3093 0.0000 0.0000 0.0000
# 4 0.0000 0.0000 0.0000 15.8006 0.0000 0.0000
# 5 0.0000 0.0000 0.0000 0.0000 31.4175 0.0000
# 6 0.0000 0.0000 0.0000 0.0000 0.0000 6.5268
#
#
#
# Elastic Compliance Matrix: (Units=1/GPa)
#
#
# Indices 1 2 3 4 5 6 
#
# 1 0.014630 0.000117 -0.002921 0.000000 0.000000 0.000000
# 2 0.000117 0.028432 -0.004290 0.000000 0.000000 0.000000
# 3 -0.002921 -0.004290 0.007095 0.000000 0.000000 0.000000
# 4 0.000000 0.000000 0.000000 0.063289 0.000000 0.000000
# 5 0.000000 0.000000 0.000000 0.000000 0.031829 0.000000
# 6 0.000000 0.000000 0.000000 0.000000 0.000000 0.153213
#
#
# Mechanical properties :
#
#
# Convention : Reuss Voigt Hill
#
# Bulk Modulus (GPa) = 27.80035 45.85140 36.82588
# Shear Modulus (GPa) = 15.40048 25.43148 20.41598
#
# Velocity S-wave (km/s) = 2.66380 3.42311 3.06704
# Velocity P-wave (km/s) = 4.71914 6.06216 5.43231
#
# Compressibility (1/GPa) = 0.03597077
#
# Stress axis : x y z
#
# Youngs Moduli (GPa) = 68.35389 35.17125 140.94543
#
# Poissons Ratio (x) = -0.00412 0.41168
# Poissons Ratio (y) = -0.00801 0.60459
# Poissons Ratio (z) = 0.19965 0.15087
#
# Static dielectric constant tensor:
#      x y z
#    x 1.782320 0.000000 0.000000 
#    y 0.000000 1.765820 0.000000 
#    z 0.000000 0.000000 1.851410 
# 
# From -- ./inp_files/48565.got.cif
#   From: 2010.05.17/outbox.cif.g08.bks.cpg/sg64_25_cif.got.tgz:48565.got - 2010.06.03 16:29:19.
