data_PCOD9478755
_publ_section_title
;
Structure prediction by ZEFSAII (Michael W. Deem and Ramdas Pophale) SiO2 
 PCOD9478755
Probable space group: C M C A
;
_chemical_formula_sum "Si O2"
_cell_formula_units_Z 96
_cell_length_a 14.562643
_cell_length_b 22.622460
_cell_length_c 13.949259
_cell_angle_alpha 90.000000
_cell_angle_beta 90.000000
_cell_angle_gamma 90.000000
_cell_volume 4595.483065
_symmetry_space_group_name_H-M "C M C A"
_symmetry_group_IT_number 64
_symmetry_cell_setting 'orthorhombic'
loop_
_space_group_symop_operation_xyz
x,y,z
-x,1/2-y,1/2+z
x,-y,-z
-x,1/2+y,1/2-z
-x,-y,-z
x,1/2+y,1/2-z
-x,y,z
x,1/2-y,1/2+z
1/2+x,1/2+y,z
1/2-x,-y,1/2+z
1/2+x,1/2-y,-z
1/2-x,y,1/2-z
1/2-x,1/2-y,-z
1/2+x,y,1/2-z
1/2-x,1/2+y,z
1/2+x,-y,1/2+z
loop_
_atom_site_type_symbol
_atom_site_label
_atom_site_fract_x
_atom_site_fract_y
_atom_site_fract_z
Si Si1 0.107771 0.237635 0.213460
Si Si2 0.109689 0.127915 0.693518
Si Si3 0.894622 0.890995 0.089147
Si Si4 0.208315 0.431603 0.012630
Si Si5 0.356175 0.232177 0.499081
Si Si6 0.603719 0.342186 0.614597
O O1 0.144399 0.304378 0.204237
O O2 0.117028 0.212146 0.107100
O O3 0.144394 0.194428 0.295486
O O4 0.000000 0.244048 0.238333
O O5 0.121625 0.098641 0.797804
O O6 0.161412 0.095117 0.608334
O O7 0.000000 0.129386 0.673100
O O8 0.817011 0.922312 0.026659
O O9 0.000000 0.906046 0.066255
O O10 0.880944 0.820772 0.070119
O O11 0.186073 0.500000 0.000000
O O12 0.168300 0.393413 0.924869
O O13 0.250000 0.250000 0.500000
O O14 0.403321 0.292608 0.531539
O O15 0.500000 0.363628 0.635956
#
# Coordination Sequence:
#
# PCOD9478755 Si02
#       6
#    16  16  16  16  16  16
#     4  10  20  35  61  99 139 169 207 272 343 406
#     4  10  20  38  68  99 129 170 217 275 339 402
#     4  11  23  42  66  95 129 173 228 280 336 395
#     4  12  26  44  65  96 136 185 231 273 324 400
#     4  12  21  36  64  99 135 174 212 277 349 406
#     4  11  22  39  64 100 137 171 215 272 339 402
#
# _framework density 20.890077999999999
#
# number of rings (size 3 to 8) (size 9 to 14) (size 15 to 20)
#    0.000    1.000    5.000    2.500    0.000    2.333 
#    0.000    3.333    0.000    2.000    0.000    0.000 
#    0.000    0.000    0.000    0.000    0.000    0.000 
#
# Total GULP energy -268397.191295 kJ/mol
# GULP energy per Si atom -5591.608152 kJ/mol
# Density = 2.084253 g / cm^3
# Si number density = 20.890078 Si / 1000 Ang^3
#
#
#
# Elastic Constant Matrix: (Units=GPa)
#
#
# Indices 1 2 3 4 5 6 
#
# 1 102.2291 30.4384 35.0350 0.0000 0.0000 0.0000
# 2 30.4384 123.0578 59.7336 0.0000 0.0000 0.0000
# 3 35.0350 59.7336 111.4116 0.0000 0.0000 0.0000
# 4 0.0000 0.0000 0.0000 18.9229 0.0000 0.0000
# 5 0.0000 0.0000 0.0000 0.0000 25.7574 0.0000
# 6 0.0000 0.0000 0.0000 0.0000 0.0000 -7.3383
#
#
#
# Elastic Compliance Matrix: (Units=1/GPa)
#
#
# Indices 1 2 3 4 5 6 
#
# 1 0.011146 -0.001427 -0.002740 0.000000 0.000000 0.000000
# 2 -0.001427 0.011168 -0.005539 0.000000 0.000000 0.000000
# 3 -0.002740 -0.005539 0.012807 0.000000 0.000000 0.000000
# 4 0.000000 0.000000 0.000000 0.052846 0.000000 0.000000
# 5 0.000000 0.000000 0.000000 0.000000 0.038824 0.000000
# 6 0.000000 0.000000 0.000000 0.000000 0.000000 -0.136271
#
#
# Mechanical properties :
#
#
# Convention : Reuss Voigt Hill
#
# Bulk Modulus (GPa) = 63.65725 65.23473 64.44599
# Shear Modulus (GPa) = 329.65043 21.56783 175.60913
#
# Velocity S-wave (km/s) = 12.57557 3.21665 9.17856
# Velocity P-wave (km/s) = 15.53701 6.71500 11.96850
#
# Compressibility (1/GPa) = 0.01570913
#
# Stress axis : x y z
#
# Youngs Moduli (GPa) = 89.71983 89.54248 78.08199
#
# Poissons Ratio (x) = 0.12777 0.21394
# Poissons Ratio (y) = 0.12803 0.43249
# Poissons Ratio (z) = 0.24582 0.49597
#
# Static dielectric constant tensor:
#      x y z
#    x 1.808770 0.000000 0.000000 
#    y 0.000000 1.712140 0.000000 
#    z 0.000000 0.000000 1.790520 
# 
# From -- ./inp_files/23849.got.cif
#   From: 2010.05.17/outbox.cif.g08.bks.cpg/sg64_12_cif.got.tgz:23849.got - 2010.06.03 16:29:19.
