data_PCOD9478330
_publ_section_title
;
Structure prediction by ZEFSAII (Michael W. Deem and Ramdas Pophale) SiO2 
 PCOD9478330
Probable space group: C M C A
;
_chemical_formula_sum "Si O2"
_cell_formula_units_Z 96
_cell_length_a 26.456251
_cell_length_b 22.356821
_cell_length_c 7.941804
_cell_angle_alpha 90.000000
_cell_angle_beta 90.000000
_cell_angle_gamma 90.000000
_cell_volume 4697.399709
_symmetry_space_group_name_H-M "C M C A"
_symmetry_group_IT_number 64
_symmetry_cell_setting 'orthorhombic'
loop_
_space_group_symop_operation_xyz
x,y,z
-x,1/2-y,1/2+z
x,-y,-z
-x,1/2+y,1/2-z
-x,-y,-z
x,1/2+y,1/2-z
-x,y,z
x,1/2-y,1/2+z
1/2+x,1/2+y,z
1/2-x,-y,1/2+z
1/2+x,1/2-y,-z
1/2-x,y,1/2-z
1/2-x,1/2-y,-z
1/2+x,y,1/2-z
1/2-x,1/2+y,z
1/2+x,-y,1/2+z
loop_
_atom_site_type_symbol
_atom_site_label
_atom_site_fract_x
_atom_site_fract_y
_atom_site_fract_z
Si Si1 0.000000 0.843280 0.776497
Si Si2 0.093904 0.852742 0.304166
Si Si3 0.696696 0.291391 0.341551
Si Si4 0.557881 0.972700 0.314273
Si Si5 0.500000 0.278161 0.416360
Si Si6 0.304768 0.840052 0.776940
Si Si7 0.597882 0.912032 0.823757
O O1 0.000000 0.805430 0.602748
O O2 0.049616 0.883463 0.770071
O O3 0.000000 0.793212 0.918654
O O4 0.147187 0.822190 0.261978
O O5 0.078305 0.905569 0.180465
O O6 0.050204 0.803369 0.325694
O O7 0.096036 0.887364 0.485001
O O8 0.750000 0.305113 0.250000
O O9 0.695997 0.314331 0.532701
O O10 0.690553 0.219664 0.335695
O O11 0.500000 0.970957 0.249223
O O12 0.557869 0.000000 0.500000
O O13 0.590931 0.017370 0.199906
O O14 0.250000 0.868482 0.750000
O O15 0.350381 0.885317 0.751780
#
# Coordination Sequence:
#
# PCOD9478330 Si02
#       7
#     8  16  16  16   8  16  16
#     4  10  20  33  52  79 109 140 174 220 271 322
#     4  10  21  37  57  79 108 147 186 221 270 330
#     4  10  20  35  57  84 112 147 185 224 274 326
#     4  11  23  37  56  83 110 143 184 228 277 324
#     4  10  20  33  52  79 109 140 174 220 271 322
#     4  10  20  35  57  84 112 147 185 224 274 326
#     4  10  21  37  57  79 108 147 186 221 270 330
#
# _framework density 20.436838999999999
#
# number of rings (size 3 to 8) (size 9 to 14) (size 15 to 20)
#    0.000    1.833    1.667    3.500    0.000    4.667 
#    0.000    0.833    0.000    0.000    0.000    0.000 
#    0.000    0.000    0.000    0.000    0.000    0.000 
#
# Total GULP energy -268305.440355 kJ/mol
# GULP energy per Si atom -5589.696674 kJ/mol
# Density = 2.039032 g / cm^3
# Si number density = 20.436839 Si / 1000 Ang^3
#
#
#
# Elastic Constant Matrix: (Units=GPa)
#
#
# Indices 1 2 3 4 5 6 
#
# 1 158.1768 36.2502 14.7804 0.0000 0.0000 0.0000
# 2 36.2502 53.5954 -0.7914 0.0000 0.0000 0.0000
# 3 14.7804 -0.7914 33.6740 0.0000 0.0000 0.0000
# 4 0.0000 0.0000 0.0000 30.5194 0.0000 0.0000
# 5 0.0000 0.0000 0.0000 0.0000 22.5170 0.0000
# 6 0.0000 0.0000 0.0000 0.0000 0.0000 122.6315
#
#
#
# Elastic Compliance Matrix: (Units=1/GPa)
#
#
# Indices 1 2 3 4 5 6 
#
# 1 0.007893 -0.005392 -0.003591 0.000000 0.000000 0.000000
# 2 -0.005392 0.022348 0.002892 0.000000 0.000000 0.000000
# 3 -0.003591 0.002892 0.031341 0.000000 0.000000 0.000000
# 4 0.000000 0.000000 0.000000 0.032766 0.000000 0.000000
# 5 0.000000 0.000000 0.000000 0.000000 0.044411 0.000000
# 6 0.000000 0.000000 0.000000 0.000000 0.000000 0.008155
#
#
# Mechanical properties :
#
#
# Convention : Reuss Voigt Hill
#
# Bulk Modulus (GPa) = 20.24315 38.43605 29.33960
# Shear Modulus (GPa) = 28.47992 48.14739 38.31365
#
# Velocity S-wave (km/s) = 3.73709 4.85904 4.33452
# Velocity P-wave (km/s) = 5.34302 7.09425 6.27998
#
# Compressibility (1/GPa) = 0.04939942
#
# Stress axis : x y z
#
# Youngs Moduli (GPa) = 126.69004 44.74707 31.90730
#
# Poissons Ratio (x) = 0.24127 0.11459
# Poissons Ratio (y) = 0.68309 -0.09227
# Poissons Ratio (z) = 0.45498 -0.12940
#
# Static dielectric constant tensor:
#      x y z
#    x 1.721190 0.000000 0.000000 
#    y 0.000000 1.693840 0.000000 
#    z 0.000000 0.000000 1.788320 
# 
# From -- ./inp_files/9526.got.cif
#   From: 2010.05.17/outbox.cif.g08.bks.cpg/sg64_5_cif.got.tgz:9526.got - 2010.06.03 16:29:19.
