data_PCOD9478880
_publ_section_title
;
Structure prediction by ZEFSAII (Michael W. Deem and Ramdas Pophale) SiO2 
 PCOD9478880
Probable space group: C M C A
;
_chemical_formula_sum "Si O2"
_cell_formula_units_Z 112
_cell_length_a 14.404795
_cell_length_b 15.802843
_cell_length_c 23.395722
_cell_angle_alpha 90.000000
_cell_angle_beta 90.000000
_cell_angle_gamma 90.000000
_cell_volume 5325.725274
_symmetry_space_group_name_H-M "C M C A"
_symmetry_group_IT_number 64
_symmetry_cell_setting 'orthorhombic'
loop_
_space_group_symop_operation_xyz
x,y,z
-x,1/2-y,1/2+z
x,-y,-z
-x,1/2+y,1/2-z
-x,-y,-z
x,1/2+y,1/2-z
-x,y,z
x,1/2-y,1/2+z
1/2+x,1/2+y,z
1/2-x,-y,1/2+z
1/2+x,1/2-y,-z
1/2-x,y,1/2-z
1/2-x,1/2-y,-z
1/2+x,y,1/2-z
1/2-x,1/2+y,z
1/2+x,-y,1/2+z
loop_
_atom_site_type_symbol
_atom_site_label
_atom_site_fract_x
_atom_site_fract_y
_atom_site_fract_z
Si Si1 0.604310 0.065168 0.698446
Si Si2 0.606152 0.090548 0.468820
Si Si3 0.606836 0.410809 0.466939
Si Si4 0.111773 0.747300 0.047622
Si Si5 0.252369 0.005204 0.109273
Si Si6 0.344902 0.426900 0.715112
Si Si7 0.890979 0.747311 0.677247
O O1 0.500000 0.063638 0.674125
O O2 0.675771 0.033803 0.651222
O O3 0.634665 0.161467 0.710373
O O4 0.603938 0.002823 0.752524
O O5 0.500000 0.106868 0.445562
O O6 0.629028 0.166331 0.512514
O O7 0.600437 0.000000 0.500000
O O8 0.692088 0.073257 0.426400
O O9 0.600373 0.500000 0.500000
O O10 0.500000 0.393579 0.445244
O O11 0.635288 0.334376 0.508993
O O12 0.690295 0.432719 0.423642
O O13 0.150508 0.748709 0.112608
O O14 0.000000 0.741828 0.052248
O O15 0.327912 0.049944 0.149425
O O16 0.250000 0.423797 0.750000
O O17 0.379986 0.331722 0.713776
O O18 0.000000 0.739860 0.667946
#
# Coordination Sequence:
#
# PCOD9478880 Si02
#       7
#    16  16  16  16  16  16  16
#     4  10  22  41  63  87 115 151 199 252 303 353
#     4  10  20  36  58  86 122 158 195 240 288 346
#     4  10  21  37  57  84 121 160 197 238 285 346
#     4   9  19  36  60  90 120 156 199 238 286 351
#     4  11  22  37  59  88 122 161 196 239 297 350
#     4  10  23  39  58  84 115 153 200 251 302 352
#     4  10  20  38  64  87 113 154 199 245 299 356
#
# _framework density 21.030000000000001
#
# number of rings (size 3 to 8) (size 9 to 14) (size 15 to 20)
#    0.000    2.000    0.000    3.000    0.000    7.429 
#    0.000    5.714    0.000    6.857    0.000    0.000 
#    0.000    0.000    0.000    0.000    0.000    0.000 
#
# Total GULP energy -312059.207699 kJ/mol
# GULP energy per Si atom -5572.485852 kJ/mol
# Density = 2.098214 g / cm^3
# Si number density = 21.030000 Si / 1000 Ang^3
#
#
#
# Elastic Constant Matrix: (Units=GPa)
#
#
# Indices 1 2 3 4 5 6 
#
# 1 80.5650 22.4479 32.0735 0.0000 0.0000 0.0000
# 2 22.4479 176.5685 52.3899 0.0000 0.0000 0.0000
# 3 32.0735 52.3899 66.5851 0.0000 0.0000 0.0000
# 4 0.0000 0.0000 0.0000 21.8018 0.0000 0.0000
# 5 0.0000 0.0000 0.0000 0.0000 63.9680 0.0000
# 6 0.0000 0.0000 0.0000 0.0000 0.0000 37.1015
#
#
#
# Elastic Compliance Matrix: (Units=1/GPa)
#
#
# Indices 1 2 3 4 5 6 
#
# 1 0.015371 0.000317 -0.007653 0.000000 0.000000 0.000000
# 2 0.000317 0.007395 -0.005971 0.000000 0.000000 0.000000
# 3 -0.007653 -0.005971 0.023403 0.000000 0.000000 0.000000
# 4 0.000000 0.000000 0.000000 0.045868 0.000000 0.000000
# 5 0.000000 0.000000 0.000000 0.000000 0.015633 0.000000
# 6 0.000000 0.000000 0.000000 0.000000 0.000000 0.026953
#
#
# Mechanical properties :
#
#
# Convention : Reuss Voigt Hill
#
# Bulk Modulus (GPa) = 51.14113 59.72680 55.43396
# Shear Modulus (GPa) = 29.80536 39.02808 34.41672
#
# Velocity S-wave (km/s) = 3.76876 4.31261 4.04982
# Velocity P-wave (km/s) = 6.58096 7.29798 6.94872
#
# Compressibility (1/GPa) = 0.01955373
#
# Stress axis : x y z
#
# Youngs Moduli (GPa) = 65.05803 135.22812 42.72991
#
# Poissons Ratio (x) = -0.04281 0.32702
# Poissons Ratio (y) = -0.02060 0.25514
# Poissons Ratio (z) = 0.49790 0.80743
#
# Static dielectric constant tensor:
#      x y z
#    x 1.541710 0.000000 0.000000 
#    y 0.000000 1.787070 0.000000 
#    z 0.000000 0.000000 1.791880 
# 
# From -- ./inp_files/45296.got.cif
#   From: 2010.05.17/outbox.cif.g08.bks.cpg/sg64_23_cif.got.tgz:45296.got - 2010.06.03 16:29:19.
