data_PCOD9478700
_publ_section_title
;
Structure prediction by ZEFSAII (Michael W. Deem and Ramdas Pophale) SiO2 
 PCOD9478700
Probable space group: C M C A
;
_chemical_formula_sum "Si O2"
_cell_formula_units_Z 96
_cell_length_a 19.205897
_cell_length_b 11.665237
_cell_length_c 20.951032
_cell_angle_alpha 90.000000
_cell_angle_beta 90.000000
_cell_angle_gamma 90.000000
_cell_volume 4693.897290
_symmetry_space_group_name_H-M "C M C A"
_symmetry_group_IT_number 64
_symmetry_cell_setting 'orthorhombic'
loop_
_space_group_symop_operation_xyz
x,y,z
-x,1/2-y,1/2+z
x,-y,-z
-x,1/2+y,1/2-z
-x,-y,-z
x,1/2+y,1/2-z
-x,y,z
x,1/2-y,1/2+z
1/2+x,1/2+y,z
1/2-x,-y,1/2+z
1/2+x,1/2-y,-z
1/2-x,y,1/2-z
1/2-x,1/2-y,-z
1/2+x,y,1/2-z
1/2-x,1/2+y,z
1/2+x,-y,1/2+z
loop_
_atom_site_type_symbol
_atom_site_label
_atom_site_fract_x
_atom_site_fract_y
_atom_site_fract_z
Si Si1 0.076512 0.673245 0.811264
Si Si2 0.576052 0.620319 0.941492
Si Si3 0.124250 0.404429 0.633633
Si Si4 0.170553 0.477802 0.772194
Si Si5 0.283404 0.873027 0.521226
Si Si6 0.423133 0.205456 0.174773
O O1 0.089333 0.781292 0.856834
O O2 0.141252 0.587510 0.809418
O O3 0.074953 0.719618 0.738856
O O4 0.000000 0.622902 0.824859
O O5 0.500000 0.632030 0.971685
O O6 0.582507 0.498296 0.906313
O O7 0.640905 0.631311 0.987786
O O8 0.582776 0.715713 0.886767
O O9 0.131977 0.456898 0.704461
O O10 0.197488 0.384210 0.596375
O O11 0.250000 0.483284 0.750000
O O12 0.143725 0.374388 0.816306
O O13 0.250000 0.750000 0.500000
O O14 0.252795 0.000000 0.500000
O O15 0.500000 0.147014 0.172240
#
# Coordination Sequence:
#
# PCOD9478700 Si02
#       6
#    16  16  16  16  16  16
#     4  10  20  35  58  86 122 158 197 254 316 373
#     4  10  20  39  66  91 120 159 215 265 309 373
#     4  10  22  39  59  91 122 164 211 263 310 378
#     4  11  23  35  56  87 123 163 203 249 310 387
#     4  10  24  43  67  94 126 172 216 269 330 383
#     4   9  19  36  57  82 116 157 199 250 308 366
#
# _framework density 20.452089000000001
#
# number of rings (size 3 to 8) (size 9 to 14) (size 15 to 20)
#    0.000    2.000    1.667    1.000    2.333   10.333 
#    0.000    0.000    0.000    0.500    0.000    0.000 
#    0.000    0.000    0.000    0.000    0.000    0.000 
#
# Total GULP energy -267436.060174 kJ/mol
# GULP energy per Si atom -5571.584587 kJ/mol
# Density = 2.040554 g / cm^3
# Si number density = 20.452089 Si / 1000 Ang^3
#
#
#
# Elastic Constant Matrix: (Units=GPa)
#
#
# Indices 1 2 3 4 5 6 
#
# 1 119.0249 64.1169 3.7536 0.0000 0.0000 0.0000
# 2 64.1169 126.3355 18.8815 0.0000 0.0000 0.0000
# 3 3.7536 18.8815 44.5830 0.0000 0.0000 0.0000
# 4 0.0000 0.0000 0.0000 30.0255 0.0000 0.0000
# 5 0.0000 0.0000 0.0000 0.0000 4.9306 0.0000
# 6 0.0000 0.0000 0.0000 0.0000 0.0000 31.7828
#
#
#
# Elastic Compliance Matrix: (Units=1/GPa)
#
#
# Indices 1 2 3 4 5 6 
#
# 1 0.011673 -0.006167 0.001629 0.000000 0.000000 0.000000
# 2 -0.006167 0.011709 -0.004440 0.000000 0.000000 0.000000
# 3 0.001629 -0.004440 0.024173 0.000000 0.000000 0.000000
# 4 0.000000 0.000000 0.000000 0.033305 0.000000 0.000000
# 5 0.000000 0.000000 0.000000 0.000000 0.202814 0.000000
# 6 0.000000 0.000000 0.000000 0.000000 0.000000 0.031464
#
#
# Mechanical properties :
#
#
# Convention : Reuss Voigt Hill
#
# Bulk Modulus (GPa) = 33.78499 51.49417 42.63958
# Shear Modulus (GPa) = 14.57899 26.89388 20.73643
#
# Velocity S-wave (km/s) = 2.67280 3.63019 3.18764
# Velocity P-wave (km/s) = 5.10686 6.54245 5.86872
#
# Compressibility (1/GPa) = 0.02959895
#
# Stress axis : x y z
#
# Youngs Moduli (GPa) = 85.67112 85.40407 41.36823
#
# Poissons Ratio (x) = 0.52673 -0.06740
# Poissons Ratio (y) = 0.52837 0.18366
# Poissons Ratio (z) = -0.13958 0.37917
#
# Static dielectric constant tensor:
#      x y z
#    x 1.755460 0.000000 0.000000 
#    y 0.000000 1.770620 0.000000 
#    z 0.000000 0.000000 1.732140 
# 
# From -- ./inp_files/45740.got.cif
#   From: 2010.05.17/outbox.cif.g08.bks.cpg/sg64_23_cif.got.tgz:45740.got - 2010.06.03 16:29:19.
