data_PCOD9478226
_publ_section_title
;
Structure prediction by ZEFSAII (Michael W. Deem and Ramdas Pophale) SiO2 
 PCOD9478226
Probable space group: C M C A
;
_chemical_formula_sum "Si O2"
_cell_formula_units_Z 88
_cell_length_a 26.952610
_cell_length_b 30.682315
_cell_length_c 5.415135
_cell_angle_alpha 90.000000
_cell_angle_beta 90.000000
_cell_angle_gamma 90.000000
_cell_volume 4478.145906
_symmetry_space_group_name_H-M "C M C A"
_symmetry_group_IT_number 64
_symmetry_cell_setting 'orthorhombic'
loop_
_space_group_symop_operation_xyz
x,y,z
-x,1/2-y,1/2+z
x,-y,-z
-x,1/2+y,1/2-z
-x,-y,-z
x,1/2+y,1/2-z
-x,y,z
x,1/2-y,1/2+z
1/2+x,1/2+y,z
1/2-x,-y,1/2+z
1/2+x,1/2-y,-z
1/2-x,y,1/2-z
1/2-x,1/2-y,-z
1/2+x,y,1/2-z
1/2-x,1/2+y,z
1/2+x,-y,1/2+z
loop_
_atom_site_type_symbol
_atom_site_label
_atom_site_fract_x
_atom_site_fract_y
_atom_site_fract_z
Si Si1 0.872030 0.585039 0.268367
Si Si2 0.218632 0.551753 0.499934
Si Si3 0.443088 0.361330 0.491897
Si Si4 0.944423 0.053202 0.849426
Si Si5 0.559173 0.729762 0.776124
Si Si6 0.122043 0.500000 0.000000
O O1 0.829357 0.582992 0.475437
O O2 0.893256 0.629617 0.153693
O O3 0.922487 0.568269 0.393266
O O4 0.853438 0.545580 0.086824
O O5 0.203984 0.500000 0.500000
O O6 0.250000 0.559036 0.250000
O O7 0.250000 0.558885 0.750000
O O8 0.500000 0.356791 0.604000
O O9 0.444009 0.404639 0.326656
O O10 0.435662 0.319402 0.319759
O O11 0.000000 0.038218 0.864305
O O12 0.910756 0.017050 0.724603
O O13 0.500000 0.738383 0.797282
O O14 0.578888 0.759588 0.549663
#
# Coordination Sequence:
#
# PCOD9478226 Si02
#       6
#    16  16  16  16  16   8
#     4  11  22  34  54  73 106 140 184 229 277 327
#     4  10  23  38  58  77 101 136 183 235 287 328
#     4   9  20  34  51  78 111 148 184 224 273 322
#     4  10  20  32  48  70 104 143 181 221 263 315
#     4   9  18  32  52  76 107 146 186 222 262 320
#     4  10  21  32  48  70  98 142 190 222 263 316
#
# _framework density 19.65099
#
# number of rings (size 3 to 8) (size 9 to 14) (size 15 to 20)
#    0.000    2.182    0.000    2.455   11.455    2.909 
#    0.000    0.000    0.000    0.000    0.000    0.000 
#    0.000    4.364    0.000    0.000    0.000    0.000 
#
# Total GULP energy -245092.133173 kJ/mol
# GULP energy per Si atom -5570.275754 kJ/mol
# Density = 1.960626 g / cm^3
# Si number density = 19.650990 Si / 1000 Ang^3
#
#
#
# Elastic Constant Matrix: (Units=GPa)
#
#
# Indices 1 2 3 4 5 6 
#
# 1 50.9918 9.4526 6.6443 0.0000 0.0000 0.0000
# 2 9.4526 27.9901 -11.1322 0.0000 0.0000 0.0000
# 3 6.6443 -11.1322 50.6775 0.0000 0.0000 0.0000
# 4 0.0000 0.0000 0.0000 18.5821 0.0000 0.0000
# 5 0.0000 0.0000 0.0000 0.0000 28.2985 0.0000
# 6 0.0000 0.0000 0.0000 0.0000 0.0000 14.8793
#
#
#
# Elastic Compliance Matrix: (Units=1/GPa)
#
#
# Indices 1 2 3 4 5 6 
#
# 1 0.021998 -0.009397 -0.004948 0.000000 0.000000 0.000000
# 2 -0.009397 0.043161 0.010713 0.000000 0.000000 0.000000
# 3 -0.004948 0.010713 0.022735 0.000000 0.000000 0.000000
# 4 0.000000 0.000000 0.000000 0.053815 0.000000 0.000000
# 5 0.000000 0.000000 0.000000 0.000000 0.035338 0.000000
# 6 0.000000 0.000000 0.000000 0.000000 0.000000 0.067207
#
#
# Mechanical properties :
#
#
# Convention : Reuss Voigt Hill
#
# Bulk Modulus (GPa) = 12.40241 15.50988 13.95614
# Shear Modulus (GPa) = 17.96011 20.66496 19.31253
#
# Velocity S-wave (km/s) = 3.02645 3.24635 3.13833
# Velocity P-wave (km/s) = 4.30553 4.68632 4.49995
#
# Compressibility (1/GPa) = 0.08062947
#
# Stress axis : x y z
#
# Youngs Moduli (GPa) = 45.45921 23.16891 43.98552
#
# Poissons Ratio (x) = 0.21772 0.21766
# Poissons Ratio (y) = 0.42718 -0.47122
# Poissons Ratio (z) = 0.22495 -0.24821
#
# Static dielectric constant tensor:
#      x y z
#    x 1.733260 0.000000 0.000000 
#    y 0.000000 1.716390 0.000000 
#    z 0.000000 0.000000 1.808900 
# 
# From -- ./inp_files/2450.got.cif
#   From: 2010.05.17/outbox.cif.g08.bks.cpg/sg64_2_cif.got.tgz:2450.got - 2010.06.03 16:29:19.
