data_PCOD9478078
_publ_section_title
;
Structure prediction by ZEFSAII (Michael W. Deem and Ramdas Pophale) SiO2 
 PCOD9478078
Probable space group: C M C A
;
_chemical_formula_sum "Si O2"
_cell_formula_units_Z 96
_cell_length_a 22.983955
_cell_length_b 11.059868
_cell_length_c 19.292640
_cell_angle_alpha 90.000000
_cell_angle_beta 90.000000
_cell_angle_gamma 90.000000
_cell_volume 4904.179604
_symmetry_space_group_name_H-M "C M C A"
_symmetry_group_IT_number 64
_symmetry_cell_setting 'orthorhombic'
loop_
_space_group_symop_operation_xyz
x,y,z
-x,1/2-y,1/2+z
x,-y,-z
-x,1/2+y,1/2-z
-x,-y,-z
x,1/2+y,1/2-z
-x,y,z
x,1/2-y,1/2+z
1/2+x,1/2+y,z
1/2-x,-y,1/2+z
1/2+x,1/2-y,-z
1/2-x,y,1/2-z
1/2-x,1/2-y,-z
1/2+x,y,1/2-z
1/2-x,1/2+y,z
1/2+x,-y,1/2+z
loop_
_atom_site_type_symbol
_atom_site_label
_atom_site_fract_x
_atom_site_fract_y
_atom_site_fract_z
Si Si1 0.619831 0.829636 0.860678
Si Si2 0.566544 0.687084 0.976762
Si Si3 0.432966 0.780866 0.713674
Si Si4 0.665662 0.086070 0.814831
Si Si5 0.704977 0.891815 0.343341
Si Si6 0.109251 0.545514 0.398851
O O1 0.588299 0.800573 0.932752
O O2 0.578401 0.798389 0.795377
O O3 0.642418 0.963543 0.848098
O O4 0.673273 0.735222 0.856796
O O5 0.500000 0.700275 0.998405
O O6 0.573059 0.570250 0.926128
O O7 0.603658 0.649397 0.043596
O O8 0.500000 0.747629 0.700979
O O9 0.385840 0.683642 0.687129
O O10 0.417242 0.903042 0.671981
O O11 0.686272 0.070747 0.734836
O O12 0.726286 0.121903 0.851021
O O13 0.674118 0.994230 0.389542
#
# Coordination Sequence:
#
# PCOD9478078 Si02
#       6
#    16  16  16  16  16  16
#     4  10  21  37  55  86 115 152 191 244 292 344
#     4  10  20  36  60  85 117 157 194 238 294 343
#     4  11  22  35  57  90 120 151 195 238 291 353
#     4  10  21  36  57  86 117 154 184 245 300 346
#     4   9  20  35  60  82 111 150 201 239 289 345
#     4  10  19  37  60  87 110 153 199 244 277 337
#
# _framework density 19.575140000000001
#
# number of rings (size 3 to 8) (size 9 to 14) (size 15 to 20)
#    0.000    2.000    1.667    2.500    2.333    2.667 
#    0.000    1.667    7.333    2.000    0.000    0.000 
#    0.000    0.000    0.000    0.000    0.000    0.000 
#
# Total GULP energy -267837.903581 kJ/mol
# GULP energy per Si atom -5579.956325 kJ/mol
# Density = 1.953059 g / cm^3
# Si number density = 19.575140 Si / 1000 Ang^3
#
#
#
# Elastic Constant Matrix: (Units=GPa)
#
#
# Indices 1 2 3 4 5 6 
#
# 1 149.1507 22.4486 10.8178 0.0000 0.0000 0.0000
# 2 22.4486 26.6577 -4.2362 0.0000 0.0000 0.0000
# 3 10.8178 -4.2362 22.1003 0.0000 0.0000 0.0000
# 4 0.0000 0.0000 0.0000 21.8393 0.0000 0.0000
# 5 0.0000 0.0000 0.0000 0.0000 14.5090 0.0000
# 6 0.0000 0.0000 0.0000 0.0000 0.0000 15.1165
#
#
#
# Elastic Compliance Matrix: (Units=1/GPa)
#
#
# Indices 1 2 3 4 5 6 
#
# 1 0.008293 -0.007868 -0.005567 0.000000 0.000000 0.000000
# 2 -0.007868 0.046156 0.012699 0.000000 0.000000 0.000000
# 3 -0.005567 0.012699 0.050407 0.000000 0.000000 0.000000
# 4 0.000000 0.000000 0.000000 0.045789 0.000000 0.000000
# 5 0.000000 0.000000 0.000000 0.000000 0.068923 0.000000
# 6 0.000000 0.000000 0.000000 0.000000 0.000000 0.066153
#
#
# Mechanical properties :
#
#
# Convention : Reuss Voigt Hill
#
# Bulk Modulus (GPa) = 9.67278 28.44102 19.05690
# Shear Modulus (GPa) = 15.54459 21.55152 18.54805
#
# Velocity S-wave (km/s) = 2.82103 3.32168 3.08154
# Velocity P-wave (km/s) = 3.94500 5.41037 4.73472
#
# Compressibility (1/GPa) = 0.10338285
#
# Stress axis : x y z
#
# Youngs Moduli (GPa) = 120.58911 21.66553 19.83837
#
# Poissons Ratio (x) = 0.17046 0.11045
# Poissons Ratio (y) = 0.94879 -0.25192
# Poissons Ratio (z) = 0.67135 -0.27512
#
# Static dielectric constant tensor:
#      x y z
#    x 1.679120 0.000000 0.000000 
#    y 0.000000 1.677760 0.000000 
#    z 0.000000 0.000000 1.716200 
# 
# From -- ./inp_files/34924.got.cif
#   From: 2010.05.17/outbox.cif.g08.bks.cpg/sg64_18_cif.got.tgz:34924.got - 2010.06.03 16:29:19.
