data_PCOD9478163
_publ_section_title
;
Structure prediction by ZEFSAII (Michael W. Deem and Ramdas Pophale) SiO2 
 PCOD9478163
Probable space group: C M C A
;
_chemical_formula_sum "Si O2"
_cell_formula_units_Z 88
_cell_length_a 14.696747
_cell_length_b 18.888869
_cell_length_c 15.324334
_cell_angle_alpha 90.000000
_cell_angle_beta 90.000000
_cell_angle_gamma 90.000000
_cell_volume 4254.110649
_symmetry_space_group_name_H-M "C M C A"
_symmetry_group_IT_number 64
_symmetry_cell_setting 'orthorhombic'
loop_
_space_group_symop_operation_xyz
x,y,z
-x,1/2-y,1/2+z
x,-y,-z
-x,1/2+y,1/2-z
-x,-y,-z
x,1/2+y,1/2-z
-x,y,z
x,1/2-y,1/2+z
1/2+x,1/2+y,z
1/2-x,-y,1/2+z
1/2+x,1/2-y,-z
1/2-x,y,1/2-z
1/2-x,1/2-y,-z
1/2+x,y,1/2-z
1/2-x,1/2+y,z
1/2+x,-y,1/2+z
loop_
_atom_site_type_symbol
_atom_site_label
_atom_site_fract_x
_atom_site_fract_y
_atom_site_fract_z
Si Si1 0.500000 0.475299 0.293599
Si Si2 0.832056 0.584118 0.191632
Si Si3 0.171542 0.123596 0.682815
Si Si4 0.106819 0.778160 0.038921
Si Si5 0.606082 0.242002 0.239199
Si Si6 0.221309 0.363739 0.992393
O O1 0.579736 0.536266 0.300742
O O2 0.578978 0.413798 0.291557
O O3 0.750000 0.556522 0.250000
O O4 0.854441 0.663801 0.225480
O O5 0.798874 0.589885 0.091881
O O6 0.250000 0.105672 0.750000
O O7 0.157133 0.208901 0.691196
O O8 0.198468 0.102314 0.585173
O O9 0.112613 0.780947 0.144704
O O10 0.175083 0.835240 0.997030
O O11 0.000000 0.783040 0.014811
O O12 0.151635 0.702689 0.015656
O O13 0.500000 0.235974 0.262093
#
# Coordination Sequence:
#
# PCOD9478163 Si02
#       6
#     8  16  16  16  16  16
#     4  12  28  47  68  95 138 184 224 269 342 407
#     4  11  25  47  67  94 138 179 223 276 332 405
#     4  12  24  42  70 102 135 171 227 282 330 398
#     4   9  19  36  60  97 143 163 207 281 334 385
#     4  10  19  39  67  99 129 169 219 277 334 384
#     4  10  23  39  64 102 134 171 223 272 336 396
#
# _framework density 20.685876
#
# number of rings (size 3 to 8) (size 9 to 14) (size 15 to 20)
#    0.000    1.455    3.636    1.091    7.636    1.455 
#    1.636    0.000    0.000    1.091    0.000    0.000 
#    0.000    0.000    0.000    0.000    0.000    0.000 
#
# Total GULP energy -244951.552056 kJ/mol
# GULP energy per Si atom -5567.080729 kJ/mol
# Density = 2.063879 g / cm^3
# Si number density = 20.685876 Si / 1000 Ang^3
#
#
#
# Elastic Constant Matrix: (Units=GPa)
#
#
# Indices 1 2 3 4 5 6 
#
# 1 216.7901 24.4581 53.0833 0.0000 0.0000 0.0000
# 2 24.4581 65.4369 13.4159 0.0000 0.0000 0.0000
# 3 53.0833 13.4159 106.4491 0.0000 0.0000 0.0000
# 4 0.0000 0.0000 0.0000 -11.7664 0.0000 0.0000
# 5 0.0000 0.0000 0.0000 0.0000 8.9000 0.0000
# 6 0.0000 0.0000 0.0000 0.0000 0.0000 51.5180
#
#
#
# Elastic Compliance Matrix: (Units=1/GPa)
#
#
# Indices 1 2 3 4 5 6 
#
# 1 0.005395 -0.001504 -0.002501 0.000000 0.000000 0.000000
# 2 -0.001504 0.016106 -0.001280 0.000000 0.000000 0.000000
# 3 -0.002501 -0.001280 0.010803 0.000000 0.000000 0.000000
# 4 0.000000 0.000000 0.000000 -0.084988 0.000000 0.000000
# 5 0.000000 0.000000 0.000000 0.000000 0.112359 0.000000
# 6 0.000000 0.000000 0.000000 0.000000 0.000000 0.019411
#
#
# Mechanical properties :
#
#
# Convention : Reuss Voigt Hill
#
# Bulk Modulus (GPa) = 46.00926 63.39894 54.70410
# Shear Modulus (GPa) = 51.59987 29.57825 40.58906
#
# Velocity S-wave (km/s) = 4.99986 3.78547 4.43444
# Velocity P-wave (km/s) = 7.45799 7.05843 7.26096
#
# Compressibility (1/GPa) = 0.02173475
#
# Stress axis : x y z
#
# Youngs Moduli (GPa) = 185.36648 62.08728 92.57105
#
# Poissons Ratio (x) = 0.09336 0.23149
# Poissons Ratio (y) = 0.27873 0.11850
# Poissons Ratio (z) = 0.46354 0.07948
#
# Static dielectric constant tensor:
#      x y z
#    x 1.696020 0.000000 0.000000 
#    y 0.000000 1.737810 0.000000 
#    z 0.000000 0.000000 1.768890 
# 
# From -- ./inp_files/23756.got.cif
#   From: 2010.05.17/outbox.cif.g08.bks.cpg/sg64_12_cif.got.tgz:23756.got - 2010.06.03 16:29:19.
