data_PCOD9478786
_publ_section_title
;
Structure prediction by ZEFSAII (Michael W. Deem and Ramdas Pophale) SiO2 
 PCOD9478786
Probable space group: C M C A
;
_chemical_formula_sum "Si O2"
_cell_formula_units_Z 56
_cell_length_a 21.833983
_cell_length_b 19.979455
_cell_length_c 5.227502
_cell_angle_alpha 90.000000
_cell_angle_beta 90.000000
_cell_angle_gamma 90.000000
_cell_volume 2280.398847
_symmetry_space_group_name_H-M "C M C A"
_symmetry_group_IT_number 64
_symmetry_cell_setting 'orthorhombic'
loop_
_space_group_symop_operation_xyz
x,y,z
-x,1/2-y,1/2+z
x,-y,-z
-x,1/2+y,1/2-z
-x,-y,-z
x,1/2+y,1/2-z
-x,y,z
x,1/2-y,1/2+z
1/2+x,1/2+y,z
1/2-x,-y,1/2+z
1/2+x,1/2-y,-z
1/2-x,y,1/2-z
1/2-x,1/2-y,-z
1/2+x,y,1/2-z
1/2-x,1/2+y,z
1/2+x,-y,1/2+z
loop_
_atom_site_type_symbol
_atom_site_label
_atom_site_fract_x
_atom_site_fract_y
_atom_site_fract_z
Si Si1 0.852094 0.929386 0.934073
Si Si2 0.430395 0.910573 0.056536
Si Si3 0.500000 0.711328 0.373769
Si Si4 0.682069 0.719800 0.039589
O O1 0.897118 0.915083 0.172976
O O2 0.890434 0.940834 0.674222
O O3 0.815596 0.859597 0.911154
O O4 0.819136 0.000000 0.000000
O O5 0.500000 0.936109 0.088541
O O6 0.443390 0.835898 0.951413
O O7 0.500000 0.772306 0.573933
O O8 0.652282 0.760700 0.270618
O O9 0.750000 0.750000 0.000000
#
# Coordination Sequence:
#
# PCOD9478786 Si02
#       4
#    16  16   8  16
#     4  12  24  41  66  99 132 177 226 273 326 401
#     4  10  24  39  58  96 134 181 222 268 317 378
#     4  10  20  36  55  84 127 178 222 258 306 366
#     4  10  23  45  69  95 127 168 217 279 351 397
#
# _framework density 24.557107999999999
#
# number of rings (size 3 to 8) (size 9 to 14) (size 15 to 20)
#    0.857    0.571    0.000    5.143    0.000   10.286 
#    0.000    5.714    0.000    0.000    0.000    0.000 
#    0.000    0.000    0.000    0.000    0.000    0.000 
#
# Total GULP energy -156353.980322 kJ/mol
# GULP energy per Si atom -5584.070726 kJ/mol
# Density = 2.450122 g / cm^3
# Si number density = 24.557108 Si / 1000 Ang^3
#
#
#
# Elastic Constant Matrix: (Units=GPa)
#
#
# Indices 1 2 3 4 5 6 
#
# 1 55.6878 34.8942 14.1300 0.0000 0.0000 0.0000
# 2 34.8942 165.6461 6.3600 0.0000 0.0000 0.0000
# 3 14.1300 6.3600 166.0152 0.0000 0.0000 0.0000
# 4 0.0000 0.0000 0.0000 42.8330 0.0000 0.0000
# 5 0.0000 0.0000 0.0000 0.0000 23.9443 0.0000
# 6 0.0000 0.0000 0.0000 0.0000 0.0000 -16.3513
#
#
#
# Elastic Compliance Matrix: (Units=1/GPa)
#
#
# Indices 1 2 3 4 5 6 
#
# 1 0.021119 -0.004386 -0.001629 0.000000 0.000000 0.000000
# 2 -0.004386 0.006957 0.000107 0.000000 0.000000 0.000000
# 3 -0.001629 0.000107 0.006158 0.000000 0.000000 0.000000
# 4 0.000000 0.000000 0.000000 0.023346 0.000000 0.000000
# 5 0.000000 0.000000 0.000000 0.000000 0.041764 0.000000
# 6 0.000000 0.000000 0.000000 0.000000 0.000000 -0.061157
#
#
# Mechanical properties :
#
#
# Convention : Reuss Voigt Hill
#
# Bulk Modulus (GPa) = 44.61043 55.34640 49.97842
# Shear Modulus (GPa) = 86.99101 32.21618 59.60359
#
# Velocity S-wave (km/s) = 5.95826 3.62593 4.93195
# Velocity P-wave (km/s) = 8.09567 6.33376 7.26830
#
# Compressibility (1/GPa) = 0.02241628
#
# Stress axis : x y z
#
# Youngs Moduli (GPa) = 47.35026 143.74292 162.38668
#
# Poissons Ratio (x) = 0.63050 0.26460
# Poissons Ratio (y) = 0.20769 -0.01734
# Poissons Ratio (z) = 0.07716 -0.01535
#
# Static dielectric constant tensor:
#      x y z
#    x 2.584410 0.000000 0.000000 
#    y 0.000000 2.031520 0.000000 
#    z 0.000000 0.000000 0.725110 
# 
# From -- ./inp_files/2637.got.cif
#   From: 2010.05.17/outbox.cif.g08.bks.cpg/sg64_2_cif.got.tgz:2637.got - 2010.06.03 16:29:19.
