data_PCOD9478945
_publ_section_title
;
Structure prediction by ZEFSAII (Michael W. Deem and Ramdas Pophale) SiO2 
 PCOD9478945
Probable space group: C M C A
;
_chemical_formula_sum "Si O2"
_cell_formula_units_Z 56
_cell_length_a 12.912509
_cell_length_b 12.983111
_cell_length_c 14.362946
_cell_angle_alpha 90.000000
_cell_angle_beta 90.000000
_cell_angle_gamma 90.000000
_cell_volume 2407.869441
_symmetry_space_group_name_H-M "C M C A"
_symmetry_group_IT_number 64
_symmetry_cell_setting 'orthorhombic'
loop_
_space_group_symop_operation_xyz
x,y,z
-x,1/2-y,1/2+z
x,-y,-z
-x,1/2+y,1/2-z
-x,-y,-z
x,1/2+y,1/2-z
-x,y,z
x,1/2-y,1/2+z
1/2+x,1/2+y,z
1/2-x,-y,1/2+z
1/2+x,1/2-y,-z
1/2-x,y,1/2-z
1/2-x,1/2-y,-z
1/2+x,y,1/2-z
1/2-x,1/2+y,z
1/2+x,-y,1/2+z
loop_
_atom_site_type_symbol
_atom_site_label
_atom_site_fract_x
_atom_site_fract_y
_atom_site_fract_z
Si Si1 0.342274 0.183693 0.121015
Si Si2 0.692081 0.594480 0.848295
Si Si3 0.844341 0.000000 0.500000
Si Si4 0.387272 0.871759 0.665452
O O1 0.362493 0.304441 0.111650
O O2 0.373918 0.156811 0.226348
O O3 0.215982 0.170982 0.115477
O O4 0.390463 0.098888 0.053147
O O5 0.750000 0.617574 0.750000
O O6 0.777869 0.555014 0.919875
O O7 0.619654 0.495523 0.837425
O O8 0.500000 0.836122 0.631580
#
# Coordination Sequence:
#
# PCOD9478945 Si02
#       4
#    16  16   8  16
#     4  10  20  38  59  88 120 152 198 244 292 346
#     4  11  19  38  61  87 118 155 194 237 297 349
#     4  10  20  36  62  88 116 158 192 248 290 350
#     4  10  20  36  61  87 115 154 197 240 290 349
#
# _framework density 23.257076000000001
#
# number of rings (size 3 to 8) (size 9 to 14) (size 15 to 20)
#    0.000    1.714    8.571    0.857    0.000    1.143 
#    0.000   12.143    0.000    6.857    0.000    0.000 
#    0.000    0.000    0.000    0.000    0.000    0.000 
#
# Total GULP energy -156282.185575 kJ/mol
# GULP energy per Si atom -5581.506628 kJ/mol
# Density = 2.320414 g / cm^3
# Si number density = 23.257076 Si / 1000 Ang^3
#
#
#
# Elastic Constant Matrix: (Units=GPa)
#
#
# Indices 1 2 3 4 5 6 
#
# 1 133.0635 0.0974 6.4321 0.0000 0.0000 0.0000
# 2 0.0974 148.3734 7.4697 0.0000 0.0000 0.0000
# 3 6.4321 7.4697 88.3292 0.0000 0.0000 0.0000
# 4 0.0000 0.0000 0.0000 7.5457 0.0000 0.0000
# 5 0.0000 0.0000 0.0000 0.0000 -9.6185 0.0000
# 6 0.0000 0.0000 0.0000 0.0000 0.0000 -47.4452
#
#
#
# Elastic Compliance Matrix: (Units=1/GPa)
#
#
# Indices 1 2 3 4 5 6 
#
# 1 0.007542 0.000023 -0.000551 0.000000 0.000000 0.000000
# 2 0.000023 0.006769 -0.000574 0.000000 0.000000 0.000000
# 3 -0.000551 -0.000574 0.011410 0.000000 0.000000 0.000000
# 4 0.000000 0.000000 0.000000 0.132526 0.000000 0.000000
# 5 0.000000 0.000000 0.000000 0.000000 -0.103966 0.000000
# 6 0.000000 0.000000 0.000000 0.000000 0.000000 -0.021077
#
#
# Mechanical properties :
#
#
# Convention : Reuss Voigt Hill
#
# Bulk Modulus (GPa) = 42.52486 44.19606 43.36046
# Shear Modulus (GPa) = 115.61624 13.81420 64.71522
#
# Velocity S-wave (km/s) = 7.05834 2.43981 5.28076
# Velocity P-wave (km/s) = 9.20605 5.19437 7.47438
#
# Compressibility (1/GPa) = 0.02351566
#
# Stress axis : x y z
#
# Youngs Moduli (GPa) = 132.59382 147.74018 87.64273
#
# Poissons Ratio (x) = -0.00337 0.04830
# Poissons Ratio (y) = -0.00302 0.05031
# Poissons Ratio (z) = 0.07308 0.08481
#
# Static dielectric constant tensor:
#      x y z
#    x 1.876220 0.000000 0.000000 
#    y 0.000000 1.880270 0.000000 
#    z 0.000000 0.000000 1.851160 
# 
# From -- ./inp_files/23156.got.cif
#   From: 2010.05.17/outbox.cif.g08.bks.cpg/sg64_12_cif.got.tgz:23156.got - 2010.06.03 16:29:19.
