data_PCOD9478630
_publ_section_title
;
Structure prediction by ZEFSAII (Michael W. Deem and Ramdas Pophale) SiO2 
 PCOD9478630
Probable space group: C M C A
;
_chemical_formula_sum "Si O2"
_cell_formula_units_Z 120
_cell_length_a 26.950595
_cell_length_b 25.297331
_cell_length_c 8.995308
_cell_angle_alpha 90.000000
_cell_angle_beta 90.000000
_cell_angle_gamma 90.000000
_cell_volume 6132.804198
_symmetry_space_group_name_H-M "C M C A"
_symmetry_group_IT_number 64
_symmetry_cell_setting 'orthorhombic'
loop_
_space_group_symop_operation_xyz
x,y,z
-x,1/2-y,1/2+z
x,-y,-z
-x,1/2+y,1/2-z
-x,-y,-z
x,1/2+y,1/2-z
-x,y,z
x,1/2-y,1/2+z
1/2+x,1/2+y,z
1/2-x,-y,1/2+z
1/2+x,1/2-y,-z
1/2-x,y,1/2-z
1/2-x,1/2-y,-z
1/2+x,y,1/2-z
1/2-x,1/2+y,z
1/2+x,-y,1/2+z
loop_
_atom_site_type_symbol
_atom_site_label
_atom_site_fract_x
_atom_site_fract_y
_atom_site_fract_z
Si Si1 0.442517 0.105615 0.177235
Si Si2 0.124222 0.940534 0.430211
Si Si3 0.820918 0.230865 0.508305
Si Si4 0.863709 0.681963 0.264752
Si Si5 0.395327 0.507847 0.170818
Si Si6 0.737885 0.442763 0.420955
Si Si7 0.300308 0.082277 0.335000
Si Si8 0.250000 0.220153 0.750000
O O1 0.500000 0.115565 0.152315
O O2 0.415795 0.151031 0.274624
O O3 0.433566 0.049551 0.259670
O O4 0.411858 0.096448 0.024205
O O5 0.181521 0.924015 0.443241
O O6 0.121906 0.000000 0.500000
O O7 0.108404 0.953388 0.261967
O O8 0.846975 0.277122 0.606571
O O9 0.861451 0.205018 0.401715
O O10 0.782111 0.248559 0.376211
O O11 0.791426 0.197009 0.635705
O O12 0.823206 0.635413 0.272488
O O13 0.341350 0.536827 0.180379
O O14 0.406490 0.500000 0.000000
O O15 0.741590 0.500000 0.500000
O O16 0.750000 0.446712 0.250000
O O17 0.781310 0.409244 0.497922
O O18 0.250000 0.069561 0.250000
#
# Coordination Sequence:
#
# PCOD9478630 Si02
#       8
#    16  16  16  16  16  16  16   8
#     4  10  22  41  61  81 106 144 193 248 299 341
#     4   9  18  33  53  80 112 152 195 224 270 342
#     4   9  18  36  58  82 115 147 184 223 276 345
#     4  10  22  39  59  81 113 146 188 244 288 340
#     4  10  20  35  56  81 115 150 191 237 282 336
#     4  11  19  31  51  79 117 161 195 226 273 337
#     4  11  21  32  51  80 117 158 189 227 275 334
#     4   8  16  30  56  86 106 148 172 210 256 340
#
# _framework density 19.566904999999998
#
# number of rings (size 3 to 8) (size 9 to 14) (size 15 to 20)
#    0.000    2.133    0.000    5.600    5.600    2.667 
#    1.200    7.333    0.000    0.000    0.000    0.000 
#    0.000    0.000    0.000    0.000    0.000    0.000 
#
# Total GULP energy -334382.665666 kJ/mol
# GULP energy per Si atom -5573.044428 kJ/mol
# Density = 1.952237 g / cm^3
# Si number density = 19.566905 Si / 1000 Ang^3
#
#
#
# Elastic Constant Matrix: (Units=GPa)
#
#
# Indices 1 2 3 4 5 6 
#
# 1 106.4594 28.7700 28.4049 0.0000 0.0000 0.0000
# 2 28.7700 55.2322 33.0367 0.0000 0.0000 0.0000
# 3 28.4049 33.0367 144.2667 0.0000 0.0000 0.0000
# 4 0.0000 0.0000 0.0000 9.6881 0.0000 0.0000
# 5 0.0000 0.0000 0.0000 0.0000 11.5386 0.0000
# 6 0.0000 0.0000 0.0000 0.0000 0.0000 -4.5907
#
#
#
# Elastic Compliance Matrix: (Units=1/GPa)
#
#
# Indices 1 2 3 4 5 6 
#
# 1 0.011054 -0.005163 -0.000994 0.000000 0.000000 0.000000
# 2 -0.005163 0.023391 -0.004340 0.000000 0.000000 0.000000
# 3 -0.000994 -0.004340 0.008121 0.000000 0.000000 0.000000
# 4 0.000000 0.000000 0.000000 0.103219 0.000000 0.000000
# 5 0.000000 0.000000 0.000000 0.000000 0.086666 0.000000
# 6 0.000000 0.000000 0.000000 0.000000 0.000000 -0.217832
#
#
# Mechanical properties :
#
#
# Convention : Reuss Voigt Hill
#
# Bulk Modulus (GPa) = 46.35759 54.04239 50.19999
# Shear Modulus (GPa) = 116.81483 17.71033 67.26258
#
# Velocity S-wave (km/s) = 7.73497 3.01178 5.86944
# Velocity P-wave (km/s) = 10.17430 6.30664 8.46434
#
# Compressibility (1/GPa) = 0.02157144
#
# Stress axis : x y z
#
# Youngs Moduli (GPa) = 90.46651 42.75203 123.13566
#
# Poissons Ratio (x) = 0.22074 0.12240
# Poissons Ratio (y) = 0.46710 0.53438
# Poissons Ratio (z) = 0.08993 0.18554
#
# Static dielectric constant tensor:
#      x y z
#    x 1.695210 0.000000 0.000000 
#    y 0.000000 1.747010 0.000000 
#    z 0.000000 0.000000 1.873770 
# 
# From -- ./inp_files/10720.got.cif
#   From: 2010.05.17/outbox.cif.g08.bks.cpg/sg64_6_cif.got.tgz:10720.got - 2010.06.03 16:29:19.
