data_PCOD9478855
_publ_section_title
;
Structure prediction by ZEFSAII (Michael W. Deem and Ramdas Pophale) SiO2 
 PCOD9478855
Probable space group: C M C A
;
_chemical_formula_sum "Si O2"
_cell_formula_units_Z 112
_cell_length_a 13.366591
_cell_length_b 12.693568
_cell_length_c 28.792769
_cell_angle_alpha 90.000000
_cell_angle_beta 90.000000
_cell_angle_gamma 90.000000
_cell_volume 4885.261394
_symmetry_space_group_name_H-M "C M C A"
_symmetry_group_IT_number 64
_symmetry_cell_setting 'orthorhombic'
loop_
_space_group_symop_operation_xyz
x,y,z
-x,1/2-y,1/2+z
x,-y,-z
-x,1/2+y,1/2-z
-x,-y,-z
x,1/2+y,1/2-z
-x,y,z
x,1/2-y,1/2+z
1/2+x,1/2+y,z
1/2-x,-y,1/2+z
1/2+x,1/2-y,-z
1/2-x,y,1/2-z
1/2-x,1/2-y,-z
1/2+x,y,1/2-z
1/2-x,1/2+y,z
1/2+x,-y,1/2+z
loop_
_atom_site_type_symbol
_atom_site_label
_atom_site_fract_x
_atom_site_fract_y
_atom_site_fract_z
Si Si1 0.120841 0.002294 0.425999
Si Si2 0.796581 0.369096 0.797499
Si Si3 0.614779 0.302558 0.854668
Si Si4 0.620300 0.259314 0.557672
Si Si5 0.620346 0.721576 0.542397
Si Si6 0.679311 0.420262 0.324772
Si Si7 0.385624 0.673803 0.843737
O O1 0.155705 0.119904 0.437071
O O2 0.000000 0.004998 0.429350
O O3 0.154065 0.900884 0.455867
O O4 0.151128 0.972637 0.373969
O O5 0.750000 0.326969 0.750000
O O6 0.701235 0.373055 0.832451
O O7 0.841981 0.484945 0.789665
O O8 0.874736 0.288946 0.820255
O O9 0.500000 0.340609 0.852603
O O10 0.642120 0.276414 0.908383
O O11 0.622848 0.191281 0.826611
O O12 0.500000 0.262916 0.559675
O O13 0.648690 0.223416 0.505959
O O14 0.645815 0.189288 0.602175
O O15 0.500000 0.716786 0.541802
O O16 0.796515 0.392202 0.321405
O O17 0.500000 0.636724 0.840428
#
# Coordination Sequence:
#
# PCOD9478855 Si02
#       7
#    16  16  16  16  16  16  16
#     4   9  15  27  51  83 116 151 189 230 271 321
#     4  11  24  41  60  82 110 144 188 241 295 348
#     4   9  20  39  61  86 117 150 187 235 285 340
#     4   9  15  27  53  84 115 153 190 228 272 327
#     4   8  14  26  51  85 116 149 189 228 275 328
#     4  10  20  36  58  82 116 149 185 232 287 336
#     4  10  22  39  60  86 118 151 188 233 284 342
#
# _framework density 22.926100999999999
#
# number of rings (size 3 to 8) (size 9 to 14) (size 15 to 20)
#    0.000    2.571    1.429    1.714    0.000    5.714 
#    0.000    6.429    0.000    0.000    0.000    4.000 
#    0.000    0.000    0.000    0.000    0.000    0.000 
#
# Total GULP energy -312397.339352 kJ/mol
# GULP energy per Si atom -5578.523917 kJ/mol
# Density = 2.287392 g / cm^3
# Si number density = 22.926101 Si / 1000 Ang^3
#
#
#
# Elastic Constant Matrix: (Units=GPa)
#
#
# Indices 1 2 3 4 5 6 
#
# 1 73.0685 -1.2972 -15.3585 0.0000 0.0000 0.0000
# 2 -1.2972 46.1526 -3.8413 0.0000 0.0000 0.0000
# 3 -15.3585 -3.8413 46.0872 0.0000 0.0000 0.0000
# 4 0.0000 0.0000 0.0000 8.9069 0.0000 0.0000
# 5 0.0000 0.0000 0.0000 0.0000 19.5952 0.0000
# 6 0.0000 0.0000 0.0000 0.0000 0.0000 16.2125
#
#
#
# Elastic Compliance Matrix: (Units=1/GPa)
#
#
# Indices 1 2 3 4 5 6 
#
# 1 0.014748 0.000829 0.004984 0.000000 0.000000 0.000000
# 2 0.000829 0.021865 0.002099 0.000000 0.000000 0.000000
# 3 0.004984 0.002099 0.023534 0.000000 0.000000 0.000000
# 4 0.000000 0.000000 0.000000 0.112272 0.000000 0.000000
# 5 0.000000 0.000000 0.000000 0.000000 0.051033 0.000000
# 6 0.000000 0.000000 0.000000 0.000000 0.000000 0.061681
#
#
# Mechanical properties :
#
#
# Convention : Reuss Voigt Hill
#
# Bulk Modulus (GPa) = 13.16287 13.81269 13.48778
# Shear Modulus (GPa) = 16.97030 21.32995 19.15013
#
# Velocity S-wave (km/s) = 2.72365 3.05352 2.89329
# Velocity P-wave (km/s) = 3.95536 4.29767 4.13006
#
# Compressibility (1/GPa) = 0.07597129
#
# Stress axis : x y z
#
# Youngs Moduli (GPa) = 67.80534 45.73469 42.49207
#
# Poissons Ratio (x) = -0.03793 -0.21178
# Poissons Ratio (y) = -0.05623 -0.08918
# Poissons Ratio (z) = -0.33794 -0.09599
#
# Static dielectric constant tensor:
#      x y z
#    x 1.855100 0.000000 0.000000 
#    y 0.000000 1.855950 0.000000 
#    z 0.000000 0.000000 1.900270 
# 
# From -- ./inp_files/53349.got.cif
#   From: 2010.05.17/outbox.cif.g08.bks.cpg/sg64_27_cif.got.tgz:53349.got - 2010.06.03 16:29:19.
