data_PCOD9478990
_publ_section_title
;
Structure prediction by ZEFSAII (Michael W. Deem and Ramdas Pophale) SiO2 
 PCOD9478990
Probable space group: C M C A
;
_chemical_formula_sum "Si O2"
_cell_formula_units_Z 96
_cell_length_a 22.885021
_cell_length_b 14.454771
_cell_length_c 14.487476
_cell_angle_alpha 90.000000
_cell_angle_beta 90.000000
_cell_angle_gamma 90.000000
_cell_volume 4792.424288
_symmetry_space_group_name_H-M "C M C A"
_symmetry_group_IT_number 64
_symmetry_cell_setting 'orthorhombic'
loop_
_space_group_symop_operation_xyz
x,y,z
-x,1/2-y,1/2+z
x,-y,-z
-x,1/2+y,1/2-z
-x,-y,-z
x,1/2+y,1/2-z
-x,y,z
x,1/2-y,1/2+z
1/2+x,1/2+y,z
1/2-x,-y,1/2+z
1/2+x,1/2-y,-z
1/2-x,y,1/2-z
1/2-x,1/2-y,-z
1/2+x,y,1/2-z
1/2-x,1/2+y,z
1/2+x,-y,1/2+z
loop_
_atom_site_type_symbol
_atom_site_label
_atom_site_fract_x
_atom_site_fract_y
_atom_site_fract_z
Si Si1 0.438660 0.428804 0.416372
Si Si2 0.614672 0.232203 0.016379
Si Si3 0.819602 0.346262 0.814981
Si Si4 0.570594 0.930032 0.412713
Si Si5 0.342243 0.048381 0.764906
Si Si6 0.801858 0.762154 0.346689
O O1 0.435413 0.500000 0.500000
O O2 0.500000 0.438702 0.367867
O O3 0.430813 0.327362 0.458047
O O4 0.390125 0.449207 0.344041
O O5 0.635755 0.170807 0.102733
O O6 0.588156 0.328042 0.050830
O O7 0.670415 0.240803 0.947771
O O8 0.810104 0.451665 0.785178
O O9 0.842397 0.297007 0.722355
O O10 0.760653 0.290037 0.843857
O O11 0.500000 0.933146 0.387018
O O12 0.619789 0.948198 0.331011
O O13 0.578002 0.000000 0.500000
O O14 0.303737 0.137051 0.797753
#
# Coordination Sequence:
#
# PCOD9478990 Si02
#       6
#    16  16  16  16  16  16
#     4  10  20  36  63  96 124 159 208 262 320 378
#     4  11  21  42  63  92 128 167 208 268 320 380
#     4  11  22  41  63  94 125 168 216 262 319 380
#     4  11  24  43  67  95 131 173 213 259 324 391
#     4  11  22  42  66  92 131 168 211 271 315 377
#     4  10  24  39  64  91 127 167 216 261 318 383
#
# _framework density 20.031614000000001
#
# number of rings (size 3 to 8) (size 9 to 14) (size 15 to 20)
#    0.000    1.333    3.333    2.500    0.000    2.667 
#    3.000    0.000    0.000    0.000    0.000    0.000 
#    0.000    0.000    0.000    0.000    0.000    0.000 
#
# Total GULP energy -267236.958149 kJ/mol
# GULP energy per Si atom -5567.436628 kJ/mol
# Density = 1.998602 g / cm^3
# Si number density = 20.031614 Si / 1000 Ang^3
#
#
#
# Elastic Constant Matrix: (Units=GPa)
#
#
# Indices 1 2 3 4 5 6 
#
# 1 96.1954 43.4569 26.3683 0.0000 0.0000 0.0000
# 2 43.4569 162.5032 34.2874 0.0000 0.0000 0.0000
# 3 26.3683 34.2874 84.6576 0.0000 0.0000 0.0000
# 4 0.0000 0.0000 0.0000 30.7028 0.0000 0.0000
# 5 0.0000 0.0000 0.0000 0.0000 7.2478 0.0000
# 6 0.0000 0.0000 0.0000 0.0000 0.0000 -1.2744
#
#
#
# Elastic Compliance Matrix: (Units=1/GPa)
#
#
# Indices 1 2 3 4 5 6 
#
# 1 0.012383 -0.002731 -0.002751 0.000000 0.000000 0.000000
# 2 -0.002731 0.007331 -0.002119 0.000000 0.000000 0.000000
# 3 -0.002751 -0.002119 0.013527 0.000000 0.000000 0.000000
# 4 0.000000 0.000000 0.000000 0.032570 0.000000 0.000000
# 5 0.000000 0.000000 0.000000 0.000000 0.137973 0.000000
# 6 0.000000 0.000000 0.000000 0.000000 0.000000 -0.784665
#
#
# Mechanical properties :
#
#
# Convention : Reuss Voigt Hill
#
# Bulk Modulus (GPa) = 55.43093 61.28681 58.35887
# Shear Modulus (GPa) = -8.93391 23.28480 7.17544
#
# Velocity S-wave (km/s) = -2.11414 3.41310 1.89469
# Velocity P-wave (km/s) = 4.66608 6.79660 5.82950
#
# Compressibility (1/GPa) = 0.01804047
#
# Stress axis : x y z
#
# Youngs Moduli (GPa) = 80.75345 136.40535 73.92553
#
# Poissons Ratio (x) = 0.37254 0.20336
# Poissons Ratio (y) = 0.22055 0.15661
# Poissons Ratio (z) = 0.22214 0.28898
#
# Static dielectric constant tensor:
#      x y z
#    x 1.752670 0.000000 0.000000 
#    y 0.000000 1.773110 0.000000 
#    z 0.000000 0.000000 1.705810 
# 
# From -- ./inp_files/26333.got.cif
#   From: 2010.05.17/outbox.cif.g08.bks.cpg/sg64_14_cif.got.tgz:26333.got - 2010.06.03 16:29:19.
