data_PCOD9478035
_publ_section_title
;
Structure prediction by ZEFSAII (Michael W. Deem and Ramdas Pophale) SiO2 
 PCOD9478035
Probable space group: C M C A
;
_chemical_formula_sum "Si O2"
_cell_formula_units_Z 112
_cell_length_a 15.562444
_cell_length_b 14.172629
_cell_length_c 23.810381
_cell_angle_alpha 90.000000
_cell_angle_beta 90.000000
_cell_angle_gamma 90.000000
_cell_volume 5251.635376
_symmetry_space_group_name_H-M "C M C A"
_symmetry_group_IT_number 64
_symmetry_cell_setting 'orthorhombic'
loop_
_space_group_symop_operation_xyz
x,y,z
-x,1/2-y,1/2+z
x,-y,-z
-x,1/2+y,1/2-z
-x,-y,-z
x,1/2+y,1/2-z
-x,y,z
x,1/2-y,1/2+z
1/2+x,1/2+y,z
1/2-x,-y,1/2+z
1/2+x,1/2-y,-z
1/2-x,y,1/2-z
1/2-x,1/2-y,-z
1/2+x,y,1/2-z
1/2-x,1/2+y,z
1/2+x,-y,1/2+z
loop_
_atom_site_type_symbol
_atom_site_label
_atom_site_fract_x
_atom_site_fract_y
_atom_site_fract_z
Si Si1 0.402448 0.889407 0.772278
Si Si2 0.896548 0.395463 0.218175
Si Si3 0.603487 0.392051 0.502570
Si Si4 0.098975 0.294073 0.109106
Si Si5 0.154488 0.204373 0.381485
Si Si6 0.394578 0.600004 0.846454
Si Si7 0.335830 0.114320 0.348897
O O1 0.500000 0.893100 0.749972
O O2 0.399682 0.823221 0.825991
O O3 0.346539 0.866706 0.717897
O O4 0.379730 0.994402 0.792802
O O5 0.860589 0.336821 0.166115
O O6 0.867996 0.376948 0.281669
O O7 0.000000 0.380675 0.220048
O O8 0.635079 0.500000 0.500000
O O9 0.500000 0.395371 0.499583
O O10 0.636726 0.333811 0.448559
O O11 0.624103 0.341800 0.560890
O O12 0.101233 0.182330 0.116439
O O13 0.000000 0.326088 0.109497
O O14 0.145822 0.317347 0.384020
O O15 0.244779 0.154930 0.367974
O O16 0.500000 0.598750 0.850182
O O17 0.357816 0.495326 0.857956
#
# Coordination Sequence:
#
# PCOD9478035 Si02
#       7
#    16  16  16  16  16  16  16
#     4  10  19  36  61  89 124 166 209 253 310 382
#     4   8  16  31  58  90 115 149 200 254 300 352
#     4  10  22  40  63  90 119 157 209 261 307 367
#     4  10  19  36  61  86 117 163 216 261 306 367
#     4  12  24  38  60  91 126 163 206 259 319 372
#     4  10  21  40  64  91 127 169 208 248 308 386
#     4  11  24  39  59  91 125 158 204 262 319 372
#
# _framework density 21.326688999999998
#
# number of rings (size 3 to 8) (size 9 to 14) (size 15 to 20)
#    0.000    1.857    0.000    5.571    0.000    6.286 
#    0.000    3.571    0.000    2.571    0.000    0.000 
#    0.000    0.000    0.000    0.000    0.000    0.000 
#
# Total GULP energy -312626.257503 kJ/mol
# GULP energy per Si atom -5582.611741 kJ/mol
# Density = 2.127815 g / cm^3
# Si number density = 21.326689 Si / 1000 Ang^3
#
#
#
# Elastic Constant Matrix: (Units=GPa)
#
#
# Indices 1 2 3 4 5 6 
#
# 1 58.7253 26.7444 14.0863 0.0000 0.0000 0.0000
# 2 26.7444 168.7100 113.3612 0.0000 0.0000 0.0000
# 3 14.0863 113.3612 97.6836 0.0000 0.0000 0.0000
# 4 0.0000 0.0000 0.0000 27.7687 0.0000 0.0000
# 5 0.0000 0.0000 0.0000 0.0000 25.3332 0.0000
# 6 0.0000 0.0000 0.0000 0.0000 0.0000 20.4082
#
#
#
# Elastic Compliance Matrix: (Units=1/GPa)
#
#
# Indices 1 2 3 4 5 6 
#
# 1 0.018593 -0.005203 0.003357 0.000000 0.000000 0.000000
# 2 -0.005203 0.028370 -0.032173 0.000000 0.000000 0.000000
# 3 0.003357 -0.032173 0.047090 0.000000 0.000000 0.000000
# 4 0.000000 0.000000 0.000000 0.036012 0.000000 0.000000
# 5 0.000000 0.000000 0.000000 0.000000 0.039474 0.000000
# 6 0.000000 0.000000 0.000000 0.000000 0.000000 0.049000
#
#
# Mechanical properties :
#
#
# Convention : Reuss Voigt Hill
#
# Bulk Modulus (GPa) = 38.44054 70.38918 54.41486
# Shear Modulus (GPa) = 16.93492 26.09715 21.51604
#
# Velocity S-wave (km/s) = 2.82099 3.50192 3.17973
# Velocity P-wave (km/s) = 5.35484 7.03051 6.24910
#
# Compressibility (1/GPa) = 0.02601420
#
# Stress axis : x y z
#
# Youngs Moduli (GPa) = 53.78448 35.24836 21.23608
#
# Poissons Ratio (x) = 0.18339 -0.07128
# Poissons Ratio (y) = 0.27983 0.68323
# Poissons Ratio (z) = -0.18054 1.13405
#
# Static dielectric constant tensor:
#      x y z
#    x 1.868790 0.000000 0.000000 
#    y 0.000000 1.796660 0.000000 
#    z 0.000000 0.000000 1.747960 
# 
# From -- ./inp_files/45288.got.cif
#   From: 2010.05.17/outbox.cif.g08.bks.cpg/sg64_23_cif.got.tgz:45288.got - 2010.06.03 16:29:19.
