data_PCOD9478663
_publ_section_title
;
Structure prediction by ZEFSAII (Michael W. Deem and Ramdas Pophale) SiO2 
 PCOD9478663
Probable space group: C M C A
;
_chemical_formula_sum "Si O2"
_cell_formula_units_Z 64
_cell_length_a 24.647144
_cell_length_b 15.536111
_cell_length_c 7.216481
_cell_angle_alpha 90.000000
_cell_angle_beta 90.000000
_cell_angle_gamma 90.000000
_cell_volume 2763.340425
_symmetry_space_group_name_H-M "C M C A"
_symmetry_group_IT_number 64
_symmetry_cell_setting 'orthorhombic'
loop_
_space_group_symop_operation_xyz
x,y,z
-x,1/2-y,1/2+z
x,-y,-z
-x,1/2+y,1/2-z
-x,-y,-z
x,1/2+y,1/2-z
-x,y,z
x,1/2-y,1/2+z
1/2+x,1/2+y,z
1/2-x,-y,1/2+z
1/2+x,1/2-y,-z
1/2-x,y,1/2-z
1/2-x,1/2-y,-z
1/2+x,y,1/2-z
1/2-x,1/2+y,z
1/2+x,-y,1/2+z
loop_
_atom_site_type_symbol
_atom_site_label
_atom_site_fract_x
_atom_site_fract_y
_atom_site_fract_z
Si Si1 0.500000 0.568771 0.223610
Si Si2 0.115959 0.182885 0.619097
Si Si3 0.000000 0.373428 0.157013
Si Si4 0.313267 0.971643 0.214357
Si Si5 0.382731 0.872420 0.690939
O O1 0.500000 0.602952 0.437172
O O2 0.500000 0.465462 0.241471
O O3 0.556284 0.600357 0.134768
O O4 0.054679 0.178657 0.696812
O O5 0.114108 0.146832 0.411204
O O6 0.134664 0.281006 0.609717
O O7 0.153191 0.116687 0.732508
O O8 0.250000 0.960123 0.250000
O O9 0.340790 0.049493 0.327884
O O10 0.318227 0.000000 0.000000
#
# Coordination Sequence:
#
# PCOD9478663 Si02
#       5
#     8  16   8  16  16
#     4   9  15  30  57  82 107 140 175 213 262 322
#     4  10  20  35  57  83 109 140 177 218 267 320
#     4   9  15  30  57  82 107 140 175 213 262 322
#     4  10  22  39  57  77 105 144 185 222 264 314
#     4  10  20  35  57  83 109 140 177 218 267 320
#
# _framework density 23.160374000000001
#
# number of rings (size 3 to 8) (size 9 to 14) (size 15 to 20)
#    0.000    2.250    2.500    0.750    0.000    3.000 
#    0.000    5.000    0.000    1.500    0.000    0.000 
#    0.000    0.000    0.000    0.000    0.000    0.000 
#
# Total GULP energy -179063.993333 kJ/mol
# GULP energy per Si atom -5595.749792 kJ/mol
# Density = 2.310766 g / cm^3
# Si number density = 23.160374 Si / 1000 Ang^3
#
#
#
# Elastic Constant Matrix: (Units=GPa)
#
#
# Indices 1 2 3 4 5 6 
#
# 1 173.1044 87.1574 18.4482 0.0000 0.0000 0.0000
# 2 87.1574 155.4539 35.3523 0.0000 0.0000 0.0000
# 3 18.4482 35.3523 46.8262 0.0000 0.0000 0.0000
# 4 0.0000 0.0000 0.0000 31.7782 0.0000 0.0000
# 5 0.0000 0.0000 0.0000 0.0000 9.6118 0.0000
# 6 0.0000 0.0000 0.0000 0.0000 0.0000 -0.0317
#
#
#
# Elastic Compliance Matrix: (Units=1/GPa)
#
#
# Indices 1 2 3 4 5 6 
#
# 1 0.008052 -0.004579 0.000285 0.000000 0.000000 0.000000
# 2 -0.004579 0.010370 -0.006025 0.000000 0.000000 0.000000
# 3 0.000285 -0.006025 0.025792 0.000000 0.000000 0.000000
# 4 0.000000 0.000000 0.000000 0.031468 0.000000 0.000000
# 5 0.000000 0.000000 0.000000 0.000000 0.104038 0.000000
# 6 0.000000 0.000000 0.000000 0.000000 0.000000-31.569697
#
#
# Mechanical properties :
#
#
# Convention : Reuss Voigt Hill
#
# Bulk Modulus (GPa) = 42.41692 73.03338 57.72515
# Shear Modulus (GPa) = -0.15943 23.90011 11.87034
#
# Velocity S-wave (km/s) = -0.26265 3.21587 2.26636
# Velocity P-wave (km/s) = 4.27343 6.73731 5.64152
#
# Compressibility (1/GPa) = 0.02357550
#
# Stress axis : x y z
#
# Youngs Moduli (GPa) = 124.18978 96.42747 38.77145
#
# Poissons Ratio (x) = 0.44158 -0.01105
# Poissons Ratio (y) = 0.56871 0.23361
# Poissons Ratio (z) = -0.03539 0.58100
#
# Static dielectric constant tensor:
#      x y z
#    x 1.809080 0.000000 0.000000 
#    y 0.000000 1.832420 0.000000 
#    z 0.000000 0.000000 1.975710 
# 
# From -- ./inp_files/8987.got.cif
#   From: 2010.05.17/outbox.cif.g08.bks.cpg/sg64_5_cif.got.tgz:8987.got - 2010.06.03 16:29:19.
