data_PCOD9478537
_publ_section_title
;
Structure prediction by ZEFSAII (Michael W. Deem and Ramdas Pophale) SiO2 
 PCOD9478537
Probable space group: C M C A
;
_chemical_formula_sum "Si O2"
_cell_formula_units_Z 104
_cell_length_a 23.471396
_cell_length_b 9.032406
_cell_length_c 20.103342
_cell_angle_alpha 90.000000
_cell_angle_beta 90.000000
_cell_angle_gamma 90.000000
_cell_volume 4261.972394
_symmetry_space_group_name_H-M "C M C A"
_symmetry_group_IT_number 64
_symmetry_cell_setting 'orthorhombic'
loop_
_space_group_symop_operation_xyz
x,y,z
-x,1/2-y,1/2+z
x,-y,-z
-x,1/2+y,1/2-z
-x,-y,-z
x,1/2+y,1/2-z
-x,y,z
x,1/2-y,1/2+z
1/2+x,1/2+y,z
1/2-x,-y,1/2+z
1/2+x,1/2-y,-z
1/2-x,y,1/2-z
1/2-x,1/2-y,-z
1/2+x,y,1/2-z
1/2-x,1/2+y,z
1/2+x,-y,1/2+z
loop_
_atom_site_type_symbol
_atom_site_label
_atom_site_fract_x
_atom_site_fract_y
_atom_site_fract_z
Si Si1 0.300942 0.416885 0.200622
Si Si2 0.916058 0.333471 0.240074
Si Si3 0.117951 0.845118 0.873183
Si Si4 0.439521 0.386720 0.655361
Si Si5 0.158545 0.528132 0.925244
Si Si6 0.226909 0.155569 0.937064
Si Si7 0.379183 0.000000 0.500000
O O1 0.250000 0.462793 0.250000
O O2 0.348298 0.344549 0.247971
O O3 0.335467 0.548816 0.162652
O O4 0.281435 0.305764 0.141149
O O5 0.925236 0.214335 0.181885
O O6 0.938156 0.271474 0.309280
O O7 0.937874 0.487849 0.212732
O O8 0.146772 0.695157 0.901168
O O9 0.090909 0.923644 0.937705
O O10 0.500000 0.404046 0.618335
O O11 0.381397 0.420564 0.616902
O O12 0.227220 0.521374 0.926288
O O13 0.139843 0.500000 0.000000
O O14 0.164968 0.111517 0.964106
O O15 0.250000 0.250000 0.000000
#
# Coordination Sequence:
#
# PCOD9478537 Si02
#       7
#    16  16  16  16  16  16   8
#     4  11  24  39  64 100 146 185 226 280 344 422
#     4  11  23  45  68 103 136 177 233 287 358 419
#     4  10  22  39  60  95 134 181 225 275 332 413
#     4  11  25  46  73  99 130 175 234 304 366 419
#     4  11  24  41  65  96 133 178 232 288 344 413
#     4  11  22  36  59  94 135 184 221 264 333 416
#     4  10  20  34  58  86 132 178 218 254 320 404
#
# _framework density 24.401848999999999
#
# number of rings (size 3 to 8) (size 9 to 14) (size 15 to 20)
#    0.000    1.231    3.846    2.308    2.154    2.154 
#    0.000    0.000    0.000    0.000    0.000    3.769 
#    0.000    0.000    0.000    0.000    0.000    0.000 
#
# Total GULP energy -290148.381847 kJ/mol
# GULP energy per Si atom -5579.776574 kJ/mol
# Density = 2.434631 g / cm^3
# Si number density = 24.401849 Si / 1000 Ang^3
#
#
#
# Elastic Constant Matrix: (Units=GPa)
#
#
# Indices 1 2 3 4 5 6 
#
# 1 73.3774 3.4302 12.7600 0.0000 0.0000 0.0000
# 2 3.4302 51.0840 31.3996 0.0000 0.0000 0.0000
# 3 12.7600 31.3996 131.3435 0.0000 0.0000 0.0000
# 4 0.0000 0.0000 0.0000 55.3351 0.0000 0.0000
# 5 0.0000 0.0000 0.0000 0.0000 -25.9510 0.0000
# 6 0.0000 0.0000 0.0000 0.0000 0.0000 -71.0540
#
#
#
# Elastic Compliance Matrix: (Units=1/GPa)
#
#
# Indices 1 2 3 4 5 6 
#
# 1 0.013863 -0.000121 -0.001318 0.000000 0.000000 0.000000
# 2 -0.000121 0.022949 -0.005474 0.000000 0.000000 0.000000
# 3 -0.001318 -0.005474 0.009050 0.000000 0.000000 0.000000
# 4 0.000000 0.000000 0.000000 0.018072 0.000000 0.000000
# 5 0.000000 0.000000 0.000000 0.000000 -0.038534 0.000000
# 6 0.000000 0.000000 0.000000 0.000000 0.000000 -0.014074
#
#
# Mechanical properties :
#
#
# Convention : Reuss Voigt Hill
#
# Bulk Modulus (GPa) = 31.21517 38.99827 35.10672
# Shear Modulus (GPa) = 139.54490 5.54704 72.54597
#
# Velocity S-wave (km/s) = 7.57036 1.50935 5.45841
# Velocity P-wave (km/s) = 9.44636 4.36508 7.35825
#
# Compressibility (1/GPa) = 0.03203570
#
# Stress axis : x y z
#
# Youngs Moduli (GPa) = 72.13451 43.57551 110.49218
#
# Poissons Ratio (x) = 0.00526 0.14562
# Poissons Ratio (y) = 0.00871 0.60489
# Poissons Ratio (z) = 0.09507 0.23855
#
# Static dielectric constant tensor:
#      x y z
#    x 2.021030 0.000000 0.000000 
#    y 0.000000 2.037450 0.000000 
#    z 0.000000 0.000000 1.969280 
# 
# From -- ./inp_files/42065.got.cif
#   From: 2010.05.17/outbox.cif.g08.bks.cpg/sg64_22_cif.got.tgz:42065.got - 2010.06.03 16:29:19.
