data_PCOD9478326
_publ_section_title
;
Structure prediction by ZEFSAII (Michael W. Deem and Ramdas Pophale) SiO2 
 PCOD9478326
Probable space group: C M C A
;
_chemical_formula_sum "Si O2"
_cell_formula_units_Z 116
_cell_length_a 9.411039
_cell_length_b 23.298566
_cell_length_c 27.858172
_cell_angle_alpha 90.000000
_cell_angle_beta 90.000000
_cell_angle_gamma 90.000000
_cell_volume 6108.286238
_symmetry_space_group_name_H-M "C M C A"
_symmetry_group_IT_number 64
_symmetry_cell_setting 'orthorhombic'
loop_
_space_group_symop_operation_xyz
x,y,z
-x,1/2-y,1/2+z
x,-y,-z
-x,1/2+y,1/2-z
-x,-y,-z
x,1/2+y,1/2-z
-x,y,z
x,1/2-y,1/2+z
1/2+x,1/2+y,z
1/2-x,-y,1/2+z
1/2+x,1/2-y,-z
1/2-x,y,1/2-z
1/2-x,1/2-y,-z
1/2+x,y,1/2-z
1/2-x,1/2+y,z
1/2+x,-y,1/2+z
loop_
_atom_site_type_symbol
_atom_site_label
_atom_site_fract_x
_atom_site_fract_y
_atom_site_fract_z
Si Si1 0.262536 0.585175 0.981362
Si Si2 0.160529 0.462755 0.379305
Si Si3 0.000000 0.000000 0.500000
Si Si4 0.340709 0.865051 0.160921
Si Si5 0.162862 0.299438 0.057812
Si Si6 0.328726 0.299546 0.605864
Si Si7 0.838415 0.414034 0.587398
Si Si8 0.327104 0.254844 0.798326
O O1 0.122340 0.546765 0.984726
O O2 0.222916 0.652473 0.977735
O O3 0.343884 0.574076 0.030556
O O4 0.336783 0.566289 0.932147
O O5 0.245721 0.420820 0.344685
O O6 0.212879 0.527760 0.386749
O O7 0.000000 0.466627 0.362467
O O8 0.500000 0.883352 0.172134
O O9 0.299809 0.813594 0.196113
O O10 0.342185 0.833445 0.108848
O O11 0.235149 0.254489 0.932924
O O12 0.000000 0.282527 0.046236
O O13 0.500000 0.295862 0.608267
O O14 0.272370 0.363023 0.594658
O O15 0.251276 0.282741 0.655948
O O16 0.000000 0.399367 0.603237
O O17 0.500000 0.263230 0.799341
O O18 0.250000 0.275303 0.750000
#
# Coordination Sequence:
#
# PCOD9478326 Si02
#       8
#    16  16   4  16  16  16  16  16
#     4  11  21  32  55  75 107 142 190 234 279 323
#     4  10  20  33  52  78 107 141 183 227 273 318
#     4  12  20  32  50  84 104 136 190 244 270 336
#     4   8  17  31  53  81 109 138 167 209 261 314
#     4   9  18  34  52  73 104 142 179 226 276 316
#     4  11  24  38  56  80 107 143 187 228 274 327
#     4  11  23  37  52  73 109 149 189 234 277 321
#     4  10  20  38  63  89 114 138 169 210 263 322
#
# _framework density 18.990597000000001
#
# number of rings (size 3 to 8) (size 9 to 14) (size 15 to 20)
#    0.000    1.931    2.069    2.897    1.931    8.276 
#    0.000    0.000    0.000    0.828    0.000    1.931 
#    0.000    0.000    0.000    0.000    0.000    0.000 
#
# Total GULP energy -322968.051746 kJ/mol
# GULP energy per Si atom -5568.414685 kJ/mol
# Density = 1.894737 g / cm^3
# Si number density = 18.990597 Si / 1000 Ang^3
#
#
#
# Elastic Constant Matrix: (Units=GPa)
#
#
# Indices 1 2 3 4 5 6 
#
# 1 97.2313 49.0762 5.8086 0.0000 0.0000 0.0000
# 2 49.0762 99.9677 3.3437 0.0000 0.0000 0.0000
# 3 5.8086 3.3437 24.6570 0.0000 0.0000 0.0000
# 4 0.0000 0.0000 0.0000 13.9985 0.0000 0.0000
# 5 0.0000 0.0000 0.0000 0.0000 35.7512 0.0000
# 6 0.0000 0.0000 0.0000 0.0000 0.0000 33.6409
#
#
#
# Elastic Compliance Matrix: (Units=1/GPa)
#
#
# Indices 1 2 3 4 5 6 
#
# 1 0.013806 -0.006699 -0.002344 0.000000 0.000000 0.000000
# 2 -0.006699 0.013300 -0.000225 0.000000 0.000000 0.000000
# 3 -0.002344 -0.000225 0.041139 0.000000 0.000000 0.000000
# 4 0.000000 0.000000 0.000000 0.071436 0.000000 0.000000
# 5 0.000000 0.000000 0.000000 0.000000 0.027971 0.000000
# 6 0.000000 0.000000 0.000000 0.000000 0.000000 0.029726
#
#
# Mechanical properties :
#
#
# Convention : Reuss Voigt Hill
#
# Bulk Modulus (GPa) = 20.11760 37.59032 28.85396
# Shear Modulus (GPa) = 21.50681 27.58662 24.54672
#
# Velocity S-wave (km/s) = 3.36891 3.81549 3.59914
# Velocity P-wave (km/s) = 5.07437 6.26481 5.70075
#
# Compressibility (1/GPa) = 0.04970771
#
# Stress axis : x y z
#
# Youngs Moduli (GPa) = 72.43135 75.19015 24.30778
#
# Poissons Ratio (x) = 0.50372 0.05698
# Poissons Ratio (y) = 0.48524 0.00548
# Poissons Ratio (z) = 0.16977 0.01694
#
# Static dielectric constant tensor:
#      x y z
#    x 1.662540 0.000000 0.000000 
#    y 0.000000 1.680890 0.000000 
#    z 0.000000 0.000000 1.692460 
# 
# From -- ./inp_files/43372.got.cif
#   From: 2010.05.17/outbox.cif.g08.bks.cpg/sg64_22_cif.got.tgz:43372.got - 2010.06.03 16:29:19.
