data_PCOD9478088
_publ_section_title
;
Structure prediction by ZEFSAII (Michael W. Deem and Ramdas Pophale) SiO2 
 PCOD9478088
Probable space group: C M C A
;
_chemical_formula_sum "Si O2"
_cell_formula_units_Z 88
_cell_length_a 26.473272
_cell_length_b 13.937482
_cell_length_c 10.340484
_cell_angle_alpha 90.000000
_cell_angle_beta 90.000000
_cell_angle_gamma 90.000000
_cell_volume 3815.336157
_symmetry_space_group_name_H-M "C M C A"
_symmetry_group_IT_number 64
_symmetry_cell_setting 'orthorhombic'
loop_
_space_group_symop_operation_xyz
x,y,z
-x,1/2-y,1/2+z
x,-y,-z
-x,1/2+y,1/2-z
-x,-y,-z
x,1/2+y,1/2-z
-x,y,z
x,1/2-y,1/2+z
1/2+x,1/2+y,z
1/2-x,-y,1/2+z
1/2+x,1/2-y,-z
1/2-x,y,1/2-z
1/2-x,1/2-y,-z
1/2+x,y,1/2-z
1/2-x,1/2+y,z
1/2+x,-y,1/2+z
loop_
_atom_site_type_symbol
_atom_site_label
_atom_site_fract_x
_atom_site_fract_y
_atom_site_fract_z
Si Si1 0.119184 0.077732 0.603291
Si Si2 0.559000 0.124833 0.370015
Si Si3 0.338568 0.404552 0.762967
Si Si4 0.556995 0.608441 0.841864
Si Si5 0.287051 0.837255 0.981402
Si Si6 0.783689 0.000000 0.000000
O O1 0.083125 0.128004 0.705810
O O2 0.156704 0.154020 0.539284
O O3 0.095898 0.000000 0.500000
O O4 0.151352 0.003983 0.689036
O O5 0.500000 0.155466 0.347045
O O6 0.607324 0.148485 0.280495
O O7 0.574613 0.146849 0.518738
O O8 0.557279 0.008009 0.356388
O O9 0.299013 0.351154 0.671051
O O10 0.316781 0.439664 0.899550
O O11 0.500000 0.641584 0.831686
O O12 0.250000 0.750000 0.000000
O O13 0.255640 0.921835 0.051680
#
# Coordination Sequence:
#
# PCOD9478088 Si02
#       6
#    16  16  16  16  16   8
#     4   9  17  32  52  78 118 169 211 257 320 385
#     4   8  14  27  53  90 124 154 205 263 319 396
#     4  10  19  37  62  89 122 170 214 267 336 380
#     4   8  13  23  45  84 124 159 202 257 319 390
#     4  11  24  41  58  87 129 176 223 274 327 397
#     4  12  22  42  63  88 121 174 224 276 324 382
#
# _framework density 23.064810000000001
#
# number of rings (size 3 to 8) (size 9 to 14) (size 15 to 20)
#    0.000    2.545    2.727    3.818    0.000    0.364 
#    6.545    2.727    0.000    0.000    0.000    5.091 
#    0.000    0.000    0.000    0.000    0.000    1.455 
#
# Total GULP energy -245035.770694 kJ/mol
# GULP energy per Si atom -5568.994789 kJ/mol
# Density = 2.301231 g / cm^3
# Si number density = 23.064810 Si / 1000 Ang^3
#
#
#
# Elastic Constant Matrix: (Units=GPa)
#
#
# Indices 1 2 3 4 5 6 
#
# 1 120.6486 27.8810 81.6506 0.0000 0.0000 0.0000
# 2 27.8810 51.6178 6.8013 0.0000 0.0000 0.0000
# 3 81.6506 6.8013 121.1268 0.0000 0.0000 0.0000
# 4 0.0000 0.0000 0.0000 13.7638 0.0000 0.0000
# 5 0.0000 0.0000 0.0000 0.0000 206.5809 0.0000
# 6 0.0000 0.0000 0.0000 0.0000 0.0000 6.7934
#
#
#
# Elastic Compliance Matrix: (Units=1/GPa)
#
#
# Indices 1 2 3 4 5 6 
#
# 1 0.018177 -0.008265 -0.011789 0.000000 0.000000 0.000000
# 2 -0.008265 0.023275 0.004264 0.000000 0.000000 0.000000
# 3 -0.011789 0.004264 0.015963 0.000000 0.000000 0.000000
# 4 0.000000 0.000000 0.000000 0.072654 0.000000 0.000000
# 5 0.000000 0.000000 0.000000 0.000000 0.004841 0.000000
# 6 0.000000 0.000000 0.000000 0.000000 0.000000 0.147203
#
#
# Mechanical properties :
#
#
# Convention : Reuss Voigt Hill
#
# Bulk Modulus (GPa) = 38.70441 58.45100 48.57771
# Shear Modulus (GPa) = 15.51336 57.23164 36.37250
#
# Velocity S-wave (km/s) = 2.59626 4.98671 3.97542
# Velocity P-wave (km/s) = 5.07982 7.65202 6.49454
#
# Compressibility (1/GPa) = 0.02583685
#
# Stress axis : x y z
#
# Youngs Moduli (GPa) = 55.01607 42.96383 62.64505
#
# Poissons Ratio (x) = 0.35508 0.73850
# Poissons Ratio (y) = 0.45469 -0.26713
# Poissons Ratio (z) = 0.64856 -0.18321
#
# Static dielectric constant tensor:
#      x y z
#    x 1.893650 0.000000 0.000000 
#    y 0.000000 1.953110 0.000000 
#    z 0.000000 0.000000 1.924590 
# 
# From -- ./inp_files/18188.got.cif
#   From: 2010.05.17/outbox.cif.g08.bks.cpg/sg64_10_cif.got.tgz:18188.got - 2010.06.03 16:29:19.
