data_PCOD9478927
_publ_section_title
;
Structure prediction by ZEFSAII (Michael W. Deem and Ramdas Pophale) SiO2 
 PCOD9478927
Probable space group: C M C A
;
_chemical_formula_sum "Si O2"
_cell_formula_units_Z 96
_cell_length_a 22.900592
_cell_length_b 12.790527
_cell_length_c 15.935360
_cell_angle_alpha 90.000000
_cell_angle_beta 90.000000
_cell_angle_gamma 90.000000
_cell_volume 4667.636501
_symmetry_space_group_name_H-M "C M C A"
_symmetry_group_IT_number 64
_symmetry_cell_setting 'orthorhombic'
loop_
_space_group_symop_operation_xyz
x,y,z
-x,1/2-y,1/2+z
x,-y,-z
-x,1/2+y,1/2-z
-x,-y,-z
x,1/2+y,1/2-z
-x,y,z
x,1/2-y,1/2+z
1/2+x,1/2+y,z
1/2-x,-y,1/2+z
1/2+x,1/2-y,-z
1/2-x,y,1/2-z
1/2-x,1/2-y,-z
1/2+x,y,1/2-z
1/2-x,1/2+y,z
1/2+x,-y,1/2+z
loop_
_atom_site_type_symbol
_atom_site_label
_atom_site_fract_x
_atom_site_fract_y
_atom_site_fract_z
Si Si1 0.566556 0.425609 0.348159
Si Si2 0.662865 0.600432 0.959190
Si Si3 0.881367 0.646137 0.193045
Si Si4 0.737151 0.244783 0.659155
Si Si5 0.935733 0.365442 0.347075
Si Si6 0.869574 0.712782 0.380464
O O1 0.500000 0.430562 0.381343
O O2 0.597484 0.538353 0.347214
O O3 0.562645 0.396674 0.249842
O O4 0.603340 0.329211 0.385581
O O5 0.709221 0.671183 0.911024
O O6 0.614839 0.568857 0.890595
O O7 0.691964 0.500000 0.000000
O O8 0.624475 0.656888 0.030673
O O9 0.812540 0.668513 0.177719
O O10 0.915159 0.744467 0.151912
O O11 0.892102 0.658572 0.294012
O O12 0.750000 0.191348 0.750000
O O13 0.799462 0.283943 0.629560
O O14 0.000000 0.378864 0.383672
#
# Coordination Sequence:
#
# PCOD9478927 Si02
#       6
#    16  16  16  16  16  16
#     4  10  20  36  60  86 114 153 199 244 290 347
#     4  11  22  36  56  84 118 153 193 247 306 355
#     4   9  18  36  60  83 109 151 198 239 289 352
#     4   9  20  39  60  83 114 152 195 240 292 358
#     4   9  19  35  53  77 112 150 191 239 289 351
#     4  10  21  36  56  87 119 148 193 247 297 350
#
# _framework density 20.567155
#
# number of rings (size 3 to 8) (size 9 to 14) (size 15 to 20)
#    0.000    2.333    0.000    3.000    0.000    3.000 
#    0.000   13.333    0.000    5.000    0.000    0.000 
#    0.000    0.000    0.000    0.000    0.000    0.000 
#
# Total GULP energy -267607.663121 kJ/mol
# GULP energy per Si atom -5575.159648 kJ/mol
# Density = 2.052034 g / cm^3
# Si number density = 20.567155 Si / 1000 Ang^3
#
#
#
# Elastic Constant Matrix: (Units=GPa)
#
#
# Indices 1 2 3 4 5 6 
#
# 1 60.5866 2.2171 -17.2717 0.0000 0.0000 0.0000
# 2 2.2171 99.3926 7.7068 0.0000 0.0000 0.0000
# 3 -17.2717 7.7068 39.8707 0.0000 0.0000 0.0000
# 4 0.0000 0.0000 0.0000 25.8324 0.0000 0.0000
# 5 0.0000 0.0000 0.0000 0.0000 0.5588 0.0000
# 6 0.0000 0.0000 0.0000 0.0000 0.0000 4.9618
#
#
#
# Elastic Compliance Matrix: (Units=1/GPa)
#
#
# Indices 1 2 3 4 5 6 
#
# 1 0.018943 -0.001075 0.008414 0.000000 0.000000 0.000000
# 2 -0.001075 0.010275 -0.002452 0.000000 0.000000 0.000000
# 3 0.008414 -0.002452 0.029200 0.000000 0.000000 0.000000
# 4 0.000000 0.000000 0.000000 0.038711 0.000000 0.000000
# 5 0.000000 0.000000 0.000000 0.000000 1.789560 0.000000
# 6 0.000000 0.000000 0.000000 0.000000 0.000000 0.201541
#
#
# Mechanical properties :
#
#
# Convention : Reuss Voigt Hill
#
# Bulk Modulus (GPa) = 14.66440 20.57271 17.61855
# Shear Modulus (GPa) = 2.37961 20.08376 11.23168
#
# Velocity S-wave (km/s) = 1.07680 3.12828 2.33941
# Velocity P-wave (km/s) = 2.94813 4.80340 3.98523
#
# Compressibility (1/GPa) = 0.06819237
#
# Stress axis : x y z
#
# Youngs Moduli (GPa) = 52.78937 97.32174 34.24678
#
# Poissons Ratio (x) = 0.10462 -0.28815
# Poissons Ratio (y) = 0.05675 0.08397
# Poissons Ratio (z) = -0.44416 0.23861
#
# Static dielectric constant tensor:
#      x y z
#    x 1.732050 0.000000 0.000000 
#    y 0.000000 1.743680 0.000000 
#    z 0.000000 0.000000 1.788830 
# 
# From -- ./inp_files/34953.got.cif
#   From: 2010.05.17/outbox.cif.g08.bks.cpg/sg64_18_cif.got.tgz:34953.got - 2010.06.03 16:29:19.
