data_PCOD9478587
_publ_section_title
;
Structure prediction by ZEFSAII (Michael W. Deem and Ramdas Pophale) SiO2 
 PCOD9478587
Probable space group: C M C A
;
_chemical_formula_sum "Si O2"
_cell_formula_units_Z 88
_cell_length_a 22.871541
_cell_length_b 9.202317
_cell_length_c 20.034641
_cell_angle_alpha 90.000000
_cell_angle_beta 90.000000
_cell_angle_gamma 90.000000
_cell_volume 4216.714343
_symmetry_space_group_name_H-M "C M C A"
_symmetry_group_IT_number 64
_symmetry_cell_setting 'orthorhombic'
loop_
_space_group_symop_operation_xyz
x,y,z
-x,1/2-y,1/2+z
x,-y,-z
-x,1/2+y,1/2-z
-x,-y,-z
x,1/2+y,1/2-z
-x,y,z
x,1/2-y,1/2+z
1/2+x,1/2+y,z
1/2-x,-y,1/2+z
1/2+x,1/2-y,-z
1/2-x,y,1/2-z
1/2-x,1/2-y,-z
1/2+x,y,1/2-z
1/2-x,1/2+y,z
1/2+x,-y,1/2+z
loop_
_atom_site_type_symbol
_atom_site_label
_atom_site_fract_x
_atom_site_fract_y
_atom_site_fract_z
Si Si1 0.067124 0.331050 0.637223
Si Si2 0.933063 0.669898 0.006836
Si Si3 0.765325 0.376098 0.050467
Si Si4 0.822912 0.799391 0.318622
Si Si5 0.250000 0.549447 0.250000
Si Si6 0.363375 0.582373 0.928521
O O1 0.066678 0.245999 0.566008
O O2 0.109506 0.244655 0.687713
O O3 0.098034 0.485546 0.620979
O O4 0.000000 0.346604 0.658612
O O5 0.000000 0.682086 0.032286
O O6 0.919356 0.500000 0.000000
O O7 0.890647 0.760567 0.055451
O O8 0.812606 0.330061 0.103426
O O9 0.704997 0.410723 0.089773
O O10 0.783931 0.500000 0.000000
O O11 0.750000 0.250000 0.000000
O O12 0.798533 0.941339 0.281132
O O13 0.782789 0.661624 0.299177
O O14 0.363795 0.500000 0.000000
#
# Coordination Sequence:
#
# PCOD9478587 Si02
#       6
#    16  16  16  16   8  16
#     4  10  20  35  55  77 107 147 191 239 286 341
#     4   9  17  28  44  73 114 155 188 219 269 342
#     4  11  21  33  56  90 122 148 183 242 303 350
#     4  11  22  41  61  86 115 150 197 239 292 353
#     4  10  24  42  64  82 110 156 198 242 286 350
#     4   9  17  30  48  75 112 153 188 220 279 351
#
# _framework density 20.869327999999999
#
# number of rings (size 3 to 8) (size 9 to 14) (size 15 to 20)
#    0.000    2.000    0.000    6.000    0.000    6.545 
#    0.000    0.909    0.000    0.000    0.000    0.000 
#    0.000    0.000    0.000    0.000    0.000    0.000 
#
# Total GULP energy -245763.878477 kJ/mol
# GULP energy per Si atom -5585.542693 kJ/mol
# Density = 2.082183 g / cm^3
# Si number density = 20.869328 Si / 1000 Ang^3
#
#
#
# Elastic Constant Matrix: (Units=GPa)
#
#
# Indices 1 2 3 4 5 6 
#
# 1 172.6614 28.2337 10.8298 0.0000 0.0000 0.0000
# 2 28.2337 113.5447 19.8966 0.0000 0.0000 0.0000
# 3 10.8298 19.8966 28.6489 0.0000 0.0000 0.0000
# 4 0.0000 0.0000 0.0000 24.7287 0.0000 0.0000
# 5 0.0000 0.0000 0.0000 0.0000 16.7371 0.0000
# 6 0.0000 0.0000 0.0000 0.0000 0.0000 25.9048
#
#
#
# Elastic Compliance Matrix: (Units=1/GPa)
#
#
# Indices 1 2 3 4 5 6 
#
# 1 0.006088 -0.001264 -0.001423 0.000000 0.000000 0.000000
# 2 -0.001264 0.010290 -0.006668 0.000000 0.000000 0.000000
# 3 -0.001423 -0.006668 0.040075 0.000000 0.000000 0.000000
# 4 0.000000 0.000000 0.000000 0.040439 0.000000 0.000000
# 5 0.000000 0.000000 0.000000 0.000000 0.059748 0.000000
# 6 0.000000 0.000000 0.000000 0.000000 0.000000 0.038603
#
#
# Mechanical properties :
#
#
# Convention : Reuss Voigt Hill
#
# Bulk Modulus (GPa) = 26.49682 48.08612 37.29147
# Shear Modulus (GPa) = 22.07178 30.53378 26.30278
#
# Velocity S-wave (km/s) = 3.25563 3.82919 3.55400
# Velocity P-wave (km/s) = 5.18231 6.53007 5.89483
#
# Compressibility (1/GPa) = 0.03774037
#
# Stress axis : x y z
#
# Youngs Moduli (GPa) = 164.26574 97.18152 24.95347
#
# Poissons Ratio (x) = 0.12287 0.03551
# Poissons Ratio (y) = 0.20769 0.16640
# Poissons Ratio (z) = 0.23377 0.64805
#
# Static dielectric constant tensor:
#      x y z
#    x 1.787450 0.000000 0.000000 
#    y 0.000000 1.736530 0.000000 
#    z 0.000000 0.000000 1.299930 
# 
# From -- ./inp_files/41372.got.cif
#   From: 2010.05.17/outbox.cif.g08.bks.cpg/sg64_21_cif.got.tgz:41372.got - 2010.06.03 16:29:19.
