data_PCOD9478361
_publ_section_title
;
Structure prediction by ZEFSAII (Michael W. Deem and Ramdas Pophale) SiO2 
 PCOD9478361
Probable space group: C M C A
;
_chemical_formula_sum "Si O2"
_cell_formula_units_Z 116
_cell_length_a 8.029494
_cell_length_b 25.199543
_cell_length_c 30.407974
_cell_angle_alpha 90.000000
_cell_angle_beta 90.000000
_cell_angle_gamma 90.000000
_cell_volume 6152.736667
_symmetry_space_group_name_H-M "C M C A"
_symmetry_group_IT_number 64
_symmetry_cell_setting 'orthorhombic'
loop_
_space_group_symop_operation_xyz
x,y,z
-x,1/2-y,1/2+z
x,-y,-z
-x,1/2+y,1/2-z
-x,-y,-z
x,1/2+y,1/2-z
-x,y,z
x,1/2-y,1/2+z
1/2+x,1/2+y,z
1/2-x,-y,1/2+z
1/2+x,1/2-y,-z
1/2-x,y,1/2-z
1/2-x,1/2-y,-z
1/2+x,y,1/2-z
1/2-x,1/2+y,z
1/2+x,-y,1/2+z
loop_
_atom_site_type_symbol
_atom_site_label
_atom_site_fract_x
_atom_site_fract_y
_atom_site_fract_z
Si Si1 0.310916 0.870207 0.882137
Si Si2 0.000000 0.500000 0.500000
Si Si3 0.801561 0.548582 0.700459
Si Si4 0.802108 0.973345 0.557927
Si Si5 0.802663 0.321997 0.044326
Si Si6 0.800224 0.583822 0.893702
Si Si7 0.301441 0.572461 0.200976
Si Si8 0.191334 0.702391 0.453216
O O1 0.500000 0.851642 0.885924
O O2 0.294297 0.925671 0.907806
O O3 0.267439 0.885074 0.832828
O O4 0.202329 0.827408 0.907312
O O5 0.846885 0.534924 0.476766
O O6 0.750000 0.565514 0.750000
O O7 0.750072 0.581976 0.657542
O O8 0.736496 0.488005 0.693373
O O9 0.000000 0.546432 0.700634
O O10 0.000000 0.976114 0.543844
O O11 0.754221 0.028608 0.582264
O O12 0.733830 0.367305 0.076683
O O13 0.736867 0.261977 0.050864
O O14 0.000000 0.320451 0.053014
O O15 0.778596 0.330850 0.992143
O O16 0.000000 0.585462 0.894653
O O17 0.500000 0.570744 0.196516
O O18 0.250000 0.586390 0.250000
O O19 0.000000 0.707371 0.466999
#
# Coordination Sequence:
#
# PCOD9478361 Si02
#       8
#    16   4  16  16  16  16  16  16
#     4  11  22  36  55  79 115 148 184 230 279 332
#     4  12  26  36  56  70 124 156 194 220 288 340
#     4  10  20  33  54  81 112 144 182 221 273 337
#     4  10  24  38  53  82 114 152 191 231 280 341
#     4   9  20  38  57  79 106 144 187 235 283 328
#     4  10  20  36  56  77 112 145 182 233 282 329
#     4  10  20  34  55  81 112 145 184 225 276 336
#     4  10  21  36  57  81 106 142 193 236 277 331
#
# _framework density 18.853399
#
# number of rings (size 3 to 8) (size 9 to 14) (size 15 to 20)
#    0.000    1.931    1.379    1.862    4.828    2.207 
#    0.000    0.000    0.000    0.828    0.000    3.862 
#    0.000    0.000    0.000    0.000    0.000    0.000 
#
# Total GULP energy -322918.009609 kJ/mol
# GULP energy per Si atom -5567.551890 kJ/mol
# Density = 1.881049 g / cm^3
# Si number density = 18.853399 Si / 1000 Ang^3
#
#
#
# Elastic Constant Matrix: (Units=GPa)
#
#
# Indices 1 2 3 4 5 6 
#
# 1 45.0545 8.7674 -5.1943 0.0000 0.0000 0.0000
# 2 8.7674 62.0143 31.9549 0.0000 0.0000 0.0000
# 3 -5.1943 31.9549 74.3256 0.0000 0.0000 0.0000
# 4 0.0000 0.0000 0.0000 20.7866 0.0000 0.0000
# 5 0.0000 0.0000 0.0000 0.0000 26.6278 0.0000
# 6 0.0000 0.0000 0.0000 0.0000 0.0000 17.5326
#
#
#
# Elastic Compliance Matrix: (Units=1/GPa)
#
#
# Indices 1 2 3 4 5 6 
#
# 1 0.023705 -0.005402 0.003979 0.000000 0.000000 0.000000
# 2 -0.005402 0.021945 -0.009812 0.000000 0.000000 0.000000
# 3 0.003979 -0.009812 0.017951 0.000000 0.000000 0.000000
# 4 0.000000 0.000000 0.000000 0.048108 0.000000 0.000000
# 5 0.000000 0.000000 0.000000 0.000000 0.037555 0.000000
# 6 0.000000 0.000000 0.000000 0.000000 0.000000 0.057037
#
#
# Mechanical properties :
#
#
# Convention : Reuss Voigt Hill
#
# Bulk Modulus (GPa) = 24.31242 28.05005 26.18123
# Shear Modulus (GPa) = 20.62015 22.71383 21.66699
#
# Velocity S-wave (km/s) = 3.31072 3.47473 3.39372
# Velocity P-wave (km/s) = 5.24766 5.56854 5.41048
#
# Compressibility (1/GPa) = 0.04113125
#
# Stress axis : x y z
#
# Youngs Moduli (GPa) = 42.18480 45.56814 55.70707
#
# Poissons Ratio (x) = 0.24615 -0.22166
# Poissons Ratio (y) = 0.22787 0.54662
# Poissons Ratio (z) = -0.16785 0.44713
#
# Static dielectric constant tensor:
#      x y z
#    x 1.682000 0.000000 0.000000 
#    y 0.000000 1.676580 0.000000 
#    z 0.000000 0.000000 1.677920 
# 
# From -- ./inp_files/52311.got.cif
#   From: 2010.05.17/outbox.cif.g08.bks.cpg/sg64_27_cif.got.tgz:52311.got - 2010.06.03 16:29:19.
