data_PCOD9478385
_publ_section_title
;
Structure prediction by ZEFSAII (Michael W. Deem and Ramdas Pophale) SiO2 
 PCOD9478385
Probable space group: C M C A
;
_chemical_formula_sum "Si O2"
_cell_formula_units_Z 96
_cell_length_a 9.401338
_cell_length_b 30.510594
_cell_length_c 20.850779
_cell_angle_alpha 90.000000
_cell_angle_beta 90.000000
_cell_angle_gamma 90.000000
_cell_volume 5980.845930
_symmetry_space_group_name_H-M "C M C A"
_symmetry_group_IT_number 64
_symmetry_cell_setting 'orthorhombic'
loop_
_space_group_symop_operation_xyz
x,y,z
-x,1/2-y,1/2+z
x,-y,-z
-x,1/2+y,1/2-z
-x,-y,-z
x,1/2+y,1/2-z
-x,y,z
x,1/2-y,1/2+z
1/2+x,1/2+y,z
1/2-x,-y,1/2+z
1/2+x,1/2-y,-z
1/2-x,y,1/2-z
1/2-x,1/2-y,-z
1/2+x,y,1/2-z
1/2-x,1/2+y,z
1/2+x,-y,1/2+z
loop_
_atom_site_type_symbol
_atom_site_label
_atom_site_fract_x
_atom_site_fract_y
_atom_site_fract_z
Si Si1 0.672126 0.786745 0.958722
Si Si2 0.335650 0.614313 0.493498
Si Si3 0.662964 0.407552 0.656029
Si Si4 0.669237 0.506875 0.188225
Si Si5 0.670448 0.536497 0.947645
Si Si6 0.668955 0.694056 0.313244
O O1 0.500000 0.782454 0.961750
O O2 0.708010 0.834927 0.986857
O O3 0.711371 0.786530 0.882838
O O4 0.750000 0.750000 0.000000
O O5 0.500000 0.612956 0.514473
O O6 0.330211 0.595748 0.420964
O O7 0.241534 0.582729 0.536587
O O8 0.500000 0.419527 0.673952
O O9 0.773140 0.443689 0.678998
O O10 0.691499 0.358495 0.680606
O O11 0.500000 0.506611 0.196754
O O12 0.750000 0.488388 0.250000
O O13 0.704563 0.481084 0.123047
O O14 0.500000 0.540447 0.953080
O O15 0.716723 0.500000 0.000000
O O16 0.500000 0.700907 0.305983
O O17 0.750000 0.710096 0.250000
#
# Coordination Sequence:
#
# PCOD9478385 Si02
#       6
#    16  16  16  16  16  16
#     4   9  19  35  53  77 105 131 165 209 254 302
#     4   9  18  32  52  76 101 130 166 207 248 296
#     4   9  17  30  47  70 100 132 163 197 242 295
#     4  11  22  33  46  67  99 134 169 211 250 293
#     4  10  20  34  50  72 101 131 169 211 247 289
#     4   9  18  31  47  71 103 132 162 200 243 298
#
# _framework density 16.051241000000001
#
# number of rings (size 3 to 8) (size 9 to 14) (size 15 to 20)
#    0.000    2.500    1.667    3.000    0.000    5.000 
#    0.000    3.333    0.000    1.000    0.000    0.000 
#    0.000    0.000    0.000    0.000    0.000    0.000 
#
# Total GULP energy -267594.096805 kJ/mol
# GULP energy per Si atom -5574.877017 kJ/mol
# Density = 1.601471 g / cm^3
# Si number density = 16.051241 Si / 1000 Ang^3
#
#
#
# Elastic Constant Matrix: (Units=GPa)
#
#
# Indices 1 2 3 4 5 6 
#
# 1 45.0873 41.8493 63.0851 0.0000 0.0000 0.0000
# 2 41.8493 81.1413 67.4788 0.0000 0.0000 0.0000
# 3 63.0851 67.4788 137.1506 0.0000 0.0000 0.0000
# 4 0.0000 0.0000 0.0000 20.2036 0.0000 0.0000
# 5 0.0000 0.0000 0.0000 0.0000 29.1540 0.0000
# 6 0.0000 0.0000 0.0000 0.0000 0.0000 24.3158
#
#
#
# Elastic Compliance Matrix: (Units=1/GPa)
#
#
# Indices 1 2 3 4 5 6 
#
# 1 0.073357 -0.016542 -0.025603 0.000000 0.000000 0.000000
# 2 -0.016542 0.024589 -0.004489 0.000000 0.000000 0.000000
# 3 -0.025603 -0.004489 0.021276 0.000000 0.000000 0.000000
# 4 0.000000 0.000000 0.000000 0.049496 0.000000 0.000000
# 5 0.000000 0.000000 0.000000 0.000000 0.034301 0.000000
# 6 0.000000 0.000000 0.000000 0.000000 0.000000 0.041126
#
#
# Mechanical properties :
#
#
# Convention : Reuss Voigt Hill
#
# Bulk Modulus (GPa) = 38.53026 67.57841 53.05434
# Shear Modulus (GPa) = 14.44818 20.79907 17.62363
#
# Velocity S-wave (km/s) = 3.00347 3.60362 3.31714
# Velocity P-wave (km/s) = 6.00703 7.71413 6.91347
#
# Compressibility (1/GPa) = 0.02595363
#
# Stress axis : x y z
#
# Youngs Moduli (GPa) = 13.63205 40.66816 47.00041
#
# Poissons Ratio (x) = 0.67275 1.20334
# Poissons Ratio (y) = 0.22551 0.21099
# Poissons Ratio (z) = 0.34902 0.18256
#
# Static dielectric constant tensor:
#      x y z
#    x 1.536700 0.000000 0.000000 
#    y 0.000000 1.515040 0.000000 
#    z 0.000000 0.000000 1.557190 
# 
# From -- ./inp_files/37030.got.cif
#   From: 2010.05.17/outbox.cif.g08.bks.cpg/sg64_19_cif.got.tgz:37030.got - 2010.06.03 16:29:19.
