data_PCOD9478617
_publ_section_title
;
Structure prediction by ZEFSAII (Michael W. Deem and Ramdas Pophale) SiO2 
 PCOD9478617
Probable space group: C M C A
;
_chemical_formula_sum "Si O2"
_cell_formula_units_Z 96
_cell_length_a 19.410839
_cell_length_b 10.185772
_cell_length_c 21.819203
_cell_angle_alpha 90.000000
_cell_angle_beta 90.000000
_cell_angle_gamma 90.000000
_cell_volume 4313.970202
_symmetry_space_group_name_H-M "C M C A"
_symmetry_group_IT_number 64
_symmetry_cell_setting 'orthorhombic'
loop_
_space_group_symop_operation_xyz
x,y,z
-x,1/2-y,1/2+z
x,-y,-z
-x,1/2+y,1/2-z
-x,-y,-z
x,1/2+y,1/2-z
-x,y,z
x,1/2-y,1/2+z
1/2+x,1/2+y,z
1/2-x,-y,1/2+z
1/2+x,1/2-y,-z
1/2-x,y,1/2-z
1/2-x,1/2-y,-z
1/2+x,y,1/2-z
1/2-x,1/2+y,z
1/2+x,-y,1/2+z
loop_
_atom_site_type_symbol
_atom_site_label
_atom_site_fract_x
_atom_site_fract_y
_atom_site_fract_z
Si Si1 0.223073 0.104463 0.841196
Si Si2 0.647421 0.181854 0.777341
Si Si3 0.419777 0.584682 0.301312
Si Si4 0.364570 0.284557 0.577648
Si Si5 0.073894 0.355185 0.530379
Si Si6 0.776569 0.405427 0.559060
O O1 0.163644 0.159545 0.885366
O O2 0.291833 0.190510 0.828430
O O3 0.185660 0.101293 0.776880
O O4 0.243468 0.974399 0.876642
O O5 0.591910 0.072163 0.795905
O O6 0.620714 0.317936 0.747093
O O7 0.500000 0.615211 0.293673
O O8 0.395034 0.623802 0.369645
O O9 0.418105 0.245855 0.525756
O O10 0.293199 0.326766 0.545800
O O11 0.071672 0.500000 0.500000
O O12 0.146534 0.346522 0.565706
O O13 0.000000 0.335570 0.562865
O O14 0.782259 0.500000 0.500000
#
# Coordination Sequence:
#
# PCOD9478617 Si02
#       6
#    16  16  16  16  16  16
#     4  10  21  37  61  91 119 158 212 263 313 363
#     4  10  23  39  63  92 126 162 210 263 313 380
#     4  11  23  41  64  92 129 170 209 258 321 386
#     4  11  21  38  63  88 122 164 213 258 316 375
#     4  10  20  35  55  85 121 155 198 252 308 366
#     4  11  21  37  62  90 118 160 209 262 308 374
#
# _framework density 22.253284000000001
#
# number of rings (size 3 to 8) (size 9 to 14) (size 15 to 20)
#    0.000    1.500    5.000    1.500    2.333    1.333 
#    0.000    0.833    0.000    4.000    0.000    0.000 
#    0.000    0.000    0.000    0.000    0.000    0.000 
#
# Total GULP energy -267290.055096 kJ/mol
# GULP energy per Si atom -5568.542815 kJ/mol
# Density = 2.220263 g / cm^3
# Si number density = 22.253284 Si / 1000 Ang^3
#
#
#
# Elastic Constant Matrix: (Units=GPa)
#
#
# Indices 1 2 3 4 5 6 
#
# 1 103.3501 -14.1449 -4.7721 0.0000 0.0000 0.0000
# 2 -14.1449 29.8480 -6.7452 0.0000 0.0000 0.0000
# 3 -4.7721 -6.7452 24.6498 0.0000 0.0000 0.0000
# 4 0.0000 0.0000 0.0000 7.5049 0.0000 0.0000
# 5 0.0000 0.0000 0.0000 0.0000 60.5786 0.0000
# 6 0.0000 0.0000 0.0000 0.0000 0.0000 -54.2829
#
#
#
# Elastic Compliance Matrix: (Units=1/GPa)
#
#
# Indices 1 2 3 4 5 6 
#
# 1 0.010650 0.005876 0.003670 0.000000 0.000000 0.000000
# 2 0.005876 0.038954 0.011797 0.000000 0.000000 0.000000
# 3 0.003670 0.011797 0.044507 0.000000 0.000000 0.000000
# 4 0.000000 0.000000 0.000000 0.133246 0.000000 0.000000
# 5 0.000000 0.000000 0.000000 0.000000 0.016507 0.000000
# 6 0.000000 0.000000 0.000000 0.000000 0.000000 -0.018422
#
#
# Mechanical properties :
#
#
# Convention : Reuss Voigt Hill
#
# Bulk Modulus (GPa) = 7.31020 11.83594 9.57307
# Shear Modulus (GPa) = 21.89579 14.99414 18.44496
#
# Velocity S-wave (km/s) = 3.14018 2.59857 2.88212
# Velocity P-wave (km/s) = 4.05460 3.78599 3.92259
#
# Compressibility (1/GPa) = 0.13679513
#
# Stress axis : x y z
#
# Youngs Moduli (GPa) = 93.90094 25.67155 22.46848
#
# Poissons Ratio (x) = -0.15085 -0.08245
# Poissons Ratio (y) = -0.55177 -0.26506
# Poissons Ratio (z) = -0.34458 -0.30284
#
# Static dielectric constant tensor:
#      x y z
#    x 1.837930 0.000000 0.000000 
#    y 0.000000 1.949670 0.000000 
#    z 0.000000 0.000000 2.145620 
# 
# From -- ./inp_files/45734.got.cif
#   From: 2010.05.17/outbox.cif.g08.bks.cpg/sg64_23_cif.got.tgz:45734.got - 2010.06.03 16:29:19.
