data_PCOD9478301
_publ_section_title
;
Structure prediction by ZEFSAII (Michael W. Deem and Ramdas Pophale) SiO2 
 PCOD9478301
Probable space group: C M C A
;
_chemical_formula_sum "Si O2"
_cell_formula_units_Z 80
_cell_length_a 15.095901
_cell_length_b 9.378810
_cell_length_c 21.294238
_cell_angle_alpha 90.000000
_cell_angle_beta 90.000000
_cell_angle_gamma 90.000000
_cell_volume 3014.872015
_symmetry_space_group_name_H-M "C M C A"
_symmetry_group_IT_number 64
_symmetry_cell_setting 'orthorhombic'
loop_
_space_group_symop_operation_xyz
x,y,z
-x,1/2-y,1/2+z
x,-y,-z
-x,1/2+y,1/2-z
-x,-y,-z
x,1/2+y,1/2-z
-x,y,z
x,1/2-y,1/2+z
1/2+x,1/2+y,z
1/2-x,-y,1/2+z
1/2+x,1/2-y,-z
1/2-x,y,1/2-z
1/2-x,1/2-y,-z
1/2+x,y,1/2-z
1/2-x,1/2+y,z
1/2+x,-y,1/2+z
loop_
_atom_site_type_symbol
_atom_site_label
_atom_site_fract_x
_atom_site_fract_y
_atom_site_fract_z
Si Si1 0.643240 0.273064 0.500299
Si Si2 0.000000 0.398881 0.334404
Si Si3 0.668831 0.195127 0.799236
Si Si4 0.148705 0.491652 0.903723
Si Si5 0.153516 0.434879 0.596835
Si Si6 0.500000 0.350733 0.739666
O O1 0.750000 0.250000 0.500000
O O2 0.622912 0.338532 0.568245
O O3 0.609435 0.392215 0.450980
O O4 0.611368 0.131717 0.465652
O O5 0.913945 0.461492 0.368901
O O6 0.000000 0.490444 0.268211
O O7 0.000000 0.228050 0.327570
O O8 0.750000 0.177332 0.750000
O O9 0.685471 0.304851 0.856980
O O10 0.587842 0.274991 0.766940
O O11 0.639521 0.045768 0.832332
O O12 0.253912 0.509015 0.916301
#
# Coordination Sequence:
#
# PCOD9478301 Si02
#       6
#    16   8  16  16  16   8
#     4   8  15  29  49  73  98 127 171 225 269 318
#     4  10  20  36  53  74 110 148 183 228 282 334
#     4  10  20  33  50  75 106 141 181 224 274 332
#     4   9  16  29  51  73  97 132 175 218 268 324
#     4   9  18  31  50  75 101 136 179 223 275 332
#     4  10  22  36  51  75 108 142 181 227 272 328
#
# _framework density 26.535122999999999
#
# number of rings (size 3 to 8) (size 9 to 14) (size 15 to 20)
#    0.000    2.800    0.000    1.200    0.000    4.000 
#    0.000    3.000    0.000   15.600    0.000   14.000 
#    0.000    0.000    0.000    0.000    0.000    0.000 
#
# Total GULP energy -223179.510249 kJ/mol
# GULP energy per Si atom -5579.487756 kJ/mol
# Density = 2.647473 g / cm^3
# Si number density = 26.535123 Si / 1000 Ang^3
#
#
#
# Elastic Constant Matrix: (Units=GPa)
#
#
# Indices 1 2 3 4 5 6 
#
# 1 61.8930 -9.3189 41.4190 0.0000 0.0000 0.0000
# 2 -9.3189 95.7353 65.2254 0.0000 0.0000 0.0000
# 3 41.4190 65.2254 131.5892 0.0000 0.0000 0.0000
# 4 0.0000 0.0000 0.0000 53.1587 0.0000 0.0000
# 5 0.0000 0.0000 0.0000 0.0000 24.8801 0.0000
# 6 0.0000 0.0000 0.0000 0.0000 0.0000 14.1443
#
#
#
# Elastic Compliance Matrix: (Units=1/GPa)
#
#
# Indices 1 2 3 4 5 6 
#
# 1 0.028732 0.013526 -0.015749 0.000000 0.000000 0.000000
# 2 0.013526 0.022140 -0.015232 0.000000 0.000000 0.000000
# 3 -0.015749 -0.015232 0.020106 0.000000 0.000000 0.000000
# 4 0.000000 0.000000 0.000000 0.018812 0.000000 0.000000
# 5 0.000000 0.000000 0.000000 0.000000 0.040193 0.000000
# 6 0.000000 0.000000 0.000000 0.000000 0.000000 0.070700
#
#
# Mechanical properties :
#
#
# Convention : Reuss Voigt Hill
#
# Bulk Modulus (GPa) = 27.72309 53.76316 40.74313
# Shear Modulus (GPa) = 20.19275 31.22942 25.71108
#
# Velocity S-wave (km/s) = 2.76158 3.43433 3.11617
# Velocity P-wave (km/s) = 4.54300 6.00261 5.32307
#
# Compressibility (1/GPa) = 0.03607101
#
# Stress axis : x y z
#
# Youngs Moduli (GPa) = 34.80382 45.16802 49.73565
#
# Poissons Ratio (x) = -0.61096 0.78326
# Poissons Ratio (y) = -0.47077 0.75755
# Poissons Ratio (z) = 0.54811 0.68798
#
# Static dielectric constant tensor:
#      x y z
#    x 2.048340 0.000000 0.000000 
#    y 0.000000 2.157470 0.000000 
#    z 0.000000 0.000000 2.189310 
# 
# From -- ./inp_files/39983.got.cif
#   From: 2010.05.17/outbox.cif.g08.bks.cpg/sg64_20_cif.got.tgz:39983.got - 2010.06.03 16:29:19.
