data_PCOD9478835
_publ_section_title
;
Structure prediction by ZEFSAII (Michael W. Deem and Ramdas Pophale) SiO2 
 PCOD9478835
Probable space group: C M C A
;
_chemical_formula_sum "Si O2"
_cell_formula_units_Z 80
_cell_length_a 7.551522
_cell_length_b 15.729890
_cell_length_c 29.911667
_cell_angle_alpha 90.000000
_cell_angle_beta 90.000000
_cell_angle_gamma 90.000000
_cell_volume 3553.045711
_symmetry_space_group_name_H-M "C M C A"
_symmetry_group_IT_number 64
_symmetry_cell_setting 'orthorhombic'
loop_
_space_group_symop_operation_xyz
x,y,z
-x,1/2-y,1/2+z
x,-y,-z
-x,1/2+y,1/2-z
-x,-y,-z
x,1/2+y,1/2-z
-x,y,z
x,1/2-y,1/2+z
1/2+x,1/2+y,z
1/2-x,-y,1/2+z
1/2+x,1/2-y,-z
1/2-x,y,1/2-z
1/2-x,1/2-y,-z
1/2+x,y,1/2-z
1/2-x,1/2+y,z
1/2+x,-y,1/2+z
loop_
_atom_site_type_symbol
_atom_site_label
_atom_site_fract_x
_atom_site_fract_y
_atom_site_fract_z
Si Si1 0.782120 0.916799 0.364344
Si Si2 0.795776 0.127833 0.539454
Si Si3 0.716927 0.174687 0.054517
Si Si4 0.709573 0.398897 0.648782
Si Si5 0.791081 0.232863 0.698971
O O1 0.720595 0.914481 0.415936
O O2 0.717426 0.835913 0.336195
O O3 0.000000 0.912276 0.365253
O O4 0.725992 0.005879 0.342634
O O5 0.785451 0.229152 0.549494
O O6 0.723892 0.121349 0.489101
O O7 0.000000 0.099871 0.536892
O O8 0.500000 0.178672 0.053588
O O9 0.778009 0.136663 0.101416
O O10 0.500000 0.407056 0.642401
O O11 0.736222 0.327989 0.686105
O O12 0.750000 0.211512 0.750000
O O13 0.000000 0.230554 0.693800
#
# Coordination Sequence:
#
# PCOD9478835 Si02
#       5
#    16  16  16  16  16
#     4   9  19  35  57  82 112 146 183 223 269 324
#     4   9  16  30  51  77 111 150 185 219 263 317
#     4   9  17  28  50  81 112 146 184 223 263 310
#     4  10  20  36  57  85 115 144 182 226 269 323
#     4  11  23  41  61  81 106 141 179 226 282 332
#
# _framework density 22.515892000000001
#
# number of rings (size 3 to 8) (size 9 to 14) (size 15 to 20)
#    0.000    2.400    2.000    0.600    0.000    1.600 
#    0.000    9.000    0.000    0.000    0.000    7.000 
#    0.000    0.000    0.000    0.000    0.000    0.000 
#
# Total GULP energy -223290.012265 kJ/mol
# GULP energy per Si atom -5582.250307 kJ/mol
# Density = 2.246464 g / cm^3
# Si number density = 22.515892 Si / 1000 Ang^3
#
#
#
# Elastic Constant Matrix: (Units=GPa)
#
#
# Indices 1 2 3 4 5 6 
#
# 1 49.6861 -0.9253 -6.3960 0.0000 0.0000 0.0000
# 2 -0.9253 48.1865 -1.5877 0.0000 0.0000 0.0000
# 3 -6.3960 -1.5877 68.8023 0.0000 0.0000 0.0000
# 4 0.0000 0.0000 0.0000 13.6407 0.0000 0.0000
# 5 0.0000 0.0000 0.0000 0.0000 2.6197 0.0000
# 6 0.0000 0.0000 0.0000 0.0000 0.0000 12.4728
#
#
#
# Elastic Compliance Matrix: (Units=1/GPa)
#
#
# Indices 1 2 3 4 5 6 
#
# 1 0.020380 0.000454 0.001905 0.000000 0.000000 0.000000
# 2 0.000454 0.020779 0.000522 0.000000 0.000000 0.000000
# 3 0.001905 0.000522 0.014724 0.000000 0.000000 0.000000
# 4 0.000000 0.000000 0.000000 0.073310 0.000000 0.000000
# 5 0.000000 0.000000 0.000000 0.000000 0.381727 0.000000
# 6 0.000000 0.000000 0.000000 0.000000 0.000000 0.080175
#
#
# Mechanical properties :
#
#
# Convention : Reuss Voigt Hill
#
# Bulk Modulus (GPa) = 16.22218 16.53964 16.38091
# Shear Modulus (GPa) = 8.25245 17.45221 12.85233
#
# Velocity S-wave (km/s) = 1.91654 2.78709 2.39176
# Velocity P-wave (km/s) = 3.48108 4.20938 3.86243
#
# Compressibility (1/GPa) = 0.06164401
#
# Stress axis : x y z
#
# Youngs Moduli (GPa) = 49.06757 48.12639 67.91846
#
# Poissons Ratio (x) = -0.02186 -0.12939
# Poissons Ratio (y) = -0.02228 -0.03543
# Poissons Ratio (z) = -0.09348 -0.02511
#
# Static dielectric constant tensor:
#      x y z
#    x 1.286100 0.000000 0.000000 
#    y 0.000000 1.845740 0.000000 
#    z 0.000000 0.000000 1.817090 
# 
# From -- ./inp_files/47893.got.cif
#   From: 2010.05.17/outbox.cif.g08.bks.cpg/sg64_24_cif.got.tgz:47893.got - 2010.06.03 16:29:19.
