data_PCOD9478638
_publ_section_title
;
Structure prediction by ZEFSAII (Michael W. Deem and Ramdas Pophale) SiO2 
 PCOD9478638
Probable space group: C M C A
;
_chemical_formula_sum "Si O2"
_cell_formula_units_Z 80
_cell_length_a 8.625140
_cell_length_b 27.755057
_cell_length_c 18.572754
_cell_angle_alpha 90.000000
_cell_angle_beta 90.000000
_cell_angle_gamma 90.000000
_cell_volume 4446.154839
_symmetry_space_group_name_H-M "C M C A"
_symmetry_group_IT_number 64
_symmetry_cell_setting 'orthorhombic'
loop_
_space_group_symop_operation_xyz
x,y,z
-x,1/2-y,1/2+z
x,-y,-z
-x,1/2+y,1/2-z
-x,-y,-z
x,1/2+y,1/2-z
-x,y,z
x,1/2-y,1/2+z
1/2+x,1/2+y,z
1/2-x,-y,1/2+z
1/2+x,1/2-y,-z
1/2-x,y,1/2-z
1/2-x,1/2-y,-z
1/2+x,y,1/2-z
1/2-x,1/2+y,z
1/2+x,-y,1/2+z
loop_
_atom_site_type_symbol
_atom_site_label
_atom_site_fract_x
_atom_site_fract_y
_atom_site_fract_z
Si Si1 0.185931 0.454376 0.169699
Si Si2 0.314866 0.656760 0.172067
Si Si3 0.685446 0.300379 0.528192
Si Si4 0.313947 0.940522 0.893400
Si Si5 0.185217 0.101859 0.963069
O O1 0.250000 0.448866 0.250000
O O2 0.224933 0.507739 0.139599
O O3 0.258557 0.416686 0.113926
O O4 0.000000 0.449784 0.169649
O O5 0.500000 0.659300 0.170478
O O6 0.250000 0.669785 0.250000
O O7 0.243777 0.689494 0.109153
O O8 0.261344 0.602417 0.152736
O O9 0.500000 0.301143 0.526025
O O10 0.750000 0.250000 0.500000
O O11 0.750991 0.345169 0.481969
O O12 0.500000 0.934674 0.893138
O O13 0.253437 0.932988 0.974577
O O14 0.000000 0.101895 0.967926
#
# Coordination Sequence:
#
# PCOD9478638 Si02
#       5
#    16  16  16  16  16
#     4  11  23  37  54  79 113 152 191 231 276 326
#     4  11  21  35  56  85 117 148 184 229 281 330
#     4  11  22  40  63  86 112 144 184 229 279 333
#     4  10  20  35  56  82 113 149 188 230 276 327
#     4  11  22  37  58  83 111 146 187 229 276 330
#
# _framework density 17.993075999999999
#
# number of rings (size 3 to 8) (size 9 to 14) (size 15 to 20)
#    0.000    1.200    0.000   10.200    0.000    7.200 
#    0.000    1.000    0.000    0.000    0.000    0.000 
#    0.000    0.000    0.000    0.000    0.000    0.000 
#
# Total GULP energy -223717.231431 kJ/mol
# GULP energy per Si atom -5592.930786 kJ/mol
# Density = 1.795212 g / cm^3
# Si number density = 17.993076 Si / 1000 Ang^3
#
#
#
# Elastic Constant Matrix: (Units=GPa)
#
#
# Indices 1 2 3 4 5 6 
#
# 1 134.5060 50.9117 62.8576 0.0000 0.0000 0.0000
# 2 50.9117 96.9515 90.5265 0.0000 0.0000 0.0000
# 3 62.8576 90.5265 165.8779 0.0000 0.0000 0.0000
# 4 0.0000 0.0000 0.0000 16.3532 0.0000 0.0000
# 5 0.0000 0.0000 0.0000 0.0000 36.4696 0.0000
# 6 0.0000 0.0000 0.0000 0.0000 0.0000 27.7868
#
#
#
# Elastic Compliance Matrix: (Units=1/GPa)
#
#
# Indices 1 2 3 4 5 6 
#
# 1 0.009534 -0.003330 -0.001795 0.000000 0.000000 0.000000
# 2 -0.003330 0.022195 -0.010851 0.000000 0.000000 0.000000
# 3 -0.001795 -0.010851 0.012631 0.000000 0.000000 0.000000
# 4 0.000000 0.000000 0.000000 0.061150 0.000000 0.000000
# 5 0.000000 0.000000 0.000000 0.000000 0.027420 0.000000
# 6 0.000000 0.000000 0.000000 0.000000 0.000000 0.035988
#
#
# Mechanical properties :
#
#
# Convention : Reuss Voigt Hill
#
# Bulk Modulus (GPa) = 80.60026 89.54744 85.07385
# Shear Modulus (GPa) = 24.38951 28.99124 26.69037
#
# Velocity S-wave (km/s) = 3.68570 4.01839 3.85563
# Velocity P-wave (km/s) = 7.93756 8.45019 8.19788
#
# Compressibility (1/GPa) = 0.01240691
#
# Stress axis : x y z
#
# Youngs Moduli (GPa) = 104.88601 45.05564 79.17301
#
# Poissons Ratio (x) = 0.15004 0.14215
# Poissons Ratio (y) = 0.34929 0.85908
# Poissons Ratio (z) = 0.18832 0.48888
#
# Static dielectric constant tensor:
#      x y z
#    x 1.597770 0.000000 0.000000 
#    y 0.000000 1.593290 0.000000 
#    z 0.000000 0.000000 1.605550 
# 
# From -- ./inp_files/29967.got.cif
#   From: 2010.05.17/outbox.cif.g08.bks.cpg/sg64_15_cif.got.tgz:29967.got - 2010.06.03 16:29:19.
