data_PCOD9478914
_publ_section_title
;
Structure prediction by ZEFSAII (Michael W. Deem and Ramdas Pophale) SiO2 
 PCOD9478914
Probable space group: C M C A
;
_chemical_formula_sum "Si O2"
_cell_formula_units_Z 96
_cell_length_a 23.408620
_cell_length_b 9.000442
_cell_length_c 23.441614
_cell_angle_alpha 90.000000
_cell_angle_beta 90.000000
_cell_angle_gamma 90.000000
_cell_volume 4938.865050
_symmetry_space_group_name_H-M "C M C A"
_symmetry_group_IT_number 64
_symmetry_cell_setting 'orthorhombic'
loop_
_space_group_symop_operation_xyz
x,y,z
-x,1/2-y,1/2+z
x,-y,-z
-x,1/2+y,1/2-z
-x,-y,-z
x,1/2+y,1/2-z
-x,y,z
x,1/2-y,1/2+z
1/2+x,1/2+y,z
1/2-x,-y,1/2+z
1/2+x,1/2-y,-z
1/2-x,y,1/2-z
1/2-x,1/2-y,-z
1/2+x,y,1/2-z
1/2-x,1/2+y,z
1/2+x,-y,1/2+z
loop_
_atom_site_type_symbol
_atom_site_label
_atom_site_fract_x
_atom_site_fract_y
_atom_site_fract_z
Si Si1 0.565761 0.762803 0.583965
Si Si2 0.655642 0.976983 0.436970
Si Si3 0.063228 0.724571 0.044233
Si Si4 0.284215 0.561078 0.820834
Si Si5 0.676026 0.109986 0.217674
Si Si6 0.564649 0.518141 0.346137
O O1 0.500000 0.818594 0.588858
O O2 0.613715 0.887719 0.579550
O O3 0.568081 0.680205 0.522119
O O4 0.575944 0.651790 0.636218
O O5 0.681435 0.000000 0.500000
O O6 0.613267 0.838446 0.442923
O O7 0.699767 0.949337 0.386725
O O8 0.065846 0.602301 0.093104
O O9 0.000000 0.796202 0.048999
O O10 0.318874 0.438103 0.783675
O O11 0.300946 0.724924 0.797284
O O12 0.219025 0.510180 0.811350
O O13 0.612813 0.085980 0.193983
O O14 0.500000 0.531771 0.323242
#
# Coordination Sequence:
#
# PCOD9478914 Si02
#       6
#    16  16  16  16  16  16
#     4   9  18  30  54  87 123 167 205 241 295 365
#     4  10  20  36  59  90 125 157 203 255 307 354
#     4   9  16  32  54  83 122 165 205 243 297 364
#     4  11  24  43  67  89 116 163 208 249 295 366
#     4  11  24  43  67  89 116 162 208 247 299 366
#     4  10  20  36  59  90 124 155 199 256 306 351
#
# _framework density 19.437664000000002
#
# number of rings (size 3 to 8) (size 9 to 14) (size 15 to 20)
#    0.000    2.000    1.667    3.000    4.667    4.000 
#    0.000    5.000    0.000    0.000    0.000    0.000 
#    0.000    0.000    0.000    0.000    0.000    0.000 
#
# Total GULP energy -267623.525065 kJ/mol
# GULP energy per Si atom -5575.490106 kJ/mol
# Density = 1.939342 g / cm^3
# Si number density = 19.437664 Si / 1000 Ang^3
#
#
#
# Elastic Constant Matrix: (Units=GPa)
#
#
# Indices 1 2 3 4 5 6 
#
# 1 64.4623 23.4694 33.2810 0.0000 0.0000 0.0000
# 2 23.4694 76.5591 23.1146 0.0000 0.0000 0.0000
# 3 33.2810 23.1146 85.5504 0.0000 0.0000 0.0000
# 4 0.0000 0.0000 0.0000 19.7298 0.0000 0.0000
# 5 0.0000 0.0000 0.0000 0.0000 35.1840 0.0000
# 6 0.0000 0.0000 0.0000 0.0000 0.0000 25.0775
#
#
#
# Elastic Compliance Matrix: (Units=1/GPa)
#
#
# Indices 1 2 3 4 5 6 
#
# 1 0.020604 -0.004242 -0.006869 0.000000 0.000000 0.000000
# 2 -0.004242 0.015095 -0.002428 0.000000 0.000000 0.000000
# 3 -0.006869 -0.002428 0.015017 0.000000 0.000000 0.000000
# 4 0.000000 0.000000 0.000000 0.050685 0.000000 0.000000
# 5 0.000000 0.000000 0.000000 0.000000 0.028422 0.000000
# 6 0.000000 0.000000 0.000000 0.000000 0.000000 0.039876
#
#
# Mechanical properties :
#
#
# Convention : Reuss Voigt Hill
#
# Bulk Modulus (GPa) = 42.30598 42.92242 42.61420
# Shear Modulus (GPa) = 24.43096 25.77871 25.10484
#
# Velocity S-wave (km/s) = 3.54911 3.64569 3.59772
# Velocity P-wave (km/s) = 6.21346 6.31280 6.26333
#
# Compressibility (1/GPa) = 0.02363732
#
# Stress axis : x y z
#
# Youngs Moduli (GPa) = 48.53447 66.24528 66.58962
#
# Poissons Ratio (x) = 0.28103 0.45742
# Poissons Ratio (y) = 0.20590 0.16170
# Poissons Ratio (z) = 0.33339 0.16086
#
# Static dielectric constant tensor:
#      x y z
#    x 1.665340 0.000000 0.000000 
#    y 0.000000 1.699220 0.000000 
#    z 0.000000 0.000000 1.688090 
# 
# From -- ./inp_files/46599.got.cif
#   From: 2010.05.17/outbox.cif.g08.bks.cpg/sg64_24_cif.got.tgz:46599.got - 2010.06.03 16:29:19.
