data_PCOD9478787
_publ_section_title
;
Structure prediction by ZEFSAII (Michael W. Deem and Ramdas Pophale) SiO2 
 PCOD9478787
Probable space group: C M C A
;
_chemical_formula_sum "Si O2"
_cell_formula_units_Z 96
_cell_length_a 19.164579
_cell_length_b 20.922096
_cell_length_c 12.171761
_cell_angle_alpha 90.000000
_cell_angle_beta 90.000000
_cell_angle_gamma 90.000000
_cell_volume 4880.427773
_symmetry_space_group_name_H-M "C M C A"
_symmetry_group_IT_number 64
_symmetry_cell_setting 'orthorhombic'
loop_
_space_group_symop_operation_xyz
x,y,z
-x,1/2-y,1/2+z
x,-y,-z
-x,1/2+y,1/2-z
-x,-y,-z
x,1/2+y,1/2-z
-x,y,z
x,1/2-y,1/2+z
1/2+x,1/2+y,z
1/2-x,-y,1/2+z
1/2+x,1/2-y,-z
1/2-x,y,1/2-z
1/2-x,1/2-y,-z
1/2+x,y,1/2-z
1/2-x,1/2+y,z
1/2+x,-y,1/2+z
loop_
_atom_site_type_symbol
_atom_site_label
_atom_site_fract_x
_atom_site_fract_y
_atom_site_fract_z
Si Si1 0.634499 0.484322 0.679718
Si Si2 0.688337 0.547125 0.895298
Si Si3 0.663114 0.408119 0.464024
Si Si4 0.417272 0.354202 0.025438
Si Si5 0.078792 0.363811 0.718803
Si Si6 0.083544 0.795600 0.566132
O O1 0.678572 0.506763 0.784467
O O2 0.671179 0.442318 0.583572
O O3 0.613302 0.547295 0.611657
O O4 0.579759 0.434460 0.729389
O O5 0.761540 0.584810 0.907357
O O6 0.626322 0.598636 0.898824
O O7 0.681770 0.500000 0.000000
O O8 0.628619 0.339563 0.484024
O O9 0.500000 0.369625 0.031352
O O10 0.408342 0.279589 0.051061
O O11 0.388747 0.364528 0.901278
O O12 0.107478 0.317024 0.811923
O O13 0.000000 0.341546 0.699431
O O14 0.000000 0.810657 0.555717
#
# Coordination Sequence:
#
# PCOD9478787 Si02
#       6
#    16  16  16  16  16  16
#     4  10  20  36  55  85 116 150 189 232 286 335
#     4  12  22  35  59  86 116 149 182 238 284 337
#     4  10  22  37  61  84 113 154 190 235 282 337
#     4  10  22  38  58  84 115 151 192 232 284 339
#     4   9  18  34  57  81 112 153 190 231 281 341
#     4   9  20  40  59  81 113 150 193 235 278 335
#
# _framework density 19.670407000000001
#
# number of rings (size 3 to 8) (size 9 to 14) (size 15 to 20)
#    0.000    2.000    3.333    0.500    0.000    3.667 
#    0.000    5.000    0.000    0.000    0.000    0.000 
#    0.000    0.000    0.000    0.000    0.000    0.000 
#
# Total GULP energy -267321.698205 kJ/mol
# GULP energy per Si atom -5569.202046 kJ/mol
# Density = 1.962564 g / cm^3
# Si number density = 19.670407 Si / 1000 Ang^3
#
#
#
# Elastic Constant Matrix: (Units=GPa)
#
#
# Indices 1 2 3 4 5 6 
#
# 1 48.2689 36.3983 13.2391 0.0000 0.0000 0.0000
# 2 36.3983 83.4539 16.9892 0.0000 0.0000 0.0000
# 3 13.2391 16.9892 87.1174 0.0000 0.0000 0.0000
# 4 0.0000 0.0000 0.0000 19.1745 0.0000 0.0000
# 5 0.0000 0.0000 0.0000 0.0000 18.7606 0.0000
# 6 0.0000 0.0000 0.0000 0.0000 0.0000 20.9990
#
#
#
# Elastic Compliance Matrix: (Units=1/GPa)
#
#
# Indices 1 2 3 4 5 6 
#
# 1 0.031262 -0.013191 -0.002178 0.000000 0.000000 0.000000
# 2 -0.013191 0.018044 -0.001514 0.000000 0.000000 0.000000
# 3 -0.002178 -0.001514 0.012105 0.000000 0.000000 0.000000
# 4 0.000000 0.000000 0.000000 0.052153 0.000000 0.000000
# 5 0.000000 0.000000 0.000000 0.000000 0.053303 0.000000
# 6 0.000000 0.000000 0.000000 0.000000 0.000000 0.047621
#
#
# Mechanical properties :
#
#
# Convention : Reuss Voigt Hill
#
# Bulk Modulus (GPa) = 36.17486 39.12150 37.64818
# Shear Modulus (GPa) = 19.41964 21.93438 20.67701
#
# Velocity S-wave (km/s) = 3.14547 3.34293 3.24570
# Velocity P-wave (km/s) = 5.62338 5.90186 5.76430
#
# Compressibility (1/GPa) = 0.02764351
#
# Stress axis : x y z
#
# Youngs Moduli (GPa) = 31.98767 55.41902 82.60978
#
# Poissons Ratio (x) = 0.73106 0.17995
# Poissons Ratio (y) = 0.42196 0.12509
# Poissons Ratio (z) = 0.06968 0.08392
#
# Static dielectric constant tensor:
#      x y z
#    x 1.712550 0.000000 0.000000 
#    y 0.000000 1.673700 0.000000 
#    z 0.000000 0.000000 1.735550 
# 
# From -- ./inp_files/17326.got.cif
#   From: 2010.05.17/outbox.cif.g08.bks.cpg/sg64_9_cif.got.tgz:17326.got - 2010.06.03 16:29:19.
