data_PCOD9478048
_publ_section_title
;
Structure prediction by ZEFSAII (Michael W. Deem and Ramdas Pophale) SiO2 
 PCOD9478048
Probable space group: C M C A
;
_chemical_formula_sum "Si O2"
_cell_formula_units_Z 96
_cell_length_a 14.054217
_cell_length_b 13.672362
_cell_length_c 23.893820
_cell_angle_alpha 90.000000
_cell_angle_beta 90.000000
_cell_angle_gamma 90.000000
_cell_volume 4591.301271
_symmetry_space_group_name_H-M "C M C A"
_symmetry_group_IT_number 64
_symmetry_cell_setting 'orthorhombic'
loop_
_space_group_symop_operation_xyz
x,y,z
-x,1/2-y,1/2+z
x,-y,-z
-x,1/2+y,1/2-z
-x,-y,-z
x,1/2+y,1/2-z
-x,y,z
x,1/2-y,1/2+z
1/2+x,1/2+y,z
1/2-x,-y,1/2+z
1/2+x,1/2-y,-z
1/2-x,y,1/2-z
1/2-x,1/2-y,-z
1/2+x,y,1/2-z
1/2-x,1/2+y,z
1/2+x,-y,1/2+z
loop_
_atom_site_type_symbol
_atom_site_label
_atom_site_fract_x
_atom_site_fract_y
_atom_site_fract_z
Si Si1 0.761089 0.759589 0.813837
Si Si2 0.767215 0.962827 0.314332
Si Si3 0.386813 0.869338 0.873995
Si Si4 0.612162 0.665109 0.088404
Si Si5 0.115839 0.254455 0.474998
Si Si6 0.111619 0.554568 0.594003
O O1 0.750000 0.790975 0.750000
O O2 0.800583 0.649701 0.813798
O O3 0.656547 0.777666 0.839793
O O4 0.829484 0.819976 0.854877
O O5 0.750000 0.991719 0.250000
O O6 0.836837 0.035696 0.347589
O O7 0.669758 0.955307 0.348909
O O8 0.500000 0.875853 0.869512
O O9 0.360325 0.840677 0.938007
O O10 0.500000 0.681601 0.098799
O O11 0.621598 0.553398 0.067059
O O12 0.647328 0.737315 0.039237
O O13 0.145533 0.353893 0.442890
O O14 0.000000 0.257734 0.477008
O O15 0.000000 0.569417 0.604757
#
# Coordination Sequence:
#
# PCOD9478048 Si02
#       6
#    16  16  16  16  16  16
#     4  11  24  42  63  91 125 162 214 262 309 379
#     4  11  24  42  60  90 130 166 213 266 315 380
#     4  11  23  41  64  91 126 167 208 256 318 377
#     4  10  21  38  64  95 128 164 208 266 321 373
#     4   9  19  38  62  92 127 162 211 266 316 377
#     4  10  19  36  62  93 124 162 211 266 321 372
#
# _framework density 20.909105
#
# number of rings (size 3 to 8) (size 9 to 14) (size 15 to 20)
#    0.000    1.667    3.333    1.000    0.000    4.667 
#    0.000    4.167    0.000    3.000    0.000    0.000 
#    0.000    0.000    0.000    0.000    0.000    0.000 
#
# Total GULP energy -267796.095656 kJ/mol
# GULP energy per Si atom -5579.085326 kJ/mol
# Density = 2.086151 g / cm^3
# Si number density = 20.909105 Si / 1000 Ang^3
#
#
#
# Elastic Constant Matrix: (Units=GPa)
#
#
# Indices 1 2 3 4 5 6 
#
# 1 87.4388 33.6708 39.5040 0.0000 0.0000 0.0000
# 2 33.6708 116.6774 32.9661 0.0000 0.0000 0.0000
# 3 39.5040 32.9661 118.0113 0.0000 0.0000 0.0000
# 4 0.0000 0.0000 0.0000 27.9192 0.0000 0.0000
# 5 0.0000 0.0000 0.0000 0.0000 11.9164 0.0000
# 6 0.0000 0.0000 0.0000 0.0000 0.0000 24.5907
#
#
#
# Elastic Compliance Matrix: (Units=1/GPa)
#
#
# Indices 1 2 3 4 5 6 
#
# 1 0.014399 -0.003033 -0.003973 0.000000 0.000000 0.000000
# 2 -0.003033 0.009944 -0.001763 0.000000 0.000000 0.000000
# 3 -0.003973 -0.001763 0.010296 0.000000 0.000000 0.000000
# 4 0.000000 0.000000 0.000000 0.035818 0.000000 0.000000
# 5 0.000000 0.000000 0.000000 0.000000 0.083918 0.000000
# 6 0.000000 0.000000 0.000000 0.000000 0.000000 0.040666
#
#
# Mechanical properties :
#
#
# Convention : Reuss Voigt Hill
#
# Bulk Modulus (GPa) = 58.47063 59.37884 58.92473
# Shear Modulus (GPa) = 22.90656 27.28437 25.09546
#
# Velocity S-wave (km/s) = 3.31347 3.61626 3.46817
# Velocity P-wave (km/s) = 6.53174 6.77471 6.65434
#
# Compressibility (1/GPa) = 0.01710260
#
# Stress axis : x y z
#
# Youngs Moduli (GPa) = 69.44735 100.56463 97.12450
#
# Poissons Ratio (x) = 0.30500 0.38587
# Poissons Ratio (y) = 0.21062 0.17119
# Poissons Ratio (z) = 0.27591 0.17725
#
# Static dielectric constant tensor:
#      x y z
#    x 1.751610 0.000000 0.000000 
#    y 0.000000 1.805520 0.000000 
#    z 0.000000 0.000000 1.761020 
# 
# From -- ./inp_files/39208.got.cif
#   From: 2010.05.17/outbox.cif.g08.bks.cpg/sg64_20_cif.got.tgz:39208.got - 2010.06.03 16:29:19.
