data_PCOD9478102
_publ_section_title
;
Structure prediction by ZEFSAII (Michael W. Deem and Ramdas Pophale) SiO2 
 PCOD9478102
Probable space group: C M C A
;
_chemical_formula_sum "Si O2"
_cell_formula_units_Z 80
_cell_length_a 12.094873
_cell_length_b 24.366503
_cell_length_c 11.368045
_cell_angle_alpha 90.000000
_cell_angle_beta 90.000000
_cell_angle_gamma 90.000000
_cell_volume 3350.273805
_symmetry_space_group_name_H-M "C M C A"
_symmetry_group_IT_number 64
_symmetry_cell_setting 'orthorhombic'
loop_
_space_group_symop_operation_xyz
x,y,z
-x,1/2-y,1/2+z
x,-y,-z
-x,1/2+y,1/2-z
-x,-y,-z
x,1/2+y,1/2-z
-x,y,z
x,1/2-y,1/2+z
1/2+x,1/2+y,z
1/2-x,-y,1/2+z
1/2+x,1/2-y,-z
1/2-x,y,1/2-z
1/2-x,1/2-y,-z
1/2+x,y,1/2-z
1/2-x,1/2+y,z
1/2+x,-y,1/2+z
loop_
_atom_site_type_symbol
_atom_site_label
_atom_site_fract_x
_atom_site_fract_y
_atom_site_fract_z
Si Si1 0.000000 0.887370 0.398800
Si Si2 0.500000 0.579531 0.866694
Si Si3 0.180993 0.332646 0.366872
Si Si4 0.186620 0.133912 0.432833
Si Si5 0.750000 0.948830 0.750000
Si Si6 0.000000 0.031454 0.209100
Si Si7 0.500000 0.726956 0.730943
Si Si8 0.500000 0.656286 0.246854
O O1 0.106746 0.898027 0.476760
O O2 0.000000 0.822377 0.363448
O O3 0.000000 0.917541 0.276302
O O4 0.394481 0.615327 0.900903
O O5 0.500000 0.515702 0.887689
O O6 0.250000 0.348398 0.250000
O O7 0.251442 0.322903 0.483785
O O8 0.103858 0.284715 0.316494
O O9 0.260236 0.090401 0.363884
O O10 0.105875 0.157962 0.333465
O O11 0.626727 0.975812 0.763928
O O12 0.000000 0.097112 0.186043
O O13 0.500000 0.787165 0.676082
#
# Coordination Sequence:
#
# PCOD9478102 Si02
#       8
#     8   8  16  16   8   8   8   8
#     4   9  18  37  67  94 118 162 235 283 322 392
#     4  10  21  36  68 100 128 160 221 300 335 390
#     4  10  19  37  66  98 124 159 222 288 337 386
#     4  10  19  41  64  91 129 175 217 273 336 401
#     4  10  24  42  64  88 144 180 222 270 340 436
#     4  10  23  45  62  93 139 183 223 275 347 417
#     4  10  20  37  60 102 128 166 222 282 343 391
#     4   9  22  41  59  87 140 181 217 265 327 429
#
# _framework density 23.878644999999999
#
# number of rings (size 3 to 8) (size 9 to 14) (size 15 to 20)
#    0.000    2.400    4.000    0.600    1.400    2.400 
#    7.200   22.000    0.000    0.000    0.000    0.000 
#    0.000    0.000    0.000    0.000    0.000    0.000 
#
# Total GULP energy -222798.070624 kJ/mol
# GULP energy per Si atom -5569.951766 kJ/mol
# Density = 2.382430 g / cm^3
# Si number density = 23.878645 Si / 1000 Ang^3
#
#
#
# Elastic Constant Matrix: (Units=GPa)
#
#
# Indices 1 2 3 4 5 6 
#
# 1 131.6954 16.6538 -1.1968 0.0000 0.0000 0.0000
# 2 16.6538 126.1953 9.5913 0.0000 0.0000 0.0000
# 3 -1.1968 9.5913 27.2439 0.0000 0.0000 0.0000
# 4 0.0000 0.0000 0.0000 0.7721 0.0000 0.0000
# 5 0.0000 0.0000 0.0000 0.0000 34.4902 0.0000
# 6 0.0000 0.0000 0.0000 0.0000 0.0000 13.3336
#
#
#
# Elastic Compliance Matrix: (Units=1/GPa)
#
#
# Indices 1 2 3 4 5 6 
#
# 1 0.007736 -0.001075 0.000718 0.000000 0.000000 0.000000
# 2 -0.001075 0.008292 -0.002966 0.000000 0.000000 0.000000
# 3 0.000718 -0.002966 0.037781 0.000000 0.000000 0.000000
# 4 0.000000 0.000000 0.000000 1.295198 0.000000 0.000000
# 5 0.000000 0.000000 0.000000 0.000000 0.028994 0.000000
# 6 0.000000 0.000000 0.000000 0.000000 0.000000 0.074998
#
#
# Mechanical properties :
#
#
# Convention : Reuss Voigt Hill
#
# Bulk Modulus (GPa) = 21.20349 37.24791 29.22570
# Shear Modulus (GPa) = 3.38899 27.05828 15.22363
#
# Velocity S-wave (km/s) = 1.19262 3.36989 2.52770
# Velocity P-wave (km/s) = 3.28564 5.54746 4.55904
#
# Compressibility (1/GPa) = 0.04716205
#
# Stress axis : x y z
#
# Youngs Moduli (GPa) = 129.26897 120.60382 26.46806
#
# Poissons Ratio (x) = 0.12971 -0.01902
# Poissons Ratio (y) = 0.13903 0.07851
# Poissons Ratio (z) = -0.09287 0.35775
#
# Static dielectric constant tensor:
#      x y z
#    x 2.098330 0.000000 0.000000 
#    y 0.000000 1.897120 0.000000 
#    z 0.000000 0.000000 1.848170 
# 
# From -- ./inp_files/22568.got.cif
#   From: 2010.05.17/outbox.cif.g08.bks.cpg/sg64_12_cif.got.tgz:22568.got - 2010.06.03 16:29:19.
