data_PCOD9478853
_publ_section_title
;
Structure prediction by ZEFSAII (Michael W. Deem and Ramdas Pophale) SiO2 
 PCOD9478853
Probable space group: C M C A
;
_chemical_formula_sum "Si O2"
_cell_formula_units_Z 64
_cell_length_a 15.802825
_cell_length_b 10.554453
_cell_length_c 19.183012
_cell_angle_alpha 90.000000
_cell_angle_beta 90.000000
_cell_angle_gamma 90.000000
_cell_volume 3199.537904
_symmetry_space_group_name_H-M "C M C A"
_symmetry_group_IT_number 64
_symmetry_cell_setting 'orthorhombic'
loop_
_space_group_symop_operation_xyz
x,y,z
-x,1/2-y,1/2+z
x,-y,-z
-x,1/2+y,1/2-z
-x,-y,-z
x,1/2+y,1/2-z
-x,y,z
x,1/2-y,1/2+z
1/2+x,1/2+y,z
1/2-x,-y,1/2+z
1/2+x,1/2-y,-z
1/2-x,y,1/2-z
1/2-x,1/2-y,-z
1/2+x,y,1/2-z
1/2-x,1/2+y,z
1/2+x,-y,1/2+z
loop_
_atom_site_type_symbol
_atom_site_label
_atom_site_fract_x
_atom_site_fract_y
_atom_site_fract_z
Si Si1 0.602175 0.605614 0.943022
Si Si2 0.162249 0.092568 0.787091
Si Si3 0.097044 0.864596 0.707222
Si Si4 0.397466 0.608367 0.449291
O O1 0.500000 0.599550 0.928765
O O2 0.652232 0.588726 0.870628
O O3 0.620514 0.747202 0.971013
O O4 0.622184 0.500000 0.000000
O O5 0.250000 0.059305 0.750000
O O6 0.141869 0.237580 0.766380
O O7 0.101259 0.984712 0.756947
O O8 0.131261 0.903278 0.630858
O O9 0.000000 0.825413 0.696745
O O10 0.363283 0.500000 0.500000
O O11 0.500000 0.595221 0.448761
#
# Coordination Sequence:
#
# PCOD9478853 Si02
#       4
#    16  16  16  16
#     4   9  18  34  57  84 114 151 198 245 288 347
#     4  11  22  37  56  84 119 151 187 240 302 353
#     4  10  20  36  58  82 111 152 200 242 284 348
#     4   8  15  29  50  78 107 135 178 237 287 327
#
# _framework density 20.002889
#
# number of rings (size 3 to 8) (size 9 to 14) (size 15 to 20)
#    0.000    2.500    0.000    4.500    0.000    2.000 
#    0.000    6.250    0.000    7.500    0.000    0.000 
#    0.000    0.000    0.000    0.000    0.000    0.250 
#
# Total GULP energy -178407.645400 kJ/mol
# GULP energy per Si atom -5575.238919 kJ/mol
# Density = 1.995736 g / cm^3
# Si number density = 20.002889 Si / 1000 Ang^3
#
#
#
# Elastic Constant Matrix: (Units=GPa)
#
#
# Indices 1 2 3 4 5 6 
#
# 1 42.6333 1.3202 12.5081 0.0000 0.0000 0.0000
# 2 1.3202 140.8167 81.4795 0.0000 0.0000 0.0000
# 3 12.5081 81.4795 76.3063 0.0000 0.0000 0.0000
# 4 0.0000 0.0000 0.0000 48.5607 0.0000 0.0000
# 5 0.0000 0.0000 0.0000 0.0000 17.6566 0.0000
# 6 0.0000 0.0000 0.0000 0.0000 0.0000 22.0207
#
#
#
# Elastic Compliance Matrix: (Units=1/GPa)
#
#
# Indices 1 2 3 4 5 6 
#
# 1 0.026391 0.005903 -0.010629 0.000000 0.000000 0.000000
# 2 0.005903 0.019903 -0.022220 0.000000 0.000000 0.000000
# 3 -0.010629 -0.022220 0.038574 0.000000 0.000000 0.000000
# 4 0.000000 0.000000 0.000000 0.020593 0.000000 0.000000
# 5 0.000000 0.000000 0.000000 0.000000 0.056636 0.000000
# 6 0.000000 0.000000 0.000000 0.000000 0.000000 0.045412
#
#
# Mechanical properties :
#
#
# Convention : Reuss Voigt Hill
#
# Bulk Modulus (GPa) = 32.28325 50.04132 41.16229
# Shear Modulus (GPa) = 18.40087 28.61084 23.50585
#
# Velocity S-wave (km/s) = 3.03629 3.78608 3.43173
# Velocity P-wave (km/s) = 5.33539 6.64710 6.02704
#
# Compressibility (1/GPa) = 0.03097582
#
# Stress axis : x y z
#
# Youngs Moduli (GPa) = 37.89105 50.24373 25.92442
#
# Poissons Ratio (x) = -0.29658 0.27555
# Poissons Ratio (y) = -0.22366 0.57604
# Poissons Ratio (z) = 0.40274 1.11641
#
# Static dielectric constant tensor:
#      x y z
#    x 1.728860 0.000000 0.000000 
#    y 0.000000 1.691280 0.000000 
#    z 0.000000 0.000000 1.701580 
# 
# From -- ./inp_files/31643.got.cif
#   From: 2010.05.17/outbox.cif.g08.bks.cpg/sg64_16_cif.got.tgz:31643.got - 2010.06.03 16:29:19.
