data_PCOD9478807
_publ_section_title
;
Structure prediction by ZEFSAII (Michael W. Deem and Ramdas Pophale) SiO2 
 PCOD9478807
Probable space group: C M C A
;
_chemical_formula_sum "Si O2"
_cell_formula_units_Z 88
_cell_length_a 12.125938
_cell_length_b 26.953406
_cell_length_c 13.471280
_cell_angle_alpha 90.000000
_cell_angle_beta 90.000000
_cell_angle_gamma 90.000000
_cell_volume 4402.890245
_symmetry_space_group_name_H-M "C M C A"
_symmetry_group_IT_number 64
_symmetry_cell_setting 'orthorhombic'
loop_
_space_group_symop_operation_xyz
x,y,z
-x,1/2-y,1/2+z
x,-y,-z
-x,1/2+y,1/2-z
-x,-y,-z
x,1/2+y,1/2-z
-x,y,z
x,1/2-y,1/2+z
1/2+x,1/2+y,z
1/2-x,-y,1/2+z
1/2+x,1/2-y,-z
1/2-x,y,1/2-z
1/2-x,1/2-y,-z
1/2+x,y,1/2-z
1/2-x,1/2+y,z
1/2+x,-y,1/2+z
loop_
_atom_site_type_symbol
_atom_site_label
_atom_site_fract_x
_atom_site_fract_y
_atom_site_fract_z
Si Si1 0.876493 0.939625 0.413537
Si Si2 0.323590 0.048666 0.444369
Si Si3 0.124745 0.774713 0.797625
Si Si4 0.750000 0.504414 0.250000
Si Si5 0.118445 0.159812 0.005780
Si Si6 0.189410 0.832983 0.352453
O O1 0.799861 0.946493 0.509899
O O2 0.822022 0.969606 0.322230
O O3 0.875002 0.881487 0.386660
O O4 0.000000 0.956205 0.429258
O O5 0.375918 0.100875 0.473445
O O6 0.370793 0.000000 0.500000
O O7 0.319043 0.037659 0.327525
O O8 0.250000 0.780634 0.750000
O O9 0.126111 0.811646 0.890743
O O10 0.125566 0.717747 0.834002
O O11 0.000000 0.782559 0.748815
O O12 0.000000 0.171451 0.958486
O O13 0.216441 0.175686 0.934438
O O14 0.250000 0.846216 0.250000
#
# Coordination Sequence:
#
# PCOD9478807 Si02
#       6
#    16  16  16   8  16  16
#     4  10  20  37  58  84 115 150 194 245 303 360
#     4   9  21  38  56  83 118 153 200 249 294 354
#     4  10  22  40  64  94 127 162 202 247 301 367
#     4  10  20  36  56  82 114 152 198 246 296 354
#     4  10  22  39  60  87 121 160 201 249 303 360
#     4  10  20  38  59  88 117 153 195 249 297 363
#
# _framework density 19.98687
#
# number of rings (size 3 to 8) (size 9 to 14) (size 15 to 20)
#    0.000    2.182    0.909    1.091    1.273    8.000 
#    0.000    4.545    0.000    0.000    0.000    0.000 
#    0.000    0.000    0.000    0.000    0.000    0.000 
#
# Total GULP energy -245172.959553 kJ/mol
# GULP energy per Si atom -5572.112717 kJ/mol
# Density = 1.994138 g / cm^3
# Si number density = 19.986870 Si / 1000 Ang^3
#
#
#
# Elastic Constant Matrix: (Units=GPa)
#
#
# Indices 1 2 3 4 5 6 
#
# 1 151.9086 4.1919 26.8687 0.0000 0.0000 0.0000
# 2 4.1919 49.6116 5.2833 0.0000 0.0000 0.0000
# 3 26.8687 5.2833 67.1777 0.0000 0.0000 0.0000
# 4 0.0000 0.0000 0.0000 31.0262 0.0000 0.0000
# 5 0.0000 0.0000 0.0000 0.0000 2.2179 0.0000
# 6 0.0000 0.0000 0.0000 0.0000 0.0000 -36.7021
#
#
#
# Elastic Compliance Matrix: (Units=1/GPa)
#
#
# Indices 1 2 3 4 5 6 
#
# 1 0.007088 -0.000300 -0.002812 0.000000 0.000000 0.000000
# 2 -0.000300 0.020339 -0.001480 0.000000 0.000000 0.000000
# 3 -0.002812 -0.001480 0.016127 0.000000 0.000000 0.000000
# 4 0.000000 0.000000 0.000000 0.032231 0.000000 0.000000
# 5 0.000000 0.000000 0.000000 0.000000 0.450880 0.000000
# 6 0.000000 0.000000 0.000000 0.000000 0.000000 -0.027246
#
#
# Mechanical properties :
#
#
# Convention : Reuss Voigt Hill
#
# Bulk Modulus (GPa) = 29.09271 37.93175 33.51223
# Shear Modulus (GPa) = 9.61431 14.79868 12.20650
#
# Velocity S-wave (km/s) = 2.19562 2.72402 2.47397
# Velocity P-wave (km/s) = 4.58423 5.37710 4.99642
#
# Compressibility (1/GPa) = 0.03437287
#
# Stress axis : x y z
#
# Youngs Moduli (GPa) = 141.07427 49.16552 62.00856
#
# Poissons Ratio (x) = 0.01473 0.17434
# Poissons Ratio (y) = 0.04226 0.09176
# Poissons Ratio (z) = 0.39664 0.07276
#
# Static dielectric constant tensor:
#      x y z
#    x 1.749320 0.000000 0.000000 
#    y 0.000000 1.713530 0.000000 
#    z 0.000000 0.000000 1.674540 
# 
# From -- ./inp_files/13326.got.cif
#   From: 2010.05.17/outbox.cif.g08.bks.cpg/sg64_7_cif.got.tgz:13326.got - 2010.06.03 16:29:19.
