data_PCOD9478147
_publ_section_title
;
Structure prediction by ZEFSAII (Michael W. Deem and Ramdas Pophale) SiO2 
 PCOD9478147
Probable space group: C M C A
;
_chemical_formula_sum "Si O2"
_cell_formula_units_Z 80
_cell_length_a 22.694194
_cell_length_b 10.896785
_cell_length_c 14.417813
_cell_angle_alpha 90.000000
_cell_angle_beta 90.000000
_cell_angle_gamma 90.000000
_cell_volume 3565.435083
_symmetry_space_group_name_H-M "C M C A"
_symmetry_group_IT_number 64
_symmetry_cell_setting 'orthorhombic'
loop_
_space_group_symop_operation_xyz
x,y,z
-x,1/2-y,1/2+z
x,-y,-z
-x,1/2+y,1/2-z
-x,-y,-z
x,1/2+y,1/2-z
-x,y,z
x,1/2-y,1/2+z
1/2+x,1/2+y,z
1/2-x,-y,1/2+z
1/2+x,1/2-y,-z
1/2-x,y,1/2-z
1/2-x,1/2-y,-z
1/2+x,y,1/2-z
1/2-x,1/2+y,z
1/2+x,-y,1/2+z
loop_
_atom_site_type_symbol
_atom_site_label
_atom_site_fract_x
_atom_site_fract_y
_atom_site_fract_z
Si Si1 0.360946 0.020517 0.110018
Si Si2 0.434109 0.740371 0.392062
Si Si3 0.755766 0.124146 0.061369
Si Si4 0.112691 0.623812 0.441722
Si Si5 0.934158 0.685918 0.813340
O O1 0.415474 0.105342 0.137004
O O2 0.300080 0.094764 0.127591
O O3 0.377223 0.890917 0.154120
O O4 0.363783 0.000000 0.000000
O O5 0.500000 0.746990 0.430222
O O6 0.390337 0.780317 0.472949
O O7 0.431533 0.815488 0.297641
O O8 0.821791 0.121174 0.100596
O O9 0.750000 0.250000 0.000000
O O10 0.756293 0.000000 0.000000
O O11 0.097341 0.500000 0.500000
O O12 0.072113 0.679839 0.361398
O O13 0.000000 0.640838 0.840678
#
# Coordination Sequence:
#
# PCOD9478147 Si02
#       5
#    16  16  16  16  16
#     4  11  21  41  71  93 127 175 232 282 344 404
#     4  11  24  40  63  96 135 175 223 279 340 410
#     4  10  19  38  69  94 125 173 219 279 335 398
#     4  11  23  41  66  92 133 179 223 276 351 408
#     4  11  25  42  65  99 137 178 229 286 342 410
#
# _framework density 22.437653999999998
#
# number of rings (size 3 to 8) (size 9 to 14) (size 15 to 20)
#    0.000    1.200    4.000    2.400    2.800    2.400 
#    0.000    1.000    4.400    0.000    0.000    0.000 
#    0.000    0.000    0.000    0.000    0.000    0.000 
#
# Total GULP energy -222754.166478 kJ/mol
# GULP energy per Si atom -5568.854162 kJ/mol
# Density = 2.238658 g / cm^3
# Si number density = 22.437654 Si / 1000 Ang^3
#
#
#
# Elastic Constant Matrix: (Units=GPa)
#
#
# Indices 1 2 3 4 5 6 
#
# 1 131.9522 19.5842 26.1048 0.0000 0.0000 0.0000
# 2 19.5842 88.5959 -7.3339 0.0000 0.0000 0.0000
# 3 26.1048 -7.3339 57.9782 0.0000 0.0000 0.0000
# 4 0.0000 0.0000 0.0000 15.7258 0.0000 0.0000
# 5 0.0000 0.0000 0.0000 0.0000 361.5307 0.0000
# 6 0.0000 0.0000 0.0000 0.0000 0.0000 35.1920
#
#
#
# Elastic Compliance Matrix: (Units=1/GPa)
#
#
# Indices 1 2 3 4 5 6 
#
# 1 0.008755 -0.002285 -0.004231 0.000000 0.000000 0.000000
# 2 -0.002285 0.012003 0.002547 0.000000 0.000000 0.000000
# 3 -0.004231 0.002547 0.019475 0.000000 0.000000 0.000000
# 4 0.000000 0.000000 0.000000 0.063590 0.000000 0.000000
# 5 0.000000 0.000000 0.000000 0.000000 0.002766 0.000000
# 6 0.000000 0.000000 0.000000 0.000000 0.000000 0.028416
#
#
# Mechanical properties :
#
#
# Convention : Reuss Voigt Hill
#
# Bulk Modulus (GPa) = 30.96449 39.47071 35.21760
# Shear Modulus (GPa) = 32.52927 98.50110 65.51518
#
# Velocity S-wave (km/s) = 3.81171 6.63289 5.40945
# Velocity P-wave (km/s) = 5.76215 8.73440 7.39906
#
# Compressibility (1/GPa) = 0.03229506
#
# Stress axis : x y z
#
# Youngs Moduli (GPa) = 114.22382 83.31054 51.34765
#
# Poissons Ratio (x) = 0.19040 0.21725
# Poissons Ratio (y) = 0.26106 -0.13080
# Poissons Ratio (z) = 0.48327 -0.21222
#
# Static dielectric constant tensor:
#      x y z
#    x 1.919480 0.000000 0.000000 
#    y 0.000000 1.598550 0.000000 
#    z 0.000000 0.000000 1.687410 
# 
# From -- ./inp_files/27052.got.cif
#   From: 2010.05.17/outbox.cif.g08.bks.cpg/sg64_14_cif.got.tgz:27052.got - 2010.06.03 16:29:19.
