data_PCOD9478140
_publ_section_title
;
Structure prediction by ZEFSAII (Michael W. Deem and Ramdas Pophale) SiO2 
 PCOD9478140
Probable space group: C M C A
;
_chemical_formula_sum "Si O2"
_cell_formula_units_Z 80
_cell_length_a 18.015859
_cell_length_b 14.878222
_cell_length_c 15.143598
_cell_angle_alpha 90.000000
_cell_angle_beta 90.000000
_cell_angle_gamma 90.000000
_cell_volume 4059.149821
_symmetry_space_group_name_H-M "C M C A"
_symmetry_group_IT_number 64
_symmetry_cell_setting 'orthorhombic'
loop_
_space_group_symop_operation_xyz
x,y,z
-x,1/2-y,1/2+z
x,-y,-z
-x,1/2+y,1/2-z
-x,-y,-z
x,1/2+y,1/2-z
-x,y,z
x,1/2-y,1/2+z
1/2+x,1/2+y,z
1/2-x,-y,1/2+z
1/2+x,1/2-y,-z
1/2-x,y,1/2-z
1/2-x,1/2-y,-z
1/2+x,y,1/2-z
1/2-x,1/2+y,z
1/2+x,-y,1/2+z
loop_
_atom_site_type_symbol
_atom_site_label
_atom_site_fract_x
_atom_site_fract_y
_atom_site_fract_z
Si Si1 0.410620 0.235852 0.198085
Si Si2 0.662446 0.955595 0.760613
Si Si3 0.585677 0.559832 0.087029
Si Si4 0.589056 0.117089 0.850675
Si Si5 0.090109 0.756703 0.995902
O O1 0.500000 0.222212 0.198577
O O2 0.370950 0.142865 0.221750
O O3 0.395533 0.312519 0.270775
O O4 0.387695 0.260648 0.098017
O O5 0.750000 0.952716 0.750000
O O6 0.628719 0.984849 0.666571
O O7 0.633449 0.026346 0.832463
O O8 0.500000 0.570590 0.115643
O O9 0.616482 0.657205 0.059636
O O10 0.586564 0.500000 0.000000
O O11 0.500000 0.099732 0.850496
O O12 0.609245 0.166996 0.942017
O O13 0.000000 0.762686 0.995243
#
# Coordination Sequence:
#
# PCOD9478140 Si02
#       5
#    16  16  16  16  16
#     4  10  20  39  66  90 115 151 201 254 303 352
#     4  12  25  39  56  88 128 165 196 238 306 376
#     4  10  19  38  66  91 115 152 214 266 295 344
#     4  10  20  38  63  87 117 155 203 254 292 344
#     4   9  18  34  61  93 114 144 196 254 305 346
#
# _framework density 19.708561
#
# number of rings (size 3 to 8) (size 9 to 14) (size 15 to 20)
#    0.000    1.800    2.000    3.000    0.000    4.800 
#    3.600    4.000    0.000    0.000    0.000    0.000 
#    0.000    0.000    0.000    0.000    0.000    0.000 
#
# Total GULP energy -223405.630493 kJ/mol
# GULP energy per Si atom -5585.140762 kJ/mol
# Density = 1.966370 g / cm^3
# Si number density = 19.708561 Si / 1000 Ang^3
#
#
#
# Elastic Constant Matrix: (Units=GPa)
#
#
# Indices 1 2 3 4 5 6 
#
# 1 38.7478 13.7321 1.8845 0.0000 0.0000 0.0000
# 2 13.7321 50.8572 -29.6377 0.0000 0.0000 0.0000
# 3 1.8845 -29.6377 59.8592 0.0000 0.0000 0.0000
# 4 0.0000 0.0000 0.0000 25.9510 0.0000 0.0000
# 5 0.0000 0.0000 0.0000 0.0000 -5.9674 0.0000
# 6 0.0000 0.0000 0.0000 0.0000 0.0000 -2.2286
#
#
#
# Elastic Compliance Matrix: (Units=1/GPa)
#
#
# Indices 1 2 3 4 5 6 
#
# 1 0.030539 -0.012378 -0.007090 0.000000 0.000000 0.000000
# 2 -0.012378 0.032654 0.016558 0.000000 0.000000 0.000000
# 3 -0.007090 0.016558 0.025127 0.000000 0.000000 0.000000
# 4 0.000000 0.000000 0.000000 0.038534 0.000000 0.000000
# 5 0.000000 0.000000 0.000000 0.000000 -0.167578 0.000000
# 6 0.000000 0.000000 0.000000 0.000000 0.000000 -0.448710
#
#
# Mechanical properties :
#
#
# Convention : Reuss Voigt Hill
#
# Bulk Modulus (GPa) = 12.12121 13.49135 12.80628
# Shear Modulus (GPa) = -10.96221 14.45002 1.74391
#
# Velocity S-wave (km/s) = -2.36098 2.71068 0.94168
# Velocity P-wave (km/s) = 1.12638 4.08134 2.77386
#
# Compressibility (1/GPa) = 0.08250001
#
# Stress axis : x y z
#
# Youngs Moduli (GPa) = 32.74459 30.62397 39.79769
#
# Poissons Ratio (x) = 0.37906 0.28217
# Poissons Ratio (y) = 0.40531 -0.65895
# Poissons Ratio (z) = 0.23216 -0.50706
#
# Static dielectric constant tensor:
#      x y z
#    x 1.718260 0.000000 0.000000 
#    y 0.000000 1.699320 0.000000 
#    z 0.000000 0.000000 1.714920 
# 
# From -- ./inp_files/26132.got.cif
#   From: 2010.05.17/outbox.cif.g08.bks.cpg/sg64_14_cif.got.tgz:26132.got - 2010.06.03 16:29:19.
