data_PCOD9478917
_publ_section_title
;
Structure prediction by ZEFSAII (Michael W. Deem and Ramdas Pophale) SiO2 
 PCOD9478917
Probable space group: C M C A
;
_chemical_formula_sum "Si O2"
_cell_formula_units_Z 88
_cell_length_a 14.377280
_cell_length_b 25.966197
_cell_length_c 11.896583
_cell_angle_alpha 90.000000
_cell_angle_beta 90.000000
_cell_angle_gamma 90.000000
_cell_volume 4441.271444
_symmetry_space_group_name_H-M "C M C A"
_symmetry_group_IT_number 64
_symmetry_cell_setting 'orthorhombic'
loop_
_space_group_symop_operation_xyz
x,y,z
-x,1/2-y,1/2+z
x,-y,-z
-x,1/2+y,1/2-z
-x,-y,-z
x,1/2+y,1/2-z
-x,y,z
x,1/2-y,1/2+z
1/2+x,1/2+y,z
1/2-x,-y,1/2+z
1/2+x,1/2-y,-z
1/2-x,y,1/2-z
1/2-x,1/2-y,-z
1/2+x,y,1/2-z
1/2-x,1/2+y,z
1/2+x,-y,1/2+z
loop_
_atom_site_type_symbol
_atom_site_label
_atom_site_fract_x
_atom_site_fract_y
_atom_site_fract_z
Si Si1 0.894789 0.654805 0.092790
Si Si2 0.106042 0.399897 0.227712
Si Si3 0.600559 0.438726 0.018977
Si Si4 0.750000 0.211248 0.250000
Si Si5 0.804490 0.061310 0.507360
Si Si6 0.607135 0.709912 0.650164
O O1 0.818997 0.677279 0.175935
O O2 0.000000 0.661958 0.133308
O O3 0.874676 0.595058 0.065877
O O4 0.885412 0.685075 0.973849
O O5 0.107259 0.425984 0.348737
O O6 0.175269 0.423491 0.136709
O O7 0.122724 0.338639 0.233956
O O8 0.000000 0.405508 0.182534
O O9 0.500000 0.417826 0.978477
O O10 0.700050 0.421707 0.971602
O O11 0.598331 0.500000 0.000000
O O12 0.683541 0.247416 0.325810
O O13 0.813942 0.000000 0.500000
O O14 0.500000 0.727856 0.664626
#
# Coordination Sequence:
#
# PCOD9478917 Si02
#       6
#    16  16  16   8  16  16
#     4  10  23  42  60  88 122 148 197 252 290 356
#     4   9  18  33  56  84 113 149 200 247 286 341
#     4   9  18  33  52  82 120 154 191 244 293 337
#     4  12  22  38  64  86 118 158 188 238 318 358
#     4  10  20  36  60  82 112 155 198 235 287 352
#     4   9  20  37  60  88 116 155 204 248 288 350
#
# _framework density 19.814146000000001
#
# number of rings (size 3 to 8) (size 9 to 14) (size 15 to 20)
#    0.000    2.364    0.000    3.273    5.091    1.455 
#    6.545    1.818    0.000    0.000    0.000    0.000 
#    0.000    0.000    0.000    0.000    0.000    0.000 
#
# Total GULP energy -245381.278781 kJ/mol
# GULP energy per Si atom -5576.847245 kJ/mol
# Density = 1.976905 g / cm^3
# Si number density = 19.814146 Si / 1000 Ang^3
#
#
#
# Elastic Constant Matrix: (Units=GPa)
#
#
# Indices 1 2 3 4 5 6 
#
# 1 139.2965 62.2515 36.3340 0.0000 0.0000 0.0000
# 2 62.2515 85.3129 37.4050 0.0000 0.0000 0.0000
# 3 36.3340 37.4050 41.6645 0.0000 0.0000 0.0000
# 4 0.0000 0.0000 0.0000 22.5606 0.0000 0.0000
# 5 0.0000 0.0000 0.0000 0.0000 28.2981 0.0000
# 6 0.0000 0.0000 0.0000 0.0000 0.0000 30.7150
#
#
#
# Elastic Compliance Matrix: (Units=1/GPa)
#
#
# Indices 1 2 3 4 5 6 
#
# 1 0.011033 -0.006320 -0.003948 0.000000 0.000000 0.000000
# 2 -0.006320 0.022950 -0.015093 0.000000 0.000000 0.000000
# 3 -0.003948 -0.015093 0.040994 0.000000 0.000000 0.000000
# 4 0.000000 0.000000 0.000000 0.044325 0.000000 0.000000
# 5 0.000000 0.000000 0.000000 0.000000 0.035338 0.000000
# 6 0.000000 0.000000 0.000000 0.000000 0.000000 0.032557
#
#
# Mechanical properties :
#
#
# Convention : Reuss Voigt Hill
#
# Bulk Modulus (GPa) = 41.22629 59.80610 50.51620
# Shear Modulus (GPa) = 20.32488 25.00029 22.66259
#
# Velocity S-wave (km/s) = 3.20625 3.55595 3.38562
# Velocity P-wave (km/s) = 5.87864 6.86358 6.39012
#
# Compressibility (1/GPa) = 0.02425637
#
# Stress axis : x y z
#
# Youngs Moduli (GPa) = 90.63782 43.57233 24.39389
#
# Poissons Ratio (x) = 0.27536 0.09630
# Poissons Ratio (y) = 0.57280 0.36818
# Poissons Ratio (z) = 0.35782 0.65763
#
# Static dielectric constant tensor:
#      x y z
#    x 1.755420 0.000000 0.000000 
#    y 0.000000 1.674230 0.000000 
#    z 0.000000 0.000000 1.672490 
# 
# From -- ./inp_files/14591.got.cif
#   From: 2010.05.17/outbox.cif.g08.bks.cpg/sg64_8_cif.got.tgz:14591.got - 2010.06.03 16:29:19.
