data_PCOD9478583
_publ_section_title
;
Structure prediction by ZEFSAII (Michael W. Deem and Ramdas Pophale) SiO2 
 PCOD9478583
Probable space group: C M C A
;
_chemical_formula_sum "Si O2"
_cell_formula_units_Z 116
_cell_length_a 7.529824
_cell_length_b 25.815327
_cell_length_c 28.159557
_cell_angle_alpha 90.000000
_cell_angle_beta 90.000000
_cell_angle_gamma 90.000000
_cell_volume 5473.791793
_symmetry_space_group_name_H-M "C M C A"
_symmetry_group_IT_number 64
_symmetry_cell_setting 'orthorhombic'
loop_
_space_group_symop_operation_xyz
x,y,z
-x,1/2-y,1/2+z
x,-y,-z
-x,1/2+y,1/2-z
-x,-y,-z
x,1/2+y,1/2-z
-x,y,z
x,1/2-y,1/2+z
1/2+x,1/2+y,z
1/2-x,-y,1/2+z
1/2+x,1/2-y,-z
1/2-x,y,1/2-z
1/2-x,1/2-y,-z
1/2+x,y,1/2-z
1/2-x,1/2+y,z
1/2+x,-y,1/2+z
loop_
_atom_site_type_symbol
_atom_site_label
_atom_site_fract_x
_atom_site_fract_y
_atom_site_fract_z
Si Si1 0.287133 0.694572 0.694287
Si Si2 0.291836 0.591094 0.980667
Si Si3 0.711183 0.388844 0.695787
Si Si4 0.287370 0.198483 0.470185
Si Si5 0.000000 0.000000 0.500000
Si Si6 0.793390 0.791251 0.864580
Si Si7 0.212656 0.494164 0.195881
Si Si8 0.216683 0.598415 0.870253
O O1 0.500000 0.694307 0.691234
O O2 0.250000 0.689758 0.750000
O O3 0.218152 0.747804 0.670879
O O4 0.225166 0.646747 0.662011
O O5 0.500000 0.580690 0.993399
O O6 0.282659 0.599797 0.923864
O O7 0.230399 0.644805 0.005495
O O8 0.157157 0.545068 0.993668
O O9 0.500000 0.389917 0.689446
O O10 0.750000 0.373322 0.750000
O O11 0.784903 0.346896 0.660025
O O12 0.781527 0.447345 0.689552
O O13 0.500000 0.193660 0.467069
O O14 0.250000 0.250000 0.500000
O O15 0.213972 0.205885 0.417034
O O16 0.000000 0.777290 0.870970
O O17 0.250000 0.477369 0.250000
O O18 0.275912 0.453451 0.157178
O O19 0.000000 0.496625 0.191400
O O20 0.000000 0.598239 0.872061
#
# Coordination Sequence:
#
# PCOD9478583 Si02
#       8
#    16  16  16  16   4  16  16  16
#     4  10  21  35  58  88 128 171 214 263 328 397
#     4  11  25  45  70 103 133 181 235 284 351 423
#     4  10  20  35  54  81 113 151 195 245 298 371
#     4  10  23  42  67  97 130 169 227 284 338 409
#     4  12  26  48  72  94 144 180 218 294 360 410
#     4  10  21  38  57  85 120 161 204 259 321 380
#     4   9  19  34  55  84 118 157 207 252 314 383
#     4  10  20  39  62  89 124 169 215 270 336 395
#
# _framework density 21.191890999999998
#
# number of rings (size 3 to 8) (size 9 to 14) (size 15 to 20)
#    0.000    1.931    0.690    2.276    0.966    6.069 
#    2.483    1.379    0.000    0.000    0.000    0.000 
#    0.000    0.000    0.000    0.000    0.000    0.000 
#
# Total GULP energy -323447.126650 kJ/mol
# GULP energy per Si atom -5576.674597 kJ/mol
# Density = 2.114366 g / cm^3
# Si number density = 21.191891 Si / 1000 Ang^3
#
#
#
# Elastic Constant Matrix: (Units=GPa)
#
#
# Indices 1 2 3 4 5 6 
#
# 1 84.6162 35.0585 21.9808 0.0000 0.0000 0.0000
# 2 35.0585 131.7495 77.6585 0.0000 0.0000 0.0000
# 3 21.9808 77.6585 97.0319 0.0000 0.0000 0.0000
# 4 0.0000 0.0000 0.0000 -9.3826 0.0000 0.0000
# 5 0.0000 0.0000 0.0000 0.0000 21.5145 0.0000
# 6 0.0000 0.0000 0.0000 0.0000 0.0000 16.5979
#
#
#
# Elastic Compliance Matrix: (Units=1/GPa)
#
#
# Indices 1 2 3 4 5 6 
#
# 1 0.013288 -0.003335 -0.000341 0.000000 0.000000 0.000000
# 2 -0.003335 0.015206 -0.011414 0.000000 0.000000 0.000000
# 3 -0.000341 -0.011414 0.019518 0.000000 0.000000 0.000000
# 4 0.000000 0.000000 0.000000 -0.106580 0.000000 0.000000
# 5 0.000000 0.000000 0.000000 0.000000 0.046480 0.000000
# 6 0.000000 0.000000 0.000000 0.000000 0.000000 0.060249
#
#
# Mechanical properties :
#
#
# Convention : Reuss Voigt Hill
#
# Bulk Modulus (GPa) = 56.07941 64.75479 60.41710
# Shear Modulus (GPa) = 59.32203 17.65928 38.49065
#
# Velocity S-wave (km/s) = 5.29656 2.88983 4.26642
# Velocity P-wave (km/s) = 7.99530 6.46201 7.26920
#
# Compressibility (1/GPa) = 0.01783186
#
# Stress axis : x y z
#
# Youngs Moduli (GPa) = 75.25339 65.76544 51.23378
#
# Poissons Ratio (x) = 0.21932 0.01748
# Poissons Ratio (y) = 0.25097 0.58479
# Poissons Ratio (z) = 0.02567 0.75066
#
# Static dielectric constant tensor:
#      x y z
#    x 1.810050 0.000000 0.000000 
#    y 0.000000 1.761360 0.000000 
#    z 0.000000 0.000000 1.735940 
# 
# From -- ./inp_files/48609.got.cif
#   From: 2010.05.17/outbox.cif.g08.bks.cpg/sg64_25_cif.got.tgz:48609.got - 2010.06.03 16:29:19.
