data_PCOD9478649
_publ_section_title
;
Structure prediction by ZEFSAII (Michael W. Deem and Ramdas Pophale) SiO2 
 PCOD9478649
Probable space group: C M C A
;
_chemical_formula_sum "Si O2"
_cell_formula_units_Z 116
_cell_length_a 9.481347
_cell_length_b 24.053547
_cell_length_c 29.012957
_cell_angle_alpha 90.000000
_cell_angle_beta 90.000000
_cell_angle_gamma 90.000000
_cell_volume 6616.695719
_symmetry_space_group_name_H-M "C M C A"
_symmetry_group_IT_number 64
_symmetry_cell_setting 'orthorhombic'
loop_
_space_group_symop_operation_xyz
x,y,z
-x,1/2-y,1/2+z
x,-y,-z
-x,1/2+y,1/2-z
-x,-y,-z
x,1/2+y,1/2-z
-x,y,z
x,1/2-y,1/2+z
1/2+x,1/2+y,z
1/2-x,-y,1/2+z
1/2+x,1/2-y,-z
1/2-x,y,1/2-z
1/2-x,1/2-y,-z
1/2+x,y,1/2-z
1/2-x,1/2+y,z
1/2+x,-y,1/2+z
loop_
_atom_site_type_symbol
_atom_site_label
_atom_site_fract_x
_atom_site_fract_y
_atom_site_fract_z
Si Si1 0.168778 0.771042 0.954402
Si Si2 0.834197 0.360334 0.294740
Si Si3 0.332783 0.992983 0.296010
Si Si4 0.164518 0.185993 0.894798
Si Si5 0.159697 0.982028 0.616019
Si Si6 0.000000 0.500000 0.500000
Si Si7 0.259472 0.076042 0.548747
Si Si8 0.842465 0.879700 0.546126
O O1 0.229757 0.731922 0.914343
O O2 0.222219 0.833843 0.947321
O O3 0.000000 0.767580 0.959182
O O4 0.250000 0.750000 0.000000
O O5 0.750000 0.341186 0.250000
O O6 0.808771 0.426410 0.300975
O O7 0.800342 0.329742 0.342267
O O8 0.000000 0.353564 0.286152
O O9 0.500000 0.002470 0.291949
O O10 0.250000 0.010873 0.250000
O O11 0.268798 0.019493 0.342055
O O12 0.180741 0.130188 0.925334
O O13 0.000000 0.203740 0.897617
O O14 0.177824 0.930450 0.581319
O O15 0.000000 0.981117 0.634380
O O16 0.181239 0.037610 0.585915
O O17 0.878546 0.537583 0.526064
O O18 0.167341 0.097371 0.505867
O O19 0.000000 0.855917 0.553347
#
# Coordination Sequence:
#
# PCOD9478649 Si02
#       8
#    16  16  16  16  16   4  16  16
#     4  12  26  40  59  83 113 153 198 244 292 345
#     4   9  19  35  56  84 115 149 186 233 287 345
#     4  10  20  35  56  84 118 151 190 232 287 350
#     4  11  22  38  59  84 118 155 194 241 292 343
#     4  11  23  37  57  85 118 154 191 238 292 346
#     4  12  24  32  54  92 120 164 198 240 282 352
#     4  12  22  34  57  83 122 156 197 236 288 343
#     4  11  24  41  58  81 116 157 201 243 289 342
#
# _framework density 17.531409
#
# number of rings (size 3 to 8) (size 9 to 14) (size 15 to 20)
#    0.000    1.103    4.828    2.069    1.931    3.310 
#    0.000    0.000    0.000    0.828    0.000    3.862 
#    0.000    0.000    0.000    0.000    0.000    0.000 
#
# Total GULP energy -323397.811636 kJ/mol
# GULP energy per Si atom -5575.824339 kJ/mol
# Density = 1.749151 g / cm^3
# Si number density = 17.531409 Si / 1000 Ang^3
#
#
#
# Elastic Constant Matrix: (Units=GPa)
#
#
# Indices 1 2 3 4 5 6 
#
# 1 116.4508 36.4104 57.8029 0.0000 0.0000 0.0000
# 2 36.4104 47.8583 27.2910 0.0000 0.0000 0.0000
# 3 57.8029 27.2910 121.9552 0.0000 0.0000 0.0000
# 4 0.0000 0.0000 0.0000 15.9660 0.0000 0.0000
# 5 0.0000 0.0000 0.0000 0.0000 15.8274 0.0000
# 6 0.0000 0.0000 0.0000 0.0000 0.0000 -40.9417
#
#
#
# Elastic Compliance Matrix: (Units=1/GPa)
#
#
# Indices 1 2 3 4 5 6 
#
# 1 0.013183 -0.007412 -0.004590 0.000000 0.000000 0.000000
# 2 -0.007412 0.028119 -0.002779 0.000000 0.000000 0.000000
# 3 -0.004590 -0.002779 0.010997 0.000000 0.000000 0.000000
# 4 0.000000 0.000000 0.000000 0.062633 0.000000 0.000000
# 5 0.000000 0.000000 0.000000 0.000000 0.063181 0.000000
# 6 0.000000 0.000000 0.000000 0.000000 0.000000 -0.024425
#
#
# Mechanical properties :
#
#
# Convention : Reuss Voigt Hill
#
# Bulk Modulus (GPa) = 43.98167 58.80808 51.39488
# Shear Modulus (GPa) = 26.20127 9.15434 17.67780
#
# Velocity S-wave (km/s) = 3.87011 2.28758 3.17890
# Velocity P-wave (km/s) = 6.71656 6.37139 6.54625
#
# Compressibility (1/GPa) = 0.02273674
#
# Stress axis : x y z
#
# Youngs Moduli (GPa) = 75.85462 35.56287 90.93389
#
# Poissons Ratio (x) = 0.26361 0.41735
# Poissons Ratio (y) = 0.56227 0.25273
# Poissons Ratio (z) = 0.34814 0.09884
#
# Static dielectric constant tensor:
#      x y z
#    x 1.600950 0.000000 0.000000 
#    y 0.000000 1.588380 0.000000 
#    z 0.000000 0.000000 1.587050 
# 
# From -- ./inp_files/48553.got.cif
#   From: 2010.05.17/outbox.cif.g08.bks.cpg/sg64_25_cif.got.tgz:48553.got - 2010.06.03 16:29:19.
