data_PCOD9478235
_publ_section_title
;
Structure prediction by ZEFSAII (Michael W. Deem and Ramdas Pophale) SiO2 
 PCOD9478235
Probable space group: C M C A
;
_chemical_formula_sum "Si O2"
_cell_formula_units_Z 96
_cell_length_a 11.273114
_cell_length_b 18.869656
_cell_length_c 23.731609
_cell_angle_alpha 90.000000
_cell_angle_beta 90.000000
_cell_angle_gamma 90.000000
_cell_volume 5048.182722
_symmetry_space_group_name_H-M "C M C A"
_symmetry_group_IT_number 64
_symmetry_cell_setting 'orthorhombic'
loop_
_space_group_symop_operation_xyz
x,y,z
-x,1/2-y,1/2+z
x,-y,-z
-x,1/2+y,1/2-z
-x,-y,-z
x,1/2+y,1/2-z
-x,y,z
x,1/2-y,1/2+z
1/2+x,1/2+y,z
1/2-x,-y,1/2+z
1/2+x,1/2-y,-z
1/2-x,y,1/2-z
1/2-x,1/2-y,-z
1/2+x,y,1/2-z
1/2-x,1/2+y,z
1/2+x,-y,1/2+z
loop_
_atom_site_type_symbol
_atom_site_label
_atom_site_fract_x
_atom_site_fract_y
_atom_site_fract_z
Si Si1 0.863171 0.265280 0.364801
Si Si2 0.363109 0.100294 0.710673
Si Si3 0.500000 0.458908 0.409316
Si Si4 0.744410 0.356399 0.579802
Si Si5 0.365308 0.626603 0.968146
Si Si6 0.000000 0.609998 0.025179
Si Si7 0.743167 0.980417 0.389956
O O1 0.846797 0.320138 0.313877
O O2 0.770893 0.201450 0.371519
O O3 0.849676 0.312525 0.421459
O O4 0.000000 0.239882 0.361503
O O5 0.500000 0.093764 0.731649
O O6 0.250000 0.084948 0.750000
O O7 0.346333 0.049257 0.656434
O O8 0.500000 0.399947 0.458172
O O9 0.500000 0.533138 0.444064
O O10 0.378193 0.458481 0.375148
O O11 0.838146 0.345042 0.530176
O O12 0.618624 0.353458 0.546828
O O13 0.762919 0.435681 0.602553
O O14 0.500000 0.601415 0.965164
O O15 0.284094 0.560810 0.948474
#
# Coordination Sequence:
#
# PCOD9478235 Si02
#       7
#    16  16   8  16  16   8  16
#     4   9  19  36  55  78 112 148 188 228 275 331
#     4  10  23  44  65  83 105 142 187 237 293 347
#     4   9  16  28  46  81 112 146 185 215 262 320
#     4  11  18  31  53  81 115 149 183 226 268 327
#     4  10  20  32  48  76 116 162 192 218 266 325
#     4   9  16  26  46  77 114 148 182 214 256 309
#     4  10  20  32  55  83 112 144 184 232 281 329
#
# _framework density 19.016743999999999
#
# number of rings (size 3 to 8) (size 9 to 14) (size 15 to 20)
#    0.000    2.167    2.500    2.500    1.167    2.000 
#    0.000    1.667    0.000    2.000    0.000    0.000 
#    0.000    0.000    0.000    0.000    0.000    0.000 
#
# Total GULP energy -267579.853572 kJ/mol
# GULP energy per Si atom -5574.580283 kJ/mol
# Density = 1.897346 g / cm^3
# Si number density = 19.016744 Si / 1000 Ang^3
#
#
#
# Elastic Constant Matrix: (Units=GPa)
#
#
# Indices 1 2 3 4 5 6 
#
# 1 85.3273 16.3246 12.9593 0.0000 0.0000 0.0000
# 2 16.3246 41.0578 -1.5789 0.0000 0.0000 0.0000
# 3 12.9593 -1.5789 33.8121 0.0000 0.0000 0.0000
# 4 0.0000 0.0000 0.0000 13.5060 0.0000 0.0000
# 5 0.0000 0.0000 0.0000 0.0000 29.1764 0.0000
# 6 0.0000 0.0000 0.0000 0.0000 0.0000 19.0253
#
#
#
# Elastic Compliance Matrix: (Units=1/GPa)
#
#
# Indices 1 2 3 4 5 6 
#
# 1 0.013630 -0.005630 -0.005487 0.000000 0.000000 0.000000
# 2 -0.005630 0.026725 0.003406 0.000000 0.000000 0.000000
# 3 -0.005487 0.003406 0.031837 0.000000 0.000000 0.000000
# 4 0.000000 0.000000 0.000000 0.074041 0.000000 0.000000
# 5 0.000000 0.000000 0.000000 0.000000 0.034274 0.000000
# 6 0.000000 0.000000 0.000000 0.000000 0.000000 0.052562
#
#
# Mechanical properties :
#
#
# Convention : Reuss Voigt Hill
#
# Bulk Modulus (GPa) = 17.61491 23.95637 20.78564
# Shear Modulus (GPa) = 18.69746 21.17435 19.93590
#
# Velocity S-wave (km/s) = 3.13902 3.34047 3.24131
# Velocity P-wave (km/s) = 4.73507 5.24435 4.99620
#
# Compressibility (1/GPa) = 0.05677007
#
# Stress axis : x y z
#
# Youngs Moduli (GPa) = 73.36695 37.41745 31.40976
#
# Poissons Ratio (x) = 0.21067 0.17234
# Poissons Ratio (y) = 0.41308 -0.10698
# Poissons Ratio (z) = 0.40256 -0.12744
#
# Static dielectric constant tensor:
#      x y z
#    x 1.682500 0.000000 0.000000 
#    y 0.000000 1.682520 0.000000 
#    z 0.000000 0.000000 1.671840 
# 
# From -- ./inp_files/44361.got.cif
#   From: 2010.05.17/outbox.cif.g08.bks.cpg/sg64_23_cif.got.tgz:44361.got - 2010.06.03 16:29:19.
