data_PCOD9478793
_publ_section_title
;
Structure prediction by ZEFSAII (Michael W. Deem and Ramdas Pophale) SiO2 
 PCOD9478793
Probable space group: C M C A
;
_chemical_formula_sum "Si O2"
_cell_formula_units_Z 80
_cell_length_a 8.776551
_cell_length_b 19.458194
_cell_length_c 26.533911
_cell_angle_alpha 90.000000
_cell_angle_beta 90.000000
_cell_angle_gamma 90.000000
_cell_volume 4531.350727
_symmetry_space_group_name_H-M "C M C A"
_symmetry_group_IT_number 64
_symmetry_cell_setting 'orthorhombic'
loop_
_space_group_symop_operation_xyz
x,y,z
-x,1/2-y,1/2+z
x,-y,-z
-x,1/2+y,1/2-z
-x,-y,-z
x,1/2+y,1/2-z
-x,y,z
x,1/2-y,1/2+z
1/2+x,1/2+y,z
1/2-x,-y,1/2+z
1/2+x,1/2-y,-z
1/2-x,y,1/2-z
1/2-x,1/2-y,-z
1/2+x,y,1/2-z
1/2-x,1/2+y,z
1/2+x,-y,1/2+z
loop_
_atom_site_type_symbol
_atom_site_label
_atom_site_fract_x
_atom_site_fract_y
_atom_site_fract_z
Si Si1 0.316132 0.077315 0.394306
Si Si2 0.318177 0.668445 0.803745
Si Si3 0.175361 0.916714 0.004958
Si Si4 0.180109 0.574894 0.890570
Si Si5 0.317195 0.679784 0.196680
O O1 0.500000 0.066210 0.395735
O O2 0.274173 0.107257 0.449497
O O3 0.280861 0.128561 0.348918
O O4 0.236377 0.003971 0.387241
O O5 0.500000 0.670625 0.800588
O O6 0.250000 0.645069 0.750000
O O7 0.264060 0.619271 0.848339
O O8 0.253302 0.745080 0.812416
O O9 0.274804 0.899249 0.053410
O O10 0.000000 0.895991 0.014013
O O11 0.176904 0.000000 0.000000
O O12 0.000000 0.578769 0.883495
O O13 0.500000 0.685869 0.200643
O O14 0.250000 0.654746 0.250000
#
# Coordination Sequence:
#
# PCOD9478793 Si02
#       5
#    16  16  16  16  16
#     4   9  19  35  55  78 107 141 175 215 261 309
#     4  11  22  38  57  76 103 138 175 214 261 312
#     4   8  15  31  52  74 103 139 174 211 261 310
#     4  11  21  33  53  81 109 137 174 217 259 308
#     4  10  20  36  56  78 105 137 173 212 259 312
#
# _framework density 17.654781
#
# number of rings (size 3 to 8) (size 9 to 14) (size 15 to 20)
#    0.000    2.200    0.000    6.600    0.000    6.000 
#    0.000    3.000    0.000    0.000    0.000    0.000 
#    0.000    0.000    0.000    0.000    0.000    0.000 
#
# Total GULP energy -223190.870488 kJ/mol
# GULP energy per Si atom -5579.771762 kJ/mol
# Density = 1.761460 g / cm^3
# Si number density = 17.654781 Si / 1000 Ang^3
#
#
#
# Elastic Constant Matrix: (Units=GPa)
#
#
# Indices 1 2 3 4 5 6 
#
# 1 102.4739 38.3792 71.2006 0.0000 0.0000 0.0000
# 2 38.3792 43.2597 68.1937 0.0000 0.0000 0.0000
# 3 71.2006 68.1937 170.0735 0.0000 0.0000 0.0000
# 4 0.0000 0.0000 0.0000 -157.1043 0.0000 0.0000
# 5 0.0000 0.0000 0.0000 0.0000 29.8940 0.0000
# 6 0.0000 0.0000 0.0000 0.0000 0.0000 24.3932
#
#
#
# Elastic Compliance Matrix: (Units=1/GPa)
#
#
# Indices 1 2 3 4 5 6 
#
# 1 0.015016 -0.009274 -0.002568 0.000000 0.000000 0.000000
# 2 -0.009274 0.068557 -0.023606 0.000000 0.000000 0.000000
# 3 -0.002568 -0.023606 0.016420 0.000000 0.000000 0.000000
# 4 0.000000 0.000000 0.000000 -0.006365 0.000000 0.000000
# 5 0.000000 0.000000 0.000000 0.000000 0.033451 0.000000
# 6 0.000000 0.000000 0.000000 0.000000 0.000000 0.040995
#
#
# Mechanical properties :
#
#
# Convention : Reuss Voigt Hill
#
# Bulk Modulus (GPa) = 34.36858 74.59488 54.48173
# Shear Modulus (GPa) = 20.10698 -11.36118 4.37290
#
# Velocity S-wave (km/s) = 3.37842 -2.53952 1.57552
# Velocity P-wave (km/s) = 5.89301 5.80903 5.85117
#
# Compressibility (1/GPa) = 0.02909634
#
# Stress axis : x y z
#
# Youngs Moduli (GPa) = 66.59479 14.58647 60.90077
#
# Poissons Ratio (x) = 0.13528 0.15638
# Poissons Ratio (y) = 0.61761 1.43764
# Poissons Ratio (z) = 0.17100 0.34433
#
# Static dielectric constant tensor:
#      x y z
#    x 1.590180 0.000000 0.000000 
#    y 0.000000 1.571340 0.000000 
#    z 0.000000 0.000000 1.623250 
# 
# From -- ./inp_files/47897.got.cif
#   From: 2010.05.17/outbox.cif.g08.bks.cpg/sg64_24_cif.got.tgz:47897.got - 2010.06.03 16:29:19.
