data_PCOD9478132
_publ_section_title
;
Structure prediction by ZEFSAII (Michael W. Deem and Ramdas Pophale) SiO2 
 PCOD9478132
Probable space group: C M C A
;
_chemical_formula_sum "Si O2"
_cell_formula_units_Z 72
_cell_length_a 15.305863
_cell_length_b 10.320326
_cell_length_c 20.230581
_cell_angle_alpha 90.000000
_cell_angle_beta 90.000000
_cell_angle_gamma 90.000000
_cell_volume 3195.652837
_symmetry_space_group_name_H-M "C M C A"
_symmetry_group_IT_number 64
_symmetry_cell_setting 'orthorhombic'
loop_
_space_group_symop_operation_xyz
x,y,z
-x,1/2-y,1/2+z
x,-y,-z
-x,1/2+y,1/2-z
-x,-y,-z
x,1/2+y,1/2-z
-x,y,z
x,1/2-y,1/2+z
1/2+x,1/2+y,z
1/2-x,-y,1/2+z
1/2+x,1/2-y,-z
1/2-x,y,1/2-z
1/2-x,1/2-y,-z
1/2+x,y,1/2-z
1/2-x,1/2+y,z
1/2+x,-y,1/2+z
loop_
_atom_site_type_symbol
_atom_site_label
_atom_site_fract_x
_atom_site_fract_y
_atom_site_fract_z
Si Si1 0.106665 0.201552 0.676572
Si Si2 0.262946 0.700997 0.074387
Si Si3 0.595356 0.830161 0.386766
Si Si4 0.152086 0.500000 0.500000
Si Si5 0.897478 0.028244 0.235106
O O1 0.155182 0.229288 0.608295
O O2 0.134175 0.326503 0.721212
O O3 0.138356 0.067166 0.708707
O O4 0.000000 0.203010 0.671344
O O5 0.175648 0.731304 0.114470
O O6 0.250000 0.750000 0.000000
O O7 0.287914 0.554106 0.059136
O O8 0.500000 0.770364 0.374779
O O9 0.596770 0.894478 0.460071
O O10 0.606505 0.942138 0.331865
O O11 0.000000 0.043096 0.250312
#
# Coordination Sequence:
#
# PCOD9478132 Si02
#       5
#    16  16  16   8  16
#     4  10  20  40  66  98 134 174 219 280 341 400
#     4  10  22  37  59  94 129 167 223 277 325 396
#     4  10  20  37  61  91 126 170 221 272 322 393
#     4  10  19  38  63  88 122 172 229 276 323 396
#     4   9  19  37  64  96 129 167 219 270 331 407
#
# _framework density 22.530608000000001
#
# number of rings (size 3 to 8) (size 9 to 14) (size 15 to 20)
#    0.000    2.222    2.222    0.333    0.000    4.444 
#    8.000    2.778    0.000    0.000    0.000    0.000 
#    0.000    0.000    0.000    0.000    0.000    0.000 
#
# Total GULP energy -200761.078394 kJ/mol
# GULP energy per Si atom -5576.696622 kJ/mol
# Density = 2.247933 g / cm^3
# Si number density = 22.530608 Si / 1000 Ang^3
#
#
#
# Elastic Constant Matrix: (Units=GPa)
#
#
# Indices 1 2 3 4 5 6 
#
# 1 85.4793 26.6916 10.2154 0.0000 0.0000 0.0000
# 2 26.6916 65.9020 25.3102 0.0000 0.0000 0.0000
# 3 10.2154 25.3102 85.7276 0.0000 0.0000 0.0000
# 4 0.0000 0.0000 0.0000 49.6434 0.0000 0.0000
# 5 0.0000 0.0000 0.0000 0.0000 33.4762 0.0000
# 6 0.0000 0.0000 0.0000 0.0000 0.0000 20.3698
#
#
#
# Elastic Compliance Matrix: (Units=1/GPa)
#
#
# Indices 1 2 3 4 5 6 
#
# 1 0.013392 -0.005427 0.000006 0.000000 0.000000 0.000000
# 2 -0.005427 0.019314 -0.005056 0.000000 0.000000 0.000000
# 3 0.000006 -0.005056 0.013157 0.000000 0.000000 0.000000
# 4 0.000000 0.000000 0.000000 0.020144 0.000000 0.000000
# 5 0.000000 0.000000 0.000000 0.000000 0.029872 0.000000
# 6 0.000000 0.000000 0.000000 0.000000 0.000000 0.049092
#
#
# Mechanical properties :
#
#
# Convention : Reuss Voigt Hill
#
# Bulk Modulus (GPa) = 40.14279 40.17147 40.15713
# Shear Modulus (GPa) = 28.69836 32.35734 30.52785
#
# Velocity S-wave (km/s) = 3.57284 3.79377 3.68496
# Velocity P-wave (km/s) = 5.90558 6.08758 5.99727
#
# Compressibility (1/GPa) = 0.02491107
#
# Stress axis : x y z
#
# Youngs Moduli (GPa) = 74.66870 51.77709 76.00691
#
# Poissons Ratio (x) = 0.28098 -0.00048
# Poissons Ratio (y) = 0.40520 0.38425
# Poissons Ratio (z) = -0.00047 0.26176
#
# Static dielectric constant tensor:
#      x y z
#    x 1.898410 0.000000 0.000000 
#    y 0.000000 2.013040 0.000000 
#    z 0.000000 0.000000 1.837230 
# 
# From -- ./inp_files/32872.got.cif
#   From: 2010.05.17/outbox.cif.g08.bks.cpg/sg64_17_cif.got.tgz:32872.got - 2010.06.03 16:29:19.
