data_PCOD9478662
_publ_section_title
;
Structure prediction by ZEFSAII (Michael W. Deem and Ramdas Pophale) SiO2 
 PCOD9478662
Probable space group: C M C A
;
_chemical_formula_sum "Si O2"
_cell_formula_units_Z 80
_cell_length_a 25.667971
_cell_length_b 11.606318
_cell_length_c 13.512084
_cell_angle_alpha 90.000000
_cell_angle_beta 90.000000
_cell_angle_gamma 90.000000
_cell_volume 4025.393509
_symmetry_space_group_name_H-M "C M C A"
_symmetry_group_IT_number 64
_symmetry_cell_setting 'orthorhombic'
loop_
_space_group_symop_operation_xyz
x,y,z
-x,1/2-y,1/2+z
x,-y,-z
-x,1/2+y,1/2-z
-x,-y,-z
x,1/2+y,1/2-z
-x,y,z
x,1/2-y,1/2+z
1/2+x,1/2+y,z
1/2-x,-y,1/2+z
1/2+x,1/2-y,-z
1/2-x,y,1/2-z
1/2-x,1/2-y,-z
1/2+x,y,1/2-z
1/2-x,1/2+y,z
1/2+x,-y,1/2+z
loop_
_atom_site_type_symbol
_atom_site_label
_atom_site_fract_x
_atom_site_fract_y
_atom_site_fract_z
Si Si1 0.844014 0.595188 0.924726
Si Si2 0.644567 0.444928 0.753023
Si Si3 0.136827 0.740334 0.591826
Si Si4 0.229662 0.919760 0.148028
Si Si5 0.059193 0.461187 0.386317
O O1 0.861616 0.560666 0.815292
O O2 0.781467 0.577491 0.917166
O O3 0.865416 0.500000 0.000000
O O4 0.861089 0.709953 0.980150
O O5 0.645024 0.339782 0.675446
O O6 0.698553 0.465473 0.814068
O O7 0.596025 0.451149 0.825994
O O8 0.185749 0.655452 0.598224
O O9 0.086260 0.664443 0.615027
O O10 0.250000 0.863658 0.250000
O O11 0.059075 0.500000 0.500000
O O12 0.000000 0.459133 0.349183
#
# Coordination Sequence:
#
# PCOD9478662 Si02
#       5
#    16  16  16  16  16
#     4   9  18  33  53  81 114 147 182 220 265 323
#     4   9  20  37  54  79 112 143 182 228 272 330
#     4  10  20  35  57  82 113 150 188 226 274 329
#     4   9  18  30  48  79 114 150 185 219 260 315
#     4  10  23  41  59  81 106 137 184 240 293 339
#
# _framework density 19.873833999999999
#
# number of rings (size 3 to 8) (size 9 to 14) (size 15 to 20)
#    0.000    2.600    0.000    0.600    0.000   12.800 
#    0.000    5.000    0.000    3.600    0.000    0.000 
#    0.000    0.000    0.000    0.000    0.000    0.000 
#
# Total GULP energy -222739.866107 kJ/mol
# GULP energy per Si atom -5568.496653 kJ/mol
# Density = 1.982860 g / cm^3
# Si number density = 19.873834 Si / 1000 Ang^3
#
#
#
# Elastic Constant Matrix: (Units=GPa)
#
#
# Indices 1 2 3 4 5 6 
#
# 1 80.3812 2.9574 14.0239 0.0000 0.0000 0.0000
# 2 2.9574 51.5887 10.5740 0.0000 0.0000 0.0000
# 3 14.0239 10.5740 40.8759 0.0000 0.0000 0.0000
# 4 0.0000 0.0000 0.0000 12.2059 0.0000 0.0000
# 5 0.0000 0.0000 0.0000 0.0000 28.2068 0.0000
# 6 0.0000 0.0000 0.0000 0.0000 0.0000 8.3239
#
#
#
# Elastic Compliance Matrix: (Units=1/GPa)
#
#
# Indices 1 2 3 4 5 6 
#
# 1 0.013234 0.000182 -0.004588 0.000000 0.000000 0.000000
# 2 0.000182 0.020472 -0.005358 0.000000 0.000000 0.000000
# 3 -0.004588 -0.005358 0.027424 0.000000 0.000000 0.000000
# 4 0.000000 0.000000 0.000000 0.081928 0.000000 0.000000
# 5 0.000000 0.000000 0.000000 0.000000 0.035452 0.000000
# 6 0.000000 0.000000 0.000000 0.000000 0.000000 0.120136
#
#
# Mechanical properties :
#
#
# Convention : Reuss Voigt Hill
#
# Bulk Modulus (GPa) = 24.03698 25.32850 24.68274
# Shear Modulus (GPa) = 15.05833 19.43335 17.24584
#
# Velocity S-wave (km/s) = 2.75561 3.13043 2.94898
# Velocity P-wave (km/s) = 4.71652 5.08315 4.90327
#
# Compressibility (1/GPa) = 0.04160257
#
# Stress axis : x y z
#
# Youngs Moduli (GPa) = 75.56061 48.84744 36.46407
#
# Poissons Ratio (x) = -0.00887 0.16728
# Poissons Ratio (y) = -0.01372 0.19538
# Poissons Ratio (z) = 0.34663 0.26173
#
# Static dielectric constant tensor:
#      x y z
#    x 1.687280 0.000000 0.000000 
#    y 0.000000 1.761900 0.000000 
#    z 0.000000 0.000000 1.725700 
# 
# From -- ./inp_files/27065.got.cif
#   From: 2010.05.17/outbox.cif.g08.bks.cpg/sg64_14_cif.got.tgz:27065.got - 2010.06.03 16:29:19.
