data_PCOD9478812
_publ_section_title
;
Structure prediction by ZEFSAII (Michael W. Deem and Ramdas Pophale) SiO2 
 PCOD9478812
Probable space group: C M C A
;
_chemical_formula_sum "Si O2"
_cell_formula_units_Z 116
_cell_length_a 9.185446
_cell_length_b 25.327381
_cell_length_c 25.538794
_cell_angle_alpha 90.000000
_cell_angle_beta 90.000000
_cell_angle_gamma 90.000000
_cell_volume 5941.429071
_symmetry_space_group_name_H-M "C M C A"
_symmetry_group_IT_number 64
_symmetry_cell_setting 'orthorhombic'
loop_
_space_group_symop_operation_xyz
x,y,z
-x,1/2-y,1/2+z
x,-y,-z
-x,1/2+y,1/2-z
-x,-y,-z
x,1/2+y,1/2-z
-x,y,z
x,1/2-y,1/2+z
1/2+x,1/2+y,z
1/2-x,-y,1/2+z
1/2+x,1/2-y,-z
1/2-x,y,1/2-z
1/2-x,1/2-y,-z
1/2+x,y,1/2-z
1/2-x,1/2+y,z
1/2+x,-y,1/2+z
loop_
_atom_site_type_symbol
_atom_site_label
_atom_site_fract_x
_atom_site_fract_y
_atom_site_fract_z
Si Si1 0.174653 0.631335 0.804358
Si Si2 0.668637 0.837538 0.493766
Si Si3 0.674009 0.591454 0.195616
Si Si4 0.834116 0.472192 0.336307
Si Si5 0.205096 0.041944 0.958848
Si Si6 0.177166 0.180642 0.111629
Si Si7 0.500000 0.000000 0.000000
Si Si8 0.177248 0.790178 0.113733
O O1 0.250000 0.647933 0.750000
O O2 0.223318 0.571030 0.814635
O O3 0.249850 0.665764 0.849811
O O4 0.000000 0.637111 0.803485
O O5 0.500000 0.822346 0.498123
O O6 0.674658 0.898386 0.475979
O O7 0.728589 0.831189 0.552124
O O8 0.727506 0.802620 0.446047
O O9 0.500000 0.594199 0.202086
O O10 0.750000 0.605169 0.250000
O O11 0.708944 0.531275 0.179790
O O12 0.713492 0.631795 0.149346
O O13 0.837864 0.467902 0.399248
O O14 0.000000 0.461369 0.317168
O O15 0.374339 0.030074 0.965852
O O16 0.141250 0.000000 0.000000
O O17 0.258683 0.233526 0.129140
O O18 0.000000 0.187118 0.112833
O O19 0.000000 0.792531 0.116679
#
# Coordination Sequence:
#
# PCOD9478812 Si02
#       8
#    16  16  16  16  16  16   4  16
#     4  12  26  43  67  94 128 168 209 265 322 383
#     4  10  20  37  63  91 123 164 209 261 317 386
#     4  10  23  42  63  90 124 165 214 263 316 377
#     4  11  22  39  65  95 127 166 212 262 320 387
#     4  10  20  36  56  86 131 172 210 256 313 379
#     4  10  22  42  63  91 126 167 215 262 317 376
#     4   8  24  36  46  92 136 168 210 260 304 384
#     4  11  23  42  65  96 127 163 214 262 320 386
#
# _framework density 19.523921999999999
#
# number of rings (size 3 to 8) (size 9 to 14) (size 15 to 20)
#    0.414    1.103    1.379    3.724    0.966    4.966 
#    2.483    1.379    0.000    0.000    0.000    0.000 
#    0.000    0.000    0.000    0.000    0.000    0.000 
#
# Total GULP energy -323182.600436 kJ/mol
# GULP energy per Si atom -5572.113801 kJ/mol
# Density = 1.947948 g / cm^3
# Si number density = 19.523922 Si / 1000 Ang^3
#
#
#
# Elastic Constant Matrix: (Units=GPa)
#
#
# Indices 1 2 3 4 5 6 
#
# 1 102.5395 33.0797 40.1256 0.0000 0.0000 0.0000
# 2 33.0797 104.7268 47.6376 0.0000 0.0000 0.0000
# 3 40.1256 47.6376 116.3862 0.0000 0.0000 0.0000
# 4 0.0000 0.0000 0.0000 -4.4261 0.0000 0.0000
# 5 0.0000 0.0000 0.0000 0.0000 35.7378 0.0000
# 6 0.0000 0.0000 0.0000 0.0000 0.0000 -37.3241
#
#
#
# Elastic Compliance Matrix: (Units=1/GPa)
#
#
# Indices 1 2 3 4 5 6 
#
# 1 0.011703 -0.002287 -0.003099 0.000000 0.000000 0.000000
# 2 -0.002287 0.012180 -0.004197 0.000000 0.000000 0.000000
# 3 -0.003099 -0.004197 0.011378 0.000000 0.000000 0.000000
# 4 0.000000 0.000000 0.000000 -0.225934 0.000000 0.000000
# 5 0.000000 0.000000 0.000000 0.000000 0.027982 0.000000
# 6 0.000000 0.000000 0.000000 0.000000 0.000000 -0.026792
#
#
# Mechanical properties :
#
#
# Convention : Reuss Voigt Hill
#
# Bulk Modulus (GPa) = 62.12737 62.81539 62.47138
# Shear Modulus (GPa) = -30.31152 12.31817 -8.99667
#
# Velocity S-wave (km/s) = -3.94449 2.51455 -2.14896
# Velocity P-wave (km/s) = 3.33839 6.37762 5.09013
#
# Compressibility (1/GPa) = 0.01609597
#
# Stress axis : x y z
#
# Youngs Moduli (GPa) = 85.45066 82.10093 87.88756
#
# Poissons Ratio (x) = 0.18777 0.27232
# Poissons Ratio (y) = 0.19543 0.36886
# Poissons Ratio (z) = 0.26477 0.34457
#
# Static dielectric constant tensor:
#      x y z
#    x 1.667340 0.000000 0.000000 
#    y 0.000000 1.684180 0.000000 
#    z 0.000000 0.000000 1.767340 
# 
# From -- ./inp_files/43396.got.cif
#   From: 2010.05.17/outbox.cif.g08.bks.cpg/sg64_22_cif.got.tgz:43396.got - 2010.06.03 16:29:19.
