data_PCOD9478502
_publ_section_title
;
Structure prediction by ZEFSAII (Michael W. Deem and Ramdas Pophale) SiO2 
 PCOD9478502
Probable space group: C M C A
;
_chemical_formula_sum "Si O2"
_cell_formula_units_Z 80
_cell_length_a 15.619686
_cell_length_b 12.308906
_cell_length_c 19.448774
_cell_angle_alpha 90.000000
_cell_angle_beta 90.000000
_cell_angle_gamma 90.000000
_cell_volume 3739.245536
_symmetry_space_group_name_H-M "C M C A"
_symmetry_group_IT_number 64
_symmetry_cell_setting 'orthorhombic'
loop_
_space_group_symop_operation_xyz
x,y,z
-x,1/2-y,1/2+z
x,-y,-z
-x,1/2+y,1/2-z
-x,-y,-z
x,1/2+y,1/2-z
-x,y,z
x,1/2-y,1/2+z
1/2+x,1/2+y,z
1/2-x,-y,1/2+z
1/2+x,1/2-y,-z
1/2-x,y,1/2-z
1/2-x,1/2-y,-z
1/2+x,y,1/2-z
1/2-x,1/2+y,z
1/2+x,-y,1/2+z
loop_
_atom_site_type_symbol
_atom_site_label
_atom_site_fract_x
_atom_site_fract_y
_atom_site_fract_z
Si Si1 0.596288 0.111684 0.164309
Si Si2 0.093368 0.633237 0.857266
Si Si3 0.823642 0.110710 0.968927
Si Si4 0.230809 0.303810 0.324544
Si Si5 0.370932 0.843409 0.991367
O O1 0.500000 0.138866 0.189463
O O2 0.669454 0.198882 0.184648
O O3 0.612751 0.983802 0.177775
O O4 0.595666 0.119481 0.081526
O O5 0.171626 0.716822 0.849206
O O6 0.090196 0.612818 0.938994
O O7 0.000000 0.670513 0.833469
O O8 0.808429 0.122546 0.886264
O O9 0.729987 0.127415 0.003594
O O10 0.879007 0.213591 0.990329
O O11 0.858177 0.000000 0.000000
O O12 0.250000 0.353482 0.250000
#
# Coordination Sequence:
#
# PCOD9478502 Si02
#       5
#    16  16  16  16  16
#     4  10  20  35  57  83 111 146 186 231 285 343
#     4  10  20  34  56  84 110 142 190 238 278 329
#     4   9  17  31  53  81 114 149 189 239 292 342
#     4  10  22  37  56  81 115 154 191 233 289 351
#     4   9  16  28  52  81 107 139 181 231 282 333
#
# _framework density 21.394689
#
# number of rings (size 3 to 8) (size 9 to 14) (size 15 to 20)
#    0.000    2.400    0.000    4.800    0.000    3.200 
#    0.000    0.000    0.000   21.000    0.000    0.000 
#    0.000    0.000    0.000    0.000    0.000    0.000 
#
# Total GULP energy -222738.320210 kJ/mol
# GULP energy per Si atom -5568.458005 kJ/mol
# Density = 2.134599 g / cm^3
# Si number density = 21.394689 Si / 1000 Ang^3
#
#
#
# Elastic Constant Matrix: (Units=GPa)
#
#
# Indices 1 2 3 4 5 6 
#
# 1 118.0932 40.1300 1.7038 0.0000 0.0000 0.0000
# 2 40.1300 120.9658 22.7297 0.0000 0.0000 0.0000
# 3 1.7038 22.7297 70.7742 0.0000 0.0000 0.0000
# 4 0.0000 0.0000 0.0000 6.0874 0.0000 0.0000
# 5 0.0000 0.0000 0.0000 0.0000 -7.6354 0.0000
# 6 0.0000 0.0000 0.0000 0.0000 0.0000 23.3519
#
#
#
# Elastic Compliance Matrix: (Units=1/GPa)
#
#
# Indices 1 2 3 4 5 6 
#
# 1 0.009591 -0.003340 0.000842 0.000000 0.000000 0.000000
# 2 -0.003340 0.009961 -0.003119 0.000000 0.000000 0.000000
# 3 0.000842 -0.003119 0.015111 0.000000 0.000000 0.000000
# 4 0.000000 0.000000 0.000000 0.164272 0.000000 0.000000
# 5 0.000000 0.000000 0.000000 0.000000 -0.130969 0.000000
# 6 0.000000 0.000000 0.000000 0.000000 0.000000 0.042823
#
#
# Mechanical properties :
#
#
# Convention : Reuss Voigt Hill
#
# Bulk Modulus (GPa) = 42.68249 48.77335 45.72792
# Shear Modulus (GPa) = 38.51149 20.71211 29.61180
#
# Velocity S-wave (km/s) = 4.24730 3.11480 3.72435
# Velocity P-wave (km/s) = 6.63672 5.98184 6.31777
#
# Compressibility (1/GPa) = 0.02342881
#
# Stress axis : x y z
#
# Youngs Moduli (GPa) = 104.26792 100.39390 66.17809
#
# Poissons Ratio (x) = 0.33530 -0.05570
# Poissons Ratio (y) = 0.34824 0.20638
# Poissons Ratio (z) = -0.08777 0.31309
#
# Static dielectric constant tensor:
#      x y z
#    x 1.857340 0.000000 0.000000 
#    y 0.000000 1.838610 0.000000 
#    z 0.000000 0.000000 1.809400 
# 
# From -- ./inp_files/44946.got.cif
#   From: 2010.05.17/outbox.cif.g08.bks.cpg/sg64_23_cif.got.tgz:44946.got - 2010.06.03 16:29:19.
