data_PCOD9478271
_publ_section_title
;
Structure prediction by ZEFSAII (Michael W. Deem and Ramdas Pophale) SiO2 
 PCOD9478271
Probable space group: C M C A
;
_chemical_formula_sum "Si O2"
_cell_formula_units_Z 104
_cell_length_a 8.372252
_cell_length_b 28.078993
_cell_length_c 22.188579
_cell_angle_alpha 90.000000
_cell_angle_beta 90.000000
_cell_angle_gamma 90.000000
_cell_volume 5216.188899
_symmetry_space_group_name_H-M "C M C A"
_symmetry_group_IT_number 64
_symmetry_cell_setting 'orthorhombic'
loop_
_space_group_symop_operation_xyz
x,y,z
-x,1/2-y,1/2+z
x,-y,-z
-x,1/2+y,1/2-z
-x,-y,-z
x,1/2+y,1/2-z
-x,y,z
x,1/2-y,1/2+z
1/2+x,1/2+y,z
1/2-x,-y,1/2+z
1/2+x,1/2-y,-z
1/2-x,y,1/2-z
1/2-x,1/2-y,-z
1/2+x,y,1/2-z
1/2-x,1/2+y,z
1/2+x,-y,1/2+z
loop_
_atom_site_type_symbol
_atom_site_label
_atom_site_fract_x
_atom_site_fract_y
_atom_site_fract_z
Si Si1 0.691250 0.308444 0.813474
Si Si2 0.805526 0.479348 0.564541
Si Si3 0.250000 0.626960 0.750000
Si Si4 0.176445 0.706024 0.653933
Si Si5 0.807057 0.130343 0.070897
Si Si6 0.316910 0.357538 0.442660
Si Si7 0.188859 0.433931 0.356594
O O1 0.500000 0.304396 0.812827
O O2 0.750000 0.328729 0.750000
O O3 0.765016 0.255983 0.820878
O O4 0.740134 0.340876 0.869784
O O5 0.750288 0.500000 0.500000
O O6 0.755372 0.424912 0.572831
O O7 0.760689 0.514613 0.619021
O O8 0.000000 0.480277 0.563202
O O9 0.166610 0.665869 0.706271
O O10 0.294006 0.589416 0.696792
O O11 0.292846 0.686480 0.602486
O O12 0.000000 0.711064 0.627588
O O13 0.000000 0.131171 0.066986
O O14 0.736563 0.152637 0.010195
O O15 0.500000 0.373230 0.441447
O O16 0.207505 0.399039 0.414058
O O17 0.000000 0.434173 0.338209
#
# Coordination Sequence:
#
# PCOD9478271 Si02
#       7
#    16  16   8  16  16  16  16
#     4  11  24  41  63  88 118 158 203 247 294 351
#     4   9  16  33  64  88 109 151 204 243 285 351
#     4  10  20  32  56  90 116 146 188 248 294 352
#     4  11  23  40  64  87 118 158 199 244 297 362
#     4  10  21  40  63  87 117 159 206 246 289 353
#     4  11  22  35  58  92 125 153 190 246 304 355
#     4  10  20  36  59  86 119 159 199 241 294 358
#
# _framework density 19.937929
#
# number of rings (size 3 to 8) (size 9 to 14) (size 15 to 20)
#    0.000    1.692    2.308    3.692    0.000    7.385 
#    1.385    1.538    0.000    0.000    0.000    0.000 
#    0.000    0.000    0.000    0.000    0.000    0.000 
#
# Total GULP energy -289865.471231 kJ/mol
# GULP energy per Si atom -5574.335985 kJ/mol
# Density = 1.989255 g / cm^3
# Si number density = 19.937929 Si / 1000 Ang^3
#
#
#
# Elastic Constant Matrix: (Units=GPa)
#
#
# Indices 1 2 3 4 5 6 
#
# 1 38.4278 17.0904 22.2940 0.0000 0.0000 0.0000
# 2 17.0904 88.7066 61.3712 0.0000 0.0000 0.0000
# 3 22.2940 61.3712 147.0964 0.0000 0.0000 0.0000
# 4 0.0000 0.0000 0.0000 25.0529 0.0000 0.0000
# 5 0.0000 0.0000 0.0000 0.0000 25.1418 0.0000
# 6 0.0000 0.0000 0.0000 0.0000 0.0000 3.4758
#
#
#
# Elastic Compliance Matrix: (Units=1/GPa)
#
#
# Indices 1 2 3 4 5 6 
#
# 1 0.029336 -0.003621 -0.002935 0.000000 0.000000 0.000000
# 2 -0.003621 0.016294 -0.006250 0.000000 0.000000 0.000000
# 3 -0.002935 -0.006250 0.009851 0.000000 0.000000 0.000000
# 4 0.000000 0.000000 0.000000 0.039916 0.000000 0.000000
# 5 0.000000 0.000000 0.000000 0.000000 0.039774 0.000000
# 6 0.000000 0.000000 0.000000 0.000000 0.000000 0.287705
#
#
# Mechanical properties :
#
#
# Convention : Reuss Voigt Hill
#
# Bulk Modulus (GPa) = 33.47933 52.86021 43.16977
# Shear Modulus (GPa) = 10.90644 22.29912 16.60278
#
# Velocity S-wave (km/s) = 2.34138 3.34792 2.88883
# Velocity P-wave (km/s) = 4.91301 6.44319 5.72941
#
# Compressibility (1/GPa) = 0.02986917
#
# Stress axis : x y z
#
# Youngs Moduli (GPa) = 34.08751 61.37057 101.51705
#
# Poissons Ratio (x) = 0.22223 0.29800
# Poissons Ratio (y) = 0.12343 0.63443
# Poissons Ratio (z) = 0.10006 0.38354
#
# Static dielectric constant tensor:
#      x y z
#    x 1.693130 0.000000 0.000000 
#    y 0.000000 1.695620 0.000000 
#    z 0.000000 0.000000 1.695690 
# 
# From -- ./inp_files/37405.got.cif
#   From: 2010.05.17/outbox.cif.g08.bks.cpg/sg64_19_cif.got.tgz:37405.got - 2010.06.03 16:29:19.
