data_PCOD9478730
_publ_section_title
;
Structure prediction by ZEFSAII (Michael W. Deem and Ramdas Pophale) SiO2 
 PCOD9478730
Probable space group: C M C A
;
_chemical_formula_sum "Si O2"
_cell_formula_units_Z 116
_cell_length_a 23.488840
_cell_length_b 18.982080
_cell_length_c 13.606626
_cell_angle_alpha 90.000000
_cell_angle_beta 90.000000
_cell_angle_gamma 90.000000
_cell_volume 6066.746059
_symmetry_space_group_name_H-M "C M C A"
_symmetry_group_IT_number 64
_symmetry_cell_setting 'orthorhombic'
loop_
_space_group_symop_operation_xyz
x,y,z
-x,1/2-y,1/2+z
x,-y,-z
-x,1/2+y,1/2-z
-x,-y,-z
x,1/2+y,1/2-z
-x,y,z
x,1/2-y,1/2+z
1/2+x,1/2+y,z
1/2-x,-y,1/2+z
1/2+x,1/2-y,-z
1/2-x,y,1/2-z
1/2-x,1/2-y,-z
1/2+x,y,1/2-z
1/2-x,1/2+y,z
1/2+x,-y,1/2+z
loop_
_atom_site_type_symbol
_atom_site_label
_atom_site_fract_x
_atom_site_fract_y
_atom_site_fract_z
Si Si1 0.663338 0.919716 0.459468
Si Si2 0.500000 0.000000 0.000000
Si Si3 0.564935 0.636938 0.090779
Si Si4 0.356118 0.913645 0.227407
Si Si5 0.935668 0.952235 0.718993
Si Si6 0.789356 0.919611 0.463496
Si Si7 0.935158 0.208777 0.643889
Si Si8 0.910563 0.624731 0.035021
O O1 0.612023 0.877697 0.509445
O O2 0.658151 0.916986 0.341924
O O3 0.726415 0.891606 0.486094
O O4 0.659835 0.000000 0.500000
O O5 0.449329 0.061277 0.992544
O O6 0.500000 0.642496 0.052337
O O7 0.565215 0.573228 0.169364
O O8 0.577678 0.708717 0.149712
O O9 0.303163 0.915719 0.152631
O O10 0.393260 0.844735 0.199336
O O11 0.393273 0.983505 0.204352
O O12 0.921226 0.885859 0.650075
O O13 0.000000 0.975022 0.687551
O O14 0.843694 0.884129 0.514313
O O15 0.790106 0.000000 0.500000
O O16 0.930240 0.191414 0.527170
O O17 0.000000 0.196203 0.676295
#
# Coordination Sequence:
#
# PCOD9478730 Si02
#       8
#    16   4  16  16  16  16  16  16
#     4  11  23  41  60  86 120 167 206 248 297 362
#     4  12  16  28  56  92 120 134 192 248 320 372
#     4  10  24  42  58  84 125 163 207 246 295 369
#     4  11  21  36  61  93 116 156 207 250 305 362
#     4  11  20  33  56  88 121 150 192 253 302 354
#     4  10  20  35  59  91 124 148 197 260 309 353
#     4  10  21  37  59  90 122 156 196 253 312 361
#     4  11  19  32  57  90 119 150 187 250 317 357
#
# _framework density 19.120629000000001
#
# number of rings (size 3 to 8) (size 9 to 14) (size 15 to 20)
#    0.000    1.379    4.828    1.655    0.000    2.483 
#    0.000    6.207    0.000    3.310    0.000    0.000 
#    0.000    0.000    0.000    0.000    0.000    0.000 
#
# Total GULP energy -323060.837723 kJ/mol
# GULP energy per Si atom -5570.014444 kJ/mol
# Density = 1.907711 g / cm^3
# Si number density = 19.120629 Si / 1000 Ang^3
#
#
#
# Elastic Constant Matrix: (Units=GPa)
#
#
# Indices 1 2 3 4 5 6 
#
# 1 119.2965 31.8360 40.0814 0.0000 0.0000 0.0000
# 2 31.8360 54.6740 -3.1580 0.0000 0.0000 0.0000
# 3 40.0814 -3.1580 78.7796 0.0000 0.0000 0.0000
# 4 0.0000 0.0000 0.0000 21.6813 0.0000 0.0000
# 5 0.0000 0.0000 0.0000 0.0000 22.4397 0.0000
# 6 0.0000 0.0000 0.0000 0.0000 0.0000 -2.0324
#
#
#
# Elastic Compliance Matrix: (Units=1/GPa)
#
#
# Indices 1 2 3 4 5 6 
#
# 1 0.012755 -0.007820 -0.006803 0.000000 0.000000 0.000000
# 2 -0.007820 0.023127 0.004906 0.000000 0.000000 0.000000
# 3 -0.006803 0.004906 0.016352 0.000000 0.000000 0.000000
# 4 0.000000 0.000000 0.000000 0.046123 0.000000 0.000000
# 5 0.000000 0.000000 0.000000 0.000000 0.044564 0.000000
# 6 0.000000 0.000000 0.000000 0.000000 0.000000 -0.492017
#
#
# Mechanical properties :
#
#
# Convention : Reuss Voigt Hill
#
# Bulk Modulus (GPa) = 30.48863 43.36321 36.92592
# Shear Modulus (GPa) = -15.68729 20.68377 2.49824
#
# Velocity S-wave (km/s) = -2.86744 3.29257 1.14429
# Velocity P-wave (km/s) = 2.23989 6.09776 4.59346
#
# Compressibility (1/GPa) = 0.03279911
#
# Stress axis : x y z
#
# Youngs Moduli (GPa) = 78.40044 43.23936 61.15647
#
# Poissons Ratio (x) = 0.33813 0.41605
# Poissons Ratio (y) = 0.61309 -0.30002
# Poissons Ratio (z) = 0.53336 -0.21212
#
# Static dielectric constant tensor:
#      x y z
#    x 1.667570 0.000000 0.000000 
#    y 0.000000 1.645480 0.000000 
#    z 0.000000 0.000000 1.564220 
# 
# From -- ./inp_files/27589.got.cif
#   From: 2010.05.17/outbox.cif.g08.bks.cpg/sg64_14_cif.got.tgz:27589.got - 2010.06.03 16:29:19.
