data_PCOD9478098
_publ_section_title
;
Structure prediction by ZEFSAII (Michael W. Deem and Ramdas Pophale) SiO2 
 PCOD9478098
Probable space group: C M C A
;
_chemical_formula_sum "Si O2"
_cell_formula_units_Z 80
_cell_length_a 13.410069
_cell_length_b 17.414367
_cell_length_c 16.144328
_cell_angle_alpha 90.000000
_cell_angle_beta 90.000000
_cell_angle_gamma 90.000000
_cell_volume 3770.150418
_symmetry_space_group_name_H-M "C M C A"
_symmetry_group_IT_number 64
_symmetry_cell_setting 'orthorhombic'
loop_
_space_group_symop_operation_xyz
x,y,z
-x,1/2-y,1/2+z
x,-y,-z
-x,1/2+y,1/2-z
-x,-y,-z
x,1/2+y,1/2-z
-x,y,z
x,1/2-y,1/2+z
1/2+x,1/2+y,z
1/2-x,-y,1/2+z
1/2+x,1/2-y,-z
1/2-x,y,1/2-z
1/2-x,1/2-y,-z
1/2+x,y,1/2-z
1/2-x,1/2+y,z
1/2+x,-y,1/2+z
loop_
_atom_site_type_symbol
_atom_site_label
_atom_site_fract_x
_atom_site_fract_y
_atom_site_fract_z
Si Si1 0.500000 0.351678 0.794696
Si Si2 0.330656 0.758855 0.180394
Si Si3 0.670994 0.635881 0.524667
Si Si4 0.500000 0.648417 0.401401
Si Si5 0.500000 0.534490 0.608361
Si Si6 0.676998 0.500000 0.000000
Si Si7 0.000000 0.135789 0.756017
Si Si8 0.000000 0.486697 0.373002
O O1 0.402602 0.313126 0.835502
O O2 0.500000 0.331419 0.695893
O O3 0.500000 0.441086 0.811152
O O4 0.250000 0.738418 0.250000
O O5 0.299635 0.800739 0.094425
O O6 0.403652 0.818264 0.227865
O O7 0.600839 0.671272 0.451550
O O8 0.595326 0.576634 0.569998
O O9 0.757675 0.578337 0.495499
O O10 0.500000 0.555452 0.403914
O O11 0.500000 0.558348 0.702854
O O12 0.602204 0.503833 0.923167
O O13 0.000000 0.102700 0.846533
#
# Coordination Sequence:
#
# PCOD9478098 Si02
#       8
#     8  16  16   8   8   8   8   8
#     4  11  25  42  58  87 130 159 205 245 301 366
#     4  10  22  42  62  85 120 168 204 241 295 372
#     4  10  19  37  64  93 118 146 201 252 303 358
#     4  11  18  35  62  95 118 152 188 251 309 354
#     4   9  15  31  60  91 116 137 184 242 303 354
#     4  11  22  37  60  92 118 151 204 259 308 364
#     4   9  18  37  62  85 112 155 196 249 307 349
#     4  11  24  39  56  88 124 160 196 261 311 348
#
# _framework density 21.219313
#
# number of rings (size 3 to 8) (size 9 to 14) (size 15 to 20)
#    0.000    1.800    3.000    3.600    0.000    1.600 
#    0.000   17.000    0.000    0.000    0.000    0.000 
#    0.000    0.000    0.000    0.000    0.000    0.000 
#
# Total GULP energy -223007.813490 kJ/mol
# GULP energy per Si atom -5575.195337 kJ/mol
# Density = 2.117102 g / cm^3
# Si number density = 21.219313 Si / 1000 Ang^3
#
#
#
# Elastic Constant Matrix: (Units=GPa)
#
#
# Indices 1 2 3 4 5 6 
#
# 1 82.8232 -3.8642 6.5917 0.0000 0.0000 0.0000
# 2 -3.8642 46.3248 5.8209 0.0000 0.0000 0.0000
# 3 6.5917 5.8209 38.4326 0.0000 0.0000 0.0000
# 4 0.0000 0.0000 0.0000 32.1014 0.0000 0.0000
# 5 0.0000 0.0000 0.0000 0.0000 51.2585 0.0000
# 6 0.0000 0.0000 0.0000 0.0000 0.0000 6.9993
#
#
#
# Elastic Compliance Matrix: (Units=1/GPa)
#
#
# Indices 1 2 3 4 5 6 
#
# 1 0.012319 0.001318 -0.002313 0.000000 0.000000 0.000000
# 2 0.001318 0.022147 -0.003580 0.000000 0.000000 0.000000
# 3 -0.002313 -0.003580 0.026959 0.000000 0.000000 0.000000
# 4 0.000000 0.000000 0.000000 0.031151 0.000000 0.000000
# 5 0.000000 0.000000 0.000000 0.000000 0.019509 0.000000
# 6 0.000000 0.000000 0.000000 0.000000 0.000000 0.142872
#
#
# Mechanical properties :
#
#
# Convention : Reuss Voigt Hill
#
# Bulk Modulus (GPa) = 19.12957 20.51970 19.82464
# Shear Modulus (GPa) = 17.76003 28.67399 23.21701
#
# Velocity S-wave (km/s) = 2.89619 3.68001 3.31138
# Velocity P-wave (km/s) = 4.49651 5.26763 4.89727
#
# Compressibility (1/GPa) = 0.05227508
#
# Stress axis : x y z
#
# Youngs Moduli (GPa) = 81.17237 45.15371 37.09404
#
# Poissons Ratio (x) = -0.05952 0.08578
# Poissons Ratio (y) = -0.10700 0.13281
# Poissons Ratio (z) = 0.18772 0.16167
#
# Static dielectric constant tensor:
#      x y z
#    x 1.763700 0.000000 0.000000 
#    y 0.000000 1.732200 0.000000 
#    z 0.000000 0.000000 1.862900 
# 
# From -- ./inp_files/32124.got.cif
#   From: 2010.05.17/outbox.cif.g08.bks.cpg/sg64_17_cif.got.tgz:32124.got - 2010.06.03 16:29:19.
