data_PCOD9478506
_publ_section_title
;
Structure prediction by ZEFSAII (Michael W. Deem and Ramdas Pophale) SiO2 
 PCOD9478506
Probable space group: C M C A
;
_chemical_formula_sum "Si O2"
_cell_formula_units_Z 64
_cell_length_a 11.082062
_cell_length_b 7.963562
_cell_length_c 23.695938
_cell_angle_alpha 90.000000
_cell_angle_beta 90.000000
_cell_angle_gamma 90.000000
_cell_volume 2091.230219
_symmetry_space_group_name_H-M "C M C A"
_symmetry_group_IT_number 64
_symmetry_cell_setting 'orthorhombic'
loop_
_space_group_symop_operation_xyz
x,y,z
-x,1/2-y,1/2+z
x,-y,-z
-x,1/2+y,1/2-z
-x,-y,-z
x,1/2+y,1/2-z
-x,y,z
x,1/2-y,1/2+z
1/2+x,1/2+y,z
1/2-x,-y,1/2+z
1/2+x,1/2-y,-z
1/2-x,y,1/2-z
1/2-x,1/2-y,-z
1/2+x,y,1/2-z
1/2-x,1/2+y,z
1/2+x,-y,1/2+z
loop_
_atom_site_type_symbol
_atom_site_label
_atom_site_fract_x
_atom_site_fract_y
_atom_site_fract_z
Si Si1 0.758682 0.148606 0.058367
Si Si2 0.500000 0.511239 0.806226
Si Si3 0.000000 0.512291 0.811252
Si Si4 0.750222 0.307540 0.687295
Si Si5 0.000000 0.958246 0.569961
Si Si6 0.000000 0.929913 0.072062
O O1 0.747890 0.243642 0.120366
O O2 0.642006 0.025483 0.057839
O O3 0.883546 0.043895 0.060038
O O4 0.750000 0.250000 0.000000
O O5 0.500000 0.609410 0.747396
O O6 0.623718 0.408035 0.810318
O O7 0.500000 0.620171 0.861684
O O8 0.126522 0.413269 0.809873
O O9 0.000000 0.578712 0.873962
O O10 0.750000 0.216382 0.750000
O O11 0.000000 0.758033 0.548607
#
# Coordination Sequence:
#
# PCOD9478506 Si02
#       6
#    16   8   8  16   8   8
#     4  10  20  34  56  86 118 152 196 252 300 344
#     4   8  14  27  51  76 104 143 181 229 283 332
#     4   8  14  27  51  76 104 143 181 229 283 332
#     4   8  14  26  46  70 100 142 180 220 282 340
#     4  10  21  38  61  86 116 158 201 241 298 364
#     4  10  21  38  61  86 116 158 201 241 298 364
#
# _framework density 30.603997
#
# number of rings (size 3 to 8) (size 9 to 14) (size 15 to 20)
#    0.000    3.000    0.000    0.750    0.000    2.000 
#    0.000    1.250    0.000  153.000    0.000    0.000 
#    0.000    0.000    0.000    0.000    0.000    0.000 
#
# Total GULP energy -178240.010437 kJ/mol
# GULP energy per Si atom -5570.000326 kJ/mol
# Density = 3.053434 g / cm^3
# Si number density = 30.603997 Si / 1000 Ang^3
#
#
#
# Elastic Constant Matrix: (Units=GPa)
#
#
# Indices 1 2 3 4 5 6 
#
# 1 354.9135 76.9671 13.0032 0.0000 0.0000 0.0000
# 2 76.9671 57.5137 17.1647 0.0000 0.0000 0.0000
# 3 13.0032 17.1647 238.8164 0.0000 0.0000 0.0000
# 4 0.0000 0.0000 0.0000 -0.6390 0.0000 0.0000
# 5 0.0000 0.0000 0.0000 0.0000 16.0634 0.0000
# 6 0.0000 0.0000 0.0000 0.0000 0.0000 -296.7858
#
#
#
# Elastic Compliance Matrix: (Units=1/GPa)
#
#
# Indices 1 2 3 4 5 6 
#
# 1 0.003976 -0.005372 0.000170 0.000000 0.000000 0.000000
# 2 -0.005372 0.025026 -0.001506 0.000000 0.000000 0.000000
# 3 0.000170 -0.001506 0.004286 0.000000 0.000000 0.000000
# 4 0.000000 0.000000 0.000000 -1.564987 0.000000 0.000000
# 5 0.000000 0.000000 0.000000 0.000000 0.062253 0.000000
# 6 0.000000 0.000000 0.000000 0.000000 0.000000 -0.003369
#
#
# Mechanical properties :
#
#
# Convention : Reuss Voigt Hill
#
# Bulk Modulus (GPa) = 50.32399 96.16817 73.24608
# Shear Modulus (GPa) = -3.44169 -19.99838 -11.72003
#
# Velocity S-wave (km/s) = -1.06162 -2.55905 -1.95905
# Velocity P-wave (km/s) = 3.86996 4.77074 4.34376
#
# Compressibility (1/GPa) = 0.01987124
#
# Stress axis : x y z
#
# Youngs Moduli (GPa) = 251.48804 39.95914 233.29935
#
# Poissons Ratio (x) = 0.21466 -0.03957
# Poissons Ratio (y) = 1.35097 0.35139
# Poissons Ratio (z) = -0.04265 0.06019
#
# Static dielectric constant tensor:
#      x y z
#    x 2.287310 0.000000 0.000000 
#    y 0.000000 2.518100 0.000000 
#    z 0.000000 0.000000 2.473810 
# 
# From -- ./inp_files/49032.got.cif
#   From: 2010.05.17/outbox.cif.g08.bks.cpg/sg64_25_cif.got.tgz:49032.got - 2010.06.03 16:29:19.
