data_PCOD9478736
_publ_section_title
;
Structure prediction by ZEFSAII (Michael W. Deem and Ramdas Pophale) SiO2 
 PCOD9478736
Probable space group: C M C A
;
_chemical_formula_sum "Si O2"
_cell_formula_units_Z 96
_cell_length_a 8.751301
_cell_length_b 30.004500
_cell_length_c 18.820141
_cell_angle_alpha 90.000000
_cell_angle_beta 90.000000
_cell_angle_gamma 90.000000
_cell_volume 4941.762716
_symmetry_space_group_name_H-M "C M C A"
_symmetry_group_IT_number 64
_symmetry_cell_setting 'orthorhombic'
loop_
_space_group_symop_operation_xyz
x,y,z
-x,1/2-y,1/2+z
x,-y,-z
-x,1/2+y,1/2-z
-x,-y,-z
x,1/2+y,1/2-z
-x,y,z
x,1/2-y,1/2+z
1/2+x,1/2+y,z
1/2-x,-y,1/2+z
1/2+x,1/2-y,-z
1/2-x,y,1/2-z
1/2-x,1/2-y,-z
1/2+x,y,1/2-z
1/2-x,1/2+y,z
1/2+x,-y,1/2+z
loop_
_atom_site_type_symbol
_atom_site_label
_atom_site_fract_x
_atom_site_fract_y
_atom_site_fract_z
Si Si1 0.818180 0.593134 0.424250
Si Si2 0.682129 0.488086 0.827945
Si Si3 0.181132 0.862788 0.173777
Si Si4 0.317666 0.063659 0.928660
Si Si5 0.320225 0.718948 0.603328
Si Si6 0.180794 0.190345 0.439182
O O1 0.788700 0.561808 0.356558
O O2 0.753569 0.567689 0.493315
O O3 0.741871 0.641533 0.420977
O O4 0.000000 0.598453 0.432636
O O5 0.500000 0.495634 0.826889
O O6 0.750000 0.495128 0.750000
O O7 0.756673 0.521920 0.883994
O O8 0.250000 0.874952 0.250000
O O9 0.262435 0.893057 0.114809
O O10 0.223378 0.811934 0.155519
O O11 0.000000 0.869859 0.172318
O O12 0.500000 0.062726 0.933622
O O13 0.500000 0.715202 0.619482
O O14 0.266968 0.770022 0.601551
O O15 0.294982 0.700059 0.523272
O O16 0.000000 0.193249 0.426111
#
# Coordination Sequence:
#
# PCOD9478736 Si02
#       6
#    16  16  16  16  16  16
#     4  11  23  40  64  93 124 159 204 257 307 362
#     4  11  25  44  64  89 122 162 204 251 308 366
#     4  12  24  39  60  87 125 165 205 254 311 370
#     4  12  24  40  63  92 123 159 204 253 307 367
#     4  10  20  36  58  87 122 158 201 248 300 360
#     4  10  20  35  60  90 121 157 200 249 300 356
#
# _framework density 19.426265999999998
#
# number of rings (size 3 to 8) (size 9 to 14) (size 15 to 20)
#    0.000    1.000    1.667    6.000    0.000    6.000 
#    0.000    0.833    0.000    2.000    0.000    0.000 
#    0.000    0.000    0.000    0.000    0.000    0.000 
#
# Total GULP energy -268557.177454 kJ/mol
# GULP energy per Si atom -5594.941197 kJ/mol
# Density = 1.938205 g / cm^3
# Si number density = 19.426266 Si / 1000 Ang^3
#
#
#
# Elastic Constant Matrix: (Units=GPa)
#
#
# Indices 1 2 3 4 5 6 
#
# 1 45.1306 10.5013 -6.8868 0.0000 0.0000 0.0000
# 2 10.5013 94.5329 0.7385 0.0000 0.0000 0.0000
# 3 -6.8868 0.7385 25.5795 0.0000 0.0000 0.0000
# 4 0.0000 0.0000 0.0000 -9.7232 0.0000 0.0000
# 5 0.0000 0.0000 0.0000 0.0000 29.1626 0.0000
# 6 0.0000 0.0000 0.0000 0.0000 0.0000 32.6687
#
#
#
# Elastic Compliance Matrix: (Units=1/GPa)
#
#
# Indices 1 2 3 4 5 6 
#
# 1 0.023773 -0.002691 0.006478 0.000000 0.000000 0.000000
# 2 -0.002691 0.010885 -0.001039 0.000000 0.000000 0.000000
# 3 0.006478 -0.001039 0.040868 0.000000 0.000000 0.000000
# 4 0.000000 0.000000 0.000000 -0.102847 0.000000 0.000000
# 5 0.000000 0.000000 0.000000 0.000000 0.034290 0.000000
# 6 0.000000 0.000000 0.000000 0.000000 0.000000 0.030610
#
#
# Mechanical properties :
#
#
# Convention : Reuss Voigt Hill
#
# Bulk Modulus (GPa) = 12.34240 19.32767 15.83504
# Shear Modulus (GPa) = 84.61431 21.14762 52.88097
#
# Velocity S-wave (km/s) = 6.60691 3.30299 5.22307
# Velocity P-wave (km/s) = 8.03548 4.95148 6.67406
#
# Compressibility (1/GPa) = 0.08102151
#
# Stress axis : x y z
#
# Youngs Moduli (GPa) = 42.06500 91.86593 24.46912
#
# Poissons Ratio (x) = 0.24725 -0.15851
# Poissons Ratio (y) = 0.11322 0.02542
# Poissons Ratio (z) = -0.27250 0.09544
#
# Static dielectric constant tensor:
#      x y z
#    x 1.640910 0.000000 0.000000 
#    y 0.000000 1.687910 0.000000 
#    z 0.000000 0.000000 1.626140 
# 
# From -- ./inp_files/37120.got.cif
#   From: 2010.05.17/outbox.cif.g08.bks.cpg/sg64_19_cif.got.tgz:37120.got - 2010.06.03 16:29:19.
