data_PCOD9478821
_publ_section_title
;
Structure prediction by ZEFSAII (Michael W. Deem and Ramdas Pophale) SiO2 
 PCOD9478821
Probable space group: C M C A
;
_chemical_formula_sum "Si O2"
_cell_formula_units_Z 80
_cell_length_a 14.987991
_cell_length_b 24.511360
_cell_length_c 8.359425
_cell_angle_alpha 90.000000
_cell_angle_beta 90.000000
_cell_angle_gamma 90.000000
_cell_volume 3071.052479
_symmetry_space_group_name_H-M "C M C A"
_symmetry_group_IT_number 64
_symmetry_cell_setting 'orthorhombic'
loop_
_space_group_symop_operation_xyz
x,y,z
-x,1/2-y,1/2+z
x,-y,-z
-x,1/2+y,1/2-z
-x,-y,-z
x,1/2+y,1/2-z
-x,y,z
x,1/2-y,1/2+z
1/2+x,1/2+y,z
1/2-x,-y,1/2+z
1/2+x,1/2-y,-z
1/2-x,y,1/2-z
1/2-x,1/2-y,-z
1/2+x,y,1/2-z
1/2-x,1/2+y,z
1/2+x,-y,1/2+z
loop_
_atom_site_type_symbol
_atom_site_label
_atom_site_fract_x
_atom_site_fract_y
_atom_site_fract_z
Si Si1 0.604535 0.261708 0.004383
Si Si2 0.390379 0.468747 0.342804
Si Si3 0.102486 0.934261 0.858936
Si Si4 0.890468 0.867753 0.168078
Si Si5 0.849273 0.167658 0.303404
O O1 0.500000 0.251674 0.030502
O O2 0.639025 0.306327 0.133613
O O3 0.648425 0.203321 0.036184
O O4 0.612881 0.291783 0.834544
O O5 0.360382 0.500000 0.500000
O O6 0.500000 0.469062 0.343023
O O7 0.359943 0.508474 0.198574
O O8 0.362642 0.406467 0.313576
O O9 0.103027 0.890445 0.712849
O O10 0.000000 0.944697 0.901431
O O11 0.138826 0.902017 0.011010
O O12 0.000000 0.864437 0.169680
O O13 0.750000 0.155873 0.250000
#
# Coordination Sequence:
#
# PCOD9478821 Si02
#       5
#    16  16  16  16  16
#     4  10  20  36  57  80 107 142 186 226 268 327
#     4   9  16  26  45  76 105 128 166 223 275 310
#     4   9  17  31  51  72  99 138 178 212 257 322
#     4   8  15  28  47  72 100 132 172 217 261 312
#     4  11  22  36  54  79 111 143 178 225 277 325
#
# _framework density 26.049700000000001
#
# number of rings (size 3 to 8) (size 9 to 14) (size 15 to 20)
#    0.000    2.600    0.000    4.200    0.000    4.000 
#    0.000    4.000    0.000    6.000    0.000    0.000 
#    0.000    0.000    0.000    0.000    0.000    0.000 
#
# Total GULP energy -223538.006310 kJ/mol
# GULP energy per Si atom -5588.450158 kJ/mol
# Density = 2.599041 g / cm^3
# Si number density = 26.049700 Si / 1000 Ang^3
#
#
#
# Elastic Constant Matrix: (Units=GPa)
#
#
# Indices 1 2 3 4 5 6 
#
# 1 61.3029 -5.5317 -5.5325 0.0000 0.0000 0.0000
# 2 -5.5317 153.4489 20.2083 0.0000 0.0000 0.0000
# 3 -5.5325 20.2083 54.2225 0.0000 0.0000 0.0000
# 4 0.0000 0.0000 0.0000 50.4937 0.0000 0.0000
# 5 0.0000 0.0000 0.0000 0.0000 25.4010 0.0000
# 6 0.0000 0.0000 0.0000 0.0000 0.0000 -20.1563
#
#
#
# Elastic Compliance Matrix: (Units=1/GPa)
#
#
# Indices 1 2 3 4 5 6 
#
# 1 0.016486 0.000392 0.001536 0.000000 0.000000 0.000000
# 2 0.000392 0.006863 -0.002518 0.000000 0.000000 0.000000
# 3 0.001536 -0.002518 0.019538 0.000000 0.000000 0.000000
# 4 0.000000 0.000000 0.000000 0.019804 0.000000 0.000000
# 5 0.000000 0.000000 0.000000 0.000000 0.039369 0.000000
# 6 0.000000 0.000000 0.000000 0.000000 0.000000 -0.049612
#
#
# Mechanical properties :
#
#
# Convention : Reuss Voigt Hill
#
# Bulk Modulus (GPa) = 23.97651 31.91806 27.94728
# Shear Modulus (GPa) = 74.04242 28.46969 51.25606
#
# Velocity S-wave (km/s) = 5.33716 3.30949 4.44060
# Velocity P-wave (km/s) = 6.87055 5.18488 6.08635
#
# Compressibility (1/GPa) = 0.04170750
#
# Stress axis : x y z
#
# Youngs Moduli (GPa) = 60.65592 145.71925 51.18347
#
# Poissons Ratio (x) = -0.05713 -0.07862
# Poissons Ratio (y) = -0.02378 0.12886
# Poissons Ratio (z) = -0.09317 0.36686
#
# Static dielectric constant tensor:
#      x y z
#    x 2.013100 0.000000 0.000000 
#    y 0.000000 2.004240 0.000000 
#    z 0.000000 0.000000 2.150900 
# 
# From -- ./inp_files/7016.got.cif
#   From: 2010.05.17/outbox.cif.g08.bks.cpg/sg64_4_cif.got.tgz:7016.got - 2010.06.03 16:29:19.
