data_PCOD9478084
_publ_section_title
;
Structure prediction by ZEFSAII (Michael W. Deem and Ramdas Pophale) SiO2 
 PCOD9478084
Probable space group: C M C A
;
_chemical_formula_sum "Si O2"
_cell_formula_units_Z 96
_cell_length_a 8.662276
_cell_length_b 29.729141
_cell_length_c 20.873395
_cell_angle_alpha 90.000000
_cell_angle_beta 90.000000
_cell_angle_gamma 90.000000
_cell_volume 5375.358940
_symmetry_space_group_name_H-M "C M C A"
_symmetry_group_IT_number 64
_symmetry_cell_setting 'orthorhombic'
loop_
_space_group_symop_operation_xyz
x,y,z
-x,1/2-y,1/2+z
x,-y,-z
-x,1/2+y,1/2-z
-x,-y,-z
x,1/2+y,1/2-z
-x,y,z
x,1/2-y,1/2+z
1/2+x,1/2+y,z
1/2-x,-y,1/2+z
1/2+x,1/2-y,-z
1/2-x,y,1/2-z
1/2-x,1/2-y,-z
1/2+x,y,1/2-z
1/2-x,1/2+y,z
1/2+x,-y,1/2+z
loop_
_atom_site_type_symbol
_atom_site_label
_atom_site_fract_x
_atom_site_fract_y
_atom_site_fract_z
Si Si1 0.186335 0.972814 0.435042
Si Si2 0.185974 0.722911 0.938886
Si Si3 0.312413 0.124334 0.979857
Si Si4 0.314669 0.221959 0.180028
Si Si5 0.686482 0.623331 0.370860
Si Si6 0.683280 0.530452 0.181164
O O1 0.237414 0.921322 0.445087
O O2 0.000000 0.973960 0.428451
O O3 0.224110 0.000000 0.500000
O O4 0.258756 0.997401 0.374526
O O5 0.234943 0.670908 0.947163
O O6 0.248738 0.745530 0.874601
O O7 0.000000 0.724866 0.939788
O O8 0.250000 0.750000 0.000000
O O9 0.500000 0.123761 0.980345
O O10 0.265226 0.123752 0.054474
O O11 0.500000 0.224497 0.179805
O O12 0.250000 0.232666 0.250000
O O13 0.270704 0.170682 0.161211
O O14 0.500000 0.619242 0.368985
O O15 0.757490 0.580445 0.336121
O O16 0.500000 0.530600 0.183626
O O17 0.750000 0.517211 0.250000
#
# Coordination Sequence:
#
# PCOD9478084 Si02
#       6
#    16  16  16  16  16  16
#     4  10  19  37  64  86 113 154 193 233 287 346
#     4  11  21  37  60  88 120 156 197 241 288 346
#     4   9  18  35  60  89 117 150 192 235 285 347
#     4  11  23  39  59  86 120 157 198 243 293 351
#     4  10  19  37  61  87 119 153 191 236 292 351
#     4  12  25  39  57  86 121 155 195 240 291 347
#
# _framework density 17.859272000000001
#
# number of rings (size 3 to 8) (size 9 to 14) (size 15 to 20)
#    0.000    1.500    3.333    3.000    0.000    3.000 
#    0.000    2.500    0.000    0.000    0.000    0.000 
#    0.000    0.000    0.000    0.000    0.000    0.000 
#
# Total GULP energy -268217.728209 kJ/mol
# GULP energy per Si atom -5587.869338 kJ/mol
# Density = 1.781862 g / cm^3
# Si number density = 17.859272 Si / 1000 Ang^3
#
#
#
# Elastic Constant Matrix: (Units=GPa)
#
#
# Indices 1 2 3 4 5 6 
#
# 1 48.6540 45.8242 52.3322 0.0000 0.0000 0.0000
# 2 45.8242 153.3053 88.4782 0.0000 0.0000 0.0000
# 3 52.3322 88.4782 176.3458 0.0000 0.0000 0.0000
# 4 0.0000 0.0000 0.0000 18.3016 0.0000 0.0000
# 5 0.0000 0.0000 0.0000 0.0000 27.3845 0.0000
# 6 0.0000 0.0000 0.0000 0.0000 0.0000 25.0000
#
#
#
# Elastic Compliance Matrix: (Units=1/GPa)
#
#
# Indices 1 2 3 4 5 6 
#
# 1 0.033774 -0.006068 -0.006978 0.000000 0.000000 0.000000
# 2 -0.006068 0.010272 -0.003353 0.000000 0.000000 0.000000
# 3 -0.006978 -0.003353 0.009424 0.000000 0.000000 0.000000
# 4 0.000000 0.000000 0.000000 0.054640 0.000000 0.000000
# 5 0.000000 0.000000 0.000000 0.000000 0.036517 0.000000
# 6 0.000000 0.000000 0.000000 0.000000 0.000000 0.040000
#
#
# Mechanical properties :
#
#
# Convention : Reuss Voigt Hill
#
# Bulk Modulus (GPa) = 48.37604 83.50825 65.94214
# Shear Modulus (GPa) = 22.29002 26.91526 24.60264
#
# Velocity S-wave (km/s) = 3.53667 3.88632 3.71561
# Velocity P-wave (km/s) = 6.61993 8.18526 7.44386
#
# Compressibility (1/GPa) = 0.02067139
#
# Stress axis : x y z
#
# Youngs Moduli (GPa) = 29.60843 97.35385 106.11374
#
# Poissons Ratio (x) = 0.59073 0.74050
# Poissons Ratio (y) = 0.17966 0.35580
# Poissons Ratio (z) = 0.20662 0.32643
#
# Static dielectric constant tensor:
#      x y z
#    x 1.607360 0.000000 0.000000 
#    y 0.000000 1.602350 0.000000 
#    z 0.000000 0.000000 1.569720 
# 
# From -- ./inp_files/37019.got.cif
#   From: 2010.05.17/outbox.cif.g08.bks.cpg/sg64_19_cif.got.tgz:37019.got - 2010.06.03 16:29:19.
