data_PCOD9478216
_publ_section_title
;
Structure prediction by ZEFSAII (Michael W. Deem and Ramdas Pophale) SiO2 
 PCOD9478216
Probable space group: C M C A
;
_chemical_formula_sum "Si O2"
_cell_formula_units_Z 112
_cell_length_a 19.064028
_cell_length_b 13.647126
_cell_length_c 20.613604
_cell_angle_alpha 90.000000
_cell_angle_beta 90.000000
_cell_angle_gamma 90.000000
_cell_volume 5363.024701
_symmetry_space_group_name_H-M "C M C A"
_symmetry_group_IT_number 64
_symmetry_cell_setting 'orthorhombic'
loop_
_space_group_symop_operation_xyz
x,y,z
-x,1/2-y,1/2+z
x,-y,-z
-x,1/2+y,1/2-z
-x,-y,-z
x,1/2+y,1/2-z
-x,y,z
x,1/2-y,1/2+z
1/2+x,1/2+y,z
1/2-x,-y,1/2+z
1/2+x,1/2-y,-z
1/2-x,y,1/2-z
1/2-x,1/2-y,-z
1/2+x,y,1/2-z
1/2-x,1/2+y,z
1/2+x,-y,1/2+z
loop_
_atom_site_type_symbol
_atom_site_label
_atom_site_fract_x
_atom_site_fract_y
_atom_site_fract_z
Si Si1 0.723983 0.341034 0.959450
Si Si2 0.917821 0.792952 0.231825
Si Si3 0.425221 0.874672 0.546323
Si Si4 0.859386 0.712729 0.876572
Si Si5 0.874070 0.517818 0.654388
Si Si6 0.327011 0.613672 0.273110
Si Si7 0.716263 0.016365 0.892159
O O1 0.649654 0.376571 0.989880
O O2 0.701708 0.294183 0.889490
O O3 0.774688 0.430768 0.945380
O O4 0.829478 0.387770 0.093831
O O5 0.907718 0.887180 0.186649
O O6 0.882523 0.805291 0.303157
O O7 0.000000 0.772055 0.239893
O O8 0.875216 0.701747 0.203011
O O9 0.500000 0.881733 0.512257
O O10 0.419776 0.769585 0.583620
O O11 0.417216 0.961464 0.598930
O O12 0.750000 0.750000 0.000000
O O13 0.863380 0.439228 0.712140
O O14 0.796305 0.543312 0.627457
O O15 0.250000 0.647437 0.250000
O O16 0.316320 0.534232 0.328891
#
# Coordination Sequence:
#
# PCOD9478216 Si02
#       7
#    16  16  16  16  16  16  16
#     4   9  21  38  59  85 105 139 192 248 290 327
#     4  12  23  32  51  84 120 160 190 220 275 342
#     4   9  18  36  56  82 114 147 187 228 278 344
#     4  10  20  33  56  82 111 146 185 236 277 341
#     4  10  20  31  54  80 116 154 192 223 268 337
#     4  10  20  33  49  74 112 148 189 226 270 333
#     4  10  20  36  53  86 109 145 191 238 285 326
#
# _framework density 20.883737
#
# number of rings (size 3 to 8) (size 9 to 14) (size 15 to 20)
#    0.857    1.143    2.857    1.714    4.000    1.143 
#    0.000    0.000    0.000    3.429    0.000    2.000 
#    0.000    0.000    0.000    0.000    0.000    0.000 
#
# Total GULP energy -312321.815174 kJ/mol
# GULP energy per Si atom -5577.175271 kJ/mol
# Density = 2.083620 g / cm^3
# Si number density = 20.883737 Si / 1000 Ang^3
#
#
#
# Elastic Constant Matrix: (Units=GPa)
#
#
# Indices 1 2 3 4 5 6 
#
# 1 78.6868 59.0436 16.3489 0.0000 0.0000 0.0000
# 2 59.0436 127.5426 29.2392 0.0000 0.0000 0.0000
# 3 16.3489 29.2392 43.0279 0.0000 0.0000 0.0000
# 4 0.0000 0.0000 0.0000 38.8904 0.0000 0.0000
# 5 0.0000 0.0000 0.0000 0.0000 2.4162 0.0000
# 6 0.0000 0.0000 0.0000 0.0000 0.0000 6.2067
#
#
#
# Elastic Compliance Matrix: (Units=1/GPa)
#
#
# Indices 1 2 3 4 5 6 
#
# 1 0.019556 -0.008706 -0.001514 0.000000 0.000000 0.000000
# 2 -0.008706 0.013163 -0.005637 0.000000 0.000000 0.000000
# 3 -0.001514 -0.005637 0.027647 0.000000 0.000000 0.000000
# 4 0.000000 0.000000 0.000000 0.025713 0.000000 0.000000
# 5 0.000000 0.000000 0.000000 0.000000 0.413869 0.000000
# 6 0.000000 0.000000 0.000000 0.000000 0.000000 0.161115
#
#
# Mechanical properties :
#
#
# Convention : Reuss Voigt Hill
#
# Bulk Modulus (GPa) = 34.90272 50.94674 42.92473
# Shear Modulus (GPa) = 7.11918 19.14437 13.13177
#
# Velocity S-wave (km/s) = 1.84834 3.03101 2.51032
# Velocity P-wave (km/s) = 4.61566 6.05787 5.38526
#
# Compressibility (1/GPa) = 0.02865106
#
# Stress axis : x y z
#
# Youngs Moduli (GPa) = 51.13568 75.97052 36.17067
#
# Poissons Ratio (x) = 0.66139 0.05478
# Poissons Ratio (y) = 0.44518 0.20389
# Poissons Ratio (z) = 0.07744 0.42824
#
# Static dielectric constant tensor:
#      x y z
#    x 1.756060 0.000000 0.000000 
#    y 0.000000 1.756680 0.000000 
#    z 0.000000 0.000000 1.816850 
# 
# From -- ./inp_files/53382.got.cif
#   From: 2010.05.17/outbox.cif.g08.bks.cpg/sg64_27_cif.got.tgz:53382.got - 2010.06.03 16:29:19.
