data_PCOD9478472
_publ_section_title
;
Structure prediction by ZEFSAII (Michael W. Deem and Ramdas Pophale) SiO2 
 PCOD9478472
Probable space group: C M C A
;
_chemical_formula_sum "Si O2"
_cell_formula_units_Z 80
_cell_length_a 10.100362
_cell_length_b 24.941440
_cell_length_c 18.188202
_cell_angle_alpha 90.000000
_cell_angle_beta 90.000000
_cell_angle_gamma 90.000000
_cell_volume 4581.927701
_symmetry_space_group_name_H-M "C M C A"
_symmetry_group_IT_number 64
_symmetry_cell_setting 'orthorhombic'
loop_
_space_group_symop_operation_xyz
x,y,z
-x,1/2-y,1/2+z
x,-y,-z
-x,1/2+y,1/2-z
-x,-y,-z
x,1/2+y,1/2-z
-x,y,z
x,1/2-y,1/2+z
1/2+x,1/2+y,z
1/2-x,-y,1/2+z
1/2+x,1/2-y,-z
1/2-x,y,1/2-z
1/2-x,1/2-y,-z
1/2+x,y,1/2-z
1/2-x,1/2+y,z
1/2+x,-y,1/2+z
loop_
_atom_site_type_symbol
_atom_site_label
_atom_site_fract_x
_atom_site_fract_y
_atom_site_fract_z
Si Si1 0.750000 0.652148 0.750000
Si Si2 0.000000 0.294217 0.178701
Si Si3 0.749354 0.628756 0.038393
Si Si4 0.000000 0.693832 0.987205
Si Si5 0.000000 0.195590 0.083500
Si Si6 0.157225 0.922894 0.116773
Si Si7 0.349862 0.016933 0.086163
O O1 0.869971 0.688084 0.778989
O O2 0.804071 0.615400 0.683979
O O3 0.000000 0.323606 0.098825
O O4 0.000000 0.231970 0.156336
O O5 0.629159 0.659725 0.075745
O O6 0.801513 0.578124 0.084785
O O7 0.697783 0.605824 0.959929
O O8 0.870046 0.669315 0.023695
O O9 0.000000 0.758432 0.980865
O O10 0.000000 0.933642 0.115990
O O11 0.244806 0.976802 0.122116
O O12 0.500000 0.011390 0.115151
O O13 0.354811 0.000000 0.000000
#
# Coordination Sequence:
#
# PCOD9478472 Si02
#       7
#     8   8  16   8   8  16  16
#     4  12  22  40  58  84 118 150 196 242 288 346
#     4  10  24  37  59  84 113 152 197 240 288 338
#     4  11  19  36  57  86 124 148 184 240 297 343
#     4  10  20  34  54  88 113 152 188 230 294 348
#     4  10  22  35  57  87 118 150 197 246 287 347
#     4  11  22  33  56  88 114 153 188 237 288 348
#     4   9  20  32  54  84 118 150 181 220 289 352
#
# _framework density 17.459900000000001
#
# number of rings (size 3 to 8) (size 9 to 14) (size 15 to 20)
#    0.600    1.000    5.000    0.600    4.200    1.200 
#    0.000    1.000    0.000    1.200    0.000    0.000 
#    0.000    0.000    0.000    0.000    0.000    0.000 
#
# Total GULP energy -223106.831583 kJ/mol
# GULP energy per Si atom -5577.670790 kJ/mol
# Density = 1.742016 g / cm^3
# Si number density = 17.459900 Si / 1000 Ang^3
#
#
#
# Elastic Constant Matrix: (Units=GPa)
#
#
# Indices 1 2 3 4 5 6 
#
# 1 179.9052 60.4646 21.4500 0.0000 0.0000 0.0000
# 2 60.4646 97.0602 7.2423 0.0000 0.0000 0.0000
# 3 21.4500 7.2423 33.3979 0.0000 0.0000 0.0000
# 4 0.0000 0.0000 0.0000 22.6306 0.0000 0.0000
# 5 0.0000 0.0000 0.0000 0.0000 3.7870 0.0000
# 6 0.0000 0.0000 0.0000 0.0000 0.0000-1291.9267
#
#
#
# Elastic Compliance Matrix: (Units=1/GPa)
#
#
# Indices 1 2 3 4 5 6 
#
# 1 0.007490 -0.004378 -0.003861 0.000000 0.000000 0.000000
# 2 -0.004378 0.013031 -0.000014 0.000000 0.000000 0.000000
# 3 -0.003861 -0.000014 0.032425 0.000000 0.000000 0.000000
# 4 0.000000 0.000000 0.000000 0.044188 0.000000 0.000000
# 5 0.000000 0.000000 0.000000 0.000000 0.264059 0.000000
# 6 0.000000 0.000000 0.000000 0.000000 0.000000 -0.000774
#
#
# Mechanical properties :
#
#
# Convention : Reuss Voigt Hill
#
# Bulk Modulus (GPa) = 27.44249 54.29744 40.86996
# Shear Modulus (GPa) = 12.85106 -238.35472 -112.75183
#
# Velocity S-wave (km/s) = 2.71594 -11.69666 -8.04474
# Velocity P-wave (km/s) = 5.05832 12.29837 7.92664
#
# Compressibility (1/GPa) = 0.03643985
#
# Stress axis : x y z
#
# Youngs Moduli (GPa) = 133.50631 76.73857 30.84045
#
# Poissons Ratio (x) = 0.33596 0.11908
# Poissons Ratio (y) = 0.58449 0.00043
# Poissons Ratio (z) = 0.51551 0.00107
#
# Static dielectric constant tensor:
#      x y z
#    x 1.578290 0.000000 0.000000 
#    y 0.000000 1.588450 0.000000 
#    z 0.000000 0.000000 1.575740 
# 
# From -- ./inp_files/36747.got.cif
#   From: 2010.05.17/outbox.cif.g08.bks.cpg/sg64_19_cif.got.tgz:36747.got - 2010.06.03 16:29:19.
