data_PCOD9478459
_publ_section_title
;
Structure prediction by ZEFSAII (Michael W. Deem and Ramdas Pophale) SiO2 
 PCOD9478459
Probable space group: C M C A
;
_chemical_formula_sum "Si O2"
_cell_formula_units_Z 112
_cell_length_a 17.177491
_cell_length_b 14.582364
_cell_length_c 18.933372
_cell_angle_alpha 90.000000
_cell_angle_beta 90.000000
_cell_angle_gamma 90.000000
_cell_volume 4742.590558
_symmetry_space_group_name_H-M "C M C A"
_symmetry_group_IT_number 64
_symmetry_cell_setting 'orthorhombic'
loop_
_space_group_symop_operation_xyz
x,y,z
-x,1/2-y,1/2+z
x,-y,-z
-x,1/2+y,1/2-z
-x,-y,-z
x,1/2+y,1/2-z
-x,y,z
x,1/2-y,1/2+z
1/2+x,1/2+y,z
1/2-x,-y,1/2+z
1/2+x,1/2-y,-z
1/2-x,y,1/2-z
1/2-x,1/2-y,-z
1/2+x,y,1/2-z
1/2-x,1/2+y,z
1/2+x,-y,1/2+z
loop_
_atom_site_type_symbol
_atom_site_label
_atom_site_fract_x
_atom_site_fract_y
_atom_site_fract_z
Si Si1 0.299469 0.296113 0.819901
Si Si2 0.328568 0.806967 0.400350
Si Si3 0.411946 0.698268 0.501791
Si Si4 0.409471 0.155169 0.741085
Si Si5 0.912378 0.058243 0.207484
Si Si6 0.415646 0.073024 0.137899
Si Si7 0.797835 0.056046 0.571723
O O1 0.250000 0.319910 0.750000
O O2 0.237398 0.267634 0.879207
O O3 0.352701 0.209061 0.794959
O O4 0.352522 0.383270 0.838198
O O5 0.366805 0.788020 0.475879
O O6 0.390685 0.808509 0.337557
O O7 0.281004 0.901044 0.400586
O O8 0.500000 0.712003 0.527245
O O9 0.415912 0.642811 0.427173
O O10 0.359089 0.636586 0.551801
O O11 0.500000 0.168302 0.759741
O O12 0.394588 0.045891 0.731194
O O13 0.913714 0.111306 0.283210
O O14 0.000000 0.058487 0.178023
O O15 0.500000 0.022719 0.132354
O O16 0.342347 0.008935 0.125579
O O17 0.784759 0.000000 0.500000
#
# Coordination Sequence:
#
# PCOD9478459 Si02
#       7
#    16  16  16  16  16  16  16
#     4  10  21  34  54  84 115 146 184 230 275 331
#     4  11  22  36  55  80 112 146 181 228 284 336
#     4  10  20  36  57  77 102 139 183 229 278 335
#     4  10  21  37  56  79 111 152 191 222 266 339
#     4  10  20  34  54  80 114 151 182 220 272 337
#     4   9  17  32  55  80 105 138 181 227 275 323
#     4  10  21  36  56  81 106 137 184 243 289 324
#
# _framework density 23.615784999999999
#
# number of rings (size 3 to 8) (size 9 to 14) (size 15 to 20)
#    0.000    2.000    0.000    4.286    0.000    8.000 
#    0.000    2.143    0.000    3.429    0.000    0.000 
#    0.000    0.000    0.000    0.000    0.000    0.000 
#
# Total GULP energy -313105.842780 kJ/mol
# GULP energy per Si atom -5591.175764 kJ/mol
# Density = 2.356203 g / cm^3
# Si number density = 23.615785 Si / 1000 Ang^3
#
#
#
# Elastic Constant Matrix: (Units=GPa)
#
#
# Indices 1 2 3 4 5 6 
#
# 1 100.4223 38.8808 0.2051 0.0000 0.0000 0.0000
# 2 38.8808 78.9847 -11.1395 0.0000 0.0000 0.0000
# 3 0.2051 -11.1395 38.1977 0.0000 0.0000 0.0000
# 4 0.0000 0.0000 0.0000 20.2778 0.0000 0.0000
# 5 0.0000 0.0000 0.0000 0.0000 20.6868 0.0000
# 6 0.0000 0.0000 0.0000 0.0000 0.0000 30.3937
#
#
#
# Elastic Compliance Matrix: (Units=1/GPa)
#
#
# Indices 1 2 3 4 5 6 
#
# 1 0.012438 -0.006395 -0.001932 0.000000 0.000000 0.000000
# 2 -0.006395 0.016492 0.004844 0.000000 0.000000 0.000000
# 3 -0.001932 0.004844 0.027603 0.000000 0.000000 0.000000
# 4 0.000000 0.000000 0.000000 0.049315 0.000000 0.000000
# 5 0.000000 0.000000 0.000000 0.000000 0.048340 0.000000
# 6 0.000000 0.000000 0.000000 0.000000 0.000000 0.032902
#
#
# Mechanical properties :
#
#
# Convention : Reuss Voigt Hill
#
# Bulk Modulus (GPa) = 20.17505 30.38861 25.28183
# Shear Modulus (GPa) = 23.74428 26.91554 25.32991
#
# Velocity S-wave (km/s) = 3.17431 3.37965 3.27859
# Velocity P-wave (km/s) = 4.69005 5.30332 5.00608
#
# Compressibility (1/GPa) = 0.04956617
#
# Stress axis : x y z
#
# Youngs Moduli (GPa) = 80.39947 60.63602 36.22858
#
# Poissons Ratio (x) = 0.38777 0.06998
# Poissons Ratio (y) = 0.51416 -0.17548
# Poissons Ratio (z) = 0.15531 -0.29371
#
# Static dielectric constant tensor:
#      x y z
#    x 1.900320 0.000000 0.000000 
#    y 0.000000 1.987730 0.000000 
#    z 0.000000 0.000000 1.860960 
# 
# From -- ./inp_files/45237.got.cif
#   From: 2010.05.17/outbox.cif.g08.bks.cpg/sg64_23_cif.got.tgz:45237.got - 2010.06.03 16:29:19.
