data_PCOD9478262
_publ_section_title
;
Structure prediction by ZEFSAII (Michael W. Deem and Ramdas Pophale) SiO2 
 PCOD9478262
Probable space group: C M C A
;
_chemical_formula_sum "Si O2"
_cell_formula_units_Z 72
_cell_length_a 21.336936
_cell_length_b 17.319606
_cell_length_c 8.355769
_cell_angle_alpha 90.000000
_cell_angle_beta 90.000000
_cell_angle_gamma 90.000000
_cell_volume 3087.852080
_symmetry_space_group_name_H-M "C M C A"
_symmetry_group_IT_number 64
_symmetry_cell_setting 'orthorhombic'
loop_
_space_group_symop_operation_xyz
x,y,z
-x,1/2-y,1/2+z
x,-y,-z
-x,1/2+y,1/2-z
-x,-y,-z
x,1/2+y,1/2-z
-x,y,z
x,1/2-y,1/2+z
1/2+x,1/2+y,z
1/2-x,-y,1/2+z
1/2+x,1/2-y,-z
1/2-x,y,1/2-z
1/2-x,1/2-y,-z
1/2+x,y,1/2-z
1/2-x,1/2+y,z
1/2+x,-y,1/2+z
loop_
_atom_site_type_symbol
_atom_site_label
_atom_site_fract_x
_atom_site_fract_y
_atom_site_fract_z
Si Si1 0.067179 0.414006 0.434569
Si Si2 0.750000 0.392562 0.750000
Si Si3 0.659141 0.228651 0.095104
Si Si4 0.070624 0.760266 0.858329
Si Si5 0.205811 0.601983 0.602401
O O1 0.062536 0.500000 0.500000
O O2 0.073542 0.347849 0.571612
O O3 0.134188 0.415745 0.350368
O O4 0.000000 0.398567 0.351439
O O5 0.693698 0.339527 0.683842
O O6 0.775973 0.426556 0.578974
O O7 0.589610 0.239329 0.172760
O O8 0.702888 0.304007 0.089303
O O9 0.632785 0.214487 0.918504
O O10 0.000000 0.732649 0.882654
O O11 0.250000 0.579462 0.750000
#
# Coordination Sequence:
#
# PCOD9478262 Si02
#       5
#    16   8  16  16  16
#     4   9  19  39  61  80 113 160 199 235 287 347
#     4  12  20  36  54  82 124 156 184 226 296 356
#     4  11  18  33  52  77 115 148 180 224 288 351
#     4  10  20  32  53  84 110 142 189 237 286 341
#     4  11  22  36  59  88 118 151 194 239 289 344
#
# _framework density 23.317178999999999
#
# number of rings (size 3 to 8) (size 9 to 14) (size 15 to 20)
#    0.000    1.556    5.556    2.667    0.000    0.889 
#    2.000    0.000    0.000    1.333    0.000    3.111 
#    0.000    0.000    0.000    0.000    0.000    0.000 
#
# Total GULP energy -200456.128577 kJ/mol
# GULP energy per Si atom -5568.225794 kJ/mol
# Density = 2.326411 g / cm^3
# Si number density = 23.317179 Si / 1000 Ang^3
#
#
#
# Elastic Constant Matrix: (Units=GPa)
#
#
# Indices 1 2 3 4 5 6 
#
# 1 184.9899 19.5500 51.7389 0.0000 0.0000 0.0000
# 2 19.5500 79.1963 46.9637 0.0000 0.0000 0.0000
# 3 51.7389 46.9637 84.6143 0.0000 0.0000 0.0000
# 4 0.0000 0.0000 0.0000 33.3029 0.0000 0.0000
# 5 0.0000 0.0000 0.0000 0.0000 41.5502 0.0000
# 6 0.0000 0.0000 0.0000 0.0000 0.0000 24.9655
#
#
#
# Elastic Compliance Matrix: (Units=1/GPa)
#
#
# Indices 1 2 3 4 5 6 
#
# 1 0.006589 0.001137 -0.004660 0.000000 0.000000 0.000000
# 2 0.001137 0.019018 -0.011251 0.000000 0.000000 0.000000
# 3 -0.004660 -0.011251 0.020912 0.000000 0.000000 0.000000
# 4 0.000000 0.000000 0.000000 0.030027 0.000000 0.000000
# 5 0.000000 0.000000 0.000000 0.000000 0.024067 0.000000
# 6 0.000000 0.000000 0.000000 0.000000 0.000000 0.040055
#
#
# Mechanical properties :
#
#
# Convention : Reuss Voigt Hill
#
# Bulk Modulus (GPa) = 58.92228 65.03396 61.97812
# Shear Modulus (GPa) = 28.42951 35.33356 31.88153
#
# Velocity S-wave (km/s) = 3.49557 3.89697 3.70171
# Velocity P-wave (km/s) = 6.45110 6.94262 6.70137
#
# Compressibility (1/GPa) = 0.01697151
#
# Stress axis : x y z
#
# Youngs Moduli (GPa) = 151.77166 52.58196 47.81901
#
# Poissons Ratio (x) = -0.05978 0.22283
# Poissons Ratio (y) = -0.17253 0.53800
# Poissons Ratio (z) = 0.70723 0.59158
#
# Static dielectric constant tensor:
#      x y z
#    x 1.920440 0.000000 0.000000 
#    y 0.000000 1.951920 0.000000 
#    z 0.000000 0.000000 1.892290 
# 
# From -- ./inp_files/8043.got.cif
#   From: 2010.05.17/outbox.cif.g08.bks.cpg/sg64_5_cif.got.tgz:8043.got - 2010.06.03 16:29:19.
