data_PCOD9478903
_publ_section_title
;
Structure prediction by ZEFSAII (Michael W. Deem and Ramdas Pophale) SiO2 
 PCOD9478903
Probable space group: C M C A
;
_chemical_formula_sum "Si O2"
_cell_formula_units_Z 72
_cell_length_a 26.720186
_cell_length_b 27.204262
_cell_length_c 5.115203
_cell_angle_alpha 90.000000
_cell_angle_beta 90.000000
_cell_angle_gamma 90.000000
_cell_volume 3718.256103
_symmetry_space_group_name_H-M "C M C A"
_symmetry_group_IT_number 64
_symmetry_cell_setting 'orthorhombic'
loop_
_space_group_symop_operation_xyz
x,y,z
-x,1/2-y,1/2+z
x,-y,-z
-x,1/2+y,1/2-z
-x,-y,-z
x,1/2+y,1/2-z
-x,y,z
x,1/2-y,1/2+z
1/2+x,1/2+y,z
1/2-x,-y,1/2+z
1/2+x,1/2-y,-z
1/2-x,y,1/2-z
1/2-x,1/2-y,-z
1/2+x,y,1/2-z
1/2-x,1/2+y,z
1/2+x,-y,1/2+z
loop_
_atom_site_type_symbol
_atom_site_label
_atom_site_fract_x
_atom_site_fract_y
_atom_site_fract_z
Si Si1 0.942698 0.283447 0.739559
Si Si2 0.804496 0.446322 0.648313
Si Si3 0.624957 0.000000 0.000000
Si Si4 0.941451 0.578105 0.908436
Si Si5 0.605515 0.620738 0.070958
O O1 0.938530 0.240941 0.522703
O O2 0.901094 0.324421 0.680561
O O3 0.000000 0.304459 0.717762
O O4 0.801202 0.500000 0.500000
O O5 0.750000 0.431585 0.750000
O O6 0.837320 0.459594 0.898539
O O7 0.839335 0.403491 0.525678
O O8 0.587474 0.971018 0.187814
O O9 0.923459 0.618682 0.703828
O O10 0.000000 0.571691 0.900932
O O11 0.923863 0.589538 0.204295
#
# Coordination Sequence:
#
# PCOD9478903 Si02
#       5
#    16  16   8  16  16
#     4  10  20  36  59  84 113 150 189 233 288 349
#     4  11  21  38  59  81 114 153 201 246 286 336
#     4  10  21  34  50  80 114 152 197 232 276 338
#     4  11  21  34  53  80 120 156 187 229 281 344
#     4  11  23  37  58  87 116 152 198 240 288 342
#
# _framework density 19.363914999999999
#
# number of rings (size 3 to 8) (size 9 to 14) (size 15 to 20)
#    0.000    1.333    3.333    3.667    0.000    1.778 
#    0.000    3.333    0.000    1.333    0.000    0.000 
#    0.000    0.000    0.000    0.000    0.000    0.000 
#
# Total GULP energy -200453.938864 kJ/mol
# GULP energy per Si atom -5568.164968 kJ/mol
# Density = 1.931984 g / cm^3
# Si number density = 19.363915 Si / 1000 Ang^3
#
#
#
# Elastic Constant Matrix: (Units=GPa)
#
#
# Indices 1 2 3 4 5 6 
#
# 1 146.4061 35.6930 16.7806 0.0000 0.0000 0.0000
# 2 35.6930 59.1590 -8.6437 0.0000 0.0000 0.0000
# 3 16.7806 -8.6437 55.5527 0.0000 0.0000 0.0000
# 4 0.0000 0.0000 0.0000 9.1625 0.0000 0.0000
# 5 0.0000 0.0000 0.0000 0.0000 15.3663 0.0000
# 6 0.0000 0.0000 0.0000 0.0000 0.0000 34.7506
#
#
#
# Elastic Compliance Matrix: (Units=1/GPa)
#
#
# Indices 1 2 3 4 5 6 
#
# 1 0.008624 -0.005714 -0.003494 0.000000 0.000000 0.000000
# 2 -0.005714 0.021082 0.005006 0.000000 0.000000 0.000000
# 3 -0.003494 0.005006 0.019835 0.000000 0.000000 0.000000
# 4 0.000000 0.000000 0.000000 0.109140 0.000000 0.000000
# 5 0.000000 0.000000 0.000000 0.000000 0.065077 0.000000
# 6 0.000000 0.000000 0.000000 0.000000 0.000000 0.028776
#
#
# Mechanical properties :
#
#
# Convention : Reuss Voigt Hill
#
# Bulk Modulus (GPa) = 24.30808 38.75308 31.53058
# Shear Modulus (GPa) = 18.20492 26.34174 22.27333
#
# Velocity S-wave (km/s) = 3.06951 3.69230 3.39521
# Velocity P-wave (km/s) = 5.01428 6.18336 5.62925
#
# Compressibility (1/GPa) = 0.04113858
#
# Stress axis : x y z
#
# Youngs Moduli (GPa) = 115.95949 47.43334 50.41525
#
# Poissons Ratio (x) = 0.27101 0.17615
# Poissons Ratio (y) = 0.66254 -0.25239
# Poissons Ratio (z) = 0.40515 -0.23746
#
# Static dielectric constant tensor:
#      x y z
#    x 1.659200 0.000000 0.000000 
#    y 0.000000 1.782410 0.000000 
#    z 0.000000 0.000000 1.758540 
# 
# From -- ./inp_files/2256.got.cif
#   From: 2010.05.17/outbox.cif.g08.bks.cpg/sg64_2_cif.got.tgz:2256.got - 2010.06.03 16:29:19.
