data_PCOD9478840
_publ_section_title
;
Structure prediction by ZEFSAII (Michael W. Deem and Ramdas Pophale) SiO2 
 PCOD9478840
Probable space group: C M C A
;
_chemical_formula_sum "Si O2"
_cell_formula_units_Z 112
_cell_length_a 18.662106
_cell_length_b 11.301197
_cell_length_c 26.032860
_cell_angle_alpha 90.000000
_cell_angle_beta 90.000000
_cell_angle_gamma 90.000000
_cell_volume 5490.437855
_symmetry_space_group_name_H-M "C M C A"
_symmetry_group_IT_number 64
_symmetry_cell_setting 'orthorhombic'
loop_
_space_group_symop_operation_xyz
x,y,z
-x,1/2-y,1/2+z
x,-y,-z
-x,1/2+y,1/2-z
-x,-y,-z
x,1/2+y,1/2-z
-x,y,z
x,1/2-y,1/2+z
1/2+x,1/2+y,z
1/2-x,-y,1/2+z
1/2+x,1/2-y,-z
1/2-x,y,1/2-z
1/2-x,1/2-y,-z
1/2+x,y,1/2-z
1/2-x,1/2+y,z
1/2+x,-y,1/2+z
loop_
_atom_site_type_symbol
_atom_site_label
_atom_site_fract_x
_atom_site_fract_y
_atom_site_fract_z
Si Si1 0.163637 0.295518 0.261337
Si Si2 0.670831 0.043511 0.225013
Si Si3 0.310125 0.986129 0.112518
Si Si4 0.190523 0.319497 0.966181
Si Si5 0.415575 0.171080 0.944794
Si Si6 0.085752 0.950970 0.943425
Si Si7 0.165045 0.360674 0.378065
O O1 0.250000 0.288114 0.250000
O O2 0.137056 0.413482 0.232458
O O3 0.136597 0.161908 0.250788
O O4 0.146653 0.322566 0.320811
O O5 0.750000 0.033801 0.250000
O O6 0.679752 0.060959 0.164106
O O7 0.282588 0.067190 0.065490
O O8 0.380911 0.915038 0.097077
O O9 0.249024 0.891179 0.123633
O O10 0.157244 0.235676 0.922568
O O11 0.250000 0.250000 0.000000
O O12 0.127181 0.357732 0.003491
O O13 0.500000 0.155501 0.949269
O O14 0.400326 0.311227 0.936897
O O15 0.000000 0.968608 0.941267
O O16 0.122869 0.025298 0.898591
O O17 0.109276 0.000000 0.000000
#
# Coordination Sequence:
#
# PCOD9478840 Si02
#       7
#    16  16  16  16  16  16  16
#     4  10  20  36  57  90 126 163 202 262 330 380
#     4  10  20  37  58  87 127 162 203 262 321 387
#     4  12  24  37  61  95 128 164 215 261 322 390
#     4  12  24  37  56  92 133 166 209 263 318 377
#     4  11  25  43  62  88 131 179 215 257 317 388
#     4  10  22  40  61  87 125 173 216 252 307 381
#     4  12  22  35  62  93 123 163 208 264 315 375
#
# _framework density 20.399101000000002
#
# number of rings (size 3 to 8) (size 9 to 14) (size 15 to 20)
#    0.000    1.000    7.143    1.286    0.000    2.286 
#    0.000    0.000    0.000    0.857    0.000    0.000 
#    0.000    0.000    0.000    0.000    0.000    0.000 
#
# Total GULP energy -312506.254870 kJ/mol
# GULP energy per Si atom -5580.468837 kJ/mol
# Density = 2.035267 g / cm^3
# Si number density = 20.399101 Si / 1000 Ang^3
#
#
#
# Elastic Constant Matrix: (Units=GPa)
#
#
# Indices 1 2 3 4 5 6 
#
# 1 40.6093 16.7003 12.6319 0.0000 0.0000 0.0000
# 2 16.7003 103.4703 22.5579 0.0000 0.0000 0.0000
# 3 12.6319 22.5579 90.5581 0.0000 0.0000 0.0000
# 4 0.0000 0.0000 0.0000 19.6530 0.0000 0.0000
# 5 0.0000 0.0000 0.0000 0.0000 11.1226 0.0000
# 6 0.0000 0.0000 0.0000 0.0000 0.0000 9.3764
#
#
#
# Elastic Compliance Matrix: (Units=1/GPa)
#
#
# Indices 1 2 3 4 5 6 
#
# 1 0.027049 -0.003747 -0.002840 0.000000 0.000000 0.000000
# 2 -0.003747 0.010739 -0.002152 0.000000 0.000000 0.000000
# 3 -0.002840 -0.002152 0.011975 0.000000 0.000000 0.000000
# 4 0.000000 0.000000 0.000000 0.050883 0.000000 0.000000
# 5 0.000000 0.000000 0.000000 0.000000 0.089907 0.000000
# 6 0.000000 0.000000 0.000000 0.000000 0.000000 0.106651
#
#
# Mechanical properties :
#
#
# Convention : Reuss Voigt Hill
#
# Bulk Modulus (GPa) = 30.97419 37.60198 34.28808
# Shear Modulus (GPa) = 15.36370 20.21357 17.78864
#
# Velocity S-wave (km/s) = 2.74735 3.15128 2.95622
# Velocity P-wave (km/s) = 5.02802 5.63151 5.33830
#
# Compressibility (1/GPa) = 0.03228494
#
# Stress axis : x y z
#
# Youngs Moduli (GPa) = 36.96997 93.12233 83.50800
#
# Poissons Ratio (x) = 0.34890 0.23714
# Poissons Ratio (y) = 0.13851 0.17974
# Poissons Ratio (z) = 0.10499 0.20043
#
# Static dielectric constant tensor:
#      x y z
#    x 1.678650 0.000000 0.000000 
#    y 0.000000 1.817750 0.000000 
#    z 0.000000 0.000000 1.768480 
# 
# From -- ./inp_files/46334.got.cif
#   From: 2010.05.17/outbox.cif.g08.bks.cpg/sg64_24_cif.got.tgz:46334.got - 2010.06.03 16:29:19.
