data_PCOD9478456
_publ_section_title
;
Structure prediction by ZEFSAII (Michael W. Deem and Ramdas Pophale) SiO2 
 PCOD9478456
Probable space group: C M C A
;
_chemical_formula_sum "Si O2"
_cell_formula_units_Z 88
_cell_length_a 14.328154
_cell_length_b 30.718942
_cell_length_c 8.311075
_cell_angle_alpha 90.000000
_cell_angle_beta 90.000000
_cell_angle_gamma 90.000000
_cell_volume 3658.084187
_symmetry_space_group_name_H-M "C M C A"
_symmetry_group_IT_number 64
_symmetry_cell_setting 'orthorhombic'
loop_
_space_group_symop_operation_xyz
x,y,z
-x,1/2-y,1/2+z
x,-y,-z
-x,1/2+y,1/2-z
-x,-y,-z
x,1/2+y,1/2-z
-x,y,z
x,1/2-y,1/2+z
1/2+x,1/2+y,z
1/2-x,-y,1/2+z
1/2+x,1/2-y,-z
1/2-x,y,1/2-z
1/2-x,1/2-y,-z
1/2+x,y,1/2-z
1/2-x,1/2+y,z
1/2+x,-y,1/2+z
loop_
_atom_site_type_symbol
_atom_site_label
_atom_site_fract_x
_atom_site_fract_y
_atom_site_fract_z
Si Si1 0.750000 0.658237 0.250000
Si Si2 0.655327 0.424359 0.902404
Si Si3 0.390255 0.278038 0.565928
Si Si4 0.355399 0.091828 0.742197
Si Si5 0.106778 0.809410 0.201476
Si Si6 0.865354 0.452711 0.939535
O O1 0.692474 0.624923 0.134905
O O2 0.675127 0.688030 0.341522
O O3 0.752593 0.450423 0.922396
O O4 0.604712 0.440035 0.740693
O O5 0.605119 0.426397 0.074399
O O6 0.500000 0.279667 0.622156
O O7 0.353711 0.228670 0.589968
O O8 0.391394 0.289327 0.379229
O O9 0.250000 0.074457 0.750000
O O10 0.350864 0.143316 0.717004
O O11 0.394784 0.080085 0.917216
O O12 0.000000 0.816861 0.149255
O O13 0.892938 0.500000 0.000000
#
# Coordination Sequence:
#
# PCOD9478456 Si02
#       6
#     8  16  16  16  16  16
#     4  10  20  38  56  82 122 154 198 258 288 352
#     4   9  20  31  52  83 114 148 192 233 295 359
#     4  10  22  37  57  82 114 158 203 248 301 353
#     4  10  20  34  54  80 111 145 189 235 292 350
#     4  10  22  39  55  80 114 151 198 249 296 354
#     4   9  18  31  52  82 118 142 184 237 289 353
#
# _framework density 24.056308000000001
#
# number of rings (size 3 to 8) (size 9 to 14) (size 15 to 20)
#    0.000    2.545    0.000    3.273   11.455    0.727 
#    0.000    0.000    0.000    0.545    0.000    1.273 
#    0.000    1.273    0.000    0.000    0.000    0.000 
#
# Total GULP energy -245729.836867 kJ/mol
# GULP energy per Si atom -5584.769020 kJ/mol
# Density = 2.400155 g / cm^3
# Si number density = 24.056308 Si / 1000 Ang^3
#
#
#
# Elastic Constant Matrix: (Units=GPa)
#
#
# Indices 1 2 3 4 5 6 
#
# 1 88.4549 3.7708 24.6455 0.0000 0.0000 0.0000
# 2 3.7708 100.2011 64.7639 0.0000 0.0000 0.0000
# 3 24.6455 64.7639 203.6518 0.0000 0.0000 0.0000
# 4 0.0000 0.0000 0.0000 28.8197 0.0000 0.0000
# 5 0.0000 0.0000 0.0000 0.0000 -8.3521 0.0000
# 6 0.0000 0.0000 0.0000 0.0000 0.0000 137.6738
#
#
#
# Elastic Compliance Matrix: (Units=1/GPa)
#
#
# Indices 1 2 3 4 5 6 
#
# 1 0.011728 0.000599 -0.001610 0.000000 0.000000 0.000000
# 2 0.000599 0.012593 -0.004077 0.000000 0.000000 0.000000
# 3 -0.001610 -0.004077 0.006402 0.000000 0.000000 0.000000
# 4 0.000000 0.000000 0.000000 0.034698 0.000000 0.000000
# 5 0.000000 0.000000 0.000000 0.000000 -0.119730 0.000000
# 6 0.000000 0.000000 0.000000 0.000000 0.000000 0.007264
#
#
# Mechanical properties :
#
#
# Convention : Reuss Voigt Hill
#
# Bulk Modulus (GPa) = 48.66919 64.29648 56.48283
# Shear Modulus (GPa) = -166.54829 51.57012 -57.48909
#
# Velocity S-wave (km/s) = -8.32965 4.63506 -4.89383
# Velocity P-wave (km/s) = 8.49914 7.44517 2.89869
#
# Compressibility (1/GPa) = 0.02054688
#
# Stress axis : x y z
#
# Youngs Moduli (GPa) = 85.26456 79.41184 156.20755
#
# Poissons Ratio (x) = -0.04758 0.25147
# Poissons Ratio (y) = -0.05109 0.63688
# Poissons Ratio (z) = 0.13726 0.32377
#
# Static dielectric constant tensor:
#      x y z
#    x 1.939540 0.000000 0.000000 
#    y 0.000000 1.900270 0.000000 
#    z 0.000000 0.000000 1.937260 
# 
# From -- ./inp_files/7302.got.cif
#   From: 2010.05.17/outbox.cif.g08.bks.cpg/sg64_4_cif.got.tgz:7302.got - 2010.06.03 16:29:19.
