data_PCOD9478315
_publ_section_title
;
Structure prediction by ZEFSAII (Michael W. Deem and Ramdas Pophale) SiO2 
 PCOD9478315
Probable space group: C M C A
;
_chemical_formula_sum "Si O2"
_cell_formula_units_Z 104
_cell_length_a 7.587265
_cell_length_b 23.482280
_cell_length_c 28.387844
_cell_angle_alpha 90.000000
_cell_angle_beta 90.000000
_cell_angle_gamma 90.000000
_cell_volume 5057.756596
_symmetry_space_group_name_H-M "C M C A"
_symmetry_group_IT_number 64
_symmetry_cell_setting 'orthorhombic'
loop_
_space_group_symop_operation_xyz
x,y,z
-x,1/2-y,1/2+z
x,-y,-z
-x,1/2+y,1/2-z
-x,-y,-z
x,1/2+y,1/2-z
-x,y,z
x,1/2-y,1/2+z
1/2+x,1/2+y,z
1/2-x,-y,1/2+z
1/2+x,1/2-y,-z
1/2-x,y,1/2-z
1/2-x,1/2-y,-z
1/2+x,y,1/2-z
1/2-x,1/2+y,z
1/2+x,-y,1/2+z
loop_
_atom_site_type_symbol
_atom_site_label
_atom_site_fract_x
_atom_site_fract_y
_atom_site_fract_z
Si Si1 0.291902 0.454053 0.899993
Si Si2 0.712818 0.205808 0.607739
Si Si3 0.289147 0.857680 0.301936
Si Si4 0.208863 0.378040 0.023409
Si Si5 0.750946 0.500000 0.500000
Si Si6 0.711447 0.012396 0.696853
Si Si7 0.787677 0.828654 0.575369
O O1 0.500000 0.468615 0.907020
O O2 0.228498 0.479402 0.850127
O O3 0.276771 0.385737 0.899144
O O4 0.194263 0.477113 0.947110
O O5 0.500000 0.209574 0.608914
O O6 0.778558 0.183468 0.657739
O O7 0.758821 0.157415 0.570050
O O8 0.779170 0.268215 0.593656
O O9 0.500000 0.861553 0.307432
O O10 0.250000 0.836153 0.250000
O O11 0.220603 0.922503 0.305582
O O12 0.310579 0.437489 0.018004
O O13 0.000000 0.393118 0.020403
O O14 0.256689 0.338071 0.979443
O O15 0.500000 0.013250 0.693562
O O16 0.750000 0.990512 0.750000
O O17 0.000000 0.828723 0.578871
#
# Coordination Sequence:
#
# PCOD9478315 Si02
#       7
#    16  16  16  16   8  16  16
#     4  10  20  34  54  78 103 133 172 214 254 304
#     4  10  20  35  54  74 100 136 173 209 253 301
#     4   9  18  33  52  74  99 126 161 207 255 302
#     4  10  20  33  51  76 105 136 171 208 246 298
#     4  10  20  34  52  78 110 138 164 206 266 314
#     4   9  18  33  52  76 102 129 166 210 255 305
#     4   9  20  36  51  72 105 140 170 205 253 303
#
# _framework density 20.562477000000001
#
# number of rings (size 3 to 8) (size 9 to 14) (size 15 to 20)
#    0.000    2.462    0.000    1.846    0.000    6.769 
#    0.000    3.846    0.000    3.692    0.000    0.000 
#    0.000    0.000    0.000    0.000    0.000    0.000 
#
# Total GULP energy -289602.843748 kJ/mol
# GULP energy per Si atom -5569.285457 kJ/mol
# Density = 2.051568 g / cm^3
# Si number density = 20.562477 Si / 1000 Ang^3
#
#
#
# Elastic Constant Matrix: (Units=GPa)
#
#
# Indices 1 2 3 4 5 6 
#
# 1 56.7001 11.7683 14.4359 0.0000 0.0000 0.0000
# 2 11.7683 143.2554 120.0706 0.0000 0.0000 0.0000
# 3 14.4359 120.0706 194.9920 0.0000 0.0000 0.0000
# 4 0.0000 0.0000 0.0000 30.1583 0.0000 0.0000
# 5 0.0000 0.0000 0.0000 0.0000 4.5091 0.0000
# 6 0.0000 0.0000 0.0000 0.0000 0.0000 17.0009
#
#
#
# Elastic Compliance Matrix: (Units=1/GPa)
#
#
# Indices 1 2 3 4 5 6 
#
# 1 0.018014 -0.000748 -0.000873 0.000000 0.000000 0.000000
# 2 -0.000748 0.014457 -0.008847 0.000000 0.000000 0.000000
# 3 -0.000873 -0.008847 0.010641 0.000000 0.000000 0.000000
# 4 0.000000 0.000000 0.000000 0.033158 0.000000 0.000000
# 5 0.000000 0.000000 0.000000 0.000000 0.221773 0.000000
# 6 0.000000 0.000000 0.000000 0.000000 0.000000 0.058820
#
#
# Mechanical properties :
#
#
# Convention : Reuss Voigt Hill
#
# Bulk Modulus (GPa) = 45.09384 76.38855 60.74119
# Shear Modulus (GPa) = 12.98056 26.91186 19.94621
#
# Velocity S-wave (km/s) = 2.51524 3.62164 3.11791
# Velocity P-wave (km/s) = 5.51480 7.39719 6.52424
#
# Compressibility (1/GPa) = 0.02217598
#
# Stress axis : x y z
#
# Youngs Moduli (GPa) = 55.51177 69.17033 93.97886
#
# Poissons Ratio (x) = 0.05175 0.08204
# Poissons Ratio (y) = 0.04153 0.83142
# Poissons Ratio (z) = 0.04846 0.61194
#
# Static dielectric constant tensor:
#      x y z
#    x 1.886310 0.000000 0.000000 
#    y 0.000000 1.706100 0.000000 
#    z 0.000000 0.000000 1.719730 
# 
# From -- ./inp_files/48229.got.cif
#   From: 2010.05.17/outbox.cif.g08.bks.cpg/sg64_25_cif.got.tgz:48229.got - 2010.06.03 16:29:19.
