data_PCOD9478205
_publ_section_title
;
Structure prediction by ZEFSAII (Michael W. Deem and Ramdas Pophale) SiO2 
 PCOD9478205
Probable space group: C M C A
;
_chemical_formula_sum "Si O2"
_cell_formula_units_Z 84
_cell_length_a 15.275339
_cell_length_b 11.324558
_cell_length_c 20.012297
_cell_angle_alpha 90.000000
_cell_angle_beta 90.000000
_cell_angle_gamma 90.000000
_cell_volume 3461.856464
_symmetry_space_group_name_H-M "C M C A"
_symmetry_group_IT_number 64
_symmetry_cell_setting 'orthorhombic'
loop_
_space_group_symop_operation_xyz
x,y,z
-x,1/2-y,1/2+z
x,-y,-z
-x,1/2+y,1/2-z
-x,-y,-z
x,1/2+y,1/2-z
-x,y,z
x,1/2-y,1/2+z
1/2+x,1/2+y,z
1/2-x,-y,1/2+z
1/2+x,1/2-y,-z
1/2-x,y,1/2-z
1/2-x,1/2-y,-z
1/2+x,y,1/2-z
1/2-x,1/2+y,z
1/2+x,-y,1/2+z
loop_
_atom_site_type_symbol
_atom_site_label
_atom_site_fract_x
_atom_site_fract_y
_atom_site_fract_z
Si Si1 0.309273 0.274127 0.610812
Si Si2 0.500000 0.158839 0.885469
Si Si3 0.000000 0.000000 0.000000
Si Si4 0.500000 0.711967 0.770561
Si Si5 0.371695 0.657943 0.058897
Si Si6 0.750000 0.387149 0.750000
Si Si7 0.500000 0.121362 0.119371
Si Si8 0.361982 0.045391 0.659420
O O1 0.232514 0.328557 0.564297
O O2 0.283912 0.315712 0.686239
O O3 0.406884 0.323587 0.594232
O O4 0.301080 0.131814 0.615335
O O5 0.500000 0.199227 0.808062
O O6 0.416001 0.219962 0.919353
O O7 0.500000 0.018338 0.890374
O O8 0.077008 0.895835 0.003349
O O9 0.577971 0.640724 0.804941
O O10 0.500000 0.842751 0.801461
O O11 0.401095 0.556740 0.112804
O O12 0.678757 0.473056 0.780548
#
# Coordination Sequence:
#
# PCOD9478205 Si02
#       8
#    16   8   4   8  16   8   8  16
#     4  10  22  37  58  94 128 178 209 259 314 383
#     4  11  23  34  58  91 127 167 223 249 303 390
#     4  10  22  52  68  94 116 158 224 292 324 386
#     4  10  21  31  53  84 129 178 205 245 307 371
#     4  10  24  40  69  89 122 164 221 271 328 367
#     4  10  20  30  54  90 136 180 208 242 310 374
#     4  10  23  36  55  85 135 172 201 256 307 374
#     4  10  21  35  55  88 131 169 211 251 305 392
#
# _framework density 24.264436
#
# number of rings (size 3 to 8) (size 9 to 14) (size 15 to 20)
#    0.000    1.905    0.000    2.857   21.333    0.000 
#    0.000    0.952    0.000    0.571    0.000    0.000 
#    0.000    0.000    0.000    0.000    0.000    0.000 
#
# Total GULP energy -234003.822386 kJ/mol
# GULP energy per Si atom -5571.519581 kJ/mol
# Density = 2.420921 g / cm^3
# Si number density = 24.264436 Si / 1000 Ang^3
#
#
#
# Elastic Constant Matrix: (Units=GPa)
#
#
# Indices 1 2 3 4 5 6 
#
# 1 153.5481 33.7321 24.2219 0.0000 0.0000 0.0000
# 2 33.7321 169.8817 29.4185 0.0000 0.0000 0.0000
# 3 24.2219 29.4185 67.7040 0.0000 0.0000 0.0000
# 4 0.0000 0.0000 0.0000 31.5817 0.0000 0.0000
# 5 0.0000 0.0000 0.0000 0.0000 -5.9926 0.0000
# 6 0.0000 0.0000 0.0000 0.0000 0.0000 13.0211
#
#
#
# Elastic Compliance Matrix: (Units=1/GPa)
#
#
# Indices 1 2 3 4 5 6 
#
# 1 0.007069 -0.001044 -0.002075 0.000000 0.000000 0.000000
# 2 -0.001044 0.006520 -0.002459 0.000000 0.000000 0.000000
# 3 -0.002075 -0.002459 0.016581 0.000000 0.000000 0.000000
# 4 0.000000 0.000000 0.000000 0.031664 0.000000 0.000000
# 5 0.000000 0.000000 0.000000 0.000000 -0.166873 0.000000
# 6 0.000000 0.000000 0.000000 0.000000 0.000000 0.076798
#
#
# Mechanical properties :
#
#
# Convention : Reuss Voigt Hill
#
# Bulk Modulus (GPa) = 52.59730 62.87540 57.73635
# Shear Modulus (GPa) = -465.31802 27.97280 -218.67261
#
# Velocity S-wave (km/s) = -13.86311 3.39902 -9.50349
# Velocity P-wave (km/s) = 15.31418 6.43221 9.82728
#
# Compressibility (1/GPa) = 0.01901238
#
# Stress axis : x y z
#
# Youngs Moduli (GPa) = 141.45413 153.38160 60.30896
#
# Poissons Ratio (x) = 0.16018 0.12516
# Poissons Ratio (y) = 0.14772 0.14832
# Poissons Ratio (z) = 0.29357 0.37721
#
# Static dielectric constant tensor:
#      x y z
#    x 2.006860 0.000000 0.000000 
#    y 0.000000 1.914770 0.000000 
#    z 0.000000 0.000000 -2.835800 
# 
# From -- ./inp_files/45708.got.cif
#   From: 2010.05.17/outbox.cif.g08.bks.cpg/sg64_23_cif.got.tgz:45708.got - 2010.06.03 16:29:19.
