data_PCOD9478522
_publ_section_title
;
Structure prediction by ZEFSAII (Michael W. Deem and Ramdas Pophale) SiO2 
 PCOD9478522
Probable space group: C M C A
;
_chemical_formula_sum "Si O2"
_cell_formula_units_Z 116
_cell_length_a 8.101013
_cell_length_b 26.474046
_cell_length_c 29.457161
_cell_angle_alpha 90.000000
_cell_angle_beta 90.000000
_cell_angle_gamma 90.000000
_cell_volume 6317.576895
_symmetry_space_group_name_H-M "C M C A"
_symmetry_group_IT_number 64
_symmetry_cell_setting 'orthorhombic'
loop_
_space_group_symop_operation_xyz
x,y,z
-x,1/2-y,1/2+z
x,-y,-z
-x,1/2+y,1/2-z
-x,-y,-z
x,1/2+y,1/2-z
-x,y,z
x,1/2-y,1/2+z
1/2+x,1/2+y,z
1/2-x,-y,1/2+z
1/2+x,1/2-y,-z
1/2-x,y,1/2-z
1/2-x,1/2-y,-z
1/2+x,y,1/2-z
1/2-x,1/2+y,z
1/2+x,-y,1/2+z
loop_
_atom_site_type_symbol
_atom_site_label
_atom_site_fract_x
_atom_site_fract_y
_atom_site_fract_z
Si Si1 0.694650 0.291182 0.798914
Si Si2 0.193930 0.249449 0.892417
Si Si3 0.305868 0.455245 0.449229
Si Si4 0.693140 0.344988 0.949445
Si Si5 0.701005 0.650963 0.945903
Si Si6 0.197791 0.093408 0.199995
Si Si7 0.807823 0.058363 0.395606
Si Si8 0.500000 0.000000 0.500000
O O1 0.500000 0.296777 0.797273
O O2 0.750000 0.271436 0.750000
O O3 0.737697 0.258103 0.842199
O O4 0.762628 0.348592 0.804658
O O5 0.224800 0.300221 0.921058
O O6 0.258701 0.200655 0.919263
O O7 0.000000 0.242432 0.887753
O O8 0.500000 0.457613 0.465197
O O9 0.276785 0.400823 0.426984
O O10 0.277132 0.503092 0.416282
O O11 0.151421 0.460784 0.484230
O O12 0.500000 0.333119 0.950938
O O13 0.714698 0.398036 0.923434
O O14 0.754203 0.346677 0.001186
O O15 0.500000 0.649149 0.944401
O O16 0.250000 0.075518 0.250000
O O17 0.263207 0.062470 0.157199
O O18 0.000000 0.093612 0.197405
O O19 0.000000 0.069544 0.401591
#
# Coordination Sequence:
#
# PCOD9478522 Si02
#       8
#    16  16  16  16  16  16  16   4
#     4  10  20  35  56  84 114 147 188 238 294 355
#     4  11  22  37  58  85 118 158 197 241 298 353
#     4  11  25  40  61  89 116 161 206 249 304 350
#     4  11  22  35  55  83 115 158 201 242 293 347
#     4  10  23  41  59  81 118 164 206 249 296 349
#     4  10  20  34  57  85 118 153 186 235 303 362
#     4  11  23  37  57  87 120 151 199 248 296 359
#     4  12  22  40  64  82 124 148 202 260 292 344
#
# _framework density 18.361470000000001
#
# number of rings (size 3 to 8) (size 9 to 14) (size 15 to 20)
#    0.000    1.379    2.069    3.517    3.862    4.414 
#    0.000    0.000    0.000    0.828    0.000    5.793 
#    0.000    0.000    0.000    0.000    0.000    0.000 
#
# Total GULP energy -323283.886731 kJ/mol
# GULP energy per Si atom -5573.860116 kJ/mol
# Density = 1.831968 g / cm^3
# Si number density = 18.361470 Si / 1000 Ang^3
#
#
#
# Elastic Constant Matrix: (Units=GPa)
#
#
# Indices 1 2 3 4 5 6 
#
# 1 49.4875 14.4776 16.9662 0.0000 0.0000 0.0000
# 2 14.4776 99.7925 56.1237 0.0000 0.0000 0.0000
# 3 16.9662 56.1237 115.6445 0.0000 0.0000 0.0000
# 4 0.0000 0.0000 0.0000 21.3945 0.0000 0.0000
# 5 0.0000 0.0000 0.0000 0.0000 19.5518 0.0000
# 6 0.0000 0.0000 0.0000 0.0000 0.0000 20.2030
#
#
#
# Elastic Compliance Matrix: (Units=1/GPa)
#
#
# Indices 1 2 3 4 5 6 
#
# 1 0.021523 -0.001852 -0.002259 0.000000 0.000000 0.000000
# 2 -0.001852 0.013942 -0.006495 0.000000 0.000000 0.000000
# 3 -0.002259 -0.006495 0.012130 0.000000 0.000000 0.000000
# 4 0.000000 0.000000 0.000000 0.046741 0.000000 0.000000
# 5 0.000000 0.000000 0.000000 0.000000 0.051146 0.000000
# 6 0.000000 0.000000 0.000000 0.000000 0.000000 0.049498
#
#
# Mechanical properties :
#
#
# Convention : Reuss Voigt Hill
#
# Bulk Modulus (GPa) = 37.90051 48.89550 43.39800
# Shear Modulus (GPa) = 22.22355 24.05366 23.13861
#
# Velocity S-wave (km/s) = 3.48276 3.62333 3.55374
# Velocity P-wave (km/s) = 6.07116 6.64770 6.36596
#
# Compressibility (1/GPa) = 0.02638487
#
# Stress axis : x y z
#
# Youngs Moduli (GPa) = 46.46109 71.72553 82.43724
#
# Poissons Ratio (x) = 0.13285 0.18621
# Poissons Ratio (y) = 0.08605 0.53539
# Poissons Ratio (z) = 0.10495 0.46582
#
# Static dielectric constant tensor:
#      x y z
#    x 1.667010 0.000000 0.000000 
#    y 0.000000 1.669060 0.000000 
#    z 0.000000 0.000000 1.633980 
# 
# From -- ./inp_files/43410.got.cif
#   From: 2010.05.17/outbox.cif.g08.bks.cpg/sg64_22_cif.got.tgz:43410.got - 2010.06.03 16:29:19.
