data_PCOD9478708
_publ_section_title
;
Structure prediction by ZEFSAII (Michael W. Deem and Ramdas Pophale) SiO2 
 PCOD9478708
Probable space group: C M C A
;
_chemical_formula_sum "Si O2"
_cell_formula_units_Z 72
_cell_length_a 23.741533
_cell_length_b 15.861160
_cell_length_c 9.372668
_cell_angle_alpha 90.000000
_cell_angle_beta 90.000000
_cell_angle_gamma 90.000000
_cell_volume 3529.449220
_symmetry_space_group_name_H-M "C M C A"
_symmetry_group_IT_number 64
_symmetry_cell_setting 'orthorhombic'
loop_
_space_group_symop_operation_xyz
x,y,z
-x,1/2-y,1/2+z
x,-y,-z
-x,1/2+y,1/2-z
-x,-y,-z
x,1/2+y,1/2-z
-x,y,z
x,1/2-y,1/2+z
1/2+x,1/2+y,z
1/2-x,-y,1/2+z
1/2+x,1/2-y,-z
1/2-x,y,1/2-z
1/2-x,1/2-y,-z
1/2+x,y,1/2-z
1/2-x,1/2+y,z
1/2+x,-y,1/2+z
loop_
_atom_site_type_symbol
_atom_site_label
_atom_site_fract_x
_atom_site_fract_y
_atom_site_fract_z
Si Si1 0.639041 0.766626 0.099956
Si Si2 0.847785 0.000000 0.000000
Si Si3 0.801114 0.670746 0.633871
Si Si4 0.062963 0.886585 0.854581
Si Si5 0.438634 0.099740 0.018928
O O1 0.652661 0.784396 0.264494
O O2 0.589007 0.699046 0.083918
O O3 0.691262 0.727555 0.010279
O O4 0.615184 0.854039 0.043309
O O5 0.890617 0.956816 0.889156
O O6 0.813539 0.075511 0.922539
O O7 0.750000 0.667768 0.750000
O O8 0.059619 0.879422 0.685338
O O9 0.000000 0.904239 0.909802
O O10 0.500000 0.125050 0.955063
O O11 0.433997 0.000000 0.000000
#
# Coordination Sequence:
#
# PCOD9478708 Si02
#       5
#    16   8  16  16  16
#     4  11  21  41  65  91 128 163 213 259 320 370
#     4  10  23  42  62  94 130 164 215 256 326 374
#     4  11  24  44  65  93 122 170 218 270 314 371
#     4  10  20  37  61  95 128 166 204 251 314 387
#     4  10  20  35  58  91 127 165 204 250 315 380
#
# _framework density 20.399782999999999
#
# number of rings (size 3 to 8) (size 9 to 14) (size 15 to 20)
#    0.000    1.556    2.222    3.000    0.000    0.000 
#    6.000    4.444    0.000    0.000    0.000    0.000 
#    0.000    0.000    0.000    0.000    0.000    0.000 
#
# Total GULP energy -200465.156275 kJ/mol
# GULP energy per Si atom -5568.476563 kJ/mol
# Density = 2.035335 g / cm^3
# Si number density = 20.399783 Si / 1000 Ang^3
#
#
#
# Elastic Constant Matrix: (Units=GPa)
#
#
# Indices 1 2 3 4 5 6 
#
# 1 66.5001 33.2222 7.2593 0.0000 0.0000 0.0000
# 2 33.2222 86.3552 14.0958 0.0000 0.0000 0.0000
# 3 7.2593 14.0958 70.1546 0.0000 0.0000 0.0000
# 4 0.0000 0.0000 0.0000 34.1821 0.0000 0.0000
# 5 0.0000 0.0000 0.0000 0.0000 30.9150 0.0000
# 6 0.0000 0.0000 0.0000 0.0000 0.0000 10.6650
#
#
#
# Elastic Compliance Matrix: (Units=1/GPa)
#
#
# Indices 1 2 3 4 5 6 
#
# 1 0.018633 -0.007086 -0.000504 0.000000 0.000000 0.000000
# 2 -0.007086 0.014668 -0.002214 0.000000 0.000000 0.000000
# 3 -0.000504 -0.002214 0.014751 0.000000 0.000000 0.000000
# 4 0.000000 0.000000 0.000000 0.029255 0.000000 0.000000
# 5 0.000000 0.000000 0.000000 0.000000 0.032347 0.000000
# 6 0.000000 0.000000 0.000000 0.000000 0.000000 0.093764
#
#
# Mechanical properties :
#
#
# Convention : Reuss Voigt Hill
#
# Bulk Modulus (GPa) = 35.15775 36.90716 36.03245
# Shear Modulus (GPa) = 21.50475 26.38126 23.94301
#
# Velocity S-wave (km/s) = 3.25031 3.60003 3.42963
# Velocity P-wave (km/s) = 5.59981 5.95076 5.77795
#
# Compressibility (1/GPa) = 0.02844323
#
# Stress axis : x y z
#
# Youngs Moduli (GPa) = 53.66933 68.17791 67.79092
#
# Poissons Ratio (x) = 0.48310 0.03419
# Poissons Ratio (y) = 0.38030 0.15008
# Poissons Ratio (z) = 0.02707 0.15093
#
# Static dielectric constant tensor:
#      x y z
#    x 1.803490 0.000000 0.000000 
#    y 0.000000 1.758830 0.000000 
#    z 0.000000 0.000000 1.719600 
# 
# From -- ./inp_files/9136.got.cif
#   From: 2010.05.17/outbox.cif.g08.bks.cpg/sg64_5_cif.got.tgz:9136.got - 2010.06.03 16:29:19.
