data_PCOD9478134
_publ_section_title
;
Structure prediction by ZEFSAII (Michael W. Deem and Ramdas Pophale) SiO2 
 PCOD9478134
Probable space group: C M C A
;
_chemical_formula_sum "Si O2"
_cell_formula_units_Z 52
_cell_length_a 23.453383
_cell_length_b 4.971749
_cell_length_c 16.504408
_cell_angle_alpha 90.000000
_cell_angle_beta 90.000000
_cell_angle_gamma 90.000000
_cell_volume 1924.485494
_symmetry_space_group_name_H-M "C M C A"
_symmetry_group_IT_number 64
_symmetry_cell_setting 'orthorhombic'
loop_
_space_group_symop_operation_xyz
x,y,z
-x,1/2-y,1/2+z
x,-y,-z
-x,1/2+y,1/2-z
-x,-y,-z
x,1/2+y,1/2-z
-x,y,z
x,1/2-y,1/2+z
1/2+x,1/2+y,z
1/2-x,-y,1/2+z
1/2+x,1/2-y,-z
1/2-x,y,1/2-z
1/2-x,1/2-y,-z
1/2+x,y,1/2-z
1/2-x,1/2+y,z
1/2+x,-y,1/2+z
loop_
_atom_site_type_symbol
_atom_site_label
_atom_site_fract_x
_atom_site_fract_y
_atom_site_fract_z
Si Si1 0.000000 0.500000 0.000000
Si Si2 0.437405 0.790872 0.695349
Si Si3 0.884555 0.887416 0.579514
Si Si4 0.716312 0.520045 0.902310
O O1 0.052302 0.321039 0.955413
O O2 0.436086 0.096146 0.725419
O O3 0.500000 0.749786 0.654706
O O4 0.394021 0.639544 0.637966
O O5 0.844842 0.655639 0.614814
O O6 0.852818 0.000000 0.500000
O O7 0.763719 0.731917 0.871484
O O8 0.717906 0.500000 0.000000
#
# Coordination Sequence:
#
# PCOD9478134 Si02
#       4
#     4  16  16  16
#     4   8  20  36  58 100 126 152 200 258 326 356
#     4  10  21  38  58  84 120 162 201 241 304 381
#     4  10  19  38  63  89 128 154 201 261 305 365
#     4  10  21  37  60  89 119 159 206 249 299 355
#
# _framework density 27.020206999999999
#
# number of rings (size 3 to 8) (size 9 to 14) (size 15 to 20)
#    0.923    1.231    1.538    2.769    0.000    4.923 
#    0.000    0.769    0.000    5.538    0.000    0.000 
#    0.000    0.000    0.000    0.000    0.000    0.000 
#
# Total GULP energy -144824.830018 kJ/mol
# GULP energy per Si atom -5570.185770 kJ/mol
# Density = 2.695871 g / cm^3
# Si number density = 27.020207 Si / 1000 Ang^3
#
#
#
# Elastic Constant Matrix: (Units=GPa)
#
#
# Indices 1 2 3 4 5 6 
#
# 1 203.5334 41.3026 10.1793 0.0000 0.0000 0.0000
# 2 41.3026 125.0616 -6.5893 0.0000 0.0000 0.0000
# 3 10.1793 -6.5893 25.5307 0.0000 0.0000 0.0000
# 4 0.0000 0.0000 0.0000 26.3368 0.0000 0.0000
# 5 0.0000 0.0000 0.0000 0.0000 13.1795 0.0000
# 6 0.0000 0.0000 0.0000 0.0000 0.0000 25.7227
#
#
#
# Elastic Compliance Matrix: (Units=1/GPa)
#
#
# Indices 1 2 3 4 5 6 
#
# 1 0.005440 -0.001937 -0.002669 0.000000 0.000000 0.000000
# 2 -0.001937 0.008796 0.003043 0.000000 0.000000 0.000000
# 3 -0.002669 0.003043 0.041018 0.000000 0.000000 0.000000
# 4 0.000000 0.000000 0.000000 0.037970 0.000000 0.000000
# 5 0.000000 0.000000 0.000000 0.000000 0.075875 0.000000
# 6 0.000000 0.000000 0.000000 0.000000 0.000000 0.038876
#
#
# Mechanical properties :
#
#
# Convention : Reuss Voigt Hill
#
# Bulk Modulus (GPa) = 19.18397 49.32345 34.25371
# Shear Modulus (GPa) = 21.88402 33.66335 27.77369
#
# Velocity S-wave (km/s) = 2.84898 3.53350 3.20954
# Velocity P-wave (km/s) = 4.23528 5.91113 5.14193
#
# Compressibility (1/GPa) = 0.05212686
#
# Stress axis : x y z
#
# Youngs Moduli (GPa) = 183.83108 113.68640 24.37965
#
# Poissons Ratio (x) = 0.22023 0.06507
# Poissons Ratio (y) = 0.35611 -0.07418
# Poissons Ratio (z) = 0.49062 -0.34590
#
# Static dielectric constant tensor:
#      x y z
#    x 2.195130 0.000000 0.000000 
#    y 0.000000 2.056060 0.000000 
#    z 0.000000 0.000000 2.576270 
# 
# From -- ./inp_files/35220.got.cif
#   From: 2010.05.17/outbox.cif.g08.bks.cpg/sg64_18_cif.got.tgz:35220.got - 2010.06.03 16:29:19.
