data_PCOD9478445
_publ_section_title
;
Structure prediction by ZEFSAII (Michael W. Deem and Ramdas Pophale) SiO2 
 PCOD9478445
Probable space group: C M C A
;
_chemical_formula_sum "Si O2"
_cell_formula_units_Z 64
_cell_length_a 22.306409
_cell_length_b 16.411164
_cell_length_c 8.294983
_cell_angle_alpha 90.000000
_cell_angle_beta 90.000000
_cell_angle_gamma 90.000000
_cell_volume 3036.578738
_symmetry_space_group_name_H-M "C M C A"
_symmetry_group_IT_number 64
_symmetry_cell_setting 'orthorhombic'
loop_
_space_group_symop_operation_xyz
x,y,z
-x,1/2-y,1/2+z
x,-y,-z
-x,1/2+y,1/2-z
-x,-y,-z
x,1/2+y,1/2-z
-x,y,z
x,1/2-y,1/2+z
1/2+x,1/2+y,z
1/2-x,-y,1/2+z
1/2+x,1/2-y,-z
1/2-x,y,1/2-z
1/2-x,1/2-y,-z
1/2+x,y,1/2-z
1/2-x,1/2+y,z
1/2+x,-y,1/2+z
loop_
_atom_site_type_symbol
_atom_site_label
_atom_site_fract_x
_atom_site_fract_y
_atom_site_fract_z
Si Si1 0.929269 0.344715 0.031011
Si Si2 0.792705 0.149150 0.935948
Si Si3 0.821415 0.068621 0.630166
Si Si4 0.860473 0.289163 0.731600
O O1 0.900695 0.340517 0.853789
O O2 0.000000 0.352495 0.032649
O O3 0.891925 0.415099 0.118379
O O4 0.906644 0.263534 0.123310
O O5 0.807872 0.070697 0.821866
O O6 0.720626 0.143678 0.935152
O O7 0.820759 0.225118 0.836247
O O8 0.820054 0.156605 0.112600
O O9 0.806612 0.000000 0.500000
#
# Coordination Sequence:
#
# PCOD9478445 Si02
#       4
#    16  16  16  16
#     4  10  20  34  54  78 107 142 177 218 265 316
#     4   9  20  36  57  83 109 136 173 225 278 316
#     4  10  22  36  52  76 108 146 180 212 257 318
#     4   9  19  35  57  84 108 131 172 228 280 319
#
# _framework density 21.076350000000001
#
# number of rings (size 3 to 8) (size 9 to 14) (size 15 to 20)
#    0.000    2.500    0.000    0.750    0.000   23.500 
#    0.000    1.250    0.000    1.500    0.000    0.000 
#    0.000    0.000    0.000    0.000    0.000    0.000 
#
# Total GULP energy -178283.337624 kJ/mol
# GULP energy per Si atom -5571.354301 kJ/mol
# Density = 2.102838 g / cm^3
# Si number density = 21.076350 Si / 1000 Ang^3
#
#
#
# Elastic Constant Matrix: (Units=GPa)
#
#
# Indices 1 2 3 4 5 6 
#
# 1 158.8647 19.3048 21.5188 0.0000 0.0000 0.0000
# 2 19.3048 26.8954 18.7033 0.0000 0.0000 0.0000
# 3 21.5188 18.7033 82.2906 0.0000 0.0000 0.0000
# 4 0.0000 0.0000 0.0000 23.2232 0.0000 0.0000
# 5 0.0000 0.0000 0.0000 0.0000 31.1885 0.0000
# 6 0.0000 0.0000 0.0000 0.0000 0.0000 13.2819
#
#
#
# Elastic Compliance Matrix: (Units=1/GPa)
#
#
# Indices 1 2 3 4 5 6 
#
# 1 0.006941 -0.004418 -0.000811 0.000000 0.000000 0.000000
# 2 -0.004418 0.046973 -0.009521 0.000000 0.000000 0.000000
# 3 -0.000811 -0.009521 0.014528 0.000000 0.000000 0.000000
# 4 0.000000 0.000000 0.000000 0.043060 0.000000 0.000000
# 5 0.000000 0.000000 0.000000 0.000000 0.032063 0.000000
# 6 0.000000 0.000000 0.000000 0.000000 0.000000 0.075290
#
#
# Mechanical properties :
#
#
# Convention : Reuss Voigt Hill
#
# Bulk Modulus (GPa) = 25.67894 43.01161 34.34527
# Shear Modulus (GPa) = 19.13231 27.44030 23.28631
#
# Velocity S-wave (km/s) = 3.01618 3.61217 3.32754
# Velocity P-wave (km/s) = 4.93356 6.15214 5.57624
#
# Compressibility (1/GPa) = 0.03894242
#
# Stress axis : x y z
#
# Youngs Moduli (GPa) = 144.06263 21.28865 68.83244
#
# Poissons Ratio (x) = 0.09406 0.05582
# Poissons Ratio (y) = 0.63653 0.65534
# Poissons Ratio (z) = 0.11682 0.20269
#
# Static dielectric constant tensor:
#      x y z
#    x 1.741500 0.000000 0.000000 
#    y 0.000000 1.857260 0.000000 
#    z 0.000000 0.000000 1.826830 
# 
# From -- ./inp_files/8971.got.cif
#   From: 2010.05.17/outbox.cif.g08.bks.cpg/sg64_5_cif.got.tgz:8971.got - 2010.06.03 16:29:19.
