data_PCOD9478441
_publ_section_title
;
Structure prediction by ZEFSAII (Michael W. Deem and Ramdas Pophale) SiO2 
 PCOD9478441
Probable space group: C M C A
;
_chemical_formula_sum "Si O2"
_cell_formula_units_Z 112
_cell_length_a 33.744685
_cell_length_b 13.676218
_cell_length_c 14.829384
_cell_angle_alpha 90.000000
_cell_angle_beta 90.000000
_cell_angle_gamma 90.000000
_cell_volume 6843.755799
_symmetry_space_group_name_H-M "C M C A"
_symmetry_group_IT_number 64
_symmetry_cell_setting 'orthorhombic'
loop_
_space_group_symop_operation_xyz
x,y,z
-x,1/2-y,1/2+z
x,-y,-z
-x,1/2+y,1/2-z
-x,-y,-z
x,1/2+y,1/2-z
-x,y,z
x,1/2-y,1/2+z
1/2+x,1/2+y,z
1/2-x,-y,1/2+z
1/2+x,1/2-y,-z
1/2-x,y,1/2-z
1/2-x,1/2-y,-z
1/2+x,y,1/2-z
1/2-x,1/2+y,z
1/2+x,-y,1/2+z
loop_
_atom_site_type_symbol
_atom_site_label
_atom_site_fract_x
_atom_site_fract_y
_atom_site_fract_z
Si Si1 0.164126 0.031340 0.235332
Si Si2 0.695671 0.087272 0.071161
Si Si3 0.353596 0.768707 0.495044
Si Si4 0.284822 0.090006 0.431774
Si Si5 0.047062 0.017919 0.106417
Si Si6 0.900070 0.191955 0.173048
Si Si7 0.106404 0.139497 0.817404
O O1 0.181982 0.045451 0.333355
O O2 0.198244 0.047946 0.161591
O O3 0.132162 0.116402 0.214114
O O4 0.141571 0.928537 0.222731
O O5 0.740313 0.129813 0.078655
O O6 0.664798 0.167778 0.038060
O O7 0.696511 0.000000 0.000000
O O8 0.316667 0.834874 0.528001
O O9 0.381899 0.761758 0.581929
O O10 0.376747 0.817074 0.411211
O O11 0.283312 0.000000 0.500000
O O12 0.063924 0.121934 0.141470
O O13 0.000000 0.012536 0.118205
O O14 0.070319 0.933121 0.159591
O O15 0.056143 0.000000 0.000000
O O16 0.906097 0.275750 0.247679
#
# Coordination Sequence:
#
# PCOD9478441 Si02
#       7
#    16  16  16  16  16  16  16
#     4  10  20  34  54  78 105 142 195 229 270 335
#     4  11  22  35  50  76 112 147 182 235 286 328
#     4  11  20  36  55  80 107 145 192 234 270 339
#     4  10  20  34  54  73 106 146 189 240 284 312
#     4  10  21  38  62  91 116 142 183 228 277 342
#     4  10  21  35  59  85 109 147 181 225 278 330
#     4  11  20  36  61  85 110 149 185 229 281 332
#
# _framework density 16.365283000000002
#
# number of rings (size 3 to 8) (size 9 to 14) (size 15 to 20)
#    0.000    1.571    4.286    1.714    0.000    0.571 
#    0.000    0.000    0.000    0.000    0.000    1.000 
#    0.000    0.000    0.000    0.000    0.000    0.000 
#
# Total GULP energy -312415.161949 kJ/mol
# GULP energy per Si atom -5578.842178 kJ/mol
# Density = 1.632803 g / cm^3
# Si number density = 16.365283 Si / 1000 Ang^3
#
#
#
# Elastic Constant Matrix: (Units=GPa)
#
#
# Indices 1 2 3 4 5 6 
#
# 1 90.7368 40.8250 53.7348 0.0000 0.0000 0.0000
# 2 40.8250 79.2627 52.9095 0.0000 0.0000 0.0000
# 3 53.7348 52.9095 141.4251 0.0000 0.0000 0.0000
# 4 0.0000 0.0000 0.0000 32.8364 0.0000 0.0000
# 5 0.0000 0.0000 0.0000 0.0000 24.5558 0.0000
# 6 0.0000 0.0000 0.0000 0.0000 0.0000 19.3615
#
#
#
# Elastic Compliance Matrix: (Units=1/GPa)
#
#
# Indices 1 2 3 4 5 6 
#
# 1 0.015848 -0.005522 -0.003956 0.000000 0.000000 0.000000
# 2 -0.005522 0.018740 -0.004913 0.000000 0.000000 0.000000
# 3 -0.003956 -0.004913 0.010412 0.000000 0.000000 0.000000
# 4 0.000000 0.000000 0.000000 0.030454 0.000000 0.000000
# 5 0.000000 0.000000 0.000000 0.000000 0.040724 0.000000
# 6 0.000000 0.000000 0.000000 0.000000 0.000000 0.051649
#
#
# Mechanical properties :
#
#
# Convention : Reuss Voigt Hill
#
# Bulk Modulus (GPa) = 61.65749 67.37368 64.51559
# Shear Modulus (GPa) = 24.75086 26.28110 25.51598
#
# Velocity S-wave (km/s) = 3.89318 4.01172 3.95289
# Velocity P-wave (km/s) = 7.61359 7.91938 7.76799
#
# Compressibility (1/GPa) = 0.01621863
#
# Stress axis : x y z
#
# Youngs Moduli (GPa) = 63.09955 53.36206 96.04569
#
# Poissons Ratio (x) = 0.29468 0.37991
# Poissons Ratio (y) = 0.34845 0.47184
# Poissons Ratio (z) = 0.24959 0.26215
#
# Static dielectric constant tensor:
#      x y z
#    x 1.535380 0.000000 0.000000 
#    y 0.000000 1.530680 0.000000 
#    z 0.000000 0.000000 1.481040 
# 
# From -- ./inp_files/28465.got.cif
#   From: 2010.05.17/outbox.cif.g08.bks.cpg/sg64_15_cif.got.tgz:28465.got - 2010.06.03 16:29:19.
