data_PCOD9478328
_publ_section_title
;
Structure prediction by ZEFSAII (Michael W. Deem and Ramdas Pophale) SiO2 
 PCOD9478328
Probable space group: C M C A
;
_chemical_formula_sum "Si O2"
_cell_formula_units_Z 96
_cell_length_a 8.873541
_cell_length_b 30.052371
_cell_length_c 20.853382
_cell_angle_alpha 90.000000
_cell_angle_beta 90.000000
_cell_angle_gamma 90.000000
_cell_volume 5560.991110
_symmetry_space_group_name_H-M "C M C A"
_symmetry_group_IT_number 64
_symmetry_cell_setting 'orthorhombic'
loop_
_space_group_symop_operation_xyz
x,y,z
-x,1/2-y,1/2+z
x,-y,-z
-x,1/2+y,1/2-z
-x,-y,-z
x,1/2+y,1/2-z
-x,y,z
x,1/2-y,1/2+z
1/2+x,1/2+y,z
1/2-x,-y,1/2+z
1/2+x,1/2-y,-z
1/2-x,y,1/2-z
1/2-x,1/2-y,-z
1/2+x,y,1/2-z
1/2-x,1/2+y,z
1/2+x,-y,1/2+z
loop_
_atom_site_type_symbol
_atom_site_label
_atom_site_fract_x
_atom_site_fract_y
_atom_site_fract_z
Si Si1 0.822905 0.747327 0.184045
Si Si2 0.179576 0.717391 0.946374
Si Si3 0.820976 0.945876 0.816897
Si Si4 0.825182 0.134510 0.008103
Si Si5 0.320099 0.458405 0.546424
Si Si6 0.171649 0.157916 0.156684
O O1 0.750000 0.763866 0.250000
O O2 0.742388 0.768278 0.122457
O O3 0.788158 0.694476 0.179992
O O4 0.000000 0.755464 0.182081
O O5 0.000000 0.721344 0.948316
O O6 0.250000 0.750000 0.000000
O O7 0.232567 0.667590 0.963302
O O8 0.750000 0.961837 0.750000
O O9 0.746453 0.964423 0.881931
O O10 0.798442 0.892233 0.820607
O O11 0.000000 0.953760 0.818232
O O12 0.754469 0.085816 0.016542
O O13 0.822667 0.155605 0.079553
O O14 0.000000 0.131702 0.988324
O O15 0.289730 0.500000 0.500000
O O16 0.500000 0.452154 0.551351
O O17 0.000000 0.170646 0.175389
#
# Coordination Sequence:
#
# PCOD9478328 Si02
#       6
#    16  16  16  16  16  16
#     4  12  24  36  52  75 108 149 190 235 281 329
#     4  12  23  37  57  81 111 147 190 232 273 327
#     4  10  20  33  52  78 111 146 182 224 275 337
#     4  10  20  35  57  83 111 144 186 230 277 330
#     4  10  21  37  58  84 114 147 186 231 281 335
#     4   9  18  32  50  75 108 143 181 221 269 329
#
# _framework density 17.263110000000001
#
# number of rings (size 3 to 8) (size 9 to 14) (size 15 to 20)
#    0.000    1.500    1.667    6.000    0.000    6.000 
#    0.000    0.000    0.000    1.000    0.000    2.333 
#    0.000    0.000    0.000    0.000    0.000    0.000 
#
# Total GULP energy -268161.014690 kJ/mol
# GULP energy per Si atom -5586.687806 kJ/mol
# Density = 1.722382 g / cm^3
# Si number density = 17.263110 Si / 1000 Ang^3
#
#
#
# Elastic Constant Matrix: (Units=GPa)
#
#
# Indices 1 2 3 4 5 6 
#
# 1 155.6127 56.8295 89.4930 0.0000 0.0000 0.0000
# 2 56.8295 64.4829 53.5820 0.0000 0.0000 0.0000
# 3 89.4930 53.5820 140.8198 0.0000 0.0000 0.0000
# 4 0.0000 0.0000 0.0000 18.7018 0.0000 0.0000
# 5 0.0000 0.0000 0.0000 0.0000 30.6931 0.0000
# 6 0.0000 0.0000 0.0000 0.0000 0.0000 24.7367
#
#
#
# Elastic Compliance Matrix: (Units=1/GPa)
#
#
# Indices 1 2 3 4 5 6 
#
# 1 0.011498 -0.005939 -0.005047 0.000000 0.000000 0.000000
# 2 -0.005939 0.025746 -0.006022 0.000000 0.000000 0.000000
# 3 -0.005047 -0.006022 0.012600 0.000000 0.000000 0.000000
# 4 0.000000 0.000000 0.000000 0.053471 0.000000 0.000000
# 5 0.000000 0.000000 0.000000 0.000000 0.032581 0.000000
# 6 0.000000 0.000000 0.000000 0.000000 0.000000 0.040426
#
#
# Mechanical properties :
#
#
# Convention : Reuss Voigt Hill
#
# Bulk Modulus (GPa) = 63.18114 84.52493 73.85304
# Shear Modulus (GPa) = 23.18958 25.56038 24.37498
#
# Velocity S-wave (km/s) = 3.66909 3.85208 3.76169
# Velocity P-wave (km/s) = 7.39107 8.29781 7.85753
#
# Compressibility (1/GPa) = 0.01582751
#
# Stress axis : x y z
#
# Youngs Moduli (GPa) = 86.97290 38.84056 79.36380
#
# Poissons Ratio (x) = 0.23068 0.40056
# Poissons Ratio (y) = 0.51655 0.47793
# Poissons Ratio (z) = 0.43897 0.23390
#
# Static dielectric constant tensor:
#      x y z
#    x 1.581420 0.000000 0.000000 
#    y 0.000000 1.572050 0.000000 
#    z 0.000000 0.000000 1.598550 
# 
# From -- ./inp_files/37102.got.cif
#   From: 2010.05.17/outbox.cif.g08.bks.cpg/sg64_19_cif.got.tgz:37102.got - 2010.06.03 16:29:19.
