data_PCOD9478160
_publ_section_title
;
Structure prediction by ZEFSAII (Michael W. Deem and Ramdas Pophale) SiO2 
 PCOD9478160
Probable space group: C M C A
;
_chemical_formula_sum "Si O2"
_cell_formula_units_Z 80
_cell_length_a 16.728218
_cell_length_b 7.786764
_cell_length_c 22.639450
_cell_angle_alpha 90.000000
_cell_angle_beta 90.000000
_cell_angle_gamma 90.000000
_cell_volume 2948.985002
_symmetry_space_group_name_H-M "C M C A"
_symmetry_group_IT_number 64
_symmetry_cell_setting 'orthorhombic'
loop_
_space_group_symop_operation_xyz
x,y,z
-x,1/2-y,1/2+z
x,-y,-z
-x,1/2+y,1/2-z
-x,-y,-z
x,1/2+y,1/2-z
-x,y,z
x,1/2-y,1/2+z
1/2+x,1/2+y,z
1/2-x,-y,1/2+z
1/2+x,1/2-y,-z
1/2-x,y,1/2-z
1/2-x,1/2-y,-z
1/2+x,y,1/2-z
1/2-x,1/2+y,z
1/2+x,-y,1/2+z
loop_
_atom_site_type_symbol
_atom_site_label
_atom_site_fract_x
_atom_site_fract_y
_atom_site_fract_z
Si Si1 0.500000 0.500163 0.102562
Si Si2 0.000000 0.400290 0.110549
Si Si3 0.000000 0.293766 0.797438
Si Si4 0.631713 0.500000 0.000000
Si Si5 0.164998 0.338063 0.061125
Si Si6 0.730385 0.044145 0.369021
Si Si7 0.328722 0.249303 0.710115
O O1 0.500000 0.696601 0.125240
O O2 0.500000 0.356971 0.152955
O O3 0.424269 0.482150 0.058632
O O4 0.920258 0.425351 0.070982
O O5 0.000000 0.528573 0.165762
O O6 0.083830 0.273221 0.763478
O O7 0.661590 0.301174 0.990496
O O8 0.237613 0.472463 0.068235
O O9 0.186001 0.220952 0.118452
O O10 0.676737 0.918450 0.330834
O O11 0.809592 0.089775 0.332176
O O12 0.250000 0.242267 0.750000
#
# Coordination Sequence:
#
# PCOD9478160 Si02
#       7
#     8   8   8   8  16  16  16
#     4   9  20  38  66 100 146 181 234 291 339 409
#     4  10  19  39  66  96 121 178 234 266 336 425
#     4  12  23  43  76 100 131 189 234 280 365 426
#     4   9  18  36  62  98 144 179 232 299 330 406
#     4  10  20  38  62  94 133 181 227 277 345 411
#     4  10  22  40  65  89 136 185 215 289 363 406
#     4  11  23  43  67 100 131 169 235 294 347 426
#
# _framework density 27.127977000000001
#
# number of rings (size 3 to 8) (size 9 to 14) (size 15 to 20)
#    0.000    1.800    2.000    3.600    0.000    0.800 
#    0.000   16.000    0.000    0.000    0.000    0.000 
#    0.000    0.000    0.000    0.000    0.000    0.300 
#
# Total GULP energy -223780.239578 kJ/mol
# GULP energy per Si atom -5594.505989 kJ/mol
# Density = 2.706623 g / cm^3
# Si number density = 27.127977 Si / 1000 Ang^3
#
#
#
# Elastic Constant Matrix: (Units=GPa)
#
#
# Indices 1 2 3 4 5 6 
#
# 1 152.5032 13.2209 19.9482 0.0000 0.0000 0.0000
# 2 13.2209 120.1614 21.7390 0.0000 0.0000 0.0000
# 3 19.9482 21.7390 72.7152 0.0000 0.0000 0.0000
# 4 0.0000 0.0000 0.0000 36.2030 0.0000 0.0000
# 5 0.0000 0.0000 0.0000 0.0000 38.2764 0.0000
# 6 0.0000 0.0000 0.0000 0.0000 0.0000 8.6878
#
#
#
# Elastic Compliance Matrix: (Units=1/GPa)
#
#
# Indices 1 2 3 4 5 6 
#
# 1 0.006823 -0.000436 -0.001741 0.000000 0.000000 0.000000
# 2 -0.000436 0.008826 -0.002519 0.000000 0.000000 0.000000
# 3 -0.001741 -0.002519 0.014983 0.000000 0.000000 0.000000
# 4 0.000000 0.000000 0.000000 0.027622 0.000000 0.000000
# 5 0.000000 0.000000 0.000000 0.000000 0.026126 0.000000
# 6 0.000000 0.000000 0.000000 0.000000 0.000000 0.115104
#
#
# Mechanical properties :
#
#
# Convention : Reuss Voigt Hill
#
# Bulk Modulus (GPa) = 47.08232 50.57732 48.82982
# Shear Modulus (GPa) = 23.15289 35.99821 29.57555
#
# Velocity S-wave (km/s) = 2.92459 3.64672 3.30543
# Velocity P-wave (km/s) = 5.36634 6.03456 5.71023
#
# Compressibility (1/GPa) = 0.02123939
#
# Stress axis : x y z
#
# Youngs Moduli (GPa) = 146.56735 113.30407 66.74167
#
# Poissons Ratio (x) = 0.04936 0.11623
# Poissons Ratio (y) = 0.06385 0.16813
# Poissons Ratio (z) = 0.25525 0.28542
#
# Static dielectric constant tensor:
#      x y z
#    x 2.215110 0.000000 0.000000 
#    y 0.000000 2.107270 0.000000 
#    z 0.000000 0.000000 2.155940 
# 
# From -- ./inp_files/50345.got.cif
#   From: 2010.05.17/outbox.cif.g08.bks.cpg/sg64_26_cif.got.tgz:50345.got - 2010.06.03 16:29:19.
