data_PCOD9478608
_publ_section_title
;
Structure prediction by ZEFSAII (Michael W. Deem and Ramdas Pophale) SiO2 
 PCOD9478608
Probable space group: C M C A
;
_chemical_formula_sum "Si O2"
_cell_formula_units_Z 128
_cell_length_a 26.013166
_cell_length_b 11.658367
_cell_length_c 23.096911
_cell_angle_alpha 90.000000
_cell_angle_beta 90.000000
_cell_angle_gamma 90.000000
_cell_volume 7004.624129
_symmetry_space_group_name_H-M "C M C A"
_symmetry_group_IT_number 64
_symmetry_cell_setting 'orthorhombic'
loop_
_space_group_symop_operation_xyz
x,y,z
-x,1/2-y,1/2+z
x,-y,-z
-x,1/2+y,1/2-z
-x,-y,-z
x,1/2+y,1/2-z
-x,y,z
x,1/2-y,1/2+z
1/2+x,1/2+y,z
1/2-x,-y,1/2+z
1/2+x,1/2-y,-z
1/2-x,y,1/2-z
1/2-x,1/2-y,-z
1/2+x,y,1/2-z
1/2-x,1/2+y,z
1/2+x,-y,1/2+z
loop_
_atom_site_type_symbol
_atom_site_label
_atom_site_fract_x
_atom_site_fract_y
_atom_site_fract_z
Si Si1 0.193101 0.987428 0.123803
Si Si2 0.879793 0.886013 0.964677
Si Si3 0.207291 0.886287 0.650435
Si Si4 0.849901 0.304777 0.288364
Si Si5 0.294460 0.216884 0.543444
Si Si6 0.377162 0.061358 0.819291
Si Si7 0.560068 0.235004 0.368829
Si Si8 0.438808 0.360280 0.741996
O O1 0.159154 0.904942 0.164727
O O2 0.218409 0.900675 0.077363
O O3 0.159262 0.073156 0.085799
O O4 0.237276 0.056036 0.157076
O O5 0.924016 0.824163 0.928677
O O6 0.847367 0.807323 0.009007
O O7 0.895850 0.000000 0.000000
O O8 0.191242 0.795044 0.699549
O O9 0.203380 0.815082 0.591329
O O10 0.163395 0.981929 0.648941
O O11 0.845488 0.362593 0.226333
O O12 0.905547 0.241479 0.288278
O O13 0.250000 0.250000 0.500000
O O14 0.408127 0.148795 0.859077
O O15 0.415601 0.978660 0.782755
O O16 0.500000 0.260836 0.367891
O O17 0.570189 0.156793 0.311166
O O18 0.500000 0.352214 0.731654
#
# Coordination Sequence:
#
# PCOD9478608 Si02
#       8
#    16  16  16  16  16  16  16  16
#     4  10  20  35  55  82 111 147 189 226 277 337
#     4  10  21  37  57  79 111 144 186 245 283 324
#     4  10  21  35  56  82 114 150 188 228 281 340
#     4   9  20  36  52  82 120 145 186 225 276 341
#     4  10  20  36  56  81 107 142 193 240 276 325
#     4  10  20  36  56  84 116 150 183 229 279 340
#     4  10  21  36  58  85 110 146 191 231 281 340
#     4   9  18  36  61  85 113 148 185 232 285 341
#
# _framework density 18.273643
#
# number of rings (size 3 to 8) (size 9 to 14) (size 15 to 20)
#    0.000    2.250    1.250    1.125    1.750    1.250 
#    0.000    5.625    0.000   11.250    0.000    0.000 
#    0.000    0.000    0.000    0.000    0.000    0.000 
#
# Total GULP energy -357015.056603 kJ/mol
# GULP energy per Si atom -5578.360259 kJ/mol
# Density = 1.823205 g / cm^3
# Si number density = 18.273643 Si / 1000 Ang^3
#
#
#
# Elastic Constant Matrix: (Units=GPa)
#
#
# Indices 1 2 3 4 5 6 
#
# 1 49.5992 35.1087 35.1665 0.0000 0.0000 0.0000
# 2 35.1087 68.0294 31.6614 0.0000 0.0000 0.0000
# 3 35.1665 31.6614 50.5188 0.0000 0.0000 0.0000
# 4 0.0000 0.0000 0.0000 22.0774 0.0000 0.0000
# 5 0.0000 0.0000 0.0000 0.0000 34.2878 0.0000
# 6 0.0000 0.0000 0.0000 0.0000 0.0000 16.7743
#
#
#
# Elastic Compliance Matrix: (Units=1/GPa)
#
#
# Indices 1 2 3 4 5 6 
#
# 1 0.046350 -0.012571 -0.024386 0.000000 0.000000 0.000000
# 2 -0.012571 0.024162 -0.006392 0.000000 0.000000 0.000000
# 3 -0.024386 -0.006392 0.040776 0.000000 0.000000 0.000000
# 4 0.000000 0.000000 0.000000 0.045295 0.000000 0.000000
# 5 0.000000 0.000000 0.000000 0.000000 0.029165 0.000000
# 6 0.000000 0.000000 0.000000 0.000000 0.000000 0.059615
#
#
# Mechanical properties :
#
#
# Convention : Reuss Voigt Hill
#
# Bulk Modulus (GPa) = 40.66743 41.33563 41.00153
# Shear Modulus (GPa) = 14.69470 19.04195 16.86832
#
# Velocity S-wave (km/s) = 2.83883 3.23157 3.04155
# Velocity P-wave (km/s) = 5.74876 6.04926 5.90092
#
# Compressibility (1/GPa) = 0.02458970
#
# Stress axis : x y z
#
# Youngs Moduli (GPa) = 21.57494 41.38700 24.52413
#
# Poissons Ratio (x) = 0.52027 0.59805
# Poissons Ratio (y) = 0.27122 0.15677
# Poissons Ratio (z) = 0.52613 0.26456
#
# Static dielectric constant tensor:
#      x y z
#    x 1.617280 0.000000 0.000000 
#    y 0.000000 1.643210 0.000000 
#    z 0.000000 0.000000 1.641950 
# 
# From -- ./inp_files/46762.got.cif
#   From: 2010.05.17/outbox.cif.g08.bks.cpg/sg64_24_cif.got.tgz:46762.got - 2010.06.03 16:29:19.
