data_PCOD9478095
_publ_section_title
;
Structure prediction by ZEFSAII (Michael W. Deem and Ramdas Pophale) SiO2 
 PCOD9478095
Probable space group: C M C A
;
_chemical_formula_sum "Si O2"
_cell_formula_units_Z 112
_cell_length_a 15.475840
_cell_length_b 11.063366
_cell_length_c 32.530257
_cell_angle_alpha 90.000000
_cell_angle_beta 90.000000
_cell_angle_gamma 90.000000
_cell_volume 5569.664116
_symmetry_space_group_name_H-M "C M C A"
_symmetry_group_IT_number 64
_symmetry_cell_setting 'orthorhombic'
loop_
_space_group_symop_operation_xyz
x,y,z
-x,1/2-y,1/2+z
x,-y,-z
-x,1/2+y,1/2-z
-x,-y,-z
x,1/2+y,1/2-z
-x,y,z
x,1/2-y,1/2+z
1/2+x,1/2+y,z
1/2-x,-y,1/2+z
1/2+x,1/2-y,-z
1/2-x,y,1/2-z
1/2-x,1/2-y,-z
1/2+x,y,1/2-z
1/2-x,1/2+y,z
1/2+x,-y,1/2+z
loop_
_atom_site_type_symbol
_atom_site_label
_atom_site_fract_x
_atom_site_fract_y
_atom_site_fract_z
Si Si1 0.146065 0.784151 0.156391
Si Si2 0.773319 0.991747 0.203320
Si Si3 0.247931 0.624700 0.525212
Si Si4 0.407255 0.475916 0.663477
Si Si5 0.594801 0.624139 0.588688
Si Si6 0.325585 0.831067 0.634600
Si Si7 0.900821 0.452777 0.416503
O O1 0.173643 0.870459 0.193922
O O2 0.096984 0.666508 0.171237
O O3 0.232385 0.732750 0.134019
O O4 0.098140 0.863179 0.122487
O O5 0.750000 0.019464 0.250000
O O6 0.680050 0.972086 0.182163
O O7 0.822154 0.098278 0.178180
O O8 0.261103 0.500000 0.500000
O O9 0.250000 0.750000 0.500000
O O10 0.325998 0.632810 0.557932
O O11 0.155629 0.607830 0.547805
O O12 0.500000 0.523942 0.678022
O O13 0.402025 0.500754 0.614680
O O14 0.500000 0.637058 0.569383
O O15 0.606695 0.726639 0.623909
O O16 0.345930 0.932267 0.600220
O O17 0.000000 0.483806 0.427547
#
# Coordination Sequence:
#
# PCOD9478095 Si02
#       7
#    16  16  16  16  16  16  16
#     4  10  19  37  64  87 121 164 215 252 310 373
#     4  10  21  37  63  89 130 170 205 256 327 385
#     4  12  27  43  65  96 138 172 210 273 344 406
#     4  10  21  38  61  90 120 161 215 263 303 364
#     4  11  22  42  68  91 123 169 222 268 314 389
#     4  10  19  39  65  93 120 166 221 260 313 374
#     4  11  23  40  66  94 124 167 216 265 317 385
#
# _framework density 20.108933
#
# number of rings (size 3 to 8) (size 9 to 14) (size 15 to 20)
#    0.000    1.429    2.857    3.429    2.000    3.429 
#    0.000    4.286    0.000    0.000    0.000    0.000 
#    0.000    0.000    0.000    0.000    0.000    0.000 
#
# Total GULP energy -312239.277052 kJ/mol
# GULP energy per Si atom -5575.701376 kJ/mol
# Density = 2.006316 g / cm^3
# Si number density = 20.108933 Si / 1000 Ang^3
#
#
#
# Elastic Constant Matrix: (Units=GPa)
#
#
# Indices 1 2 3 4 5 6 
#
# 1 104.9936 7.5073 33.6898 0.0000 0.0000 0.0000
# 2 7.5073 92.8308 32.5859 0.0000 0.0000 0.0000
# 3 33.6898 32.5859 84.7376 0.0000 0.0000 0.0000
# 4 0.0000 0.0000 0.0000 16.8354 0.0000 0.0000
# 5 0.0000 0.0000 0.0000 0.0000 8.0078 0.0000
# 6 0.0000 0.0000 0.0000 0.0000 0.0000 12.2472
#
#
#
# Elastic Compliance Matrix: (Units=1/GPa)
#
#
# Indices 1 2 3 4 5 6 
#
# 1 0.010961 0.000744 -0.004644 0.000000 0.000000 0.000000
# 2 0.000744 0.012504 -0.005104 0.000000 0.000000 0.000000
# 3 -0.004644 -0.005104 0.015610 0.000000 0.000000 0.000000
# 4 0.000000 0.000000 0.000000 0.059399 0.000000 0.000000
# 5 0.000000 0.000000 0.000000 0.000000 0.124879 0.000000
# 6 0.000000 0.000000 0.000000 0.000000 0.000000 0.081651
#
#
# Mechanical properties :
#
#
# Convention : Reuss Voigt Hill
#
# Bulk Modulus (GPa) = 47.46813 47.79201 47.63007
# Shear Modulus (GPa) = 15.14992 21.33667 18.24329
#
# Velocity S-wave (km/s) = 2.74778 3.26092 3.01528
# Velocity P-wave (km/s) = 5.80722 6.16411 5.98832
#
# Compressibility (1/GPa) = 0.02106677
#
# Stress axis : x y z
#
# Youngs Moduli (GPa) = 91.22963 79.97580 64.06054
#
# Poissons Ratio (x) = -0.05948 0.29750
# Poissons Ratio (y) = -0.06785 0.32697
# Poissons Ratio (z) = 0.42367 0.40820
#
# Static dielectric constant tensor:
#      x y z
#    x 1.744530 0.000000 0.000000 
#    y 0.000000 1.764150 0.000000 
#    z 0.000000 0.000000 1.711890 
# 
# From -- ./inp_files/53274.got.cif
#   From: 2010.05.17/outbox.cif.g08.bks.cpg/sg64_27_cif.got.tgz:53274.got - 2010.06.03 16:29:19.
