data_PCOD9478398
_publ_section_title
;
Structure prediction by ZEFSAII (Michael W. Deem and Ramdas Pophale) SiO2 
 PCOD9478398
Probable space group: C M C A
;
_chemical_formula_sum "Si O2"
_cell_formula_units_Z 96
_cell_length_a 9.088383
_cell_length_b 33.761455
_cell_length_c 18.320134
_cell_angle_alpha 90.000000
_cell_angle_beta 90.000000
_cell_angle_gamma 90.000000
_cell_volume 5621.295573
_symmetry_space_group_name_H-M "C M C A"
_symmetry_group_IT_number 64
_symmetry_cell_setting 'orthorhombic'
loop_
_space_group_symop_operation_xyz
x,y,z
-x,1/2-y,1/2+z
x,-y,-z
-x,1/2+y,1/2-z
-x,-y,-z
x,1/2+y,1/2-z
-x,y,z
x,1/2-y,1/2+z
1/2+x,1/2+y,z
1/2-x,-y,1/2+z
1/2+x,1/2-y,-z
1/2-x,y,1/2-z
1/2-x,1/2-y,-z
1/2+x,y,1/2-z
1/2-x,1/2+y,z
1/2+x,-y,1/2+z
loop_
_atom_site_type_symbol
_atom_site_label
_atom_site_fract_x
_atom_site_fract_y
_atom_site_fract_z
Si Si1 0.323219 0.995014 0.584523
Si Si2 0.675956 0.872274 0.052276
Si Si3 0.176443 0.075019 0.828934
Si Si4 0.175676 0.086498 0.397446
Si Si5 0.322749 0.168353 0.174494
Si Si6 0.176978 0.709279 0.023441
O O1 0.500000 0.991602 0.584634
O O2 0.283083 0.033746 0.630789
O O3 0.275280 0.000000 0.500000
O O4 0.254785 0.954836 0.615684
O O5 0.500000 0.874098 0.065351
O O6 0.763515 0.890010 0.119719
O O7 0.706561 0.898687 0.980108
O O8 0.714692 0.827373 0.029988
O O9 0.250000 0.076620 0.750000
O O10 0.000000 0.076848 0.823312
O O11 0.220085 0.123120 0.345938
O O12 0.000000 0.081561 0.391137
O O13 0.500000 0.169282 0.179982
O O14 0.250000 0.180531 0.250000
O O15 0.280789 0.195320 0.105143
O O16 0.000000 0.712984 0.022430
O O17 0.250000 0.750000 0.000000
#
# Coordination Sequence:
#
# PCOD9478398 Si02
#       6
#    16  16  16  16  16  16
#     4  10  20  34  51  75 106 138 179 227 265 306
#     4   9  18  35  56  77 103 136 174 217 262 312
#     4  11  23  37  53  75 106 141 179 224 269 314
#     4   9  18  32  53  77 102 137 178 216 259 312
#     4   9  19  35  53  79 112 141 173 216 263 313
#     4   9  19  36  58  84 111 138 175 218 260 316
#
# _framework density 17.077912999999999
#
# number of rings (size 3 to 8) (size 9 to 14) (size 15 to 20)
#    0.000    2.500    1.667    2.500    0.000    4.333 
#    0.000    7.500    0.000    2.000    0.000    0.000 
#    0.000    0.000    0.000    0.000    0.000    0.000 
#
# Total GULP energy -267765.714150 kJ/mol
# GULP energy per Si atom -5578.452378 kJ/mol
# Density = 1.703904 g / cm^3
# Si number density = 17.077913 Si / 1000 Ang^3
#
#
#
# Elastic Constant Matrix: (Units=GPa)
#
#
# Indices 1 2 3 4 5 6 
#
# 1 29.4837 49.9738 51.0143 0.0000 0.0000 0.0000
# 2 49.9738 151.3655 80.5010 0.0000 0.0000 0.0000
# 3 51.0143 80.5010 131.0185 0.0000 0.0000 0.0000
# 4 0.0000 0.0000 0.0000 16.8958 0.0000 0.0000
# 5 0.0000 0.0000 0.0000 0.0000 24.4547 0.0000
# 6 0.0000 0.0000 0.0000 0.0000 0.0000 34.0411
#
#
#
# Elastic Compliance Matrix: (Units=1/GPa)
#
#
# Indices 1 2 3 4 5 6 
#
# 1 0.160908 -0.029416 -0.044578 0.000000 0.000000 0.000000
# 2 -0.029416 0.015191 0.002120 0.000000 0.000000 0.000000
# 3 -0.044578 0.002120 0.023687 0.000000 0.000000 0.000000
# 4 0.000000 0.000000 0.000000 0.059186 0.000000 0.000000
# 5 0.000000 0.000000 0.000000 0.000000 0.040892 0.000000
# 6 0.000000 0.000000 0.000000 0.000000 0.000000 0.029376
#
#
# Mechanical properties :
#
#
# Convention : Reuss Voigt Hill
#
# Bulk Modulus (GPa) = 17.84522 74.98289 46.41405
# Shear Modulus (GPa) = 10.16944 23.77023 16.96984
#
# Velocity S-wave (km/s) = 2.44288 3.73482 3.15568
# Velocity P-wave (km/s) = 4.29288 7.91203 6.36510
#
# Compressibility (1/GPa) = 0.05603743
#
# Stress axis : x y z
#
# Youngs Moduli (GPa) = 6.21472 65.82904 42.21681
#
# Poissons Ratio (x) = 1.93644 1.88196
# Poissons Ratio (y) = 0.18281 -0.08950
# Poissons Ratio (z) = 0.27704 -0.13956
#
# Static dielectric constant tensor:
#      x y z
#    x 1.565610 0.000000 0.000000 
#    y 0.000000 1.560890 0.000000 
#    z 0.000000 0.000000 1.568550 
# 
# From -- ./inp_files/37092.got.cif
#   From: 2010.05.17/outbox.cif.g08.bks.cpg/sg64_19_cif.got.tgz:37092.got - 2010.06.03 16:29:19.
