data_PCOD9478467
_publ_section_title
;
Structure prediction by ZEFSAII (Michael W. Deem and Ramdas Pophale) SiO2 
 PCOD9478467
Probable space group: C M C A
;
_chemical_formula_sum "Si O2"
_cell_formula_units_Z 64
_cell_length_a 13.550254
_cell_length_b 20.140488
_cell_length_c 10.188268
_cell_angle_alpha 90.000000
_cell_angle_beta 90.000000
_cell_angle_gamma 90.000000
_cell_volume 2780.467261
_symmetry_space_group_name_H-M "C M C A"
_symmetry_group_IT_number 64
_symmetry_cell_setting 'orthorhombic'
loop_
_space_group_symop_operation_xyz
x,y,z
-x,1/2-y,1/2+z
x,-y,-z
-x,1/2+y,1/2-z
-x,-y,-z
x,1/2+y,1/2-z
-x,y,z
x,1/2-y,1/2+z
1/2+x,1/2+y,z
1/2-x,-y,1/2+z
1/2+x,1/2-y,-z
1/2-x,y,1/2-z
1/2-x,1/2-y,-z
1/2+x,y,1/2-z
1/2-x,1/2+y,z
1/2+x,-y,1/2+z
loop_
_atom_site_type_symbol
_atom_site_label
_atom_site_fract_x
_atom_site_fract_y
_atom_site_fract_z
Si Si1 0.607508 0.813471 0.484183
Si Si2 0.167362 0.029078 0.359089
Si Si3 0.163990 0.331473 0.957316
Si Si4 0.866040 0.105791 0.729420
O O1 0.500000 0.814424 0.554850
O O2 0.714777 0.828544 0.551254
O O3 0.623701 0.740357 0.421215
O O4 0.599275 0.864931 0.365145
O O5 0.250000 0.038958 0.250000
O O6 0.127013 0.102589 0.384715
O O7 0.205680 0.000000 0.500000
O O8 0.101386 0.968044 0.309274
O O9 0.127848 0.344108 0.107308
O O10 0.750000 0.097998 0.750000
#
# Coordination Sequence:
#
# PCOD9478467 Si02
#       4
#    16  16  16  16
#     4  10  20  34  54  83 117 151 194 248 299 351
#     4   9  17  33  59  83 109 149 194 238 290 351
#     4   9  19  34  55  82 113 153 196 237 296 357
#     4   8  16  33  54  75 104 146 189 236 294 348
#
# _framework density 23.017713000000001
#
# number of rings (size 3 to 8) (size 9 to 14) (size 15 to 20)
#    0.000    3.000    0.000    1.500    0.000    6.000 
#    0.000    1.250    0.000   41.250    0.000    0.000 
#    0.000    0.000    0.000    0.000    0.000    0.000 
#
# Total GULP energy -178139.302327 kJ/mol
# GULP energy per Si atom -5566.853198 kJ/mol
# Density = 2.296532 g / cm^3
# Si number density = 23.017713 Si / 1000 Ang^3
#
#
#
# Elastic Constant Matrix: (Units=GPa)
#
#
# Indices 1 2 3 4 5 6 
#
# 1 142.7701 9.3490 1.3043 0.0000 0.0000 0.0000
# 2 9.3490 157.5537 19.8060 0.0000 0.0000 0.0000
# 3 1.3043 19.8060 41.5312 0.0000 0.0000 0.0000
# 4 0.0000 0.0000 0.0000 23.7055 0.0000 0.0000
# 5 0.0000 0.0000 0.0000 0.0000 -10.0753 0.0000
# 6 0.0000 0.0000 0.0000 0.0000 0.0000 -9.2062
#
#
#
# Elastic Compliance Matrix: (Units=1/GPa)
#
#
# Indices 1 2 3 4 5 6 
#
# 1 0.007032 -0.000414 -0.000023 0.000000 0.000000 0.000000
# 2 -0.000414 0.006776 -0.003219 0.000000 0.000000 0.000000
# 3 -0.000023 -0.003219 0.025614 0.000000 0.000000 0.000000
# 4 0.000000 0.000000 0.000000 0.042184 0.000000 0.000000
# 5 0.000000 0.000000 0.000000 0.000000 -0.099252 0.000000
# 6 0.000000 0.000000 0.000000 0.000000 0.000000 -0.108623
#
#
# Mechanical properties :
#
#
# Convention : Reuss Voigt Hill
#
# Bulk Modulus (GPa) = 31.14338 44.75263 37.94800
# Shear Modulus (GPa) = -46.18800 21.64450 -12.27175
#
# Velocity S-wave (km/s) = -4.48440 3.06982 -2.31150
# Velocity P-wave (km/s) = 3.64055 5.66127 3.06565
#
# Compressibility (1/GPa) = 0.03210955
#
# Stress axis : x y z
#
# Youngs Moduli (GPa) = 142.21495 147.57476 39.04128
#
# Poissons Ratio (x) = 0.06114 0.00091
# Poissons Ratio (y) = 0.05892 0.12566
# Poissons Ratio (z) = 0.00331 0.47497
#
# Static dielectric constant tensor:
#      x y z
#    x 1.906530 0.000000 0.000000 
#    y 0.000000 1.881090 0.000000 
#    z 0.000000 0.000000 1.875090 
# 
# From -- ./inp_files/14162.got.cif
#   From: 2010.05.17/outbox.cif.g08.bks.cpg/sg64_8_cif.got.tgz:14162.got - 2010.06.03 16:29:19.
