data_PCOD9478080
_publ_section_title
;
Structure prediction by ZEFSAII (Michael W. Deem and Ramdas Pophale) SiO2 
 PCOD9478080
Probable space group: C M C A
;
_chemical_formula_sum "Si O2"
_cell_formula_units_Z 72
_cell_length_a 16.243440
_cell_length_b 9.432330
_cell_length_c 21.723312
_cell_angle_alpha 90.000000
_cell_angle_beta 90.000000
_cell_angle_gamma 90.000000
_cell_volume 3328.304368
_symmetry_space_group_name_H-M "C M C A"
_symmetry_group_IT_number 64
_symmetry_cell_setting 'orthorhombic'
loop_
_space_group_symop_operation_xyz
x,y,z
-x,1/2-y,1/2+z
x,-y,-z
-x,1/2+y,1/2-z
-x,-y,-z
x,1/2+y,1/2-z
-x,y,z
x,1/2-y,1/2+z
1/2+x,1/2+y,z
1/2-x,-y,1/2+z
1/2+x,1/2-y,-z
1/2-x,y,1/2-z
1/2-x,1/2-y,-z
1/2+x,y,1/2-z
1/2-x,1/2+y,z
1/2+x,-y,1/2+z
loop_
_atom_site_type_symbol
_atom_site_label
_atom_site_fract_x
_atom_site_fract_y
_atom_site_fract_z
Si Si1 0.399838 0.834846 0.823583
Si Si2 0.801571 0.000000 0.000000
Si Si3 0.904582 0.328629 0.590731
Si Si4 0.899622 0.984410 0.206866
Si Si5 0.143533 0.024260 0.568120
O O1 0.500000 0.835789 0.826739
O O2 0.373471 0.676634 0.805144
O O3 0.372985 0.945115 0.770744
O O4 0.366817 0.889182 0.888733
O O5 0.855691 0.121327 0.030598
O O6 0.738880 0.945204 0.052209
O O7 0.874965 0.415199 0.650165
O O8 0.000000 0.363822 0.581710
O O9 0.895106 0.161310 0.599533
O O10 0.000000 0.983911 0.208350
O O11 0.105926 0.000000 0.500000
#
# Coordination Sequence:
#
# PCOD9478080 Si02
#       5
#    16   8  16  16  16
#     4  10  19  37  60  93 128 166 210 260 315 380
#     4  10  25  42  61  88 132 174 208 256 319 374
#     4  11  22  40  65  94 123 166 218 263 307 373
#     4   9  20  35  62  93 127 162 209 267 318 366
#     4  10  24  39  62  89 134 168 208 254 322 372
#
# _framework density 21.632636999999999
#
# number of rings (size 3 to 8) (size 9 to 14) (size 15 to 20)
#    0.667    1.333    0.000    3.000    3.111    5.333 
#    0.000    1.111    0.000    5.333    0.000    0.000 
#    0.000    0.000    0.000    0.000    0.000    0.000 
#
# Total GULP energy -201093.705224 kJ/mol
# GULP energy per Si atom -5585.936256 kJ/mol
# Density = 2.158340 g / cm^3
# Si number density = 21.632637 Si / 1000 Ang^3
#
#
#
# Elastic Constant Matrix: (Units=GPa)
#
#
# Indices 1 2 3 4 5 6 
#
# 1 33.8450 -8.0678 21.5883 0.0000 0.0000 0.0000
# 2 -8.0678 127.2708 79.8832 0.0000 0.0000 0.0000
# 3 21.5883 79.8832 132.1157 0.0000 0.0000 0.0000
# 4 0.0000 0.0000 0.0000 42.0768 0.0000 0.0000
# 5 0.0000 0.0000 0.0000 0.0000 -40.0841 0.0000
# 6 0.0000 0.0000 0.0000 0.0000 0.0000 5.1628
#
#
#
# Elastic Compliance Matrix: (Units=1/GPa)
#
#
# Indices 1 2 3 4 5 6 
#
# 1 0.040538 0.010842 -0.013180 0.000000 0.000000 0.000000
# 2 0.010842 0.015563 -0.011182 0.000000 0.000000 0.000000
# 3 -0.013180 -0.011182 0.016484 0.000000 0.000000 0.000000
# 4 0.000000 0.000000 0.000000 0.023766 0.000000 0.000000
# 5 0.000000 0.000000 0.000000 0.000000 -0.024948 0.000000
# 6 0.000000 0.000000 0.000000 0.000000 0.000000 0.193692
#
#
# Mechanical properties :
#
#
# Convention : Reuss Voigt Hill
#
# Bulk Modulus (GPa) = 21.95595 53.33766 37.64680
# Shear Modulus (GPa) = 16.26995 14.75296 15.51145
#
# Velocity S-wave (km/s) = 2.74542 2.61430 2.68066
# Velocity P-wave (km/s) = 4.49681 5.81570 5.19825
#
# Compressibility (1/GPa) = 0.04554575
#
# Stress axis : x y z
#
# Youngs Moduli (GPa) = 24.66843 64.25544 60.66600
#
# Poissons Ratio (x) = -0.69666 0.79956
# Poissons Ratio (y) = -0.26746 0.67835
# Poissons Ratio (z) = 0.32512 0.71848
#
# Static dielectric constant tensor:
#      x y z
#    x 1.812000 0.000000 0.000000 
#    y 0.000000 1.767820 0.000000 
#    z 0.000000 0.000000 1.777350 
# 
# From -- ./inp_files/45650.got.cif
#   From: 2010.05.17/outbox.cif.g08.bks.cpg/sg64_23_cif.got.tgz:45650.got - 2010.06.03 16:29:19.
