data_PCOD9478250
_publ_section_title
;
Structure prediction by ZEFSAII (Michael W. Deem and Ramdas Pophale) SiO2 
 PCOD9478250
Probable space group: C M C A
;
_chemical_formula_sum "Si O2"
_cell_formula_units_Z 96
_cell_length_a 8.896875
_cell_length_b 24.230401
_cell_length_c 26.729644
_cell_angle_alpha 90.000000
_cell_angle_beta 90.000000
_cell_angle_gamma 90.000000
_cell_volume 5762.238966
_symmetry_space_group_name_H-M "C M C A"
_symmetry_group_IT_number 64
_symmetry_cell_setting 'orthorhombic'
loop_
_space_group_symop_operation_xyz
x,y,z
-x,1/2-y,1/2+z
x,-y,-z
-x,1/2+y,1/2-z
-x,-y,-z
x,1/2+y,1/2-z
-x,y,z
x,1/2-y,1/2+z
1/2+x,1/2+y,z
1/2-x,-y,1/2+z
1/2+x,1/2-y,-z
1/2-x,y,1/2-z
1/2-x,1/2-y,-z
1/2+x,y,1/2-z
1/2-x,1/2+y,z
1/2+x,-y,1/2+z
loop_
_atom_site_type_symbol
_atom_site_label
_atom_site_fract_x
_atom_site_fract_y
_atom_site_fract_z
Si Si1 0.673746 0.078535 0.885640
Si Si2 0.679391 0.481233 0.944007
Si Si3 0.819222 0.332635 0.195142
Si Si4 0.818749 0.362053 0.930546
Si Si5 0.174198 0.680871 0.961172
Si Si6 0.321173 0.245741 0.120679
O O1 0.500000 0.061482 0.878615
O O2 0.724694 0.112801 0.836864
O O3 0.676698 0.124199 0.929623
O O4 0.769462 0.027224 0.904319
O O5 0.500000 0.477418 0.945411
O O6 0.747090 0.422145 0.929464
O O7 0.731065 0.500000 0.000000
O O8 0.750000 0.333558 0.250000
O O9 0.761449 0.279588 0.164124
O O10 0.000000 0.331255 0.196647
O O11 0.778519 0.318270 0.887292
O O12 0.000000 0.367494 0.931167
O O13 0.775346 0.333807 0.983295
O O14 0.276337 0.723057 0.930668
O O15 0.000000 0.700268 0.961872
O O16 0.500000 0.249216 0.127978
#
# Coordination Sequence:
#
# PCOD9478250 Si02
#       6
#    16  16  16  16  16  16
#     4   9  18  33  53  75 103 139 176 213 258 311
#     4  11  22  32  47  75 107 142 183 222 258 300
#     4  10  21  38  60  83 104 132 169 215 271 320
#     4  10  20  33  49  70 103 147 183 209 252 309
#     4   9  17  30  48  71 102 141 178 212 253 304
#     4  10  20  32  50  77 105 135 173 217 262 310
#
# _framework density 16.660191000000001
#
# number of rings (size 3 to 8) (size 9 to 14) (size 15 to 20)
#    0.000    2.167    1.667    3.000    0.000    6.000 
#    0.000    0.000    0.000    1.000    0.000    4.667 
#    0.000    0.000    0.000    0.000    0.000    0.000 
#
# Total GULP energy -267730.681432 kJ/mol
# GULP energy per Si atom -5577.722530 kJ/mol
# Density = 1.662227 g / cm^3
# Si number density = 16.660191 Si / 1000 Ang^3
#
#
#
# Elastic Constant Matrix: (Units=GPa)
#
#
# Indices 1 2 3 4 5 6 
#
# 1 40.5279 44.2475 37.4960 0.0000 0.0000 0.0000
# 2 44.2475 122.4200 70.0235 0.0000 0.0000 0.0000
# 3 37.4960 70.0235 106.6080 0.0000 0.0000 0.0000
# 4 0.0000 0.0000 0.0000 6.4013 0.0000 0.0000
# 5 0.0000 0.0000 0.0000 0.0000 22.3324 0.0000
# 6 0.0000 0.0000 0.0000 0.0000 0.0000 27.6562
#
#
#
# Elastic Compliance Matrix: (Units=1/GPa)
#
#
# Indices 1 2 3 4 5 6 
#
# 1 0.044836 -0.011510 -0.008210 0.000000 0.000000 0.000000
# 2 -0.011510 0.016039 -0.006487 0.000000 0.000000 0.000000
# 3 -0.008210 -0.006487 0.016528 0.000000 0.000000 0.000000
# 4 0.000000 0.000000 0.000000 0.156218 0.000000 0.000000
# 5 0.000000 0.000000 0.000000 0.000000 0.044778 0.000000
# 6 0.000000 0.000000 0.000000 0.000000 0.000000 0.036158
#
#
# Mechanical properties :
#
#
# Convention : Reuss Voigt Hill
#
# Bulk Modulus (GPa) = 40.01435 63.67665 51.84550
# Shear Modulus (GPa) = 13.32268 19.13057 16.22662
#
# Velocity S-wave (km/s) = 2.83091 3.39230 3.12424
# Velocity P-wave (km/s) = 5.89538 7.32444 6.64842
#
# Compressibility (1/GPa) = 0.02499104
#
# Stress axis : x y z
#
# Youngs Moduli (GPa) = 22.30358 62.34791 60.50177
#
# Poissons Ratio (x) = 0.71760 0.49671
# Poissons Ratio (y) = 0.25670 0.39246
# Poissons Ratio (z) = 0.18311 0.40444
#
# Static dielectric constant tensor:
#      x y z
#    x 1.560450 0.000000 0.000000 
#    y 0.000000 1.560620 0.000000 
#    z 0.000000 0.000000 1.551900 
# 
# From -- ./inp_files/43072.got.cif
#   From: 2010.05.17/outbox.cif.g08.bks.cpg/sg64_22_cif.got.tgz:43072.got - 2010.06.03 16:29:19.
