data_PCOD9478256
_publ_section_title
;
Structure prediction by ZEFSAII (Michael W. Deem and Ramdas Pophale) SiO2 
 PCOD9478256
Probable space group: C M C A
;
_chemical_formula_sum "Si O2"
_cell_formula_units_Z 112
_cell_length_a 21.676832
_cell_length_b 11.627729
_cell_length_c 24.178811
_cell_angle_alpha 90.000000
_cell_angle_beta 90.000000
_cell_angle_gamma 90.000000
_cell_volume 6094.325603
_symmetry_space_group_name_H-M "C M C A"
_symmetry_group_IT_number 64
_symmetry_cell_setting 'orthorhombic'
loop_
_space_group_symop_operation_xyz
x,y,z
-x,1/2-y,1/2+z
x,-y,-z
-x,1/2+y,1/2-z
-x,-y,-z
x,1/2+y,1/2-z
-x,y,z
x,1/2-y,1/2+z
1/2+x,1/2+y,z
1/2-x,-y,1/2+z
1/2+x,1/2-y,-z
1/2-x,y,1/2-z
1/2-x,1/2-y,-z
1/2+x,y,1/2-z
1/2-x,1/2+y,z
1/2+x,-y,1/2+z
loop_
_atom_site_type_symbol
_atom_site_label
_atom_site_fract_x
_atom_site_fract_y
_atom_site_fract_z
Si Si1 0.692426 0.541751 0.083834
Si Si2 0.628893 0.520250 0.682518
Si Si3 0.864950 0.912919 0.803568
Si Si4 0.185405 0.811748 0.013250
Si Si5 0.000000 0.410763 0.209158
Si Si6 0.271709 0.800147 0.190290
Si Si7 0.000000 0.651432 0.279047
Si Si8 0.181182 0.329958 0.888071
O O1 0.656253 0.524116 0.140781
O O2 0.696040 0.426302 0.048930
O O3 0.761000 0.588915 0.095328
O O4 0.660737 0.641050 0.045337
O O5 0.636828 0.487752 0.747527
O O6 0.563817 0.583241 0.676108
O O7 0.684480 0.603226 0.665085
O O8 0.634029 0.403591 0.647920
O O9 0.815200 0.810382 0.798381
O O10 0.934396 0.864598 0.809339
O O11 0.153174 0.725750 0.056515
O O12 0.250000 0.750000 0.000000
O O13 0.000000 0.286384 0.241106
O O14 0.000000 0.536317 0.240048
O O15 0.250000 0.841642 0.250000
O O16 0.215311 0.762794 0.151530
#
# Coordination Sequence:
#
# PCOD9478256 Si02
#       8
#    16  16  16  16   8  16   8  16
#     4   9  19  33  54  81 109 146 189 243 298 354
#     4  11  22  34  53  82 118 159 191 244 289 363
#     4  10  21  35  54  80 114 151 196 237 298 350
#     4   9  18  35  53  75 113 148 192 233 291 365
#     4  10  22  40  60  79 119 165 215 242 289 359
#     4  11  21  30  49  81 119 145 182 228 293 355
#     4  10  20  42  58  84 113 166 212 248 290 363
#     4  10  20  32  51  83 113 150 183 233 300 360
#
# _framework density 18.377749999999999
#
# number of rings (size 3 to 8) (size 9 to 14) (size 15 to 20)
#    0.000    2.000    2.857    0.857    6.000    0.000 
#    2.571    0.000    0.000    2.571    0.000    1.000 
#    0.000    0.000    0.000    0.000    0.000    0.000 
#
# Total GULP energy -311772.123102 kJ/mol
# GULP energy per Si atom -5567.359341 kJ/mol
# Density = 1.833592 g / cm^3
# Si number density = 18.377750 Si / 1000 Ang^3
#
#
#
# Elastic Constant Matrix: (Units=GPa)
#
#
# Indices 1 2 3 4 5 6 
#
# 1 32.8785 22.8471 -0.4901 0.0000 0.0000 0.0000
# 2 22.8471 71.0087 6.1730 0.0000 0.0000 0.0000
# 3 -0.4901 6.1730 47.2630 0.0000 0.0000 0.0000
# 4 0.0000 0.0000 0.0000 30.4673 0.0000 0.0000
# 5 0.0000 0.0000 0.0000 0.0000 4.7297 0.0000
# 6 0.0000 0.0000 0.0000 0.0000 0.0000 23.4000
#
#
#
# Elastic Compliance Matrix: (Units=1/GPa)
#
#
# Indices 1 2 3 4 5 6 
#
# 1 0.039376 -0.012851 0.002087 0.000000 0.000000 0.000000
# 2 -0.012851 0.018438 -0.002541 0.000000 0.000000 0.000000
# 3 0.002087 -0.002541 0.021512 0.000000 0.000000 0.000000
# 4 0.000000 0.000000 0.000000 0.032822 0.000000 0.000000
# 5 0.000000 0.000000 0.000000 0.000000 0.211430 0.000000
# 6 0.000000 0.000000 0.000000 0.000000 0.000000 0.042735
#
#
# Mechanical properties :
#
#
# Convention : Reuss Voigt Hill
#
# Bulk Modulus (GPa) = 18.96980 23.13446 21.05213
# Shear Modulus (GPa) = 12.18040 19.89408 16.03724
#
# Velocity S-wave (km/s) = 2.57724 3.29372 2.95726
# Velocity P-wave (km/s) = 4.38187 5.20388 4.81047
#
# Compressibility (1/GPa) = 0.05271536
#
# Stress axis : x y z
#
# Youngs Moduli (GPa) = 25.39620 54.23454 46.48611
#
# Poissons Ratio (x) = 0.69695 -0.09700
# Poissons Ratio (y) = 0.32636 0.11814
# Poissons Ratio (z) = -0.05299 0.13784
#
# Static dielectric constant tensor:
#      x y z
#    x 1.619550 0.000000 0.000000 
#    y 0.000000 1.705150 0.000000 
#    z 0.000000 0.000000 1.676620 
# 
# From -- ./inp_files/46718.got.cif
#   From: 2010.05.17/outbox.cif.g08.bks.cpg/sg64_24_cif.got.tgz:46718.got - 2010.06.03 16:29:19.
