data_PCOD9478374
_publ_section_title
;
Structure prediction by ZEFSAII (Michael W. Deem and Ramdas Pophale) SiO2 
 PCOD9478374
Probable space group: C M C A
;
_chemical_formula_sum "Si O2"
_cell_formula_units_Z 64
_cell_length_a 11.058645
_cell_length_b 17.415135
_cell_length_c 14.219093
_cell_angle_alpha 90.000000
_cell_angle_beta 90.000000
_cell_angle_gamma 90.000000
_cell_volume 2738.423776
_symmetry_space_group_name_H-M "C M C A"
_symmetry_group_IT_number 64
_symmetry_cell_setting 'orthorhombic'
loop_
_space_group_symop_operation_xyz
x,y,z
-x,1/2-y,1/2+z
x,-y,-z
-x,1/2+y,1/2-z
-x,-y,-z
x,1/2+y,1/2-z
-x,y,z
x,1/2-y,1/2+z
1/2+x,1/2+y,z
1/2-x,-y,1/2+z
1/2+x,1/2-y,-z
1/2-x,y,1/2-z
1/2-x,1/2-y,-z
1/2+x,y,1/2-z
1/2-x,1/2+y,z
1/2+x,-y,1/2+z
loop_
_atom_site_type_symbol
_atom_site_label
_atom_site_fract_x
_atom_site_fract_y
_atom_site_fract_z
Si Si1 0.871902 0.191559 0.781606
Si Si2 0.633846 0.445517 0.369238
Si Si3 0.783835 0.837347 0.014525
Si Si4 0.631357 0.461157 0.896189
O O1 0.750000 0.234722 0.750000
O O2 0.871819 0.116921 0.714387
O O3 0.860370 0.163011 0.888732
O O4 0.000000 0.232412 0.769304
O O5 0.500000 0.479313 0.380499
O O6 0.671286 0.393042 0.459528
O O7 0.745416 0.503695 0.355071
O O8 0.750000 0.750000 0.000000
O O9 0.849439 0.872791 0.924621
O O10 0.500000 0.474117 0.849299
O O11 0.623850 0.500000 0.000000
#
# Coordination Sequence:
#
# PCOD9478374 Si02
#       4
#    16  16  16  16
#     4   9  18  34  56  81 111 149 193 237 286 348
#     4   9  19  35  56  81 110 150 198 244 288 340
#     4  10  20  33  56  90 122 153 193 243 301 359
#     4   9  18  33  55  82 112 150 195 239 284 341
#
# _framework density 23.371108
#
# number of rings (size 3 to 8) (size 9 to 14) (size 15 to 20)
#    0.000    2.750    0.000    0.750    0.000   12.500 
#    0.000    0.000    0.000   31.500    0.000   14.000 
#    0.000    0.000    0.000    0.000    0.000    0.000 
#
# Total GULP energy -178442.552082 kJ/mol
# GULP energy per Si atom -5576.329753 kJ/mol
# Density = 2.331791 g / cm^3
# Si number density = 23.371108 Si / 1000 Ang^3
#
#
#
# Elastic Constant Matrix: (Units=GPa)
#
#
# Indices 1 2 3 4 5 6 
#
# 1 252.1725 36.8826 26.3408 0.0000 0.0000 0.0000
# 2 36.8826 81.1321 4.9020 0.0000 0.0000 0.0000
# 3 26.3408 4.9020 59.8676 0.0000 0.0000 0.0000
# 4 0.0000 0.0000 0.0000 16.9007 0.0000 0.0000
# 5 0.0000 0.0000 0.0000 0.0000 5.3883 0.0000
# 6 0.0000 0.0000 0.0000 0.0000 0.0000 3.8808
#
#
#
# Elastic Compliance Matrix: (Units=1/GPa)
#
#
# Indices 1 2 3 4 5 6 
#
# 1 0.004432 -0.001906 -0.001794 0.000000 0.000000 0.000000
# 2 -0.001906 0.013207 -0.000243 0.000000 0.000000 0.000000
# 3 -0.001794 -0.000243 0.017513 0.000000 0.000000 0.000000
# 4 0.000000 0.000000 0.000000 0.059169 0.000000 0.000000
# 5 0.000000 0.000000 0.000000 0.000000 0.185587 0.000000
# 6 0.000000 0.000000 0.000000 0.000000 0.000000 0.257678
#
#
# Mechanical properties :
#
#
# Convention : Reuss Voigt Hill
#
# Bulk Modulus (GPa) = 36.67606 58.82477 47.75042
# Shear Modulus (GPa) = 9.01616 26.90376 17.95996
#
# Velocity S-wave (km/s) = 1.96627 3.39655 2.77513
# Velocity P-wave (km/s) = 4.56967 6.37233 5.54475
#
# Compressibility (1/GPa) = 0.02726574
#
# Stress axis : x y z
#
# Youngs Moduli (GPa) = 225.64592 75.71835 57.10167
#
# Poissons Ratio (x) = 0.14434 0.10243
# Poissons Ratio (y) = 0.43014 0.01386
# Poissons Ratio (z) = 0.40476 0.01837
#
# Static dielectric constant tensor:
#      x y z
#    x 2.061280 0.000000 0.000000 
#    y 0.000000 1.890730 0.000000 
#    z 0.000000 0.000000 1.942680 
# 
# From -- ./inp_files/21976.got.cif
#   From: 2010.05.17/outbox.cif.g08.bks.cpg/sg64_11_cif.got.tgz:21976.got - 2010.06.03 16:29:19.
