data_PCOD9478846
_publ_section_title
;
Structure prediction by ZEFSAII (Michael W. Deem and Ramdas Pophale) SiO2 
 PCOD9478846
Probable space group: C M C A
;
_chemical_formula_sum "Si O2"
_cell_formula_units_Z 80
_cell_length_a 15.169182
_cell_length_b 31.178962
_cell_length_c 7.203427
_cell_angle_alpha 90.000000
_cell_angle_beta 90.000000
_cell_angle_gamma 90.000000
_cell_volume 3406.928146
_symmetry_space_group_name_H-M "C M C A"
_symmetry_group_IT_number 64
_symmetry_cell_setting 'orthorhombic'
loop_
_space_group_symop_operation_xyz
x,y,z
-x,1/2-y,1/2+z
x,-y,-z
-x,1/2+y,1/2-z
-x,-y,-z
x,1/2+y,1/2-z
-x,y,z
x,1/2-y,1/2+z
1/2+x,1/2+y,z
1/2-x,-y,1/2+z
1/2+x,1/2-y,-z
1/2-x,y,1/2-z
1/2-x,1/2-y,-z
1/2+x,y,1/2-z
1/2-x,1/2+y,z
1/2+x,-y,1/2+z
loop_
_atom_site_type_symbol
_atom_site_label
_atom_site_fract_x
_atom_site_fract_y
_atom_site_fract_z
Si Si1 0.353807 0.377633 0.301887
Si Si2 0.500000 0.958330 0.768769
Si Si3 0.842028 0.714676 0.855536
Si Si4 0.897739 0.304948 0.750428
Si Si5 0.149927 0.604985 0.239627
Si Si6 0.000000 0.556261 0.780284
O O1 0.250000 0.381262 0.250000
O O2 0.383938 0.328375 0.266914
O O3 0.365546 0.384251 0.523163
O O4 0.415611 0.415050 0.224532
O O5 0.584742 0.932177 0.702026
O O6 0.500000 0.007631 0.711559
O O7 0.500000 0.952092 0.994613
O O8 0.750000 0.719567 0.750000
O O9 0.891502 0.760010 0.855865
O O10 0.834954 0.702816 0.071799
O O11 0.866866 0.349464 0.658902
O O12 0.000000 0.311075 0.807760
O O13 0.250000 0.591286 0.250000
#
# Coordination Sequence:
#
# PCOD9478846 Si02
#       6
#    16   8  16  16  16   8
#     4   9  20  36  56  82 108 143 181 221 269 320
#     4   9  18  36  56  87 101 145 183 217 270 331
#     4  10  21  35  53  77 111 146 182 222 267 318
#     4  11  21  34  54  80 110 145 185 222 266 320
#     4  10  20  36  58  79 112 143 179 225 267 321
#     4   9  18  34  62  77 111 139 181 223 268 327
#
# _framework density 23.481563999999999
#
# number of rings (size 3 to 8) (size 9 to 14) (size 15 to 20)
#    0.000    2.200    1.000    1.800    5.600    4.000 
#    0.000    1.000    0.000    1.200    0.000    0.000 
#    0.000    0.000    0.000    0.000    0.000    0.000 
#
# Total GULP energy -223429.949469 kJ/mol
# GULP energy per Si atom -5585.748737 kJ/mol
# Density = 2.342812 g / cm^3
# Si number density = 23.481564 Si / 1000 Ang^3
#
#
#
# Elastic Constant Matrix: (Units=GPa)
#
#
# Indices 1 2 3 4 5 6 
#
# 1 144.0475 107.4304 -21.2359 0.0000 0.0000 0.0000
# 2 107.4304 266.1219 7.7743 0.0000 0.0000 0.0000
# 3 -21.2359 7.7743 41.2312 0.0000 0.0000 0.0000
# 4 0.0000 0.0000 0.0000 11.9179 0.0000 0.0000
# 5 0.0000 0.0000 0.0000 0.0000 13.8351 0.0000
# 6 0.0000 0.0000 0.0000 0.0000 0.0000 26.8557
#
#
#
# Elastic Compliance Matrix: (Units=1/GPa)
#
#
# Indices 1 2 3 4 5 6 
#
# 1 0.011602 -0.004885 0.006897 0.000000 0.000000 0.000000
# 2 -0.004885 0.005835 -0.003616 0.000000 0.000000 0.000000
# 3 0.006897 -0.003616 0.028488 0.000000 0.000000 0.000000
# 4 0.000000 0.000000 0.000000 0.083907 0.000000 0.000000
# 5 0.000000 0.000000 0.000000 0.000000 0.072280 0.000000
# 6 0.000000 0.000000 0.000000 0.000000 0.000000 0.037236
#
#
# Mechanical properties :
#
#
# Convention : Reuss Voigt Hill
#
# Bulk Modulus (GPa) = 23.41057 71.03757 47.22407
# Shear Modulus (GPa) = 19.47068 34.35054 26.91061
#
# Velocity S-wave (km/s) = 2.88269 3.82890 3.38898
# Velocity P-wave (km/s) = 4.59035 7.06155 5.95553
#
# Compressibility (1/GPa) = 0.04271575
#
# Stress axis : x y z
#
# Youngs Moduli (GPa) = 86.19006 171.36741 35.10303
#
# Poissons Ratio (x) = 0.83716 -0.24210
# Poissons Ratio (y) = 0.42105 0.12695
# Poissons Ratio (z) = -0.59444 0.61973
#
# Static dielectric constant tensor:
#      x y z
#    x 1.866780 0.000000 0.000000 
#    y 0.000000 1.897130 0.000000 
#    z 0.000000 0.000000 1.975770 
# 
# From -- ./inp_files/7196.got.cif
#   From: 2010.05.17/outbox.cif.g08.bks.cpg/sg64_4_cif.got.tgz:7196.got - 2010.06.03 16:29:19.
