data_PCOD9478955
_publ_section_title
;
Structure prediction by ZEFSAII (Michael W. Deem and Ramdas Pophale) SiO2 
 PCOD9478955
Probable space group: C M C A
;
_chemical_formula_sum "Si O2"
_cell_formula_units_Z 68
_cell_length_a 7.851576
_cell_length_b 19.813515
_cell_length_c 21.942836
_cell_angle_alpha 90.000000
_cell_angle_beta 90.000000
_cell_angle_gamma 90.000000
_cell_volume 3413.588164
_symmetry_space_group_name_H-M "C M C A"
_symmetry_group_IT_number 64
_symmetry_cell_setting 'orthorhombic'
loop_
_space_group_symop_operation_xyz
x,y,z
-x,1/2-y,1/2+z
x,-y,-z
-x,1/2+y,1/2-z
-x,-y,-z
x,1/2+y,1/2-z
-x,y,z
x,1/2-y,1/2+z
1/2+x,1/2+y,z
1/2-x,-y,1/2+z
1/2+x,1/2-y,-z
1/2-x,y,1/2-z
1/2-x,1/2-y,-z
1/2+x,y,1/2-z
1/2-x,1/2+y,z
1/2+x,-y,1/2+z
loop_
_atom_site_type_symbol
_atom_site_label
_atom_site_fract_x
_atom_site_fract_y
_atom_site_fract_z
Si Si1 0.500000 0.000000 0.000000
Si Si2 0.697951 0.322048 0.920913
Si Si3 0.694205 0.078940 0.182978
Si Si4 0.297022 0.673330 0.941067
Si Si5 0.194713 0.525085 0.593647
O O1 0.653312 0.996121 0.947789
O O2 0.500000 0.342027 0.919529
O O3 0.785898 0.361419 0.866473
O O4 0.714628 0.241303 0.916023
O O5 0.765684 0.338487 0.989161
O O6 0.500000 0.057879 0.186594
O O7 0.750000 0.100726 0.250000
O O8 0.797664 0.015685 0.156364
O O9 0.500000 0.686133 0.945013
O O10 0.269564 0.605197 0.903852
O O11 0.000000 0.518315 0.569281
#
# Coordination Sequence:
#
# PCOD9478955 Si02
#       5
#     4  16  16  16  16
#     4  12  22  36  64  98 124 168 206 264 332 374
#     4  10  20  36  61  91 126 165 206 259 321 382
#     4  12  25  43  64  89 126 172 223 267 322 393
#     4   9  20  37  60  91 130 163 200 264 325 376
#     4  11  23  40  62  95 132 166 214 269 324 388
#
# _framework density 19.920387000000002
#
# number of rings (size 3 to 8) (size 9 to 14) (size 15 to 20)
#    0.000    1.412    1.176    4.588    1.647    2.824 
#    0.000    1.176    0.000    5.647    0.000    0.000 
#    0.000    0.000    0.000    0.000    0.000    0.000 
#
# Total GULP energy -189362.382533 kJ/mol
# GULP energy per Si atom -5569.481839 kJ/mol
# Density = 1.987505 g / cm^3
# Si number density = 19.920387 Si / 1000 Ang^3
#
#
#
# Elastic Constant Matrix: (Units=GPa)
#
#
# Indices 1 2 3 4 5 6 
#
# 1 90.7810 5.4460 2.7567 0.0000 0.0000 0.0000
# 2 5.4460 117.6826 46.6808 0.0000 0.0000 0.0000
# 3 2.7567 46.6808 70.0700 0.0000 0.0000 0.0000
# 4 0.0000 0.0000 0.0000 22.5630 0.0000 0.0000
# 5 0.0000 0.0000 0.0000 0.0000 23.6717 0.0000
# 6 0.0000 0.0000 0.0000 0.0000 0.0000 22.2394
#
#
#
# Elastic Compliance Matrix: (Units=1/GPa)
#
#
# Indices 1 2 3 4 5 6 
#
# 1 0.011047 -0.000461 -0.000128 0.000000 0.000000 0.000000
# 2 -0.000461 0.011569 -0.007689 0.000000 0.000000 0.000000
# 3 -0.000128 -0.007689 0.019399 0.000000 0.000000 0.000000
# 4 0.000000 0.000000 0.000000 0.044320 0.000000 0.000000
# 5 0.000000 0.000000 0.000000 0.000000 0.042245 0.000000
# 6 0.000000 0.000000 0.000000 0.000000 0.000000 0.044965
#
#
# Mechanical properties :
#
#
# Convention : Reuss Voigt Hill
#
# Bulk Modulus (GPa) = 39.27732 43.14452 41.21092
# Shear Modulus (GPa) = 25.17799 28.60481 26.89140
#
# Velocity S-wave (km/s) = 3.55904 3.79351 3.67814
# Velocity P-wave (km/s) = 6.05384 6.39477 6.22664
#
# Compressibility (1/GPa) = 0.02545999
#
# Stress axis : x y z
#
# Youngs Moduli (GPa) = 90.52203 86.44014 51.54941
#
# Poissons Ratio (x) = 0.03981 0.00659
# Poissons Ratio (y) = 0.04169 0.39636
# Poissons Ratio (z) = 0.01157 0.66464
#
# Static dielectric constant tensor:
#      x y z
#    x 1.717330 0.000000 0.000000 
#    y 0.000000 1.721590 0.000000 
#    z 0.000000 0.000000 1.704150 
# 
# From -- ./inp_files/36383.got.cif
#   From: 2010.05.17/outbox.cif.g08.bks.cpg/sg64_19_cif.got.tgz:36383.got - 2010.06.03 16:29:19.
