data_PCOD9478012
_publ_section_title
;
Structure prediction by ZEFSAII (Michael W. Deem and Ramdas Pophale) SiO2 
 PCOD9478012
Probable space group: C M C A
;
_chemical_formula_sum "Si O2"
_cell_formula_units_Z 80
_cell_length_a 8.557508
_cell_length_b 29.709228
_cell_length_c 15.958217
_cell_angle_alpha 90.000000
_cell_angle_beta 90.000000
_cell_angle_gamma 90.000000
_cell_volume 4057.168518
_symmetry_space_group_name_H-M "C M C A"
_symmetry_group_IT_number 64
_symmetry_cell_setting 'orthorhombic'
loop_
_space_group_symop_operation_xyz
x,y,z
-x,1/2-y,1/2+z
x,-y,-z
-x,1/2+y,1/2-z
-x,-y,-z
x,1/2+y,1/2-z
-x,y,z
x,1/2-y,1/2+z
1/2+x,1/2+y,z
1/2-x,-y,1/2+z
1/2+x,1/2-y,-z
1/2-x,y,1/2-z
1/2-x,1/2-y,-z
1/2+x,y,1/2-z
1/2-x,1/2+y,z
1/2+x,-y,1/2+z
loop_
_atom_site_type_symbol
_atom_site_label
_atom_site_fract_x
_atom_site_fract_y
_atom_site_fract_z
Si Si1 0.188336 0.642541 0.661010
Si Si2 0.688787 0.800531 0.500319
Si Si3 0.812473 0.141090 0.161260
Si Si4 0.314010 0.950897 0.907614
Si Si5 0.812643 0.954087 0.097225
O O1 0.250000 0.658836 0.750000
O O2 0.241334 0.672491 0.582443
O O3 0.237909 0.590813 0.645429
O O4 0.000000 0.643043 0.661559
O O5 0.500000 0.799949 0.499681
O O6 0.750000 0.750000 0.500000
O O7 0.737466 0.827633 0.583528
O O8 0.750000 0.158166 0.250000
O O9 0.746258 0.091213 0.145013
O O10 0.000000 0.139040 0.162402
O O11 0.500000 0.949488 0.915799
O O12 0.262893 0.999439 0.872398
O O13 0.237368 0.947861 0.000145
O O14 0.000000 0.957952 0.100659
#
# Coordination Sequence:
#
# PCOD9478012 Si02
#       5
#    16  16  16  16  16
#     4  10  22  40  62  90 122 159 201 245 297 357
#     4  10  23  44  66  89 120 156 198 249 309 366
#     4  11  23  42  64  90 124 161 204 251 304 365
#     4  11  21  34  57  91 124 160 208 251 297 360
#     4  10  19  36  59  84 123 168 205 249 302 354
#
# _framework density 19.718185999999999
#
# number of rings (size 3 to 8) (size 9 to 14) (size 15 to 20)
#    0.000    1.600    2.000    4.200    0.000    5.600 
#    0.000    6.000    0.000    0.000    0.000    0.000 
#    0.000    0.000    0.000    0.000    0.000    0.000 
#
# Total GULP energy -223594.678292 kJ/mol
# GULP energy per Si atom -5589.866957 kJ/mol
# Density = 1.967331 g / cm^3
# Si number density = 19.718186 Si / 1000 Ang^3
#
#
#
# Elastic Constant Matrix: (Units=GPa)
#
#
# Indices 1 2 3 4 5 6 
#
# 1 26.4159 15.8461 13.1552 0.0000 0.0000 0.0000
# 2 15.8461 136.0525 77.1791 0.0000 0.0000 0.0000
# 3 13.1552 77.1791 148.2877 0.0000 0.0000 0.0000
# 4 0.0000 0.0000 0.0000 -0.9851 0.0000 0.0000
# 5 0.0000 0.0000 0.0000 0.0000 24.5894 0.0000
# 6 0.0000 0.0000 0.0000 0.0000 0.0000 66.9333
#
#
#
# Elastic Compliance Matrix: (Units=1/GPa)
#
#
# Indices 1 2 3 4 5 6 
#
# 1 0.040976 -0.003846 -0.001634 0.000000 0.000000 0.000000
# 2 -0.003846 0.010790 -0.005275 0.000000 0.000000 0.000000
# 3 -0.001634 -0.005275 0.009634 0.000000 0.000000 0.000000
# 4 0.000000 0.000000 0.000000 -1.015120 0.000000 0.000000
# 5 0.000000 0.000000 0.000000 0.000000 0.040668 0.000000
# 6 0.000000 0.000000 0.000000 0.000000 0.000000 0.014940
#
#
# Mechanical properties :
#
#
# Convention : Reuss Voigt Hill
#
# Bulk Modulus (GPa) = 25.06754 58.12411 41.59582
# Shear Modulus (GPa) = -5.79170 31.74591 12.97711
#
# Velocity S-wave (km/s) = -1.71570 4.01681 2.56819
# Velocity P-wave (km/s) = 2.96912 7.14524 5.47129
#
# Compressibility (1/GPa) = 0.03989223
#
# Stress axis : x y z
#
# Youngs Moduli (GPa) = 24.40425 92.67574 103.79966
#
# Poissons Ratio (x) = 0.35642 0.16956
# Poissons Ratio (y) = 0.09386 0.54753
# Poissons Ratio (z) = 0.03986 0.48885
#
# Static dielectric constant tensor:
#      x y z
#    x 1.666880 0.000000 0.000000 
#    y 0.000000 1.676610 0.000000 
#    z 0.000000 0.000000 1.707010 
# 
# From -- ./inp_files/29991.got.cif
#   From: 2010.05.17/outbox.cif.g08.bks.cpg/sg64_15_cif.got.tgz:29991.got - 2010.06.03 16:29:19.
