data_PCOD9478193
_publ_section_title
;
Structure prediction by ZEFSAII (Michael W. Deem and Ramdas Pophale) SiO2 
 PCOD9478193
Probable space group: C M C A
;
_chemical_formula_sum "Si O2"
_cell_formula_units_Z 72
_cell_length_a 18.528038
_cell_length_b 13.706301
_cell_length_c 13.716343
_cell_angle_alpha 90.000000
_cell_angle_beta 90.000000
_cell_angle_gamma 90.000000
_cell_volume 3483.277180
_symmetry_space_group_name_H-M "C M C A"
_symmetry_group_IT_number 64
_symmetry_cell_setting 'orthorhombic'
loop_
_space_group_symop_operation_xyz
x,y,z
-x,1/2-y,1/2+z
x,-y,-z
-x,1/2+y,1/2-z
-x,-y,-z
x,1/2+y,1/2-z
-x,y,z
x,1/2-y,1/2+z
1/2+x,1/2+y,z
1/2-x,-y,1/2+z
1/2+x,1/2-y,-z
1/2-x,y,1/2-z
1/2-x,1/2-y,-z
1/2+x,y,1/2-z
1/2-x,1/2+y,z
1/2+x,-y,1/2+z
loop_
_atom_site_type_symbol
_atom_site_label
_atom_site_fract_x
_atom_site_fract_y
_atom_site_fract_z
Si Si1 0.229592 0.614979 0.004208
Si Si2 0.157115 0.733348 0.387754
Si Si3 0.500000 0.471365 0.751125
Si Si4 0.622674 0.162416 0.180729
Si Si5 0.000000 0.676251 0.651565
Si Si6 0.000000 0.178043 0.070434
O O1 0.306203 0.660481 0.034304
O O2 0.175153 0.646433 0.090628
O O3 0.233350 0.500000 0.000000
O O4 0.198640 0.665749 0.906879
O O5 0.163803 0.687112 0.280964
O O6 0.072157 0.739832 0.409819
O O7 0.428991 0.431693 0.695969
O O8 0.500000 0.584859 0.776036
O O9 0.500000 0.409741 0.852205
O O10 0.568905 0.253695 0.165438
O O11 0.000000 0.641700 0.539893
#
# Coordination Sequence:
#
# PCOD9478193 Si02
#       6
#    16  16   8  16   8   8
#     4  11  24  43  67  97 132 172 223 267 336 394
#     4  10  23  44  64  94 132 171 215 272 327 393
#     4   9  22  35  61  96 129 171 224 261 329 387
#     4  10  22  42  61  95 135 168 224 271 322 396
#     4  11  20  37  64  94 133 175 215 266 328 388
#     4  10  19  42  64  87 127 169 214 275 313 393
#
# _framework density 20.670189000000001
#
# number of rings (size 3 to 8) (size 9 to 14) (size 15 to 20)
#    0.000    1.778    2.222    1.667    3.111    3.556 
#    0.000    7.222    0.000    0.000    0.000    0.000 
#    0.000    0.000    0.000    0.000    0.000    0.000 
#
# Total GULP energy -201200.236034 kJ/mol
# GULP energy per Si atom -5588.895445 kJ/mol
# Density = 2.062314 g / cm^3
# Si number density = 20.670189 Si / 1000 Ang^3
#
#
#
# Elastic Constant Matrix: (Units=GPa)
#
#
# Indices 1 2 3 4 5 6 
#
# 1 90.1783 12.8103 8.6141 0.0000 0.0000 0.0000
# 2 12.8103 97.5257 -14.2000 0.0000 0.0000 0.0000
# 3 8.6141 -14.2000 45.2552 0.0000 0.0000 0.0000
# 4 0.0000 0.0000 0.0000 12.2766 0.0000 0.0000
# 5 0.0000 0.0000 0.0000 0.0000 24.8876 0.0000
# 6 0.0000 0.0000 0.0000 0.0000 0.0000 7.6134
#
#
#
# Elastic Compliance Matrix: (Units=1/GPa)
#
#
# Indices 1 2 3 4 5 6 
#
# 1 0.011634 -0.001939 -0.002823 0.000000 0.000000 0.000000
# 2 -0.001939 0.011068 0.003842 0.000000 0.000000 0.000000
# 3 -0.002823 0.003842 0.023840 0.000000 0.000000 0.000000
# 4 0.000000 0.000000 0.000000 0.081456 0.000000 0.000000
# 5 0.000000 0.000000 0.000000 0.000000 0.040181 0.000000
# 6 0.000000 0.000000 0.000000 0.000000 0.000000 0.131348
#
#
# Mechanical properties :
#
#
# Convention : Reuss Voigt Hill
#
# Bulk Modulus (GPa) = 22.37073 27.48977 24.93025
# Shear Modulus (GPa) = 15.80942 24.00451 19.90696
#
# Velocity S-wave (km/s) = 2.76858 3.41150 3.10671
# Velocity P-wave (km/s) = 4.58980 5.37083 4.99560
#
# Compressibility (1/GPa) = 0.04470128
#
# Stress axis : x y z
#
# Youngs Moduli (GPa) = 85.95289 90.35194 41.94673
#
# Poissons Ratio (x) = 0.17521 0.11842
# Poissons Ratio (y) = 0.16668 -0.16116
# Poissons Ratio (z) = 0.24265 -0.34713
#
# Static dielectric constant tensor:
#      x y z
#    x 1.750470 0.000000 0.000000 
#    y 0.000000 1.708610 0.000000 
#    z 0.000000 0.000000 1.753360 
# 
# From -- ./inp_files/25161.got.cif
#   From: 2010.05.17/outbox.cif.g08.bks.cpg/sg64_13_cif.got.tgz:25161.got - 2010.06.03 16:29:19.
