data_PCOD9478412
_publ_section_title
;
Structure prediction by ZEFSAII (Michael W. Deem and Ramdas Pophale) SiO2 
 PCOD9478412
Probable space group: C M C A
;
_chemical_formula_sum "Si O2"
_cell_formula_units_Z 80
_cell_length_a 7.608715
_cell_length_b 13.927441
_cell_length_c 31.223098
_cell_angle_alpha 90.000000
_cell_angle_beta 90.000000
_cell_angle_gamma 90.000000
_cell_volume 3308.709486
_symmetry_space_group_name_H-M "C M C A"
_symmetry_group_IT_number 64
_symmetry_cell_setting 'orthorhombic'
loop_
_space_group_symop_operation_xyz
x,y,z
-x,1/2-y,1/2+z
x,-y,-z
-x,1/2+y,1/2-z
-x,-y,-z
x,1/2+y,1/2-z
-x,y,z
x,1/2-y,1/2+z
1/2+x,1/2+y,z
1/2-x,-y,1/2+z
1/2+x,1/2-y,-z
1/2-x,y,1/2-z
1/2-x,1/2-y,-z
1/2+x,y,1/2-z
1/2-x,1/2+y,z
1/2+x,-y,1/2+z
loop_
_atom_site_type_symbol
_atom_site_label
_atom_site_fract_x
_atom_site_fract_y
_atom_site_fract_z
Si Si1 0.210713 0.588008 0.444213
Si Si2 0.711186 0.308268 0.701259
Si Si3 0.797365 0.684124 0.623565
Si Si4 0.286843 0.636518 0.966175
Si Si5 0.203889 0.972407 0.645361
O O1 0.249326 0.476187 0.455849
O O2 0.277928 0.649415 0.484962
O O3 0.281666 0.597286 0.396256
O O4 0.000000 0.597144 0.442402
O O5 0.500000 0.308539 0.697801
O O6 0.750000 0.284205 0.750000
O O7 0.781480 0.236737 0.664734
O O8 0.771558 0.413733 0.686119
O O9 0.716339 0.691658 0.575771
O O10 0.798337 0.571049 0.634888
O O11 0.000000 0.714112 0.619281
O O12 0.500000 0.645171 0.966904
O O13 0.000000 0.996393 0.651261
#
# Coordination Sequence:
#
# PCOD9478412 Si02
#       5
#    16  16  16  16  16
#     4   8  13  25  47  74 102 138 175 204 238 295
#     4  10  23  40  57  76 102 134 171 216 266 312
#     4   9  18  36  58  77 100 138 178 210 249 306
#     4   7  11  23  47  74  99 131 174 208 237 290
#     4  10  20  34  52  79 110 137 166 210 261 305
#
# _framework density 24.178609999999999
#
# number of rings (size 3 to 8) (size 9 to 14) (size 15 to 20)
#    0.000    3.200    0.000    3.000    0.000    3.200 
#    0.000   13.000    0.000    0.000    0.000    0.000 
#    0.000    0.000    0.000    0.000    0.000    0.000 
#
# Total GULP energy -223291.884630 kJ/mol
# GULP energy per Si atom -5582.297116 kJ/mol
# Density = 2.412358 g / cm^3
# Si number density = 24.178610 Si / 1000 Ang^3
#
#
#
# Elastic Constant Matrix: (Units=GPa)
#
#
# Indices 1 2 3 4 5 6 
#
# 1 56.0696 3.4563 2.0464 0.0000 0.0000 0.0000
# 2 3.4563 71.4786 57.4290 0.0000 0.0000 0.0000
# 3 2.0464 57.4290 187.2444 0.0000 0.0000 0.0000
# 4 0.0000 0.0000 0.0000 40.2506 0.0000 0.0000
# 5 0.0000 0.0000 0.0000 0.0000 24.2813 0.0000
# 6 0.0000 0.0000 0.0000 0.0000 0.0000 14.5504
#
#
#
# Elastic Compliance Matrix: (Units=1/GPa)
#
#
# Indices 1 2 3 4 5 6 
#
# 1 0.017890 -0.000939 0.000093 0.000000 0.000000 0.000000
# 2 -0.000939 0.018614 -0.005699 0.000000 0.000000 0.000000
# 3 0.000093 -0.005699 0.007087 0.000000 0.000000 0.000000
# 4 0.000000 0.000000 0.000000 0.024844 0.000000 0.000000
# 5 0.000000 0.000000 0.000000 0.000000 0.041184 0.000000
# 6 0.000000 0.000000 0.000000 0.000000 0.000000 0.068727
#
#
# Mechanical properties :
#
#
# Convention : Reuss Voigt Hill
#
# Bulk Modulus (GPa) = 32.78696 48.96178 40.87437
# Shear Modulus (GPa) = 24.80103 32.60718 28.70410
#
# Velocity S-wave (km/s) = 3.20620 3.67631 3.44927
# Velocity P-wave (km/s) = 5.22456 6.18986 5.72758
#
# Compressibility (1/GPa) = 0.03049993
#
# Stress axis : x y z
#
# Youngs Moduli (GPa) = 55.89870 53.72204 141.09400
#
# Poissons Ratio (x) = 0.05047 -0.01307
# Poissons Ratio (y) = 0.05251 0.80407
# Poissons Ratio (z) = -0.00518 0.30615
#
# Static dielectric constant tensor:
#      x y z
#    x 1.871920 0.000000 0.000000 
#    y 0.000000 1.994380 0.000000 
#    z 0.000000 0.000000 1.969600 
# 
# From -- ./inp_files/51755.got.cif
#   From: 2010.05.17/outbox.cif.g08.bks.cpg/sg64_26_cif.got.tgz:51755.got - 2010.06.03 16:29:19.
