data_PCOD9478185
_publ_section_title
;
Structure prediction by ZEFSAII (Michael W. Deem and Ramdas Pophale) SiO2 
 PCOD9478185
Probable space group: C M C A
;
_chemical_formula_sum "Si O2"
_cell_formula_units_Z 120
_cell_length_a 13.886179
_cell_length_b 29.103215
_cell_length_c 12.863693
_cell_angle_alpha 90.000000
_cell_angle_beta 90.000000
_cell_angle_gamma 90.000000
_cell_volume 5198.635806
_symmetry_space_group_name_H-M "C M C A"
_symmetry_group_IT_number 64
_symmetry_cell_setting 'orthorhombic'
loop_
_space_group_symop_operation_xyz
x,y,z
-x,1/2-y,1/2+z
x,-y,-z
-x,1/2+y,1/2-z
-x,-y,-z
x,1/2+y,1/2-z
-x,y,z
x,1/2-y,1/2+z
1/2+x,1/2+y,z
1/2-x,-y,1/2+z
1/2+x,1/2-y,-z
1/2-x,y,1/2-z
1/2-x,1/2-y,-z
1/2+x,y,1/2-z
1/2-x,1/2+y,z
1/2+x,-y,1/2+z
loop_
_atom_site_type_symbol
_atom_site_label
_atom_site_fract_x
_atom_site_fract_y
_atom_site_fract_z
Si Si1 0.116137 0.788222 0.918853
Si Si2 0.617272 0.719587 0.300338
Si Si3 0.837353 0.507652 0.882038
Si Si4 0.748556 0.606426 0.586102
Si Si5 0.000000 0.038094 0.235110
Si Si6 0.384915 0.677118 0.855235
Si Si7 0.304070 0.075914 0.353129
Si Si8 0.384541 0.813792 0.022649
O O1 0.148888 0.803673 0.806241
O O2 0.142598 0.812543 0.024462
O O3 0.000000 0.789845 0.919191
O O4 0.142524 0.734826 0.927794
O O5 0.500000 0.719630 0.304157
O O6 0.641869 0.774052 0.303001
O O7 0.646861 0.692857 0.403162
O O8 0.747493 0.473326 0.870236
O O9 0.915959 0.491192 0.799338
O O10 0.875699 0.500000 0.000000
O O11 0.796517 0.558922 0.875033
O O12 0.828545 0.629829 0.660752
O O13 0.788035 0.598501 0.467128
O O14 0.663916 0.643656 0.576446
O O15 0.914673 0.068096 0.175985
O O16 0.500000 0.671607 0.842860
O O17 0.250000 0.095852 0.250000
O O18 0.500000 0.818100 0.026746
#
# Coordination Sequence:
#
# PCOD9478185 Si02
#       8
#    16  16  16  16   8  16  16  16
#     4   8  15  32  55  74 111 166 211 241 294 370
#     4   8  15  32  55  78 111 165 212 243 292 374
#     4   9  20  40  63  89 117 157 200 236 303 390
#     4  11  22  36  57  88 126 147 199 265 306 364
#     4  10  19  40  71  84 116 156 198 238 303 370
#     4   9  19  34  53  81 118 160 204 251 308 364
#     4   9  21  41  60  90 117 150 197 246 300 385
#     4   9  19  34  53  83 119 156 204 255 307 360
#
# _framework density 23.082979000000002
#
# number of rings (size 3 to 8) (size 9 to 14) (size 15 to 20)
#    0.000    2.933    0.000    1.800    1.867    3.200 
#    6.000    7.000    2.933    0.000    0.000    0.000 
#    0.000    0.000    0.000    0.000    0.000    0.000 
#
# Total GULP energy -334125.948542 kJ/mol
# GULP energy per Si atom -5568.765809 kJ/mol
# Density = 2.303044 g / cm^3
# Si number density = 23.082979 Si / 1000 Ang^3
#
#
#
# Elastic Constant Matrix: (Units=GPa)
#
#
# Indices 1 2 3 4 5 6 
#
# 1 143.1117 28.5714 7.2584 0.0000 0.0000 0.0000
# 2 28.5714 84.9244 -13.5676 0.0000 0.0000 0.0000
# 3 7.2584 -13.5676 72.0686 0.0000 0.0000 0.0000
# 4 0.0000 0.0000 0.0000 -14.0942 0.0000 0.0000
# 5 0.0000 0.0000 0.0000 0.0000 23.1347 0.0000
# 6 0.0000 0.0000 0.0000 0.0000 0.0000 26.3807
#
#
#
# Elastic Compliance Matrix: (Units=1/GPa)
#
#
# Indices 1 2 3 4 5 6 
#
# 1 0.007605 -0.002764 -0.001286 0.000000 0.000000 0.000000
# 2 -0.002764 0.013145 0.002753 0.000000 0.000000 0.000000
# 3 -0.001286 0.002753 0.014523 0.000000 0.000000 0.000000
# 4 0.000000 0.000000 0.000000 -0.070951 0.000000 0.000000
# 5 0.000000 0.000000 0.000000 0.000000 0.043225 0.000000
# 6 0.000000 0.000000 0.000000 0.000000 0.000000 0.037906
#
#
# Mechanical properties :
#
#
# Convention : Reuss Voigt Hill
#
# Bulk Modulus (GPa) = 30.60099 38.29212 34.44656
# Shear Modulus (GPa) = 84.83092 25.60706 55.21899
#
# Velocity S-wave (km/s) = 6.06879 3.33430 4.89631
# Velocity P-wave (km/s) = 7.89890 5.60788 6.84985
#
# Compressibility (1/GPa) = 0.03267868
#
# Stress axis : x y z
#
# Youngs Moduli (GPa) = 131.49954 76.07522 68.85394
#
# Poissons Ratio (x) = 0.21027 0.08856
# Poissons Ratio (y) = 0.36346 -0.18956
# Poissons Ratio (z) = 0.16914 -0.20944
#
# Static dielectric constant tensor:
#      x y z
#    x 1.869260 0.000000 0.000000 
#    y 0.000000 1.843710 0.000000 
#    z 0.000000 0.000000 1.932900 
# 
# From -- ./inp_files/24518.got.cif
#   From: 2010.05.17/outbox.cif.g08.bks.cpg/sg64_13_cif.got.tgz:24518.got - 2010.06.03 16:29:19.
