data_PCOD9478778
_publ_section_title
;
Structure prediction by ZEFSAII (Michael W. Deem and Ramdas Pophale) SiO2 
 PCOD9478778
Probable space group: C M C A
;
_chemical_formula_sum "Si O2"
_cell_formula_units_Z 96
_cell_length_a 25.046509
_cell_length_b 8.790245
_cell_length_c 22.221290
_cell_angle_alpha 90.000000
_cell_angle_beta 90.000000
_cell_angle_gamma 90.000000
_cell_volume 4892.349213
_symmetry_space_group_name_H-M "C M C A"
_symmetry_group_IT_number 64
_symmetry_cell_setting 'orthorhombic'
loop_
_space_group_symop_operation_xyz
x,y,z
-x,1/2-y,1/2+z
x,-y,-z
-x,1/2+y,1/2-z
-x,-y,-z
x,1/2+y,1/2-z
-x,y,z
x,1/2-y,1/2+z
1/2+x,1/2+y,z
1/2-x,-y,1/2+z
1/2+x,1/2-y,-z
1/2-x,y,1/2-z
1/2-x,1/2-y,-z
1/2+x,y,1/2-z
1/2-x,1/2+y,z
1/2+x,-y,1/2+z
loop_
_atom_site_type_symbol
_atom_site_label
_atom_site_fract_x
_atom_site_fract_y
_atom_site_fract_z
Si Si1 0.327498 0.147776 0.474175
Si Si2 0.718629 0.659860 0.414045
Si Si3 0.622159 0.940758 0.067652
Si Si4 0.797119 0.651428 0.703646
Si Si5 0.127363 0.613886 0.274519
Si Si6 0.562775 0.601718 0.682957
O O1 0.304775 0.242022 0.530858
O O2 0.275848 0.100418 0.435527
O O3 0.363646 0.263934 0.438340
O O4 0.355808 0.000000 0.500000
O O5 0.675395 0.525534 0.407422
O O6 0.723998 0.765752 0.355939
O O7 0.576337 0.960662 0.116479
O O8 0.610990 0.000000 0.000000
O O9 0.750000 0.607146 0.750000
O O10 0.833239 0.778013 0.736516
O O11 0.834672 0.505872 0.690656
O O12 0.089993 0.732247 0.309755
O O13 0.091334 0.510793 0.230362
O O14 0.500000 0.609694 0.693720
#
# Coordination Sequence:
#
# PCOD9478778 Si02
#       6
#    16  16  16  16  16  16
#     4  10  21  33  57  84 118 165 198 236 287 365
#     4  10  20  36  54  85 123 160 198 233 291 370
#     4  10  22  40  60  90 125 158 205 255 309 369
#     4  11  23  36  59  91 131 163 191 241 303 374
#     4  10  24  40  59  94 121 161 202 248 310 370
#     4  11  23  44  68  87 115 158 212 270 312 361
#
# _framework density 19.622474
#
# number of rings (size 3 to 8) (size 9 to 14) (size 15 to 20)
#    0.000    1.667    1.667    3.500    7.000    3.000 
#    0.000    0.000    0.000    0.500    0.000    0.000 
#    0.000    0.000    0.000    0.000    0.000    0.000 
#
# Total GULP energy -268212.851191 kJ/mol
# GULP energy per Si atom -5587.767733 kJ/mol
# Density = 1.957781 g / cm^3
# Si number density = 19.622474 Si / 1000 Ang^3
#
#
#
# Elastic Constant Matrix: (Units=GPa)
#
#
# Indices 1 2 3 4 5 6 
#
# 1 84.8451 34.6164 34.2916 0.0000 0.0000 0.0000
# 2 34.6164 105.2361 11.4134 0.0000 0.0000 0.0000
# 3 34.2916 11.4134 78.3350 0.0000 0.0000 0.0000
# 4 0.0000 0.0000 0.0000 20.4035 0.0000 0.0000
# 5 0.0000 0.0000 0.0000 0.0000 20.4048 0.0000
# 6 0.0000 0.0000 0.0000 0.0000 0.0000 19.3076
#
#
#
# Elastic Compliance Matrix: (Units=1/GPa)
#
#
# Indices 1 2 3 4 5 6 
#
# 1 0.016296 -0.004661 -0.006455 0.000000 0.000000 0.000000
# 2 -0.004661 0.010988 0.000439 0.000000 0.000000 0.000000
# 3 -0.006455 0.000439 0.015527 0.000000 0.000000 0.000000
# 4 0.000000 0.000000 0.000000 0.049011 0.000000 0.000000
# 5 0.000000 0.000000 0.000000 0.000000 0.049008 0.000000
# 6 0.000000 0.000000 0.000000 0.000000 0.000000 0.051793
#
#
# Mechanical properties :
#
#
# Convention : Reuss Voigt Hill
#
# Bulk Modulus (GPa) = 46.59956 47.67321 47.13639
# Shear Modulus (GPa) = 22.61119 24.56283 23.58701
#
# Velocity S-wave (km/s) = 3.39825 3.54187 3.47081
# Velocity P-wave (km/s) = 6.26076 6.40894 6.33528
#
# Compressibility (1/GPa) = 0.02145943
#
# Stress axis : x y z
#
# Youngs Moduli (GPa) = 61.36293 91.00978 64.40251
#
# Poissons Ratio (x) = 0.42415 0.41571
# Poissons Ratio (y) = 0.28598 -0.02829
# Poissons Ratio (z) = 0.39609 -0.03997
#
# Static dielectric constant tensor:
#      x y z
#    x 1.640780 0.000000 0.000000 
#    y 0.000000 1.701940 0.000000 
#    z 0.000000 0.000000 1.708920 
# 
# From -- ./inp_files/41828.got.cif
#   From: 2010.05.17/outbox.cif.g08.bks.cpg/sg64_21_cif.got.tgz:41828.got - 2010.06.03 16:29:19.
