data_PCOD9478366
_publ_section_title
;
Structure prediction by ZEFSAII (Michael W. Deem and Ramdas Pophale) SiO2 
 PCOD9478366
Probable space group: C M C A
;
_chemical_formula_sum "Si O2"
_cell_formula_units_Z 96
_cell_length_a 8.675474
_cell_length_b 22.276488
_cell_length_c 23.820563
_cell_angle_alpha 90.000000
_cell_angle_beta 90.000000
_cell_angle_gamma 90.000000
_cell_volume 4603.540387
_symmetry_space_group_name_H-M "C M C A"
_symmetry_group_IT_number 64
_symmetry_cell_setting 'orthorhombic'
loop_
_space_group_symop_operation_xyz
x,y,z
-x,1/2-y,1/2+z
x,-y,-z
-x,1/2+y,1/2-z
-x,-y,-z
x,1/2+y,1/2-z
-x,y,z
x,1/2-y,1/2+z
1/2+x,1/2+y,z
1/2-x,-y,1/2+z
1/2+x,1/2-y,-z
1/2-x,y,1/2-z
1/2-x,1/2-y,-z
1/2+x,y,1/2-z
1/2-x,1/2+y,z
1/2+x,-y,1/2+z
loop_
_atom_site_type_symbol
_atom_site_label
_atom_site_fract_x
_atom_site_fract_y
_atom_site_fract_z
Si Si1 0.315216 0.649913 0.913755
Si Si2 0.683233 0.083875 0.812671
Si Si3 0.680248 0.845707 0.688411
Si Si4 0.184494 0.216630 0.414965
Si Si5 0.685201 0.596538 0.479989
Si Si6 0.180972 0.028642 0.121857
O O1 0.500000 0.647757 0.916181
O O2 0.257944 0.635173 0.851458
O O3 0.259760 0.716938 0.930222
O O4 0.246877 0.601480 0.957037
O O5 0.500000 0.090143 0.810843
O O6 0.750000 0.083255 0.750000
O O7 0.729560 0.022838 0.845047
O O8 0.500000 0.831092 0.690629
O O9 0.750000 0.847253 0.750000
O O10 0.765763 0.799074 0.648065
O O11 0.696040 0.910750 0.658932
O O12 0.237711 0.160294 0.452222
O O13 0.000000 0.217219 0.418729
O O14 0.500000 0.592667 0.479643
O O15 0.752799 0.545669 0.439309
O O16 0.000000 0.012971 0.117754
#
# Coordination Sequence:
#
# PCOD9478366 Si02
#       6
#    16  16  16  16  16  16
#     4  11  23  40  61  87 119 158 198 239 287 345
#     4  12  26  44  64  87 116 155 198 242 291 347
#     4  10  20  33  55  84 115 150 192 241 294 347
#     4   9  20  37  58  84 118 156 195 239 291 346
#     4  10  20  37  62  93 123 153 191 240 293 347
#     4  10  21  39  62  89 118 152 193 242 295 349
#
# _framework density 20.853515999999999
#
# number of rings (size 3 to 8) (size 9 to 14) (size 15 to 20)
#    0.000    1.667    0.000    4.500    0.000    6.667 
#    0.000    3.333    0.000    0.000    0.000    0.000 
#    0.000    0.000    0.000    0.000    0.000    0.000 
#
# Total GULP energy -268406.125289 kJ/mol
# GULP energy per Si atom -5591.794277 kJ/mol
# Density = 2.080605 g / cm^3
# Si number density = 20.853516 Si / 1000 Ang^3
#
#
#
# Elastic Constant Matrix: (Units=GPa)
#
#
# Indices 1 2 3 4 5 6 
#
# 1 33.2451 2.0474 18.6414 0.0000 0.0000 0.0000
# 2 2.0474 58.8871 15.9180 0.0000 0.0000 0.0000
# 3 18.6414 15.9180 114.5689 0.0000 0.0000 0.0000
# 4 0.0000 0.0000 0.0000 34.9636 0.0000 0.0000
# 5 0.0000 0.0000 0.0000 0.0000 36.4368 0.0000
# 6 0.0000 0.0000 0.0000 0.0000 0.0000 22.4351
#
#
#
# Elastic Compliance Matrix: (Units=1/GPa)
#
#
# Indices 1 2 3 4 5 6 
#
# 1 0.033105 0.000317 -0.005431 0.000000 0.000000 0.000000
# 2 0.000317 0.017647 -0.002503 0.000000 0.000000 0.000000
# 3 -0.005431 -0.002503 0.009960 0.000000 0.000000 0.000000
# 4 0.000000 0.000000 0.000000 0.028601 0.000000 0.000000
# 5 0.000000 0.000000 0.000000 0.000000 0.027445 0.000000
# 6 0.000000 0.000000 0.000000 0.000000 0.000000 0.044573
#
#
# Mechanical properties :
#
#
# Convention : Reuss Voigt Hill
#
# Bulk Modulus (GPa) = 21.98858 31.10163 26.54510
# Shear Modulus (GPa) = 26.07905 30.10671 28.09288
#
# Velocity S-wave (km/s) = 3.54019 3.80376 3.67434
# Velocity P-wave (km/s) = 5.22282 5.85134 5.54599
#
# Compressibility (1/GPa) = 0.04547816
#
# Stress axis : x y z
#
# Youngs Moduli (GPa) = 30.20680 56.66573 100.40365
#
# Poissons Ratio (x) = -0.01796 0.54525
# Poissons Ratio (y) = -0.00957 0.25136
# Poissons Ratio (z) = 0.16404 0.14186
#
# Static dielectric constant tensor:
#      x y z
#    x 1.692770 0.000000 0.000000 
#    y 0.000000 1.790210 0.000000 
#    z 0.000000 0.000000 1.722140 
# 
# From -- ./inp_files/42964.got.cif
#   From: 2010.05.17/outbox.cif.g08.bks.cpg/sg64_22_cif.got.tgz:42964.got - 2010.06.03 16:29:19.
