data_PCOD9478024
_publ_section_title
;
Structure prediction by ZEFSAII (Michael W. Deem and Ramdas Pophale) SiO2 
 PCOD9478024
Probable space group: C M C A
;
_chemical_formula_sum "Si O2"
_cell_formula_units_Z 80
_cell_length_a 15.045311
_cell_length_b 25.277604
_cell_length_c 8.745861
_cell_angle_alpha 90.000000
_cell_angle_beta 90.000000
_cell_angle_gamma 90.000000
_cell_volume 3326.133268
_symmetry_space_group_name_H-M "C M C A"
_symmetry_group_IT_number 64
_symmetry_cell_setting 'orthorhombic'
loop_
_space_group_symop_operation_xyz
x,y,z
-x,1/2-y,1/2+z
x,-y,-z
-x,1/2+y,1/2-z
-x,-y,-z
x,1/2+y,1/2-z
-x,y,z
x,1/2-y,1/2+z
1/2+x,1/2+y,z
1/2-x,-y,1/2+z
1/2+x,1/2-y,-z
1/2-x,y,1/2-z
1/2-x,1/2-y,-z
1/2+x,y,1/2-z
1/2-x,1/2+y,z
1/2+x,-y,1/2+z
loop_
_atom_site_type_symbol
_atom_site_label
_atom_site_fract_x
_atom_site_fract_y
_atom_site_fract_z
Si Si1 0.653513 0.927408 0.801436
Si Si2 0.892874 0.679643 0.362569
Si Si3 0.100014 0.973628 0.149839
Si Si4 0.891536 0.217987 0.806830
Si Si5 0.391381 0.615892 0.630253
O O1 0.750000 0.945423 0.750000
O O2 0.630404 0.878980 0.689197
O O3 0.595657 0.979390 0.773350
O O4 0.646288 0.904959 0.971387
O O5 0.862339 0.723505 0.240024
O O6 0.860122 0.696922 0.529562
O O7 0.000000 0.682021 0.366418
O O8 0.000000 0.957436 0.101627
O O9 0.138633 0.922459 0.231758
O O10 0.142887 0.000000 0.000000
O O11 0.868140 0.175608 0.675982
O O12 0.000000 0.218802 0.813639
O O13 0.500000 0.612765 0.619273
#
# Coordination Sequence:
#
# PCOD9478024 Si02
#       5
#    16  16  16  16  16
#     4  12  25  38  54  82 119 159 196 232 280 338
#     4  10  19  36  60  85 114 147 190 240 290 343
#     4  10  21  39  64  90 114 145 189 241 293 345
#     4   9  18  34  62  92 112 140 186 243 296 342
#     4  10  20  38  63  88 114 147 191 239 289 344
#
# _framework density 24.051952
#
# number of rings (size 3 to 8) (size 9 to 14) (size 15 to 20)
#    0.000    1.800    0.000    4.800    0.000    9.600 
#    0.000    7.000    0.000    0.000    0.000    0.000 
#    0.000    0.000    0.000    0.000    0.000    0.000 
#
# Total GULP energy -223786.230219 kJ/mol
# GULP energy per Si atom -5594.655755 kJ/mol
# Density = 2.399721 g / cm^3
# Si number density = 24.051952 Si / 1000 Ang^3
#
#
#
# Elastic Constant Matrix: (Units=GPa)
#
#
# Indices 1 2 3 4 5 6 
#
# 1 54.0775 -1.4086 7.9231 0.0000 0.0000 0.0000
# 2 -1.4086 81.5169 -25.1383 0.0000 0.0000 0.0000
# 3 7.9231 -25.1383 64.9449 0.0000 0.0000 0.0000
# 4 0.0000 0.0000 0.0000 45.2020 0.0000 0.0000
# 5 0.0000 0.0000 0.0000 0.0000 8.0686 0.0000
# 6 0.0000 0.0000 0.0000 0.0000 0.0000 167.6275
#
#
#
# Elastic Compliance Matrix: (Units=1/GPa)
#
#
# Indices 1 2 3 4 5 6 
#
# 1 0.018842 -0.000435 -0.002467 0.000000 0.000000 0.000000
# 2 -0.000435 0.013940 0.005449 0.000000 0.000000 0.000000
# 3 -0.002467 0.005449 0.017808 0.000000 0.000000 0.000000
# 4 0.000000 0.000000 0.000000 0.022123 0.000000 0.000000
# 5 0.000000 0.000000 0.000000 0.000000 0.123937 0.000000
# 6 0.000000 0.000000 0.000000 0.000000 0.000000 0.005966
#
#
# Mechanical properties :
#
#
# Convention : Reuss Voigt Hill
#
# Bulk Modulus (GPa) = 17.95871 18.14352 18.05112
# Shear Modulus (GPa) = 23.13919 58.79051 40.96485
#
# Velocity S-wave (km/s) = 3.10506 4.94936 4.13144
# Velocity P-wave (km/s) = 4.50977 6.34204 5.50270
#
# Compressibility (1/GPa) = 0.05568328
#
# Stress axis : x y z
#
# Youngs Moduli (GPa) = 53.07262 71.73482 56.15522
#
# Poissons Ratio (x) = 0.03122 0.13854
# Poissons Ratio (y) = 0.02310 -0.30599
# Poissons Ratio (z) = 0.13094 -0.39088
#
# Static dielectric constant tensor:
#      x y z
#    x 1.987710 0.000000 0.000000 
#    y 0.000000 1.867780 0.000000 
#    z 0.000000 0.000000 1.911180 
# 
# From -- ./inp_files/7138.got.cif
#   From: 2010.05.17/outbox.cif.g08.bks.cpg/sg64_4_cif.got.tgz:7138.got - 2010.06.03 16:29:19.
