data_PCOD9478660
_publ_section_title
;
Structure prediction by ZEFSAII (Michael W. Deem and Ramdas Pophale) SiO2 
 PCOD9478660
Probable space group: C M C A
;
_chemical_formula_sum "Si O2"
_cell_formula_units_Z 116
_cell_length_a 26.636615
_cell_length_b 9.417118
_cell_length_c 24.348606
_cell_angle_alpha 90.000000
_cell_angle_beta 90.000000
_cell_angle_gamma 90.000000
_cell_volume 6107.607898
_symmetry_space_group_name_H-M "C M C A"
_symmetry_group_IT_number 64
_symmetry_cell_setting 'orthorhombic'
loop_
_space_group_symop_operation_xyz
x,y,z
-x,1/2-y,1/2+z
x,-y,-z
-x,1/2+y,1/2-z
-x,-y,-z
x,1/2+y,1/2-z
-x,y,z
x,1/2-y,1/2+z
1/2+x,1/2+y,z
1/2-x,-y,1/2+z
1/2+x,1/2-y,-z
1/2-x,y,1/2-z
1/2-x,1/2-y,-z
1/2+x,y,1/2-z
1/2-x,1/2+y,z
1/2+x,-y,1/2+z
loop_
_atom_site_type_symbol
_atom_site_label
_atom_site_fract_x
_atom_site_fract_y
_atom_site_fract_z
Si Si1 0.283403 0.851113 0.571229
Si Si2 0.306487 0.163984 0.559849
Si Si3 0.113039 0.771255 0.406492
Si Si4 0.942376 0.051050 0.377547
Si Si5 0.917571 0.230834 0.967759
Si Si6 0.439422 0.222373 0.716346
Si Si7 0.560809 0.591827 0.180381
Si Si8 0.500000 0.500000 0.000000
O O1 0.293347 0.845102 0.505321
O O2 0.228429 0.789628 0.582249
O O3 0.327666 0.756049 0.596570
O O4 0.290957 0.014816 0.586325
O O5 0.365727 0.187798 0.561991
O O6 0.096666 0.773067 0.470112
O O7 0.084771 0.641863 0.376416
O O8 0.093611 0.916675 0.380379
O O9 0.939930 0.137642 0.434318
O O10 0.927794 0.163008 0.330596
O O11 0.000000 0.003327 0.367218
O O12 0.956314 0.102441 0.972360
O O13 0.500000 0.213178 0.718407
O O14 0.424162 0.290647 0.774179
O O15 0.422537 0.064061 0.700719
O O16 0.500000 0.590983 0.175156
#
# Coordination Sequence:
#
# PCOD9478660 Si02
#       8
#    16  16  16  16  16  16  16   4
#     4   9  19  35  57  79 105 148 192 245 285 338
#     4   9  19  37  54  78 110 147 197 239 286 337
#     4  11  23  35  55  84 119 153 195 237 295 347
#     4  11  23  37  52  81 119 161 200 237 281 352
#     4  11  24  35  55  79 123 160 193 229 293 353
#     4   9  20  36  56  79 110 157 205 240 290 340
#     4  10  20  35  57  81 114 155 194 245 290 347
#     4  12  24  36  54  80 124 160 202 232 274 366
#
# _framework density 18.992705999999998
#
# number of rings (size 3 to 8) (size 9 to 14) (size 15 to 20)
#    0.000    1.931    0.690    3.310    7.724    2.759 
#    0.000    0.000    0.000    0.000    0.000    0.966 
#    0.000    0.000    0.000    0.000    0.000    0.000 
#
# Total GULP energy -323325.805742 kJ/mol
# GULP energy per Si atom -5574.582858 kJ/mol
# Density = 1.894948 g / cm^3
# Si number density = 18.992706 Si / 1000 Ang^3
#
#
#
# Elastic Constant Matrix: (Units=GPa)
#
#
# Indices 1 2 3 4 5 6 
#
# 1 104.2411 43.2873 0.1507 0.0000 0.0000 0.0000
# 2 43.2873 110.2564 8.3145 0.0000 0.0000 0.0000
# 3 0.1507 8.3145 49.6283 0.0000 0.0000 0.0000
# 4 0.0000 0.0000 0.0000 24.7423 0.0000 0.0000
# 5 0.0000 0.0000 0.0000 0.0000 3.6841 0.0000
# 6 0.0000 0.0000 0.0000 0.0000 0.0000 25.8443
#
#
#
# Elastic Compliance Matrix: (Units=1/GPa)
#
#
# Indices 1 2 3 4 5 6 
#
# 1 0.011488 -0.004565 0.000730 0.000000 0.000000 0.000000
# 2 -0.004565 0.011000 -0.001829 0.000000 0.000000 0.000000
# 3 0.000730 -0.001829 0.020454 0.000000 0.000000 0.000000
# 4 0.000000 0.000000 0.000000 0.040417 0.000000 0.000000
# 5 0.000000 0.000000 0.000000 0.000000 0.271436 0.000000
# 6 0.000000 0.000000 0.000000 0.000000 0.000000 0.038693
#
#
# Mechanical properties :
#
#
# Convention : Reuss Voigt Hill
#
# Bulk Modulus (GPa) = 31.63230 40.84787 36.24009
# Shear Modulus (GPa) = 12.03793 25.01237 18.52515
#
# Velocity S-wave (km/s) = 2.52031 3.63291 3.12650
# Velocity P-wave (km/s) = 5.01601 6.25709 5.67061
#
# Compressibility (1/GPa) = 0.03161325
#
# Stress axis : x y z
#
# Youngs Moduli (GPa) = 87.04843 90.90876 48.89019
#
# Poissons Ratio (x) = 0.41502 -0.03569
# Poissons Ratio (y) = 0.39740 0.08942
# Poissons Ratio (z) = -0.06354 0.16627
#
# Static dielectric constant tensor:
#      x y z
#    x 1.652570 0.000000 0.000000 
#    y 0.000000 1.678680 0.000000 
#    z 0.000000 0.000000 1.681080 
# 
# From -- ./inp_files/46950.got.cif
#   From: 2010.05.17/outbox.cif.g08.bks.cpg/sg64_24_cif.got.tgz:46950.got - 2010.06.03 16:29:19.
