data_PCOD9478279
_publ_section_title
;
Structure prediction by ZEFSAII (Michael W. Deem and Ramdas Pophale) SiO2 
 PCOD9478279
Probable space group: C M C A
;
_chemical_formula_sum "Si O2"
_cell_formula_units_Z 72
_cell_length_a 9.239594
_cell_length_b 18.096127
_cell_length_c 23.318501
_cell_angle_alpha 90.000000
_cell_angle_beta 90.000000
_cell_angle_gamma 90.000000
_cell_volume 3898.873572
_symmetry_space_group_name_H-M "C M C A"
_symmetry_group_IT_number 64
_symmetry_cell_setting 'orthorhombic'
loop_
_space_group_symop_operation_xyz
x,y,z
-x,1/2-y,1/2+z
x,-y,-z
-x,1/2+y,1/2-z
-x,-y,-z
x,1/2+y,1/2-z
-x,y,z
x,1/2-y,1/2+z
1/2+x,1/2+y,z
1/2-x,-y,1/2+z
1/2+x,1/2-y,-z
1/2-x,y,1/2-z
1/2-x,1/2-y,-z
1/2+x,y,1/2-z
1/2-x,1/2+y,z
1/2+x,-y,1/2+z
loop_
_atom_site_type_symbol
_atom_site_label
_atom_site_fract_x
_atom_site_fract_y
_atom_site_fract_z
Si Si1 0.171849 0.484279 0.689360
Si Si2 0.167684 0.378422 0.142738
Si Si3 0.169040 0.732752 0.558843
Si Si4 0.750000 0.779501 0.250000
Si Si5 0.657441 0.842750 0.837849
O O1 0.250000 0.495510 0.750000
O O2 0.242034 0.546553 0.649429
O O3 0.217042 0.401852 0.670997
O O4 0.000000 0.492709 0.693519
O O5 0.244598 0.329185 0.094391
O O6 0.175093 0.332651 0.203128
O O7 0.000000 0.392185 0.129627
O O8 0.250000 0.750000 0.500000
O O9 0.170057 0.803722 0.600862
O O10 0.000000 0.712659 0.550044
O O11 0.662711 0.722536 0.290505
O O12 0.500000 0.880254 0.832416
#
# Coordination Sequence:
#
# PCOD9478279 Si02
#       5
#    16  16  16   8  16
#     4  12  24  37  56  85 123 160 195 237 291 354
#     4  11  22  37  60  87 120 157 196 243 296 350
#     4  10  22  41  64  89 118 153 200 248 295 348
#     4  10  20  32  58  86 120 150 196 234 294 350
#     4  10  21  37  58  86 119 153 194 240 290 348
#
# _framework density 18.466874000000001
#
# number of rings (size 3 to 8) (size 9 to 14) (size 15 to 20)
#    0.000    1.333    2.222    4.000    0.000    6.222 
#    0.000    1.111    0.000    6.667    0.000    0.000 
#    0.000    0.000    0.000    0.000    0.000    0.000 
#
# Total GULP energy -200947.948902 kJ/mol
# GULP energy per Si atom -5581.887470 kJ/mol
# Density = 1.842484 g / cm^3
# Si number density = 18.466874 Si / 1000 Ang^3
#
#
#
# Elastic Constant Matrix: (Units=GPa)
#
#
# Indices 1 2 3 4 5 6 
#
# 1 173.1423 31.3415 24.3172 0.0000 0.0000 0.0000
# 2 31.3415 63.1998 -3.5002 0.0000 0.0000 0.0000
# 3 24.3172 -3.5002 80.9211 0.0000 0.0000 0.0000
# 4 0.0000 0.0000 0.0000 15.0315 0.0000 0.0000
# 5 0.0000 0.0000 0.0000 0.0000 17.3836 0.0000
# 6 0.0000 0.0000 0.0000 0.0000 0.0000 17.8966
#
#
#
# Elastic Compliance Matrix: (Units=1/GPa)
#
#
# Indices 1 2 3 4 5 6 
#
# 1 0.006703 -0.003444 -0.002163 0.000000 0.000000 0.000000
# 2 -0.003444 0.017630 0.001797 0.000000 0.000000 0.000000
# 3 -0.002163 0.001797 0.013086 0.000000 0.000000 0.000000
# 4 0.000000 0.000000 0.000000 0.066527 0.000000 0.000000
# 5 0.000000 0.000000 0.000000 0.000000 0.057526 0.000000
# 6 0.000000 0.000000 0.000000 0.000000 0.000000 0.055876
#
#
# Mechanical properties :
#
#
# Convention : Reuss Voigt Hill
#
# Bulk Modulus (GPa) = 33.55767 46.84227 40.19997
# Shear Modulus (GPa) = 21.28569 27.73599 24.51084
#
# Velocity S-wave (km/s) = 3.39874 3.87968 3.64715
# Velocity P-wave (km/s) = 5.79769 6.74462 6.28900
#
# Compressibility (1/GPa) = 0.02979944
#
# Stress axis : x y z
#
# Youngs Moduli (GPa) = 149.19171 56.72089 76.42044
#
# Poissons Ratio (x) = 0.19533 0.16531
# Poissons Ratio (y) = 0.51378 -0.13736
# Poissons Ratio (z) = 0.32273 -0.10195
#
# Static dielectric constant tensor:
#      x y z
#    x 1.807610 0.000000 0.000000 
#    y 0.000000 1.646720 0.000000 
#    z 0.000000 0.000000 1.623340 
# 
# From -- ./inp_files/42605.got.cif
#   From: 2010.05.17/outbox.cif.g08.bks.cpg/sg64_22_cif.got.tgz:42605.got - 2010.06.03 16:29:19.
