data_PCOD9478168
_publ_section_title
;
Structure prediction by ZEFSAII (Michael W. Deem and Ramdas Pophale) SiO2 
 PCOD9478168
Probable space group: C M C A
;
_chemical_formula_sum "Si O2"
_cell_formula_units_Z 72
_cell_length_a 13.867655
_cell_length_b 21.584973
_cell_length_c 11.868264
_cell_angle_alpha 90.000000
_cell_angle_beta 90.000000
_cell_angle_gamma 90.000000
_cell_volume 3552.562578
_symmetry_space_group_name_H-M "C M C A"
_symmetry_group_IT_number 64
_symmetry_cell_setting 'orthorhombic'
loop_
_space_group_symop_operation_xyz
x,y,z
-x,1/2-y,1/2+z
x,-y,-z
-x,1/2+y,1/2-z
-x,-y,-z
x,1/2+y,1/2-z
-x,y,z
x,1/2-y,1/2+z
1/2+x,1/2+y,z
1/2-x,-y,1/2+z
1/2+x,1/2-y,-z
1/2-x,y,1/2-z
1/2-x,1/2-y,-z
1/2+x,y,1/2-z
1/2-x,1/2+y,z
1/2+x,-y,1/2+z
loop_
_atom_site_type_symbol
_atom_site_label
_atom_site_fract_x
_atom_site_fract_y
_atom_site_fract_z
Si Si1 0.338348 0.727317 0.181188
Si Si2 0.157641 0.000000 0.500000
Si Si3 0.000000 0.949006 0.329814
Si Si4 0.500000 0.451018 0.832648
Si Si5 0.708304 0.904801 0.622581
Si Si6 0.000000 0.339707 0.827824
Si Si7 0.000000 0.814961 0.411183
O O1 0.250000 0.756366 0.250000
O O2 0.298743 0.669436 0.107878
O O3 0.408342 0.694226 0.272802
O O4 0.405676 0.773773 0.113409
O O5 0.222009 0.057161 0.457739
O O6 0.091588 0.025322 0.601039
O O7 0.000000 0.875230 0.332938
O O8 0.000000 0.978458 0.206240
O O9 0.400118 0.431448 0.889646
O O10 0.500000 0.409448 0.718036
O O11 0.750000 0.914085 0.750000
O O12 0.000000 0.337250 0.960619
#
# Coordination Sequence:
#
# PCOD9478168 Si02
#       7
#    16   8   8   8  16   8   8
#     4   9  21  40  59  85 117 157 201 237 288 358
#     4  11  22  39  62  98 112 149 208 245 298 362
#     4  11  23  36  60  87 120 151 195 249 289 357
#     4  10  19  40  61  87 121 156 194 248 300 355
#     4  10  20  38  66  89 118 156 199 248 295 356
#     4   9  19  37  63  84 111 153 200 239 288 355
#     4  11  23  39  58  87 120 157 199 247 291 346
#
# _framework density 20.267061000000002
#
# number of rings (size 3 to 8) (size 9 to 14) (size 15 to 20)
#    0.000    2.000    2.222    2.000    6.222    1.333 
#    4.000    2.222    0.000    0.000    0.000    0.000 
#    0.000    0.000    0.000    0.000    0.000    0.000 
#
# Total GULP energy -201150.833570 kJ/mol
# GULP energy per Si atom -5587.523155 kJ/mol
# Density = 2.022093 g / cm^3
# Si number density = 20.267061 Si / 1000 Ang^3
#
#
#
# Elastic Constant Matrix: (Units=GPa)
#
#
# Indices 1 2 3 4 5 6 
#
# 1 128.3598 25.5803 7.2842 0.0000 0.0000 0.0000
# 2 25.5803 85.5002 8.7294 0.0000 0.0000 0.0000
# 3 7.2842 8.7294 17.7726 0.0000 0.0000 0.0000
# 4 0.0000 0.0000 0.0000 21.4978 0.0000 0.0000
# 5 0.0000 0.0000 0.0000 0.0000 3.8107 0.0000
# 6 0.0000 0.0000 0.0000 0.0000 0.0000 -95.5772
#
#
#
# Elastic Compliance Matrix: (Units=1/GPa)
#
#
# Indices 1 2 3 4 5 6 
#
# 1 0.008374 -0.002269 -0.002318 0.000000 0.000000 0.000000
# 2 -0.002269 0.012928 -0.005420 0.000000 0.000000 0.000000
# 3 -0.002318 -0.005420 0.059879 0.000000 0.000000 0.000000
# 4 0.000000 0.000000 0.000000 0.046516 0.000000 0.000000
# 5 0.000000 0.000000 0.000000 0.000000 0.262416 0.000000
# 6 0.000000 0.000000 0.000000 0.000000 0.000000 -0.010463
#
#
# Mechanical properties :
#
#
# Convention : Reuss Voigt Hill
#
# Bulk Modulus (GPa) = 16.34855 34.98004 25.66429
# Shear Modulus (GPa) = 11.90325 -1.38450 5.25937
#
# Velocity S-wave (km/s) = 2.42610 -0.82741 1.61266
# Velocity P-wave (km/s) = 3.99149 4.04774 4.01971
#
# Compressibility (1/GPa) = 0.06116752
#
# Stress axis : x y z
#
# Youngs Moduli (GPa) = 119.41332 77.35123 16.70048
#
# Poissons Ratio (x) = 0.17549 0.03871
# Poissons Ratio (y) = 0.27093 0.09052
# Poissons Ratio (z) = 0.27679 0.41924
#
# Static dielectric constant tensor:
#      x y z
#    x 1.746030 0.000000 0.000000 
#    y 0.000000 1.714590 0.000000 
#    z 0.000000 0.000000 1.697350 
# 
# From -- ./inp_files/14401.got.cif
#   From: 2010.05.17/outbox.cif.g08.bks.cpg/sg64_8_cif.got.tgz:14401.got - 2010.06.03 16:29:19.
