data_PCOD9478082
_publ_section_title
;
Structure prediction by ZEFSAII (Michael W. Deem and Ramdas Pophale) SiO2 
 PCOD9478082
Probable space group: C M C A
;
_chemical_formula_sum "Si O2"
_cell_formula_units_Z 104
_cell_length_a 9.679472
_cell_length_b 19.622716
_cell_length_c 25.023382
_cell_angle_alpha 90.000000
_cell_angle_beta 90.000000
_cell_angle_gamma 90.000000
_cell_volume 4752.879371
_symmetry_space_group_name_H-M "C M C A"
_symmetry_group_IT_number 64
_symmetry_cell_setting 'orthorhombic'
loop_
_space_group_symop_operation_xyz
x,y,z
-x,1/2-y,1/2+z
x,-y,-z
-x,1/2+y,1/2-z
-x,-y,-z
x,1/2+y,1/2-z
-x,y,z
x,1/2-y,1/2+z
1/2+x,1/2+y,z
1/2-x,-y,1/2+z
1/2+x,1/2-y,-z
1/2-x,y,1/2-z
1/2-x,1/2-y,-z
1/2+x,y,1/2-z
1/2-x,1/2+y,z
1/2+x,-y,1/2+z
loop_
_atom_site_type_symbol
_atom_site_label
_atom_site_fract_x
_atom_site_fract_y
_atom_site_fract_z
Si Si1 0.000000 0.119623 0.745845
Si Si2 0.838373 0.459394 0.697774
Si Si3 0.161447 0.159495 0.443827
Si Si4 0.661469 0.139575 0.937782
Si Si5 0.654966 0.492092 0.599564
Si Si6 0.337538 0.304437 0.842189
Si Si7 0.752311 0.338924 0.322476
O O1 0.881128 0.131931 0.791734
O O2 0.880188 0.121438 0.699264
O O3 0.750000 0.476068 0.750000
O O4 0.770206 0.492831 0.645681
O O5 0.826918 0.377838 0.686695
O O6 0.000000 0.477941 0.705949
O O7 0.203875 0.169448 0.505203
O O8 0.167046 0.078411 0.432083
O O9 0.261099 0.190162 0.399112
O O10 0.000000 0.180235 0.436870
O O11 0.500000 0.158645 0.929015
O O12 0.751651 0.157944 0.886540
O O13 0.665422 0.057325 0.938087
O O14 0.500000 0.491568 0.624094
O O15 0.500000 0.290245 0.848632
O O16 0.271041 0.241564 0.810793
#
# Coordination Sequence:
#
# PCOD9478082 Si02
#       7
#     8  16  16  16  16  16  16
#     4  10  24  40  60  78 114 148 194 230 274 336
#     4  10  21  35  53  80 111 145 186 233 284 332
#     4   9  19  35  59  87 115 147 187 233 279 333
#     4  10  19  37  61  84 113 150 189 233 278 333
#     4   9  18  36  57  83 110 148 192 230 280 336
#     4  10  21  36  57  84 116 146 183 232 284 337
#     4  11  22  41  58  86 110 149 190 230 281 336
#
# _framework density 21.881473
#
# number of rings (size 3 to 8) (size 9 to 14) (size 15 to 20)
#    0.000    2.154    1.538    0.923    3.231    3.077 
#    5.538    0.000    0.000    3.692    0.000    0.000 
#    0.000    0.000    0.000    0.000    0.000    0.000 
#
# Total GULP energy -289721.303153 kJ/mol
# GULP energy per Si atom -5571.563522 kJ/mol
# Density = 2.183167 g / cm^3
# Si number density = 21.881473 Si / 1000 Ang^3
#
#
#
# Elastic Constant Matrix: (Units=GPa)
#
#
# Indices 1 2 3 4 5 6 
#
# 1 120.4818 4.4955 49.4547 0.0000 0.0000 0.0000
# 2 4.4955 69.4684 2.5317 0.0000 0.0000 0.0000
# 3 49.4547 2.5317 137.6372 0.0000 0.0000 0.0000
# 4 0.0000 0.0000 0.0000 -14.2661 0.0000 0.0000
# 5 0.0000 0.0000 0.0000 0.0000 38.1018 0.0000
# 6 0.0000 0.0000 0.0000 0.0000 0.0000 2.7016
#
#
#
# Elastic Compliance Matrix: (Units=1/GPa)
#
#
# Indices 1 2 3 4 5 6 
#
# 1 0.009754 -0.000504 -0.003495 0.000000 0.000000 0.000000
# 2 -0.000504 0.014431 -0.000084 0.000000 0.000000 0.000000
# 3 -0.003495 -0.000084 0.008523 0.000000 0.000000 0.000000
# 4 0.000000 0.000000 0.000000 -0.070096 0.000000 0.000000
# 5 0.000000 0.000000 0.000000 0.000000 0.026245 0.000000
# 6 0.000000 0.000000 0.000000 0.000000 0.000000 0.370149
#
#
# Mechanical properties :
#
#
# Convention : Reuss Voigt Hill
#
# Bulk Modulus (GPa) = 40.74955 48.95014 44.84984
# Shear Modulus (GPa) = 13.32083 23.38117 18.35100
#
# Velocity S-wave (km/s) = 2.47001 3.27239 2.89909
# Velocity P-wave (km/s) = 5.17667 6.05782 5.63450
#
# Compressibility (1/GPa) = 0.02454015
#
# Stress axis : x y z
#
# Youngs Moduli (GPa) = 102.52692 69.29665 117.33054
#
# Poissons Ratio (x) = 0.03491 0.41010
# Poissons Ratio (y) = 0.05165 0.00990
# Poissons Ratio (z) = 0.35836 0.00585
#
# Static dielectric constant tensor:
#      x y z
#    x 1.742350 0.000000 0.000000 
#    y 0.000000 1.894020 0.000000 
#    z 0.000000 0.000000 1.736260 
# 
# From -- ./inp_files/48481.got.cif
#   From: 2010.05.17/outbox.cif.g08.bks.cpg/sg64_25_cif.got.tgz:48481.got - 2010.06.03 16:29:19.
