data_PCOD9478693
_publ_section_title
;
Structure prediction by ZEFSAII (Michael W. Deem and Ramdas Pophale) SiO2 
 PCOD9478693
Probable space group: C M C A
;
_chemical_formula_sum "Si O2"
_cell_formula_units_Z 56
_cell_length_a 15.692716
_cell_length_b 12.864466
_cell_length_c 13.846474
_cell_angle_alpha 90.000000
_cell_angle_beta 90.000000
_cell_angle_gamma 90.000000
_cell_volume 2795.304175
_symmetry_space_group_name_H-M "C M C A"
_symmetry_group_IT_number 64
_symmetry_cell_setting 'orthorhombic'
loop_
_space_group_symop_operation_xyz
x,y,z
-x,1/2-y,1/2+z
x,-y,-z
-x,1/2+y,1/2-z
-x,-y,-z
x,1/2+y,1/2-z
-x,y,z
x,1/2-y,1/2+z
1/2+x,1/2+y,z
1/2-x,-y,1/2+z
1/2+x,1/2-y,-z
1/2-x,y,1/2-z
1/2-x,1/2-y,-z
1/2+x,y,1/2-z
1/2-x,1/2+y,z
1/2+x,-y,1/2+z
loop_
_atom_site_type_symbol
_atom_site_label
_atom_site_fract_x
_atom_site_fract_y
_atom_site_fract_z
Si Si1 0.839546 0.212190 0.543928
Si Si2 0.500000 0.021553 0.340900
Si Si3 0.172582 0.108391 0.177016
Si Si4 0.500000 0.173751 0.530489
Si Si5 0.731776 0.000000 0.000000
O O1 0.750000 0.250000 0.500000
O O2 0.848278 0.273651 0.644563
O O3 0.827764 0.089306 0.545062
O O4 0.916614 0.254710 0.478634
O O5 0.412905 0.051905 0.287955
O O6 0.500000 0.096778 0.436609
O O7 0.500000 0.903703 0.378925
O O8 0.250000 0.107682 0.250000
O O9 0.206388 0.047526 0.081860
#
# Coordination Sequence:
#
# PCOD9478693 Si02
#       5
#    16   8  16   8   8
#     4   9  18  33  53  80 110 145 189 233 282 334
#     4   9  16  32  56  81 110 149 197 232 277 341
#     4  10  20  35  58  85 116 151 192 238 284 341
#     4   9  16  31  58  82 106 149 195 238 279 335
#     4  10  20  36  58  84 118 154 188 236 292 336
#
# _framework density 20.033598000000001
#
# number of rings (size 3 to 8) (size 9 to 14) (size 15 to 20)
#    0.000    2.571    0.000    5.143    0.000    1.714 
#    0.000    7.143    0.000   10.286    0.000    0.000 
#    0.000    0.000    0.000    0.000    0.000    0.000 
#
# Total GULP energy -156139.185150 kJ/mol
# GULP energy per Si atom -5576.399470 kJ/mol
# Density = 1.998800 g / cm^3
# Si number density = 20.033598 Si / 1000 Ang^3
#
#
#
# Elastic Constant Matrix: (Units=GPa)
#
#
# Indices 1 2 3 4 5 6 
#
# 1 173.8268 57.4762 18.1256 0.0000 0.0000 0.0000
# 2 57.4762 121.7325 13.1057 0.0000 0.0000 0.0000
# 3 18.1256 13.1057 31.7329 0.0000 0.0000 0.0000
# 4 0.0000 0.0000 0.0000 7.3324 0.0000 0.0000
# 5 0.0000 0.0000 0.0000 0.0000 7.1440 0.0000
# 6 0.0000 0.0000 0.0000 0.0000 0.0000 27.8189
#
#
#
# Elastic Compliance Matrix: (Units=1/GPa)
#
#
# Indices 1 2 3 4 5 6 
#
# 1 0.007043 -0.003027 -0.002773 0.000000 0.000000 0.000000
# 2 -0.003027 0.009898 -0.002359 0.000000 0.000000 0.000000
# 3 -0.002773 -0.002359 0.034071 0.000000 0.000000 0.000000
# 4 0.000000 0.000000 0.000000 0.136382 0.000000 0.000000
# 5 0.000000 0.000000 0.000000 0.000000 0.139978 0.000000
# 6 0.000000 0.000000 0.000000 0.000000 0.000000 0.035947
#
#
# Mechanical properties :
#
#
# Convention : Reuss Voigt Hill
#
# Bulk Modulus (GPa) = 28.82277 56.07855 42.45066
# Shear Modulus (GPa) = 12.78120 24.36470 18.57295
#
# Velocity S-wave (km/s) = 2.52858 3.49118 3.04812
# Velocity P-wave (km/s) = 4.78993 6.65613 5.79860
#
# Compressibility (1/GPa) = 0.03469479
#
# Stress axis : x y z
#
# Youngs Moduli (GPa) = 141.98948 101.03275 29.35044
#
# Poissons Ratio (x) = 0.30580 0.08138
# Poissons Ratio (y) = 0.42977 0.06924
# Poissons Ratio (z) = 0.39370 0.23833
#
# Static dielectric constant tensor:
#      x y z
#    x 1.683080 0.000000 0.000000 
#    y 0.000000 1.762510 0.000000 
#    z 0.000000 0.000000 1.723570 
# 
# From -- ./inp_files/23055.got.cif
#   From: 2010.05.17/outbox.cif.g08.bks.cpg/sg64_12_cif.got.tgz:23055.got - 2010.06.03 16:29:19.
