data_PCOD9478476
_publ_section_title
;
Structure prediction by ZEFSAII (Michael W. Deem and Ramdas Pophale) SiO2 
 PCOD9478476
Probable space group: C M C A
;
_chemical_formula_sum "Si O2"
_cell_formula_units_Z 80
_cell_length_a 16.888810
_cell_length_b 7.146450
_cell_length_c 26.777504
_cell_angle_alpha 90.000000
_cell_angle_beta 90.000000
_cell_angle_gamma 90.000000
_cell_volume 3231.911815
_symmetry_space_group_name_H-M "C M C A"
_symmetry_group_IT_number 64
_symmetry_cell_setting 'orthorhombic'
loop_
_space_group_symop_operation_xyz
x,y,z
-x,1/2-y,1/2+z
x,-y,-z
-x,1/2+y,1/2-z
-x,-y,-z
x,1/2+y,1/2-z
-x,y,z
x,1/2-y,1/2+z
1/2+x,1/2+y,z
1/2-x,-y,1/2+z
1/2+x,1/2-y,-z
1/2-x,y,1/2-z
1/2-x,1/2-y,-z
1/2+x,y,1/2-z
1/2-x,1/2+y,z
1/2+x,-y,1/2+z
loop_
_atom_site_type_symbol
_atom_site_label
_atom_site_fract_x
_atom_site_fract_y
_atom_site_fract_z
Si Si1 0.407567 0.844780 0.810631
Si Si2 0.341050 0.783912 0.512740
Si Si3 0.090204 0.686538 0.086742
Si Si4 0.668072 0.024301 0.280691
Si Si5 0.094246 0.369350 0.618535
O O1 0.500000 0.784413 0.815144
O O2 0.381513 0.924810 0.864254
O O3 0.343704 0.683716 0.800605
O O4 0.399734 0.966724 0.761639
O O5 0.250000 0.750000 0.500000
O O6 0.377817 0.664450 0.468128
O O7 0.368728 0.764840 0.570061
O O8 0.361093 0.000000 0.500000
O O9 0.000000 0.636507 0.081939
O O10 0.097402 0.907095 0.103262
O O11 0.750000 0.043676 0.250000
O O12 0.643683 0.147111 0.329354
O O13 0.000000 0.325598 0.625368
#
# Coordination Sequence:
#
# PCOD9478476 Si02
#       5
#    16  16  16  16  16
#     4  10  20  37  57  79 111 148 186 224 272 336
#     4  10  20  34  55  81 109 136 175 227 278 323
#     4   8  16  32  56  78 101 138 185 221 257 321
#     4  11  22  35  55  83 113 144 185 231 276 321
#     4   9  18  35  57  78 105 145 189 223 265 333
#
# _framework density 24.753150000000002
#
# number of rings (size 3 to 8) (size 9 to 14) (size 15 to 20)
#    0.000    2.400    0.000    4.200    2.800    2.400 
#    3.600    0.000    0.000    2.400    0.000    0.000 
#    0.000    0.000    0.000    0.000    0.000    0.000 
#
# Total GULP energy -222932.697792 kJ/mol
# GULP energy per Si atom -5573.317445 kJ/mol
# Density = 2.469681 g / cm^3
# Si number density = 24.753150 Si / 1000 Ang^3
#
#
#
# Elastic Constant Matrix: (Units=GPa)
#
#
# Indices 1 2 3 4 5 6 
#
# 1 122.1817 19.3560 112.7083 0.0000 0.0000 0.0000
# 2 19.3560 40.8463 54.7514 0.0000 0.0000 0.0000
# 3 112.7083 54.7514 290.2310 0.0000 0.0000 0.0000
# 4 0.0000 0.0000 0.0000 36.3346 0.0000 0.0000
# 5 0.0000 0.0000 0.0000 0.0000 48.5827 0.0000
# 6 0.0000 0.0000 0.0000 0.0000 0.0000 7.4286
#
#
#
# Elastic Compliance Matrix: (Units=1/GPa)
#
#
# Indices 1 2 3 4 5 6 
#
# 1 0.012772 0.000798 -0.005111 0.000000 0.000000 0.000000
# 2 0.000798 0.032818 -0.006501 0.000000 0.000000 0.000000
# 3 -0.005111 -0.006501 0.006657 0.000000 0.000000 0.000000
# 4 0.000000 0.000000 0.000000 0.027522 0.000000 0.000000
# 5 0.000000 0.000000 0.000000 0.000000 0.020583 0.000000
# 6 0.000000 0.000000 0.000000 0.000000 0.000000 0.134615
#
#
# Mechanical properties :
#
#
# Convention : Reuss Voigt Hill
#
# Bulk Modulus (GPa) = 32.65880 91.87671 62.26775
# Shear Modulus (GPa) = 18.74060 36.23207 27.48633
#
# Velocity S-wave (km/s) = 2.75453 3.83003 3.33591
# Velocity P-wave (km/s) = 4.83105 7.53370 6.32833
#
# Compressibility (1/GPa) = 0.03061962
#
# Stress axis : x y z
#
# Youngs Moduli (GPa) = 78.29355 30.47124 150.22859
#
# Poissons Ratio (x) = -0.02431 0.76775
# Poissons Ratio (y) = -0.06246 0.97661
# Poissons Ratio (z) = 0.40012 0.19809
#
# Static dielectric constant tensor:
#      x y z
#    x 1.958180 0.000000 0.000000 
#    y 0.000000 2.088780 0.000000 
#    z 0.000000 0.000000 1.679930 
# 
# From -- ./inp_files/44918.got.cif
#   From: 2010.05.17/outbox.cif.g08.bks.cpg/sg64_23_cif.got.tgz:44918.got - 2010.06.03 16:29:19.
