data_PCOD9478725
_publ_section_title
;
Structure prediction by ZEFSAII (Michael W. Deem and Ramdas Pophale) SiO2 
 PCOD9478725
Probable space group: C M C A
;
_chemical_formula_sum "Si O2"
_cell_formula_units_Z 88
_cell_length_a 9.262142
_cell_length_b 23.468358
_cell_length_c 19.904778
_cell_angle_alpha 90.000000
_cell_angle_beta 90.000000
_cell_angle_gamma 90.000000
_cell_volume 4326.647140
_symmetry_space_group_name_H-M "C M C A"
_symmetry_group_IT_number 64
_symmetry_cell_setting 'orthorhombic'
loop_
_space_group_symop_operation_xyz
x,y,z
-x,1/2-y,1/2+z
x,-y,-z
-x,1/2+y,1/2-z
-x,-y,-z
x,1/2+y,1/2-z
-x,y,z
x,1/2-y,1/2+z
1/2+x,1/2+y,z
1/2-x,-y,1/2+z
1/2+x,1/2-y,-z
1/2-x,y,1/2-z
1/2-x,1/2-y,-z
1/2+x,y,1/2-z
1/2-x,1/2+y,z
1/2+x,-y,1/2+z
loop_
_atom_site_type_symbol
_atom_site_label
_atom_site_fract_x
_atom_site_fract_y
_atom_site_fract_z
Si Si1 0.830172 0.271888 0.931818
Si Si2 0.329635 0.111789 0.402230
Si Si3 0.659857 0.653127 0.871973
Si Si4 0.340895 0.985520 0.853105
Si Si5 0.166375 0.422989 0.032656
Si Si6 0.250000 0.920210 0.250000
O O1 0.753052 0.327990 0.903257
O O2 0.824251 0.220745 0.877572
O O3 0.000000 0.282584 0.946639
O O4 0.750000 0.250000 0.000000
O O5 0.500000 0.119742 0.398816
O O6 0.274599 0.064932 0.348549
O O7 0.278140 0.084320 0.472684
O O8 0.500000 0.639818 0.901337
O O9 0.787548 0.626655 0.916031
O O10 0.666898 0.621923 0.800415
O O11 0.500000 0.959511 0.852348
O O12 0.322283 0.020024 0.923071
O O13 0.332855 0.035190 0.797785
O O14 0.000000 0.417340 0.010616
#
# Coordination Sequence:
#
# PCOD9478725 Si02
#       6
#    16  16  16  16  16   8
#     4  11  22  38  62  92 128 165 205 255 312 375
#     4  12  24  37  57  88 125 165 206 252 307 368
#     4  10  21  38  63  93 123 160 206 253 304 369
#     4  10  22  39  60  87 120 159 203 253 311 371
#     4  10  20  35  59  89 123 160 199 251 311 369
#     4  10  22  42  68  92 118 156 206 260 312 370
#
# _framework density 20.339074
#
# number of rings (size 3 to 8) (size 9 to 14) (size 15 to 20)
#    0.000    1.455    1.818    3.818    0.000    8.000 
#    0.000    0.909    0.000    2.182    0.000    0.000 
#    0.000    0.000    0.000    0.000    0.000    0.000 
#
# Total GULP energy -245443.915477 kJ/mol
# GULP energy per Si atom -5578.270806 kJ/mol
# Density = 2.029278 g / cm^3
# Si number density = 20.339074 Si / 1000 Ang^3
#
#
#
# Elastic Constant Matrix: (Units=GPa)
#
#
# Indices 1 2 3 4 5 6 
#
# 1 154.3874 79.9296 19.8437 0.0000 0.0000 0.0000
# 2 79.9296 143.3354 38.0451 0.0000 0.0000 0.0000
# 3 19.8437 38.0451 59.8245 0.0000 0.0000 0.0000
# 4 0.0000 0.0000 0.0000 24.1578 0.0000 0.0000
# 5 0.0000 0.0000 0.0000 0.0000 14.5516 0.0000
# 6 0.0000 0.0000 0.0000 0.0000 0.0000 28.7550
#
#
#
# Elastic Compliance Matrix: (Units=1/GPa)
#
#
# Indices 1 2 3 4 5 6 
#
# 1 0.009109 -0.005146 0.000251 0.000000 0.000000 0.000000
# 2 -0.005146 0.011301 -0.005480 0.000000 0.000000 0.000000
# 3 0.000251 -0.005480 0.020117 0.000000 0.000000 0.000000
# 4 0.000000 0.000000 0.000000 0.041395 0.000000 0.000000
# 5 0.000000 0.000000 0.000000 0.000000 0.068721 0.000000
# 6 0.000000 0.000000 0.000000 0.000000 0.000000 0.034777
#
#
# Mechanical properties :
#
#
# Convention : Reuss Voigt Hill
#
# Bulk Modulus (GPa) = 50.56232 70.35379 60.45806
# Shear Modulus (GPa) = 23.50050 28.14147 25.82099
#
# Velocity S-wave (km/s) = 3.40286 3.72373 3.56691
# Velocity P-wave (km/s) = 6.35240 7.29067 6.83764
#
# Compressibility (1/GPa) = 0.01977757
#
# Stress axis : x y z
#
# Youngs Moduli (GPa) = 109.77755 88.48791 49.70918
#
# Poissons Ratio (x) = 0.45540 -0.01249
# Poissons Ratio (y) = 0.56496 0.27239
# Poissons Ratio (z) = -0.02759 0.48489
#
# Static dielectric constant tensor:
#      x y z
#    x 1.716100 0.000000 0.000000 
#    y 0.000000 1.733840 0.000000 
#    z 0.000000 0.000000 1.776000 
# 
# From -- ./inp_files/36792.got.cif
#   From: 2010.05.17/outbox.cif.g08.bks.cpg/sg64_19_cif.got.tgz:36792.got - 2010.06.03 16:29:19.
