data_PCOD9478254
_publ_section_title
;
Structure prediction by ZEFSAII (Michael W. Deem and Ramdas Pophale) SiO2 
 PCOD9478254
Probable space group: C M C A
;
_chemical_formula_sum "Si O2"
_cell_formula_units_Z 120
_cell_length_a 20.791720
_cell_length_b 13.063330
_cell_length_c 25.782435
_cell_angle_alpha 90.000000
_cell_angle_beta 90.000000
_cell_angle_gamma 90.000000
_cell_volume 7002.743957
_symmetry_space_group_name_H-M "C M C A"
_symmetry_group_IT_number 64
_symmetry_cell_setting 'orthorhombic'
loop_
_space_group_symop_operation_xyz
x,y,z
-x,1/2-y,1/2+z
x,-y,-z
-x,1/2+y,1/2-z
-x,-y,-z
x,1/2+y,1/2-z
-x,y,z
x,1/2-y,1/2+z
1/2+x,1/2+y,z
1/2-x,-y,1/2+z
1/2+x,1/2-y,-z
1/2-x,y,1/2-z
1/2-x,1/2-y,-z
1/2+x,y,1/2-z
1/2-x,1/2+y,z
1/2+x,-y,1/2+z
loop_
_atom_site_type_symbol
_atom_site_label
_atom_site_fract_x
_atom_site_fract_y
_atom_site_fract_z
Si Si1 0.423980 0.986976 0.161715
Si Si2 0.855833 0.030176 0.444140
Si Si3 0.816059 0.242154 0.400665
Si Si4 0.926523 0.244761 0.691140
Si Si5 0.209012 0.035152 0.941896
Si Si6 0.376208 0.197820 0.203349
Si Si7 0.308187 0.873550 0.645541
Si Si8 0.750000 0.366358 0.750000
O O1 0.500000 0.004079 0.166214
O O2 0.409300 0.873436 0.181120
O O3 0.401165 0.997614 0.102658
O O4 0.389045 0.077778 0.192665
O O5 0.840537 0.150593 0.437518
O O6 0.882161 0.000000 0.500000
O O7 0.786512 0.975657 0.438179
O O8 0.809351 0.348847 0.429510
O O9 0.866353 0.248752 0.352593
O O10 0.747215 0.202710 0.377360
O O11 0.924236 0.262754 0.753193
O O12 0.873188 0.315547 0.662891
O O13 0.000000 0.262955 0.672944
O O14 0.181393 0.958950 0.898141
O O15 0.191079 0.000000 0.000000
O O16 0.307597 0.204451 0.231055
O O17 0.276647 0.921366 0.698347
#
# Coordination Sequence:
#
# PCOD9478254 Si02
#       8
#    16  16  16  16  16  16  16   8
#     4  10  20  33  49  71  99 130 168 208 241 289
#     4   9  19  33  52  74  98 129 164 208 253 292
#     4   9  18  33  50  73 103 131 161 201 254 303
#     4  10  20  33  51  73  99 133 168 206 249 293
#     4  10  20  32  51  78 104 133 167 206 253 309
#     4   9  18  33  49  71 101 130 163 202 250 304
#     4   9  18  32  50  73 102 132 167 207 252 302
#     4   8  16  30  48  72  96 124 162 206 250 296
#
# _framework density 17.136140999999999
#
# number of rings (size 3 to 8) (size 9 to 14) (size 15 to 20)
#    0.000    2.667    0.000    2.000    0.000    8.267 
#    0.000    5.333    0.000    3.600    0.000    0.000 
#    0.000    0.000    0.000    0.000    0.000    0.000 
#
# Total GULP energy -334120.181424 kJ/mol
# GULP energy per Si atom -5568.669690 kJ/mol
# Density = 1.709714 g / cm^3
# Si number density = 17.136141 Si / 1000 Ang^3
#
#
#
# Elastic Constant Matrix: (Units=GPa)
#
#
# Indices 1 2 3 4 5 6 
#
# 1 47.7609 24.4587 15.6310 0.0000 0.0000 0.0000
# 2 24.4587 87.2790 65.4156 0.0000 0.0000 0.0000
# 3 15.6310 65.4156 107.3423 0.0000 0.0000 0.0000
# 4 0.0000 0.0000 0.0000 18.6635 0.0000 0.0000
# 5 0.0000 0.0000 0.0000 0.0000 10.7624 0.0000
# 6 0.0000 0.0000 0.0000 0.0000 0.0000 11.2420
#
#
#
# Elastic Compliance Matrix: (Units=1/GPa)
#
#
# Indices 1 2 3 4 5 6 
#
# 1 0.024521 -0.007723 0.001136 0.000000 0.000000 0.000000
# 2 -0.007723 0.023523 -0.013211 0.000000 0.000000 0.000000
# 3 0.001136 -0.013211 0.017201 0.000000 0.000000 0.000000
# 4 0.000000 0.000000 0.000000 0.053581 0.000000 0.000000
# 5 0.000000 0.000000 0.000000 0.000000 0.092916 0.000000
# 6 0.000000 0.000000 0.000000 0.000000 0.000000 0.088952
#
#
# Mechanical properties :
#
#
# Convention : Reuss Voigt Hill
#
# Bulk Modulus (GPa) = 38.98678 50.37698 44.68188
# Shear Modulus (GPa) = 14.33324 17.25870 15.79597
#
# Velocity S-wave (km/s) = 2.89525 3.17701 3.03940
# Velocity P-wave (km/s) = 5.82900 6.55132 6.20069
#
# Compressibility (1/GPa) = 0.02564972
#
# Stress axis : x y z
#
# Youngs Moduli (GPa) = 40.78161 42.51135 58.13495
#
# Poissons Ratio (x) = 0.32831 -0.06602
# Poissons Ratio (y) = 0.31495 0.76800
# Poissons Ratio (z) = -0.04632 0.56160
#
# Static dielectric constant tensor:
#      x y z
#    x 1.583420 0.000000 0.000000 
#    y 0.000000 1.558050 0.000000 
#    z 0.000000 0.000000 1.609410 
# 
# From -- ./inp_files/46451.got.cif
#   From: 2010.05.17/outbox.cif.g08.bks.cpg/sg64_24_cif.got.tgz:46451.got - 2010.06.03 16:29:19.
