data_PCOD9478900
_publ_section_title
;
Structure prediction by ZEFSAII (Michael W. Deem and Ramdas Pophale) SiO2 
 PCOD9478900
Probable space group: C M C A
;
_chemical_formula_sum "Si O2"
_cell_formula_units_Z 88
_cell_length_a 12.047141
_cell_length_b 15.169417
_cell_length_c 22.268482
_cell_angle_alpha 90.000000
_cell_angle_beta 90.000000
_cell_angle_gamma 90.000000
_cell_volume 4069.522898
_symmetry_space_group_name_H-M "C M C A"
_symmetry_group_IT_number 64
_symmetry_cell_setting 'orthorhombic'
loop_
_space_group_symop_operation_xyz
x,y,z
-x,1/2-y,1/2+z
x,-y,-z
-x,1/2+y,1/2-z
-x,-y,-z
x,1/2+y,1/2-z
-x,y,z
x,1/2-y,1/2+z
1/2+x,1/2+y,z
1/2-x,-y,1/2+z
1/2+x,1/2-y,-z
1/2-x,y,1/2-z
1/2-x,1/2-y,-z
1/2+x,y,1/2-z
1/2-x,1/2+y,z
1/2+x,-y,1/2+z
loop_
_atom_site_type_symbol
_atom_site_label
_atom_site_fract_x
_atom_site_fract_y
_atom_site_fract_z
Si Si1 0.500000 0.115280 0.350310
Si Si2 0.199655 0.479736 0.806000
Si Si3 0.293035 0.843553 0.141976
Si Si4 0.000000 0.449185 0.273012
Si Si5 0.753577 0.159655 0.101971
Si Si6 0.500000 0.221162 0.778644
Si Si7 0.126834 0.604810 0.989768
O O1 0.614528 0.139466 0.385512
O O2 0.500000 0.173551 0.288286
O O3 0.500000 0.013547 0.330227
O O4 0.250000 0.426025 0.750000
O O5 0.261427 0.568612 0.829930
O O6 0.187451 0.414643 0.860818
O O7 0.098078 0.521494 0.771523
O O8 0.224565 0.756056 0.127254
O O9 0.390458 0.808789 0.185206
O O10 0.347276 0.873525 0.079168
O O11 0.000000 0.342799 0.279250
O O12 0.715343 0.150253 0.033681
O O13 0.000000 0.632299 0.003534
O O14 0.134545 0.500000 0.000000
#
# Coordination Sequence:
#
# PCOD9478900 Si02
#       7
#     8  16  16   8  16   8  16
#     4  10  20  40  59  87 124 165 197 234 309 374
#     4  11  22  38  62  90 120 159 204 248 298 357
#     4  10  20  39  61  87 122 157 198 250 301 355
#     4  10  20  36  59  83 119 156 205 253 287 346
#     4  11  23  39  62  89 125 161 199 247 306 365
#     4   8  18  34  60  87 112 156 200 243 301 350
#     4  11  22  38  68  94 116 153 209 261 303 349
#
# _framework density 21.624157
#
# number of rings (size 3 to 8) (size 9 to 14) (size 15 to 20)
#    0.000    1.636    4.545    0.545    1.273    0.727 
#    3.273    0.455    4.000    0.000    0.000    0.000 
#    0.000    0.000    0.000    0.000    0.000    0.000 
#
# Total GULP energy -245086.532866 kJ/mol
# GULP energy per Si atom -5570.148474 kJ/mol
# Density = 2.157494 g / cm^3
# Si number density = 21.624157 Si / 1000 Ang^3
#
#
#
# Elastic Constant Matrix: (Units=GPa)
#
#
# Indices 1 2 3 4 5 6 
#
# 1 51.0213 13.7816 18.7340 0.0000 0.0000 0.0000
# 2 13.7816 105.0882 25.6180 0.0000 0.0000 0.0000
# 3 18.7340 25.6180 54.1203 0.0000 0.0000 0.0000
# 4 0.0000 0.0000 0.0000 32.3109 0.0000 0.0000
# 5 0.0000 0.0000 0.0000 0.0000 22.9440 0.0000
# 6 0.0000 0.0000 0.0000 0.0000 0.0000 23.0636
#
#
#
# Elastic Compliance Matrix: (Units=1/GPa)
#
#
# Indices 1 2 3 4 5 6 
#
# 1 0.022585 -0.001194 -0.007253 0.000000 0.000000 0.000000
# 2 -0.001194 0.010820 -0.004709 0.000000 0.000000 0.000000
# 3 -0.007253 -0.004709 0.023217 0.000000 0.000000 0.000000
# 4 0.000000 0.000000 0.000000 0.030949 0.000000 0.000000
# 5 0.000000 0.000000 0.000000 0.000000 0.043584 0.000000
# 6 0.000000 0.000000 0.000000 0.000000 0.000000 0.043358
#
#
# Mechanical properties :
#
#
# Convention : Reuss Voigt Hill
#
# Bulk Modulus (GPa) = 32.99050 36.27743 34.63396
# Shear Modulus (GPa) = 23.70471 25.80347 24.75409
#
# Velocity S-wave (km/s) = 3.31450 3.45812 3.38707
# Velocity P-wave (km/s) = 5.47150 5.72342 5.59888
#
# Compressibility (1/GPa) = 0.03031176
#
# Stress axis : x y z
#
# Youngs Moduli (GPa) = 44.27669 92.41975 43.07237
#
# Poissons Ratio (x) = 0.11033 0.31240
# Poissons Ratio (y) = 0.05286 0.20281
# Poissons Ratio (z) = 0.32113 0.43516
#
# Static dielectric constant tensor:
#      x y z
#    x 2.117830 0.000000 0.000000 
#    y 0.000000 1.838870 0.000000 
#    z 0.000000 0.000000 1.786020 
# 
# From -- ./inp_files/39124.got.cif
#   From: 2010.05.17/outbox.cif.g08.bks.cpg/sg64_20_cif.got.tgz:39124.got - 2010.06.03 16:29:19.
