data_PCOD9478905
_publ_section_title
;
Structure prediction by ZEFSAII (Michael W. Deem and Ramdas Pophale) SiO2 
 PCOD9478905
Probable space group: C M C A
;
_chemical_formula_sum "Si O2"
_cell_formula_units_Z 64
_cell_length_a 15.456255
_cell_length_b 17.997964
_cell_length_c 10.512571
_cell_angle_alpha 90.000000
_cell_angle_beta 90.000000
_cell_angle_gamma 90.000000
_cell_volume 2924.398786
_symmetry_space_group_name_H-M "C M C A"
_symmetry_group_IT_number 64
_symmetry_cell_setting 'orthorhombic'
loop_
_space_group_symop_operation_xyz
x,y,z
-x,1/2-y,1/2+z
x,-y,-z
-x,1/2+y,1/2-z
-x,-y,-z
x,1/2+y,1/2-z
-x,y,z
x,1/2-y,1/2+z
1/2+x,1/2+y,z
1/2-x,-y,1/2+z
1/2+x,1/2-y,-z
1/2-x,y,1/2-z
1/2-x,1/2-y,-z
1/2+x,y,1/2-z
1/2-x,1/2+y,z
1/2+x,-y,1/2+z
loop_
_atom_site_type_symbol
_atom_site_label
_atom_site_fract_x
_atom_site_fract_y
_atom_site_fract_z
Si Si1 0.818058 0.465381 0.862530
Si Si2 0.093910 0.393592 0.191705
Si Si3 0.227465 0.335762 0.991397
Si Si4 0.594266 0.089355 0.510119
O O1 0.750000 0.479051 0.750000
O O2 0.898499 0.517637 0.830634
O O3 0.789571 0.500000 0.000000
O O4 0.832267 0.378022 0.886535
O O5 0.175622 0.357308 0.120510
O O6 0.097809 0.385417 0.342679
O O7 0.000000 0.366704 0.145390
O O8 0.319121 0.374648 0.957123
O O9 0.250000 0.250000 0.000000
O O10 0.500000 0.112279 0.457600
O O11 0.597342 0.000000 0.500000
#
# Coordination Sequence:
#
# PCOD9478905 Si02
#       4
#    16  16  16  16
#     4  10  20  36  59  85 114 150 196 246 296 350
#     4  10  20  36  60  86 113 148 195 250 300 348
#     4  11  23  36  55  83 121 161 194 237 293 358
#     4  10  20  37  61  85 111 149 198 248 297 352
#
# _framework density 21.884838999999999
#
# number of rings (size 3 to 8) (size 9 to 14) (size 15 to 20)
#    0.000    1.750    0.000    7.500    0.000    7.500 
#    0.000    0.000    0.000    6.000    0.000    0.000 
#    0.000    0.000    0.000    0.000    0.000    0.000 
#
# Total GULP energy -178164.780176 kJ/mol
# GULP energy per Si atom -5567.649380 kJ/mol
# Density = 2.183503 g / cm^3
# Si number density = 21.884839 Si / 1000 Ang^3
#
#
#
# Elastic Constant Matrix: (Units=GPa)
#
#
# Indices 1 2 3 4 5 6 
#
# 1 94.3802 17.1338 1.5763 0.0000 0.0000 0.0000
# 2 17.1338 105.8925 -14.7454 0.0000 0.0000 0.0000
# 3 1.5763 -14.7454 69.2485 0.0000 0.0000 0.0000
# 4 0.0000 0.0000 0.0000 12.7161 0.0000 0.0000
# 5 0.0000 0.0000 0.0000 0.0000 12.0166 0.0000
# 6 0.0000 0.0000 0.0000 0.0000 0.0000 6.4872
#
#
#
# Elastic Compliance Matrix: (Units=1/GPa)
#
#
# Indices 1 2 3 4 5 6 
#
# 1 0.010944 -0.001861 -0.000645 0.000000 0.000000 0.000000
# 2 -0.001861 0.010048 0.002182 0.000000 0.000000 0.000000
# 3 -0.000645 0.002182 0.014920 0.000000 0.000000 0.000000
# 4 0.000000 0.000000 0.000000 0.078641 0.000000 0.000000
# 5 0.000000 0.000000 0.000000 0.000000 0.083218 0.000000
# 6 0.000000 0.000000 0.000000 0.000000 0.000000 0.154151
#
#
# Mechanical properties :
#
#
# Convention : Reuss Voigt Hill
#
# Bulk Modulus (GPa) = 28.35701 30.82784 29.59242
# Shear Modulus (GPa) = 13.72402 23.94773 18.83587
#
# Velocity S-wave (km/s) = 2.50692 3.31155 2.93692
# Velocity P-wave (km/s) = 4.62223 5.36086 5.00519
#
# Compressibility (1/GPa) = 0.03526465
#
# Stress axis : x y z
#
# Youngs Moduli (GPa) = 91.37425 99.51794 67.02381
#
# Poissons Ratio (x) = 0.18517 0.04325
# Poissons Ratio (y) = 0.17001 -0.14625
# Poissons Ratio (z) = 0.05896 -0.21715
#
# Static dielectric constant tensor:
#      x y z
#    x 1.904390 0.000000 0.000000 
#    y 0.000000 1.875290 0.000000 
#    z 0.000000 0.000000 1.888770 
# 
# From -- ./inp_files/14033.got.cif
#   From: 2010.05.17/outbox.cif.g08.bks.cpg/sg64_8_cif.got.tgz:14033.got - 2010.06.03 16:29:19.
