data_PCOD9478420
_publ_section_title
;
Structure prediction by ZEFSAII (Michael W. Deem and Ramdas Pophale) SiO2 
 PCOD9478420
Probable space group: C M C A
;
_chemical_formula_sum "Si O2"
_cell_formula_units_Z 80
_cell_length_a 15.755798
_cell_length_b 25.650300
_cell_length_c 9.798221
_cell_angle_alpha 90.000000
_cell_angle_beta 90.000000
_cell_angle_gamma 90.000000
_cell_volume 3959.862299
_symmetry_space_group_name_H-M "C M C A"
_symmetry_group_IT_number 64
_symmetry_cell_setting 'orthorhombic'
loop_
_space_group_symop_operation_xyz
x,y,z
-x,1/2-y,1/2+z
x,-y,-z
-x,1/2+y,1/2-z
-x,-y,-z
x,1/2+y,1/2-z
-x,y,z
x,1/2-y,1/2+z
1/2+x,1/2+y,z
1/2-x,-y,1/2+z
1/2+x,1/2-y,-z
1/2-x,y,1/2-z
1/2-x,1/2-y,-z
1/2+x,y,1/2-z
1/2-x,1/2+y,z
1/2+x,-y,1/2+z
loop_
_atom_site_type_symbol
_atom_site_label
_atom_site_fract_x
_atom_site_fract_y
_atom_site_fract_z
Si Si1 0.097026 0.448809 0.566223
Si Si2 0.597247 0.272460 0.920373
Si Si3 0.868014 0.856049 0.131134
Si Si4 0.170038 0.339958 0.074044
Si Si5 0.897004 0.132942 0.279897
O O1 0.138581 0.500000 0.500000
O O2 0.094888 0.404580 0.450228
O O3 0.133665 0.418091 0.696875
O O4 0.000000 0.463265 0.604014
O O5 0.500000 0.256482 0.890943
O O6 0.656205 0.222324 0.925931
O O7 0.625375 0.315574 0.809035
O O8 0.597471 0.303032 0.064141
O O9 0.879966 0.859461 0.292300
O O10 0.767712 0.853901 0.098243
O O11 0.137923 0.362134 0.931245
O O12 0.000000 0.131816 0.281840
#
# Coordination Sequence:
#
# PCOD9478420 Si02
#       5
#    16  16  16  16  16
#     4   9  19  39  62  78  99 136 179 222 272 327
#     4  10  20  34  53  76 107 149 186 217 263 320
#     4  10  22  36  51  78 111 144 178 216 270 325
#     4  11  21  33  50  79 114 144 177 219 264 318
#     4   9  19  34  55  83 107 138 185 224 262 315
#
# _framework density 20.202722000000001
#
# number of rings (size 3 to 8) (size 9 to 14) (size 15 to 20)
#    0.000    2.200    0.000    4.200    0.000    9.600 
#    0.000    5.000    0.000    3.600    0.000    0.000 
#    0.000    0.000    0.000    0.000    0.000    0.000 
#
# Total GULP energy -223308.034706 kJ/mol
# GULP energy per Si atom -5582.700868 kJ/mol
# Density = 2.015674 g / cm^3
# Si number density = 20.202722 Si / 1000 Ang^3
#
#
#
# Elastic Constant Matrix: (Units=GPa)
#
#
# Indices 1 2 3 4 5 6 
#
# 1 28.9353 7.1269 17.7064 0.0000 0.0000 0.0000
# 2 7.1269 89.9896 47.0556 0.0000 0.0000 0.0000
# 3 17.7064 47.0556 181.2085 0.0000 0.0000 0.0000
# 4 0.0000 0.0000 0.0000 -6.2207 0.0000 0.0000
# 5 0.0000 0.0000 0.0000 0.0000 26.6580 0.0000
# 6 0.0000 0.0000 0.0000 0.0000 0.0000 7.4155
#
#
#
# Elastic Compliance Matrix: (Units=1/GPa)
#
#
# Indices 1 2 3 4 5 6 
#
# 1 0.036869 -0.001199 -0.003291 0.000000 0.000000 0.000000
# 2 -0.001199 0.012897 -0.003232 0.000000 0.000000 0.000000
# 3 -0.003291 -0.003232 0.006679 0.000000 0.000000 0.000000
# 4 0.000000 0.000000 0.000000 -0.160753 0.000000 0.000000
# 5 0.000000 0.000000 0.000000 0.000000 0.037512 0.000000
# 6 0.000000 0.000000 0.000000 0.000000 0.000000 0.134853
#
#
# Mechanical properties :
#
#
# Convention : Reuss Voigt Hill
#
# Bulk Modulus (GPa) = 24.38930 49.32347 36.85638
# Shear Modulus (GPa) = 51.45608 20.78686 36.12147
#
# Velocity S-wave (km/s) = 5.05224 3.21115 4.23300
# Velocity P-wave (km/s) = 6.79206 6.18190 6.49415
#
# Compressibility (1/GPa) = 0.04100159
#
# Stress axis : x y z
#
# Youngs Moduli (GPa) = 27.12290 77.53532 149.71466
#
# Poissons Ratio (x) = 0.09296 0.49275
# Poissons Ratio (y) = 0.03252 0.48388
# Poissons Ratio (z) = 0.08927 0.25059
#
# Static dielectric constant tensor:
#      x y z
#    x 1.751610 0.000000 0.000000 
#    y 0.000000 1.699480 0.000000 
#    z 0.000000 0.000000 1.731390 
# 
# From -- ./inp_files/7075.got.cif
#   From: 2010.05.17/outbox.cif.g08.bks.cpg/sg64_4_cif.got.tgz:7075.got - 2010.06.03 16:29:19.
