data_PCOD9478836
_publ_section_title
;
Structure prediction by ZEFSAII (Michael W. Deem and Ramdas Pophale) SiO2 
 PCOD9478836
Probable space group: C M C A
;
_chemical_formula_sum "Si O2"
_cell_formula_units_Z 112
_cell_length_a 14.442614
_cell_length_b 14.199320
_cell_length_c 29.299480
_cell_angle_alpha 90.000000
_cell_angle_beta 90.000000
_cell_angle_gamma 90.000000
_cell_volume 6008.599587
_symmetry_space_group_name_H-M "C M C A"
_symmetry_group_IT_number 64
_symmetry_cell_setting 'orthorhombic'
loop_
_space_group_symop_operation_xyz
x,y,z
-x,1/2-y,1/2+z
x,-y,-z
-x,1/2+y,1/2-z
-x,-y,-z
x,1/2+y,1/2-z
-x,y,z
x,1/2-y,1/2+z
1/2+x,1/2+y,z
1/2-x,-y,1/2+z
1/2+x,1/2-y,-z
1/2-x,y,1/2-z
1/2-x,1/2-y,-z
1/2+x,y,1/2-z
1/2-x,1/2+y,z
1/2+x,-y,1/2+z
loop_
_atom_site_type_symbol
_atom_site_label
_atom_site_fract_x
_atom_site_fract_y
_atom_site_fract_z
Si Si1 0.390695 0.950253 0.454950
Si Si2 0.257399 0.203018 0.853396
Si Si3 0.246288 0.597502 0.304301
Si Si4 0.198365 0.749187 0.547999
Si Si5 0.388368 0.039971 0.646679
Si Si6 0.610630 0.546536 0.452460
Si Si7 0.389808 0.535615 0.645870
O O1 0.500000 0.965469 0.455696
O O2 0.370719 0.839368 0.454938
O O3 0.360308 0.987860 0.405514
O O4 0.351102 0.000000 0.500000
O O5 0.256519 0.297752 0.824514
O O6 0.259168 0.229691 0.907052
O O7 0.165140 0.139002 0.845415
O O8 0.343524 0.135385 0.842345
O O9 0.250000 0.598838 0.250000
O O10 0.157107 0.537498 0.320814
O O11 0.334949 0.542943 0.325387
O O12 0.250000 0.750000 0.500000
O O13 0.151368 0.850005 0.553941
O O14 0.500000 0.047519 0.650060
O O15 0.641924 0.500000 0.500000
O O16 0.500000 0.555664 0.455153
O O17 0.630614 0.484676 0.407710
O O18 0.500000 0.532885 0.652761
#
# Coordination Sequence:
#
# PCOD9478836 Si02
#       7
#    16  16  16  16  16  16  16
#     4   9  19  35  55  83 117 155 196 241 289 351
#     4  10  22  39  60  92 124 158 203 256 305 358
#     4  11  24  42  63  89 121 157 203 258 311 366
#     4  11  21  31  55  85 120 161 200 239 296 361
#     4   9  21  41  64  88 122 160 201 250 305 364
#     4  10  20  36  57  85 122 163 205 247 295 360
#     4  10  22  42  65  90 124 163 203 253 306 366
#
# _framework density 18.639951
#
# number of rings (size 3 to 8) (size 9 to 14) (size 15 to 20)
#    0.000    2.000    1.429    1.286    2.000    6.286 
#    0.000    0.714    0.000    0.000    0.000    0.000 
#    0.000    0.000    0.000    0.000    0.000    0.000 
#
# Total GULP energy -312570.079190 kJ/mol
# GULP energy per Si atom -5581.608557 kJ/mol
# Density = 1.859753 g / cm^3
# Si number density = 18.639951 Si / 1000 Ang^3
#
#
#
# Elastic Constant Matrix: (Units=GPa)
#
#
# Indices 1 2 3 4 5 6 
#
# 1 115.3546 44.3286 44.7027 0.0000 0.0000 0.0000
# 2 44.3286 138.0082 69.5667 0.0000 0.0000 0.0000
# 3 44.7027 69.5667 133.3003 0.0000 0.0000 0.0000
# 4 0.0000 0.0000 0.0000 22.5423 0.0000 0.0000
# 5 0.0000 0.0000 0.0000 0.0000 30.7262 0.0000
# 6 0.0000 0.0000 0.0000 0.0000 0.0000 27.5392
#
#
#
# Elastic Compliance Matrix: (Units=1/GPa)
#
#
# Indices 1 2 3 4 5 6 
#
# 1 0.010414 -0.002150 -0.002370 0.000000 0.000000 0.000000
# 2 -0.002150 0.010277 -0.004642 0.000000 0.000000 0.000000
# 3 -0.002370 -0.004642 0.010719 0.000000 0.000000 0.000000
# 4 0.000000 0.000000 0.000000 0.044361 0.000000 0.000000
# 5 0.000000 0.000000 0.000000 0.000000 0.032545 0.000000
# 6 0.000000 0.000000 0.000000 0.000000 0.000000 0.036312
#
#
# Mechanical properties :
#
#
# Convention : Reuss Voigt Hill
#
# Bulk Modulus (GPa) = 76.42459 78.20656 77.31558
# Shear Modulus (GPa) = 29.88388 31.36587 30.62487
#
# Velocity S-wave (km/s) = 4.00836 4.10655 4.05775
# Velocity P-wave (km/s) = 7.90646 8.03321 7.97009
#
# Compressibility (1/GPa) = 0.01308479
#
# Stress axis : x y z
#
# Youngs Moduli (GPa) = 96.02758 97.30902 93.28981
#
# Poissons Ratio (x) = 0.20923 0.22111
# Poissons Ratio (y) = 0.20648 0.43306
# Poissons Ratio (z) = 0.22760 0.45171
#
# Static dielectric constant tensor:
#      x y z
#    x 1.641420 0.000000 0.000000 
#    y 0.000000 1.612480 0.000000 
#    z 0.000000 0.000000 1.653150 
# 
# From -- ./inp_files/53261.got.cif
#   From: 2010.05.17/outbox.cif.g08.bks.cpg/sg64_27_cif.got.tgz:53261.got - 2010.06.03 16:29:19.
