data_PCOD9478706
_publ_section_title
;
Structure prediction by ZEFSAII (Michael W. Deem and Ramdas Pophale) SiO2 
 PCOD9478706
Probable space group: C M C A
;
_chemical_formula_sum "Si O2"
_cell_formula_units_Z 96
_cell_length_a 19.742815
_cell_length_b 12.069803
_cell_length_c 21.615175
_cell_angle_alpha 90.000000
_cell_angle_beta 90.000000
_cell_angle_gamma 90.000000
_cell_volume 5150.720854
_symmetry_space_group_name_H-M "C M C A"
_symmetry_group_IT_number 64
_symmetry_cell_setting 'orthorhombic'
loop_
_space_group_symop_operation_xyz
x,y,z
-x,1/2-y,1/2+z
x,-y,-z
-x,1/2+y,1/2-z
-x,-y,-z
x,1/2+y,1/2-z
-x,y,z
x,1/2-y,1/2+z
1/2+x,1/2+y,z
1/2-x,-y,1/2+z
1/2+x,1/2-y,-z
1/2-x,y,1/2-z
1/2-x,1/2-y,-z
1/2+x,y,1/2-z
1/2-x,1/2+y,z
1/2+x,-y,1/2+z
loop_
_atom_site_type_symbol
_atom_site_label
_atom_site_fract_x
_atom_site_fract_y
_atom_site_fract_z
Si Si1 0.419817 0.781269 0.105617
Si Si2 0.688294 0.841121 0.826768
Si Si3 0.923689 0.130647 0.985359
Si Si4 0.825438 0.605403 0.624949
Si Si5 0.847698 0.114849 0.194019
Si Si6 0.680396 0.979842 0.073693
O O1 0.500000 0.802413 0.111111
O O2 0.391833 0.712121 0.163952
O O3 0.376786 0.891311 0.092603
O O4 0.408584 0.700563 0.046581
O O5 0.680253 0.709562 0.829938
O O6 0.768478 0.860525 0.818413
O O7 0.648141 0.889805 0.768083
O O8 0.668640 0.906158 0.888994
O O9 0.869888 0.147189 0.932086
O O10 0.000000 0.159137 0.965090
O O11 0.921921 0.000000 0.000000
O O12 0.859835 0.501326 0.659299
O O13 0.752428 0.568278 0.598155
O O14 0.682429 0.000000 0.000000
#
# Coordination Sequence:
#
# PCOD9478706 Si02
#       6
#    16  16  16  16  16  16
#     4  11  23  41  63  88 130 171 205 255 314 377
#     4  10  23  38  62  92 124 160 205 262 310 373
#     4  10  20  35  58  90 123 159 203 254 312 361
#     4  11  21  37  65  92 126 158 207 266 302 367
#     4  10  22  38  60  91 120 164 210 251 313 362
#     4  11  24  39  63  98 128 162 210 255 321 374
#
# _framework density 18.638168
#
# number of rings (size 3 to 8) (size 9 to 14) (size 15 to 20)
#    0.000    1.500    3.333    1.500    4.667    3.000 
#    0.000    2.500    0.000    0.000    0.000    0.000 
#    0.000    0.000    0.000    0.000    0.000    0.000 
#
# Total GULP energy -267948.591801 kJ/mol
# GULP energy per Si atom -5582.262329 kJ/mol
# Density = 1.859575 g / cm^3
# Si number density = 18.638168 Si / 1000 Ang^3
#
#
#
# Elastic Constant Matrix: (Units=GPa)
#
#
# Indices 1 2 3 4 5 6 
#
# 1 43.6289 12.1477 32.1580 0.0000 0.0000 0.0000
# 2 12.1477 86.0992 27.8172 0.0000 0.0000 0.0000
# 3 32.1580 27.8172 105.2010 0.0000 0.0000 0.0000
# 4 0.0000 0.0000 0.0000 19.2028 0.0000 0.0000
# 5 0.0000 0.0000 0.0000 0.0000 22.0702 0.0000
# 6 0.0000 0.0000 0.0000 0.0000 0.0000 21.4044
#
#
#
# Elastic Compliance Matrix: (Units=1/GPa)
#
#
# Indices 1 2 3 4 5 6 
#
# 1 0.029735 -0.001376 -0.008726 0.000000 0.000000 0.000000
# 2 -0.001376 0.012763 -0.002954 0.000000 0.000000 0.000000
# 3 -0.008726 -0.002954 0.012954 0.000000 0.000000 0.000000
# 4 0.000000 0.000000 0.000000 0.052076 0.000000 0.000000
# 5 0.000000 0.000000 0.000000 0.000000 0.045310 0.000000
# 6 0.000000 0.000000 0.000000 0.000000 0.000000 0.046719
#
#
# Mechanical properties :
#
#
# Convention : Reuss Voigt Hill
#
# Bulk Modulus (GPa) = 34.08266 42.13053 38.10659
# Shear Modulus (GPa) = 21.23596 23.38921 22.31259
#
# Velocity S-wave (km/s) = 3.37913 3.54631 3.46373
# Velocity P-wave (km/s) = 5.79231 6.27869 6.04040
#
# Compressibility (1/GPa) = 0.02934044
#
# Stress axis : x y z
#
# Youngs Moduli (GPa) = 33.63012 78.35082 77.19622
#
# Poissons Ratio (x) = 0.10783 0.67358
# Poissons Ratio (y) = 0.04628 0.22805
# Poissons Ratio (z) = 0.29344 0.23146
#
# Static dielectric constant tensor:
#      x y z
#    x 1.625040 0.000000 0.000000 
#    y 0.000000 1.660320 0.000000 
#    z 0.000000 0.000000 1.652210 
# 
# From -- ./inp_files/40847.got.cif
#   From: 2010.05.17/outbox.cif.g08.bks.cpg/sg64_21_cif.got.tgz:40847.got - 2010.06.03 16:29:19.
