data_PCOD9478808
_publ_section_title
;
Structure prediction by ZEFSAII (Michael W. Deem and Ramdas Pophale) SiO2 
 PCOD9478808
Probable space group: C M C A
;
_chemical_formula_sum "Si O2"
_cell_formula_units_Z 116
_cell_length_a 7.907597
_cell_length_b 24.938476
_cell_length_c 26.578849
_cell_angle_alpha 90.000000
_cell_angle_beta 90.000000
_cell_angle_gamma 90.000000
_cell_volume 5241.439869
_symmetry_space_group_name_H-M "C M C A"
_symmetry_group_IT_number 64
_symmetry_cell_setting 'orthorhombic'
loop_
_space_group_symop_operation_xyz
x,y,z
-x,1/2-y,1/2+z
x,-y,-z
-x,1/2+y,1/2-z
-x,-y,-z
x,1/2+y,1/2-z
-x,y,z
x,1/2-y,1/2+z
1/2+x,1/2+y,z
1/2-x,-y,1/2+z
1/2+x,1/2-y,-z
1/2-x,y,1/2-z
1/2-x,1/2-y,-z
1/2+x,y,1/2-z
1/2-x,1/2+y,z
1/2+x,-y,1/2+z
loop_
_atom_site_type_symbol
_atom_site_label
_atom_site_fract_x
_atom_site_fract_y
_atom_site_fract_z
Si Si1 0.708346 0.022576 0.583253
Si Si2 0.296017 0.115986 0.172340
Si Si3 0.500000 0.500000 0.500000
Si Si4 0.690756 0.141232 0.059881
Si Si5 0.298881 0.262940 0.695581
Si Si6 0.813744 0.746894 0.911938
Si Si7 0.813288 0.641067 0.546627
Si Si8 0.309677 0.502048 0.195613
O O1 0.500000 0.010035 0.576436
O O2 0.845393 0.998305 0.544078
O O3 0.724761 0.086581 0.575092
O O4 0.765560 0.011022 0.640777
O O5 0.500000 0.110905 0.177918
O O6 0.257122 0.115934 0.112730
O O7 0.244051 0.174466 0.192162
O O8 0.204196 0.066590 0.197453
O O9 0.500000 0.124154 0.047299
O O10 0.693568 0.205408 0.069660
O O11 0.802506 0.128150 0.012272
O O12 0.500000 0.261959 0.689970
O O13 0.250000 0.241221 0.750000
O O14 0.220730 0.235442 0.646662
O O15 0.801289 0.692078 0.942157
O O16 0.000000 0.770435 0.917685
O O17 0.000000 0.659611 0.560877
O O18 0.500000 0.483346 0.190969
O O19 0.250000 0.481672 0.250000
#
# Coordination Sequence:
#
# PCOD9478808 Si02
#       8
#    16  16   4  16  16  16  16  16
#     4  10  27  46  67 102 132 173 220 272 337 394
#     4   9  20  35  57  88 121 158 203 248 309 382
#     4  12  26  44  80  94 140 168 214 282 328 406
#     4  10  21  36  58  89 123 160 205 248 308 378
#     4  10  20  36  56  83 117 153 197 248 304 362
#     4  11  22  37  58  85 118 158 205 245 302 372
#     4  11  23  41  61  84 124 161 203 258 311 374
#     4  11  24  42  64  91 128 168 217 270 325 395
#
# _framework density 22.131322999999998
#
# number of rings (size 3 to 8) (size 9 to 14) (size 15 to 20)
#    0.000    1.655    0.000    4.759    5.793    4.414 
#    0.000    0.690    0.000    1.655    0.000    0.000 
#    0.000    0.000    0.000    0.000    0.000    0.000 
#
# Total GULP energy -323360.834667 kJ/mol
# GULP energy per Si atom -5575.186805 kJ/mol
# Density = 2.208095 g / cm^3
# Si number density = 22.131323 Si / 1000 Ang^3
#
#
#
# Elastic Constant Matrix: (Units=GPa)
#
#
# Indices 1 2 3 4 5 6 
#
# 1 68.6243 7.8660 30.7159 0.0000 0.0000 0.0000
# 2 7.8660 32.4421 16.4081 0.0000 0.0000 0.0000
# 3 30.7159 16.4081 161.5729 0.0000 0.0000 0.0000
# 4 0.0000 0.0000 0.0000 12.7113 0.0000 0.0000
# 5 0.0000 0.0000 0.0000 0.0000 19.4916 0.0000
# 6 0.0000 0.0000 0.0000 0.0000 0.0000 13.4243
#
#
#
# Elastic Compliance Matrix: (Units=1/GPa)
#
#
# Indices 1 2 3 4 5 6 
#
# 1 0.016115 -0.002486 -0.002811 0.000000 0.000000 0.000000
# 2 -0.002486 0.032876 -0.002866 0.000000 0.000000 0.000000
# 3 -0.002811 -0.002866 0.007015 0.000000 0.000000 0.000000
# 4 0.000000 0.000000 0.000000 0.078670 0.000000 0.000000
# 5 0.000000 0.000000 0.000000 0.000000 0.051304 0.000000
# 6 0.000000 0.000000 0.000000 0.000000 0.000000 0.074492
#
#
# Mechanical properties :
#
#
# Convention : Reuss Voigt Hill
#
# Bulk Modulus (GPa) = 25.20126 41.40214 33.30170
# Shear Modulus (GPa) = 17.23988 22.96872 20.10430
#
# Velocity S-wave (km/s) = 2.79405 3.22504 3.01725
# Velocity P-wave (km/s) = 4.67128 5.71104 5.21713
#
# Compressibility (1/GPa) = 0.03968055
#
# Stress axis : x y z
#
# Youngs Moduli (GPa) = 62.05298 30.41692 142.55887
#
# Poissons Ratio (x) = 0.07560 0.40076
# Poissons Ratio (y) = 0.15424 0.40860
# Poissons Ratio (z) = 0.17444 0.08718
#
# Static dielectric constant tensor:
#      x y z
#    x 1.182830 0.000000 0.000000 
#    y 0.000000 1.796990 0.000000 
#    z 0.000000 0.000000 1.869310 
# 
# From -- ./inp_files/48539.got.cif
#   From: 2010.05.17/outbox.cif.g08.bks.cpg/sg64_25_cif.got.tgz:48539.got - 2010.06.03 16:29:19.
