data_PCOD9478199
_publ_section_title
;
Structure prediction by ZEFSAII (Michael W. Deem and Ramdas Pophale) SiO2 
 PCOD9478199
Probable space group: C M C A
;
_chemical_formula_sum "Si O2"
_cell_formula_units_Z 104
_cell_length_a 26.470912
_cell_length_b 8.764379
_cell_length_c 23.047144
_cell_angle_alpha 90.000000
_cell_angle_beta 90.000000
_cell_angle_gamma 90.000000
_cell_volume 5346.962881
_symmetry_space_group_name_H-M "C M C A"
_symmetry_group_IT_number 64
_symmetry_cell_setting 'orthorhombic'
loop_
_space_group_symop_operation_xyz
x,y,z
-x,1/2-y,1/2+z
x,-y,-z
-x,1/2+y,1/2-z
-x,-y,-z
x,1/2+y,1/2-z
-x,y,z
x,1/2-y,1/2+z
1/2+x,1/2+y,z
1/2-x,-y,1/2+z
1/2+x,1/2-y,-z
1/2-x,y,1/2-z
1/2-x,1/2-y,-z
1/2+x,y,1/2-z
1/2-x,1/2+y,z
1/2+x,-y,1/2+z
loop_
_atom_site_type_symbol
_atom_site_label
_atom_site_fract_x
_atom_site_fract_y
_atom_site_fract_z
Si Si1 0.559241 0.571893 0.092359
Si Si2 0.750000 0.534932 0.750000
Si Si3 0.602924 0.273885 0.315542
Si Si4 0.440153 0.747779 0.974959
Si Si5 0.500000 0.167544 0.172523
Si Si6 0.322426 0.277779 0.706710
Si Si7 0.000000 0.894105 0.256941
Si Si8 0.393888 0.580215 0.382914
O O1 0.500000 0.599153 0.104263
O O2 0.591752 0.621572 0.147660
O O3 0.564629 0.401572 0.066978
O O4 0.571763 0.686686 0.039047
O O5 0.717323 0.640248 0.792889
O O6 0.710748 0.428131 0.717011
O O7 0.641765 0.246349 0.263156
O O8 0.550764 0.332168 0.286792
O O9 0.618328 0.410318 0.359931
O O10 0.500000 0.792245 0.974768
O O11 0.402691 0.875512 0.949704
O O12 0.500000 0.342236 0.190645
O O13 0.549871 0.117534 0.140446
O O14 0.500000 0.073847 0.232728
O O15 0.356169 0.306020 0.650415
#
# Coordination Sequence:
#
# PCOD9478199 Si02
#       8
#    16   8  16  16   8  16   8  16
#     4   9  19  34  51  76 114 155 189 219 255 309
#     4  10  24  42  56  76 110 138 180 242 284 334
#     4  11  21  33  52  82 111 149 181 219 263 331
#     4   9  19  34  51  76 114 155 189 219 255 309
#     4  10  20  30  43  74 117 143 176 206 256 317
#     4  11  22  39  58  82 108 141 182 227 288 332
#     4  10  20  30  43  74 117 143 176 206 256 317
#     4  11  21  33  52  82 111 149 181 219 263 331
#
# _framework density 19.450295000000001
#
# number of rings (size 3 to 8) (size 9 to 14) (size 15 to 20)
#    0.000    1.846    4.615    0.923    2.154    1.846 
#    0.000    1.538    0.000    0.000    0.000    6.462 
#    0.000    0.000    0.000    0.000    0.000    0.000 
#
# Total GULP energy -290269.274664 kJ/mol
# GULP energy per Si atom -5582.101436 kJ/mol
# Density = 1.940602 g / cm^3
# Si number density = 19.450295 Si / 1000 Ang^3
#
#
#
# Elastic Constant Matrix: (Units=GPa)
#
#
# Indices 1 2 3 4 5 6 
#
# 1 84.7787 28.5653 20.4483 0.0000 0.0000 0.0000
# 2 28.5653 58.4446 24.0192 0.0000 0.0000 0.0000
# 3 20.4483 24.0192 60.9563 0.0000 0.0000 0.0000
# 4 0.0000 0.0000 0.0000 33.3082 0.0000 0.0000
# 5 0.0000 0.0000 0.0000 0.0000 -7.2274 0.0000
# 6 0.0000 0.0000 0.0000 0.0000 0.0000 24.1080
#
#
#
# Elastic Compliance Matrix: (Units=1/GPa)
#
#
# Indices 1 2 3 4 5 6 
#
# 1 0.014423 -0.006039 -0.002459 0.000000 0.000000 0.000000
# 2 -0.006039 0.022945 -0.007015 0.000000 0.000000 0.000000
# 3 -0.002459 -0.007015 0.019994 0.000000 0.000000 0.000000
# 4 0.000000 0.000000 0.000000 0.030023 0.000000 0.000000
# 5 0.000000 0.000000 0.000000 0.000000 -0.138361 0.000000
# 6 0.000000 0.000000 0.000000 0.000000 0.000000 0.041480
#
#
# Mechanical properties :
#
#
# Convention : Reuss Voigt Hill
#
# Bulk Modulus (GPa) = 37.97053 38.91613 38.44333
# Shear Modulus (GPa) = 164.96819 18.78087 91.87453
#
# Velocity S-wave (km/s) = 9.21951 3.11075 6.88027
# Velocity P-wave (km/s) = 11.52808 5.74054 9.10633
#
# Compressibility (1/GPa) = 0.02633622
#
# Stress axis : x y z
#
# Youngs Moduli (GPa) = 69.33258 43.58254 50.01409
#
# Poissons Ratio (x) = 0.26319 0.12297
# Poissons Ratio (y) = 0.41870 0.35087
# Poissons Ratio (z) = 0.17048 0.30575
#
# Static dielectric constant tensor:
#      x y z
#    x 1.650290 0.000000 0.000000 
#    y 0.000000 1.748340 0.000000 
#    z 0.000000 0.000000 1.727620 
# 
# From -- ./inp_files/46917.got.cif
#   From: 2010.05.17/outbox.cif.g08.bks.cpg/sg64_24_cif.got.tgz:46917.got - 2010.06.03 16:29:19.
