data_PCOD9478106
_publ_section_title
;
Structure prediction by ZEFSAII (Michael W. Deem and Ramdas Pophale) SiO2 
 PCOD9478106
Probable space group: C M C A
;
_chemical_formula_sum "Si O2"
_cell_formula_units_Z 112
_cell_length_a 30.304787
_cell_length_b 11.512083
_cell_length_c 17.890304
_cell_angle_alpha 90.000000
_cell_angle_beta 90.000000
_cell_angle_gamma 90.000000
_cell_volume 6241.412241
_symmetry_space_group_name_H-M "C M C A"
_symmetry_group_IT_number 64
_symmetry_cell_setting 'orthorhombic'
loop_
_space_group_symop_operation_xyz
x,y,z
-x,1/2-y,1/2+z
x,-y,-z
-x,1/2+y,1/2-z
-x,-y,-z
x,1/2+y,1/2-z
-x,y,z
x,1/2-y,1/2+z
1/2+x,1/2+y,z
1/2-x,-y,1/2+z
1/2+x,1/2-y,-z
1/2-x,y,1/2-z
1/2-x,1/2-y,-z
1/2+x,y,1/2-z
1/2-x,1/2+y,z
1/2+x,-y,1/2+z
loop_
_atom_site_type_symbol
_atom_site_label
_atom_site_fract_x
_atom_site_fract_y
_atom_site_fract_z
Si Si1 0.878187 0.237781 0.966451
Si Si2 0.622632 0.129433 0.827243
Si Si3 0.318839 0.957238 0.922037
Si Si4 0.343379 0.093710 0.662340
Si Si5 0.828889 0.833353 0.887471
Si Si6 0.447969 0.117365 0.950556
Si Si7 0.736166 0.279677 0.664662
O O1 0.854048 0.357108 0.942655
O O2 0.877369 0.151654 0.896464
O O3 0.848047 0.178909 0.029812
O O4 0.923593 0.278961 0.004327
O O5 0.633012 0.090909 0.743175
O O6 0.637369 0.263244 0.834196
O O7 0.576145 0.110185 0.869534
O O8 0.655877 0.060069 0.881402
O O9 0.285584 0.897000 0.865784
O O10 0.298446 0.000000 0.000000
O O11 0.300088 0.177441 0.660594
O O12 0.328000 0.966107 0.638148
O O13 0.781525 0.770371 0.881241
O O14 0.500000 0.135527 0.942775
O O15 0.441250 0.000000 0.000000
O O16 0.750000 0.291294 0.750000
#
# Coordination Sequence:
#
# PCOD9478106 Si02
#       7
#    16  16  16  16  16  16  16
#     4  10  21  41  59  88 122 160 200 251 315 359
#     4  11  21  39  60  88 123 158 198 255 314 355
#     4  11  20  37  61  82 114 161 201 254 301 356
#     4  11  25  37  60  84 124 171 205 251 310 368
#     4  11  23  38  58  85 118 165 213 252 291 364
#     4  10  19  37  70  99 118 148 202 258 305 375
#     4  11  24  38  55  86 121 164 214 258 297 343
#
# _framework density 17.944655999999998
#
# number of rings (size 3 to 8) (size 9 to 14) (size 15 to 20)
#    0.000    1.286    5.714    1.286    4.000    4.000 
#    0.000    0.714    0.000   12.000    0.000    0.000 
#    0.000    0.000    0.000    0.000    0.000    0.000 
#
# Total GULP energy -312467.047547 kJ/mol
# GULP energy per Si atom -5579.768706 kJ/mol
# Density = 1.790381 g / cm^3
# Si number density = 17.944656 Si / 1000 Ang^3
#
#
#
# Elastic Constant Matrix: (Units=GPa)
#
#
# Indices 1 2 3 4 5 6 
#
# 1 119.5281 34.6635 50.8541 0.0000 0.0000 0.0000
# 2 34.6635 85.6060 45.3356 0.0000 0.0000 0.0000
# 3 50.8541 45.3356 117.2784 0.0000 0.0000 0.0000
# 4 0.0000 0.0000 0.0000 23.1026 0.0000 0.0000
# 5 0.0000 0.0000 0.0000 0.0000 -28.3304 0.0000
# 6 0.0000 0.0000 0.0000 0.0000 0.0000 18.1756
#
#
#
# Elastic Compliance Matrix: (Units=1/GPa)
#
#
# Indices 1 2 3 4 5 6 
#
# 1 0.010619 -0.002340 -0.003700 0.000000 0.000000 0.000000
# 2 -0.002340 0.015204 -0.004863 0.000000 0.000000 0.000000
# 3 -0.003700 -0.004863 0.012011 0.000000 0.000000 0.000000
# 4 0.000000 0.000000 0.000000 0.043285 0.000000 0.000000
# 5 0.000000 0.000000 0.000000 0.000000 -0.035298 0.000000
# 6 0.000000 0.000000 0.000000 0.000000 0.000000 0.055019
#
#
# Mechanical properties :
#
#
# Convention : Reuss Voigt Hill
#
# Bulk Modulus (GPa) = 62.38971 64.90210 63.64591
# Shear Modulus (GPa) = 39.06593 15.36020 27.21306
#
# Velocity S-wave (km/s) = 4.67092 2.92888 3.89845
# Velocity P-wave (km/s) = 7.99583 6.90538 7.47053
#
# Compressibility (1/GPa) = 0.01602828
#
# Stress axis : x y z
#
# Youngs Moduli (GPa) = 94.16967 65.77113 83.25875
#
# Poissons Ratio (x) = 0.15393 0.30805
# Poissons Ratio (y) = 0.22040 0.40485
# Poissons Ratio (z) = 0.34842 0.31981
#
# Static dielectric constant tensor:
#      x y z
#    x 1.613680 0.000000 0.000000 
#    y 0.000000 1.628420 0.000000 
#    z 0.000000 0.000000 1.642060 
# 
# From -- ./inp_files/28379.got.cif
#   From: 2010.05.17/outbox.cif.g08.bks.cpg/sg64_15_cif.got.tgz:28379.got - 2010.06.03 16:29:19.
