data_PCOD9478062
_publ_section_title
;
Structure prediction by ZEFSAII (Michael W. Deem and Ramdas Pophale) SiO2 
 PCOD9478062
Probable space group: C M C A
;
_chemical_formula_sum "Si O2"
_cell_formula_units_Z 72
_cell_length_a 21.846050
_cell_length_b 13.387171
_cell_length_c 13.782315
_cell_angle_alpha 90.000000
_cell_angle_beta 90.000000
_cell_angle_gamma 90.000000
_cell_volume 4030.731838
_symmetry_space_group_name_H-M "C M C A"
_symmetry_group_IT_number 64
_symmetry_cell_setting 'orthorhombic'
loop_
_space_group_symop_operation_xyz
x,y,z
-x,1/2-y,1/2+z
x,-y,-z
-x,1/2+y,1/2-z
-x,-y,-z
x,1/2+y,1/2-z
-x,y,z
x,1/2-y,1/2+z
1/2+x,1/2+y,z
1/2-x,-y,1/2+z
1/2+x,1/2-y,-z
1/2-x,y,1/2-z
1/2-x,1/2-y,-z
1/2+x,y,1/2-z
1/2-x,1/2+y,z
1/2+x,-y,1/2+z
loop_
_atom_site_type_symbol
_atom_site_label
_atom_site_fract_x
_atom_site_fract_y
_atom_site_fract_z
Si Si1 0.788085 0.846251 0.612019
Si Si2 0.643091 0.168034 0.713990
Si Si3 0.250000 0.519441 0.750000
Si Si4 0.660268 0.231787 0.923476
Si Si5 0.071809 0.613375 0.532008
O O1 0.831627 0.773270 0.673965
O O2 0.721673 0.792953 0.605279
O O3 0.816905 0.846603 0.504740
O O4 0.779109 0.949070 0.667857
O O5 0.698449 0.089494 0.703967
O O6 0.632209 0.181807 0.828041
O O7 0.589176 0.131112 0.644586
O O8 0.613410 0.309454 0.971841
O O9 0.086227 0.500000 0.500000
O O10 0.000000 0.630616 0.515581
#
# Coordination Sequence:
#
# PCOD9478062 Si02
#       5
#    16  16   8  16  16
#     4  10  20  33  51  87 119 147 187 225 294 359
#     4  11  21  36  56  88 117 150 193 235 292 352
#     4  12  18  32  56  84 124 152 176 232 292 356
#     4  10  19  37  55  80 121 147 188 243 286 351
#     4  10  23  40  60  84 110 155 209 245 286 346
#
# _framework density 17.862760999999999
#
# number of rings (size 3 to 8) (size 9 to 14) (size 15 to 20)
#    0.000    1.556    4.444    1.333    0.000    1.778 
#    0.000    0.000    0.000    0.000    0.000    4.667 
#    0.000    0.000    0.000    0.000    0.000    0.000 
#
# Total GULP energy -200985.709360 kJ/mol
# GULP energy per Si atom -5582.936371 kJ/mol
# Density = 1.782210 g / cm^3
# Si number density = 17.862761 Si / 1000 Ang^3
#
#
#
# Elastic Constant Matrix: (Units=GPa)
#
#
# Indices 1 2 3 4 5 6 
#
# 1 43.6233 5.7312 12.5700 0.0000 0.0000 0.0000
# 2 5.7312 56.0163 24.2704 0.0000 0.0000 0.0000
# 3 12.5700 24.2704 124.0322 0.0000 0.0000 0.0000
# 4 0.0000 0.0000 0.0000 21.5516 0.0000 0.0000
# 5 0.0000 0.0000 0.0000 0.0000 7.9039 0.0000
# 6 0.0000 0.0000 0.0000 0.0000 0.0000 23.3980
#
#
#
# Elastic Compliance Matrix: (Units=1/GPa)
#
#
# Indices 1 2 3 4 5 6 
#
# 1 0.023730 -0.001514 -0.002109 0.000000 0.000000 0.000000
# 2 -0.001514 0.019602 -0.003682 0.000000 0.000000 0.000000
# 3 -0.002109 -0.003682 0.008997 0.000000 0.000000 0.000000
# 4 0.000000 0.000000 0.000000 0.046400 0.000000 0.000000
# 5 0.000000 0.000000 0.000000 0.000000 0.126520 0.000000
# 6 0.000000 0.000000 0.000000 0.000000 0.000000 0.042739
#
#
# Mechanical properties :
#
#
# Convention : Reuss Voigt Hill
#
# Bulk Modulus (GPa) = 26.51204 34.31276 30.41240
# Shear Modulus (GPa) = 16.93933 22.64406 19.79170
#
# Velocity S-wave (km/s) = 3.08280 3.56430 3.33225
# Velocity P-wave (km/s) = 5.24841 6.01579 5.64515
#
# Compressibility (1/GPa) = 0.03771871
#
# Stress axis : x y z
#
# Youngs Moduli (GPa) = 42.14065 51.01436 111.15236
#
# Poissons Ratio (x) = 0.07725 0.23437
# Poissons Ratio (y) = 0.06381 0.40929
# Poissons Ratio (z) = 0.08886 0.18785
#
# Static dielectric constant tensor:
#      x y z
#    x 1.568440 0.000000 0.000000 
#    y 0.000000 1.596050 0.000000 
#    z 0.000000 0.000000 1.654600 
# 
# From -- ./inp_files/27002.got.cif
#   From: 2010.05.17/outbox.cif.g08.bks.cpg/sg64_14_cif.got.tgz:27002.got - 2010.06.03 16:29:19.
