data_PCOD9478118
_publ_section_title
;
Structure prediction by ZEFSAII (Michael W. Deem and Ramdas Pophale) SiO2 
 PCOD9478118
Probable space group: C M C A
;
_chemical_formula_sum "Si O2"
_cell_formula_units_Z 104
_cell_length_a 18.290432
_cell_length_b 7.788100
_cell_length_c 27.903770
_cell_angle_alpha 90.000000
_cell_angle_beta 90.000000
_cell_angle_gamma 90.000000
_cell_volume 3974.828233
_symmetry_space_group_name_H-M "C M C A"
_symmetry_group_IT_number 64
_symmetry_cell_setting 'orthorhombic'
loop_
_space_group_symop_operation_xyz
x,y,z
-x,1/2-y,1/2+z
x,-y,-z
-x,1/2+y,1/2-z
-x,-y,-z
x,1/2+y,1/2-z
-x,y,z
x,1/2-y,1/2+z
1/2+x,1/2+y,z
1/2-x,-y,1/2+z
1/2+x,1/2-y,-z
1/2-x,y,1/2-z
1/2-x,1/2-y,-z
1/2+x,y,1/2-z
1/2-x,1/2+y,z
1/2+x,-y,1/2+z
loop_
_atom_site_type_symbol
_atom_site_label
_atom_site_fract_x
_atom_site_fract_y
_atom_site_fract_z
Si Si1 0.335628 0.252198 0.012129
Si Si2 0.103964 0.363130 0.844869
Si Si3 0.500000 0.661972 0.252150
Si Si4 0.914963 0.437436 0.064660
Si Si5 0.767751 0.161243 0.805332
Si Si6 0.630155 0.668612 0.173803
Si Si7 0.081203 0.961847 0.085754
O O1 0.359454 0.409581 0.045974
O O2 0.362300 0.088667 0.043833
O O3 0.250000 0.250000 0.000000
O O4 0.382711 0.225812 0.963740
O O5 0.062141 0.364744 0.794461
O O6 0.086450 0.523096 0.878956
O O7 0.186071 0.309585 0.831505
O O8 0.078067 0.201157 0.877450
O O9 0.564597 0.687710 0.211482
O O10 0.000000 0.455770 0.050876
O O11 0.750000 0.193441 0.750000
O O12 0.687441 0.175806 0.827466
O O13 0.819259 0.994804 0.809612
O O14 0.599952 0.612887 0.122421
O O15 0.000000 0.981593 0.064729
#
# Coordination Sequence:
#
# PCOD9478118 Si02
#       7
#    16  16   8  16  16  16  16
#     4  10  20  32  57  94 127 157 212 272 327 390
#     4  10  20  35  64  89 127 163 222 272 330 391
#     4  12  20  40  62  97 118 171 222 275 316 403
#     4  10  19  38  61  90 120 168 213 270 325 394
#     4  11  23  40  58  92 127 174 207 274 337 392
#     4  11  25  40  66  90 131 168 226 270 334 402
#     4  10  19  38  60  93 124 172 215 277 340 397
#
# _framework density 26.164652
#
# number of rings (size 3 to 8) (size 9 to 14) (size 15 to 20)
#    0.000    1.538    3.846    3.231    2.154    0.000 
#    0.000    0.000    0.000    0.000    0.000   23.692 
#    0.000    0.000    0.000    0.000    0.000    0.000 
#
# Total GULP energy -290024.571203 kJ/mol
# GULP energy per Si atom -5577.395600 kJ/mol
# Density = 2.610510 g / cm^3
# Si number density = 26.164652 Si / 1000 Ang^3
#
#
#
# Elastic Constant Matrix: (Units=GPa)
#
#
# Indices 1 2 3 4 5 6 
#
# 1 271.6360 19.9995 89.1367 0.0000 0.0000 0.0000
# 2 19.9995 104.3069 1.7604 0.0000 0.0000 0.0000
# 3 89.1367 1.7604 155.4994 0.0000 0.0000 0.0000
# 4 0.0000 0.0000 0.0000 -35.2535 0.0000 0.0000
# 5 0.0000 0.0000 0.0000 0.0000 66.7006 0.0000
# 6 0.0000 0.0000 0.0000 0.0000 0.0000 10.6517
#
#
#
# Elastic Compliance Matrix: (Units=1/GPa)
#
#
# Indices 1 2 3 4 5 6 
#
# 1 0.004607 -0.000839 -0.002631 0.000000 0.000000 0.000000
# 2 -0.000839 0.009742 0.000371 0.000000 0.000000 0.000000
# 3 -0.002631 0.000371 0.007935 0.000000 0.000000 0.000000
# 4 0.000000 0.000000 0.000000 -0.028366 0.000000 0.000000
# 5 0.000000 0.000000 0.000000 0.000000 0.014992 0.000000
# 6 0.000000 0.000000 0.000000 0.000000 0.000000 0.093881
#
#
# Mechanical properties :
#
#
# Convention : Reuss Voigt Hill
#
# Bulk Modulus (GPa) = 62.17212 83.69284 72.93248
# Shear Modulus (GPa) = 43.72501 36.45616 40.09058
#
# Velocity S-wave (km/s) = 4.09240 3.73679 3.91863
# Velocity P-wave (km/s) = 6.79292 7.11861 6.95767
#
# Compressibility (1/GPa) = 0.01608438
#
# Stress axis : x y z
#
# Youngs Moduli (GPa) = 217.08215 102.65172 126.02507
#
# Poissons Ratio (x) = 0.08611 0.33159
# Poissons Ratio (y) = 0.18210 -0.04670
# Poissons Ratio (z) = 0.57117 -0.03804
#
# Static dielectric constant tensor:
#      x y z
#    x 1.949410 0.000000 0.000000 
#    y 0.000000 2.349840 0.000000 
#    z 0.000000 0.000000 2.005990 
# 
# From -- ./inp_files/50424.got.cif
#   From: 2010.05.17/outbox.cif.g08.bks.cpg/sg64_26_cif.got.tgz:50424.got - 2010.06.03 16:29:19.
