data_PCOD9478803
_publ_section_title
;
Structure prediction by ZEFSAII (Michael W. Deem and Ramdas Pophale) SiO2 
 PCOD9478803
Probable space group: C M C A
;
_chemical_formula_sum "Si O2"
_cell_formula_units_Z 96
_cell_length_a 8.789244
_cell_length_b 19.738863
_cell_length_c 31.366695
_cell_angle_alpha 90.000000
_cell_angle_beta 90.000000
_cell_angle_gamma 90.000000
_cell_volume 5441.797978
_symmetry_space_group_name_H-M "C M C A"
_symmetry_group_IT_number 64
_symmetry_cell_setting 'orthorhombic'
loop_
_space_group_symop_operation_xyz
x,y,z
-x,1/2-y,1/2+z
x,-y,-z
-x,1/2+y,1/2-z
-x,-y,-z
x,1/2+y,1/2-z
-x,y,z
x,1/2-y,1/2+z
1/2+x,1/2+y,z
1/2-x,-y,1/2+z
1/2+x,1/2-y,-z
1/2-x,y,1/2-z
1/2-x,1/2-y,-z
1/2+x,y,1/2-z
1/2-x,1/2+y,z
1/2+x,-y,1/2+z
loop_
_atom_site_type_symbol
_atom_site_label
_atom_site_fract_x
_atom_site_fract_y
_atom_site_fract_z
Si Si1 0.818115 0.595411 0.390621
Si Si2 0.817608 0.959140 0.363010
Si Si3 0.182122 0.346313 0.203340
Si Si4 0.181611 0.576881 0.015638
Si Si5 0.683328 0.249526 0.373431
Si Si6 0.681624 0.859294 0.433755
O O1 0.742309 0.535198 0.363869
O O2 0.758013 0.588386 0.438819
O O3 0.780043 0.670457 0.374167
O O4 0.000000 0.587408 0.390053
O O5 0.777794 0.916381 0.320808
O O6 0.743816 0.918516 0.402527
O O7 0.000000 0.957605 0.368452
O O8 0.250000 0.340508 0.250000
O O9 0.228883 0.287115 0.170346
O O10 0.000000 0.343873 0.206689
O O11 0.000000 0.584864 0.019081
O O12 0.212323 0.500000 0.000000
O O13 0.248216 0.626878 0.979993
O O14 0.500000 0.257335 0.377924
O O15 0.761324 0.290040 0.412024
O O16 0.500000 0.861532 0.435498
#
# Coordination Sequence:
#
# PCOD9478803 Si02
#       6
#    16  16  16  16  16  16
#     4  11  22  36  57  83 111 146 189 234 273 324
#     4  10  20  36  56  80 113 146 177 223 279 327
#     4   9  19  37  61  84 108 140 179 221 271 332
#     4  11  22  35  54  78 111 153 189 231 282 326
#     4   9  21  40  57  79 115 150 179 224 285 332
#     4  11  21  34  56  82 107 144 194 235 266 319
#
# _framework density 17.641228000000002
#
# number of rings (size 3 to 8) (size 9 to 14) (size 15 to 20)
#    0.000    1.833    1.667    4.000    0.000    6.000 
#    0.000    0.833    0.000    4.000    0.000    0.000 
#    0.000    0.000    0.000    0.000    0.000    0.000 
#
# Total GULP energy -268088.408429 kJ/mol
# GULP energy per Si atom -5585.175176 kJ/mol
# Density = 1.760108 g / cm^3
# Si number density = 17.641228 Si / 1000 Ang^3
#
#
#
# Elastic Constant Matrix: (Units=GPa)
#
#
# Indices 1 2 3 4 5 6 
#
# 1 47.9516 48.9629 30.4566 0.0000 0.0000 0.0000
# 2 48.9629 140.4716 54.9232 0.0000 0.0000 0.0000
# 3 30.4566 54.9232 108.4835 0.0000 0.0000 0.0000
# 4 0.0000 0.0000 0.0000 14.0444 0.0000 0.0000
# 5 0.0000 0.0000 0.0000 0.0000 32.0412 0.0000
# 6 0.0000 0.0000 0.0000 0.0000 0.0000 26.8907
#
#
#
# Elastic Compliance Matrix: (Units=1/GPa)
#
#
# Indices 1 2 3 4 5 6 
#
# 1 0.033997 -0.010122 -0.004420 0.000000 0.000000 0.000000
# 2 -0.010122 0.011889 -0.003178 0.000000 0.000000 0.000000
# 3 -0.004420 -0.003178 0.012068 0.000000 0.000000 0.000000
# 4 0.000000 0.000000 0.000000 0.071203 0.000000 0.000000
# 5 0.000000 0.000000 0.000000 0.000000 0.031210 0.000000
# 6 0.000000 0.000000 0.000000 0.000000 0.000000 0.037188
#
#
# Mechanical properties :
#
#
# Convention : Reuss Voigt Hill
#
# Bulk Modulus (GPa) = 44.41500 62.84358 53.62929
# Shear Modulus (GPa) = 20.79011 25.43284 23.11147
#
# Velocity S-wave (km/s) = 3.43665 3.80105 3.62343
# Velocity P-wave (km/s) = 6.40147 7.41380 6.92616
#
# Compressibility (1/GPa) = 0.02251492
#
# Stress axis : x y z
#
# Youngs Moduli (GPa) = 29.41426 84.10858 82.86542
#
# Poissons Ratio (x) = 0.85133 0.36628
# Poissons Ratio (y) = 0.29773 0.26332
# Poissons Ratio (z) = 0.13002 0.26727
#
# Static dielectric constant tensor:
#      x y z
#    x 1.589650 0.000000 0.000000 
#    y 0.000000 1.610010 0.000000 
#    z 0.000000 0.000000 1.571080 
# 
# From -- ./inp_files/48068.got.cif
#   From: 2010.05.17/outbox.cif.g08.bks.cpg/sg64_25_cif.got.tgz:48068.got - 2010.06.03 16:29:19.
