data_PCOD9478169
_publ_section_title
;
Structure prediction by ZEFSAII (Michael W. Deem and Ramdas Pophale) SiO2 
 PCOD9478169
Probable space group: C M C A
;
_chemical_formula_sum "Si O2"
_cell_formula_units_Z 112
_cell_length_a 31.552505
_cell_length_b 14.325794
_cell_length_c 13.146959
_cell_angle_alpha 90.000000
_cell_angle_beta 90.000000
_cell_angle_gamma 90.000000
_cell_volume 5942.618555
_symmetry_space_group_name_H-M "C M C A"
_symmetry_group_IT_number 64
_symmetry_cell_setting 'orthorhombic'
loop_
_space_group_symop_operation_xyz
x,y,z
-x,1/2-y,1/2+z
x,-y,-z
-x,1/2+y,1/2-z
-x,-y,-z
x,1/2+y,1/2-z
-x,y,z
x,1/2-y,1/2+z
1/2+x,1/2+y,z
1/2-x,-y,1/2+z
1/2+x,1/2-y,-z
1/2-x,y,1/2-z
1/2-x,1/2-y,-z
1/2+x,y,1/2-z
1/2-x,1/2+y,z
1/2+x,-y,1/2+z
loop_
_atom_site_type_symbol
_atom_site_label
_atom_site_fract_x
_atom_site_fract_y
_atom_site_fract_z
Si Si1 0.321963 0.900154 0.023757
Si Si2 0.381702 0.491853 0.166703
Si Si3 0.295792 0.591631 0.749114
Si Si4 0.380304 0.343077 0.987920
Si Si5 0.919141 0.139309 0.508450
Si Si6 0.451582 0.495663 0.661754
Si Si7 0.792731 0.267585 0.435789
O O1 0.305673 0.871597 0.135526
O O2 0.372397 0.901750 0.029683
O O3 0.310603 0.836518 0.927549
O O4 0.303154 0.000000 0.000000
O O5 0.335674 0.470494 0.215956
O O6 0.383710 0.590864 0.109621
O O7 0.418365 0.490307 0.249041
O O8 0.389090 0.409375 0.084641
O O9 0.250000 0.542047 0.750000
O O10 0.290211 0.674487 0.832303
O O11 0.409976 0.250574 0.988253
O O12 0.330757 0.314220 0.998863
O O13 0.948254 0.089143 0.592333
O O14 0.936417 0.094298 0.404187
O O15 0.500000 0.482494 0.694178
O O16 0.750000 0.250000 0.500000
#
# Coordination Sequence:
#
# PCOD9478169 Si02
#       7
#    16  16  16  16  16  16  16
#     4  11  20  38  59  88 121 164 209 268 316 376
#     4  10  21  43  61  93 126 164 210 260 316 386
#     4  11  21  38  62  89 124 170 216 261 320 382
#     4   9  22  39  65  84 126 171 201 257 325 373
#     4  10  19  40  61  90 120 160 203 257 315 379
#     4  11  22  40  67  95 124 158 207 264 320 383
#     4  10  21  38  58  85 127 162 216 271 305 379
#
# _framework density 18.846910000000001
#
# number of rings (size 3 to 8) (size 9 to 14) (size 15 to 20)
#    0.000    1.714    4.286    0.857    0.000    2.286 
#   12.857    6.429    0.000    0.000    0.000    0.000 
#    0.000    0.000    0.000    0.000    0.000    0.000 
#
# Total GULP energy -311889.420180 kJ/mol
# GULP energy per Si atom -5569.453932 kJ/mol
# Density = 1.880401 g / cm^3
# Si number density = 18.846910 Si / 1000 Ang^3
#
#
#
# Elastic Constant Matrix: (Units=GPa)
#
#
# Indices 1 2 3 4 5 6 
#
# 1 136.0629 37.5836 54.8079 0.0000 0.0000 0.0000
# 2 37.5836 122.6494 46.8820 0.0000 0.0000 0.0000
# 3 54.8079 46.8820 91.8600 0.0000 0.0000 0.0000
# 4 0.0000 0.0000 0.0000 16.4937 0.0000 0.0000
# 5 0.0000 0.0000 0.0000 0.0000 16.6697 0.0000
# 6 0.0000 0.0000 0.0000 0.0000 0.0000 10.7565
#
#
#
# Elastic Compliance Matrix: (Units=1/GPa)
#
#
# Indices 1 2 3 4 5 6 
#
# 1 0.009763 -0.000951 -0.005340 0.000000 0.000000 0.000000
# 2 -0.000951 0.010222 -0.004650 0.000000 0.000000 0.000000
# 3 -0.005340 -0.004650 0.016445 0.000000 0.000000 0.000000
# 4 0.000000 0.000000 0.000000 0.060629 0.000000 0.000000
# 5 0.000000 0.000000 0.000000 0.000000 0.059989 0.000000
# 6 0.000000 0.000000 0.000000 0.000000 0.000000 0.092967
#
#
# Mechanical properties :
#
#
# Convention : Reuss Voigt Hill
#
# Bulk Modulus (GPa) = 68.72982 69.90216 69.31599
# Shear Modulus (GPa) = 18.06711 22.87057 20.46884
#
# Velocity S-wave (km/s) = 3.09953 3.48730 3.29911
# Velocity P-wave (km/s) = 7.02538 7.30650 7.16732
#
# Compressibility (1/GPa) = 0.01454973
#
# Stress axis : x y z
#
# Youngs Moduli (GPa) = 102.42616 97.82868 60.80762
#
# Poissons Ratio (x) = 0.09299 0.32471
# Poissons Ratio (y) = 0.09736 0.28274
# Poissons Ratio (z) = 0.54696 0.45488
#
# Static dielectric constant tensor:
#      x y z
#    x 1.726200 0.000000 0.000000 
#    y 0.000000 1.730950 0.000000 
#    z 0.000000 0.000000 2.043460 
# 
# From -- ./inp_files/19872.got.cif
#   From: 2010.05.17/outbox.cif.g08.bks.cpg/sg64_10_cif.got.tgz:19872.got - 2010.06.03 16:29:19.
