data_PCOD9478938
_publ_section_title
;
Structure prediction by ZEFSAII (Michael W. Deem and Ramdas Pophale) SiO2 
 PCOD9478938
Probable space group: C M C A
;
_chemical_formula_sum "Si O2"
_cell_formula_units_Z 80
_cell_length_a 10.225943
_cell_length_b 24.916991
_cell_length_c 15.877222
_cell_angle_alpha 90.000000
_cell_angle_beta 90.000000
_cell_angle_gamma 90.000000
_cell_volume 4045.511874
_symmetry_space_group_name_H-M "C M C A"
_symmetry_group_IT_number 64
_symmetry_cell_setting 'orthorhombic'
loop_
_space_group_symop_operation_xyz
x,y,z
-x,1/2-y,1/2+z
x,-y,-z
-x,1/2+y,1/2-z
-x,-y,-z
x,1/2+y,1/2-z
-x,y,z
x,1/2-y,1/2+z
1/2+x,1/2+y,z
1/2-x,-y,1/2+z
1/2+x,1/2-y,-z
1/2-x,y,1/2-z
1/2-x,1/2-y,-z
1/2+x,y,1/2-z
1/2-x,1/2+y,z
1/2+x,-y,1/2+z
loop_
_atom_site_type_symbol
_atom_site_label
_atom_site_fract_x
_atom_site_fract_y
_atom_site_fract_z
Si Si1 0.500000 0.735225 0.737642
Si Si2 0.500000 0.154625 0.997956
Si Si3 0.151074 0.480217 0.588283
Si Si4 0.500000 0.613671 0.696151
Si Si5 0.000000 0.276870 0.542650
Si Si6 0.217736 0.142476 0.077226
Si Si7 0.250000 0.202032 0.250000
Si Si8 0.250000 0.957094 0.250000
O O1 0.500000 0.671554 0.741142
O O2 0.500000 0.756651 0.640516
O O3 0.370195 0.760369 0.776002
O O4 0.500000 0.129934 0.903224
O O5 0.500000 0.219816 0.002749
O O6 0.364190 0.137953 0.041542
O O7 0.210453 0.500000 0.500000
O O8 0.156614 0.416221 0.582780
O O9 0.218440 0.505432 0.669817
O O10 0.000000 0.498241 0.591814
O O11 0.627385 0.580099 0.723672
O O12 0.126445 0.314645 0.527718
O O13 0.218621 0.165214 0.171301
#
# Coordination Sequence:
#
# PCOD9478938 Si02
#       8
#     8   8  16   8   8  16   8   8
#     4   9  19  36  57  88 127 160 206 259 311 397
#     4  11  23  39  62 101 127 160 210 271 322 375
#     4  11  24  44  67  95 129 173 221 267 325 388
#     4  11  24  42  65  95 129 166 212 262 324 380
#     4   9  20  37  60  86 128 168 207 252 324 400
#     4  11  21  40  63  90 128 166 210 269 317 382
#     4  10  20  36  60  90 122 166 208 252 326 384
#     4  12  24  46  70  96 128 174 218 272 318 384
#
# _framework density 19.775002000000001
#
# number of rings (size 3 to 8) (size 9 to 14) (size 15 to 20)
#    0.000    1.400    2.000    3.600    0.000    0.800 
#    3.600    8.000    0.000    0.000    0.000    0.000 
#    0.000    0.000    0.000    0.000    0.000    0.000 
#
# Total GULP energy -223339.175137 kJ/mol
# GULP energy per Si atom -5583.479378 kJ/mol
# Density = 1.972999 g / cm^3
# Si number density = 19.775002 Si / 1000 Ang^3
#
#
#
# Elastic Constant Matrix: (Units=GPa)
#
#
# Indices 1 2 3 4 5 6 
#
# 1 106.6062 28.4248 23.8913 0.0000 0.0000 0.0000
# 2 28.4248 116.1664 41.1011 0.0000 0.0000 0.0000
# 3 23.8913 41.1011 90.9698 0.0000 0.0000 0.0000
# 4 0.0000 0.0000 0.0000 22.9309 0.0000 0.0000
# 5 0.0000 0.0000 0.0000 0.0000 37.1114 0.0000
# 6 0.0000 0.0000 0.0000 0.0000 0.0000 26.0167
#
#
#
# Elastic Compliance Matrix: (Units=1/GPa)
#
#
# Indices 1 2 3 4 5 6 
#
# 1 0.010294 -0.001860 -0.001863 0.000000 0.000000 0.000000
# 2 -0.001860 0.010582 -0.004293 0.000000 0.000000 0.000000
# 3 -0.001863 -0.004293 0.013422 0.000000 0.000000 0.000000
# 4 0.000000 0.000000 0.000000 0.043609 0.000000 0.000000
# 5 0.000000 0.000000 0.000000 0.000000 0.026946 0.000000
# 6 0.000000 0.000000 0.000000 0.000000 0.000000 0.038437
#
#
# Mechanical properties :
#
#
# Convention : Reuss Voigt Hill
#
# Bulk Modulus (GPa) = 54.74569 55.61964 55.18267
# Shear Modulus (GPa) = 30.22803 31.90013 31.06408
#
# Velocity S-wave (km/s) = 3.91397 4.02077 3.96773
# Velocity P-wave (km/s) = 6.94046 7.05285 6.99688
#
# Compressibility (1/GPa) = 0.01826628
#
# Stress axis : x y z
#
# Youngs Moduli (GPa) = 97.14677 94.49851 74.50713
#
# Poissons Ratio (x) = 0.17572 0.13883
# Poissons Ratio (y) = 0.18065 0.31984
# Poissons Ratio (z) = 0.18101 0.40566
#
# Static dielectric constant tensor:
#      x y z
#    x 1.697290 0.000000 0.000000 
#    y 0.000000 1.661930 0.000000 
#    z 0.000000 0.000000 1.694280 
# 
# From -- ./inp_files/22423.got.cif
#   From: 2010.05.17/outbox.cif.g08.bks.cpg/sg64_12_cif.got.tgz:22423.got - 2010.06.03 16:29:19.
