data_PCOD9478732
_publ_section_title
;
Structure prediction by ZEFSAII (Michael W. Deem and Ramdas Pophale) SiO2 
 PCOD9478732
Probable space group: C M C A
;
_chemical_formula_sum "Si O2"
_cell_formula_units_Z 112
_cell_length_a 25.339087
_cell_length_b 14.312184
_cell_length_c 14.214323
_cell_angle_alpha 90.000000
_cell_angle_beta 90.000000
_cell_angle_gamma 90.000000
_cell_volume 5154.933338
_symmetry_space_group_name_H-M "C M C A"
_symmetry_group_IT_number 64
_symmetry_cell_setting 'orthorhombic'
loop_
_space_group_symop_operation_xyz
x,y,z
-x,1/2-y,1/2+z
x,-y,-z
-x,1/2+y,1/2-z
-x,-y,-z
x,1/2+y,1/2-z
-x,y,z
x,1/2-y,1/2+z
1/2+x,1/2+y,z
1/2-x,-y,1/2+z
1/2+x,1/2-y,-z
1/2-x,y,1/2-z
1/2-x,1/2-y,-z
1/2+x,y,1/2-z
1/2-x,1/2+y,z
1/2+x,-y,1/2+z
loop_
_atom_site_type_symbol
_atom_site_label
_atom_site_fract_x
_atom_site_fract_y
_atom_site_fract_z
Si Si1 0.882531 0.855607 0.597309
Si Si2 0.601808 0.738285 0.588756
Si Si3 0.440427 0.701000 0.776892
Si Si4 0.790979 0.666785 0.826921
Si Si5 0.153260 0.582777 0.425044
Si Si6 0.627604 0.518389 0.735037
Si Si7 0.269552 0.107512 0.027954
O O1 0.903737 0.840199 0.490973
O O2 0.906859 0.773320 0.660493
O O3 0.891932 0.954764 0.648211
O O4 0.819156 0.850446 0.582900
O O5 0.558924 0.738990 0.669455
O O6 0.655953 0.722410 0.648270
O O7 0.614171 0.836273 0.540276
O O8 0.500000 0.693491 0.813317
O O9 0.412123 0.600622 0.765792
O O10 0.750000 0.701845 0.750000
O O11 0.816774 0.568712 0.790959
O O12 0.762454 0.655444 0.926593
O O13 0.152159 0.500000 0.500000
O O14 0.135675 0.548572 0.323309
O O15 0.214458 0.612232 0.419456
O O16 0.282370 0.000000 0.000000
#
# Coordination Sequence:
#
# PCOD9478732 Si02
#       7
#    16  16  16  16  16  16  16
#     4  11  23  43  71  97 137 173 221 284 338 400
#     4  10  24  42  65  97 136 175 227 286 334 401
#     4  11  26  48  71  97 127 170 234 292 349 408
#     4  10  20  35  59  95 138 181 223 267 320 395
#     4  11  22  39  62  98 141 186 220 260 327 407
#     4  11  23  41  66  96 135 179 219 279 337 399
#     4  10  20  35  61  97 139 183 223 262 319 405
#
# _framework density 21.726761
#
# number of rings (size 3 to 8) (size 9 to 14) (size 15 to 20)
#    0.000    1.429    2.857    2.571    0.000    6.857 
#    0.000    0.714    0.000    1.714    0.000    0.000 
#    0.000    0.000    0.000    0.000    0.000    0.000 
#
# Total GULP energy -312854.515684 kJ/mol
# GULP energy per Si atom -5586.687780 kJ/mol
# Density = 2.167731 g / cm^3
# Si number density = 21.726761 Si / 1000 Ang^3
#
#
#
# Elastic Constant Matrix: (Units=GPa)
#
#
# Indices 1 2 3 4 5 6 
#
# 1 80.8719 33.9252 48.1705 0.0000 0.0000 0.0000
# 2 33.9252 66.1730 29.5420 0.0000 0.0000 0.0000
# 3 48.1705 29.5420 84.5435 0.0000 0.0000 0.0000
# 4 0.0000 0.0000 0.0000 44.3473 0.0000 0.0000
# 5 0.0000 0.0000 0.0000 0.0000 11.1972 0.0000
# 6 0.0000 0.0000 0.0000 0.0000 0.0000 14.2706
#
#
#
# Elastic Compliance Matrix: (Units=1/GPa)
#
#
# Indices 1 2 3 4 5 6 
#
# 1 0.020749 -0.006350 -0.009603 0.000000 0.000000 0.000000
# 2 -0.006350 0.019849 -0.003317 0.000000 0.000000 0.000000
# 3 -0.009603 -0.003317 0.018459 0.000000 0.000000 0.000000
# 4 0.000000 0.000000 0.000000 0.022549 0.000000 0.000000
# 5 0.000000 0.000000 0.000000 0.000000 0.089308 0.000000
# 6 0.000000 0.000000 0.000000 0.000000 0.000000 0.070074
#
#
# Mechanical properties :
#
#
# Convention : Reuss Voigt Hill
#
# Bulk Modulus (GPa) = 48.74538 50.54041 49.64289
# Shear Modulus (GPa) = 17.45998 21.95974 19.70986
#
# Velocity S-wave (km/s) = 2.83789 3.18264 3.01519
# Velocity P-wave (km/s) = 5.76390 6.06777 5.91779
#
# Compressibility (1/GPa) = 0.02051476
#
# Stress axis : x y z
#
# Youngs Moduli (GPa) = 48.19436 50.38144 54.17365
#
# Poissons Ratio (x) = 0.31994 0.52025
# Poissons Ratio (y) = 0.30605 0.17972
# Poissons Ratio (z) = 0.46283 0.16714
#
# Static dielectric constant tensor:
#      x y z
#    x 1.758270 0.000000 0.000000 
#    y 0.000000 1.890250 0.000000 
#    z 0.000000 0.000000 1.799060 
# 
# From -- ./inp_files/28096.got.cif
#   From: 2010.05.17/outbox.cif.g08.bks.cpg/sg64_15_cif.got.tgz:28096.got - 2010.06.03 16:29:19.
