data_PCOD9478891
_publ_section_title
;
Structure prediction by ZEFSAII (Michael W. Deem and Ramdas Pophale) SiO2 
 PCOD9478891
Probable space group: C M C A
;
_chemical_formula_sum "Si O2"
_cell_formula_units_Z 104
_cell_length_a 7.829522
_cell_length_b 28.210818
_cell_length_c 22.598708
_cell_angle_alpha 90.000000
_cell_angle_beta 90.000000
_cell_angle_gamma 90.000000
_cell_volume 4991.539802
_symmetry_space_group_name_H-M "C M C A"
_symmetry_group_IT_number 64
_symmetry_cell_setting 'orthorhombic'
loop_
_space_group_symop_operation_xyz
x,y,z
-x,1/2-y,1/2+z
x,-y,-z
-x,1/2+y,1/2-z
-x,-y,-z
x,1/2+y,1/2-z
-x,y,z
x,1/2-y,1/2+z
1/2+x,1/2+y,z
1/2-x,-y,1/2+z
1/2+x,1/2-y,-z
1/2-x,y,1/2-z
1/2-x,1/2-y,-z
1/2+x,y,1/2-z
1/2-x,1/2+y,z
1/2+x,-y,1/2+z
loop_
_atom_site_type_symbol
_atom_site_label
_atom_site_fract_x
_atom_site_fract_y
_atom_site_fract_z
Si Si1 0.306871 0.181320 0.855348
Si Si2 0.706730 0.375558 0.924220
Si Si3 0.708322 0.955373 0.336748
Si Si4 0.704984 0.937347 0.685084
Si Si5 0.794916 0.898072 0.053350
Si Si6 0.700227 0.265718 0.566570
Si Si7 0.750000 0.874687 0.250000
O O1 0.500000 0.176131 0.832222
O O2 0.278773 0.146665 0.911172
O O3 0.282660 0.233062 0.882744
O O4 0.191247 0.162722 0.800999
O O5 0.500000 0.377453 0.923301
O O6 0.770603 0.404337 0.867536
O O7 0.757211 0.320689 0.924841
O O8 0.765245 0.398566 0.986156
O O9 0.500000 0.949676 0.326525
O O10 0.739701 0.943225 0.405370
O O11 0.803984 0.915521 0.298060
O O12 0.763468 0.008143 0.321048
O O13 0.500000 0.939383 0.680084
O O14 0.750000 0.919272 0.750000
O O15 0.000000 0.891787 0.052548
O O16 0.500000 0.257847 0.571726
O O17 0.750000 0.250000 0.500000
#
# Coordination Sequence:
#
# PCOD9478891 Si02
#       7
#    16  16  16  16  16  16   8
#     4  11  22  36  59  90 122 153 193 243 295 354
#     4  10  21  38  60  85 116 155 198 245 292 348
#     4   9  17  32  56  86 118 153 193 236 289 351
#     4  10  21  38  59  84 117 159 203 243 288 345
#     4   9  18  33  56  86 119 153 191 239 294 350
#     4  12  24  40  63  87 115 152 194 242 299 358
#     4  10  20  36  58  88 122 156 192 234 298 350
#
# _framework density 20.835253000000002
#
# number of rings (size 3 to 8) (size 9 to 14) (size 15 to 20)
#    0.000    1.846    2.308    2.308    0.000    3.077 
#    1.385    3.077    0.000    0.000    0.000    4.308 
#    0.000    0.000    0.000    0.000    0.000    0.000 
#
# Total GULP energy -289725.068462 kJ/mol
# GULP energy per Si atom -5571.635932 kJ/mol
# Density = 2.078783 g / cm^3
# Si number density = 20.835253 Si / 1000 Ang^3
#
#
#
# Elastic Constant Matrix: (Units=GPa)
#
#
# Indices 1 2 3 4 5 6 
#
# 1 55.5175 6.8960 14.9873 0.0000 0.0000 0.0000
# 2 6.8960 101.4374 87.5763 0.0000 0.0000 0.0000
# 3 14.9873 87.5763 180.9933 0.0000 0.0000 0.0000
# 4 0.0000 0.0000 0.0000 36.1890 0.0000 0.0000
# 5 0.0000 0.0000 0.0000 0.0000 5.7115 0.0000
# 6 0.0000 0.0000 0.0000 0.0000 0.0000 25.9460
#
#
#
# Elastic Compliance Matrix: (Units=1/GPa)
#
#
# Indices 1 2 3 4 5 6 
#
# 1 0.018425 0.000111 -0.001579 0.000000 0.000000 0.000000
# 2 0.000111 0.016932 -0.008202 0.000000 0.000000 0.000000
# 3 -0.001579 -0.008202 0.009624 0.000000 0.000000 0.000000
# 4 0.000000 0.000000 0.000000 0.027633 0.000000 0.000000
# 5 0.000000 0.000000 0.000000 0.000000 0.175085 0.000000
# 6 0.000000 0.000000 0.000000 0.000000 0.000000 0.038542
#
#
# Mechanical properties :
#
#
# Convention : Reuss Voigt Hill
#
# Bulk Modulus (GPa) = 39.00062 61.87416 50.43739
# Shear Modulus (GPa) = 15.91708 28.80189 22.35948
#
# Velocity S-wave (km/s) = 2.76696 3.72205 3.27946
# Velocity P-wave (km/s) = 5.38213 6.94499 6.21290
#
# Compressibility (1/GPa) = 0.02564062
#
# Stress axis : x y z
#
# Youngs Moduli (GPa) = 54.27435 59.05998 103.90161
#
# Poissons Ratio (x) = -0.00656 0.16410
# Poissons Ratio (y) = -0.00602 0.85220
# Poissons Ratio (z) = 0.08572 0.48441
#
# Static dielectric constant tensor:
#      x y z
#    x 1.857070 0.000000 0.000000 
#    y 0.000000 1.723240 0.000000 
#    z 0.000000 0.000000 1.868070 
# 
# From -- ./inp_files/37416.got.cif
#   From: 2010.05.17/outbox.cif.g08.bks.cpg/sg64_19_cif.got.tgz:37416.got - 2010.06.03 16:29:19.
