data_PCOD9478400
_publ_section_title
;
Structure prediction by ZEFSAII (Michael W. Deem and Ramdas Pophale) SiO2 
 PCOD9478400
Probable space group: C M C A
;
_chemical_formula_sum "Si O2"
_cell_formula_units_Z 80
_cell_length_a 9.157888
_cell_length_b 18.864206
_cell_length_c 26.847713
_cell_angle_alpha 90.000000
_cell_angle_beta 90.000000
_cell_angle_gamma 90.000000
_cell_volume 4638.111179
_symmetry_space_group_name_H-M "C M C A"
_symmetry_group_IT_number 64
_symmetry_cell_setting 'orthorhombic'
loop_
_space_group_symop_operation_xyz
x,y,z
-x,1/2-y,1/2+z
x,-y,-z
-x,1/2+y,1/2-z
-x,-y,-z
x,1/2+y,1/2-z
-x,y,z
x,1/2-y,1/2+z
1/2+x,1/2+y,z
1/2-x,-y,1/2+z
1/2+x,1/2-y,-z
1/2-x,y,1/2-z
1/2-x,1/2-y,-z
1/2+x,y,1/2-z
1/2-x,1/2+y,z
1/2+x,-y,1/2+z
loop_
_atom_site_type_symbol
_atom_site_label
_atom_site_fract_x
_atom_site_fract_y
_atom_site_fract_z
Si Si1 0.825632 0.922334 0.699019
Si Si2 0.327233 0.668955 0.890925
Si Si3 0.673627 0.410209 0.301283
Si Si4 0.174378 0.837894 0.600525
Si Si5 0.325219 0.827201 0.501590
O O1 0.750000 0.898066 0.750000
O O2 0.779937 0.879698 0.649946
O O3 0.000000 0.914125 0.704258
O O4 0.794134 0.005907 0.692548
O O5 0.500000 0.658715 0.881674
O O6 0.235628 0.631571 0.848332
O O7 0.300146 0.753774 0.891536
O O8 0.294532 0.641028 0.946895
O O9 0.500000 0.401577 0.297240
O O10 0.750000 0.386686 0.250000
O O11 0.258405 0.862272 0.550818
O O12 0.000000 0.847099 0.593147
O O13 0.500000 0.819760 0.505924
O O14 0.250000 0.750000 0.500000
#
# Coordination Sequence:
#
# PCOD9478400 Si02
#       5
#    16  16  16  16  16
#     4   9  19  35  52  71  96 128 164 201 243 288
#     4   9  18  32  50  73 100 127 158 199 240 282
#     4  10  20  34  52  71  95 129 164 199 242 290
#     4   9  18  33  52  74 100 127 160 202 241 283
#     4   9  17  30  49  73 100 130 161 195 240 287
#
# _framework density 17.2484
#
# number of rings (size 3 to 8) (size 9 to 14) (size 15 to 20)
#    0.000    2.800    0.000    2.400    0.000    6.400 
#    0.000    3.000    0.000    6.000    0.000    0.000 
#    0.000    0.000    0.000    0.000    0.000    0.000 
#
# Total GULP energy -222900.918423 kJ/mol
# GULP energy per Si atom -5572.522961 kJ/mol
# Density = 1.720914 g / cm^3
# Si number density = 17.248400 Si / 1000 Ang^3
#
#
#
# Elastic Constant Matrix: (Units=GPa)
#
#
# Indices 1 2 3 4 5 6 
#
# 1 52.3295 33.3447 83.5688 0.0000 0.0000 0.0000
# 2 33.3447 26.8128 57.7562 0.0000 0.0000 0.0000
# 3 83.5688 57.7562 206.8135 0.0000 0.0000 0.0000
# 4 0.0000 0.0000 0.0000 -232.2664 0.0000 0.0000
# 5 0.0000 0.0000 0.0000 0.0000 41.4257 0.0000
# 6 0.0000 0.0000 0.0000 0.0000 0.0000 17.1579
#
#
#
# Elastic Compliance Matrix: (Units=1/GPa)
#
#
# Indices 1 2 3 4 5 6 
#
# 1 0.108834 -0.101940 -0.015509 0.000000 0.000000 0.000000
# 2 -0.101940 0.189087 -0.011614 0.000000 0.000000 0.000000
# 3 -0.015509 -0.011614 0.014345 0.000000 0.000000 0.000000
# 4 0.000000 0.000000 0.000000 -0.004305 0.000000 0.000000
# 5 0.000000 0.000000 0.000000 0.000000 0.024140 0.000000
# 6 0.000000 0.000000 0.000000 0.000000 0.000000 0.058282
#
#
# Mechanical properties :
#
#
# Convention : Reuss Voigt Hill
#
# Bulk Modulus (GPa) = 18.47059 70.58837 44.52948
# Shear Modulus (GPa) = 7.50125 -27.31747 -9.90811
#
# Velocity S-wave (km/s) = 2.08768 -3.98398 -2.39934
# Velocity P-wave (km/s) = 4.06731 4.45541 4.26578
#
# Compressibility (1/GPa) = 0.05414011
#
# Stress axis : x y z
#
# Youngs Moduli (GPa) = 9.18830 5.28857 69.70864
#
# Poissons Ratio (x) = 0.53912 1.08110
# Poissons Ratio (y) = 0.93666 0.80959
# Poissons Ratio (z) = 0.14250 0.06142
#
# Static dielectric constant tensor:
#      x y z
#    x 1.574280 0.000000 0.000000 
#    y 0.000000 1.572800 0.000000 
#    z 0.000000 0.000000 1.599090 
# 
# From -- ./inp_files/47855.got.cif
#   From: 2010.05.17/outbox.cif.g08.bks.cpg/sg64_24_cif.got.tgz:47855.got - 2010.06.03 16:29:19.
