data_PCOD9478668
_publ_section_title
;
Structure prediction by ZEFSAII (Michael W. Deem and Ramdas Pophale) SiO2 
 PCOD9478668
Probable space group: C M C A
;
_chemical_formula_sum "Si O2"
_cell_formula_units_Z 80
_cell_length_a 15.553794
_cell_length_b 26.163025
_cell_length_c 9.535892
_cell_angle_alpha 90.000000
_cell_angle_beta 90.000000
_cell_angle_gamma 90.000000
_cell_volume 3880.481548
_symmetry_space_group_name_H-M "C M C A"
_symmetry_group_IT_number 64
_symmetry_cell_setting 'orthorhombic'
loop_
_space_group_symop_operation_xyz
x,y,z
-x,1/2-y,1/2+z
x,-y,-z
-x,1/2+y,1/2-z
-x,-y,-z
x,1/2+y,1/2-z
-x,y,z
x,1/2-y,1/2+z
1/2+x,1/2+y,z
1/2-x,-y,1/2+z
1/2+x,1/2-y,-z
1/2-x,y,1/2-z
1/2-x,1/2-y,-z
1/2+x,y,1/2-z
1/2-x,1/2+y,z
1/2+x,-y,1/2+z
loop_
_atom_site_type_symbol
_atom_site_label
_atom_site_fract_x
_atom_site_fract_y
_atom_site_fract_z
Si Si1 0.344280 0.291360 0.682975
Si Si2 0.598416 0.703466 0.620994
Si Si3 0.103860 0.587511 0.873724
Si Si4 0.599381 0.004965 0.653294
Si Si5 0.153122 0.093323 0.309132
O O1 0.250000 0.290714 0.750000
O O2 0.392743 0.245643 0.759812
O O3 0.344831 0.284499 0.515549
O O4 0.380232 0.348605 0.708980
O O5 0.500000 0.702527 0.569742
O O6 0.618658 0.646150 0.672584
O O7 0.136038 0.547028 0.759666
O O8 0.000000 0.580484 0.892733
O O9 0.146822 0.581402 0.025606
O O10 0.500000 0.020979 0.632101
O O11 0.640686 0.000000 0.500000
O O12 0.602670 0.950120 0.726728
O O13 0.250000 0.091750 0.250000
#
# Coordination Sequence:
#
# PCOD9478668 Si02
#       5
#    16  16  16  16  16
#     4  10  21  37  55  79 113 147 181 227 284 336
#     4  10  20  35  57  84 110 143 190 233 273 330
#     4   9  19  37  58  79 108 146 183 223 276 333
#     4  10  21  36  55  81 110 141 181 229 279 329
#     4  10  21  36  55  80 108 143 185 224 270 331
#
# _framework density 20.615998999999999
#
# number of rings (size 3 to 8) (size 9 to 14) (size 15 to 20)
#    0.000    2.200    0.000    2.400    0.000    7.200 
#    0.000    3.000    0.000    0.000    0.000    0.000 
#    0.000    0.000    0.000    0.000    0.000    0.000 
#
# Total GULP energy -223271.781625 kJ/mol
# GULP energy per Si atom -5581.794541 kJ/mol
# Density = 2.056908 g / cm^3
# Si number density = 20.615999 Si / 1000 Ang^3
#
#
#
# Elastic Constant Matrix: (Units=GPa)
#
#
# Indices 1 2 3 4 5 6 
#
# 1 33.9891 10.0379 6.3918 0.0000 0.0000 0.0000
# 2 10.0379 123.8448 91.1537 0.0000 0.0000 0.0000
# 3 6.3918 91.1537 120.3785 0.0000 0.0000 0.0000
# 4 0.0000 0.0000 0.0000 42.5708 0.0000 0.0000
# 5 0.0000 0.0000 0.0000 0.0000 13.0908 0.0000
# 6 0.0000 0.0000 0.0000 0.0000 0.0000 34.4239
#
#
#
# Elastic Compliance Matrix: (Units=1/GPa)
#
#
# Indices 1 2 3 4 5 6 
#
# 1 0.030160 -0.002860 0.000564 0.000000 0.000000 0.000000
# 2 -0.002860 0.018512 -0.013866 0.000000 0.000000 0.000000
# 3 0.000564 -0.013866 0.018777 0.000000 0.000000 0.000000
# 4 0.000000 0.000000 0.000000 0.023490 0.000000 0.000000
# 5 0.000000 0.000000 0.000000 0.000000 0.076390 0.000000
# 6 0.000000 0.000000 0.000000 0.000000 0.000000 0.029050
#
#
# Mechanical properties :
#
#
# Convention : Reuss Voigt Hill
#
# Bulk Modulus (GPa) = 28.46943 54.81991 41.64467
# Shear Modulus (GPa) = 20.79774 29.39234 25.09504
#
# Velocity S-wave (km/s) = 3.17963 3.77995 3.49271
# Velocity P-wave (km/s) = 5.22680 6.76013 6.04230
#
# Compressibility (1/GPa) = 0.03512539
#
# Stress axis : x y z
#
# Youngs Moduli (GPa) = 33.15683 54.01793 53.25652
#
# Poissons Ratio (x) = 0.15447 -0.03003
# Poissons Ratio (y) = 0.09482 0.73847
# Poissons Ratio (z) = -0.01870 0.74902
#
# Static dielectric constant tensor:
#      x y z
#    x 1.770630 0.000000 0.000000 
#    y 0.000000 1.734400 0.000000 
#    z 0.000000 0.000000 1.712890 
# 
# From -- ./inp_files/7015.got.cif
#   From: 2010.05.17/outbox.cif.g08.bks.cpg/sg64_4_cif.got.tgz:7015.got - 2010.06.03 16:29:19.
