data_PCOD9478570
_publ_section_title
;
Structure prediction by ZEFSAII (Michael W. Deem and Ramdas Pophale) SiO2 
 PCOD9478570
Probable space group: C M C A
;
_chemical_formula_sum "Si O2"
_cell_formula_units_Z 112
_cell_length_a 24.717393
_cell_length_b 11.506636
_cell_length_c 18.624495
_cell_angle_alpha 90.000000
_cell_angle_beta 90.000000
_cell_angle_gamma 90.000000
_cell_volume 5297.067943
_symmetry_space_group_name_H-M "C M C A"
_symmetry_group_IT_number 64
_symmetry_cell_setting 'orthorhombic'
loop_
_space_group_symop_operation_xyz
x,y,z
-x,1/2-y,1/2+z
x,-y,-z
-x,1/2+y,1/2-z
-x,-y,-z
x,1/2+y,1/2-z
-x,y,z
x,1/2-y,1/2+z
1/2+x,1/2+y,z
1/2-x,-y,1/2+z
1/2+x,1/2-y,-z
1/2-x,y,1/2-z
1/2-x,1/2-y,-z
1/2+x,y,1/2-z
1/2-x,1/2+y,z
1/2+x,-y,1/2+z
loop_
_atom_site_type_symbol
_atom_site_label
_atom_site_fract_x
_atom_site_fract_y
_atom_site_fract_z
Si Si1 0.663311 0.301656 0.146853
Si Si2 0.335287 0.601793 0.250967
Si Si3 0.061672 0.520330 0.178084
Si Si4 0.939218 0.240385 0.917687
Si Si5 0.209830 0.648813 0.022078
Si Si6 0.599479 0.115023 0.954554
Si Si7 0.241517 0.014164 0.144222
O O1 0.660344 0.233317 0.221309
O O2 0.605283 0.343937 0.118278
O O3 0.675154 0.202887 0.087641
O O4 0.712659 0.390159 0.147133
O O5 0.392853 0.540366 0.261510
O O6 0.293016 0.533188 0.303774
O O7 0.305858 0.597359 0.174954
O O8 0.062926 0.640261 0.130567
O O9 0.079366 0.415362 0.124876
O O10 0.000000 0.503427 0.202345
O O11 0.000000 0.195646 0.914280
O O12 0.925398 0.279066 0.999640
O O13 0.242494 0.549996 0.064559
O O14 0.250000 0.750000 0.000000
O O15 0.164634 0.622752 0.962086
O O16 0.583876 0.000000 0.000000
#
# Coordination Sequence:
#
# PCOD9478570 Si02
#       7
#    16  16  16  16  16  16  16
#     4   9  19  34  50  75 105 140 184 230 282 346
#     4   9  20  35  51  78 106 141 191 228 277 349
#     4   9  16  29  52  79 109 141 178 236 297 342
#     4   8  14  27  47  73 103 137 179 225 280 342
#     4  10  22  32  49  79 109 143 183 228 283 344
#     4   9  16  27  46  76 110 135 172 231 288 342
#     4  10  20  35  53  73 109 150 183 226 279 341
#
# _framework density 21.143771999999998
#
# number of rings (size 3 to 8) (size 9 to 14) (size 15 to 20)
#    0.000    2.857    0.000    3.000    4.000    6.286 
#    0.000    0.714    0.000    0.000    0.000   10.000 
#    0.000    0.000    0.000    0.000    0.000    0.000 
#
# Total GULP energy -312104.004211 kJ/mol
# GULP energy per Si atom -5573.285789 kJ/mol
# Density = 2.109565 g / cm^3
# Si number density = 21.143772 Si / 1000 Ang^3
#
#
#
# Elastic Constant Matrix: (Units=GPa)
#
#
# Indices 1 2 3 4 5 6 
#
# 1 169.4095 22.2790 36.4719 0.0000 0.0000 0.0000
# 2 22.2790 31.6464 -1.1299 0.0000 0.0000 0.0000
# 3 36.4719 -1.1299 38.1629 0.0000 0.0000 0.0000
# 4 0.0000 0.0000 0.0000 15.9647 0.0000 0.0000
# 5 0.0000 0.0000 0.0000 0.0000 26.9914 0.0000
# 6 0.0000 0.0000 0.0000 0.0000 0.0000 8.6105
#
#
#
# Elastic Compliance Matrix: (Units=1/GPa)
#
#
# Indices 1 2 3 4 5 6 
#
# 1 0.008526 -0.006300 -0.008334 0.000000 0.000000 0.000000
# 2 -0.006300 0.036287 0.007095 0.000000 0.000000 0.000000
# 3 -0.008334 0.007095 0.034379 0.000000 0.000000 0.000000
# 4 0.000000 0.000000 0.000000 0.062638 0.000000 0.000000
# 5 0.000000 0.000000 0.000000 0.000000 0.037049 0.000000
# 6 0.000000 0.000000 0.000000 0.000000 0.000000 0.116137
#
#
# Mechanical properties :
#
#
# Convention : Reuss Voigt Hill
#
# Bulk Modulus (GPa) = 15.59741 39.38456 27.49098
# Shear Modulus (GPa) = 15.08456 22.41985 18.75221
#
# Velocity S-wave (km/s) = 2.67391 3.25984 2.98130
# Velocity P-wave (km/s) = 4.11411 5.73029 4.98809
#
# Compressibility (1/GPa) = 0.06411322
#
# Stress axis : x y z
#
# Youngs Moduli (GPa) = 117.29384 27.55782 29.08792
#
# Poissons Ratio (x) = 0.17360 0.24243
# Poissons Ratio (y) = 0.73890 -0.20637
# Poissons Ratio (z) = 0.97757 -0.19552
#
# Static dielectric constant tensor:
#      x y z
#    x 1.918120 0.000000 0.000000 
#    y 0.000000 1.833800 0.000000 
#    z 0.000000 0.000000 1.802970 
# 
# From -- ./inp_files/41527.got.cif
#   From: 2010.05.17/outbox.cif.g08.bks.cpg/sg64_21_cif.got.tgz:41527.got - 2010.06.03 16:29:19.
