data_PCOD9478966
_publ_section_title
;
Structure prediction by ZEFSAII (Michael W. Deem and Ramdas Pophale) SiO2 
 PCOD9478966
Probable space group: C M C A
;
_chemical_formula_sum "Si O2"
_cell_formula_units_Z 72
_cell_length_a 13.766167
_cell_length_b 9.338874
_cell_length_c 28.078112
_cell_angle_alpha 90.000000
_cell_angle_beta 90.000000
_cell_angle_gamma 90.000000
_cell_volume 3609.736092
_symmetry_space_group_name_H-M "C M C A"
_symmetry_group_IT_number 64
_symmetry_cell_setting 'orthorhombic'
loop_
_space_group_symop_operation_xyz
x,y,z
-x,1/2-y,1/2+z
x,-y,-z
-x,1/2+y,1/2-z
-x,-y,-z
x,1/2+y,1/2-z
-x,y,z
x,1/2-y,1/2+z
1/2+x,1/2+y,z
1/2-x,-y,1/2+z
1/2+x,1/2-y,-z
1/2-x,y,1/2-z
1/2-x,1/2-y,-z
1/2+x,y,1/2-z
1/2-x,1/2+y,z
1/2+x,-y,1/2+z
loop_
_atom_site_type_symbol
_atom_site_label
_atom_site_fract_x
_atom_site_fract_y
_atom_site_fract_z
Si Si1 0.109675 0.771412 0.372608
Si Si2 0.712264 0.877347 0.033288
Si Si3 0.250000 0.557078 0.250000
Si Si4 0.107814 0.943682 0.098474
Si Si5 0.302005 0.810797 0.314711
O O1 0.141083 0.828455 0.424638
O O2 0.113114 0.599298 0.377065
O O3 0.191682 0.818652 0.335288
O O4 0.000000 0.814983 0.360525
O O5 0.808249 0.937063 0.059583
O O6 0.750000 0.750000 0.000000
O O7 0.668647 0.000000 0.000000
O O8 0.307734 0.664824 0.284898
O O9 0.315096 0.448011 0.219228
O O10 0.130845 0.826608 0.139152
O O11 0.000000 0.924144 0.078557
#
# Coordination Sequence:
#
# PCOD9478966 Si02
#       5
#    16  16   8  16  16
#     4  10  21  38  60  85 118 153 190 237 289 340
#     4  11  22  38  59  86 118 153 193 239 282 338
#     4  10  20  36  62  84 118 148 190 232 292 334
#     4  10  21  38  61  85 116 155 191 233 290 346
#     4  10  20  39  58  86 115 155 183 239 284 345
#
# _framework density 19.946055999999999
#
# number of rings (size 3 to 8) (size 9 to 14) (size 15 to 20)
#    0.000    1.778    4.444    0.000    0.000    1.778 
#    0.000   10.000    0.000    0.000    0.000    0.000 
#    0.000    0.000    0.000    0.000    0.000    0.000 
#
# Total GULP energy -200909.974840 kJ/mol
# GULP energy per Si atom -5580.832634 kJ/mol
# Density = 1.990066 g / cm^3
# Si number density = 19.946056 Si / 1000 Ang^3
#
#
#
# Elastic Constant Matrix: (Units=GPa)
#
#
# Indices 1 2 3 4 5 6 
#
# 1 84.5262 -1.0033 5.8701 0.0000 0.0000 0.0000
# 2 -1.0033 76.2279 13.7578 0.0000 0.0000 0.0000
# 3 5.8701 13.7578 64.2730 0.0000 0.0000 0.0000
# 4 0.0000 0.0000 0.0000 43.0690 0.0000 0.0000
# 5 0.0000 0.0000 0.0000 0.0000 5.7835 0.0000
# 6 0.0000 0.0000 0.0000 0.0000 0.0000 15.6518
#
#
#
# Elastic Compliance Matrix: (Units=1/GPa)
#
#
# Indices 1 2 3 4 5 6 
#
# 1 0.011916 0.000367 -0.001167 0.000000 0.000000 0.000000
# 2 0.000367 0.013657 -0.002957 0.000000 0.000000 0.000000
# 3 -0.001167 -0.002957 0.016298 0.000000 0.000000 0.000000
# 4 0.000000 0.000000 0.000000 0.023219 0.000000 0.000000
# 5 0.000000 0.000000 0.000000 0.000000 0.172905 0.000000
# 6 0.000000 0.000000 0.000000 0.000000 0.000000 0.063890
#
#
# Mechanical properties :
#
#
# Convention : Reuss Voigt Hill
#
# Bulk Modulus (GPa) = 29.10492 29.14183 29.12338
# Shear Modulus (GPa) = 15.58358 26.66104 21.12231
#
# Velocity S-wave (km/s) = 2.79818 3.66000 3.25771
# Velocity P-wave (km/s) = 5.00632 5.70112 5.36498
#
# Compressibility (1/GPa) = 0.03435845
#
# Stress axis : x y z
#
# Youngs Moduli (GPa) = 83.92041 73.22222 61.35671
#
# Poissons Ratio (x) = -0.02691 0.07160
# Poissons Ratio (y) = -0.03084 0.18142
# Poissons Ratio (z) = 0.09793 0.21651
#
# Static dielectric constant tensor:
#      x y z
#    x 1.668920 0.000000 0.000000 
#    y 0.000000 1.716440 0.000000 
#    z 0.000000 0.000000 1.727110 
# 
# From -- ./inp_files/53132.got.cif
#   From: 2010.05.17/outbox.cif.g08.bks.cpg/sg64_27_cif.got.tgz:53132.got - 2010.06.03 16:29:19.
