data_PCOD9478074
_publ_section_title
;
Structure prediction by ZEFSAII (Michael W. Deem and Ramdas Pophale) SiO2 
 PCOD9478074
Probable space group: C M C A
;
_chemical_formula_sum "Si O2"
_cell_formula_units_Z 96
_cell_length_a 28.466277
_cell_length_b 14.935124
_cell_length_c 11.157713
_cell_angle_alpha 90.000000
_cell_angle_beta 90.000000
_cell_angle_gamma 90.000000
_cell_volume 4743.672413
_symmetry_space_group_name_H-M "C M C A"
_symmetry_group_IT_number 64
_symmetry_cell_setting 'orthorhombic'
loop_
_space_group_symop_operation_xyz
x,y,z
-x,1/2-y,1/2+z
x,-y,-z
-x,1/2+y,1/2-z
-x,-y,-z
x,1/2+y,1/2-z
-x,y,z
x,1/2-y,1/2+z
1/2+x,1/2+y,z
1/2-x,-y,1/2+z
1/2+x,1/2-y,-z
1/2-x,y,1/2-z
1/2-x,1/2-y,-z
1/2+x,y,1/2-z
1/2-x,1/2+y,z
1/2+x,-y,1/2+z
loop_
_atom_site_type_symbol
_atom_site_label
_atom_site_fract_x
_atom_site_fract_y
_atom_site_fract_z
Si Si1 0.801278 0.500000 0.500000
Si Si2 0.204203 0.322516 0.402670
Si Si3 0.655584 0.420348 0.765916
Si Si4 0.617738 0.776679 0.578033
Si Si5 0.750000 0.685896 0.250000
Si Si6 0.128693 0.103140 0.714574
Si Si7 0.055057 0.905705 0.071102
O O1 0.773784 0.586690 0.543579
O O2 0.834997 0.529591 0.392461
O O3 0.164769 0.289636 0.496881
O O4 0.242951 0.252230 0.362101
O O5 0.173479 0.352492 0.285353
O O6 0.623067 0.336378 0.800067
O O7 0.705259 0.376605 0.738656
O O8 0.640589 0.500600 0.679918
O O9 0.614600 0.673421 0.612926
O O10 0.575743 0.823820 0.506953
O O11 0.086235 0.094179 0.809338
O O12 0.000000 0.894795 0.095121
O O13 0.061051 0.000000 0.000000
#
# Coordination Sequence:
#
# PCOD9478074 Si02
#       7
#     8  16  16  16   8  16  16
#     4   8  18  34  52  70 107 142 200 248 311 338
#     4   9  20  35  56  82 112 159 201 259 301 362
#     4  10  20  36  52  81 110 160 200 251 299 352
#     4  10  19  37  61  84 121 159 196 254 322 372
#     4  12  22  36  54  86 122 156 230 254 298 364
#     4  10  19  37  60  81 122 161 195 247 325 372
#     4  10  20  36  65  95 116 151 207 263 317 391
#
# _framework density 20.237485
#
# number of rings (size 3 to 8) (size 9 to 14) (size 15 to 20)
#    0.000    2.167    3.333    1.000    2.333    6.000 
#    3.000    0.000    0.000    0.000    0.000    1.167 
#    0.000    0.000    0.000    0.000    0.000    0.000 
#
# Total GULP energy -267757.522802 kJ/mol
# GULP energy per Si atom -5578.281725 kJ/mol
# Density = 2.019142 g / cm^3
# Si number density = 20.237485 Si / 1000 Ang^3
#
#
#
# Elastic Constant Matrix: (Units=GPa)
#
#
# Indices 1 2 3 4 5 6 
#
# 1 89.0794 53.7573 15.9606 0.0000 0.0000 0.0000
# 2 53.7573 145.0853 34.1240 0.0000 0.0000 0.0000
# 3 15.9606 34.1240 31.0823 0.0000 0.0000 0.0000
# 4 0.0000 0.0000 0.0000 34.5785 0.0000 0.0000
# 5 0.0000 0.0000 0.0000 0.0000 14.1477 0.0000
# 6 0.0000 0.0000 0.0000 0.0000 0.0000 27.7730
#
#
#
# Elastic Compliance Matrix: (Units=1/GPa)
#
#
# Indices 1 2 3 4 5 6 
#
# 1 0.014559 -0.004902 -0.002095 0.000000 0.000000 0.000000
# 2 -0.004902 0.010942 -0.009496 0.000000 0.000000 0.000000
# 3 -0.002095 -0.009496 0.043673 0.000000 0.000000 0.000000
# 4 0.000000 0.000000 0.000000 0.028920 0.000000 0.000000
# 5 0.000000 0.000000 0.000000 0.000000 0.070683 0.000000
# 6 0.000000 0.000000 0.000000 0.000000 0.000000 0.036006
#
#
# Mechanical properties :
#
#
# Convention : Reuss Voigt Hill
#
# Bulk Modulus (GPa) = 27.63182 52.54786 40.08984
# Shear Modulus (GPa) = 20.01348 26.06019 23.03684
#
# Velocity S-wave (km/s) = 3.14814 3.59237 3.37757
# Velocity P-wave (km/s) = 5.18631 6.57486 5.92143
#
# Compressibility (1/GPa) = 0.03619016
#
# Stress axis : x y z
#
# Youngs Moduli (GPa) = 68.68395 91.38943 22.89734
#
# Poissons Ratio (x) = 0.44799 0.04796
# Poissons Ratio (y) = 0.33669 0.21743
# Poissons Ratio (z) = 0.14386 0.86782
#
# Static dielectric constant tensor:
#      x y z
#    x 1.686770 0.000000 0.000000 
#    y 0.000000 1.810250 0.000000 
#    z 0.000000 0.000000 1.773590 
# 
# From -- ./inp_files/19794.got.cif
#   From: 2010.05.17/outbox.cif.g08.bks.cpg/sg64_10_cif.got.tgz:19794.got - 2010.06.03 16:29:19.
