data_PCOD9478959
_publ_section_title
;
Structure prediction by ZEFSAII (Michael W. Deem and Ramdas Pophale) SiO2 
 PCOD9478959
Probable space group: C M C A
;
_chemical_formula_sum "Si O2"
_cell_formula_units_Z 96
_cell_length_a 14.765306
_cell_length_b 21.882508
_cell_length_c 13.512778
_cell_angle_alpha 90.000000
_cell_angle_beta 90.000000
_cell_angle_gamma 90.000000
_cell_volume 4366.004606
_symmetry_space_group_name_H-M "C M C A"
_symmetry_group_IT_number 64
_symmetry_cell_setting 'orthorhombic'
loop_
_space_group_symop_operation_xyz
x,y,z
-x,1/2-y,1/2+z
x,-y,-z
-x,1/2+y,1/2-z
-x,-y,-z
x,1/2+y,1/2-z
-x,y,z
x,1/2-y,1/2+z
1/2+x,1/2+y,z
1/2-x,-y,1/2+z
1/2+x,1/2-y,-z
1/2-x,y,1/2-z
1/2-x,1/2-y,-z
1/2+x,y,1/2-z
1/2-x,1/2+y,z
1/2+x,-y,1/2+z
loop_
_atom_site_type_symbol
_atom_site_label
_atom_site_fract_x
_atom_site_fract_y
_atom_site_fract_z
Si Si1 0.156416 0.239330 0.196586
Si Si2 0.102896 0.122756 0.680077
Si Si3 0.894820 0.899329 0.099130
Si Si4 0.215443 0.429580 0.998579
Si Si5 0.398097 0.229666 0.508408
Si Si6 0.601922 0.350840 0.639080
O O1 0.250000 0.251984 0.250000
O O2 0.104945 0.303908 0.195156
O O3 0.169942 0.223453 0.081909
O O4 0.114564 0.182027 0.255048
O O5 0.127233 0.091401 0.784978
O O6 0.168382 0.104641 0.591294
O O7 0.000000 0.105456 0.654518
O O8 0.822381 0.926163 0.022790
O O9 0.000000 0.916938 0.082140
O O10 0.888443 0.826313 0.082334
O O11 0.187523 0.500000 0.000000
O O12 0.177959 0.397567 0.899043
O O13 0.500000 0.224714 0.464817
O O14 0.393064 0.293292 0.564239
O O15 0.500000 0.377030 0.632402
#
# Coordination Sequence:
#
# PCOD9478959 Si02
#       6
#    16  16  16  16  16  16
#     4  12  22  34  61  98 135 170 213 274 338 391
#     4  11  22  39  65  96 128 168 219 270 327 388
#     4  10  22  42  67  96 127 166 218 276 331 386
#     4  12  26  43  65  95 134 181 225 262 317 393
#     4  10  20  36  61  94 130 163 207 269 337 390
#     4  11  23  39  63  96 135 173 213 268 328 390
#
# _framework density 21.988066
#
# number of rings (size 3 to 8) (size 9 to 14) (size 15 to 20)
#    0.000    1.000    3.333    4.500    0.000    3.000 
#    0.000    5.000    0.000    2.000    0.000    0.000 
#    0.000    0.000    0.000    0.000    0.000    0.000 
#
# Total GULP energy -268354.081968 kJ/mol
# GULP energy per Si atom -5590.710041 kJ/mol
# Density = 2.193802 g / cm^3
# Si number density = 21.988066 Si / 1000 Ang^3
#
#
#
# Elastic Constant Matrix: (Units=GPa)
#
#
# Indices 1 2 3 4 5 6 
#
# 1 78.4410 -1.0494 5.9754 0.0000 0.0000 0.0000
# 2 -1.0494 65.3986 -4.3335 0.0000 0.0000 0.0000
# 3 5.9754 -4.3335 73.0855 0.0000 0.0000 0.0000
# 4 0.0000 0.0000 0.0000 12.4935 0.0000 0.0000
# 5 0.0000 0.0000 0.0000 0.0000 22.7245 0.0000
# 6 0.0000 0.0000 0.0000 0.0000 0.0000 6.7452
#
#
#
# Elastic Compliance Matrix: (Units=1/GPa)
#
#
# Indices 1 2 3 4 5 6 
#
# 1 0.012830 0.000137 -0.001041 0.000000 0.000000 0.000000
# 2 0.000137 0.015353 0.000899 0.000000 0.000000 0.000000
# 3 -0.001041 0.000899 0.013821 0.000000 0.000000 0.000000
# 4 0.000000 0.000000 0.000000 0.080041 0.000000 0.000000
# 5 0.000000 0.000000 0.000000 0.000000 0.044005 0.000000
# 6 0.000000 0.000000 0.000000 0.000000 0.000000 0.148253
#
#
# Mechanical properties :
#
#
# Convention : Reuss Voigt Hill
#
# Bulk Modulus (GPa) = 23.81316 24.23446 24.02381
# Shear Modulus (GPa) = 15.22950 22.81482 19.02216
#
# Velocity S-wave (km/s) = 2.63463 3.22467 2.94447
# Velocity P-wave (km/s) = 4.48426 4.99102 4.74441
#
# Compressibility (1/GPa) = 0.04199358
#
# Stress axis : x y z
#
# Youngs Moduli (GPa) = 77.94505 65.13550 72.35356
#
# Poissons Ratio (x) = -0.00892 0.07531
# Poissons Ratio (y) = -0.01067 -0.06505
# Poissons Ratio (z) = 0.08113 -0.05856
#
# Static dielectric constant tensor:
#      x y z
#    x 1.860370 0.000000 0.000000 
#    y 0.000000 1.771970 0.000000 
#    z 0.000000 0.000000 1.835160 
# 
# From -- ./inp_files/23850.got.cif
#   From: 2010.05.17/outbox.cif.g08.bks.cpg/sg64_12_cif.got.tgz:23850.got - 2010.06.03 16:29:19.
