data_PCOD9478887
_publ_section_title
;
Structure prediction by ZEFSAII (Michael W. Deem and Ramdas Pophale) SiO2 
 PCOD9478887
Probable space group: C M C A
;
_chemical_formula_sum "Si O2"
_cell_formula_units_Z 104
_cell_length_a 23.137328
_cell_length_b 8.759341
_cell_length_c 26.546234
_cell_angle_alpha 90.000000
_cell_angle_beta 90.000000
_cell_angle_gamma 90.000000
_cell_volume 5380.065404
_symmetry_space_group_name_H-M "C M C A"
_symmetry_group_IT_number 64
_symmetry_cell_setting 'orthorhombic'
loop_
_space_group_symop_operation_xyz
x,y,z
-x,1/2-y,1/2+z
x,-y,-z
-x,1/2+y,1/2-z
-x,-y,-z
x,1/2+y,1/2-z
-x,y,z
x,1/2-y,1/2+z
1/2+x,1/2+y,z
1/2-x,-y,1/2+z
1/2+x,1/2-y,-z
1/2-x,y,1/2-z
1/2-x,1/2-y,-z
1/2+x,y,1/2-z
1/2-x,1/2+y,z
1/2+x,-y,1/2+z
loop_
_atom_site_type_symbol
_atom_site_label
_atom_site_fract_x
_atom_site_fract_y
_atom_site_fract_z
Si Si1 0.902789 0.978064 0.656606
Si Si2 0.825089 0.842357 0.403762
Si Si3 0.606501 0.195145 0.579197
Si Si4 0.000000 0.546540 0.628680
Si Si5 0.500000 0.712665 0.669504
Si Si6 0.065566 0.831518 0.476459
Si Si7 0.213161 0.992043 0.939235
Si Si8 0.500000 0.301412 0.714665
O O1 0.899125 0.847146 0.613721
O O2 0.939447 0.893287 0.702304
O O3 0.842664 0.074490 0.649584
O O4 0.946945 0.115559 0.650141
O O5 0.884230 0.836484 0.435534
O O6 0.799973 0.670668 0.412193
O O7 0.778155 0.954387 0.428533
O O8 0.557568 0.080091 0.597950
O O9 0.589825 0.230626 0.522036
O O10 0.668604 0.116938 0.582768
O O11 0.000000 0.378970 0.648340
O O12 0.000000 0.664398 0.674989
O O13 0.500000 0.734446 0.729701
O O14 0.000000 0.785519 0.461525
O O15 0.060893 0.000000 0.500000
O O16 0.204912 0.000000 0.000000
#
# Coordination Sequence:
#
# PCOD9478887 Si02
#       8
#    16  16  16   8   8  16  16   8
#     4  10  22  37  63  90 127 163 202 264 322 396
#     4  12  24  40  59  91 126 183 232 273 319 372
#     4  11  21  39  54  88 126 176 225 269 318 370
#     4  10  20  36  58  87 124 157 202 271 325 396
#     4  11  21  39  64  96 124 155 202 258 346 413
#     4  11  22  34  58  81 123 176 225 266 328 375
#     4  12  25  39  59  89 130 188 243 280 306 355
#     4   9  21  39  66  96 123 155 195 259 342 413
#
# _framework density 19.33062
#
# number of rings (size 3 to 8) (size 9 to 14) (size 15 to 20)
#    0.000    1.077    3.846    4.154    2.154    0.000 
#    1.385    1.154    0.000    0.000    0.000   36.615 
#    0.000    0.000    0.000    0.000    0.000    0.000 
#
# Total GULP energy -289614.754608 kJ/mol
# GULP energy per Si atom -5569.514512 kJ/mol
# Density = 1.928662 g / cm^3
# Si number density = 19.330620 Si / 1000 Ang^3
#
#
#
# Elastic Constant Matrix: (Units=GPa)
#
#
# Indices 1 2 3 4 5 6 
#
# 1 103.8147 35.4250 39.3149 0.0000 0.0000 0.0000
# 2 35.4250 79.6602 13.2904 0.0000 0.0000 0.0000
# 3 39.3149 13.2904 63.3711 0.0000 0.0000 0.0000
# 4 0.0000 0.0000 0.0000 21.6647 0.0000 0.0000
# 5 0.0000 0.0000 0.0000 0.0000 11.5117 0.0000
# 6 0.0000 0.0000 0.0000 0.0000 0.0000 -4.2728
#
#
#
# Elastic Compliance Matrix: (Units=1/GPa)
#
#
# Indices 1 2 3 4 5 6 
#
# 1 0.014324 -0.005064 -0.007824 0.000000 0.000000 0.000000
# 2 -0.005064 0.014799 0.000038 0.000000 0.000000 0.000000
# 3 -0.007824 0.000038 0.020626 0.000000 0.000000 0.000000
# 4 0.000000 0.000000 0.000000 0.046158 0.000000 0.000000
# 5 0.000000 0.000000 0.000000 0.000000 0.086868 0.000000
# 6 0.000000 0.000000 0.000000 0.000000 0.000000 -0.234037
#
#
# Mechanical properties :
#
#
# Convention : Reuss Voigt Hill
#
# Bulk Modulus (GPa) = 41.58326 46.98960 44.28643
# Shear Modulus (GPa) = -284.98508 16.36842 -134.30833
#
# Velocity S-wave (km/s) = -12.15511 2.91307 -8.34448
# Velocity P-wave (km/s) = 13.24528 5.97292 8.35948
#
# Compressibility (1/GPa) = 0.02404814
#
# Stress axis : x y z
#
# Youngs Moduli (GPa) = 69.81423 67.57168 48.48225
#
# Poissons Ratio (x) = 0.34221 0.37933
# Poissons Ratio (y) = 0.35357 -0.00185
# Poissons Ratio (z) = 0.54624 -0.00258
#
# Static dielectric constant tensor:
#      x y z
#    x 1.380300 0.000000 0.000000 
#    y 0.000000 1.720860 0.000000 
#    z 0.000000 0.000000 1.723950 
# 
# From -- ./inp_files/50808.got.cif
#   From: 2010.05.17/outbox.cif.g08.bks.cpg/sg64_26_cif.got.tgz:50808.got - 2010.06.03 16:29:19.
