data_PCOD9478547
_publ_section_title
;
Structure prediction by ZEFSAII (Michael W. Deem and Ramdas Pophale) SiO2 
 PCOD9478547
Probable space group: C M C A
;
_chemical_formula_sum "Si O2"
_cell_formula_units_Z 116
_cell_length_a 16.023199
_cell_length_b 23.568717
_cell_length_c 17.046049
_cell_angle_alpha 90.000000
_cell_angle_beta 90.000000
_cell_angle_gamma 90.000000
_cell_volume 6437.376357
_symmetry_space_group_name_H-M "C M C A"
_symmetry_group_IT_number 64
_symmetry_cell_setting 'orthorhombic'
loop_
_space_group_symop_operation_xyz
x,y,z
-x,1/2-y,1/2+z
x,-y,-z
-x,1/2+y,1/2-z
-x,-y,-z
x,1/2+y,1/2-z
-x,y,z
x,1/2-y,1/2+z
1/2+x,1/2+y,z
1/2-x,-y,1/2+z
1/2+x,1/2-y,-z
1/2-x,y,1/2-z
1/2-x,1/2-y,-z
1/2+x,y,1/2-z
1/2-x,1/2+y,z
1/2+x,-y,1/2+z
loop_
_atom_site_type_symbol
_atom_site_label
_atom_site_fract_x
_atom_site_fract_y
_atom_site_fract_z
Si Si1 0.254768 0.716145 0.655613
Si Si2 0.266982 0.485881 0.658666
Si Si3 0.905409 0.209842 0.345449
Si Si4 0.227347 0.101065 0.561978
Si Si5 0.407663 0.797775 0.657914
Si Si6 0.402080 0.912772 0.925128
Si Si7 0.500000 0.000000 0.500000
Si Si8 0.636023 0.589123 0.067684
O O1 0.250000 0.709023 0.750000
O O2 0.166791 0.745595 0.632996
O O3 0.274747 0.656839 0.614854
O O4 0.330248 0.758537 0.634619
O O5 0.250000 0.493544 0.750000
O O6 0.259559 0.545449 0.614290
O O7 0.353841 0.456236 0.632518
O O8 0.196314 0.443757 0.627131
O O9 0.899711 0.196188 0.252329
O O10 0.893827 0.150569 0.389966
O O11 0.000000 0.230935 0.360639
O O12 0.146592 0.088913 0.507754
O O13 0.304388 0.108992 0.502750
O O14 0.500000 0.772841 0.642553
O O15 0.401448 0.857323 0.613257
O O16 0.500000 0.926292 0.932513
O O17 0.428423 0.955748 0.533064
#
# Coordination Sequence:
#
# PCOD9478547 Si02
#       8
#    16  16  16  16  16  16   4  16
#     4  10  21  39  58  80 116 156 195 240 288 343
#     4  11  22  39  59  84 114 151 193 234 295 352
#     4   9  19  37  57  85 111 144 194 245 287 332
#     4  11  23  38  56  82 119 155 189 231 292 354
#     4  10  20  34  59  84 111 149 193 237 285 342
#     4  10  21  38  62  87 115 148 194 246 291 349
#     4  12  20  40  60  88 122 144 182 248 306 360
#     4  11  21  38  61  85 117 149 185 242 299 351
#
# _framework density 18.019763000000001
#
# number of rings (size 3 to 8) (size 9 to 14) (size 15 to 20)
#    0.000    1.655    2.069    4.138    0.000    4.966 
#    2.483    1.379    0.000    1.655    0.000    0.000 
#    0.000    0.000    0.000    0.000    0.000    0.000 
#
# Total GULP energy -323209.417707 kJ/mol
# GULP energy per Si atom -5572.576167 kJ/mol
# Density = 1.797875 g / cm^3
# Si number density = 18.019763 Si / 1000 Ang^3
#
#
#
# Elastic Constant Matrix: (Units=GPa)
#
#
# Indices 1 2 3 4 5 6 
#
# 1 111.2036 13.5349 31.4836 0.0000 0.0000 0.0000
# 2 13.5349 37.1566 23.7703 0.0000 0.0000 0.0000
# 3 31.4836 23.7703 57.5993 0.0000 0.0000 0.0000
# 4 0.0000 0.0000 0.0000 59.6406 0.0000 0.0000
# 5 0.0000 0.0000 0.0000 0.0000 12.9155 0.0000
# 6 0.0000 0.0000 0.0000 0.0000 0.0000 12.7755
#
#
#
# Elastic Compliance Matrix: (Units=1/GPa)
#
#
# Indices 1 2 3 4 5 6 
#
# 1 0.010640 -0.000211 -0.005729 0.000000 0.000000 0.000000
# 2 -0.000211 0.036571 -0.014977 0.000000 0.000000 0.000000
# 3 -0.005729 -0.014977 0.026673 0.000000 0.000000 0.000000
# 4 0.000000 0.000000 0.000000 0.016767 0.000000 0.000000
# 5 0.000000 0.000000 0.000000 0.000000 0.077426 0.000000
# 6 0.000000 0.000000 0.000000 0.000000 0.000000 0.078275
#
#
# Mechanical properties :
#
#
# Convention : Reuss Voigt Hill
#
# Bulk Modulus (GPa) = 31.20006 38.17078 34.68542
# Shear Modulus (GPa) = 16.72964 26.21101 21.47033
#
# Velocity S-wave (km/s) = 3.05028 3.81802 3.45554
# Velocity P-wave (km/s) = 5.45505 6.37692 5.93391
#
# Compressibility (1/GPa) = 0.03205122
#
# Stress axis : x y z
#
# Youngs Moduli (GPa) = 93.98402 27.34392 37.49044
#
# Poissons Ratio (x) = 0.00577 0.21478
# Poissons Ratio (y) = 0.01982 0.56150
# Poissons Ratio (z) = 0.53842 0.40953
#
# Static dielectric constant tensor:
#      x y z
#    x 1.630510 0.000000 0.000000 
#    y 0.000000 1.588920 0.000000 
#    z 0.000000 0.000000 1.636280 
# 
# From -- ./inp_files/32517.got.cif
#   From: 2010.05.17/outbox.cif.g08.bks.cpg/sg64_17_cif.got.tgz:32517.got - 2010.06.03 16:29:19.
