data_PCOD9478181
_publ_section_title
;
Structure prediction by ZEFSAII (Michael W. Deem and Ramdas Pophale) SiO2 
 PCOD9478181
Probable space group: C M C A
;
_chemical_formula_sum "Si O2"
_cell_formula_units_Z 88
_cell_length_a 16.818781
_cell_length_b 31.117499
_cell_length_c 8.900571
_cell_angle_alpha 90.000000
_cell_angle_beta 90.000000
_cell_angle_gamma 90.000000
_cell_volume 4658.188606
_symmetry_space_group_name_H-M "C M C A"
_symmetry_group_IT_number 64
_symmetry_cell_setting 'orthorhombic'
loop_
_space_group_symop_operation_xyz
x,y,z
-x,1/2-y,1/2+z
x,-y,-z
-x,1/2+y,1/2-z
-x,-y,-z
x,1/2+y,1/2-z
-x,y,z
x,1/2-y,1/2+z
1/2+x,1/2+y,z
1/2-x,-y,1/2+z
1/2+x,1/2-y,-z
1/2-x,y,1/2-z
1/2-x,1/2-y,-z
1/2+x,y,1/2-z
1/2-x,1/2+y,z
1/2+x,-y,1/2+z
loop_
_atom_site_type_symbol
_atom_site_label
_atom_site_fract_x
_atom_site_fract_y
_atom_site_fract_z
Si Si1 0.250000 0.414645 0.250000
Si Si2 0.750000 0.587296 0.250000
Si Si3 0.637987 0.805815 0.472525
Si Si4 0.094832 0.218475 0.636570
Si Si5 0.638326 0.950932 0.498951
Si Si6 0.806392 0.647769 0.004098
Si Si7 0.500000 0.378507 0.994641
O O1 0.190471 0.442147 0.350172
O O2 0.200277 0.384033 0.138254
O O3 0.697620 0.559218 0.137340
O O4 0.693021 0.618340 0.348462
O O5 0.622658 0.764114 0.573700
O O6 0.633082 0.791722 0.298052
O O7 0.723820 0.825969 0.505871
O O8 0.570029 0.841054 0.499210
O O9 0.123220 0.181210 0.522436
O O10 0.000000 0.218128 0.652807
O O11 0.569042 0.916174 0.504666
O O12 0.610845 0.000000 0.500000
#
# Coordination Sequence:
#
# PCOD9478181 Si02
#       7
#     8   8  16  16  16  16   8
#     4  10  19  40  67  84 124 160 198 251 313 380
#     4  10  23  40  65  92 124 158 208 249 315 374
#     4  12  24  42  61  88 129 169 217 254 310 364
#     4  12  24  38  61  93 124 168 215 262 300 355
#     4  11  23  41  68  96 120 158 209 265 324 382
#     4  11  22  42  61  91 123 172 206 250 310 376
#     4  12  21  42  64  88 128 166 206 262 315 380
#
# _framework density 18.891463000000002
#
# number of rings (size 3 to 8) (size 9 to 14) (size 15 to 20)
#    0.000    0.727    7.273    1.364    2.545    0.000 
#    4.909    0.000    0.000    0.000    0.000    7.636 
#    0.000    0.000    0.000    0.000    0.000    0.000 
#
# Total GULP energy -244968.721229 kJ/mol
# GULP energy per Si atom -5567.470937 kJ/mol
# Density = 1.884847 g / cm^3
# Si number density = 18.891463 Si / 1000 Ang^3
#
#
#
# Elastic Constant Matrix: (Units=GPa)
#
#
# Indices 1 2 3 4 5 6 
#
# 1 31.6751 -7.3669 -0.8390 0.0000 0.0000 0.0000
# 2 -7.3669 135.9971 23.4787 0.0000 0.0000 0.0000
# 3 -0.8390 23.4787 53.7004 0.0000 0.0000 0.0000
# 4 0.0000 0.0000 0.0000 7.5479 0.0000 0.0000
# 5 0.0000 0.0000 0.0000 0.0000 3.3014 0.0000
# 6 0.0000 0.0000 0.0000 0.0000 0.0000 30.0881
#
#
#
# Elastic Compliance Matrix: (Units=1/GPa)
#
#
# Indices 1 2 3 4 5 6 
#
# 1 0.031977 0.001780 -0.000279 0.000000 0.000000 0.000000
# 2 0.001780 0.008053 -0.003493 0.000000 0.000000 0.000000
# 3 -0.000279 -0.003493 0.020145 0.000000 0.000000 0.000000
# 4 0.000000 0.000000 0.000000 0.132487 0.000000 0.000000
# 5 0.000000 0.000000 0.000000 0.000000 0.302903 0.000000
# 6 0.000000 0.000000 0.000000 0.000000 0.000000 0.033236
#
#
# Mechanical properties :
#
#
# Convention : Reuss Voigt Hill
#
# Bulk Modulus (GPa) = 17.79622 27.99090 22.89356
# Shear Modulus (GPa) = 9.06597 21.92747 15.49672
#
# Velocity S-wave (km/s) = 2.19303 3.41061 2.86720
# Velocity P-wave (km/s) = 3.98161 5.50986 4.80686
#
# Compressibility (1/GPa) = 0.05619171
#
# Stress axis : x y z
#
# Youngs Moduli (GPa) = 31.27224 124.18421 49.64103
#
# Poissons Ratio (x) = -0.22109 0.01384
# Poissons Ratio (y) = -0.05567 0.17339
# Poissons Ratio (z) = 0.00872 0.43376
#
# Static dielectric constant tensor:
#      x y z
#    x 1.619530 0.000000 0.000000 
#    y 0.000000 1.639670 0.000000 
#    z 0.000000 0.000000 1.699110 
# 
# From -- ./inp_files/7357.got.cif
#   From: 2010.05.17/outbox.cif.g08.bks.cpg/sg64_4_cif.got.tgz:7357.got - 2010.06.03 16:29:19.
