data_PCOD9478178
_publ_section_title
;
Structure prediction by ZEFSAII (Michael W. Deem and Ramdas Pophale) SiO2 
 PCOD9478178
Probable space group: C M C A
;
_chemical_formula_sum "Si O2"
_cell_formula_units_Z 88
_cell_length_a 26.579112
_cell_length_b 13.453461
_cell_length_c 11.408517
_cell_angle_alpha 90.000000
_cell_angle_beta 90.000000
_cell_angle_gamma 90.000000
_cell_volume 4079.469450
_symmetry_space_group_name_H-M "C M C A"
_symmetry_group_IT_number 64
_symmetry_cell_setting 'orthorhombic'
loop_
_space_group_symop_operation_xyz
x,y,z
-x,1/2-y,1/2+z
x,-y,-z
-x,1/2+y,1/2-z
-x,-y,-z
x,1/2+y,1/2-z
-x,y,z
x,1/2-y,1/2+z
1/2+x,1/2+y,z
1/2-x,-y,1/2+z
1/2+x,1/2-y,-z
1/2-x,y,1/2-z
1/2-x,1/2-y,-z
1/2+x,y,1/2-z
1/2-x,1/2+y,z
1/2+x,-y,1/2+z
loop_
_atom_site_type_symbol
_atom_site_label
_atom_site_fract_x
_atom_site_fract_y
_atom_site_fract_z
Si Si1 0.500000 0.308084 0.705748
Si Si2 0.331185 0.365536 0.728843
Si Si3 0.108624 0.317868 0.542940
Si Si4 0.413947 0.104215 0.056785
Si Si5 0.750000 0.471375 0.250000
Si Si6 0.713945 0.192449 0.589682
Si Si7 0.000000 0.336759 0.518059
O O1 0.547789 0.370486 0.661368
O O2 0.500000 0.218051 0.610292
O O3 0.500000 0.289978 0.845994
O O4 0.370277 0.335888 0.828497
O O5 0.359404 0.403052 0.613375
O O6 0.296541 0.455566 0.765479
O O7 0.300302 0.268218 0.693457
O O8 0.090160 0.202906 0.524141
O O9 0.158614 0.334982 0.463263
O O10 0.057295 0.379417 0.518347
O O11 0.428554 0.000000 0.000000
O O12 0.745485 0.399711 0.138421
O O13 0.750000 0.250000 0.500000
#
# Coordination Sequence:
#
# PCOD9478178 Si02
#       7
#     8  16  16  16   8  16   8
#     4  10  19  40  66 100 139 178 244 285 351 429
#     4  11  24  40  64  97 128 174 228 285 350 429
#     4  10  22  42  66  96 138 176 230 290 355 436
#     4  10  22  37  66  96 132 177 232 288 343 414
#     4  12  26  42  68  90 130 178 226 288 362 422
#     4  11  25  43  65  95 134 174 235 295 356 429
#     4  10  20  40  68 103 137 192 224 298 365 436
#
# _framework density 21.571432000000001
#
# number of rings (size 3 to 8) (size 9 to 14) (size 15 to 20)
#    0.000    1.455    1.818    3.000    7.636    2.182 
#    0.000    0.000    0.000    3.273    0.000    0.000 
#    0.000    0.000    0.000    0.000    0.000    0.000 
#
# Total GULP energy -245072.755034 kJ/mol
# GULP energy per Si atom -5569.835342 kJ/mol
# Density = 2.152233 g / cm^3
# Si number density = 21.571432 Si / 1000 Ang^3
#
#
#
# Elastic Constant Matrix: (Units=GPa)
#
#
# Indices 1 2 3 4 5 6 
#
# 1 119.0797 13.1911 26.1185 0.0000 0.0000 0.0000
# 2 13.1911 72.9436 32.4529 0.0000 0.0000 0.0000
# 3 26.1185 32.4529 80.6559 0.0000 0.0000 0.0000
# 4 0.0000 0.0000 0.0000 28.6132 0.0000 0.0000
# 5 0.0000 0.0000 0.0000 0.0000 53.2432 0.0000
# 6 0.0000 0.0000 0.0000 0.0000 0.0000 25.7136
#
#
#
# Elastic Compliance Matrix: (Units=1/GPa)
#
#
# Indices 1 2 3 4 5 6 
#
# 1 0.009050 -0.000405 -0.002767 0.000000 0.000000 0.000000
# 2 -0.000405 0.016717 -0.006595 0.000000 0.000000 0.000000
# 3 -0.002767 -0.006595 0.015948 0.000000 0.000000 0.000000
# 4 0.000000 0.000000 0.000000 0.034949 0.000000 0.000000
# 5 0.000000 0.000000 0.000000 0.000000 0.018782 0.000000
# 6 0.000000 0.000000 0.000000 0.000000 0.000000 0.038890
#
#
# Mechanical properties :
#
#
# Convention : Reuss Voigt Hill
#
# Bulk Modulus (GPa) = 45.08756 46.24490 45.66623
# Shear Modulus (GPa) = 31.00524 34.90845 32.95684
#
# Velocity S-wave (km/s) = 3.79532 4.02714 3.91295
# Velocity P-wave (km/s) = 6.33663 6.56570 6.45218
#
# Compressibility (1/GPa) = 0.02217907
#
# Stress axis : x y z
#
# Youngs Moduli (GPa) = 110.50175 59.82073 62.70356
#
# Poissons Ratio (x) = 0.02425 0.17353
# Poissons Ratio (y) = 0.04479 0.41352
# Poissons Ratio (z) = 0.30581 0.39451
#
# Static dielectric constant tensor:
#      x y z
#    x 1.861260 0.000000 0.000000 
#    y 0.000000 1.836130 0.000000 
#    z 0.000000 0.000000 1.893120 
# 
# From -- ./inp_files/18237.got.cif
#   From: 2010.05.17/outbox.cif.g08.bks.cpg/sg64_10_cif.got.tgz:18237.got - 2010.06.03 16:29:19.
