data_PCOD9478758
_publ_section_title
;
Structure prediction by ZEFSAII (Michael W. Deem and Ramdas Pophale) SiO2 
 PCOD9478758
Probable space group: C M C A
;
_chemical_formula_sum "Si O2"
_cell_formula_units_Z 96
_cell_length_a 16.424440
_cell_length_b 14.405418
_cell_length_c 16.941110
_cell_angle_alpha 90.000000
_cell_angle_beta 90.000000
_cell_angle_gamma 90.000000
_cell_volume 4008.282273
_symmetry_space_group_name_H-M "C M C A"
_symmetry_group_IT_number 64
_symmetry_cell_setting 'orthorhombic'
loop_
_space_group_symop_operation_xyz
x,y,z
-x,1/2-y,1/2+z
x,-y,-z
-x,1/2+y,1/2-z
-x,-y,-z
x,1/2+y,1/2-z
-x,y,z
x,1/2-y,1/2+z
1/2+x,1/2+y,z
1/2-x,-y,1/2+z
1/2+x,1/2-y,-z
1/2-x,y,1/2-z
1/2-x,1/2-y,-z
1/2+x,y,1/2-z
1/2-x,1/2+y,z
1/2+x,-y,1/2+z
loop_
_atom_site_type_symbol
_atom_site_label
_atom_site_fract_x
_atom_site_fract_y
_atom_site_fract_z
Si Si1 0.096297 0.527128 0.156147
Si Si2 0.595511 0.860647 0.698591
Si Si3 0.707219 0.096284 0.021212
Si Si4 0.707433 0.202973 0.594376
Si Si5 0.095269 0.159335 0.756166
Si Si6 0.409391 0.396034 0.970819
O O1 0.130761 0.599283 0.221027
O O2 0.136520 0.547228 0.072417
O O3 0.107266 0.430296 0.202183
O O4 0.000000 0.540915 0.144834
O O5 0.500000 0.888650 0.700497
O O6 0.600518 0.750763 0.702773
O O7 0.627794 0.899612 0.616917
O O8 0.720067 0.188076 0.077496
O O9 0.712119 0.148007 0.935747
O O10 0.756429 0.000000 0.000000
O O11 0.664088 0.173449 0.676128
O O12 0.642776 0.165786 0.529300
O O13 0.000000 0.155932 0.787889
O O14 0.500000 0.353630 0.964654
O O15 0.419627 0.500000 0.000000
#
# Coordination Sequence:
#
# PCOD9478758 Si02
#       6
#    16  16  16  16  16  16
#     4  10  21  40  68 100 135 173 223 288 354 416
#     4   9  18  34  57  93 131 161 213 281 334 399
#     4  11  26  44  64  93 138 184 232 284 343 426
#     4  11  23  43  67  92 136 186 230 283 349 428
#     4  10  20  38  69 102 132 175 230 292 358 418
#     4  10  20  35  62  98 130 170 227 284 343 410
#
# _framework density 23.950409000000001
#
# number of rings (size 3 to 8) (size 9 to 14) (size 15 to 20)
#    0.000    1.833    1.667    2.000    2.333    3.667 
#    0.000    3.333    0.000    0.000    0.000    0.000 
#    0.000    0.000    0.000    0.000    0.000    0.000 
#
# Total GULP energy -267346.127150 kJ/mol
# GULP energy per Si atom -5569.710982 kJ/mol
# Density = 2.389590 g / cm^3
# Si number density = 23.950409 Si / 1000 Ang^3
#
#
#
# Elastic Constant Matrix: (Units=GPa)
#
#
# Indices 1 2 3 4 5 6 
#
# 1 81.8231 40.3413 74.0370 0.0000 0.0000 0.0000
# 2 40.3413 156.7007 37.6617 0.0000 0.0000 0.0000
# 3 74.0370 37.6617 153.5965 0.0000 0.0000 0.0000
# 4 0.0000 0.0000 0.0000 37.8675 0.0000 0.0000
# 5 0.0000 0.0000 0.0000 0.0000 49.7493 0.0000
# 6 0.0000 0.0000 0.0000 0.0000 0.0000 22.3113
#
#
#
# Elastic Compliance Matrix: (Units=1/GPa)
#
#
# Indices 1 2 3 4 5 6 
#
# 1 0.023366 -0.003516 -0.010401 0.000000 0.000000 0.000000
# 2 -0.003516 0.007310 -0.000098 0.000000 0.000000 0.000000
# 3 -0.010401 -0.000098 0.011548 0.000000 0.000000 0.000000
# 4 0.000000 0.000000 0.000000 0.026408 0.000000 0.000000
# 5 0.000000 0.000000 0.000000 0.000000 0.020101 0.000000
# 6 0.000000 0.000000 0.000000 0.000000 0.000000 0.044820
#
#
# Mechanical properties :
#
#
# Convention : Reuss Voigt Hill
#
# Bulk Modulus (GPa) = 70.44504 77.35558 73.90031
# Shear Modulus (GPa) = 30.06369 37.99099 34.02734
#
# Velocity S-wave (km/s) = 3.54679 3.98708 3.77336
# Velocity P-wave (km/s) = 6.80071 7.31875 7.06448
#
# Compressibility (1/GPa) = 0.01419546
#
# Stress axis : x y z
#
# Youngs Moduli (GPa) = 42.79731 136.79570 86.59495
#
# Poissons Ratio (x) = 0.48092 0.90066
# Poissons Ratio (y) = 0.15046 0.00847
# Poissons Ratio (z) = 0.44513 0.01338
#
# Static dielectric constant tensor:
#      x y z
#    x 2.062610 0.000000 0.000000 
#    y 0.000000 1.907740 0.000000 
#    z 0.000000 0.000000 1.957050 
# 
# From -- ./inp_files/26314.got.cif
#   From: 2010.05.17/outbox.cif.g08.bks.cpg/sg64_14_cif.got.tgz:26314.got - 2010.06.03 16:29:19.
