data_PCOD9478523
_publ_section_title
;
Structure prediction by ZEFSAII (Michael W. Deem and Ramdas Pophale) SiO2 
 PCOD9478523
Probable space group: C M C A
;
_chemical_formula_sum "Si O2"
_cell_formula_units_Z 96
_cell_length_a 15.129216
_cell_length_b 24.477316
_cell_length_c 11.502443
_cell_angle_alpha 90.000000
_cell_angle_beta 90.000000
_cell_angle_gamma 90.000000
_cell_volume 4259.614608
_symmetry_space_group_name_H-M "C M C A"
_symmetry_group_IT_number 64
_symmetry_cell_setting 'orthorhombic'
loop_
_space_group_symop_operation_xyz
x,y,z
-x,1/2-y,1/2+z
x,-y,-z
-x,1/2+y,1/2-z
-x,-y,-z
x,1/2+y,1/2-z
-x,y,z
x,1/2-y,1/2+z
1/2+x,1/2+y,z
1/2-x,-y,1/2+z
1/2+x,1/2-y,-z
1/2-x,y,1/2-z
1/2-x,1/2-y,-z
1/2+x,y,1/2-z
1/2-x,1/2+y,z
1/2+x,-y,1/2+z
loop_
_atom_site_type_symbol
_atom_site_label
_atom_site_fract_x
_atom_site_fract_y
_atom_site_fract_z
Si Si1 0.399124 0.314877 0.148749
Si Si2 0.655368 0.592588 0.708035
Si Si3 0.106483 0.524387 0.281143
Si Si4 0.606953 0.408739 0.551759
Si Si5 0.108258 0.126030 0.079591
Si Si6 0.392202 0.194915 0.195923
O O1 0.500000 0.302597 0.112274
O O2 0.402978 0.355404 0.257976
O O3 0.358474 0.256034 0.176128
O O4 0.360028 0.349439 0.041663
O O5 0.750000 0.611322 0.750000
O O6 0.634408 0.538108 0.781153
O O7 0.646683 0.578764 0.573076
O O8 0.137790 0.565264 0.382700
O O9 0.000000 0.524706 0.283672
O O10 0.133123 0.551753 0.158083
O O11 0.500000 0.412876 0.541214
O O12 0.629949 0.347588 0.593857
O O13 0.135393 0.166810 0.183305
O O14 0.000000 0.123439 0.077170
O O15 0.500000 0.196083 0.202352
#
# Coordination Sequence:
#
# PCOD9478523 Si02
#       6
#    16  16  16  16  16  16
#     4  10  20  34  57  86 114 146 178 223 281 331
#     4  12  25  37  49  81 119 149 185 226 273 333
#     4   9  18  38  63  82 105 141 190 241 278 318
#     4   9  18  37  65  87 104 139 191 240 276 315
#     4   8  16  32  55  86 112 134 175 227 282 331
#     4   8  16  31  59  90 110 134 178 233 273 316
#
# _framework density 22.53725
#
# number of rings (size 3 to 8) (size 9 to 14) (size 15 to 20)
#    0.000    2.667    0.000    4.000    2.333    2.000 
#    6.000    3.333    0.000    0.000    0.000    0.000 
#    0.000    0.000    0.000    0.000    0.000    0.000 
#
# Total GULP energy -267998.067262 kJ/mol
# GULP energy per Si atom -5583.293068 kJ/mol
# Density = 2.248595 g / cm^3
# Si number density = 22.537250 Si / 1000 Ang^3
#
#
#
# Elastic Constant Matrix: (Units=GPa)
#
#
# Indices 1 2 3 4 5 6 
#
# 1 33.2124 -1.1710 -1.6229 0.0000 0.0000 0.0000
# 2 -1.1710 138.2603 7.8568 0.0000 0.0000 0.0000
# 3 -1.6229 7.8568 36.4972 0.0000 0.0000 0.0000
# 4 0.0000 0.0000 0.0000 15.0774 0.0000 0.0000
# 5 0.0000 0.0000 0.0000 0.0000 -11.6349 0.0000
# 6 0.0000 0.0000 0.0000 0.0000 0.0000 104.6417
#
#
#
# Elastic Compliance Matrix: (Units=1/GPa)
#
#
# Indices 1 2 3 4 5 6 
#
# 1 0.030179 0.000182 0.001303 0.000000 0.000000 0.000000
# 2 0.000182 0.007323 -0.001568 0.000000 0.000000 0.000000
# 3 0.001303 -0.001568 0.027795 0.000000 0.000000 0.000000
# 4 0.000000 0.000000 0.000000 0.066325 0.000000 0.000000
# 5 0.000000 0.000000 0.000000 0.000000 -0.085948 0.000000
# 6 0.000000 0.000000 0.000000 0.000000 0.000000 0.009556
#
#
# Mechanical properties :
#
#
# Convention : Reuss Voigt Hill
#
# Bulk Modulus (GPa) = 15.35401 24.23285 19.79343
# Shear Modulus (GPa) = 64.84364 35.14396 49.99380
#
# Velocity S-wave (km/s) = 5.36975 3.95317 4.71497
# Velocity P-wave (km/s) = 6.72853 5.62250 6.20023
#
# Compressibility (1/GPa) = 0.06512957
#
# Stress axis : x y z
#
# Youngs Moduli (GPa) = 33.13534 136.54857 35.97775
#
# Poissons Ratio (x) = -0.02479 -0.04687
# Poissons Ratio (y) = -0.00602 0.05643
# Poissons Ratio (z) = -0.04317 0.21417
#
# Static dielectric constant tensor:
#      x y z
#    x 1.895810 0.000000 0.000000 
#    y 0.000000 1.847250 0.000000 
#    z 0.000000 0.000000 1.812940 
# 
# From -- ./inp_files/16202.got.cif
#   From: 2010.05.17/outbox.cif.g08.bks.cpg/sg64_9_cif.got.tgz:16202.got - 2010.06.03 16:29:19.
