data_PCOD9478863
_publ_section_title
;
Structure prediction by ZEFSAII (Michael W. Deem and Ramdas Pophale) SiO2 
 PCOD9478863
Probable space group: C M C A
;
_chemical_formula_sum "Si O2"
_cell_formula_units_Z 96
_cell_length_a 8.720395
_cell_length_b 24.157566
_cell_length_c 25.783382
_cell_angle_alpha 90.000000
_cell_angle_beta 90.000000
_cell_angle_gamma 90.000000
_cell_volume 5431.617952
_symmetry_space_group_name_H-M "C M C A"
_symmetry_group_IT_number 64
_symmetry_cell_setting 'orthorhombic'
loop_
_space_group_symop_operation_xyz
x,y,z
-x,1/2-y,1/2+z
x,-y,-z
-x,1/2+y,1/2-z
-x,-y,-z
x,1/2+y,1/2-z
-x,y,z
x,1/2-y,1/2+z
1/2+x,1/2+y,z
1/2-x,-y,1/2+z
1/2+x,1/2-y,-z
1/2-x,y,1/2-z
1/2-x,1/2-y,-z
1/2+x,y,1/2-z
1/2-x,1/2+y,z
1/2+x,-y,1/2+z
loop_
_atom_site_type_symbol
_atom_site_label
_atom_site_fract_x
_atom_site_fract_y
_atom_site_fract_z
Si Si1 0.316660 0.311443 0.999632
Si Si2 0.183148 0.687906 0.807147
Si Si3 0.684335 0.808171 0.806924
Si Si4 0.683509 0.617394 0.898976
Si Si5 0.315180 0.003113 0.938855
Si Si6 0.184767 0.381289 0.904416
O O1 0.500000 0.308737 0.997439
O O2 0.255089 0.345281 0.950582
O O3 0.250000 0.250000 0.000000
O O4 0.273077 0.344186 0.051915
O O5 0.250000 0.676369 0.750000
O O6 0.249396 0.748210 0.822780
O O7 0.238006 0.642698 0.848264
O O8 0.000000 0.690764 0.804754
O O9 0.500000 0.804107 0.804164
O O10 0.750000 0.820734 0.750000
O O11 0.726761 0.853846 0.849605
O O12 0.500000 0.619231 0.893003
O O13 0.737492 0.555697 0.912447
O O14 0.500000 0.009270 0.935790
O O15 0.270855 0.945179 0.912176
O O16 0.274755 0.000000 0.000000
O O17 0.000000 0.378573 0.909034
#
# Coordination Sequence:
#
# PCOD9478863 Si02
#       6
#    16  16  16  16  16  16
#     4  11  23  35  53  81 114 147 183 230 284 340
#     4  11  22  38  61  86 114 149 189 232 283 339
#     4  10  20  36  58  84 115 148 185 230 281 337
#     4  11  23  38  56  83 116 149 189 235 283 338
#     4  10  20  37  60  82 110 153 196 235 284 340
#     4  10  21  37  57  82 112 146 189 236 282 335
#
# _framework density 17.674292000000001
#
# number of rings (size 3 to 8) (size 9 to 14) (size 15 to 20)
#    0.000    1.500    1.667    5.000    0.000    8.333 
#    0.000    0.833    0.000    2.000    0.000    0.000 
#    0.000    0.000    0.000    0.000    0.000    0.000 
#
# Total GULP energy -268263.350785 kJ/mol
# GULP energy per Si atom -5588.819808 kJ/mol
# Density = 1.763406 g / cm^3
# Si number density = 17.674292 Si / 1000 Ang^3
#
#
#
# Elastic Constant Matrix: (Units=GPa)
#
#
# Indices 1 2 3 4 5 6 
#
# 1 60.6273 56.0978 50.2338 0.0000 0.0000 0.0000
# 2 56.0978 174.7427 95.0284 0.0000 0.0000 0.0000
# 3 50.2338 95.0284 112.1305 0.0000 0.0000 0.0000
# 4 0.0000 0.0000 0.0000 18.5729 0.0000 0.0000
# 5 0.0000 0.0000 0.0000 0.0000 25.6503 0.0000
# 6 0.0000 0.0000 0.0000 0.0000 0.0000 27.8859
#
#
#
# Elastic Compliance Matrix: (Units=1/GPa)
#
#
# Indices 1 2 3 4 5 6 
#
# 1 0.027639 -0.003968 -0.009019 0.000000 0.000000 0.000000
# 2 -0.003968 0.011185 -0.007701 0.000000 0.000000 0.000000
# 3 -0.009019 -0.007701 0.019485 0.000000 0.000000 0.000000
# 4 0.000000 0.000000 0.000000 0.053842 0.000000 0.000000
# 5 0.000000 0.000000 0.000000 0.000000 0.038986 0.000000
# 6 0.000000 0.000000 0.000000 0.000000 0.000000 0.035860
#
#
# Mechanical properties :
#
#
# Convention : Reuss Voigt Hill
#
# Bulk Modulus (GPa) = 59.05967 83.35783 71.20875
# Shear Modulus (GPa) = 21.36596 24.16453 22.76524
#
# Velocity S-wave (km/s) = 3.48066 3.70160 3.59282
# Velocity P-wave (km/s) = 7.04567 8.09536 7.58868
#
# Compressibility (1/GPa) = 0.01693203
#
# Stress axis : x y z
#
# Youngs Moduli (GPa) = 36.18096 89.40927 51.32126
#
# Poissons Ratio (x) = 0.35479 0.46287
# Poissons Ratio (y) = 0.14357 0.39522
# Poissons Ratio (z) = 0.32632 0.68854
#
# Static dielectric constant tensor:
#      x y z
#    x 1.593640 0.000000 0.000000 
#    y 0.000000 1.577650 0.000000 
#    z 0.000000 0.000000 1.583560 
# 
# From -- ./inp_files/42975.got.cif
#   From: 2010.05.17/outbox.cif.g08.bks.cpg/sg64_22_cif.got.tgz:42975.got - 2010.06.03 16:29:19.
