data_PCOD9478117
_publ_section_title
;
Structure prediction by ZEFSAII (Michael W. Deem and Ramdas Pophale) SiO2 
 PCOD9478117
Probable space group: C M C A
;
_chemical_formula_sum "Si O2"
_cell_formula_units_Z 64
_cell_length_a 18.055337
_cell_length_b 15.172157
_cell_length_c 10.088874
_cell_angle_alpha 90.000000
_cell_angle_beta 90.000000
_cell_angle_gamma 90.000000
_cell_volume 2763.730079
_symmetry_space_group_name_H-M "C M C A"
_symmetry_group_IT_number 64
_symmetry_cell_setting 'orthorhombic'
loop_
_space_group_symop_operation_xyz
x,y,z
-x,1/2-y,1/2+z
x,-y,-z
-x,1/2+y,1/2-z
-x,-y,-z
x,1/2+y,1/2-z
-x,y,z
x,1/2-y,1/2+z
1/2+x,1/2+y,z
1/2-x,-y,1/2+z
1/2+x,1/2-y,-z
1/2-x,y,1/2-z
1/2-x,1/2-y,-z
1/2+x,y,1/2-z
1/2-x,1/2+y,z
1/2+x,-y,1/2+z
loop_
_atom_site_type_symbol
_atom_site_label
_atom_site_fract_x
_atom_site_fract_y
_atom_site_fract_z
Si Si1 0.085835 0.795168 0.104229
Si Si2 0.644238 0.078702 0.390791
Si Si3 0.796050 0.663714 0.051920
Si Si4 0.336628 0.434810 0.293838
O O1 0.116158 0.865194 0.209593
O O2 0.000000 0.776955 0.119957
O O3 0.099702 0.840638 0.958417
O O4 0.137227 0.710409 0.127193
O O5 0.729432 0.108567 0.387171
O O6 0.637862 0.000000 0.500000
O O7 0.630529 0.029197 0.251500
O O8 0.832686 0.601239 0.941683
O O9 0.750000 0.750000 0.000000
O O10 0.250000 0.430150 0.250000
#
# Coordination Sequence:
#
# PCOD9478117 Si02
#       4
#    16  16  16  16
#     4  10  22  39  60  92 129 162 197 248 312 371
#     4   9  18  34  59  92 114 155 202 255 298 353
#     4  10  19  38  60  90 121 158 206 257 298 358
#     4  11  19  36  62  90 118 155 211 256 304 356
#
# _framework density 23.157109999999999
#
# number of rings (size 3 to 8) (size 9 to 14) (size 15 to 20)
#    0.000    2.000    7.500    0.000    0.000    5.500 
#    9.000    0.000    0.000    2.250    0.000    0.000 
#    0.000    0.000    0.000    0.000    0.000    0.000 
#
# Total GULP energy -178596.828036 kJ/mol
# GULP energy per Si atom -5581.150876 kJ/mol
# Density = 2.310440 g / cm^3
# Si number density = 23.157110 Si / 1000 Ang^3
#
#
#
# Elastic Constant Matrix: (Units=GPa)
#
#
# Indices 1 2 3 4 5 6 
#
# 1 108.3586 5.9307 -11.3442 0.0000 0.0000 0.0000
# 2 5.9307 112.5256 20.1642 0.0000 0.0000 0.0000
# 3 -11.3442 20.1642 57.5581 0.0000 0.0000 0.0000
# 4 0.0000 0.0000 0.0000 27.9209 0.0000 0.0000
# 5 0.0000 0.0000 0.0000 0.0000 18.7448 0.0000
# 6 0.0000 0.0000 0.0000 0.0000 0.0000 43.2760
#
#
#
# Elastic Compliance Matrix: (Units=1/GPa)
#
#
# Indices 1 2 3 4 5 6 
#
# 1 0.009506 -0.000893 0.002186 0.000000 0.000000 0.000000
# 2 -0.000893 0.009566 -0.003527 0.000000 0.000000 0.000000
# 3 0.002186 -0.003527 0.019040 0.000000 0.000000 0.000000
# 4 0.000000 0.000000 0.000000 0.035815 0.000000 0.000000
# 5 0.000000 0.000000 0.000000 0.000000 0.053348 0.000000
# 6 0.000000 0.000000 0.000000 0.000000 0.000000 0.023108
#
#
# Mechanical properties :
#
#
# Convention : Reuss Voigt Hill
#
# Bulk Modulus (GPa) = 29.72168 34.21596 31.96882
# Shear Modulus (GPa) = 30.10850 35.56779 32.83815
#
# Velocity S-wave (km/s) = 3.60972 3.92335 3.76980
# Velocity P-wave (km/s) = 5.49873 5.94401 5.72570
#
# Compressibility (1/GPa) = 0.03364547
#
# Stress axis : x y z
#
# Youngs Moduli (GPa) = 105.19255 104.53707 52.52004
#
# Poissons Ratio (x) = 0.09333 -0.11483
# Poissons Ratio (y) = 0.09392 0.18525
# Poissons Ratio (z) = -0.22999 0.36872
#
# Static dielectric constant tensor:
#      x y z
#    x 1.787380 0.000000 0.000000 
#    y 0.000000 1.900240 0.000000 
#    z 0.000000 0.000000 1.990750 
# 
# From -- ./inp_files/15450.got.cif
#   From: 2010.05.17/outbox.cif.g08.bks.cpg/sg64_8_cif.got.tgz:15450.got - 2010.06.03 16:29:19.
