data_PCOD9478937
_publ_section_title
;
Structure prediction by ZEFSAII (Michael W. Deem and Ramdas Pophale) SiO2 
 PCOD9478937
Probable space group: C M C A
;
_chemical_formula_sum "Si O2"
_cell_formula_units_Z 104
_cell_length_a 19.065167
_cell_length_b 14.551637
_cell_length_c 19.535115
_cell_angle_alpha 90.000000
_cell_angle_beta 90.000000
_cell_angle_gamma 90.000000
_cell_volume 5419.615029
_symmetry_space_group_name_H-M "C M C A"
_symmetry_group_IT_number 64
_symmetry_cell_setting 'orthorhombic'
loop_
_space_group_symop_operation_xyz
x,y,z
-x,1/2-y,1/2+z
x,-y,-z
-x,1/2+y,1/2-z
-x,-y,-z
x,1/2+y,1/2-z
-x,y,z
x,1/2-y,1/2+z
1/2+x,1/2+y,z
1/2-x,-y,1/2+z
1/2+x,1/2-y,-z
1/2-x,y,1/2-z
1/2-x,1/2-y,-z
1/2+x,y,1/2-z
1/2-x,1/2+y,z
1/2+x,-y,1/2+z
loop_
_atom_site_type_symbol
_atom_site_label
_atom_site_fract_x
_atom_site_fract_y
_atom_site_fract_z
Si Si1 0.081727 0.456560 0.431363
Si Si2 0.750000 0.179060 0.250000
Si Si3 0.714386 0.227008 0.891442
Si Si4 0.671157 0.514302 0.195239
Si Si5 0.670427 0.961201 0.161875
Si Si6 0.646563 0.277035 0.021341
Si Si7 0.082989 0.078601 0.441854
O O1 0.113749 0.500000 0.500000
O O2 0.117894 0.499043 0.365207
O O3 0.093481 0.348613 0.444529
O O4 0.000000 0.477792 0.427912
O O5 0.747624 0.236242 0.320283
O O6 0.683797 0.111430 0.265767
O O7 0.670384 0.136321 0.874905
O O8 0.780670 0.205280 0.939115
O O9 0.664612 0.289275 0.940329
O O10 0.651805 0.448544 0.258411
O O11 0.748055 0.492523 0.164479
O O12 0.622874 0.035008 0.123234
O O13 0.619960 0.173284 0.034925
O O14 0.000000 0.093743 0.429440
O O15 0.089427 0.000000 0.500000
#
# Coordination Sequence:
#
# PCOD9478937 Si02
#       7
#    16   8  16  16  16  16  16
#     4  11  24  41  62  89 128 171 216 269 329 398
#     4  10  20  36  60  90 122 158 200 260 320 372
#     4  11  21  35  61  95 124 158 208 265 321 382
#     4  10  21  38  61  89 120 161 208 268 326 387
#     4  10  20  39  61  91 124 160 209 270 323 387
#     4  11  22  39  61  95 124 166 216 266 321 396
#     4  11  23  40  62  90 130 176 218 267 327 389
#
# _framework density 19.189554999999999
#
# number of rings (size 3 to 8) (size 9 to 14) (size 15 to 20)
#    0.000    1.538    3.077    4.154    0.000    2.462 
#    0.000    0.000    0.000    0.000    0.000    0.000 
#    0.000    0.000    0.000    0.000    0.000    0.000 
#
# Total GULP energy -289752.345899 kJ/mol
# GULP energy per Si atom -5572.160498 kJ/mol
# Density = 1.914588 g / cm^3
# Si number density = 19.189555 Si / 1000 Ang^3
#
#
#
# Elastic Constant Matrix: (Units=GPa)
#
#
# Indices 1 2 3 4 5 6 
#
# 1 50.5867 3.9151 57.8171 0.0000 0.0000 0.0000
# 2 3.9151 73.1070 35.8343 0.0000 0.0000 0.0000
# 3 57.8171 35.8343 149.3675 0.0000 0.0000 0.0000
# 4 0.0000 0.0000 0.0000 25.7188 0.0000 0.0000
# 5 0.0000 0.0000 0.0000 0.0000 25.3529 0.0000
# 6 0.0000 0.0000 0.0000 0.0000 0.0000 12.7733
#
#
#
# Elastic Compliance Matrix: (Units=1/GPa)
#
#
# Indices 1 2 3 4 5 6 
#
# 1 0.037495 0.005786 -0.015902 0.000000 0.000000 0.000000
# 2 0.005786 0.016394 -0.006173 0.000000 0.000000 0.000000
# 3 -0.015902 -0.006173 0.014331 0.000000 0.000000 0.000000
# 4 0.000000 0.000000 0.000000 0.038882 0.000000 0.000000
# 5 0.000000 0.000000 0.000000 0.000000 0.039443 0.000000
# 6 0.000000 0.000000 0.000000 0.000000 0.000000 0.078288
#
#
# Mechanical properties :
#
#
# Convention : Reuss Voigt Hill
#
# Bulk Modulus (GPa) = 28.05532 52.02157 40.03845
# Shear Modulus (GPa) = 18.56725 24.46864 21.51794
#
# Velocity S-wave (km/s) = 3.11395 3.57473 3.35227
# Velocity P-wave (km/s) = 5.25174 6.64879 5.99113
#
# Compressibility (1/GPa) = 0.03564386
#
# Stress axis : x y z
#
# Youngs Moduli (GPa) = 26.67048 60.99620 69.77875
#
# Poissons Ratio (x) = -0.35295 1.10959
# Poissons Ratio (y) = -0.15433 0.43074
# Poissons Ratio (z) = 0.42410 0.37653
#
# Static dielectric constant tensor:
#      x y z
#    x 1.640170 0.000000 0.000000 
#    y 0.000000 1.756500 0.000000 
#    z 0.000000 0.000000 1.722280 
# 
# From -- ./inp_files/34358.got.cif
#   From: 2010.05.17/outbox.cif.g08.bks.cpg/sg64_18_cif.got.tgz:34358.got - 2010.06.03 16:29:19.
