data_PCOD9478151
_publ_section_title
;
Structure prediction by ZEFSAII (Michael W. Deem and Ramdas Pophale) SiO2 
 PCOD9478151
Probable space group: C M C A
;
_chemical_formula_sum "Si O2"
_cell_formula_units_Z 64
_cell_length_a 9.032986
_cell_length_b 21.756735
_cell_length_c 13.891261
_cell_angle_alpha 90.000000
_cell_angle_beta 90.000000
_cell_angle_gamma 90.000000
_cell_volume 2730.025668
_symmetry_space_group_name_H-M "C M C A"
_symmetry_group_IT_number 64
_symmetry_cell_setting 'orthorhombic'
loop_
_space_group_symop_operation_xyz
x,y,z
-x,1/2-y,1/2+z
x,-y,-z
-x,1/2+y,1/2-z
-x,-y,-z
x,1/2+y,1/2-z
-x,y,z
x,1/2-y,1/2+z
1/2+x,1/2+y,z
1/2-x,-y,1/2+z
1/2+x,1/2-y,-z
1/2-x,y,1/2-z
1/2-x,1/2-y,-z
1/2+x,y,1/2-z
1/2-x,1/2+y,z
1/2+x,-y,1/2+z
loop_
_atom_site_type_symbol
_atom_site_label
_atom_site_fract_x
_atom_site_fract_y
_atom_site_fract_z
Si Si1 0.335920 0.865569 0.111781
Si Si2 0.000000 0.841813 0.101298
Si Si3 0.277975 0.002340 0.856926
Si Si4 0.500000 0.397158 0.703125
Si Si5 0.000000 0.799307 0.546830
Si Si6 0.000000 0.930138 0.917468
O O1 0.500000 0.854541 0.162295
O O2 0.339141 0.938574 0.088135
O O3 0.166910 0.851839 0.147244
O O4 0.361304 0.824878 0.015636
O O5 0.000000 0.772564 0.062342
O O6 0.000000 0.889230 0.011657
O O7 0.250000 0.029509 0.750000
O O8 0.369203 0.941352 0.832896
O O9 0.135391 0.975942 0.905725
O O10 0.500000 0.333459 0.648618
O O11 0.500000 0.390688 0.817969
#
# Coordination Sequence:
#
# PCOD9478151 Si02
#       6
#    16   8  16   8   8   8
#     4  10  23  39  64  89 121 163 198 255 313 356
#     4  12  23  43  57  93 125 162 219 248 297 362
#     4  10  20  38  61  92 125 154 201 255 315 375
#     4  10  19  39  61  89 118 162 203 250 314 369
#     4  10  23  39  63  87 123 168 215 256 289 366
#     4  10  23  35  61  89 126 158 197 264 310 363
#
# _framework density 23.443003000000001
#
# number of rings (size 3 to 8) (size 9 to 14) (size 15 to 20)
#    0.750    1.000    1.250    3.000    0.000    6.000 
#    0.000    2.500    0.000    0.000    0.000    0.000 
#    0.000    0.000    0.000    0.000    0.000    0.000 
#
# Total GULP energy -178294.993146 kJ/mol
# GULP energy per Si atom -5571.718536 kJ/mol
# Density = 2.338965 g / cm^3
# Si number density = 23.443003 Si / 1000 Ang^3
#
#
#
# Elastic Constant Matrix: (Units=GPa)
#
#
# Indices 1 2 3 4 5 6 
#
# 1 202.1607 37.6507 52.5748 0.0000 0.0000 0.0000
# 2 37.6507 149.6231 26.8853 0.0000 0.0000 0.0000
# 3 52.5748 26.8853 73.5876 0.0000 0.0000 0.0000
# 4 0.0000 0.0000 0.0000 33.3982 0.0000 0.0000
# 5 0.0000 0.0000 0.0000 0.0000 33.4328 0.0000
# 6 0.0000 0.0000 0.0000 0.0000 0.0000 30.0452
#
#
#
# Elastic Compliance Matrix: (Units=1/GPa)
#
#
# Indices 1 2 3 4 5 6 
#
# 1 0.006167 -0.000813 -0.004108 0.000000 0.000000 0.000000
# 2 -0.000813 0.007260 -0.002071 0.000000 0.000000 0.000000
# 3 -0.004108 -0.002071 0.017281 0.000000 0.000000 0.000000
# 4 0.000000 0.000000 0.000000 0.029942 0.000000 0.000000
# 5 0.000000 0.000000 0.000000 0.000000 0.029911 0.000000
# 6 0.000000 0.000000 0.000000 0.000000 0.000000 0.033283
#
#
# Mechanical properties :
#
#
# Convention : Reuss Voigt Hill
#
# Bulk Modulus (GPa) = 59.80313 73.28810 66.54562
# Shear Modulus (GPa) = 34.86641 39.92594 37.39618
#
# Velocity S-wave (km/s) = 3.86072 4.13135 3.99832
# Velocity P-wave (km/s) = 6.74084 7.35442 7.05430
#
# Compressibility (1/GPa) = 0.01672153
#
# Stress axis : x y z
#
# Youngs Moduli (GPa) = 162.16561 137.73414 57.86585
#
# Poissons Ratio (x) = 0.11204 0.23774
# Poissons Ratio (y) = 0.13192 0.11986
# Poissons Ratio (z) = 0.66625 0.28530
#
# Static dielectric constant tensor:
#      x y z
#    x 1.885360 0.000000 0.000000 
#    y 0.000000 1.748830 0.000000 
#    z 0.000000 0.000000 2.060430 
# 
# From -- ./inp_files/20950.got.cif
#   From: 2010.05.17/outbox.cif.g08.bks.cpg/sg64_11_cif.got.tgz:20950.got - 2010.06.03 16:29:19.
