data_PCOD9478748
_publ_section_title
;
Structure prediction by ZEFSAII (Michael W. Deem and Ramdas Pophale) SiO2 
 PCOD9478748
Probable space group: C M C A
;
_chemical_formula_sum "Si O2"
_cell_formula_units_Z 96
_cell_length_a 15.628560
_cell_length_b 10.724460
_cell_length_c 25.797887
_cell_angle_alpha 90.000000
_cell_angle_beta 90.000000
_cell_angle_gamma 90.000000
_cell_volume 4323.928802
_symmetry_space_group_name_H-M "C M C A"
_symmetry_group_IT_number 64
_symmetry_cell_setting 'orthorhombic'
loop_
_space_group_symop_operation_xyz
x,y,z
-x,1/2-y,1/2+z
x,-y,-z
-x,1/2+y,1/2-z
-x,-y,-z
x,1/2+y,1/2-z
-x,y,z
x,1/2-y,1/2+z
1/2+x,1/2+y,z
1/2-x,-y,1/2+z
1/2+x,1/2-y,-z
1/2-x,y,1/2-z
1/2-x,1/2-y,-z
1/2+x,y,1/2-z
1/2-x,1/2+y,z
1/2+x,-y,1/2+z
loop_
_atom_site_type_symbol
_atom_site_label
_atom_site_fract_x
_atom_site_fract_y
_atom_site_fract_z
Si Si1 0.847872 0.827328 0.131568
Si Si2 0.252532 0.523716 0.409489
Si Si3 0.307602 0.378263 0.699676
Si Si4 0.596468 0.126249 0.464737
Si Si5 0.500000 0.338409 0.733782
Si Si6 0.905950 0.351151 0.954771
Si Si7 0.500000 0.557721 0.810849
O O1 0.797055 0.762696 0.178121
O O2 0.900490 0.725534 0.099393
O O3 0.915337 0.923629 0.154799
O O4 0.785271 0.886444 0.089631
O O5 0.279618 0.541458 0.349727
O O6 0.174388 0.614000 0.425057
O O7 0.330588 0.551142 0.447025
O O8 0.250000 0.402183 0.750000
O O9 0.409594 0.384064 0.709746
O O10 0.500000 0.127428 0.442133
O O11 0.605042 0.248890 0.500253
O O12 0.600931 0.000000 0.500000
O O13 0.500000 0.420408 0.786362
O O14 0.500000 0.185041 0.726854
O O15 0.000000 0.406887 0.958503
#
# Coordination Sequence:
#
# PCOD9478748 Si02
#       7
#    16  16  16  16   8  16   8
#     4  10  20  35  61  90 121 167 212 269 319 399
#     4  11  22  34  63  95 119 161 216 266 320 392
#     4  10  23  41  58  88 127 165 216 268 336 390
#     4  10  20  36  62  97 125 158 212 269 332 391
#     4  10  22  40  62  92 123 180 224 278 340 412
#     4  10  20  38  62  90 129 164 203 261 327 403
#     4  10  20  36  64  91 132 170 233 277 341 397
#
# _framework density 22.202031000000002
#
# number of rings (size 3 to 8) (size 9 to 14) (size 15 to 20)
#    0.000    1.833    2.500    1.500    4.667    3.333 
#    1.500    0.000    1.833    1.500    0.000    0.000 
#    0.000    0.000    0.000    0.000    0.000    0.000 
#
# Total GULP energy -267768.921353 kJ/mol
# GULP energy per Si atom -5578.519195 kJ/mol
# Density = 2.215150 g / cm^3
# Si number density = 22.202031 Si / 1000 Ang^3
#
#
#
# Elastic Constant Matrix: (Units=GPa)
#
#
# Indices 1 2 3 4 5 6 
#
# 1 136.1775 43.4424 42.3668 0.0000 0.0000 0.0000
# 2 43.4424 45.5009 20.6089 0.0000 0.0000 0.0000
# 3 42.3668 20.6089 83.6229 0.0000 0.0000 0.0000
# 4 0.0000 0.0000 0.0000 50.7625 0.0000 0.0000
# 5 0.0000 0.0000 0.0000 0.0000 5.4487 0.0000
# 6 0.0000 0.0000 0.0000 0.0000 0.0000 20.9956
#
#
#
# Elastic Compliance Matrix: (Units=1/GPa)
#
#
# Indices 1 2 3 4 5 6 
#
# 1 0.011393 -0.009302 -0.003480 0.000000 0.000000 0.000000
# 2 -0.009302 0.032333 -0.003256 0.000000 0.000000 0.000000
# 3 -0.003480 -0.003256 0.014524 0.000000 0.000000 0.000000
# 4 0.000000 0.000000 0.000000 0.019700 0.000000 0.000000
# 5 0.000000 0.000000 0.000000 0.000000 0.183531 0.000000
# 6 0.000000 0.000000 0.000000 0.000000 0.000000 0.047629
#
#
# Mechanical properties :
#
#
# Convention : Reuss Voigt Hill
#
# Bulk Modulus (GPa) = 38.20382 53.12637 45.66509
# Shear Modulus (GPa) = 14.28939 26.03358 20.16149
#
# Velocity S-wave (km/s) = 2.53969 3.42801 3.01673
# Velocity P-wave (km/s) = 5.08377 6.29673 5.72248
#
# Compressibility (1/GPa) = 0.02617540
#
# Stress axis : x y z
#
# Youngs Moduli (GPa) = 87.77019 30.92799 68.85189
#
# Poissons Ratio (x) = 0.28768 0.23960
# Poissons Ratio (y) = 0.81642 0.22417
# Poissons Ratio (z) = 0.30544 0.10070
#
# Static dielectric constant tensor:
#      x y z
#    x 1.847160 0.000000 0.000000 
#    y 0.000000 1.882090 0.000000 
#    z 0.000000 0.000000 1.834530 
# 
# From -- ./inp_files/53213.got.cif
#   From: 2010.05.17/outbox.cif.g08.bks.cpg/sg64_27_cif.got.tgz:53213.got - 2010.06.03 16:29:19.
