data_PCOD9478116
_publ_section_title
;
Structure prediction by ZEFSAII (Michael W. Deem and Ramdas Pophale) SiO2 
 PCOD9478116
Probable space group: C M C A
;
_chemical_formula_sum "Si O2"
_cell_formula_units_Z 88
_cell_length_a 20.817052
_cell_length_b 19.533053
_cell_length_c 11.755814
_cell_angle_alpha 90.000000
_cell_angle_beta 90.000000
_cell_angle_gamma 90.000000
_cell_volume 4780.155907
_symmetry_space_group_name_H-M "C M C A"
_symmetry_group_IT_number 64
_symmetry_cell_setting 'orthorhombic'
loop_
_space_group_symop_operation_xyz
x,y,z
-x,1/2-y,1/2+z
x,-y,-z
-x,1/2+y,1/2-z
-x,-y,-z
x,1/2+y,1/2-z
-x,y,z
x,1/2-y,1/2+z
1/2+x,1/2+y,z
1/2-x,-y,1/2+z
1/2+x,1/2-y,-z
1/2-x,y,1/2-z
1/2-x,1/2-y,-z
1/2+x,y,1/2-z
1/2-x,1/2+y,z
1/2+x,-y,1/2+z
loop_
_atom_site_type_symbol
_atom_site_label
_atom_site_fract_x
_atom_site_fract_y
_atom_site_fract_z
Si Si1 0.128498 0.000000 0.500000
Si Si2 0.293979 0.378356 0.417554
Si Si3 0.840766 0.839846 0.184885
Si Si4 0.926175 0.418279 0.798766
Si Si5 0.312713 0.315866 0.667479
Si Si6 0.424418 0.036337 0.612272
O O1 0.175306 0.046601 0.575875
O O2 0.085772 0.049909 0.423613
O O3 0.222704 0.374987 0.368221
O O4 0.335381 0.339048 0.322063
O O5 0.295428 0.346759 0.543650
O O6 0.838073 0.761109 0.148690
O O7 0.896215 0.890083 0.143990
O O8 0.870874 0.361660 0.782497
O O9 0.916294 0.481385 0.712834
O O10 0.000000 0.393903 0.786776
O O11 0.250000 0.315080 0.750000
O O12 0.500000 0.045921 0.593111
O O13 0.396035 0.000000 0.500000
#
# Coordination Sequence:
#
# PCOD9478116 Si02
#       6
#     8  16  16  16  16  16
#     4  10  19  38  60  88 113 146 206 248 299 350
#     4  10  22  37  59  90 117 154 201 242 304 355
#     4  11  22  39  62  84 124 156 198 249 298 361
#     4  10  22  39  60  86 117 154 201 248 300 353
#     4  11  24  38  60  90 123 159 199 251 304 360
#     4  10  23  40  60  87 119 161 201 247 305 362
#
# _framework density 18.409441000000001
#
# number of rings (size 3 to 8) (size 9 to 14) (size 15 to 20)
#    0.000    1.636    3.636    0.818    3.818    2.182 
#    0.000    0.000    0.000    0.000    0.000    0.000 
#    0.000    0.000    0.000    0.000    0.000    0.000 
#
# Total GULP energy -245327.319177 kJ/mol
# GULP energy per Si atom -5575.620890 kJ/mol
# Density = 1.836754 g / cm^3
# Si number density = 18.409441 Si / 1000 Ang^3
#
#
#
# Elastic Constant Matrix: (Units=GPa)
#
#
# Indices 1 2 3 4 5 6 
#
# 1 98.6168 70.4392 31.5902 0.0000 0.0000 0.0000
# 2 70.4392 66.3607 15.4046 0.0000 0.0000 0.0000
# 3 31.5902 15.4046 68.4996 0.0000 0.0000 0.0000
# 4 0.0000 0.0000 0.0000 -9.6327 0.0000 0.0000
# 5 0.0000 0.0000 0.0000 0.0000 22.6708 0.0000
# 6 0.0000 0.0000 0.0000 0.0000 0.0000 22.7279
#
#
#
# Elastic Compliance Matrix: (Units=1/GPa)
#
#
# Indices 1 2 3 4 5 6 
#
# 1 0.049330 -0.049674 -0.011579 0.000000 0.000000 0.000000
# 2 -0.049674 0.065920 0.008084 0.000000 0.000000 0.000000
# 3 -0.011579 0.008084 0.018120 0.000000 0.000000 0.000000
# 4 0.000000 0.000000 0.000000 -0.103814 0.000000 0.000000
# 5 0.000000 0.000000 0.000000 0.000000 0.044110 0.000000
# 6 0.000000 0.000000 0.000000 0.000000 0.000000 0.043999
#
#
# Mechanical properties :
#
#
# Convention : Reuss Voigt Hill
#
# Bulk Modulus (GPa) = 36.99253 52.03835 44.51544
# Shear Modulus (GPa) = 21.45793 14.88940 18.17367
#
# Velocity S-wave (km/s) = 3.41778 2.84701 3.14537
# Velocity P-wave (km/s) = 5.97603 6.25587 6.11755
#
# Compressibility (1/GPa) = 0.02703249
#
# Stress axis : x y z
#
# Youngs Moduli (GPa) = 20.27155 15.16995 55.18626
#
# Poissons Ratio (x) = 0.75356 0.63899
# Poissons Ratio (y) = 1.00697 -0.44612
# Poissons Ratio (z) = 0.23472 -0.12263
#
# Static dielectric constant tensor:
#      x y z
#    x 1.632770 0.000000 0.000000 
#    y 0.000000 1.629450 0.000000 
#    z 0.000000 0.000000 1.674970 
# 
# From -- ./inp_files/17168.got.cif
#   From: 2010.05.17/outbox.cif.g08.bks.cpg/sg64_9_cif.got.tgz:17168.got - 2010.06.03 16:29:19.
