data_PCOD9478701
_publ_section_title
;
Structure prediction by ZEFSAII (Michael W. Deem and Ramdas Pophale) SiO2 
 PCOD9478701
Probable space group: C M C A
;
_chemical_formula_sum "Si O2"
_cell_formula_units_Z 72
_cell_length_a 20.822798
_cell_length_b 8.739133
_cell_length_c 20.010917
_cell_angle_alpha 90.000000
_cell_angle_beta 90.000000
_cell_angle_gamma 90.000000
_cell_volume 3641.450625
_symmetry_space_group_name_H-M "C M C A"
_symmetry_group_IT_number 64
_symmetry_cell_setting 'orthorhombic'
loop_
_space_group_symop_operation_xyz
x,y,z
-x,1/2-y,1/2+z
x,-y,-z
-x,1/2+y,1/2-z
-x,-y,-z
x,1/2+y,1/2-z
-x,y,z
x,1/2-y,1/2+z
1/2+x,1/2+y,z
1/2-x,-y,1/2+z
1/2+x,1/2-y,-z
1/2-x,y,1/2-z
1/2-x,1/2-y,-z
1/2+x,y,1/2-z
1/2-x,1/2+y,z
1/2+x,-y,1/2+z
loop_
_atom_site_type_symbol
_atom_site_label
_atom_site_fract_x
_atom_site_fract_y
_atom_site_fract_z
Si Si1 0.076413 0.671520 0.904385
Si Si2 0.922169 0.841169 0.033279
Si Si3 0.250000 0.926257 0.250000
Si Si4 0.343091 0.674993 0.202945
Si Si5 0.077214 0.160987 0.340139
O O1 0.093582 0.705373 0.981075
O O2 0.110947 0.798317 0.859172
O O3 0.089769 0.503073 0.875346
O O4 0.000000 0.692935 0.898854
O O5 0.000000 0.850191 0.037012
O O6 0.901702 0.792016 0.107394
O O7 0.899742 0.000000 0.000000
O O8 0.296312 0.030550 0.294756
O O9 0.295662 0.819357 0.206621
O O10 0.385462 0.171437 0.229389
O O11 0.000000 0.172473 0.329039
#
# Coordination Sequence:
#
# PCOD9478701 Si02
#       5
#    16  16   8  16  16
#     4  10  20  35  58  87 117 146 179 227 285 339
#     4   9  19  33  53  84 119 148 176 220 283 343
#     4  10  24  38  58  76 112 150 196 230 280 318
#     4  11  21  40  58  84 107 149 190 238 272 333
#     4  10  20  35  58  87 117 146 179 227 285 339
#
# _framework density 19.772341000000001
#
# number of rings (size 3 to 8) (size 9 to 14) (size 15 to 20)
#    0.000    2.000    2.222    1.333    3.111    2.667 
#    0.000    0.000    0.000    8.000    0.000    0.000 
#    0.000    0.000    0.000    0.000    0.000    0.000 
#
# Total GULP energy -200917.674865 kJ/mol
# GULP energy per Si atom -5581.046524 kJ/mol
# Density = 1.972734 g / cm^3
# Si number density = 19.772341 Si / 1000 Ang^3
#
#
#
# Elastic Constant Matrix: (Units=GPa)
#
#
# Indices 1 2 3 4 5 6 
#
# 1 38.6061 24.1570 28.4455 0.0000 0.0000 0.0000
# 2 24.1570 66.2273 7.4353 0.0000 0.0000 0.0000
# 3 28.4455 7.4353 75.6586 0.0000 0.0000 0.0000
# 4 0.0000 0.0000 0.0000 14.1200 0.0000 0.0000
# 5 0.0000 0.0000 0.0000 0.0000 -12.3780 0.0000
# 6 0.0000 0.0000 0.0000 0.0000 0.0000 26.7528
#
#
#
# Elastic Compliance Matrix: (Units=1/GPa)
#
#
# Indices 1 2 3 4 5 6 
#
# 1 0.047746 -0.015572 -0.016421 0.000000 0.000000 0.000000
# 2 -0.015572 0.020347 0.003855 0.000000 0.000000 0.000000
# 3 -0.016421 0.003855 0.019012 0.000000 0.000000 0.000000
# 4 0.000000 0.000000 0.000000 0.070821 0.000000 0.000000
# 5 0.000000 0.000000 0.000000 0.000000 -0.080789 0.000000
# 6 0.000000 0.000000 0.000000 0.000000 0.000000 0.037379
#
#
# Mechanical properties :
#
#
# Convention : Reuss Voigt Hill
#
# Bulk Modulus (GPa) = 32.43682 33.39640 32.91661
# Shear Modulus (GPa) = 27.61390 13.72924 20.67157
#
# Velocity S-wave (km/s) = 3.74115 2.63794 3.23689
# Velocity P-wave (km/s) = 5.92473 5.11912 5.53660
#
# Compressibility (1/GPa) = 0.03082916
#
# Stress axis : x y z
#
# Youngs Moduli (GPa) = 20.94436 49.14786 52.59800
#
# Poissons Ratio (x) = 0.76533 0.86369
# Poissons Ratio (y) = 0.32615 -0.20277
# Poissons Ratio (z) = 0.34392 -0.18947
#
# Static dielectric constant tensor:
#      x y z
#    x 1.676930 0.000000 0.000000 
#    y 0.000000 1.753670 0.000000 
#    z 0.000000 0.000000 1.689030 
# 
# From -- ./inp_files/8324.got.cif
#   From: 2010.05.17/outbox.cif.g08.bks.cpg/sg64_5_cif.got.tgz:8324.got - 2010.06.03 16:29:19.
