data_PCOD9478941
_publ_section_title
;
Structure prediction by ZEFSAII (Michael W. Deem and Ramdas Pophale) SiO2 
 PCOD9478941
Probable space group: C M C A
;
_chemical_formula_sum "Si O2"
_cell_formula_units_Z 104
_cell_length_a 26.485652
_cell_length_b 22.804083
_cell_length_c 8.461169
_cell_angle_alpha 90.000000
_cell_angle_beta 90.000000
_cell_angle_gamma 90.000000
_cell_volume 5110.385369
_symmetry_space_group_name_H-M "C M C A"
_symmetry_group_IT_number 64
_symmetry_cell_setting 'orthorhombic'
loop_
_space_group_symop_operation_xyz
x,y,z
-x,1/2-y,1/2+z
x,-y,-z
-x,1/2+y,1/2-z
-x,-y,-z
x,1/2+y,1/2-z
-x,y,z
x,1/2-y,1/2+z
1/2+x,1/2+y,z
1/2-x,-y,1/2+z
1/2+x,1/2-y,-z
1/2-x,y,1/2-z
1/2-x,1/2-y,-z
1/2+x,y,1/2-z
1/2-x,1/2+y,z
1/2+x,-y,1/2+z
loop_
_atom_site_type_symbol
_atom_site_label
_atom_site_fract_x
_atom_site_fract_y
_atom_site_fract_z
Si Si1 0.870792 0.625678 0.262225
Si Si2 0.057733 0.067298 0.456300
Si Si3 0.250000 0.239658 0.750000
Si Si4 0.293947 0.167117 0.002787
Si Si5 0.060452 0.829982 0.323417
Si Si6 0.777576 0.562861 0.417734
Si Si7 0.938833 0.791870 0.974544
O O1 0.908570 0.577163 0.196128
O O2 0.842310 0.649105 0.105402
O O3 0.829103 0.597375 0.376952
O O4 0.905100 0.673586 0.348472
O O5 0.076018 0.108359 0.601182
O O6 0.000000 0.085520 0.422296
O O7 0.058516 0.000000 0.500000
O O8 0.270290 0.283917 0.618524
O O9 0.207372 0.198599 0.667888
O O10 0.258582 0.109393 0.992830
O O11 0.070430 0.776861 0.444168
O O12 0.000000 0.832831 0.306067
O O13 0.077988 0.812656 0.148479
O O14 0.784537 0.500000 0.500000
O O15 0.750000 0.552338 0.250000
O O16 0.000000 0.801296 0.954325
#
# Coordination Sequence:
#
# PCOD9478941 Si02
#       7
#    16  16   8  16  16  16  16
#     4  11  22  39  60  93 120 156 209 248 305 372
#     4  10  22  41  61  84 122 165 206 254 300 357
#     4  10  20  42  66  84 128 154 192 242 318 358
#     4  10  22  42  61  90 119 160 194 251 300 366
#     4   9  19  37  58  85 120 164 207 245 301 356
#     4  10  23  44  63  87 120 154 203 252 299 362
#     4  10  20  36  60  91 127 159 199 255 307 360
#
# _framework density 20.350715000000001
#
# number of rings (size 3 to 8) (size 9 to 14) (size 15 to 20)
#    0.000    2.000    2.308    1.385    1.077    8.615 
#    2.769    0.000    0.000    4.615    0.000    0.000 
#    0.000    0.000    0.000    0.000    0.000    0.000 
#
# Total GULP energy -290030.918743 kJ/mol
# GULP energy per Si atom -5577.517668 kJ/mol
# Density = 2.030440 g / cm^3
# Si number density = 20.350715 Si / 1000 Ang^3
#
#
#
# Elastic Constant Matrix: (Units=GPa)
#
#
# Indices 1 2 3 4 5 6 
#
# 1 68.3888 42.2809 21.2476 0.0000 0.0000 0.0000
# 2 42.2809 107.1045 29.2382 0.0000 0.0000 0.0000
# 3 21.2476 29.2382 35.7388 0.0000 0.0000 0.0000
# 4 0.0000 0.0000 0.0000 21.7669 0.0000 0.0000
# 5 0.0000 0.0000 0.0000 0.0000 21.0463 0.0000
# 6 0.0000 0.0000 0.0000 0.0000 0.0000 7.5451
#
#
#
# Elastic Compliance Matrix: (Units=1/GPa)
#
#
# Indices 1 2 3 4 5 6 
#
# 1 0.020702 -0.006196 -0.007239 0.000000 0.000000 0.000000
# 2 -0.006196 0.013876 -0.007668 0.000000 0.000000 0.000000
# 3 -0.007239 -0.007668 0.038558 0.000000 0.000000 0.000000
# 4 0.000000 0.000000 0.000000 0.045941 0.000000 0.000000
# 5 0.000000 0.000000 0.000000 0.000000 0.047514 0.000000
# 6 0.000000 0.000000 0.000000 0.000000 0.000000 0.132536
#
#
# Mechanical properties :
#
#
# Convention : Reuss Voigt Hill
#
# Bulk Modulus (GPa) = 32.33156 44.08506 38.20831
# Shear Modulus (GPa) = 14.21891 17.96935 16.09413
#
# Velocity S-wave (km/s) = 2.64615 2.97473 2.81524
# Velocity P-wave (km/s) = 5.02572 5.78864 5.42062
#
# Compressibility (1/GPa) = 0.03092953
#
# Stress axis : x y z
#
# Youngs Moduli (GPa) = 48.30428 72.06622 25.93507
#
# Poissons Ratio (x) = 0.44655 0.18773
# Poissons Ratio (y) = 0.29931 0.19888
# Poissons Ratio (z) = 0.34966 0.55262
#
# Static dielectric constant tensor:
#      x y z
#    x 1.795140 0.000000 0.000000 
#    y 0.000000 1.698930 0.000000 
#    z 0.000000 0.000000 1.761580 
# 
# From -- ./inp_files/10425.got.cif
#   From: 2010.05.17/outbox.cif.g08.bks.cpg/sg64_6_cif.got.tgz:10425.got - 2010.06.03 16:29:19.
