data_PCOD9478691
_publ_section_title
;
Structure prediction by ZEFSAII (Michael W. Deem and Ramdas Pophale) SiO2 
 PCOD9478691
Probable space group: C M C A
;
_chemical_formula_sum "Si O2"
_cell_formula_units_Z 80
_cell_length_a 13.885800
_cell_length_b 16.587821
_cell_length_c 13.916214
_cell_angle_alpha 90.000000
_cell_angle_beta 90.000000
_cell_angle_gamma 90.000000
_cell_volume 3205.393446
_symmetry_space_group_name_H-M "C M C A"
_symmetry_group_IT_number 64
_symmetry_cell_setting 'orthorhombic'
loop_
_space_group_symop_operation_xyz
x,y,z
-x,1/2-y,1/2+z
x,-y,-z
-x,1/2+y,1/2-z
-x,-y,-z
x,1/2+y,1/2-z
-x,y,z
x,1/2-y,1/2+z
1/2+x,1/2+y,z
1/2-x,-y,1/2+z
1/2+x,1/2-y,-z
1/2-x,y,1/2-z
1/2-x,1/2-y,-z
1/2+x,y,1/2-z
1/2-x,1/2+y,z
1/2+x,-y,1/2+z
loop_
_atom_site_type_symbol
_atom_site_label
_atom_site_fract_x
_atom_site_fract_y
_atom_site_fract_z
Si Si1 0.698660 0.925454 0.423695
Si Si2 0.362049 0.031087 0.273022
Si Si3 0.605045 0.858687 0.110826
Si Si4 0.899082 0.643248 0.116405
Si Si5 0.321014 0.680173 0.103519
O O1 0.796893 0.905287 0.366234
O O2 0.675824 0.848987 0.491776
O O3 0.712450 0.000000 0.500000
O O4 0.622464 0.955804 0.343980
O O5 0.250000 0.032288 0.250000
O O6 0.404012 0.058385 0.172098
O O7 0.376038 0.110715 0.338676
O O8 0.500000 0.878382 0.152899
O O9 0.629172 0.764525 0.122535
O O10 0.599710 0.872254 0.996456
O O11 0.792906 0.681345 0.133706
O O12 0.000000 0.688072 0.140208
#
# Coordination Sequence:
#
# PCOD9478691 Si02
#       5
#    16  16  16  16  16
#     4   9  17  32  54  79 108 146 190 238 291 345
#     4   9  18  33  53  79 112 151 190 236 292 346
#     4  10  20  35  58  85 114 154 202 245 286 345
#     4   9  17  31  54  81 110 149 192 235 288 345
#     4   9  18  35  57  82 114 153 197 242 289 347
#
# _framework density 24.957934999999999
#
# number of rings (size 3 to 8) (size 9 to 14) (size 15 to 20)
#    0.000    2.800    0.000    3.600    0.000    1.200 
#    0.000   14.000    0.000    6.000    0.000    0.000 
#    0.000    0.000    0.000    0.000    0.000    0.000 
#
# Total GULP energy -222950.470610 kJ/mol
# GULP energy per Si atom -5573.761765 kJ/mol
# Density = 2.490113 g / cm^3
# Si number density = 24.957935 Si / 1000 Ang^3
#
#
#
# Elastic Constant Matrix: (Units=GPa)
#
#
# Indices 1 2 3 4 5 6 
#
# 1 91.9953 22.5651 21.4689 0.0000 0.0000 0.0000
# 2 22.5651 93.5570 31.3164 0.0000 0.0000 0.0000
# 3 21.4689 31.3164 47.5113 0.0000 0.0000 0.0000
# 4 0.0000 0.0000 0.0000 16.3098 0.0000 0.0000
# 5 0.0000 0.0000 0.0000 0.0000 -198.4478 0.0000
# 6 0.0000 0.0000 0.0000 0.0000 0.0000 8.5244
#
#
#
# Elastic Compliance Matrix: (Units=1/GPa)
#
#
# Indices 1 2 3 4 5 6 
#
# 1 0.012297 -0.001419 -0.004621 0.000000 0.000000 0.000000
# 2 -0.001419 0.013878 -0.008506 0.000000 0.000000 0.000000
# 3 -0.004621 -0.008506 0.028743 0.000000 0.000000 0.000000
# 4 0.000000 0.000000 0.000000 0.061313 0.000000 0.000000
# 5 0.000000 0.000000 0.000000 0.000000 -0.005039 0.000000
# 6 0.000000 0.000000 0.000000 0.000000 0.000000 0.117311
#
#
# Mechanical properties :
#
#
# Convention : Reuss Voigt Hill
#
# Bulk Modulus (GPa) = 38.72310 42.64048 40.68179
# Shear Modulus (GPa) = 18.78264 -24.20852 -2.71294
#
# Velocity S-wave (km/s) = 2.74628 -3.11782 -1.04373
# Velocity P-wave (km/s) = 5.06015 2.03985 3.85785
#
# Compressibility (1/GPa) = 0.02582438
#
# Stress axis : x y z
#
# Youngs Moduli (GPa) = 81.32323 72.05492 34.79142
#
# Poissons Ratio (x) = 0.10225 0.16078
# Poissons Ratio (y) = 0.11540 0.29595
# Poissons Ratio (z) = 0.37581 0.61293
#
# Static dielectric constant tensor:
#      x y z
#    x 1.597090 0.000000 0.000000 
#    y 0.000000 1.992990 0.000000 
#    z 0.000000 0.000000 2.106780 
# 
# From -- ./inp_files/32035.got.cif
#   From: 2010.05.17/outbox.cif.g08.bks.cpg/sg64_17_cif.got.tgz:32035.got - 2010.06.03 16:29:19.
