data_PCOD9478588
_publ_section_title
;
Structure prediction by ZEFSAII (Michael W. Deem and Ramdas Pophale) SiO2 
 PCOD9478588
Probable space group: C M C A
;
_chemical_formula_sum "Si O2"
_cell_formula_units_Z 112
_cell_length_a 13.496645
_cell_length_b 15.325060
_cell_length_c 29.087807
_cell_angle_alpha 90.000000
_cell_angle_beta 90.000000
_cell_angle_gamma 90.000000
_cell_volume 6016.431665
_symmetry_space_group_name_H-M "C M C A"
_symmetry_group_IT_number 64
_symmetry_cell_setting 'orthorhombic'
loop_
_space_group_symop_operation_xyz
x,y,z
-x,1/2-y,1/2+z
x,-y,-z
-x,1/2+y,1/2-z
-x,-y,-z
x,1/2+y,1/2-z
-x,y,z
x,1/2-y,1/2+z
1/2+x,1/2+y,z
1/2-x,-y,1/2+z
1/2+x,1/2-y,-z
1/2-x,y,1/2-z
1/2-x,1/2-y,-z
1/2+x,y,1/2-z
1/2-x,1/2+y,z
1/2+x,-y,1/2+z
loop_
_atom_site_type_symbol
_atom_site_label
_atom_site_fract_x
_atom_site_fract_y
_atom_site_fract_z
Si Si1 0.613107 0.340978 0.728134
Si Si2 0.757358 0.380567 0.644167
Si Si3 0.120485 0.705576 0.864540
Si Si4 0.882891 0.885412 0.456884
Si Si5 0.882353 0.906568 0.557860
Si Si6 0.881582 0.648023 0.766862
Si Si7 0.115313 0.497412 0.698098
O O1 0.500000 0.340236 0.710954
O O2 0.686270 0.364091 0.687489
O O3 0.634811 0.245731 0.748514
O O4 0.618408 0.413924 0.767650
O O5 0.835336 0.301704 0.640873
O O6 0.688061 0.381408 0.599575
O O7 0.817155 0.469334 0.655346
O O8 0.156575 0.665451 0.912688
O O9 0.151513 0.648245 0.820001
O O10 0.000000 0.709216 0.864036
O O11 0.847209 0.867701 0.508725
O O12 0.000000 0.865739 0.458654
O O13 0.875368 0.988627 0.447555
O O14 0.000000 0.886566 0.565286
O O15 0.848023 0.578287 0.728986
O O16 0.000000 0.632908 0.769072
O O17 0.000000 0.511556 0.684989
#
# Coordination Sequence:
#
# PCOD9478588 Si02
#       7
#    16  16  16  16  16  16  16
#     4  10  21  38  51  72 111 145 183 222 260 321
#     4  12  22  32  52  84 111 142 179 227 276 323
#     4  10  20  35  55  78 105 141 182 225 273 327
#     4   8  17  36  58  78 105 139 180 230 279 328
#     4   9  19  36  56  81 109 138 179 229 279 330
#     4   9  19  36  55  72 105 149 181 220 267 316
#     4  10  21  37  54  75 108 148 185 224 267 319
#
# _framework density 18.615686
#
# number of rings (size 3 to 8) (size 9 to 14) (size 15 to 20)
#    0.000    2.286    1.429    2.143    2.000    1.714 
#    2.571    0.000    0.000    0.000    0.000    8.000 
#    0.000    0.000    0.000    0.000    0.000    0.000 
#
# Total GULP energy -312429.551729 kJ/mol
# GULP energy per Si atom -5579.099138 kJ/mol
# Density = 1.857332 g / cm^3
# Si number density = 18.615686 Si / 1000 Ang^3
#
#
#
# Elastic Constant Matrix: (Units=GPa)
#
#
# Indices 1 2 3 4 5 6 
#
# 1 78.0422 6.5857 43.3897 0.0000 0.0000 0.0000
# 2 6.5857 45.7528 2.7857 0.0000 0.0000 0.0000
# 3 43.3897 2.7857 96.6007 0.0000 0.0000 0.0000
# 4 0.0000 0.0000 0.0000-3275.9462 0.0000 0.0000
# 5 0.0000 0.0000 0.0000 0.0000 19.9516 0.0000
# 6 0.0000 0.0000 0.0000 0.0000 0.0000 0.7865
#
#
#
# Elastic Compliance Matrix: (Units=1/GPa)
#
#
# Indices 1 2 3 4 5 6 
#
# 1 0.017262 -0.002016 -0.007695 0.000000 0.000000 0.000000
# 2 -0.002016 0.022131 0.000267 0.000000 0.000000 0.000000
# 3 -0.007695 0.000267 0.013801 0.000000 0.000000 0.000000
# 4 0.000000 0.000000 0.000000 -0.000305 0.000000 0.000000
# 5 0.000000 0.000000 0.000000 0.000000 0.050121 0.000000
# 6 0.000000 0.000000 0.000000 0.000000 0.000000 1.271440
#
#
# Mechanical properties :
#
#
# Convention : Reuss Voigt Hill
#
# Bulk Modulus (GPa) = 29.15028 36.21311 32.68170
# Shear Modulus (GPa) = 3.55929 -639.86598 -318.15334
#
# Velocity S-wave (km/s) = 1.38425 -18.55991 -13.08729
# Velocity P-wave (km/s) = 4.27175 20.97137 14.51810
#
# Compressibility (1/GPa) = 0.03430498
#
# Stress axis : x y z
#
# Youngs Moduli (GPa) = 57.92996 45.18646 72.46007
#
# Poissons Ratio (x) = 0.09111 0.55761
# Poissons Ratio (y) = 0.11680 -0.01938
# Poissons Ratio (z) = 0.44580 -0.01208
#
# Static dielectric constant tensor:
#      x y z
#    x 1.672440 0.000000 0.000000 
#    y 0.000000 1.639190 0.000000 
#    z 0.000000 0.000000 1.658080 
# 
# From -- ./inp_files/53359.got.cif
#   From: 2010.05.17/outbox.cif.g08.bks.cpg/sg64_27_cif.got.tgz:53359.got - 2010.06.03 16:29:19.
