data_PCOD9478760
_publ_section_title
;
Structure prediction by ZEFSAII (Michael W. Deem and Ramdas Pophale) SiO2 
 PCOD9478760
Probable space group: C M C A
;
_chemical_formula_sum "Si O2"
_cell_formula_units_Z 56
_cell_length_a 16.266068
_cell_length_b 16.896373
_cell_length_c 10.107241
_cell_angle_alpha 90.000000
_cell_angle_beta 90.000000
_cell_angle_gamma 90.000000
_cell_volume 2777.849376
_symmetry_space_group_name_H-M "C M C A"
_symmetry_group_IT_number 64
_symmetry_cell_setting 'orthorhombic'
loop_
_space_group_symop_operation_xyz
x,y,z
-x,1/2-y,1/2+z
x,-y,-z
-x,1/2+y,1/2-z
-x,-y,-z
x,1/2+y,1/2-z
-x,y,z
x,1/2-y,1/2+z
1/2+x,1/2+y,z
1/2-x,-y,1/2+z
1/2+x,1/2-y,-z
1/2-x,y,1/2-z
1/2-x,1/2-y,-z
1/2+x,y,1/2-z
1/2-x,1/2+y,z
1/2+x,-y,1/2+z
loop_
_atom_site_type_symbol
_atom_site_label
_atom_site_fract_x
_atom_site_fract_y
_atom_site_fract_z
Si Si1 0.500000 0.600600 0.303031
Si Si2 0.135153 0.715488 0.087272
Si Si3 0.500000 0.339717 0.995017
Si Si4 0.825763 0.334265 0.182828
Si Si5 0.000000 0.083167 0.730684
O O1 0.421431 0.642482 0.368175
O O2 0.500000 0.624081 0.149043
O O3 0.500000 0.506804 0.314996
O O4 0.166335 0.758243 0.219849
O O5 0.077540 0.782170 0.018808
O O6 0.193196 0.685415 0.969458
O O7 0.500000 0.404979 0.110506
O O8 0.750000 0.381317 0.250000
O O9 0.915767 0.374436 0.184745
#
# Coordination Sequence:
#
# PCOD9478760 Si02
#       5
#     8  16   8  16   8
#     4  11  19  36  65  90 122 156 204 246 308 372
#     4  10  20  35  63  90 115 156 206 250 300 351
#     4   9  17  35  61  92 116 157 201 246 301 362
#     4  11  22  40  61  88 123 157 204 254 298 359
#     4  10  23  37  62  89 123 166 191 244 315 369
#
# _framework density 20.159481
#
# number of rings (size 3 to 8) (size 9 to 14) (size 15 to 20)
#    0.000    1.714    2.857    3.857    0.000    2.286 
#    0.000    1.429   12.571    0.000    0.000    0.000 
#    0.000    0.000    0.000    0.000    0.000    0.000 
#
# Total GULP energy -156247.264975 kJ/mol
# GULP energy per Si atom -5580.259463 kJ/mol
# Density = 2.011360 g / cm^3
# Si number density = 20.159481 Si / 1000 Ang^3
#
#
#
# Elastic Constant Matrix: (Units=GPa)
#
#
# Indices 1 2 3 4 5 6 
#
# 1 95.9386 43.5325 12.5324 0.0000 0.0000 0.0000
# 2 43.5325 106.7183 42.0088 0.0000 0.0000 0.0000
# 3 12.5324 42.0088 127.8515 0.0000 0.0000 0.0000
# 4 0.0000 0.0000 0.0000 13.2402 0.0000 0.0000
# 5 0.0000 0.0000 0.0000 0.0000 30.3502 0.0000
# 6 0.0000 0.0000 0.0000 0.0000 0.0000 -0.0866
#
#
#
# Elastic Compliance Matrix: (Units=1/GPa)
#
#
# Indices 1 2 3 4 5 6 
#
# 1 0.012822 -0.005439 0.000530 0.000000 0.000000 0.000000
# 2 -0.005439 0.013070 -0.003761 0.000000 0.000000 0.000000
# 3 0.000530 -0.003761 0.009005 0.000000 0.000000 0.000000
# 4 0.000000 0.000000 0.000000 0.075528 0.000000 0.000000
# 5 0.000000 0.000000 0.000000 0.000000 0.032949 0.000000
# 6 0.000000 0.000000 0.000000 0.000000 0.000000-11.541141
#
#
# Mechanical properties :
#
#
# Convention : Reuss Voigt Hill
#
# Bulk Modulus (GPa) = 56.95680 58.51730 57.73705
# Shear Modulus (GPa) = -0.43958 24.19641 11.87842
#
# Velocity S-wave (km/s) = -0.46746 3.46822 2.43002
# Velocity P-wave (km/s) = 5.29368 6.71776 6.04778
#
# Compressibility (1/GPa) = 0.01755717
#
# Stress axis : x y z
#
# Youngs Moduli (GPa) = 77.99042 76.51238 111.04401
#
# Poissons Ratio (x) = 0.41616 -0.05889
# Poissons Ratio (y) = 0.42420 0.41766
# Poissons Ratio (z) = -0.04136 0.28778
#
# Static dielectric constant tensor:
#      x y z
#    x 1.807070 0.000000 0.000000 
#    y 0.000000 1.676860 0.000000 
#    z 0.000000 0.000000 1.719560 
# 
# From -- ./inp_files/6472.got.cif
#   From: 2010.05.17/outbox.cif.g08.bks.cpg/sg64_4_cif.got.tgz:6472.got - 2010.06.03 16:29:19.
