data_PCOD9478548
_publ_section_title
;
Structure prediction by ZEFSAII (Michael W. Deem and Ramdas Pophale) SiO2 
 PCOD9478548
Probable space group: C M C A
;
_chemical_formula_sum "Si O2"
_cell_formula_units_Z 72
_cell_length_a 15.653626
_cell_length_b 22.274366
_cell_length_c 11.242804
_cell_angle_alpha 90.000000
_cell_angle_beta 90.000000
_cell_angle_gamma 90.000000
_cell_volume 3920.080129
_symmetry_space_group_name_H-M "C M C A"
_symmetry_group_IT_number 64
_symmetry_cell_setting 'orthorhombic'
loop_
_space_group_symop_operation_xyz
x,y,z
-x,1/2-y,1/2+z
x,-y,-z
-x,1/2+y,1/2-z
-x,-y,-z
x,1/2+y,1/2-z
-x,y,z
x,1/2-y,1/2+z
1/2+x,1/2+y,z
1/2-x,-y,1/2+z
1/2+x,1/2-y,-z
1/2-x,y,1/2-z
1/2-x,1/2-y,-z
1/2+x,y,1/2-z
1/2-x,1/2+y,z
1/2+x,-y,1/2+z
loop_
_atom_site_type_symbol
_atom_site_label
_atom_site_fract_x
_atom_site_fract_y
_atom_site_fract_z
Si Si1 0.405912 0.385370 0.922892
Si Si2 0.270002 0.568059 0.502672
Si Si3 0.660093 0.837678 0.817135
Si Si4 0.901594 0.707084 0.635194
Si Si5 0.750000 0.865360 0.250000
O O1 0.500000 0.410620 0.946802
O O2 0.327406 0.428646 0.953292
O O3 0.398235 0.363988 0.787510
O O4 0.394568 0.327402 0.009027
O O5 0.301082 0.500000 0.500000
O O6 0.321885 0.612845 0.417296
O O7 0.268593 0.594193 0.635193
O O8 0.750000 0.824345 0.750000
O O9 0.622888 0.776777 0.871213
O O10 0.832497 0.675161 0.719909
O O11 0.000000 0.700895 0.675487
#
# Coordination Sequence:
#
# PCOD9478548 Si02
#       5
#    16  16  16  16   8
#     4   9  20  36  57  87 117 153 199 243 292 350
#     4  10  23  38  61  85 116 162 201 236 292 350
#     4  10  20  34  59  85 119 152 193 240 294 345
#     4  10  20  36  60  90 121 155 192 240 305 357
#     4  10  22  38  62  90 124 150 196 250 290 350
#
# _framework density 18.366970999999999
#
# number of rings (size 3 to 8) (size 9 to 14) (size 15 to 20)
#    0.000    2.222    1.111    0.667    7.778    3.111 
#    0.000    1.111    0.000    3.333    0.000    0.000 
#    0.000    0.000    0.000    0.000    0.000    0.000 
#
# Total GULP energy -200887.141884 kJ/mol
# GULP energy per Si atom -5580.198386 kJ/mol
# Density = 1.832517 g / cm^3
# Si number density = 18.366971 Si / 1000 Ang^3
#
#
#
# Elastic Constant Matrix: (Units=GPa)
#
#
# Indices 1 2 3 4 5 6 
#
# 1 93.2418 39.2727 37.8374 0.0000 0.0000 0.0000
# 2 39.2727 108.6791 40.3568 0.0000 0.0000 0.0000
# 3 37.8374 40.3568 95.3569 0.0000 0.0000 0.0000
# 4 0.0000 0.0000 0.0000 6.1846 0.0000 0.0000
# 5 0.0000 0.0000 0.0000 0.0000 19.7883 0.0000
# 6 0.0000 0.0000 0.0000 0.0000 0.0000 12.2383
#
#
#
# Elastic Compliance Matrix: (Units=1/GPa)
#
#
# Indices 1 2 3 4 5 6 
#
# 1 0.013827 -0.003511 -0.004001 0.000000 0.000000 0.000000
# 2 -0.003511 0.011809 -0.003604 0.000000 0.000000 0.000000
# 3 -0.004001 -0.003604 0.013600 0.000000 0.000000 0.000000
# 4 0.000000 0.000000 0.000000 0.161692 0.000000 0.000000
# 5 0.000000 0.000000 0.000000 0.000000 0.050535 0.000000
# 6 0.000000 0.000000 0.000000 0.000000 0.000000 0.081711
#
#
# Mechanical properties :
#
#
# Convention : Reuss Voigt Hill
#
# Bulk Modulus (GPa) = 58.81203 59.13462 58.97332
# Shear Modulus (GPa) = 13.84761 19.62964 16.73862
#
# Velocity S-wave (km/s) = 2.74878 3.27272 3.02212
# Velocity P-wave (km/s) = 6.49341 6.82253 6.66001
#
# Compressibility (1/GPa) = 0.01700332
#
# Stress axis : x y z
#
# Youngs Moduli (GPa) = 72.32193 84.68380 73.53029
#
# Poissons Ratio (x) = 0.29733 0.29417
# Poissons Ratio (y) = 0.25392 0.26504
# Poissons Ratio (z) = 0.28933 0.30524
#
# Static dielectric constant tensor:
#      x y z
#    x 1.658010 0.000000 0.000000 
#    y 0.000000 1.598590 0.000000 
#    z 0.000000 0.000000 1.613130 
# 
# From -- ./inp_files/15782.got.cif
#   From: 2010.05.17/outbox.cif.g08.bks.cpg/sg64_8_cif.got.tgz:15782.got - 2010.06.03 16:29:19.
