data_PCOD9478579
_publ_section_title
;
Structure prediction by ZEFSAII (Michael W. Deem and Ramdas Pophale) SiO2 
 PCOD9478579
Probable space group: C M C A
;
_chemical_formula_sum "Si O2"
_cell_formula_units_Z 104
_cell_length_a 29.666180
_cell_length_b 9.152371
_cell_length_c 21.867694
_cell_angle_alpha 90.000000
_cell_angle_beta 90.000000
_cell_angle_gamma 90.000000
_cell_volume 5937.426301
_symmetry_space_group_name_H-M "C M C A"
_symmetry_group_IT_number 64
_symmetry_cell_setting 'orthorhombic'
loop_
_space_group_symop_operation_xyz
x,y,z
-x,1/2-y,1/2+z
x,-y,-z
-x,1/2+y,1/2-z
-x,-y,-z
x,1/2+y,1/2-z
-x,y,z
x,1/2-y,1/2+z
1/2+x,1/2+y,z
1/2-x,-y,1/2+z
1/2+x,1/2-y,-z
1/2-x,y,1/2-z
1/2-x,1/2-y,-z
1/2+x,y,1/2-z
1/2-x,1/2+y,z
1/2+x,-y,1/2+z
loop_
_atom_site_type_symbol
_atom_site_label
_atom_site_fract_x
_atom_site_fract_y
_atom_site_fract_z
Si Si1 0.250000 0.918072 0.750000
Si Si2 0.551634 0.173215 0.484996
Si Si3 0.051608 0.706364 0.119367
Si Si4 0.387753 0.787120 0.630148
Si Si5 0.551601 0.923680 0.195247
Si Si6 0.687866 0.835351 0.205362
Si Si7 0.884810 0.417213 0.304196
O O1 0.217431 0.810133 0.787236
O O2 0.279634 0.024639 0.792843
O O3 0.500000 0.200945 0.462076
O O4 0.557528 0.261920 0.547832
O O5 0.590262 0.211110 0.436488
O O6 0.554043 0.000000 0.500000
O O7 0.055400 0.538730 0.139834
O O8 0.000000 0.753274 0.134510
O O9 0.087458 0.797969 0.157957
O O10 0.428107 0.728885 0.673217
O O11 0.345997 0.682459 0.648306
O O12 0.373778 0.948735 0.651444
O O13 0.500000 0.911817 0.213596
O O14 0.582037 0.975946 0.251196
O O15 0.657158 0.851926 0.266675
#
# Coordination Sequence:
#
# PCOD9478579 Si02
#       7
#     8  16  16  16  16  16  16
#     4  10  20  38  60  82 118 138 168 222 298 364
#     4  10  20  35  54  76 109 160 210 239 267 314
#     4  10  21  35  52  77 114 160 201 233 268 319
#     4  11  21  34  53  80 111 143 190 236 273 333
#     4  10  21  32  48  76 113 149 183 232 284 323
#     4  10  21  36  57  89 111 141 172 223 291 354
#     4  11  20  33  53  81 115 142 183 227 280 342
#
# _framework density 17.516006999999998
#
# number of rings (size 3 to 8) (size 9 to 14) (size 15 to 20)
#    0.000    1.692    3.077    2.769    2.154    3.692 
#    0.000    2.308    0.000    0.000    0.000   11.846 
#    0.000    0.000    0.000    0.000    0.000    0.000 
#
# Total GULP energy -290030.608060 kJ/mol
# GULP energy per Si atom -5577.511693 kJ/mol
# Density = 1.747614 g / cm^3
# Si number density = 17.516007 Si / 1000 Ang^3
#
#
#
# Elastic Constant Matrix: (Units=GPa)
#
#
# Indices 1 2 3 4 5 6 
#
# 1 106.3606 36.9484 44.8717 0.0000 0.0000 0.0000
# 2 36.9484 66.7169 21.6811 0.0000 0.0000 0.0000
# 3 44.8717 21.6811 73.2277 0.0000 0.0000 0.0000
# 4 0.0000 0.0000 0.0000 21.0909 0.0000 0.0000
# 5 0.0000 0.0000 0.0000 0.0000 25.6498 0.0000
# 6 0.0000 0.0000 0.0000 0.0000 0.0000 19.7609
#
#
#
# Elastic Compliance Matrix: (Units=1/GPa)
#
#
# Indices 1 2 3 4 5 6 
#
# 1 0.014372 -0.005640 -0.007137 0.000000 0.000000 0.000000
# 2 -0.005640 0.018798 -0.002109 0.000000 0.000000 0.000000
# 3 -0.007137 -0.002109 0.018654 0.000000 0.000000 0.000000
# 4 0.000000 0.000000 0.000000 0.047414 0.000000 0.000000
# 5 0.000000 0.000000 0.000000 0.000000 0.038987 0.000000
# 6 0.000000 0.000000 0.000000 0.000000 0.000000 0.050605
#
#
# Mechanical properties :
#
#
# Convention : Reuss Voigt Hill
#
# Bulk Modulus (GPa) = 45.34991 50.36750 47.85871
# Shear Modulus (GPa) = 22.12849 22.82058 22.47453
#
# Velocity S-wave (km/s) = 3.55819 3.61341 3.58590
# Velocity P-wave (km/s) = 6.54429 6.79901 6.67286
#
# Compressibility (1/GPa) = 0.02205076
#
# Stress axis : x y z
#
# Youngs Moduli (GPa) = 69.57843 53.19771 53.60806
#
# Poissons Ratio (x) = 0.30005 0.38260
# Poissons Ratio (y) = 0.39244 0.11308
# Poissons Ratio (z) = 0.49658 0.11222
#
# Static dielectric constant tensor:
#      x y z
#    x 1.610750 0.000000 0.000000 
#    y 0.000000 1.617020 0.000000 
#    z 0.000000 0.000000 1.581240 
# 
# From -- ./inp_files/42084.got.cif
#   From: 2010.05.17/outbox.cif.g08.bks.cpg/sg64_22_cif.got.tgz:42084.got - 2010.06.03 16:29:19.
