data_PCOD9478345
_publ_section_title
;
Structure prediction by ZEFSAII (Michael W. Deem and Ramdas Pophale) SiO2 
 PCOD9478345
Probable space group: C M C A
;
_chemical_formula_sum "Si O2"
_cell_formula_units_Z 116
_cell_length_a 7.653258
_cell_length_b 29.398344
_cell_length_c 24.835882
_cell_angle_alpha 90.000000
_cell_angle_beta 90.000000
_cell_angle_gamma 90.000000
_cell_volume 5587.902366
_symmetry_space_group_name_H-M "C M C A"
_symmetry_group_IT_number 64
_symmetry_cell_setting 'orthorhombic'
loop_
_space_group_symop_operation_xyz
x,y,z
-x,1/2-y,1/2+z
x,-y,-z
-x,1/2+y,1/2-z
-x,-y,-z
x,1/2+y,1/2-z
-x,y,z
x,1/2-y,1/2+z
1/2+x,1/2+y,z
1/2-x,-y,1/2+z
1/2+x,1/2-y,-z
1/2-x,y,1/2-z
1/2-x,1/2-y,-z
1/2+x,y,1/2-z
1/2-x,1/2+y,z
1/2+x,-y,1/2+z
loop_
_atom_site_type_symbol
_atom_site_label
_atom_site_fract_x
_atom_site_fract_y
_atom_site_fract_z
Si Si1 0.209540 0.031254 0.810481
Si Si2 0.201638 0.323626 0.188718
Si Si3 0.291084 0.427660 0.810973
Si Si4 0.000000 0.000000 0.000000
Si Si5 0.205326 0.080812 0.488286
Si Si6 0.201926 0.396288 0.394737
Si Si7 0.802312 0.354207 0.894969
Si Si8 0.708842 0.217495 0.189042
O O1 0.250000 0.046494 0.750000
O O2 0.277615 0.064882 0.855549
O O3 0.000000 0.030430 0.815012
O O4 0.270507 0.979639 0.817556
O O5 0.250000 0.337118 0.250000
O O6 0.295722 0.351065 0.141472
O O7 0.230938 0.269599 0.185008
O O8 0.000000 0.333994 0.181520
O O9 0.500000 0.425683 0.819886
O O10 0.250000 0.414457 0.750000
O O11 0.197845 0.394582 0.851537
O O12 0.157478 0.038768 0.012829
O O13 0.206364 0.101941 0.548201
O O14 0.269243 0.120762 0.447713
O O15 0.000000 0.068885 0.474832
O O16 0.000000 0.408143 0.406309
O O17 0.719911 0.313082 0.860143
O O18 0.000000 0.340141 0.909143
O O19 0.500000 0.216822 0.185257
O O20 0.750000 0.201101 0.250000
#
# Coordination Sequence:
#
# PCOD9478345 Si02
#       8
#    16  16  16   4  16  16  16  16
#     4   9  20  34  52  79 113 150 195 243 301 372
#     4  11  22  38  62  95 127 165 211 261 322 390
#     4  10  20  33  53  80 115 154 195 243 304 373
#     4  12  26  48  68  94 128 172 226 272 324 372
#     4  11  26  45  67  96 128 171 223 271 323 383
#     4  11  22  40  62  89 124 164 210 266 320 381
#     4  10  23  40  60  87 121 157 207 265 316 381
#     4  10  20  38  62  93 126 162 206 259 322 389
#
# _framework density 20.759131
#
# number of rings (size 3 to 8) (size 9 to 14) (size 15 to 20)
#    0.000    1.655    0.690    4.345    2.897    4.966 
#    0.000    0.690    0.000    0.000    0.000    0.000 
#    0.000    0.000    0.000    0.000    0.000    0.000 
#
# Total GULP energy -323185.720436 kJ/mol
# GULP energy per Si atom -5572.167594 kJ/mol
# Density = 2.071188 g / cm^3
# Si number density = 20.759131 Si / 1000 Ang^3
#
#
#
# Elastic Constant Matrix: (Units=GPa)
#
#
# Indices 1 2 3 4 5 6 
#
# 1 86.5433 -10.7237 -12.9516 0.0000 0.0000 0.0000
# 2 -10.7237 45.5480 20.7800 0.0000 0.0000 0.0000
# 3 -12.9516 20.7800 64.7733 0.0000 0.0000 0.0000
# 4 0.0000 0.0000 0.0000 -82.7282 0.0000 0.0000
# 5 0.0000 0.0000 0.0000 0.0000 21.2562 0.0000
# 6 0.0000 0.0000 0.0000 0.0000 0.0000 3.7683
#
#
#
# Elastic Compliance Matrix: (Units=1/GPa)
#
#
# Indices 1 2 3 4 5 6 
#
# 1 0.012071 0.002039 0.001759 0.000000 0.000000 0.000000
# 2 0.002039 0.026064 -0.007954 0.000000 0.000000 0.000000
# 3 0.001759 -0.007954 0.018342 0.000000 0.000000 0.000000
# 4 0.000000 0.000000 0.000000 -0.012088 0.000000 0.000000
# 5 0.000000 0.000000 0.000000 0.000000 0.047045 0.000000
# 6 0.000000 0.000000 0.000000 0.000000 0.000000 0.265374
#
#
# Mechanical properties :
#
#
# Convention : Reuss Voigt Hill
#
# Bulk Modulus (GPa) = 20.76139 21.23042 20.99591
# Shear Modulus (GPa) = 13.11737 1.77657 7.44697
#
# Velocity S-wave (km/s) = 2.51646 0.92610 1.89608
# Velocity P-wave (km/s) = 4.29723 3.37532 3.86387
#
# Compressibility (1/GPa) = 0.04816632
#
# Stress axis : x y z
#
# Youngs Moduli (GPa) = 82.84382 38.36761 54.51992
#
# Poissons Ratio (x) = -0.07824 -0.09592
# Poissons Ratio (y) = -0.16894 0.43364
# Poissons Ratio (z) = -0.14576 0.30517
#
# Static dielectric constant tensor:
#      x y z
#    x 1.786430 0.000000 0.000000 
#    y 0.000000 1.759450 0.000000 
#    z 0.000000 0.000000 1.666880 
# 
# From -- ./inp_files/43403.got.cif
#   From: 2010.05.17/outbox.cif.g08.bks.cpg/sg64_22_cif.got.tgz:43403.got - 2010.06.03 16:29:19.
