data_PCOD9478879
_publ_section_title
;
Structure prediction by ZEFSAII (Michael W. Deem and Ramdas Pophale) SiO2 
 PCOD9478879
Probable space group: C M C A
;
_chemical_formula_sum "Si O2"
_cell_formula_units_Z 96
_cell_length_a 18.796181
_cell_length_b 20.316179
_cell_length_c 11.661002
_cell_angle_alpha 90.000000
_cell_angle_beta 90.000000
_cell_angle_gamma 90.000000
_cell_volume 4452.946926
_symmetry_space_group_name_H-M "C M C A"
_symmetry_group_IT_number 64
_symmetry_cell_setting 'orthorhombic'
loop_
_space_group_symop_operation_xyz
x,y,z
-x,1/2-y,1/2+z
x,-y,-z
-x,1/2+y,1/2-z
-x,-y,-z
x,1/2+y,1/2-z
-x,y,z
x,1/2-y,1/2+z
1/2+x,1/2+y,z
1/2-x,-y,1/2+z
1/2+x,1/2-y,-z
1/2-x,y,1/2-z
1/2-x,1/2-y,-z
1/2+x,y,1/2-z
1/2-x,1/2+y,z
1/2+x,-y,1/2+z
loop_
_atom_site_type_symbol
_atom_site_label
_atom_site_fract_x
_atom_site_fract_y
_atom_site_fract_z
Si Si1 0.079784 0.660339 0.169324
Si Si2 0.671912 0.279969 0.487941
Si Si3 0.077516 0.197975 0.710235
Si Si4 0.619811 0.358686 0.058637
Si Si5 0.780555 0.035459 0.881610
Si Si6 0.077825 0.048640 0.143479
O O1 0.145547 0.669028 0.083687
O O2 0.080354 0.727067 0.244135
O O3 0.087791 0.597123 0.249040
O O4 0.000000 0.657357 0.116492
O O5 0.750000 0.250000 0.500000
O O6 0.646090 0.310325 0.369021
O O7 0.624073 0.214438 0.507079
O O8 0.083748 0.150447 0.818885
O O9 0.000000 0.188411 0.654350
O O10 0.697996 0.390514 0.080519
O O11 0.581421 0.404679 0.967716
O O12 0.750000 0.033171 0.750000
O O13 0.856891 0.000160 0.865627
O O14 0.749057 0.000000 0.000000
O O15 0.000000 0.017299 0.150616
#
# Coordination Sequence:
#
# PCOD9478879 Si02
#       6
#    16  16  16  16  16  16
#     4   9  19  35  57  82 116 154 195 249 304 365
#     4  11  23  35  56  88 122 164 201 244 308 383
#     4  10  20  36  58  86 121 157 196 250 312 366
#     4  10  22  38  60  91 123 161 205 263 309 375
#     4  10  24  43  66  92 126 170 215 267 326 380
#     4  10  20  40  65  91 119 158 216 266 309 369
#
# _framework density 21.558755999999999
#
# number of rings (size 3 to 8) (size 9 to 14) (size 15 to 20)
#    0.000    2.000    1.667    1.000    2.333    9.667 
#    0.000    0.000    0.000    0.500    0.000    0.000 
#    0.000    0.000    0.000    0.000    0.000    0.000 
#
# Total GULP energy -267606.366534 kJ/mol
# GULP energy per Si atom -5575.132636 kJ/mol
# Density = 2.150969 g / cm^3
# Si number density = 21.558756 Si / 1000 Ang^3
#
#
#
# Elastic Constant Matrix: (Units=GPa)
#
#
# Indices 1 2 3 4 5 6 
#
# 1 86.3680 -14.0247 29.4602 0.0000 0.0000 0.0000
# 2 -14.0247 40.3231 4.0317 0.0000 0.0000 0.0000
# 3 29.4602 4.0317 93.9391 0.0000 0.0000 0.0000
# 4 0.0000 0.0000 0.0000 28.3597 0.0000 0.0000
# 5 0.0000 0.0000 0.0000 0.0000 30.5798 0.0000
# 6 0.0000 0.0000 0.0000 0.0000 0.0000 16.8161
#
#
#
# Elastic Compliance Matrix: (Units=1/GPa)
#
#
# Indices 1 2 3 4 5 6 
#
# 1 0.014024 0.005340 -0.004627 0.000000 0.000000 0.000000
# 2 0.005340 0.026940 -0.002831 0.000000 0.000000 0.000000
# 3 -0.004627 -0.002831 0.012218 0.000000 0.000000 0.000000
# 4 0.000000 0.000000 0.000000 0.035261 0.000000 0.000000
# 5 0.000000 0.000000 0.000000 0.000000 0.032701 0.000000
# 6 0.000000 0.000000 0.000000 0.000000 0.000000 0.059467
#
#
# Mechanical properties :
#
#
# Convention : Reuss Voigt Hill
#
# Bulk Modulus (GPa) = 20.43071 28.84054 24.63562
# Shear Modulus (GPa) = 24.85554 28.56199 26.70877
#
# Velocity S-wave (km/s) = 3.39915 3.64379 3.52359
# Velocity P-wave (km/s) = 4.99029 5.57760 5.29210
#
# Compressibility (1/GPa) = 0.04894593
#
# Stress axis : x y z
#
# Youngs Moduli (GPa) = 71.30696 37.11937 81.84753
#
# Poissons Ratio (x) = -0.19823 0.37873
# Poissons Ratio (y) = -0.38080 0.23171
# Poissons Ratio (z) = 0.32995 0.10508
#
# Static dielectric constant tensor:
#      x y z
#    x 1.847090 0.000000 0.000000 
#    y 0.000000 1.771630 0.000000 
#    z 0.000000 0.000000 1.834300 
# 
# From -- ./inp_files/16204.got.cif
#   From: 2010.05.17/outbox.cif.g08.bks.cpg/sg64_9_cif.got.tgz:16204.got - 2010.06.03 16:29:19.
