data_PCOD9478933
_publ_section_title
;
Structure prediction by ZEFSAII (Michael W. Deem and Ramdas Pophale) SiO2 
 PCOD9478933
Probable space group: C M C A
;
_chemical_formula_sum "Si O2"
_cell_formula_units_Z 112
_cell_length_a 14.548674
_cell_length_b 29.316895
_cell_length_c 12.022865
_cell_angle_alpha 90.000000
_cell_angle_beta 90.000000
_cell_angle_gamma 90.000000
_cell_volume 5128.015801
_symmetry_space_group_name_H-M "C M C A"
_symmetry_group_IT_number 64
_symmetry_cell_setting 'orthorhombic'
loop_
_space_group_symop_operation_xyz
x,y,z
-x,1/2-y,1/2+z
x,-y,-z
-x,1/2+y,1/2-z
-x,-y,-z
x,1/2+y,1/2-z
-x,y,z
x,1/2-y,1/2+z
1/2+x,1/2+y,z
1/2-x,-y,1/2+z
1/2+x,1/2-y,-z
1/2-x,y,1/2-z
1/2-x,1/2-y,-z
1/2+x,y,1/2-z
1/2-x,1/2+y,z
1/2+x,-y,1/2+z
loop_
_atom_site_type_symbol
_atom_site_label
_atom_site_fract_x
_atom_site_fract_y
_atom_site_fract_z
Si Si1 0.296478 0.417212 0.533070
Si Si2 0.899964 0.553331 0.467971
Si Si3 0.645906 0.430181 0.291282
Si Si4 0.107274 0.224537 0.938886
Si Si5 0.900415 0.532085 0.215364
Si Si6 0.290530 0.184065 0.014020
Si Si7 0.601688 0.329428 0.289738
O O1 0.191710 0.422680 0.491894
O O2 0.357519 0.427776 0.425476
O O3 0.322083 0.452022 0.630794
O O4 0.308158 0.364949 0.568560
O O5 0.894452 0.500000 0.500000
O O6 0.895213 0.556359 0.334153
O O7 0.000000 0.570515 0.505479
O O8 0.750000 0.432096 0.250000
O O9 0.603278 0.478315 0.259142
O O10 0.606405 0.382126 0.251763
O O11 0.146955 0.275824 0.936998
O O12 0.112540 0.202572 0.816458
O O13 0.000000 0.222505 0.974540
O O14 0.183113 0.198082 0.013938
O O15 0.000000 0.542836 0.164090
O O16 0.322685 0.178392 0.884904
O O17 0.500000 0.321368 0.338878
#
# Coordination Sequence:
#
# PCOD9478933 Si02
#       7
#    16  16  16  16  16  16  16
#     4  11  22  37  59  85 120 159 195 244 299 360
#     4  10  21  38  59  83 115 157 202 248 297 352
#     4  11  21  35  58  86 119 158 201 247 299 354
#     4  10  21  39  63  88 116 153 199 251 306 366
#     4  11  23  37  56  84 119 159 203 246 294 356
#     4  10  22  39  60  87 119 155 196 247 308 367
#     4  10  20  36  60  89 120 153 194 246 303 364
#
# _framework density 21.840805
#
# number of rings (size 3 to 8) (size 9 to 14) (size 15 to 20)
#    0.000    1.571    0.000    6.429    0.000    4.571 
#    0.000    9.286    0.000    3.429    0.000    0.000 
#    0.000    0.000    0.000    0.000    0.000    0.000 
#
# Total GULP energy -312935.881968 kJ/mol
# GULP energy per Si atom -5588.140749 kJ/mol
# Density = 2.179109 g / cm^3
# Si number density = 21.840805 Si / 1000 Ang^3
#
#
#
# Elastic Constant Matrix: (Units=GPa)
#
#
# Indices 1 2 3 4 5 6 
#
# 1 127.5391 14.2707 12.0490 0.0000 0.0000 0.0000
# 2 14.2707 93.9746 20.9066 0.0000 0.0000 0.0000
# 3 12.0490 20.9066 53.4865 0.0000 0.0000 0.0000
# 4 0.0000 0.0000 0.0000 29.1641 0.0000 0.0000
# 5 0.0000 0.0000 0.0000 0.0000 9.7298 0.0000
# 6 0.0000 0.0000 0.0000 0.0000 0.0000 -5.3592
#
#
#
# Elastic Compliance Matrix: (Units=1/GPa)
#
#
# Indices 1 2 3 4 5 6 
#
# 1 0.008080 -0.000900 -0.001468 0.000000 0.000000 0.000000
# 2 -0.000900 0.011755 -0.004392 0.000000 0.000000 0.000000
# 3 -0.001468 -0.004392 0.020744 0.000000 0.000000 0.000000
# 4 0.000000 0.000000 0.000000 0.034289 0.000000 0.000000
# 5 0.000000 0.000000 0.000000 0.000000 0.102777 0.000000
# 6 0.000000 0.000000 0.000000 0.000000 0.000000 -0.186594
#
#
# Mechanical properties :
#
#
# Convention : Reuss Voigt Hill
#
# Bulk Modulus (GPa) = 36.95801 41.05034 39.00418
# Shear Modulus (GPa) = 367.87627 21.89187 194.88407
#
# Velocity S-wave (km/s) = 12.99234 3.16941 9.45638
# Velocity P-wave (km/s) = 15.55719 5.67711 11.71016
#
# Compressibility (1/GPa) = 0.02705773
#
# Stress axis : x y z
#
# Youngs Moduli (GPa) = 123.75945 85.07039 48.20725
#
# Poissons Ratio (x) = 0.07660 0.07078
# Poissons Ratio (y) = 0.11143 0.21172
# Poissons Ratio (z) = 0.18172 0.37362
#
# Static dielectric constant tensor:
#      x y z
#    x 1.859350 0.000000 0.000000 
#    y 0.000000 1.777140 0.000000 
#    z 0.000000 0.000000 1.784250 
# 
# From -- ./inp_files/15017.got.cif
#   From: 2010.05.17/outbox.cif.g08.bks.cpg/sg64_8_cif.got.tgz:15017.got - 2010.06.03 16:29:19.
