data_PCOD9478519
_publ_section_title
;
Structure prediction by ZEFSAII (Michael W. Deem and Ramdas Pophale) SiO2 
 PCOD9478519
Probable space group: C M C A
;
_chemical_formula_sum "Si O2"
_cell_formula_units_Z 112
_cell_length_a 14.871328
_cell_length_b 13.947009
_cell_length_c 30.285624
_cell_angle_alpha 90.000000
_cell_angle_beta 90.000000
_cell_angle_gamma 90.000000
_cell_volume 6281.557793
_symmetry_space_group_name_H-M "C M C A"
_symmetry_group_IT_number 64
_symmetry_cell_setting 'orthorhombic'
loop_
_space_group_symop_operation_xyz
x,y,z
-x,1/2-y,1/2+z
x,-y,-z
-x,1/2+y,1/2-z
-x,-y,-z
x,1/2+y,1/2-z
-x,y,z
x,1/2-y,1/2+z
1/2+x,1/2+y,z
1/2-x,-y,1/2+z
1/2+x,1/2-y,-z
1/2-x,y,1/2-z
1/2-x,1/2-y,-z
1/2+x,y,1/2-z
1/2-x,1/2+y,z
1/2+x,-y,1/2+z
loop_
_atom_site_type_symbol
_atom_site_label
_atom_site_fract_x
_atom_site_fract_y
_atom_site_fract_z
Si Si1 0.185579 0.903966 0.787495
Si Si2 0.898267 0.943218 0.273421
Si Si3 0.603063 0.767286 0.173301
Si Si4 0.281617 0.157430 0.905088
Si Si5 0.104971 0.612331 0.989815
Si Si6 0.104645 0.781309 0.583440
Si Si7 0.170922 0.958058 0.642249
O O1 0.250000 0.858449 0.750000
O O2 0.107625 0.834101 0.802708
O O3 0.243361 0.922197 0.830737
O O4 0.152689 0.001477 0.764913
O O5 0.859995 0.843228 0.290795
O O6 0.000000 0.793417 0.337320
O O7 0.893944 0.006645 0.318184
O O8 0.500000 0.928119 0.240885
O O9 0.663303 0.776929 0.129747
O O10 0.330301 0.154435 0.952409
O O11 0.180261 0.199212 0.908604
O O12 0.297288 0.049485 0.886386
O O13 0.000000 0.614176 0.975008
O O14 0.125938 0.500000 0.000000
O O15 0.112452 0.675641 0.033993
O O16 0.127699 0.872544 0.614507
O O17 0.000000 0.751657 0.590307
#
# Coordination Sequence:
#
# PCOD9478519 Si02
#       7
#    16  16  16  16  16  16  16
#     4  10  20  35  54  76 111 150 189 234 285 343
#     4   9  19  34  53  78 107 143 188 237 282 331
#     4  10  20  34  57  84 112 148 190 237 288 345
#     4  11  21  37  61  86 120 149 192 241 298 346
#     4  10  20  35  61  91 115 150 197 245 290 346
#     4  11  22  38  60  89 120 153 197 239 289 352
#     4  10  20  36  57  82 112 150 190 238 288 341
#
# _framework density 17.829972999999999
#
# number of rings (size 3 to 8) (size 9 to 14) (size 15 to 20)
#    0.000    1.857    2.857    1.714    0.000    4.000 
#    0.000    1.429    0.000    0.429    0.000    0.000 
#    0.000    0.000    0.000    0.000    0.000    0.000 
#
# Total GULP energy -312009.490872 kJ/mol
# GULP energy per Si atom -5571.598051 kJ/mol
# Density = 1.778939 g / cm^3
# Si number density = 17.829973 Si / 1000 Ang^3
#
#
#
# Elastic Constant Matrix: (Units=GPa)
#
#
# Indices 1 2 3 4 5 6 
#
# 1 98.6330 24.5556 35.5207 0.0000 0.0000 0.0000
# 2 24.5556 29.5309 15.4863 0.0000 0.0000 0.0000
# 3 35.5207 15.4863 71.6048 0.0000 0.0000 0.0000
# 4 0.0000 0.0000 0.0000 18.8492 0.0000 0.0000
# 5 0.0000 0.0000 0.0000 0.0000 20.6872 0.0000
# 6 0.0000 0.0000 0.0000 0.0000 0.0000 0.6839
#
#
#
# Elastic Compliance Matrix: (Units=1/GPa)
#
#
# Indices 1 2 3 4 5 6 
#
# 1 0.014258 -0.009189 -0.005085 0.000000 0.000000 0.000000
# 2 -0.009189 0.044117 -0.004983 0.000000 0.000000 0.000000
# 3 -0.005085 -0.004983 0.017566 0.000000 0.000000 0.000000
# 4 0.000000 0.000000 0.000000 0.053053 0.000000 0.000000
# 5 0.000000 0.000000 0.000000 0.000000 0.048339 0.000000
# 6 0.000000 0.000000 0.000000 0.000000 0.000000 1.462246
#
#
# Mechanical properties :
#
#
# Convention : Reuss Voigt Hill
#
# Bulk Modulus (GPa) = 26.71960 38.98821 32.85391
# Shear Modulus (GPa) = 2.95759 16.32447 9.64103
#
# Velocity S-wave (km/s) = 1.28933 3.02911 2.32786
# Velocity P-wave (km/s) = 4.15148 5.84364 5.06868
#
# Compressibility (1/GPa) = 0.03742570
#
# Stress axis : x y z
#
# Youngs Moduli (GPa) = 70.13803 22.66723 56.92819
#
# Poissons Ratio (x) = 0.20828 0.28950
# Poissons Ratio (y) = 0.64447 0.28368
# Poissons Ratio (z) = 0.35668 0.11295
#
# Static dielectric constant tensor:
#      x y z
#    x 1.640770 0.000000 0.000000 
#    y 0.000000 1.636630 0.000000 
#    z 0.000000 0.000000 1.596440 
# 
# From -- ./inp_files/50058.got.cif
#   From: 2010.05.17/outbox.cif.g08.bks.cpg/sg64_26_cif.got.tgz:50058.got - 2010.06.03 16:29:19.
