data_PCOD9478495
_publ_section_title
;
Structure prediction by ZEFSAII (Michael W. Deem and Ramdas Pophale) SiO2 
 PCOD9478495
Probable space group: C M C A
;
_chemical_formula_sum "Si O2"
_cell_formula_units_Z 40
_cell_length_a 18.908790
_cell_length_b 16.499822
_cell_length_c 5.126645
_cell_angle_alpha 90.000000
_cell_angle_beta 90.000000
_cell_angle_gamma 90.000000
_cell_volume 1599.470531
_symmetry_space_group_name_H-M "C M C A"
_symmetry_group_IT_number 64
_symmetry_cell_setting 'orthorhombic'
loop_
_space_group_symop_operation_xyz
x,y,z
-x,1/2-y,1/2+z
x,-y,-z
-x,1/2+y,1/2-z
-x,-y,-z
x,1/2+y,1/2-z
-x,y,z
x,1/2-y,1/2+z
1/2+x,1/2+y,z
1/2-x,-y,1/2+z
1/2+x,1/2-y,-z
1/2-x,y,1/2-z
1/2-x,1/2-y,-z
1/2+x,y,1/2-z
1/2-x,1/2+y,z
1/2+x,-y,1/2+z
loop_
_atom_site_type_symbol
_atom_site_label
_atom_site_fract_x
_atom_site_fract_y
_atom_site_fract_z
Si Si1 0.000000 0.700664 0.865095
Si Si2 0.290353 0.402777 0.996723
Si Si3 0.580020 0.075214 0.168412
O O1 0.933418 0.647913 0.964971
O O2 0.000000 0.776918 0.063529
O O3 0.250000 0.370779 0.250000
O O4 0.279364 0.500000 0.000000
O O5 0.250000 0.366803 0.750000
O O6 0.372288 0.398442 0.909978
O O7 0.500000 0.051387 0.249153
O O8 0.610688 0.000000 0.000000
#
# Coordination Sequence:
#
# PCOD9478495 Si02
#       3
#     8  16  16
#     4  10  23  40  61  92 132 172 214 268 333 382
#     4  10  20  34  55  88 129 162 200 259 325 379
#     4   9  20  40  65  99 126 172 216 275 319 391
#
# _framework density 25.008272999999999
#
# number of rings (size 3 to 8) (size 9 to 14) (size 15 to 20)
#    1.200    1.200    0.000    3.600    0.000    7.200 
#    0.000    0.000    0.000    8.400    0.000    0.000 
#    0.000   12.800    0.000    0.000    0.000    0.000 
#
# Total GULP energy -111575.258605 kJ/mol
# GULP energy per Si atom -5578.762930 kJ/mol
# Density = 2.495135 g / cm^3
# Si number density = 25.008273 Si / 1000 Ang^3
#
#
#
# Elastic Constant Matrix: (Units=GPa)
#
#
# Indices 1 2 3 4 5 6 
#
# 1 165.6791 1.5704 78.5014 0.0000 0.0000 0.0000
# 2 1.5704 53.7157 4.3730 0.0000 0.0000 0.0000
# 3 78.5014 4.3730 176.2415 0.0000 0.0000 0.0000
# 4 0.0000 0.0000 0.0000 21.5217 0.0000 0.0000
# 5 0.0000 0.0000 0.0000 0.0000 -78.6595 0.0000
# 6 0.0000 0.0000 0.0000 0.0000 0.0000 -4.5797
#
#
#
# Elastic Compliance Matrix: (Units=1/GPa)
#
#
# Indices 1 2 3 4 5 6 
#
# 1 0.007651 0.000054 -0.003409 0.000000 0.000000 0.000000
# 2 0.000054 0.018655 -0.000487 0.000000 0.000000 0.000000
# 3 -0.003409 -0.000487 0.007205 0.000000 0.000000 0.000000
# 4 0.000000 0.000000 0.000000 0.046465 0.000000 0.000000
# 5 0.000000 0.000000 0.000000 0.000000 -0.012713 0.000000
# 6 0.000000 0.000000 0.000000 0.000000 0.000000 -0.218355
#
#
# Mechanical properties :
#
#
# Convention : Reuss Voigt Hill
#
# Bulk Modulus (GPa) = 38.72124 62.72510 50.72317
# Shear Modulus (GPa) = -37.09179 8.40260 -14.34459
#
# Velocity S-wave (km/s) = -3.85539 1.83500 -2.39758
# Velocity P-wave (km/s) = 2.07405 5.44296 3.55838
#
# Compressibility (1/GPa) = 0.02582562
#
# Stress axis : x y z
#
# Youngs Moduli (GPa) = 130.71038 53.60611 138.80100
#
# Poissons Ratio (x) = -0.00289 0.47318
# Poissons Ratio (y) = -0.00704 0.06758
# Poissons Ratio (z) = 0.44559 0.02610
#
# Static dielectric constant tensor:
#      x y z
#    x 2.105100 0.000000 0.000000 
#    y 0.000000 1.998880 0.000000 
#    z 0.000000 0.000000 2.005000 
# 
# From -- ./inp_files/1460.got.cif
#   From: 2010.05.17/outbox.cif.g08.bks.cpg/sg64_1_cif.got.tgz:1460.got - 2010.06.03 16:29:19.
