data_PCOD9478364
_publ_section_title
;
Structure prediction by ZEFSAII (Michael W. Deem and Ramdas Pophale) SiO2 
 PCOD9478364
Probable space group: C M C A
;
_chemical_formula_sum "Si O2"
_cell_formula_units_Z 72
_cell_length_a 30.039151
_cell_length_b 9.257897
_cell_length_c 10.897837
_cell_angle_alpha 90.000000
_cell_angle_beta 90.000000
_cell_angle_gamma 90.000000
_cell_volume 3030.681560
_symmetry_space_group_name_H-M "C M C A"
_symmetry_group_IT_number 64
_symmetry_cell_setting 'orthorhombic'
loop_
_space_group_symop_operation_xyz
x,y,z
-x,1/2-y,1/2+z
x,-y,-z
-x,1/2+y,1/2-z
-x,-y,-z
x,1/2+y,1/2-z
-x,y,z
x,1/2-y,1/2+z
1/2+x,1/2+y,z
1/2-x,-y,1/2+z
1/2+x,1/2-y,-z
1/2-x,y,1/2-z
1/2-x,1/2-y,-z
1/2+x,y,1/2-z
1/2-x,1/2+y,z
1/2+x,-y,1/2+z
loop_
_atom_site_type_symbol
_atom_site_label
_atom_site_fract_x
_atom_site_fract_y
_atom_site_fract_z
Si Si1 0.808610 0.631655 0.668008
Si Si2 0.950987 0.919979 0.635275
Si Si3 0.372526 0.094020 0.877767
Si Si4 0.597164 0.344440 0.031542
Si Si5 0.250000 0.384581 0.750000
O O1 0.828020 0.618779 0.805528
O O2 0.853159 0.639438 0.587846
O O3 0.780391 0.777998 0.668196
O O4 0.778543 0.488883 0.660691
O O5 0.934935 0.756948 0.612256
O O6 0.000000 0.928791 0.690706
O O7 0.953557 0.000000 0.500000
O O8 0.909641 0.002733 0.696520
O O9 0.394229 0.245902 0.912209
O O10 0.363642 0.000000 0.000000
O O11 0.578678 0.500000 0.000000
#
# Coordination Sequence:
#
# PCOD9478364 Si02
#       5
#    16  16  16  16   8
#     4  11  21  39  54  77 110 138 176 227 262 316
#     4   8  16  33  55  78 106 141 177 212 256 314
#     4   9  19  36  58  76 101 146 181 207 263 321
#     4  10  20  33  55  82 107 139 174 214 269 313
#     4  10  22  36  56  76 106 142 174 222 278 304
#
# _framework density 23.757033
#
# number of rings (size 3 to 8) (size 9 to 14) (size 15 to 20)
#    0.000    2.889    0.000    4.000    0.000    0.444 
#    0.000   23.333    0.000    8.000    0.000    0.000 
#    0.000    0.000    0.000    0.000    0.000    0.000 
#
# Total GULP energy -201124.073018 kJ/mol
# GULP energy per Si atom -5586.779806 kJ/mol
# Density = 2.370296 g / cm^3
# Si number density = 23.757033 Si / 1000 Ang^3
#
#
#
# Elastic Constant Matrix: (Units=GPa)
#
#
# Indices 1 2 3 4 5 6 
#
# 1 101.6412 38.2211 1.3300 0.0000 0.0000 0.0000
# 2 38.2211 190.0006 17.2414 0.0000 0.0000 0.0000
# 3 1.3300 17.2414 27.6052 0.0000 0.0000 0.0000
# 4 0.0000 0.0000 0.0000 15.9803 0.0000 0.0000
# 5 0.0000 0.0000 0.0000 0.0000 13.4468 0.0000
# 6 0.0000 0.0000 0.0000 0.0000 0.0000 181.6156
#
#
#
# Elastic Compliance Matrix: (Units=1/GPa)
#
#
# Indices 1 2 3 4 5 6 
#
# 1 0.010664 -0.002225 0.000876 0.000000 0.000000 0.000000
# 2 -0.002225 0.006043 -0.003667 0.000000 0.000000 0.000000
# 3 0.000876 -0.003667 0.038473 0.000000 0.000000 0.000000
# 4 0.000000 0.000000 0.000000 0.062577 0.000000 0.000000
# 5 0.000000 0.000000 0.000000 0.000000 0.074367 0.000000
# 6 0.000000 0.000000 0.000000 0.000000 0.000000 0.005506
#
#
# Mechanical properties :
#
#
# Convention : Reuss Voigt Hill
#
# Bulk Modulus (GPa) = 22.14945 48.09244 35.12094
# Shear Modulus (GPa) = 22.45046 59.70551 41.07798
#
# Velocity S-wave (km/s) = 3.07742 5.01859 4.16274
# Velocity P-wave (km/s) = 4.68732 7.33956 6.15792
#
# Compressibility (1/GPa) = 0.04514785
#
# Stress axis : x y z
#
# Youngs Moduli (GPa) = 93.77696 165.46875 25.99194
#
# Poissons Ratio (x) = 0.36810 -0.02276
# Poissons Ratio (y) = 0.20861 0.09532
# Poissons Ratio (z) = -0.08211 0.60684
#
# Static dielectric constant tensor:
#      x y z
#    x 1.889630 0.000000 0.000000 
#    y 0.000000 1.913960 0.000000 
#    z 0.000000 0.000000 1.969620 
# 
# From -- ./inp_files/28270.got.cif
#   From: 2010.05.17/outbox.cif.g08.bks.cpg/sg64_15_cif.got.tgz:28270.got - 2010.06.03 16:29:19.
