data_PCOD9478292
_publ_section_title
;
Structure prediction by ZEFSAII (Michael W. Deem and Ramdas Pophale) SiO2 
 PCOD9478292
Probable space group: C M C A
;
_chemical_formula_sum "Si O2"
_cell_formula_units_Z 96
_cell_length_a 7.826034
_cell_length_b 20.668711
_cell_length_c 31.351649
_cell_angle_alpha 90.000000
_cell_angle_beta 90.000000
_cell_angle_gamma 90.000000
_cell_volume 5071.255730
_symmetry_space_group_name_H-M "C M C A"
_symmetry_group_IT_number 64
_symmetry_cell_setting 'orthorhombic'
loop_
_space_group_symop_operation_xyz
x,y,z
-x,1/2-y,1/2+z
x,-y,-z
-x,1/2+y,1/2-z
-x,-y,-z
x,1/2+y,1/2-z
-x,y,z
x,1/2-y,1/2+z
1/2+x,1/2+y,z
1/2-x,-y,1/2+z
1/2+x,1/2-y,-z
1/2-x,y,1/2-z
1/2-x,1/2-y,-z
1/2+x,y,1/2-z
1/2-x,1/2+y,z
1/2+x,-y,1/2+z
loop_
_atom_site_type_symbol
_atom_site_label
_atom_site_fract_x
_atom_site_fract_y
_atom_site_fract_z
Si Si1 0.790786 0.448552 0.534822
Si Si2 0.204859 0.698287 0.464333
Si Si3 0.702716 0.950384 0.201973
Si Si4 0.793947 0.303981 0.201616
Si Si5 0.790697 0.700942 0.367750
Si Si6 0.795649 0.445653 0.631120
O O1 0.731065 0.500000 0.500000
O O2 0.736276 0.374777 0.525405
O O3 0.735400 0.463462 0.583362
O O4 0.000000 0.449726 0.534126
O O5 0.250000 0.750000 0.500000
O O6 0.263507 0.715733 0.416393
O O7 0.000000 0.695144 0.462150
O O8 0.500000 0.945729 0.200218
O O9 0.750000 0.970606 0.250000
O O10 0.772041 0.877412 0.194885
O O11 0.755928 0.001630 0.166574
O O12 0.750000 0.284898 0.250000
O O13 0.730500 0.253037 0.166668
O O14 0.000000 0.305607 0.198402
O O15 0.735200 0.627180 0.358226
O O16 0.000000 0.701878 0.366892
O O17 0.000000 0.441076 0.628177
#
# Coordination Sequence:
#
# PCOD9478292 Si02
#       6
#    16  16  16  16  16  16
#     4   8  15  29  48  69  94 126 161 192 226 275
#     4   9  17  30  48  69  94 124 156 191 231 274
#     4  10  20  33  49  69  94 122 152 189 232 278
#     4   9  18  33  50  67  90 120 153 188 227 274
#     4   8  16  32  50  67  92 126 157 186 230 281
#     4   9  17  31  51  71  93 123 158 195 232 273
#
# _framework density 18.930222000000001
#
# number of rings (size 3 to 8) (size 9 to 14) (size 15 to 20)
#    0.000    3.167    0.000    2.500    0.000    2.667 
#    0.000    6.667    0.000    1.000    0.000    0.000 
#    0.000    0.000    0.000    0.000    0.000    0.000 
#
# Total GULP energy -267533.317928 kJ/mol
# GULP energy per Si atom -5573.610790 kJ/mol
# Density = 1.888714 g / cm^3
# Si number density = 18.930222 Si / 1000 Ang^3
#
#
#
# Elastic Constant Matrix: (Units=GPa)
#
#
# Indices 1 2 3 4 5 6 
#
# 1 16.9767 6.7243 5.0683 0.0000 0.0000 0.0000
# 2 6.7243 155.1154 156.9557 0.0000 0.0000 0.0000
# 3 5.0683 156.9557 192.4740 0.0000 0.0000 0.0000
# 4 0.0000 0.0000 0.0000 47.4207 0.0000 0.0000
# 5 0.0000 0.0000 0.0000 0.0000 18.8027 0.0000
# 6 0.0000 0.0000 0.0000 0.0000 0.0000 9.5212
#
#
#
# Elastic Compliance Matrix: (Units=1/GPa)
#
#
# Indices 1 2 3 4 5 6 
#
# 1 0.060257 -0.005757 0.003108 0.000000 0.000000 0.000000
# 2 -0.005757 0.037418 -0.030362 0.000000 0.000000 0.000000
# 3 0.003108 -0.030362 0.029873 0.000000 0.000000 0.000000
# 4 0.000000 0.000000 0.000000 0.021088 0.000000 0.000000
# 5 0.000000 0.000000 0.000000 0.000000 0.053184 0.000000
# 6 0.000000 0.000000 0.000000 0.000000 0.000000 0.105029
#
#
# Mechanical properties :
#
#
# Convention : Reuss Voigt Hill
#
# Bulk Modulus (GPa) = 16.25328 78.00697 47.13013
# Shear Modulus (GPa) = 12.71043 28.20345 20.45694
#
# Velocity S-wave (km/s) = 2.59402 3.86406 3.29089
# Velocity P-wave (km/s) = 4.19243 7.82337 6.27621
#
# Compressibility (1/GPa) = 0.06152603
#
# Stress axis : x y z
#
# Youngs Moduli (GPa) = 16.59570 26.72496 33.47560
#
# Poissons Ratio (x) = 0.15384 -0.10403
# Poissons Ratio (y) = 0.09553 1.01637
# Poissons Ratio (z) = -0.05157 0.81141
#
# Static dielectric constant tensor:
#      x y z
#    x 1.689170 0.000000 0.000000 
#    y 0.000000 1.664050 0.000000 
#    z 0.000000 0.000000 1.616030 
# 
# From -- ./inp_files/48117.got.cif
#   From: 2010.05.17/outbox.cif.g08.bks.cpg/sg64_25_cif.got.tgz:48117.got - 2010.06.03 16:29:19.
