data_PCOD9478113
_publ_section_title
;
Structure prediction by ZEFSAII (Michael W. Deem and Ramdas Pophale) SiO2 
 PCOD9478113
Probable space group: C M C A
;
_chemical_formula_sum "Si O2"
_cell_formula_units_Z 88
_cell_length_a 10.084074
_cell_length_b 14.085529
_cell_length_c 28.542711
_cell_angle_alpha 90.000000
_cell_angle_beta 90.000000
_cell_angle_gamma 90.000000
_cell_volume 4054.192878
_symmetry_space_group_name_H-M "C M C A"
_symmetry_group_IT_number 64
_symmetry_cell_setting 'orthorhombic'
loop_
_space_group_symop_operation_xyz
x,y,z
-x,1/2-y,1/2+z
x,-y,-z
-x,1/2+y,1/2-z
-x,-y,-z
x,1/2+y,1/2-z
-x,y,z
x,1/2-y,1/2+z
1/2+x,1/2+y,z
1/2-x,-y,1/2+z
1/2+x,1/2-y,-z
1/2-x,y,1/2-z
1/2-x,1/2-y,-z
1/2+x,y,1/2-z
1/2-x,1/2+y,z
1/2+x,-y,1/2+z
loop_
_atom_site_type_symbol
_atom_site_label
_atom_site_fract_x
_atom_site_fract_y
_atom_site_fract_z
Si Si1 0.238777 0.177514 0.569862
Si Si2 0.000000 0.487611 0.332073
Si Si3 0.353052 0.129643 0.471733
Si Si4 0.700553 0.298229 0.651103
Si Si5 0.000000 0.790962 0.219909
Si Si6 0.230663 0.511347 0.109015
Si Si7 0.000000 0.800628 0.818113
O O1 0.315932 0.132426 0.526009
O O2 0.153995 0.262043 0.547044
O O3 0.332835 0.231404 0.606993
O O4 0.169001 0.090160 0.596527
O O5 0.129963 0.487805 0.365065
O O6 0.000000 0.399401 0.296970
O O7 0.000000 0.587764 0.304417
O O8 0.500000 0.092373 0.464610
O O9 0.257111 0.068084 0.439258
O O10 0.627698 0.258843 0.696344
O O11 0.664994 0.407721 0.641172
O O12 0.860984 0.289904 0.654667
O O13 0.000000 0.770186 0.274615
#
# Coordination Sequence:
#
# PCOD9478113 Si02
#       7
#    16   8  16  16   8  16   8
#     4  10  21  35  56  89 123 159 210 252 306 358
#     4  10  20  38  66  90 116 169 210 248 307 389
#     4  10  21  34  58  87 121 165 211 258 293 357
#     4  10  23  40  65  92 124 163 204 259 313 372
#     4  12  22  44  67  98 122 152 208 274 315 372
#     4  10  19  38  59  87 123 164 210 249 302 374
#     4  10  24  46  64  89 127 161 204 257 321 390
#
# _framework density 21.705922999999999
#
# number of rings (size 3 to 8) (size 9 to 14) (size 15 to 20)
#    0.000    1.818    2.727    1.091    6.364    0.727 
#    4.909    1.818    0.000    3.273    0.000    0.000 
#    0.000    0.000    0.000    0.000    0.000    0.000 
#
# Total GULP energy -245568.583087 kJ/mol
# GULP energy per Si atom -5581.104161 kJ/mol
# Density = 2.165652 g / cm^3
# Si number density = 21.705923 Si / 1000 Ang^3
#
#
#
# Elastic Constant Matrix: (Units=GPa)
#
#
# Indices 1 2 3 4 5 6 
#
# 1 56.4162 0.1275 -2.6838 0.0000 0.0000 0.0000
# 2 0.1275 154.8253 25.3242 0.0000 0.0000 0.0000
# 3 -2.6838 25.3242 75.7644 0.0000 0.0000 0.0000
# 4 0.0000 0.0000 0.0000 42.4632 0.0000 0.0000
# 5 0.0000 0.0000 0.0000 0.0000 6.9230 0.0000
# 6 0.0000 0.0000 0.0000 0.0000 0.0000 -3.8374
#
#
#
# Elastic Compliance Matrix: (Units=1/GPa)
#
#
# Indices 1 2 3 4 5 6 
#
# 1 0.017758 -0.000124 0.000671 0.000000 0.000000 0.000000
# 2 -0.000124 0.006833 -0.002288 0.000000 0.000000 0.000000
# 3 0.000671 -0.002288 0.013987 0.000000 0.000000 0.000000
# 4 0.000000 0.000000 0.000000 0.023550 0.000000 0.000000
# 5 0.000000 0.000000 0.000000 0.000000 0.144446 0.000000
# 6 0.000000 0.000000 0.000000 0.000000 0.000000 -0.260593
#
#
# Mechanical properties :
#
#
# Convention : Reuss Voigt Hill
#
# Bulk Modulus (GPa) = 28.49488 36.94908 32.72198
# Shear Modulus (GPa) = -128.74382 26.72563 -51.00910
#
# Velocity S-wave (km/s) = -7.70983 3.51274 -4.85295
# Velocity P-wave (km/s) = 8.13014 5.78895 4.03653
#
# Compressibility (1/GPa) = 0.03509403
#
# Stress axis : x y z
#
# Youngs Moduli (GPa) = 56.31396 146.34206 71.49252
#
# Poissons Ratio (x) = 0.01819 -0.04794
# Poissons Ratio (y) = 0.00700 0.16361
# Poissons Ratio (z) = -0.03776 0.33489
#
# Static dielectric constant tensor:
#      x y z
#    x 1.784060 0.000000 0.000000 
#    y 0.000000 1.817430 0.000000 
#    z 0.000000 0.000000 1.765580 
# 
# From -- ./inp_files/52768.got.cif
#   From: 2010.05.17/outbox.cif.g08.bks.cpg/sg64_27_cif.got.tgz:52768.got - 2010.06.03 16:29:19.
