data_PCOD9478749
_publ_section_title
;
Structure prediction by ZEFSAII (Michael W. Deem and Ramdas Pophale) SiO2 
 PCOD9478749
Probable space group: C M C A
;
_chemical_formula_sum "Si O2"
_cell_formula_units_Z 64
_cell_length_a 15.957787
_cell_length_b 21.710050
_cell_length_c 8.727270
_cell_angle_alpha 90.000000
_cell_angle_beta 90.000000
_cell_angle_gamma 90.000000
_cell_volume 3023.513414
_symmetry_space_group_name_H-M "C M C A"
_symmetry_group_IT_number 64
_symmetry_cell_setting 'orthorhombic'
loop_
_space_group_symop_operation_xyz
x,y,z
-x,1/2-y,1/2+z
x,-y,-z
-x,1/2+y,1/2-z
-x,-y,-z
x,1/2+y,1/2-z
-x,y,z
x,1/2-y,1/2+z
1/2+x,1/2+y,z
1/2-x,-y,1/2+z
1/2+x,1/2-y,-z
1/2-x,y,1/2-z
1/2-x,1/2-y,-z
1/2+x,y,1/2-z
1/2-x,1/2+y,z
1/2+x,-y,1/2+z
loop_
_atom_site_type_symbol
_atom_site_label
_atom_site_fract_x
_atom_site_fract_y
_atom_site_fract_z
Si Si1 0.155792 0.314573 0.316820
Si Si2 0.344855 0.311085 0.818605
Si Si3 0.905229 0.931376 0.355357
Si Si4 0.843985 0.436584 0.812945
O O1 0.250000 0.319007 0.250000
O O2 0.158486 0.309098 0.499009
O O3 0.117043 0.251906 0.247043
O O4 0.110413 0.376030 0.260518
O O5 0.250000 0.312196 0.750000
O O6 0.382991 0.375635 0.762927
O O7 0.845351 0.925930 0.503642
O O8 0.000000 0.928596 0.414463
O O9 0.889602 0.998705 0.285004
O O10 0.750000 0.443486 0.750000
#
# Coordination Sequence:
#
# PCOD9478749 Si02
#       4
#    16  16  16  16
#     4  11  20  37  63  90 121 161 207 254 303 365
#     4  10  20  35  61  93 120 152 207 265 303 348
#     4  11  24  42  61  91 131 167 200 252 315 371
#     4  10  20  38  64  92 119 160 210 255 304 364
#
# _framework density 21.167428000000001
#
# number of rings (size 3 to 8) (size 9 to 14) (size 15 to 20)
#    0.000    1.500    0.000    9.750    0.000    5.000 
#    0.000   10.000    0.000    0.000    0.000    0.000 
#    0.000    0.000    0.000    0.000    0.000    0.000 
#
# Total GULP energy -178801.800277 kJ/mol
# GULP energy per Si atom -5587.556259 kJ/mol
# Density = 2.111925 g / cm^3
# Si number density = 21.167428 Si / 1000 Ang^3
#
#
#
# Elastic Constant Matrix: (Units=GPa)
#
#
# Indices 1 2 3 4 5 6 
#
# 1 45.0054 13.0619 17.2977 0.0000 0.0000 0.0000
# 2 13.0619 215.9429 100.4484 0.0000 0.0000 0.0000
# 3 17.2977 100.4484 156.9613 0.0000 0.0000 0.0000
# 4 0.0000 0.0000 0.0000 41.2133 0.0000 0.0000
# 5 0.0000 0.0000 0.0000 0.0000 8.4607 0.0000
# 6 0.0000 0.0000 0.0000 0.0000 0.0000 -38.2136
#
#
#
# Elastic Compliance Matrix: (Units=1/GPa)
#
#
# Indices 1 2 3 4 5 6 
#
# 1 0.023216 -0.000305 -0.002363 0.000000 0.000000 0.000000
# 2 -0.000305 0.006598 -0.004189 0.000000 0.000000 0.000000
# 3 -0.002363 -0.004189 0.009312 0.000000 0.000000 0.000000
# 4 0.000000 0.000000 0.000000 0.024264 0.000000 0.000000
# 5 0.000000 0.000000 0.000000 0.000000 0.118193 0.000000
# 6 0.000000 0.000000 0.000000 0.000000 0.000000 -0.026169
#
#
# Mechanical properties :
#
#
# Convention : Reuss Voigt Hill
#
# Bulk Modulus (GPa) = 39.35119 75.50284 57.42702
# Shear Modulus (GPa) = 28.15328 21.43219 24.79274
#
# Velocity S-wave (km/s) = 3.65091 3.18545 3.42609
# Velocity P-wave (km/s) = 6.03349 7.01970 6.54520
#
# Compressibility (1/GPa) = 0.02541219
#
# Stress axis : x y z
#
# Youngs Moduli (GPa) = 43.07296 151.56817 107.38846
#
# Poissons Ratio (x) = 0.04622 0.25380
# Poissons Ratio (y) = 0.01314 0.44981
# Poissons Ratio (z) = 0.10180 0.63486
#
# Static dielectric constant tensor:
#      x y z
#    x 1.752210 0.000000 0.000000 
#    y 0.000000 1.822350 0.000000 
#    z 0.000000 0.000000 1.719240 
# 
# From -- ./inp_files/5604.got.cif
#   From: 2010.05.17/outbox.cif.g08.bks.cpg/sg64_3_cif.got.tgz:5604.got - 2010.06.03 16:29:19.
