data_PCOD9478182
_publ_section_title
;
Structure prediction by ZEFSAII (Michael W. Deem and Ramdas Pophale) SiO2 
 PCOD9478182
Probable space group: C M C A
;
_chemical_formula_sum "Si O2"
_cell_formula_units_Z 80
_cell_length_a 15.106636
_cell_length_b 24.728677
_cell_length_c 10.960466
_cell_angle_alpha 90.000000
_cell_angle_beta 90.000000
_cell_angle_gamma 90.000000
_cell_volume 4094.469742
_symmetry_space_group_name_H-M "C M C A"
_symmetry_group_IT_number 64
_symmetry_cell_setting 'orthorhombic'
loop_
_space_group_symop_operation_xyz
x,y,z
-x,1/2-y,1/2+z
x,-y,-z
-x,1/2+y,1/2-z
-x,-y,-z
x,1/2+y,1/2-z
-x,y,z
x,1/2-y,1/2+z
1/2+x,1/2+y,z
1/2-x,-y,1/2+z
1/2+x,1/2-y,-z
1/2-x,y,1/2-z
1/2-x,1/2-y,-z
1/2+x,y,1/2-z
1/2-x,1/2+y,z
1/2+x,-y,1/2+z
loop_
_atom_site_type_symbol
_atom_site_label
_atom_site_fract_x
_atom_site_fract_y
_atom_site_fract_z
Si Si1 0.326133 0.436144 0.493689
Si Si2 0.500000 0.789458 0.759138
Si Si3 0.500000 0.794316 0.480065
Si Si4 0.500000 0.039299 0.884253
Si Si5 0.852841 0.380008 0.756473
Si Si6 0.500000 0.533746 0.877974
Si Si7 0.361556 0.610176 0.981794
O O1 0.300073 0.500000 0.500000
O O2 0.408475 0.428872 0.402594
O O3 0.358592 0.419527 0.628730
O O4 0.242484 0.398610 0.461418
O O5 0.500000 0.769614 0.617545
O O6 0.415808 0.828948 0.773549
O O7 0.500000 0.745842 0.866272
O O8 0.587704 0.832593 0.472465
O O9 0.500000 0.009260 0.755614
O O10 0.500000 0.000000 0.000000
O O11 0.750000 0.363006 0.750000
O O12 0.875291 0.405934 0.624957
O O13 0.500000 0.500000 0.000000
O O14 0.413989 0.571191 0.892139
#
# Coordination Sequence:
#
# PCOD9478182 Si02
#       7
#    16   8   8   8  16   8  16
#     4  10  20  37  60  89 126 160 204 252 295 353
#     4  10  19  40  67  89 120 158 196 263 311 359
#     4   9  20  40  69  91 119 153 208 251 317 370
#     4  10  24  37  52  86 121 159 211 250 296 349
#     4   9  19  37  64  90 117 160 210 240 300 377
#     4  11  23  35  58  82 119 164 211 242 300 362
#     4   9  20  39  60  86 119 161 204 249 298 373
#
# _framework density 19.538547999999999
#
# number of rings (size 3 to 8) (size 9 to 14) (size 15 to 20)
#    0.000    2.400    0.000    1.800    5.600    0.800 
#   14.400    9.000    0.000    0.000    0.000    0.000 
#    0.000    0.000    0.000    0.000    0.000    0.000 
#
# Total GULP energy -222928.826592 kJ/mol
# GULP energy per Si atom -5573.220665 kJ/mol
# Density = 1.949408 g / cm^3
# Si number density = 19.538548 Si / 1000 Ang^3
#
#
#
# Elastic Constant Matrix: (Units=GPa)
#
#
# Indices 1 2 3 4 5 6 
#
# 1 126.8971 35.7641 56.0541 0.0000 0.0000 0.0000
# 2 35.7641 53.9822 57.3541 0.0000 0.0000 0.0000
# 3 56.0541 57.3541 145.7354 0.0000 0.0000 0.0000
# 4 0.0000 0.0000 0.0000 40.1528 0.0000 0.0000
# 5 0.0000 0.0000 0.0000 0.0000 -20.3116 0.0000
# 6 0.0000 0.0000 0.0000 0.0000 0.0000 1.4383
#
#
#
# Elastic Compliance Matrix: (Units=1/GPa)
#
#
# Indices 1 2 3 4 5 6 
#
# 1 0.010065 -0.004391 -0.002143 0.000000 0.000000 0.000000
# 2 -0.004391 0.033752 -0.011594 0.000000 0.000000 0.000000
# 3 -0.002143 -0.011594 0.012249 0.000000 0.000000 0.000000
# 4 0.000000 0.000000 0.000000 0.024905 0.000000 0.000000
# 5 0.000000 0.000000 0.000000 0.000000 -0.049233 0.000000
# 6 0.000000 0.000000 0.000000 0.000000 0.000000 0.695268
#
#
# Mechanical properties :
#
#
# Convention : Reuss Voigt Hill
#
# Bulk Modulus (GPa) = 50.48190 69.43992 59.96091
# Shear Modulus (GPa) = 6.49464 16.08540 11.29002
#
# Velocity S-wave (km/s) = 1.82517 2.87237 2.40642
# Velocity P-wave (km/s) = 5.50770 6.82772 6.20293
#
# Compressibility (1/GPa) = 0.01980908
#
# Stress axis : x y z
#
# Youngs Moduli (GPa) = 99.35812 29.62767 81.63982
#
# Poissons Ratio (x) = 0.13010 0.17496
# Poissons Ratio (y) = 0.43629 0.94655
# Poissons Ratio (z) = 0.21293 0.34351
#
# Static dielectric constant tensor:
#      x y z
#    x 1.756830 0.000000 0.000000 
#    y 0.000000 1.679790 0.000000 
#    z 0.000000 0.000000 1.702450 
# 
# From -- ./inp_files/14531.got.cif
#   From: 2010.05.17/outbox.cif.g08.bks.cpg/sg64_8_cif.got.tgz:14531.got - 2010.06.03 16:29:19.
