data_PCOD9478593
_publ_section_title
;
Structure prediction by ZEFSAII (Michael W. Deem and Ramdas Pophale) SiO2 
 PCOD9478593
Probable space group: C M C A
;
_chemical_formula_sum "Si O2"
_cell_formula_units_Z 80
_cell_length_a 8.367248
_cell_length_b 26.253637
_cell_length_c 18.961039
_cell_angle_alpha 90.000000
_cell_angle_beta 90.000000
_cell_angle_gamma 90.000000
_cell_volume 4165.184552
_symmetry_space_group_name_H-M "C M C A"
_symmetry_group_IT_number 64
_symmetry_cell_setting 'orthorhombic'
loop_
_space_group_symop_operation_xyz
x,y,z
-x,1/2-y,1/2+z
x,-y,-z
-x,1/2+y,1/2-z
-x,-y,-z
x,1/2+y,1/2-z
-x,y,z
x,1/2-y,1/2+z
1/2+x,1/2+y,z
1/2-x,-y,1/2+z
1/2+x,1/2-y,-z
1/2-x,y,1/2-z
1/2-x,1/2-y,-z
1/2+x,y,1/2-z
1/2-x,1/2+y,z
1/2+x,-y,1/2+z
loop_
_atom_site_type_symbol
_atom_site_label
_atom_site_fract_x
_atom_site_fract_y
_atom_site_fract_z
Si Si1 0.191242 0.193645 0.081554
Si Si2 0.304681 0.502617 0.418856
Si Si3 0.193183 0.596152 0.830056
Si Si4 0.691014 0.600096 0.329464
Si Si5 0.306795 0.690478 0.576031
O O1 0.253873 0.153432 0.137735
O O2 0.246074 0.251991 0.094262
O O3 0.000000 0.193280 0.082521
O O4 0.249615 0.179032 0.003203
O O5 0.251932 0.500000 0.500000
O O6 0.500000 0.502915 0.419596
O O7 0.254218 0.453082 0.374742
O O8 0.251528 0.553806 0.379214
O O9 0.250000 0.593616 0.750000
O O10 0.248092 0.647527 0.869511
O O11 0.000000 0.596308 0.830267
O O12 0.500000 0.598889 0.329391
O O13 0.750000 0.593385 0.250000
O O14 0.500000 0.690057 0.575284
#
# Coordination Sequence:
#
# PCOD9478593 Si02
#       5
#    16  16  16  16  16
#     4  10  20  35  56  82 109 139 180 225 267 315
#     4   9  18  34  57  80 102 135 178 220 266 321
#     4  10  20  35  55  79 108 139 174 217 265 318
#     4  11  22  36  55  79 110 145 180 220 267 319
#     4   9  19  36  57  80 107 142 181 220 265 318
#
# _framework density 19.206833
#
# number of rings (size 3 to 8) (size 9 to 14) (size 15 to 20)
#    0.000    2.200    0.000    3.000    0.000    5.600 
#    0.000    3.000    0.000    4.200    0.000    0.000 
#    0.000    0.000    0.000    0.000    0.000    0.000 
#
# Total GULP energy -223396.685622 kJ/mol
# GULP energy per Si atom -5584.917141 kJ/mol
# Density = 1.916312 g / cm^3
# Si number density = 19.206833 Si / 1000 Ang^3
#
#
#
# Elastic Constant Matrix: (Units=GPa)
#
#
# Indices 1 2 3 4 5 6 
#
# 1 8.2427 16.4336 16.3662 0.0000 0.0000 0.0000
# 2 16.4336 108.9687 90.7366 0.0000 0.0000 0.0000
# 3 16.3662 90.7366 161.0202 0.0000 0.0000 0.0000
# 4 0.0000 0.0000 0.0000 17.9549 0.0000 0.0000
# 5 0.0000 0.0000 0.0000 0.0000 35.2830 0.0000
# 6 0.0000 0.0000 0.0000 0.0000 0.0000 11.7261
#
#
#
# Elastic Compliance Matrix: (Units=1/GPa)
#
#
# Indices 1 2 3 4 5 6 
#
# 1 0.176050 -0.021950 -0.005525 0.000000 0.000000 0.000000
# 2 -0.021950 0.020026 -0.009054 0.000000 0.000000 0.000000
# 3 -0.005525 -0.009054 0.011874 0.000000 0.000000 0.000000
# 4 0.000000 0.000000 0.000000 0.055695 0.000000 0.000000
# 5 0.000000 0.000000 0.000000 0.000000 0.028342 0.000000
# 6 0.000000 0.000000 0.000000 0.000000 0.000000 0.085280
#
#
# Mechanical properties :
#
#
# Convention : Reuss Voigt Hill
#
# Bulk Modulus (GPa) = 7.41329 58.36716 32.89023
# Shear Modulus (GPa) = 10.09511 23.30582 16.70047
#
# Velocity S-wave (km/s) = 2.29508 3.48719 2.95194
# Velocity P-wave (km/s) = 3.30020 6.83145 5.36470
#
# Compressibility (1/GPa) = 0.13489284
#
# Stress axis : x y z
#
# Youngs Moduli (GPa) = 5.68021 49.93412 84.21726
#
# Poissons Ratio (x) = 1.09603 0.46530
# Poissons Ratio (y) = 0.12468 0.76251
# Poissons Ratio (z) = 0.03138 0.45211
#
# Static dielectric constant tensor:
#      x y z
#    x 1.667740 0.000000 0.000000 
#    y 0.000000 1.674670 0.000000 
#    z 0.000000 0.000000 1.634800 
# 
# From -- ./inp_files/29760.got.cif
#   From: 2010.05.17/outbox.cif.g08.bks.cpg/sg64_15_cif.got.tgz:29760.got - 2010.06.03 16:29:19.
