data_PCOD9478591
_publ_section_title
;
Structure prediction by ZEFSAII (Michael W. Deem and Ramdas Pophale) SiO2 
 PCOD9478591
Probable space group: C M C A
;
_chemical_formula_sum "Si O2"
_cell_formula_units_Z 96
_cell_length_a 13.871184
_cell_length_b 10.653601
_cell_length_c 35.081597
_cell_angle_alpha 90.000000
_cell_angle_beta 90.000000
_cell_angle_gamma 90.000000
_cell_volume 5184.290337
_symmetry_space_group_name_H-M "C M C A"
_symmetry_group_IT_number 64
_symmetry_cell_setting 'orthorhombic'
loop_
_space_group_symop_operation_xyz
x,y,z
-x,1/2-y,1/2+z
x,-y,-z
-x,1/2+y,1/2-z
-x,-y,-z
x,1/2+y,1/2-z
-x,y,z
x,1/2-y,1/2+z
1/2+x,1/2+y,z
1/2-x,-y,1/2+z
1/2+x,1/2-y,-z
1/2-x,y,1/2-z
1/2-x,1/2-y,-z
1/2+x,y,1/2-z
1/2-x,1/2+y,z
1/2+x,-y,1/2+z
loop_
_atom_site_type_symbol
_atom_site_label
_atom_site_fract_x
_atom_site_fract_y
_atom_site_fract_z
Si Si1 0.299128 0.884845 0.830113
Si Si2 0.000000 0.835246 0.235249
Si Si3 0.790624 0.374186 0.293155
Si Si4 0.185400 0.399740 0.032376
Si Si5 0.110426 0.797092 0.023542
Si Si6 0.111400 0.587033 0.090140
Si Si7 0.500000 0.570959 0.286998
O O1 0.257861 0.755289 0.813036
O O2 0.319398 0.878765 0.874977
O O3 0.403579 0.908376 0.810911
O O4 0.237727 0.004291 0.817089
O O5 0.905128 0.864390 0.211191
O O6 0.000000 0.685828 0.243749
O O7 0.000000 0.932138 0.269919
O O8 0.750000 0.383286 0.250000
O O9 0.301351 0.389440 0.032825
O O10 0.143782 0.455898 0.071098
O O11 0.157794 0.500000 0.000000
O O12 0.140230 0.270752 0.016318
O O13 0.115323 0.692962 0.057224
O O14 0.000000 0.843508 0.021877
O O15 0.000000 0.578867 0.102661
#
# Coordination Sequence:
#
# PCOD9478591 Si02
#       7
#    16   8  16  16  16  16   8
#     4  11  23  37  58  86 113 149 186 234 284 335
#     4  10  22  36  60  80 114 140 188 238 279 340
#     4  11  23  39  59  84 111 149 190 235 283 336
#     4   9  18  33  55  81 107 142 186 225 270 328
#     4   9  18  33  55  82 109 144 181 226 274 328
#     4  10  20  35  55  78 110 146 184 227 275 333
#     4  10  20  38  58  86 109 146 186 233 283 331
#
# _framework density 18.517482000000001
#
# number of rings (size 3 to 8) (size 9 to 14) (size 15 to 20)
#    0.000    2.000    2.500    1.000    4.667    2.333 
#    0.000    0.000    0.000    0.000    0.000    0.000 
#    0.000    0.000    0.000    0.000    0.000    0.000 
#
# Total GULP energy -267588.027735 kJ/mol
# GULP energy per Si atom -5574.750578 kJ/mol
# Density = 1.847534 g / cm^3
# Si number density = 18.517482 Si / 1000 Ang^3
#
#
#
# Elastic Constant Matrix: (Units=GPa)
#
#
# Indices 1 2 3 4 5 6 
#
# 1 51.6694 -6.7494 5.9233 0.0000 0.0000 0.0000
# 2 -6.7494 42.3326 15.7351 0.0000 0.0000 0.0000
# 3 5.9233 15.7351 66.2904 0.0000 0.0000 0.0000
# 4 0.0000 0.0000 0.0000 12.0563 0.0000 0.0000
# 5 0.0000 0.0000 0.0000 0.0000 14.8044 0.0000
# 6 0.0000 0.0000 0.0000 0.0000 0.0000 27.9872
#
#
#
# Elastic Compliance Matrix: (Units=1/GPa)
#
#
# Indices 1 2 3 4 5 6 
#
# 1 0.020236 0.004276 -0.002823 0.000000 0.000000 0.000000
# 2 0.004276 0.026812 -0.006746 0.000000 0.000000 0.000000
# 3 -0.002823 -0.006746 0.016939 0.000000 0.000000 0.000000
# 4 0.000000 0.000000 0.000000 0.082944 0.000000 0.000000
# 5 0.000000 0.000000 0.000000 0.000000 0.067548 0.000000
# 6 0.000000 0.000000 0.000000 0.000000 0.000000 0.035731
#
#
# Mechanical properties :
#
#
# Convention : Reuss Voigt Hill
#
# Bulk Modulus (GPa) = 18.72686 21.12336 19.92511
# Shear Modulus (GPa) = 17.94715 20.66180 19.30447
#
# Velocity S-wave (km/s) = 3.11658 3.34398 3.23228
# Velocity P-wave (km/s) = 4.80476 5.13241 4.97129
#
# Compressibility (1/GPa) = 0.05339925
#
# Stress axis : x y z
#
# Youngs Moduli (GPa) = 49.41691 37.29712 59.03634
#
# Poissons Ratio (x) = -0.15947 0.16666
# Poissons Ratio (y) = -0.21129 0.39827
# Poissons Ratio (z) = 0.13951 0.25162
#
# Static dielectric constant tensor:
#      x y z
#    x 1.642830 0.000000 0.000000 
#    y 0.000000 1.665170 0.000000 
#    z 0.000000 0.000000 1.638060 
# 
# From -- ./inp_files/53210.got.cif
#   From: 2010.05.17/outbox.cif.g08.bks.cpg/sg64_27_cif.got.tgz:53210.got - 2010.06.03 16:29:19.
