data_PCOD9478148
_publ_section_title
;
Structure prediction by ZEFSAII (Michael W. Deem and Ramdas Pophale) SiO2 
 PCOD9478148
Probable space group: C M C A
;
_chemical_formula_sum "Si O2"
_cell_formula_units_Z 88
_cell_length_a 7.338219
_cell_length_b 24.327938
_cell_length_c 22.173821
_cell_angle_alpha 90.000000
_cell_angle_beta 90.000000
_cell_angle_gamma 90.000000
_cell_volume 3958.553385
_symmetry_space_group_name_H-M "C M C A"
_symmetry_group_IT_number 64
_symmetry_cell_setting 'orthorhombic'
loop_
_space_group_symop_operation_xyz
x,y,z
-x,1/2-y,1/2+z
x,-y,-z
-x,1/2+y,1/2-z
-x,-y,-z
x,1/2+y,1/2-z
-x,y,z
x,1/2-y,1/2+z
1/2+x,1/2+y,z
1/2-x,-y,1/2+z
1/2+x,1/2-y,-z
1/2-x,y,1/2-z
1/2-x,1/2-y,-z
1/2+x,y,1/2-z
1/2-x,1/2+y,z
1/2+x,-y,1/2+z
loop_
_atom_site_type_symbol
_atom_site_label
_atom_site_fract_x
_atom_site_fract_y
_atom_site_fract_z
Si Si1 0.285304 0.957486 0.816763
Si Si2 0.709503 0.580655 0.659627
Si Si3 0.500000 0.824338 0.314827
Si Si4 0.221967 0.561643 0.520087
Si Si5 0.281563 0.221853 0.316271
Si Si6 0.204473 0.367633 0.588485
O O1 0.500000 0.957120 0.829494
O O2 0.250000 0.936116 0.750000
O O3 0.196734 0.919765 0.866951
O O4 0.224961 0.020570 0.819421
O O5 0.500000 0.589667 0.678994
O O6 0.715815 0.576377 0.586875
O O7 0.841186 0.627935 0.681455
O O8 0.660012 0.776170 0.316351
O O9 0.277623 0.500000 0.500000
O O10 0.287267 0.607478 0.472308
O O11 0.000000 0.561982 0.519687
O O12 0.500000 0.232637 0.321805
O O13 0.250000 0.195815 0.250000
O O14 0.220824 0.181489 0.370406
O O15 0.000000 0.349770 0.572286
#
# Coordination Sequence:
#
# PCOD9478148 Si02
#       6
#    16  16   8  16  16  16
#     4  11  24  38  60  98 138 171 214 275 346 413
#     4  11  25  44  67 103 136 182 233 278 343 417
#     4  12  26  46  73  86 139 176 235 281 334 404
#     4  10  19  38  71 101 138 184 223 276 348 417
#     4  11  24  46  70 100 129 178 236 284 339 402
#     4  10  22  39  70 101 136 173 222 282 345 409
#
# _framework density 22.230342
#
# number of rings (size 3 to 8) (size 9 to 14) (size 15 to 20)
#    0.000    1.273    3.636    1.636    3.818    3.273 
#    3.273    0.909    0.000    0.000    0.000    0.000 
#    0.000    0.000    0.000    0.000    0.000    0.000 
#
# Total GULP energy -245021.933985 kJ/mol
# GULP energy per Si atom -5568.680318 kJ/mol
# Density = 2.217975 g / cm^3
# Si number density = 22.230342 Si / 1000 Ang^3
#
#
#
# Elastic Constant Matrix: (Units=GPa)
#
#
# Indices 1 2 3 4 5 6 
#
# 1 138.7698 43.0315 0.5562 0.0000 0.0000 0.0000
# 2 43.0315 121.0980 10.4249 0.0000 0.0000 0.0000
# 3 0.5562 10.4249 88.4561 0.0000 0.0000 0.0000
# 4 0.0000 0.0000 0.0000 -13.7487 0.0000 0.0000
# 5 0.0000 0.0000 0.0000 0.0000 18.4367 0.0000
# 6 0.0000 0.0000 0.0000 0.0000 0.0000 -7.3932
#
#
#
# Elastic Compliance Matrix: (Units=1/GPa)
#
#
# Indices 1 2 3 4 5 6 
#
# 1 0.008106 -0.002906 0.000291 0.000000 0.000000 0.000000
# 2 -0.002906 0.009384 -0.001088 0.000000 0.000000 0.000000
# 3 0.000291 -0.001088 0.011431 0.000000 0.000000 0.000000
# 4 0.000000 0.000000 0.000000 -0.072734 0.000000 0.000000
# 5 0.000000 0.000000 0.000000 0.000000 0.054240 0.000000
# 6 0.000000 0.000000 0.000000 0.000000 0.000000 -0.135259
#
#
# Mechanical properties :
#
#
# Convention : Reuss Voigt Hill
#
# Bulk Modulus (GPa) = 46.47308 50.70544 48.58926
# Shear Modulus (GPa) = -45.34898 19.07971 -13.13464
#
# Velocity S-wave (km/s) = -4.52149 2.93281 -2.43336
# Velocity P-wave (km/s) = 2.51155 5.85894 3.74294
#
# Compressibility (1/GPa) = 0.02151783
#
# Stress axis : x y z
#
# Youngs Moduli (GPa) = 123.36558 106.56598 87.47844
#
# Poissons Ratio (x) = 0.30963 -0.02550
# Poissons Ratio (y) = 0.35844 0.09515
# Poissons Ratio (z) = -0.03596 0.11591
#
# Static dielectric constant tensor:
#      x y z
#    x 1.851100 0.000000 0.000000 
#    y 0.000000 1.778860 0.000000 
#    z 0.000000 0.000000 1.838500 
# 
# From -- ./inp_files/36840.got.cif
#   From: 2010.05.17/outbox.cif.g08.bks.cpg/sg64_19_cif.got.tgz:36840.got - 2010.06.03 16:29:19.
