data_PCOD9478963
_publ_section_title
;
Structure prediction by ZEFSAII (Michael W. Deem and Ramdas Pophale) SiO2 
 PCOD9478963
Probable space group: C M C A
;
_chemical_formula_sum "Si O2"
_cell_formula_units_Z 80
_cell_length_a 14.735043
_cell_length_b 11.754802
_cell_length_c 21.995690
_cell_angle_alpha 90.000000
_cell_angle_beta 90.000000
_cell_angle_gamma 90.000000
_cell_volume 3809.818760
_symmetry_space_group_name_H-M "C M C A"
_symmetry_group_IT_number 64
_symmetry_cell_setting 'orthorhombic'
loop_
_space_group_symop_operation_xyz
x,y,z
-x,1/2-y,1/2+z
x,-y,-z
-x,1/2+y,1/2-z
-x,-y,-z
x,1/2+y,1/2-z
-x,y,z
x,1/2-y,1/2+z
1/2+x,1/2+y,z
1/2-x,-y,1/2+z
1/2+x,1/2-y,-z
1/2-x,y,1/2-z
1/2-x,1/2-y,-z
1/2+x,y,1/2-z
1/2-x,1/2+y,z
1/2+x,-y,1/2+z
loop_
_atom_site_type_symbol
_atom_site_label
_atom_site_fract_x
_atom_site_fract_y
_atom_site_fract_z
Si Si1 0.000000 0.511591 0.303369
Si Si2 0.344801 0.901324 0.611824
Si Si3 0.755345 0.397061 0.437816
Si Si4 0.603460 0.239396 0.994031
Si Si5 0.202151 0.707799 0.814164
Si Si6 0.000000 0.772877 0.269813
O O1 0.913264 0.527323 0.347040
O O2 0.000000 0.382872 0.276464
O O3 0.000000 0.630720 0.261206
O O4 0.396877 0.812366 0.568598
O O5 0.279428 0.831999 0.656838
O O6 0.291555 0.976414 0.563657
O O7 0.665241 0.367355 0.475254
O O8 0.835835 0.311455 0.458432
O O9 0.732827 0.376328 0.366634
O O10 0.500000 0.218538 0.013290
O O11 0.250000 0.690049 0.750000
O O12 0.093979 0.707084 0.804775
#
# Coordination Sequence:
#
# PCOD9478963 Si02
#       6
#     8  16  16  16  16   8
#     4  10  20  36  61  98 130 180 231 276 338 412
#     4  10  20  36  63  92 123 169 220 274 324 404
#     4  10  22  35  62  96 120 164 219 266 330 401
#     4  10  21  40  63  92 129 164 212 277 340 399
#     4  10  22  40  59  87 131 171 213 275 330 398
#     4  10  22  38  62  90 131 180 225 276 340 408
#
# _framework density 20.998373999999998
#
# number of rings (size 3 to 8) (size 9 to 14) (size 15 to 20)
#    0.000    2.000    1.000    1.800    5.600    4.800 
#    1.800    0.000    2.200   15.600    0.000    0.000 
#    0.000    0.000    0.000    0.000    0.000    0.000 
#
# Total GULP energy -222839.932540 kJ/mol
# GULP energy per Si atom -5570.998313 kJ/mol
# Density = 2.095058 g / cm^3
# Si number density = 20.998374 Si / 1000 Ang^3
#
#
#
# Elastic Constant Matrix: (Units=GPa)
#
#
# Indices 1 2 3 4 5 6 
#
# 1 126.0772 31.3641 20.4533 0.0000 0.0000 0.0000
# 2 31.3641 84.2005 15.4405 0.0000 0.0000 0.0000
# 3 20.4533 15.4405 78.3518 0.0000 0.0000 0.0000
# 4 0.0000 0.0000 0.0000 43.6221 0.0000 0.0000
# 5 0.0000 0.0000 0.0000 0.0000 23.1285 0.0000
# 6 0.0000 0.0000 0.0000 0.0000 0.0000 20.1358
#
#
#
# Elastic Compliance Matrix: (Units=1/GPa)
#
#
# Indices 1 2 3 4 5 6 
#
# 1 0.008966 -0.003020 -0.001745 0.000000 0.000000 0.000000
# 2 -0.003020 0.013339 -0.001840 0.000000 0.000000 0.000000
# 3 -0.001745 -0.001840 0.013581 0.000000 0.000000 0.000000
# 4 0.000000 0.000000 0.000000 0.022924 0.000000 0.000000
# 5 0.000000 0.000000 0.000000 0.000000 0.043237 0.000000
# 6 0.000000 0.000000 0.000000 0.000000 0.000000 0.049663
#
#
# Mechanical properties :
#
#
# Convention : Reuss Voigt Hill
#
# Bulk Modulus (GPa) = 44.10140 47.01614 45.55877
# Shear Modulus (GPa) = 28.98903 32.13538 30.56220
#
# Velocity S-wave (km/s) = 3.71959 3.91624 3.81918
# Velocity P-wave (km/s) = 6.28451 6.54891 6.41807
#
# Compressibility (1/GPa) = 0.02267502
#
# Stress axis : x y z
#
# Youngs Moduli (GPa) = 111.53219 74.96979 73.63091
#
# Poissons Ratio (x) = 0.22639 0.12852
# Poissons Ratio (y) = 0.33679 0.13551
# Poissons Ratio (z) = 0.19467 0.13797
#
# Static dielectric constant tensor:
#      x y z
#    x 1.742120 0.000000 0.000000 
#    y 0.000000 1.836430 0.000000 
#    z 0.000000 0.000000 1.788750 
# 
# From -- ./inp_files/45000.got.cif
#   From: 2010.05.17/outbox.cif.g08.bks.cpg/sg64_23_cif.got.tgz:45000.got - 2010.06.03 16:29:19.
