data_PCOD9478572
_publ_section_title
;
Structure prediction by ZEFSAII (Michael W. Deem and Ramdas Pophale) SiO2 
 PCOD9478572
Probable space group: C M C A
;
_chemical_formula_sum "Si O2"
_cell_formula_units_Z 80
_cell_length_a 14.838769
_cell_length_b 30.823939
_cell_length_c 7.879627
_cell_angle_alpha 90.000000
_cell_angle_beta 90.000000
_cell_angle_gamma 90.000000
_cell_volume 3604.057160
_symmetry_space_group_name_H-M "C M C A"
_symmetry_group_IT_number 64
_symmetry_cell_setting 'orthorhombic'
loop_
_space_group_symop_operation_xyz
x,y,z
-x,1/2-y,1/2+z
x,-y,-z
-x,1/2+y,1/2-z
-x,-y,-z
x,1/2+y,1/2-z
-x,y,z
x,1/2-y,1/2+z
1/2+x,1/2+y,z
1/2-x,-y,1/2+z
1/2+x,1/2-y,-z
1/2-x,y,1/2-z
1/2-x,1/2-y,-z
1/2+x,y,1/2-z
1/2-x,1/2+y,z
1/2+x,-y,1/2+z
loop_
_atom_site_type_symbol
_atom_site_label
_atom_site_fract_x
_atom_site_fract_y
_atom_site_fract_z
Si Si1 0.349045 0.681853 0.809420
Si Si2 0.000000 0.966199 0.191810
Si Si3 0.651051 0.269029 0.829461
Si Si4 0.500000 0.413945 0.544849
Si Si5 0.000000 0.828251 0.695336
Si Si6 0.500000 0.377887 0.053801
Si Si7 0.348498 0.026245 0.177084
O O1 0.250000 0.667625 0.750000
O O2 0.380612 0.718970 0.677212
O O3 0.413849 0.641907 0.848132
O O4 0.346056 0.709173 0.986013
O O5 0.000000 0.937432 0.363845
O O6 0.000000 0.929662 0.049371
O O7 0.911175 0.995800 0.204072
O O8 0.750000 0.269452 0.750000
O O9 0.585798 0.297807 0.715076
O O10 0.500000 0.362343 0.544203
O O11 0.589885 0.431978 0.636899
O O12 0.000000 0.858102 0.865794
O O13 0.250000 0.035604 0.250000
O O14 0.338296 0.000000 0.000000
#
# Coordination Sequence:
#
# PCOD9478572 Si02
#       7
#    16   8  16   8   8   8  16
#     4  10  20  35  53  75 103 137 176 217 257 304
#     4   9  20  37  55  77 107 137 170 209 254 309
#     4  10  20  35  53  75 103 137 176 217 257 304
#     4   9  20  37  55  77 107 137 170 209 254 309
#     4  10  22  36  52  77 108 137 171 214 259 304
#     4  10  22  36  52  77 108 137 171 214 259 304
#     4   9  19  37  58  80 104 135 171 209 254 306
#
# _framework density 22.197205
#
# number of rings (size 3 to 8) (size 9 to 14) (size 15 to 20)
#    0.000    2.400    0.000    4.200    0.000    6.400 
#    0.000   10.000    0.000    0.000    0.000    0.000 
#    0.000    0.000    0.000    0.000    0.000    0.000 
#
# Total GULP energy -223652.318771 kJ/mol
# GULP energy per Si atom -5591.307969 kJ/mol
# Density = 2.214668 g / cm^3
# Si number density = 22.197205 Si / 1000 Ang^3
#
#
#
# Elastic Constant Matrix: (Units=GPa)
#
#
# Indices 1 2 3 4 5 6 
#
# 1 117.6018 31.1528 19.5394 0.0000 0.0000 0.0000
# 2 31.1528 65.6065 7.0680 0.0000 0.0000 0.0000
# 3 19.5394 7.0680 76.3654 0.0000 0.0000 0.0000
# 4 0.0000 0.0000 0.0000 39.4588 0.0000 0.0000
# 5 0.0000 0.0000 0.0000 0.0000 10.4484 0.0000
# 6 0.0000 0.0000 0.0000 0.0000 0.0000 9.1525
#
#
#
# Elastic Compliance Matrix: (Units=1/GPa)
#
#
# Indices 1 2 3 4 5 6 
#
# 1 0.010066 -0.004548 -0.002155 0.000000 0.000000 0.000000
# 2 -0.004548 0.017450 -0.000452 0.000000 0.000000 0.000000
# 3 -0.002155 -0.000452 0.013688 0.000000 0.000000 0.000000
# 4 0.000000 0.000000 0.000000 0.025343 0.000000 0.000000
# 5 0.000000 0.000000 0.000000 0.000000 0.095708 0.000000
# 6 0.000000 0.000000 0.000000 0.000000 0.000000 0.109260
#
#
# Mechanical properties :
#
#
# Convention : Reuss Voigt Hill
#
# Bulk Modulus (GPa) = 37.17915 41.67716 39.42815
# Shear Modulus (GPa) = 16.96131 25.26617 21.11374
#
# Velocity S-wave (km/s) = 2.76727 3.37747 3.08748
# Velocity P-wave (km/s) = 5.19579 5.83321 5.52370
#
# Compressibility (1/GPa) = 0.02689680
#
# Stress axis : x y z
#
# Youngs Moduli (GPa) = 99.34503 57.30512 73.05656
#
# Poissons Ratio (x) = 0.26060 0.15741
# Poissons Ratio (y) = 0.45178 0.03299
# Poissons Ratio (z) = 0.21405 0.02588
#
# Static dielectric constant tensor:
#      x y z
#    x 1.755370 0.000000 0.000000 
#    y 0.000000 1.780700 0.000000 
#    z 0.000000 0.000000 1.893320 
# 
# From -- ./inp_files/7221.got.cif
#   From: 2010.05.17/outbox.cif.g08.bks.cpg/sg64_4_cif.got.tgz:7221.got - 2010.06.03 16:29:19.
