data_PCOD9478089
_publ_section_title
;
Structure prediction by ZEFSAII (Michael W. Deem and Ramdas Pophale) SiO2 
 PCOD9478089
Probable space group: C M C A
;
_chemical_formula_sum "Si O2"
_cell_formula_units_Z 116
_cell_length_a 13.133673
_cell_length_b 24.017297
_cell_length_c 18.464982
_cell_angle_alpha 90.000000
_cell_angle_beta 90.000000
_cell_angle_gamma 90.000000
_cell_volume 5824.507601
_symmetry_space_group_name_H-M "C M C A"
_symmetry_group_IT_number 64
_symmetry_cell_setting 'orthorhombic'
loop_
_space_group_symop_operation_xyz
x,y,z
-x,1/2-y,1/2+z
x,-y,-z
-x,1/2+y,1/2-z
-x,-y,-z
x,1/2+y,1/2-z
-x,y,z
x,1/2-y,1/2+z
1/2+x,1/2+y,z
1/2-x,-y,1/2+z
1/2+x,1/2-y,-z
1/2-x,y,1/2-z
1/2-x,1/2-y,-z
1/2+x,y,1/2-z
1/2-x,1/2+y,z
1/2+x,-y,1/2+z
loop_
_atom_site_type_symbol
_atom_site_label
_atom_site_fract_x
_atom_site_fract_y
_atom_site_fract_z
Si Si1 0.383924 0.805725 0.114109
Si Si2 0.615543 0.655398 0.935138
Si Si3 0.500000 0.000000 0.000000
Si Si4 0.722140 0.405378 0.333586
Si Si5 0.209293 0.017172 0.423928
Si Si6 0.283615 0.696147 0.168366
Si Si7 0.614632 0.898993 0.593666
Si Si8 0.618601 0.288753 0.550723
O O1 0.500000 0.786568 0.112409
O O2 0.373300 0.864869 0.152622
O O3 0.319862 0.759249 0.155235
O O4 0.352819 0.809825 0.029533
O O5 0.500000 0.648350 0.908808
O O6 0.690650 0.628068 0.877519
O O7 0.629640 0.721525 0.948023
O O8 0.624524 0.624577 0.012029
O O9 0.406676 0.029684 0.049213
O O10 0.750000 0.410676 0.250000
O O11 0.704064 0.464320 0.371336
O O12 0.287700 0.061948 0.391937
O O13 0.261833 0.000000 0.500000
O O14 0.250000 0.688046 0.250000
O O15 0.372104 0.654091 0.145529
O O16 0.191336 0.687097 0.111921
O O17 0.500000 0.923223 0.601512
O O18 0.500000 0.301752 0.563400
#
# Coordination Sequence:
#
# PCOD9478089 Si02
#       8
#    16  16   4  16  16  16  16  16
#     4  11  23  39  65  93 127 177 220 265 323 393
#     4  10  19  37  62  94 127 164 215 266 317 382
#     4   8  20  44  74 104 124 164 230 286 324 390
#     4  12  25  41  61  96 135 170 211 269 337 399
#     4  10  23  43  71  95 129 171 224 279 326 394
#     4  12  24  40  62  95 139 171 210 272 334 397
#     4  11  23  43  72  96 125 171 229 278 324 387
#     4  10  21  37  62  93 127 172 223 266 316 397
#
# _framework density 19.915845999999998
#
# number of rings (size 3 to 8) (size 9 to 14) (size 15 to 20)
#    0.414    0.828    4.138    2.069    0.966    3.034 
#    3.724    0.000    3.034    0.000    0.000    0.000 
#    0.000    0.000    0.000    0.000    0.000    0.000 
#
# Total GULP energy -323216.355176 kJ/mol
# GULP energy per Si atom -5572.695779 kJ/mol
# Density = 1.987052 g / cm^3
# Si number density = 19.915846 Si / 1000 Ang^3
#
#
#
# Elastic Constant Matrix: (Units=GPa)
#
#
# Indices 1 2 3 4 5 6 
#
# 1 116.1636 23.6260 23.9376 0.0000 0.0000 0.0000
# 2 23.6260 69.5441 10.9730 0.0000 0.0000 0.0000
# 3 23.9376 10.9730 95.4347 0.0000 0.0000 0.0000
# 4 0.0000 0.0000 0.0000 15.6573 0.0000 0.0000
# 5 0.0000 0.0000 0.0000 0.0000 4.3283 0.0000
# 6 0.0000 0.0000 0.0000 0.0000 0.0000 19.7781
#
#
#
# Elastic Compliance Matrix: (Units=1/GPa)
#
#
# Indices 1 2 3 4 5 6 
#
# 1 0.009636 -0.002946 -0.002078 0.000000 0.000000 0.000000
# 2 -0.002946 0.015546 -0.001049 0.000000 0.000000 0.000000
# 3 -0.002078 -0.001049 0.011120 0.000000 0.000000 0.000000
# 4 0.000000 0.000000 0.000000 0.063868 0.000000 0.000000
# 5 0.000000 0.000000 0.000000 0.000000 0.231038 0.000000
# 6 0.000000 0.000000 0.000000 0.000000 0.000000 0.050561
#
#
# Mechanical properties :
#
#
# Convention : Reuss Voigt Hill
#
# Bulk Modulus (GPa) = 41.39637 44.24616 42.82126
# Shear Modulus (GPa) = 12.43889 22.79314 17.61602
#
# Velocity S-wave (km/s) = 2.50186 3.38668 2.97732
# Velocity P-wave (km/s) = 5.40153 6.12842 5.77642
#
# Compressibility (1/GPa) = 0.02415671
#
# Stress axis : x y z
#
# Youngs Moduli (GPa) = 103.77846 64.32722 89.92629
#
# Poissons Ratio (x) = 0.18949 0.18689
# Poissons Ratio (y) = 0.30570 0.09429
# Poissons Ratio (z) = 0.21568 0.06745
#
# Static dielectric constant tensor:
#      x y z
#    x 1.749420 0.000000 0.000000 
#    y 0.000000 1.733520 0.000000 
#    z 0.000000 0.000000 1.661440 
# 
# From -- ./inp_files/32509.got.cif
#   From: 2010.05.17/outbox.cif.g08.bks.cpg/sg64_17_cif.got.tgz:32509.got - 2010.06.03 16:29:19.
