data_PCOD9478189
_publ_section_title
;
Structure prediction by ZEFSAII (Michael W. Deem and Ramdas Pophale) SiO2 
 PCOD9478189
Probable space group: C M C A
;
_chemical_formula_sum "Si O2"
_cell_formula_units_Z 72
_cell_length_a 14.356409
_cell_length_b 22.587447
_cell_length_c 10.637515
_cell_angle_alpha 90.000000
_cell_angle_beta 90.000000
_cell_angle_gamma 90.000000
_cell_volume 3449.476213
_symmetry_space_group_name_H-M "C M C A"
_symmetry_group_IT_number 64
_symmetry_cell_setting 'orthorhombic'
loop_
_space_group_symop_operation_xyz
x,y,z
-x,1/2-y,1/2+z
x,-y,-z
-x,1/2+y,1/2-z
-x,-y,-z
x,1/2+y,1/2-z
-x,y,z
x,1/2-y,1/2+z
1/2+x,1/2+y,z
1/2-x,-y,1/2+z
1/2+x,1/2-y,-z
1/2-x,y,1/2-z
1/2-x,1/2-y,-z
1/2+x,y,1/2-z
1/2-x,1/2+y,z
1/2+x,-y,1/2+z
loop_
_atom_site_type_symbol
_atom_site_label
_atom_site_fract_x
_atom_site_fract_y
_atom_site_fract_z
Si Si1 0.894745 0.763827 0.661341
Si Si2 0.842856 0.143344 0.512539
Si Si3 0.000000 0.451898 0.613140
Si Si4 0.673577 0.871870 0.659865
Si Si5 0.750000 0.830918 0.250000
Si Si6 0.000000 0.055336 0.410179
O O1 0.888863 0.793883 0.523480
O O2 0.868214 0.817139 0.759381
O O3 0.819582 0.713087 0.676989
O O4 0.000000 0.744240 0.685470
O O5 0.741787 0.148088 0.449247
O O6 0.817987 0.133394 0.657152
O O7 0.910223 0.095314 0.447556
O O8 0.000000 0.500000 0.500000
O O9 0.092373 0.411844 0.605468
O O10 0.000000 0.465866 0.764734
O O11 0.750000 0.904096 0.750000
O O12 0.000000 0.000000 0.500000
#
# Coordination Sequence:
#
# PCOD9478189 Si02
#       6
#    16  16   8  16   8   8
#     4  11  20  38  69  97 137 191 226 271 362 433
#     4  11  23  45  65  97 145 180 235 293 352 437
#     4  12  24  44  73 105 128 178 258 298 350 437
#     4  10  19  41  68  90 138 183 221 284 357 420
#     4  12  26  38  66 112 138 186 236 280 346 448
#     4  12  26  48  75  97 140 194 230 308 391 407
#
# _framework density 20.872734000000001
#
# number of rings (size 3 to 8) (size 9 to 14) (size 15 to 20)
#    0.000    0.889   10.000    0.667    1.556    2.667 
#    2.000    0.000    0.000    0.000    0.000    0.000 
#    0.000    0.000    0.000    0.000    0.000    0.000 
#
# Total GULP energy -200649.211131 kJ/mol
# GULP energy per Si atom -5573.589198 kJ/mol
# Density = 2.082523 g / cm^3
# Si number density = 20.872734 Si / 1000 Ang^3
#
#
#
# Elastic Constant Matrix: (Units=GPa)
#
#
# Indices 1 2 3 4 5 6 
#
# 1 157.4461 34.4114 33.6331 0.0000 0.0000 0.0000
# 2 34.4114 38.2968 32.8928 0.0000 0.0000 0.0000
# 3 33.6331 32.8928 110.2101 0.0000 0.0000 0.0000
# 4 0.0000 0.0000 0.0000 34.7438 0.0000 0.0000
# 5 0.0000 0.0000 0.0000 0.0000 20.0829 0.0000
# 6 0.0000 0.0000 0.0000 0.0000 0.0000 19.7136
#
#
#
# Elastic Compliance Matrix: (Units=1/GPa)
#
#
# Indices 1 2 3 4 5 6 
#
# 1 0.007916 -0.006775 -0.000394 0.000000 0.000000 0.000000
# 2 -0.006775 0.040911 -0.010143 0.000000 0.000000 0.000000
# 3 -0.000394 -0.010143 0.012221 0.000000 0.000000 0.000000
# 4 0.000000 0.000000 0.000000 0.028782 0.000000 0.000000
# 5 0.000000 0.000000 0.000000 0.000000 0.049794 0.000000
# 6 0.000000 0.000000 0.000000 0.000000 0.000000 0.050726
#
#
# Mechanical properties :
#
#
# Convention : Reuss Voigt Hill
#
# Bulk Modulus (GPa) = 37.84240 56.42529 47.13384
# Shear Modulus (GPa) = 21.38758 28.57579 24.98168
#
# Velocity S-wave (km/s) = 3.20451 3.70408 3.46332
# Velocity P-wave (km/s) = 5.64458 6.73686 6.21476
#
# Compressibility (1/GPa) = 0.02642539
#
# Stress axis : x y z
#
# Youngs Moduli (GPa) = 126.32314 24.44351 81.82735
#
# Poissons Ratio (x) = 0.16560 0.03223
# Poissons Ratio (y) = 0.85582 0.82994
# Poissons Ratio (z) = 0.04975 0.24792
#
# Static dielectric constant tensor:
#      x y z
#    x 1.747680 0.000000 0.000000 
#    y 0.000000 1.736930 0.000000 
#    z 0.000000 0.000000 1.900480 
# 
# From -- ./inp_files/5882.got.cif
#   From: 2010.05.17/outbox.cif.g08.bks.cpg/sg64_3_cif.got.tgz:5882.got - 2010.06.03 16:29:19.
