data_PCOD9478135
_publ_section_title
;
Structure prediction by ZEFSAII (Michael W. Deem and Ramdas Pophale) SiO2 
 PCOD9478135
Probable space group: C M C A
;
_chemical_formula_sum "Si O2"
_cell_formula_units_Z 112
_cell_length_a 14.851955
_cell_length_b 24.823257
_cell_length_c 13.949924
_cell_angle_alpha 90.000000
_cell_angle_beta 90.000000
_cell_angle_gamma 90.000000
_cell_volume 5142.972829
_symmetry_space_group_name_H-M "C M C A"
_symmetry_group_IT_number 64
_symmetry_cell_setting 'orthorhombic'
loop_
_space_group_symop_operation_xyz
x,y,z
-x,1/2-y,1/2+z
x,-y,-z
-x,1/2+y,1/2-z
-x,-y,-z
x,1/2+y,1/2-z
-x,y,z
x,1/2-y,1/2+z
1/2+x,1/2+y,z
1/2-x,-y,1/2+z
1/2+x,1/2-y,-z
1/2-x,y,1/2-z
1/2-x,1/2-y,-z
1/2+x,y,1/2-z
1/2-x,1/2+y,z
1/2+x,-y,1/2+z
loop_
_atom_site_type_symbol
_atom_site_label
_atom_site_fract_x
_atom_site_fract_y
_atom_site_fract_z
Si Si1 0.603785 0.885423 0.871188
Si Si2 0.100073 0.456870 0.683590
Si Si3 0.598550 0.172793 0.830638
Si Si4 0.277765 0.696769 0.947815
Si Si5 0.782344 0.407553 0.521866
Si Si6 0.656355 0.425451 0.196992
Si Si7 0.850604 0.767502 0.709264
O O1 0.500000 0.893465 0.900340
O O2 0.621474 0.921383 0.776737
O O3 0.676825 0.904417 0.949746
O O4 0.615965 0.822915 0.837792
O O5 0.169625 0.444197 0.599587
O O6 0.101646 0.519746 0.708638
O O7 0.000000 0.441528 0.650465
O O8 0.500000 0.162929 0.875982
O O9 0.689501 0.171734 0.894916
O O10 0.612558 0.126767 0.748478
O O11 0.598645 0.234529 0.791972
O O12 0.345129 0.719848 0.869551
O O13 0.250000 0.750000 0.000000
O O14 0.312870 0.654917 0.025929
O O15 0.816564 0.420597 0.414961
O O16 0.750000 0.433875 0.250000
O O17 0.750000 0.777368 0.750000
#
# Coordination Sequence:
#
# PCOD9478135 Si02
#       7
#    16  16  16  16  16  16  16
#     4  11  24  43  67 100 136 177 230 284 343 415
#     4  11  27  46  69 100 132 176 234 294 354 415
#     4  11  23  40  65  97 132 177 231 287 341 409
#     4  11  22  41  64  93 138 181 219 271 340 413
#     4  12  23  43  70  97 136 183 227 283 345 414
#     4  12  23  45  69  96 135 180 229 282 356 417
#     4  10  19  38  64  89 128 175 219 268 337 401
#
# _framework density 21.777287999999999
#
# number of rings (size 3 to 8) (size 9 to 14) (size 15 to 20)
#    0.000    0.857    4.286    3.857    2.000    2.286 
#    0.000    0.000    0.000    3.429    0.000    0.000 
#    0.000    0.000    0.000    0.000    0.000    0.000 
#
# Total GULP energy -312359.732416 kJ/mol
# GULP energy per Si atom -5577.852365 kJ/mol
# Density = 2.172772 g / cm^3
# Si number density = 21.777288 Si / 1000 Ang^3
#
#
#
# Elastic Constant Matrix: (Units=GPa)
#
#
# Indices 1 2 3 4 5 6 
#
# 1 70.0133 21.3724 19.5681 0.0000 0.0000 0.0000
# 2 21.3724 119.8476 26.3831 0.0000 0.0000 0.0000
# 3 19.5681 26.3831 54.1576 0.0000 0.0000 0.0000
# 4 0.0000 0.0000 0.0000 36.0911 0.0000 0.0000
# 5 0.0000 0.0000 0.0000 0.0000 1.2166 0.0000
# 6 0.0000 0.0000 0.0000 0.0000 0.0000 -40.3242
#
#
#
# Elastic Compliance Matrix: (Units=1/GPa)
#
#
# Indices 1 2 3 4 5 6 
#
# 1 0.016225 -0.001795 -0.004988 0.000000 0.000000 0.000000
# 2 -0.001795 0.009545 -0.004001 0.000000 0.000000 0.000000
# 3 -0.004988 -0.004001 0.022216 0.000000 0.000000 0.000000
# 4 0.000000 0.000000 0.000000 0.027708 0.000000 0.000000
# 5 0.000000 0.000000 0.000000 0.000000 0.821935 0.000000
# 6 0.000000 0.000000 0.000000 0.000000 0.000000 -0.024799
#
#
# Mechanical properties :
#
#
# Convention : Reuss Voigt Hill
#
# Bulk Modulus (GPa) = 37.85392 42.07397 39.96394
# Shear Modulus (GPa) = 5.53585 11.17637 8.35611
#
# Velocity S-wave (km/s) = 1.59610 2.26788 1.96097
# Velocity P-wave (km/s) = 4.56254 5.12052 4.84956
#
# Compressibility (1/GPa) = 0.02641735
#
# Stress axis : x y z
#
# Youngs Moduli (GPa) = 61.63279 104.76795 45.01269
#
# Poissons Ratio (x) = 0.18810 0.22451
# Poissons Ratio (y) = 0.11066 0.18010
# Poissons Ratio (z) = 0.30741 0.41919
#
# Static dielectric constant tensor:
#      x y z
#    x 1.900720 0.000000 0.000000 
#    y 0.000000 1.805650 0.000000 
#    z 0.000000 0.000000 1.885190 
# 
# From -- ./inp_files/24264.got.cif
#   From: 2010.05.17/outbox.cif.g08.bks.cpg/sg64_13_cif.got.tgz:24264.got - 2010.06.03 16:29:19.
