data_PCOD9478551
_publ_section_title
;
Structure prediction by ZEFSAII (Michael W. Deem and Ramdas Pophale) SiO2 
 PCOD9478551
Probable space group: C M C A
;
_chemical_formula_sum "Si O2"
_cell_formula_units_Z 88
_cell_length_a 20.706551
_cell_length_b 12.538807
_cell_length_c 18.440957
_cell_angle_alpha 90.000000
_cell_angle_beta 90.000000
_cell_angle_gamma 90.000000
_cell_volume 4787.926107
_symmetry_space_group_name_H-M "C M C A"
_symmetry_group_IT_number 64
_symmetry_cell_setting 'orthorhombic'
loop_
_space_group_symop_operation_xyz
x,y,z
-x,1/2-y,1/2+z
x,-y,-z
-x,1/2+y,1/2-z
-x,-y,-z
x,1/2+y,1/2-z
-x,y,z
x,1/2-y,1/2+z
1/2+x,1/2+y,z
1/2-x,-y,1/2+z
1/2+x,1/2-y,-z
1/2-x,y,1/2-z
1/2-x,1/2-y,-z
1/2+x,y,1/2-z
1/2-x,1/2+y,z
1/2+x,-y,1/2+z
loop_
_atom_site_type_symbol
_atom_site_label
_atom_site_fract_x
_atom_site_fract_y
_atom_site_fract_z
Si Si1 0.072915 0.515765 0.119602
Si Si2 0.383951 0.219114 0.835552
Si Si3 0.184699 0.394128 0.295637
Si Si4 0.072958 0.440774 0.713541
Si Si5 0.831397 0.000000 0.500000
Si Si6 0.763089 0.690053 0.925959
O O1 0.083088 0.387514 0.131453
O O2 0.082795 0.565284 0.199213
O O3 0.000000 0.535825 0.096433
O O4 0.121779 0.556221 0.058397
O O5 0.354134 0.181737 0.759087
O O6 0.424685 0.324451 0.822131
O O7 0.322849 0.245696 0.885723
O O8 0.250000 0.428169 0.250000
O O9 0.133734 0.488283 0.312733
O O10 0.207950 0.331444 0.366829
O O11 0.000000 0.486776 0.703096
O O12 0.787978 0.925082 0.451194
O O13 0.750000 0.750000 0.000000
#
# Coordination Sequence:
#
# PCOD9478551 Si02
#       6
#    16  16  16  16   8  16
#     4   9  18  34  54  79 109 141 179 226 273 335
#     4   9  19  35  54  81 110 141 185 225 276 332
#     4   9  20  37  55  82 110 148 189 234 276 327
#     4  10  20  34  60  85 111 149 187 233 288 335
#     4  10  21  34  52  80 109 140 184 226 278 330
#     4  10  22  35  54  80 109 145 182 229 281 328
#
# _framework density 18.379563999999998
#
# number of rings (size 3 to 8) (size 9 to 14) (size 15 to 20)
#    0.000    2.545    0.000    1.909    5.091    2.909 
#    0.000    0.000    0.000    3.273    0.000    0.000 
#    0.000    0.000    0.000    0.000    0.000    0.000 
#
# Total GULP energy -245047.664480 kJ/mol
# GULP energy per Si atom -5569.265102 kJ/mol
# Density = 1.833773 g / cm^3
# Si number density = 18.379564 Si / 1000 Ang^3
#
#
#
# Elastic Constant Matrix: (Units=GPa)
#
#
# Indices 1 2 3 4 5 6 
#
# 1 63.2631 9.2207 5.0373 0.0000 0.0000 0.0000
# 2 9.2207 27.0361 2.9656 0.0000 0.0000 0.0000
# 3 5.0373 2.9656 61.9153 0.0000 0.0000 0.0000
# 4 0.0000 0.0000 0.0000 21.3759 0.0000 0.0000
# 5 0.0000 0.0000 0.0000 0.0000 13.0266 0.0000
# 6 0.0000 0.0000 0.0000 0.0000 0.0000 14.6164
#
#
#
# Elastic Compliance Matrix: (Units=1/GPa)
#
#
# Indices 1 2 3 4 5 6 
#
# 1 0.016707 -0.005578 -0.001092 0.000000 0.000000 0.000000
# 2 -0.005578 0.039045 -0.001416 0.000000 0.000000 0.000000
# 3 -0.001092 -0.001416 0.016308 0.000000 0.000000 0.000000
# 4 0.000000 0.000000 0.000000 0.046782 0.000000 0.000000
# 5 0.000000 0.000000 0.000000 0.000000 0.076766 0.000000
# 6 0.000000 0.000000 0.000000 0.000000 0.000000 0.068416
#
#
# Mechanical properties :
#
#
# Convention : Reuss Voigt Hill
#
# Bulk Modulus (GPa) = 17.89323 20.74018 19.31671
# Shear Modulus (GPa) = 16.73213 18.80318 17.76765
#
# Velocity S-wave (km/s) = 3.02050 3.20198 3.11256
# Velocity P-wave (km/s) = 4.68200 4.99791 4.84253
#
# Compressibility (1/GPa) = 0.05588706
#
# Stress axis : x y z
#
# Youngs Moduli (GPa) = 59.85525 25.61120 61.32037
#
# Poissons Ratio (x) = 0.14286 0.06697
# Poissons Ratio (y) = 0.33388 0.08685
# Poissons Ratio (z) = 0.06537 0.03627
#
# Static dielectric constant tensor:
#      x y z
#    x 1.948660 0.000000 0.000000 
#    y 0.000000 1.665340 0.000000 
#    z 0.000000 0.000000 1.635630 
# 
# From -- ./inp_files/27291.got.cif
#   From: 2010.05.17/outbox.cif.g08.bks.cpg/sg64_14_cif.got.tgz:27291.got - 2010.06.03 16:29:19.
