data_PCOD9478890
_publ_section_title
;
Structure prediction by ZEFSAII (Michael W. Deem and Ramdas Pophale) SiO2 
 PCOD9478890
Probable space group: C M C A
;
_chemical_formula_sum "Si O2"
_cell_formula_units_Z 80
_cell_length_a 14.281820
_cell_length_b 23.100379
_cell_length_c 12.729895
_cell_angle_alpha 90.000000
_cell_angle_beta 90.000000
_cell_angle_gamma 90.000000
_cell_volume 4199.789099
_symmetry_space_group_name_H-M "C M C A"
_symmetry_group_IT_number 64
_symmetry_cell_setting 'orthorhombic'
loop_
_space_group_symop_operation_xyz
x,y,z
-x,1/2-y,1/2+z
x,-y,-z
-x,1/2+y,1/2-z
-x,-y,-z
x,1/2+y,1/2-z
-x,y,z
x,1/2-y,1/2+z
1/2+x,1/2+y,z
1/2-x,-y,1/2+z
1/2+x,1/2-y,-z
1/2-x,y,1/2-z
1/2-x,1/2-y,-z
1/2+x,y,1/2-z
1/2-x,1/2+y,z
1/2+x,-y,1/2+z
loop_
_atom_site_type_symbol
_atom_site_label
_atom_site_fract_x
_atom_site_fract_y
_atom_site_fract_z
Si Si1 0.300751 0.905788 0.945990
Si Si2 0.000000 0.247571 0.636127
Si Si3 0.000000 0.935261 0.284003
Si Si4 0.190132 0.522314 0.838940
Si Si5 0.000000 0.864412 0.504286
Si Si6 0.332378 0.798167 0.520027
Si Si7 0.000000 0.178536 0.854233
O O1 0.223766 0.856343 0.952825
O O2 0.280885 0.957083 0.864784
O O3 0.304756 0.939751 0.056835
O O4 0.404876 0.878835 0.934169
O O5 0.903142 0.281007 0.614289
O O6 0.000000 0.199935 0.541885
O O7 0.000000 0.218387 0.750106
O O8 0.911742 0.976333 0.289626
O O9 0.000000 0.901652 0.396176
O O10 0.000000 0.887265 0.192319
O O11 0.250000 0.552300 0.750000
O O12 0.250000 0.750000 0.500000
O O13 0.405986 0.809073 0.423294
#
# Coordination Sequence:
#
# PCOD9478890 Si02
#       7
#    16   8   8  16   8  16   8
#     4  10  20  36  60  86 120 157 197 259 305 367
#     4  10  21  40  57  89 121 160 209 245 302 371
#     4   9  18  35  59  87 115 149 201 254 295 354
#     4  10  20  36  58  88 116 154 209 249 307 362
#     4   9  16  33  58  83 111 145 194 248 298 350
#     4  11  22  39  61  89 126 165 203 257 318 371
#     4  10  23  40  62  90 123 168 209 257 309 373
#
# _framework density 19.048576000000001
#
# number of rings (size 3 to 8) (size 9 to 14) (size 15 to 20)
#    0.000    2.000    2.000    1.800    0.000    3.200 
#    3.600    2.000    0.000    7.200    0.000    0.000 
#    0.000    0.000    0.000    0.000    0.000    0.000 
#
# Total GULP energy -222836.586838 kJ/mol
# GULP energy per Si atom -5570.914671 kJ/mol
# Density = 1.900522 g / cm^3
# Si number density = 19.048576 Si / 1000 Ang^3
#
#
#
# Elastic Constant Matrix: (Units=GPa)
#
#
# Indices 1 2 3 4 5 6 
#
# 1 109.1747 46.9773 19.1455 0.0000 0.0000 0.0000
# 2 46.9773 112.1380 18.9438 0.0000 0.0000 0.0000
# 3 19.1455 18.9438 62.7875 0.0000 0.0000 0.0000
# 4 0.0000 0.0000 0.0000 1.3611 0.0000 0.0000
# 5 0.0000 0.0000 0.0000 0.0000 17.7383 0.0000
# 6 0.0000 0.0000 0.0000 0.0000 0.0000 30.8076
#
#
#
# Elastic Compliance Matrix: (Units=1/GPa)
#
#
# Indices 1 2 3 4 5 6 
#
# 1 0.011443 -0.004430 -0.002153 0.000000 0.000000 0.000000
# 2 -0.004430 0.011112 -0.002002 0.000000 0.000000 0.000000
# 3 -0.002153 -0.002002 0.017187 0.000000 0.000000 0.000000
# 4 0.000000 0.000000 0.000000 0.734694 0.000000 0.000000
# 5 0.000000 0.000000 0.000000 0.000000 0.056375 0.000000
# 6 0.000000 0.000000 0.000000 0.000000 0.000000 0.032460
#
#
# Mechanical properties :
#
#
# Convention : Reuss Voigt Hill
#
# Bulk Modulus (GPa) = 44.30084 50.47039 47.38562
# Shear Modulus (GPa) = 5.63085 23.25030 14.44058
#
# Velocity S-wave (km/s) = 1.72118 3.49747 2.75633
# Velocity P-wave (km/s) = 5.22084 6.54697 5.92115
#
# Compressibility (1/GPa) = 0.02257293
#
# Stress axis : x y z
#
# Youngs Moduli (GPa) = 87.38598 89.99541 58.18328
#
# Poissons Ratio (x) = 0.39871 0.12525
# Poissons Ratio (y) = 0.38714 0.11646
# Poissons Ratio (z) = 0.18812 0.18014
#
# Static dielectric constant tensor:
#      x y z
#    x 1.609520 0.000000 0.000000 
#    y 0.000000 1.670150 0.000000 
#    z 0.000000 0.000000 1.672100 
# 
# From -- ./inp_files/14518.got.cif
#   From: 2010.05.17/outbox.cif.g08.bks.cpg/sg64_8_cif.got.tgz:14518.got - 2010.06.03 16:29:19.
