data_PCOD9478223
_publ_section_title
;
Structure prediction by ZEFSAII (Michael W. Deem and Ramdas Pophale) SiO2 
 PCOD9478223
Probable space group: C M C A
;
_chemical_formula_sum "Si O2"
_cell_formula_units_Z 80
_cell_length_a 20.910587
_cell_length_b 8.721520
_cell_length_c 25.299608
_cell_angle_alpha 90.000000
_cell_angle_beta 90.000000
_cell_angle_gamma 90.000000
_cell_volume 4613.942709
_symmetry_space_group_name_H-M "C M C A"
_symmetry_group_IT_number 64
_symmetry_cell_setting 'orthorhombic'
loop_
_space_group_symop_operation_xyz
x,y,z
-x,1/2-y,1/2+z
x,-y,-z
-x,1/2+y,1/2-z
-x,-y,-z
x,1/2+y,1/2-z
-x,y,z
x,1/2-y,1/2+z
1/2+x,1/2+y,z
1/2-x,-y,1/2+z
1/2+x,1/2-y,-z
1/2-x,y,1/2-z
1/2-x,1/2-y,-z
1/2+x,y,1/2-z
1/2-x,1/2+y,z
1/2+x,-y,1/2+z
loop_
_atom_site_type_symbol
_atom_site_label
_atom_site_fract_x
_atom_site_fract_y
_atom_site_fract_z
Si Si1 0.703696 0.600091 0.703018
Si Si2 0.930113 0.061330 0.826871
Si Si3 0.383220 0.843563 0.762488
Si Si4 0.696567 0.896289 0.391483
Si Si5 0.719571 0.376553 0.538440
O O1 0.750000 0.548104 0.750000
O O2 0.653182 0.462464 0.699087
O O3 0.667059 0.746309 0.726955
O O4 0.747951 0.629469 0.652601
O O5 0.921643 0.224050 0.797638
O O6 0.868573 0.046247 0.864597
O O7 0.000000 0.048780 0.852188
O O8 0.923518 0.938677 0.779726
O O9 0.683947 0.732863 0.419878
O O10 0.726773 0.023438 0.430755
O O11 0.684981 0.500000 0.500000
O O12 0.750000 0.250000 0.500000
#
# Coordination Sequence:
#
# PCOD9478223 Si02
#       5
#    16  16  16  16  16
#     4  11  19  29  52  81 111 129 172 214 263 309
#     4  11  22  33  47  71 109 152 187 201 234 303
#     4  10  20  32  46  72 113 149 173 214 245 290
#     4  11  19  31  56  77 102 135 167 211 268 311
#     4   9  20  36  54  79 100 119 160 226 287 317
#
# _framework density 17.338750999999998
#
# number of rings (size 3 to 8) (size 9 to 14) (size 15 to 20)
#    0.000    1.600    4.000    3.600    0.000    0.000 
#    0.000    0.000    0.000    6.000    0.000    0.000 
#    0.000    0.000    0.000    0.000    0.000    0.000 
#
# Total GULP energy -222901.293913 kJ/mol
# GULP energy per Si atom -5572.532348 kJ/mol
# Density = 1.729929 g / cm^3
# Si number density = 17.338751 Si / 1000 Ang^3
#
#
#
# Elastic Constant Matrix: (Units=GPa)
#
#
# Indices 1 2 3 4 5 6 
#
# 1 76.0913 5.6265 13.5611 0.0000 0.0000 0.0000
# 2 5.6265 68.9260 9.6571 0.0000 0.0000 0.0000
# 3 13.5611 9.6571 62.1788 0.0000 0.0000 0.0000
# 4 0.0000 0.0000 0.0000 35.1677 0.0000 0.0000
# 5 0.0000 0.0000 0.0000 0.0000 4.6636 0.0000
# 6 0.0000 0.0000 0.0000 0.0000 0.0000 -2.4754
#
#
#
# Elastic Compliance Matrix: (Units=1/GPa)
#
#
# Indices 1 2 3 4 5 6 
#
# 1 0.013708 -0.000716 -0.002879 0.000000 0.000000 0.000000
# 2 -0.000716 0.014868 -0.002153 0.000000 0.000000 0.000000
# 3 -0.002879 -0.002153 0.017045 0.000000 0.000000 0.000000
# 4 0.000000 0.000000 0.000000 0.028435 0.000000 0.000000
# 5 0.000000 0.000000 0.000000 0.000000 0.214428 0.000000
# 6 0.000000 0.000000 0.000000 0.000000 0.000000 -0.403974
#
#
# Mechanical properties :
#
#
# Convention : Reuss Voigt Hill
#
# Bulk Modulus (GPa) = 29.30269 29.43171 29.36720
# Shear Modulus (GPa) = -53.98428 19.36126 -17.31151
#
# Velocity S-wave (km/s) = -5.58593 3.34525 -3.16322
# Velocity P-wave (km/s) = 4.96656 5.65087 1.90599
#
# Compressibility (1/GPa) = 0.03412656
#
# Stress axis : x y z
#
# Youngs Moduli (GPa) = 72.94984 67.25670 58.66867
#
# Poissons Ratio (x) = 0.04813 0.16888
# Poissons Ratio (y) = 0.05221 0.12632
# Poissons Ratio (z) = 0.20999 0.14481
#
# Static dielectric constant tensor:
#      x y z
#    x 1.711870 0.000000 0.000000 
#    y 0.000000 1.632350 0.000000 
#    z 0.000000 0.000000 1.618130 
# 
# From -- ./inp_files/50295.got.cif
#   From: 2010.05.17/outbox.cif.g08.bks.cpg/sg64_26_cif.got.tgz:50295.got - 2010.06.03 16:29:19.
