data_PCOD9478939
_publ_section_title
;
Structure prediction by ZEFSAII (Michael W. Deem and Ramdas Pophale) SiO2 
 PCOD9478939
Probable space group: C M C A
;
_chemical_formula_sum "Si O2"
_cell_formula_units_Z 48
_cell_length_a 18.290018
_cell_length_b 13.781882
_cell_length_c 7.343897
_cell_angle_alpha 90.000000
_cell_angle_beta 90.000000
_cell_angle_gamma 90.000000
_cell_volume 1851.182505
_symmetry_space_group_name_H-M "C M C A"
_symmetry_group_IT_number 64
_symmetry_cell_setting 'orthorhombic'
loop_
_space_group_symop_operation_xyz
x,y,z
-x,1/2-y,1/2+z
x,-y,-z
-x,1/2+y,1/2-z
-x,-y,-z
x,1/2+y,1/2-z
-x,y,z
x,1/2-y,1/2+z
1/2+x,1/2+y,z
1/2-x,-y,1/2+z
1/2+x,1/2-y,-z
1/2-x,y,1/2-z
1/2-x,1/2-y,-z
1/2+x,y,1/2-z
1/2-x,1/2+y,z
1/2+x,-y,1/2+z
loop_
_atom_site_type_symbol
_atom_site_label
_atom_site_fract_x
_atom_site_fract_y
_atom_site_fract_z
Si Si1 0.736059 0.637097 0.464599
Si Si2 0.580749 0.174106 0.088509
Si Si3 0.891501 0.607805 0.501213
O O1 0.750000 0.617063 0.250000
O O2 0.750000 0.750000 0.500000
O O3 0.650770 0.626242 0.513020
O O4 0.806546 0.593360 0.562339
O O5 0.500000 0.145624 0.023088
O O6 0.583850 0.292117 0.097428
O O7 0.594705 0.140513 0.293609
O O8 0.923447 0.500000 0.500000
#
# Coordination Sequence:
#
# PCOD9478939 Si02
#       3
#    16  16  16
#     4   8  16  33  54  79 109 147 191 236 282 341
#     4  10  20  36  60  91 123 153 195 252 305 357
#     4  10  21  40  64  86 118 164 205 243 296 360
#
# _framework density 25.929371
#
# number of rings (size 3 to 8) (size 9 to 14) (size 15 to 20)
#    0.000    2.667    0.000    1.000    0.000    2.667 
#    0.000   51.667    0.000    9.000    0.000    0.000 
#    0.000    0.000    0.000    0.000    0.000    0.000 
#
# Total GULP energy -133648.339728 kJ/mol
# GULP energy per Si atom -5568.680822 kJ/mol
# Density = 2.587035 g / cm^3
# Si number density = 25.929371 Si / 1000 Ang^3
#
#
#
# Elastic Constant Matrix: (Units=GPa)
#
#
# Indices 1 2 3 4 5 6 
#
# 1 300.5612 6.1464 0.7372 0.0000 0.0000 0.0000
# 2 6.1464 146.7594 16.8785 0.0000 0.0000 0.0000
# 3 0.7372 16.8785 67.0427 0.0000 0.0000 0.0000
# 4 0.0000 0.0000 0.0000 19.8517 0.0000 0.0000
# 5 0.0000 0.0000 0.0000 0.0000 6.3782 0.0000
# 6 0.0000 0.0000 0.0000 0.0000 0.0000 -7.0113
#
#
#
# Elastic Compliance Matrix: (Units=1/GPa)
#
#
# Indices 1 2 3 4 5 6 
#
# 1 0.003330 -0.000139 -0.000002 0.000000 0.000000 0.000000
# 2 -0.000139 0.007023 -0.001767 0.000000 0.000000 0.000000
# 3 -0.000002 -0.001767 0.015361 0.000000 0.000000 0.000000
# 4 0.000000 0.000000 0.000000 0.050374 0.000000 0.000000
# 5 0.000000 0.000000 0.000000 0.000000 0.156785 0.000000
# 6 0.000000 0.000000 0.000000 0.000000 0.000000 -0.142627
#
#
# Mechanical properties :
#
#
# Convention : Reuss Voigt Hill
#
# Bulk Modulus (GPa) = 45.66478 62.43196 54.04837
# Shear Modulus (GPa) = 49.32922 36.55045 42.93983
#
# Velocity S-wave (km/s) = 4.36644 3.75856 4.07385
# Velocity P-wave (km/s) = 6.56281 6.55482 6.55882
#
# Compressibility (1/GPa) = 0.02189871
#
# Stress axis : x y z
#
# Youngs Moduli (GPa) = 300.30382 142.39187 65.10156
#
# Poissons Ratio (x) = 0.01983 0.00010
# Poissons Ratio (y) = 0.04183 0.11500
# Poissons Ratio (z) = 0.00047 0.25154
#
# Static dielectric constant tensor:
#      x y z
#    x 2.175710 0.000000 0.000000 
#    y 0.000000 2.002750 0.000000 
#    z 0.000000 0.000000 2.023830 
# 
# From -- ./inp_files/7488.got.cif
#   From: 2010.05.17/outbox.cif.g08.bks.cpg/sg64_4_cif.got.tgz:7488.got - 2010.06.03 16:29:19.
