data_PCOD9478050
_publ_section_title
;
Structure prediction by ZEFSAII (Michael W. Deem and Ramdas Pophale) SiO2 
 PCOD9478050
Probable space group: C M C A
;
_chemical_formula_sum "Si O2"
_cell_formula_units_Z 72
_cell_length_a 11.552045
_cell_length_b 12.649774
_cell_length_c 17.715559
_cell_angle_alpha 90.000000
_cell_angle_beta 90.000000
_cell_angle_gamma 90.000000
_cell_volume 2588.788074
_symmetry_space_group_name_H-M "C M C A"
_symmetry_group_IT_number 64
_symmetry_cell_setting 'orthorhombic'
loop_
_space_group_symop_operation_xyz
x,y,z
-x,1/2-y,1/2+z
x,-y,-z
-x,1/2+y,1/2-z
-x,-y,-z
x,1/2+y,1/2-z
-x,y,z
x,1/2-y,1/2+z
1/2+x,1/2+y,z
1/2-x,-y,1/2+z
1/2+x,1/2-y,-z
1/2-x,y,1/2-z
1/2-x,1/2-y,-z
1/2+x,y,1/2-z
1/2-x,1/2+y,z
1/2+x,-y,1/2+z
loop_
_atom_site_type_symbol
_atom_site_label
_atom_site_fract_x
_atom_site_fract_y
_atom_site_fract_z
Si Si1 0.126954 0.359901 0.048378
Si Si2 0.374483 0.964653 0.821021
Si Si3 0.808009 0.872018 0.914115
Si Si4 0.626134 0.341755 0.218411
Si Si5 0.000000 0.945008 0.099224
O O1 0.134658 0.444878 0.114980
O O2 0.136018 0.243122 0.082884
O O3 0.000000 0.371335 0.012642
O O4 0.222365 0.375952 0.985291
O O5 0.500000 0.912250 0.825658
O O6 0.273214 0.885618 0.840904
O O7 0.375106 0.033939 0.745279
O O8 0.900617 0.965214 0.918531
O O9 0.500000 0.300324 0.248903
O O10 0.750000 0.305401 0.250000
O O11 0.600944 0.358004 0.129453
#
# Coordination Sequence:
#
# PCOD9478050 Si02
#       5
#    16  16  16  16   8
#     4  10  22  37  59  90 121 165 208 252 309 378
#     4  10  19  36  63  86 114 156 213 257 304 376
#     4  11  20  36  60  83 127 158 204 255 311 374
#     4   9  17  32  59  82 110 154 205 248 308 365
#     4  10  20  34  59  86 112 162 202 250 313 358
#
# _framework density 27.812242999999999
#
# number of rings (size 3 to 8) (size 9 to 14) (size 15 to 20)
#    0.667    1.333    3.333    1.333    0.000    1.778 
#    0.000    2.222    4.889    2.667    0.000    0.000 
#    0.000    0.000    0.000    0.000    0.000    0.000 
#
# Total GULP energy -200569.497897 kJ/mol
# GULP energy per Si atom -5571.374942 kJ/mol
# Density = 2.774894 g / cm^3
# Si number density = 27.812243 Si / 1000 Ang^3
#
#
#
# Elastic Constant Matrix: (Units=GPa)
#
#
# Indices 1 2 3 4 5 6 
#
# 1 245.4074 40.7827 28.4519 0.0000 0.0000 0.0000
# 2 40.7827 129.1337 31.7854 0.0000 0.0000 0.0000
# 3 28.4519 31.7854 74.7272 0.0000 0.0000 0.0000
# 4 0.0000 0.0000 0.0000 48.5370 0.0000 0.0000
# 5 0.0000 0.0000 0.0000 0.0000 57.8810 0.0000
# 6 0.0000 0.0000 0.0000 0.0000 0.0000 -12.6433
#
#
#
# Elastic Compliance Matrix: (Units=1/GPa)
#
#
# Indices 1 2 3 4 5 6 
#
# 1 0.004396 -0.001091 -0.001210 0.000000 0.000000 0.000000
# 2 -0.001091 0.008920 -0.003379 0.000000 0.000000 0.000000
# 3 -0.001210 -0.003379 0.015280 0.000000 0.000000 0.000000
# 4 0.000000 0.000000 0.000000 0.020603 0.000000 0.000000
# 5 0.000000 0.000000 0.000000 0.000000 0.017277 0.000000
# 6 0.000000 0.000000 0.000000 0.000000 0.000000 -0.079093
#
#
# Mechanical properties :
#
#
# Convention : Reuss Voigt Hill
#
# Bulk Modulus (GPa) = 58.01374 72.36759 65.19066
# Shear Modulus (GPa) = 1114.17886 41.97149 578.07518
#
# Velocity S-wave (km/s) = 20.03689 3.88893 14.43262
# Velocity P-wave (km/s) = 23.58404 6.80012 17.35581
#
# Compressibility (1/GPa) = 0.01723730
#
# Stress axis : x y z
#
# Youngs Moduli (GPa) = 227.45960 112.10698 65.44526
#
# Poissons Ratio (x) = 0.12227 0.07919
# Poissons Ratio (y) = 0.24807 0.22113
# Poissons Ratio (z) = 0.27522 0.37880
#
# Static dielectric constant tensor:
#      x y z
#    x 2.223840 0.000000 0.000000 
#    y 0.000000 2.127340 0.000000 
#    z 0.000000 0.000000 2.307300 
# 
# From -- ./inp_files/43846.got.cif
#   From: 2010.05.17/outbox.cif.g08.bks.cpg/sg64_22_cif.got.tgz:43846.got - 2010.06.03 16:29:19.
