data_PCOD9478656
_publ_section_title
;
Structure prediction by ZEFSAII (Michael W. Deem and Ramdas Pophale) SiO2 
 PCOD9478656
Probable space group: C M C A
;
_chemical_formula_sum "Si O2"
_cell_formula_units_Z 112
_cell_length_a 27.340562
_cell_length_b 15.511817
_cell_length_c 13.392099
_cell_angle_alpha 90.000000
_cell_angle_beta 90.000000
_cell_angle_gamma 90.000000
_cell_volume 5679.613217
_symmetry_space_group_name_H-M "C M C A"
_symmetry_group_IT_number 64
_symmetry_cell_setting 'orthorhombic'
loop_
_space_group_symop_operation_xyz
x,y,z
-x,1/2-y,1/2+z
x,-y,-z
-x,1/2+y,1/2-z
-x,-y,-z
x,1/2+y,1/2-z
-x,y,z
x,1/2-y,1/2+z
1/2+x,1/2+y,z
1/2-x,-y,1/2+z
1/2+x,1/2-y,-z
1/2-x,y,1/2-z
1/2-x,1/2-y,-z
1/2+x,y,1/2-z
1/2-x,1/2+y,z
1/2+x,-y,1/2+z
loop_
_atom_site_type_symbol
_atom_site_label
_atom_site_fract_x
_atom_site_fract_y
_atom_site_fract_z
Si Si1 0.392311 0.624230 0.928372
Si Si2 0.944697 0.158042 0.730631
Si Si3 0.443593 0.653979 0.296654
Si Si4 0.649719 0.805790 0.930959
Si Si5 0.804356 0.075158 0.283813
Si Si6 0.612121 0.436786 0.857984
Si Si7 0.866623 0.936580 0.407670
O O1 0.434756 0.643543 0.848716
O O2 0.354629 0.703249 0.928770
O O3 0.373188 0.533239 0.888257
O O4 0.407010 0.608611 0.042358
O O5 0.937357 0.261668 0.725518
O O6 0.908414 0.102833 0.662853
O O7 0.000000 0.137406 0.704157
O O8 0.500000 0.650710 0.329785
O O9 0.403147 0.663952 0.383487
O O10 0.428387 0.573091 0.228322
O O11 0.690911 0.845261 0.859919
O O12 0.655304 0.852777 0.036688
O O13 0.750000 0.056410 0.250000
O O14 0.839029 0.100955 0.191080
O O15 0.829852 0.994162 0.340832
O O16 0.881992 0.000000 0.500000
#
# Coordination Sequence:
#
# PCOD9478656 Si02
#       7
#    16  16  16  16  16  16  16
#     4  10  20  37  57  85 122 160 199 243 298 356
#     4  10  20  35  56  86 123 162 204 245 293 351
#     4   9  19  35  59  87 121 162 201 244 293 355
#     4   9  20  38  61  86 121 155 201 247 297 359
#     4  10  21  42  64  86 114 151 198 253 309 365
#     4  10  20  37  60  84 119 160 197 247 303 357
#     4  10  20  38  59  87 117 155 200 250 303 353
#
# _framework density 19.719652
#
# number of rings (size 3 to 8) (size 9 to 14) (size 15 to 20)
#    0.000    2.286    1.429    0.857    0.000    2.000 
#    7.714    5.714    0.000    0.000    0.000    0.000 
#    0.000    0.000    0.000    0.000    0.000    0.000 
#
# Total GULP energy -311937.618034 kJ/mol
# GULP energy per Si atom -5570.314608 kJ/mol
# Density = 1.967477 g / cm^3
# Si number density = 19.719652 Si / 1000 Ang^3
#
#
#
# Elastic Constant Matrix: (Units=GPa)
#
#
# Indices 1 2 3 4 5 6 
#
# 1 78.5247 19.2157 20.3058 0.0000 0.0000 0.0000
# 2 19.2157 100.5612 25.8406 0.0000 0.0000 0.0000
# 3 20.3058 25.8406 72.0351 0.0000 0.0000 0.0000
# 4 0.0000 0.0000 0.0000 25.3017 0.0000 0.0000
# 5 0.0000 0.0000 0.0000 0.0000 7.5869 0.0000
# 6 0.0000 0.0000 0.0000 0.0000 0.0000 18.1713
#
#
#
# Elastic Compliance Matrix: (Units=1/GPa)
#
#
# Indices 1 2 3 4 5 6 
#
# 1 0.014037 -0.001835 -0.003299 0.000000 0.000000 0.000000
# 2 -0.001835 0.011194 -0.003498 0.000000 0.000000 0.000000
# 3 -0.003299 -0.003498 0.016067 0.000000 0.000000 0.000000
# 4 0.000000 0.000000 0.000000 0.039523 0.000000 0.000000
# 5 0.000000 0.000000 0.000000 0.000000 0.131806 0.000000
# 6 0.000000 0.000000 0.000000 0.000000 0.000000 0.055032
#
#
# Mechanical properties :
#
#
# Convention : Reuss Voigt Hill
#
# Bulk Modulus (GPa) = 41.60724 42.42724 42.01724
# Shear Modulus (GPa) = 17.06876 22.59590 19.83233
#
# Velocity S-wave (km/s) = 2.94525 3.38872 3.17474
# Velocity P-wave (km/s) = 5.71937 6.07233 5.89849
#
# Compressibility (1/GPa) = 0.02403428
#
# Stress axis : x y z
#
# Youngs Moduli (GPa) = 71.24132 89.33609 62.23977
#
# Poissons Ratio (x) = 0.16389 0.20531
# Poissons Ratio (y) = 0.13070 0.21773
# Poissons Ratio (z) = 0.23500 0.31252
#
# Static dielectric constant tensor:
#      x y z
#    x 1.650970 0.000000 0.000000 
#    y 0.000000 1.781490 0.000000 
#    z 0.000000 0.000000 1.717740 
# 
# From -- ./inp_files/28100.got.cif
#   From: 2010.05.17/outbox.cif.g08.bks.cpg/sg64_15_cif.got.tgz:28100.got - 2010.06.03 16:29:19.
