data_PCOD9478029
_publ_section_title
;
Structure prediction by ZEFSAII (Michael W. Deem and Ramdas Pophale) SiO2 
 PCOD9478029
Probable space group: C M C A
;
_chemical_formula_sum "Si O2"
_cell_formula_units_Z 72
_cell_length_a 15.940731
_cell_length_b 22.358507
_cell_length_c 8.732473
_cell_angle_alpha 90.000000
_cell_angle_beta 90.000000
_cell_angle_gamma 90.000000
_cell_volume 3112.348960
_symmetry_space_group_name_H-M "C M C A"
_symmetry_group_IT_number 64
_symmetry_cell_setting 'orthorhombic'
loop_
_space_group_symop_operation_xyz
x,y,z
-x,1/2-y,1/2+z
x,-y,-z
-x,1/2+y,1/2-z
-x,-y,-z
x,1/2+y,1/2-z
-x,y,z
x,1/2-y,1/2+z
1/2+x,1/2+y,z
1/2-x,-y,1/2+z
1/2+x,1/2-y,-z
1/2-x,y,1/2-z
1/2-x,1/2-y,-z
1/2+x,y,1/2-z
1/2-x,1/2+y,z
1/2+x,-y,1/2+z
loop_
_atom_site_type_symbol
_atom_site_label
_atom_site_fract_x
_atom_site_fract_y
_atom_site_fract_z
Si Si1 0.406882 0.056144 0.351565
Si Si2 0.099801 0.171764 0.956292
Si Si3 0.103280 0.790501 0.381525
Si Si4 0.732861 0.000000 0.500000
Si Si5 0.316927 0.616935 0.390309
O O1 0.500000 0.032196 0.365146
O O2 0.386593 0.104936 0.483757
O O3 0.333512 0.007523 0.359862
O O4 0.398552 0.093187 0.197402
O O5 0.130670 0.189066 0.787917
O O6 0.000000 0.177091 0.944952
O O7 0.124203 0.221436 0.081546
O O8 0.155177 0.828668 0.505008
O O9 0.000000 0.797904 0.396027
O O10 0.785607 0.939510 0.509124
O O11 0.250000 0.627596 0.250000
#
# Coordination Sequence:
#
# PCOD9478029 Si02
#       5
#    16  16  16   8  16
#     4  10  20  39  64  88 114 156 204 245 288 348
#     4   9  19  34  60  91 117 146 191 243 291 343
#     4  10  19  36  60  88 119 153 191 239 293 354
#     4  10  23  40  57  82 120 156 192 244 301 346
#     4  10  22  39  58  83 118 156 194 243 297 346
#
# _framework density 23.133654
#
# number of rings (size 3 to 8) (size 9 to 14) (size 15 to 20)
#    0.000    2.222    0.000    2.333    0.000    8.889 
#    0.000   17.778    0.000    0.000    0.000    0.000 
#    0.000    0.000    0.000    0.000    0.000    0.000 
#
# Total GULP energy -200849.018809 kJ/mol
# GULP energy per Si atom -5579.139411 kJ/mol
# Density = 2.308100 g / cm^3
# Si number density = 23.133654 Si / 1000 Ang^3
#
#
#
# Elastic Constant Matrix: (Units=GPa)
#
#
# Indices 1 2 3 4 5 6 
#
# 1 76.8549 30.2264 21.4289 0.0000 0.0000 0.0000
# 2 30.2264 58.6946 10.1302 0.0000 0.0000 0.0000
# 3 21.4289 10.1302 83.4142 0.0000 0.0000 0.0000
# 4 0.0000 0.0000 0.0000 29.1175 0.0000 0.0000
# 5 0.0000 0.0000 0.0000 0.0000 26.8825 0.0000
# 6 0.0000 0.0000 0.0000 0.0000 0.0000 19.6979
#
#
#
# Elastic Compliance Matrix: (Units=1/GPa)
#
#
# Indices 1 2 3 4 5 6 
#
# 1 0.017220 -0.008278 -0.003419 0.000000 0.000000 0.000000
# 2 -0.008278 0.021382 -0.000470 0.000000 0.000000 0.000000
# 3 -0.003419 -0.000470 0.012924 0.000000 0.000000 0.000000
# 4 0.000000 0.000000 0.000000 0.034344 0.000000 0.000000
# 5 0.000000 0.000000 0.000000 0.000000 0.037199 0.000000
# 6 0.000000 0.000000 0.000000 0.000000 0.000000 0.050767
#
#
# Mechanical properties :
#
#
# Convention : Reuss Voigt Hill
#
# Bulk Modulus (GPa) = 36.77525 38.05940 37.41732
# Shear Modulus (GPa) = 24.12749 25.61813 24.87281
#
# Velocity S-wave (km/s) = 3.23299 3.33137 3.28255
# Velocity P-wave (km/s) = 5.46514 5.59330 5.52959
#
# Compressibility (1/GPa) = 0.02719220
#
# Stress axis : x y z
#
# Youngs Moduli (GPa) = 58.07056 46.76932 77.37739
#
# Poissons Ratio (x) = 0.38716 0.26452
# Poissons Ratio (y) = 0.48072 0.03637
# Poissons Ratio (z) = 0.19852 0.02198
#
# Static dielectric constant tensor:
#      x y z
#    x 1.905130 0.000000 0.000000 
#    y 0.000000 1.902920 0.000000 
#    z 0.000000 0.000000 1.917010 
# 
# From -- ./inp_files/6871.got.cif
#   From: 2010.05.17/outbox.cif.g08.bks.cpg/sg64_4_cif.got.tgz:6871.got - 2010.06.03 16:29:19.
