data_PCOD9478000
_publ_section_title
;
Structure prediction by ZEFSAII (Michael W. Deem and Ramdas Pophale) SiO2 
 PCOD9478000
Probable space group: C M C A
;
_chemical_formula_sum "Si O2"
_cell_formula_units_Z 116
_cell_length_a 7.976229
_cell_length_b 26.603594
_cell_length_c 29.742922
_cell_angle_alpha 90.000000
_cell_angle_beta 90.000000
_cell_angle_gamma 90.000000
_cell_volume 6311.339724
_symmetry_space_group_name_H-M "C M C A"
_symmetry_group_IT_number 64
_symmetry_cell_setting 'orthorhombic'
loop_
_space_group_symop_operation_xyz
x,y,z
-x,1/2-y,1/2+z
x,-y,-z
-x,1/2+y,1/2-z
-x,-y,-z
x,1/2+y,1/2-z
-x,y,z
x,1/2-y,1/2+z
1/2+x,1/2+y,z
1/2-x,-y,1/2+z
1/2+x,1/2-y,-z
1/2-x,y,1/2-z
1/2-x,1/2-y,-z
1/2+x,y,1/2-z
1/2-x,1/2+y,z
1/2+x,-y,1/2+z
loop_
_atom_site_type_symbol
_atom_site_label
_atom_site_fract_x
_atom_site_fract_y
_atom_site_fract_z
Si Si1 0.197122 0.211328 0.701217
Si Si2 0.297931 0.545483 0.052840
Si Si3 0.293753 0.150981 0.551208
Si Si4 0.801531 0.158021 0.052426
Si Si5 0.000000 0.000000 0.500000
Si Si6 0.800759 0.554110 0.606678
Si Si7 0.195888 0.246488 0.892084
Si Si8 0.199709 0.402637 0.200222
O O1 0.250000 0.230728 0.750000
O O2 0.237507 0.244972 0.658472
O O3 0.270034 0.154582 0.694902
O O4 0.000000 0.205074 0.702908
O O5 0.500000 0.541028 0.039315
O O6 0.280314 0.601754 0.071393
O O7 0.253742 0.500158 0.086910
O O8 0.153707 0.538903 0.015468
O O9 0.500000 0.149590 0.550811
O O10 0.241973 0.156543 0.499406
O O11 0.234473 0.100218 0.576135
O O12 0.234550 0.199215 0.579543
O O13 0.723404 0.202002 0.081629
O O14 0.000000 0.168496 0.051071
O O15 0.756217 0.564244 0.658230
O O16 0.000000 0.556204 0.602938
O O17 0.000000 0.236944 0.888422
O O18 0.250000 0.420279 0.250000
O O19 0.000000 0.400778 0.198486
#
# Coordination Sequence:
#
# PCOD9478000 Si02
#       8
#    16  16  16  16   4  16  16  16
#     4  10  20  35  55  82 112 144 183 233 288 346
#     4  10  23  39  58  86 115 154 198 245 295 339
#     4   9  18  32  53  79 109 149 188 234 282 335
#     4  10  21  39  56  75 113 157 198 238 283 336
#     4  12  22  36  64  82 116 148 198 248 288 340
#     4  10  19  36  58  81 115 148 188 240 293 342
#     4  11  21  34  54  82 112 148 191 232 283 343
#     4  10  20  33  54  84 115 147 184 230 293 358
#
# _framework density 18.379617
#
# number of rings (size 3 to 8) (size 9 to 14) (size 15 to 20)
#    0.000    1.931    1.379    2.690    1.931    3.310 
#    0.000    0.690    0.000    0.828    0.000    3.862 
#    0.000    0.000    0.000    0.000    0.000    0.000 
#
# Total GULP energy -322942.715695 kJ/mol
# GULP energy per Si atom -5567.977857 kJ/mol
# Density = 1.833778 g / cm^3
# Si number density = 18.379617 Si / 1000 Ang^3
#
#
#
# Elastic Constant Matrix: (Units=GPa)
#
#
# Indices 1 2 3 4 5 6 
#
# 1 32.2047 14.8945 2.8694 0.0000 0.0000 0.0000
# 2 14.8945 102.8742 72.2225 0.0000 0.0000 0.0000
# 3 2.8694 72.2225 129.3043 0.0000 0.0000 0.0000
# 4 0.0000 0.0000 0.0000 15.7348 0.0000 0.0000
# 5 0.0000 0.0000 0.0000 0.0000 19.2164 0.0000
# 6 0.0000 0.0000 0.0000 0.0000 0.0000 12.5752
#
#
#
# Elastic Compliance Matrix: (Units=1/GPa)
#
#
# Indices 1 2 3 4 5 6 
#
# 1 0.034111 -0.007250 0.003293 0.000000 0.000000 0.000000
# 2 -0.007250 0.017532 -0.009632 0.000000 0.000000 0.000000
# 3 0.003293 -0.009632 0.013040 0.000000 0.000000 0.000000
# 4 0.000000 0.000000 0.000000 0.063554 0.000000 0.000000
# 5 0.000000 0.000000 0.000000 0.000000 0.052039 0.000000
# 6 0.000000 0.000000 0.000000 0.000000 0.000000 0.079522
#
#
# Mechanical properties :
#
#
# Convention : Reuss Voigt Hill
#
# Bulk Modulus (GPa) = 26.66300 49.37288 38.01794
# Shear Modulus (GPa) = 16.69569 21.13173 18.91371
#
# Velocity S-wave (km/s) = 3.01721 3.39446 3.21138
# Velocity P-wave (km/s) = 5.16492 6.50264 5.87199
#
# Compressibility (1/GPa) = 0.03750515
#
# Stress axis : x y z
#
# Youngs Moduli (GPa) = 29.31585 57.03776 76.68490
#
# Poissons Ratio (x) = 0.41355 -0.25250
# Poissons Ratio (y) = 0.21255 0.73861
# Poissons Ratio (z) = -0.09653 0.54937
#
# Static dielectric constant tensor:
#      x y z
#    x 1.658600 0.000000 0.000000 
#    y 0.000000 1.643850 0.000000 
#    z 0.000000 0.000000 1.671180 
# 
# From -- ./inp_files/52280.got.cif
#   From: 2010.05.17/outbox.cif.g08.bks.cpg/sg64_27_cif.got.tgz:52280.got - 2010.06.03 16:29:19.
