data_PCOD9478114
_publ_section_title
;
Structure prediction by ZEFSAII (Michael W. Deem and Ramdas Pophale) SiO2 
 PCOD9478114
Probable space group: C M C A
;
_chemical_formula_sum "Si O2"
_cell_formula_units_Z 64
_cell_length_a 17.177422
_cell_length_b 12.609969
_cell_length_c 14.809137
_cell_angle_alpha 90.000000
_cell_angle_beta 90.000000
_cell_angle_gamma 90.000000
_cell_volume 3207.759168
_symmetry_space_group_name_H-M "C M C A"
_symmetry_group_IT_number 64
_symmetry_cell_setting 'orthorhombic'
loop_
_space_group_symop_operation_xyz
x,y,z
-x,1/2-y,1/2+z
x,-y,-z
-x,1/2+y,1/2-z
-x,-y,-z
x,1/2+y,1/2-z
-x,y,z
x,1/2-y,1/2+z
1/2+x,1/2+y,z
1/2-x,-y,1/2+z
1/2+x,1/2-y,-z
1/2-x,y,1/2-z
1/2-x,1/2-y,-z
1/2+x,y,1/2-z
1/2-x,1/2+y,z
1/2+x,-y,1/2+z
loop_
_atom_site_type_symbol
_atom_site_label
_atom_site_fract_x
_atom_site_fract_y
_atom_site_fract_z
Si Si1 0.910348 0.241736 0.125848
Si Si2 0.680645 0.321690 0.040911
Si Si3 0.792380 0.938515 0.346854
Si Si4 0.834819 0.332985 0.797851
O O1 0.855681 0.346112 0.137253
O O2 0.895141 0.174290 0.216297
O O3 0.000000 0.271086 0.116668
O O4 0.881471 0.175629 0.038804
O O5 0.723732 0.424303 0.080223
O O6 0.650647 0.257269 0.128260
O O7 0.750000 0.250000 0.000000
O O8 0.750000 0.926580 0.250000
O O9 0.830804 0.053785 0.346607
O O10 0.750000 0.318306 0.750000
#
# Coordination Sequence:
#
# PCOD9478114 Si02
#       4
#    16  16  16  16
#     4  11  23  39  60  93 129 159 198 253 316 365
#     4  10  19  38  59  91 118 155 210 254 299 354
#     4  10  20  39  64  87 115 160 211 249 297 360
#     4  11  20  39  64  90 116 160 211 255 297 364
#
# _framework density 19.951623000000001
#
# number of rings (size 3 to 8) (size 9 to 14) (size 15 to 20)
#    0.000    1.500    7.500    0.000    0.000    6.000 
#    0.000    1.250    0.000    6.000    0.000    0.000 
#    0.000    0.000    0.000    0.000    0.000    0.000 
#
# Total GULP energy -178629.972981 kJ/mol
# GULP energy per Si atom -5582.186656 kJ/mol
# Density = 1.990621 g / cm^3
# Si number density = 19.951623 Si / 1000 Ang^3
#
#
#
# Elastic Constant Matrix: (Units=GPa)
#
#
# Indices 1 2 3 4 5 6 
#
# 1 95.4899 14.1764 36.8332 0.0000 0.0000 0.0000
# 2 14.1764 98.2261 36.1720 0.0000 0.0000 0.0000
# 3 36.8332 36.1720 142.0768 0.0000 0.0000 0.0000
# 4 0.0000 0.0000 0.0000 25.1894 0.0000 0.0000
# 5 0.0000 0.0000 0.0000 0.0000 20.1183 0.0000
# 6 0.0000 0.0000 0.0000 0.0000 0.0000 8.6293
#
#
#
# Elastic Compliance Matrix: (Units=1/GPa)
#
#
# Indices 1 2 3 4 5 6 
#
# 1 0.011671 -0.000629 -0.002866 0.000000 0.000000 0.000000
# 2 -0.000629 0.011268 -0.002706 0.000000 0.000000 0.000000
# 3 -0.002866 -0.002706 0.008470 0.000000 0.000000 0.000000
# 4 0.000000 0.000000 0.000000 0.039699 0.000000 0.000000
# 5 0.000000 0.000000 0.000000 0.000000 0.049706 0.000000
# 6 0.000000 0.000000 0.000000 0.000000 0.000000 0.115885
#
#
# Mechanical properties :
#
#
# Convention : Reuss Voigt Hill
#
# Bulk Modulus (GPa) = 52.60847 56.68403 54.64625
# Shear Modulus (GPa) = 19.57439 27.36146 23.46793
#
# Velocity S-wave (km/s) = 3.13564 3.70725 3.43336
# Velocity P-wave (km/s) = 6.28768 6.84086 6.57009
#
# Compressibility (1/GPa) = 0.01900835
#
# Stress axis : x y z
#
# Youngs Moduli (GPa) = 85.68225 88.74895 118.06156
#
# Poissons Ratio (x) = 0.05584 0.33831
# Poissons Ratio (y) = 0.05391 0.31943
# Poissons Ratio (z) = 0.24552 0.24012
#
# Static dielectric constant tensor:
#      x y z
#    x 1.701600 0.000000 0.000000 
#    y 0.000000 1.755140 0.000000 
#    z 0.000000 0.000000 1.767380 
# 
# From -- ./inp_files/25010.got.cif
#   From: 2010.05.17/outbox.cif.g08.bks.cpg/sg64_13_cif.got.tgz:25010.got - 2010.06.03 16:29:19.
