data_PCOD9478158
_publ_section_title
;
Structure prediction by ZEFSAII (Michael W. Deem and Ramdas Pophale) SiO2 
 PCOD9478158
Probable space group: C M C A
;
_chemical_formula_sum "Si O2"
_cell_formula_units_Z 68
_cell_length_a 14.148903
_cell_length_b 20.042685
_cell_length_c 9.514826
_cell_angle_alpha 90.000000
_cell_angle_beta 90.000000
_cell_angle_gamma 90.000000
_cell_volume 2698.233443
_symmetry_space_group_name_H-M "C M C A"
_symmetry_group_IT_number 64
_symmetry_cell_setting 'orthorhombic'
loop_
_space_group_symop_operation_xyz
x,y,z
-x,1/2-y,1/2+z
x,-y,-z
-x,1/2+y,1/2-z
-x,-y,-z
x,1/2+y,1/2-z
-x,y,z
x,1/2-y,1/2+z
1/2+x,1/2+y,z
1/2-x,-y,1/2+z
1/2+x,1/2-y,-z
1/2-x,y,1/2-z
1/2-x,1/2-y,-z
1/2+x,y,1/2-z
1/2-x,1/2+y,z
1/2+x,-y,1/2+z
loop_
_atom_site_type_symbol
_atom_site_label
_atom_site_fract_x
_atom_site_fract_y
_atom_site_fract_z
Si Si1 0.890698 0.425468 0.005959
Si Si2 0.115744 0.174842 0.992192
Si Si3 0.885101 0.305661 0.815634
Si Si4 0.652672 0.053792 0.692445
Si Si5 0.500000 0.000000 0.500000
O O1 0.889132 0.408084 0.171058
O O2 0.000000 0.432129 0.961724
O O3 0.849740 0.500000 0.000000
O O4 0.850743 0.368764 0.905819
O O5 0.140132 0.237681 0.895141
O O6 0.163904 0.110050 0.926223
O O7 0.000000 0.161156 0.986673
O O8 0.141333 0.189826 0.152791
O O9 0.000000 0.306097 0.818281
O O10 0.750000 0.025698 0.750000
O O11 0.581653 0.001934 0.624090
#
# Coordination Sequence:
#
# PCOD9478158 Si02
#       5
#    16  16  16  16   4
#     4  10  21  39  63 100 145 196 258 328 400 479
#     4  10  19  39  66 101 143 197 261 329 404 483
#     4   9  19  34  67 102 145 202 262 325 405 490
#     4  12  27  45  73 109 148 203 268 329 412 501
#     4  12  28  52  82 106 168 208 264 344 424 490
#
# _framework density 25.201674000000001
#
# number of rings (size 3 to 8) (size 9 to 14) (size 15 to 20)
#    0.000    1.647    2.353    1.412    4.941    3.765 
#    0.000    5.882    0.000    0.000    0.000    0.000 
#    0.000    0.000    0.000    0.000    0.000    0.000 
#
# Total GULP energy -189792.737202 kJ/mol
# GULP energy per Si atom -5582.139329 kJ/mol
# Density = 2.514431 g / cm^3
# Si number density = 25.201674 Si / 1000 Ang^3
#
#
#
# Elastic Constant Matrix: (Units=GPa)
#
#
# Indices 1 2 3 4 5 6 
#
# 1 123.7494 25.9549 42.8468 0.0000 0.0000 0.0000
# 2 25.9549 54.1747 41.2012 0.0000 0.0000 0.0000
# 3 42.8468 41.2012 192.5145 0.0000 0.0000 0.0000
# 4 0.0000 0.0000 0.0000 55.2709 0.0000 0.0000
# 5 0.0000 0.0000 0.0000 0.0000 42.6490 0.0000
# 6 0.0000 0.0000 0.0000 0.0000 0.0000 11.5985
#
#
#
# Elastic Compliance Matrix: (Units=1/GPa)
#
#
# Indices 1 2 3 4 5 6 
#
# 1 0.009259 -0.003426 -0.001327 0.000000 0.000000 0.000000
# 2 -0.003426 0.023315 -0.004227 0.000000 0.000000 0.000000
# 3 -0.001327 -0.004227 0.006395 0.000000 0.000000 0.000000
# 4 0.000000 0.000000 0.000000 0.018093 0.000000 0.000000
# 5 0.000000 0.000000 0.000000 0.000000 0.023447 0.000000
# 6 0.000000 0.000000 0.000000 0.000000 0.000000 0.086218
#
#
# Mechanical properties :
#
#
# Convention : Reuss Voigt Hill
#
# Bulk Modulus (GPa) = 47.60386 65.60495 56.60440
# Shear Modulus (GPa) = 26.08357 39.26607 32.67482
#
# Velocity S-wave (km/s) = 3.22062 3.95153 3.60465
# Velocity P-wave (km/s) = 5.72364 6.84894 6.31142
#
# Compressibility (1/GPa) = 0.02100670
#
# Stress axis : x y z
#
# Youngs Moduli (GPa) = 108.00169 42.89026 156.38323
#
# Poissons Ratio (x) = 0.14696 0.20759
# Poissons Ratio (y) = 0.37006 0.66107
# Poissons Ratio (z) = 0.14336 0.18131
#
# Static dielectric constant tensor:
#      x y z
#    x 1.896710 0.000000 0.000000 
#    y 0.000000 2.015130 0.000000 
#    z 0.000000 0.000000 1.983680 
# 
# From -- ./inp_files/6708.got.cif
#   From: 2010.05.17/outbox.cif.g08.bks.cpg/sg64_4_cif.got.tgz:6708.got - 2010.06.03 16:29:19.
