data_PCOD9478601
_publ_section_title
;
Structure prediction by ZEFSAII (Michael W. Deem and Ramdas Pophale) SiO2 
 PCOD9478601
Probable space group: C M C A
;
_chemical_formula_sum "Si O2"
_cell_formula_units_Z 96
_cell_length_a 16.772027
_cell_length_b 17.704367
_cell_length_c 19.011480
_cell_angle_alpha 90.000000
_cell_angle_beta 90.000000
_cell_angle_gamma 90.000000
_cell_volume 5645.233155
_symmetry_space_group_name_H-M "C M C A"
_symmetry_group_IT_number 64
_symmetry_cell_setting 'orthorhombic'
loop_
_space_group_symop_operation_xyz
x,y,z
-x,1/2-y,1/2+z
x,-y,-z
-x,1/2+y,1/2-z
-x,-y,-z
x,1/2+y,1/2-z
-x,y,z
x,1/2-y,1/2+z
1/2+x,1/2+y,z
1/2-x,-y,1/2+z
1/2+x,1/2-y,-z
1/2-x,y,1/2-z
1/2-x,1/2-y,-z
1/2+x,y,1/2-z
1/2-x,1/2+y,z
1/2+x,-y,1/2+z
loop_
_atom_site_type_symbol
_atom_site_label
_atom_site_fract_x
_atom_site_fract_y
_atom_site_fract_z
Si Si1 0.168388 0.507870 0.923386
Si Si2 0.281455 0.215555 0.171210
Si Si3 0.592881 0.492591 0.845341
Si Si4 0.701475 0.873670 0.403623
Si Si5 0.593826 0.582896 0.302125
Si Si6 0.686556 0.886614 0.566255
O O1 0.210274 0.587812 0.906555
O O2 0.112415 0.478798 0.861850
O O3 0.243243 0.449728 0.929693
O O4 0.128932 0.500000 0.000000
O O5 0.250000 0.226083 0.250000
O O6 0.302444 0.295443 0.137146
O O7 0.354557 0.156474 0.178339
O O8 0.215779 0.177773 0.119554
O O9 0.500000 0.511041 0.839623
O O10 0.644055 0.565552 0.866151
O O11 0.620042 0.453761 0.772216
O O12 0.609517 0.429674 0.904764
O O13 0.678367 0.862923 0.485540
O O14 0.500000 0.599840 0.297975
#
# Coordination Sequence:
#
# PCOD9478601 Si02
#       6
#    16  16  16  16  16  16
#     4   8  17  33  55  80 106 135 173 219 261 306
#     4  11  21  35  56  78 105 143 173 214 265 318
#     4  10  20  35  55  80 108 140 178 223 266 309
#     4  10  21  32  57  85 106 131 176 227 263 309
#     4  10  21  36  54  75 107 145 178 212 256 318
#     4   9  18  36  54  80 108 137 174 217 263 319
#
# _framework density 17.005497999999999
#
# number of rings (size 3 to 8) (size 9 to 14) (size 15 to 20)
#    0.000    2.333    1.667    2.000    2.333    2.333 
#    0.000    0.000    0.000    1.000    0.000    0.000 
#    0.000    0.000    0.000    0.000    0.000    0.000 
#
# Total GULP energy -267531.024817 kJ/mol
# GULP energy per Si atom -5573.563017 kJ/mol
# Density = 1.696679 g / cm^3
# Si number density = 17.005498 Si / 1000 Ang^3
#
#
#
# Elastic Constant Matrix: (Units=GPa)
#
#
# Indices 1 2 3 4 5 6 
#
# 1 22.8400 25.2792 22.1339 0.0000 0.0000 0.0000
# 2 25.2792 114.8630 72.7676 0.0000 0.0000 0.0000
# 3 22.1339 72.7676 130.5544 0.0000 0.0000 0.0000
# 4 0.0000 0.0000 0.0000 31.5284 0.0000 0.0000
# 5 0.0000 0.0000 0.0000 0.0000 15.7184 0.0000
# 6 0.0000 0.0000 0.0000 0.0000 0.0000 15.0328
#
#
#
# Elastic Compliance Matrix: (Units=1/GPa)
#
#
# Indices 1 2 3 4 5 6 
#
# 1 0.059407 -0.010347 -0.004304 0.000000 0.000000 0.000000
# 2 -0.010347 0.015260 -0.006752 0.000000 0.000000 0.000000
# 3 -0.004304 -0.006752 0.012152 0.000000 0.000000 0.000000
# 4 0.000000 0.000000 0.000000 0.031717 0.000000 0.000000
# 5 0.000000 0.000000 0.000000 0.000000 0.063620 0.000000
# 6 0.000000 0.000000 0.000000 0.000000 0.000000 0.066521
#
#
# Mechanical properties :
#
#
# Convention : Reuss Voigt Hill
#
# Bulk Modulus (GPa) = 22.72052 56.51319 39.61686
# Shear Modulus (GPa) = 16.33158 22.32771 19.32965
#
# Velocity S-wave (km/s) = 3.10235 3.62742 3.37511
# Velocity P-wave (km/s) = 5.12078 7.13083 6.20770
#
# Compressibility (1/GPa) = 0.04401308
#
# Stress axis : x y z
#
# Youngs Moduli (GPa) = 16.83317 65.52865 82.28765
#
# Poissons Ratio (x) = 0.67805 0.35419
# Poissons Ratio (y) = 0.17418 0.55557
# Poissons Ratio (z) = 0.07245 0.44242
#
# Static dielectric constant tensor:
#      x y z
#    x 1.565160 0.000000 0.000000 
#    y 0.000000 1.565340 0.000000 
#    z 0.000000 0.000000 1.601980 
# 
# From -- ./inp_files/33253.got.cif
#   From: 2010.05.17/outbox.cif.g08.bks.cpg/sg64_17_cif.got.tgz:33253.got - 2010.06.03 16:29:19.
