data_PCOD9478274
_publ_section_title
;
Structure prediction by ZEFSAII (Michael W. Deem and Ramdas Pophale) SiO2 
 PCOD9478274
Probable space group: C M C A
;
_chemical_formula_sum "Si O2"
_cell_formula_units_Z 88
_cell_length_a 9.599786
_cell_length_b 14.093380
_cell_length_c 27.593322
_cell_angle_alpha 90.000000
_cell_angle_beta 90.000000
_cell_angle_gamma 90.000000
_cell_volume 3733.195234
_symmetry_space_group_name_H-M "C M C A"
_symmetry_group_IT_number 64
_symmetry_cell_setting 'orthorhombic'
loop_
_space_group_symop_operation_xyz
x,y,z
-x,1/2-y,1/2+z
x,-y,-z
-x,1/2+y,1/2-z
-x,-y,-z
x,1/2+y,1/2-z
-x,y,z
x,1/2-y,1/2+z
1/2+x,1/2+y,z
1/2-x,-y,1/2+z
1/2+x,1/2-y,-z
1/2-x,y,1/2-z
1/2-x,1/2-y,-z
1/2+x,y,1/2-z
1/2-x,1/2+y,z
1/2+x,-y,1/2+z
loop_
_atom_site_type_symbol
_atom_site_label
_atom_site_fract_x
_atom_site_fract_y
_atom_site_fract_z
Si Si1 0.286624 0.427607 0.815104
Si Si2 0.159405 0.795760 0.296757
Si Si3 0.160425 0.681052 0.033639
Si Si4 0.156200 0.829777 0.114426
Si Si5 0.842499 0.024718 0.072739
Si Si6 0.000000 0.023046 0.264698
O O1 0.331587 0.318309 0.803189
O O2 0.323194 0.447713 0.870686
O O3 0.380532 0.487423 0.778363
O O4 0.125380 0.446091 0.803174
O O5 0.250000 0.817581 0.250000
O O6 0.228488 0.838164 0.344527
O O7 0.000000 0.830574 0.290326
O O8 0.164525 0.730597 0.086724
O O9 0.232961 0.580476 0.040790
O O10 0.000000 0.675912 0.017823
O O11 0.250000 0.750000 0.000000
O O12 0.000000 0.838518 0.135414
O O13 0.172291 0.911696 0.074576
O O14 0.000000 0.049969 0.057777
#
# Coordination Sequence:
#
# PCOD9478274 Si02
#       6
#    16  16  16  16  16   8
#     4  11  19  35  59  89 123 177 216 271 311 370
#     4  12  21  36  59  91 130 176 223 269 311 369
#     4  11  25  46  75 100 126 166 210 263 332 397
#     4  10  25  44  65  97 134 170 213 266 322 386
#     4  11  23  43  67  96 134 169 212 265 326 383
#     4  10  20  32  56  92 124 168 236 260 310 366
#
# _framework density 23.572301
#
# number of rings (size 3 to 8) (size 9 to 14) (size 15 to 20)
#    0.000    1.091    5.455    1.091    2.545    2.182 
#    3.273    3.636    0.000    0.000    0.000    0.000 
#    0.000    0.000    0.000    0.000    0.000    0.000 
#
# Total GULP energy -245463.296032 kJ/mol
# GULP energy per Si atom -5578.711273 kJ/mol
# Density = 2.351865 g / cm^3
# Si number density = 23.572301 Si / 1000 Ang^3
#
#
#
# Elastic Constant Matrix: (Units=GPa)
#
#
# Indices 1 2 3 4 5 6 
#
# 1 230.4197 20.1074 46.7891 0.0000 0.0000 0.0000
# 2 20.1074 60.6944 2.5636 0.0000 0.0000 0.0000
# 3 46.7891 2.5636 71.7958 0.0000 0.0000 0.0000
# 4 0.0000 0.0000 0.0000 24.9013 0.0000 0.0000
# 5 0.0000 0.0000 0.0000 0.0000 39.7496 0.0000
# 6 0.0000 0.0000 0.0000 0.0000 0.0000 19.3442
#
#
#
# Elastic Compliance Matrix: (Units=1/GPa)
#
#
# Indices 1 2 3 4 5 6 
#
# 1 0.005146 -0.001566 -0.003298 0.000000 0.000000 0.000000
# 2 -0.001566 0.016977 0.000414 0.000000 0.000000 0.000000
# 3 -0.003298 0.000414 0.016063 0.000000 0.000000 0.000000
# 4 0.000000 0.000000 0.000000 0.040159 0.000000 0.000000
# 5 0.000000 0.000000 0.000000 0.000000 0.025157 0.000000
# 6 0.000000 0.000000 0.000000 0.000000 0.000000 0.051695
#
#
# Mechanical properties :
#
#
# Convention : Reuss Voigt Hill
#
# Bulk Modulus (GPa) = 34.14432 55.75891 44.95162
# Shear Modulus (GPa) = 28.75901 36.36233 32.56067
#
# Velocity S-wave (km/s) = 3.49669 3.93184 3.72063
# Velocity P-wave (km/s) = 5.55147 6.65720 6.12932
#
# Compressibility (1/GPa) = 0.02928745
#
# Stress axis : x y z
#
# Youngs Moduli (GPa) = 194.31846 58.90269 62.25562
#
# Poissons Ratio (x) = 0.09222 0.20531
# Poissons Ratio (y) = 0.30422 -0.02578
# Poissons Ratio (z) = 0.64083 -0.02439
#
# Static dielectric constant tensor:
#      x y z
#    x 1.844610 0.000000 0.000000 
#    y 0.000000 2.021170 0.000000 
#    z 0.000000 0.000000 1.879810 
# 
# From -- ./inp_files/51863.got.cif
#   From: 2010.05.17/outbox.cif.g08.bks.cpg/sg64_26_cif.got.tgz:51863.got - 2010.06.03 16:29:19.
