data_PCOD9478809
_publ_section_title
;
Structure prediction by ZEFSAII (Michael W. Deem and Ramdas Pophale) SiO2 
 PCOD9478809
Probable space group: C M C A
;
_chemical_formula_sum "Si O2"
_cell_formula_units_Z 96
_cell_length_a 25.073893
_cell_length_b 24.469902
_cell_length_c 7.365634
_cell_angle_alpha 90.000000
_cell_angle_beta 90.000000
_cell_angle_gamma 90.000000
_cell_volume 4519.226758
_symmetry_space_group_name_H-M "C M C A"
_symmetry_group_IT_number 64
_symmetry_cell_setting 'orthorhombic'
loop_
_space_group_symop_operation_xyz
x,y,z
-x,1/2-y,1/2+z
x,-y,-z
-x,1/2+y,1/2-z
-x,-y,-z
x,1/2+y,1/2-z
-x,y,z
x,1/2-y,1/2+z
1/2+x,1/2+y,z
1/2-x,-y,1/2+z
1/2+x,1/2-y,-z
1/2-x,y,1/2-z
1/2-x,1/2-y,-z
1/2+x,y,1/2-z
1/2-x,1/2+y,z
1/2+x,-y,1/2+z
loop_
_atom_site_type_symbol
_atom_site_label
_atom_site_fract_x
_atom_site_fract_y
_atom_site_fract_z
Si Si1 0.558428 0.020315 0.708996
Si Si2 0.059996 0.206157 0.985118
Si Si3 0.439363 0.828982 0.905866
Si Si4 0.750000 0.589921 0.750000
Si Si5 0.874685 0.924917 0.701722
Si Si6 0.291830 0.000000 0.000000
Si Si7 0.363170 0.114347 0.619733
O O1 0.500000 0.041273 0.756782
O O2 0.603847 0.066058 0.718545
O O3 0.557227 0.000000 0.500000
O O4 0.573915 0.964605 0.807918
O O5 0.073042 0.270172 0.991731
O O6 0.101807 0.169154 0.878195
O O7 0.000000 0.201512 0.907031
O O8 0.058153 0.182926 0.188983
O O9 0.500000 0.845556 0.959933
O O10 0.392203 0.873192 0.919150
O O11 0.742579 0.547549 0.586658
O O12 0.695216 0.620900 0.793778
O O13 0.828530 0.965477 0.637317
O O14 0.861605 0.904876 0.906808
#
# Coordination Sequence:
#
# PCOD9478809 Si02
#       7
#    16  16  16   8  16   8  16
#     4   9  16  30  53  81 111 143 179 217 271 337
#     4   9  18  34  58  86 114 148 189 228 280 336
#     4   9  18  34  58  86 118 151 182 226 278 342
#     4  12  24  38  58  78 112 148 200 238 282 340
#     4  10  20  36  56  84 116 148 186 228 291 338
#     4  12  24  38  57  80 111 154 188 240 284 340
#     4  10  20  36  58  83 107 152 193 238 276 336
#
# _framework density 21.242574000000001
#
# number of rings (size 3 to 8) (size 9 to 14) (size 15 to 20)
#    0.000    2.167    1.667    2.000    1.167    5.333 
#    0.000    1.667    0.000   10.000    0.000    0.000 
#    0.000    0.000    0.000    0.000    0.000    0.000 
#
# Total GULP energy -268000.942094 kJ/mol
# GULP energy per Si atom -5583.352960 kJ/mol
# Density = 2.119423 g / cm^3
# Si number density = 21.242574 Si / 1000 Ang^3
#
#
#
# Elastic Constant Matrix: (Units=GPa)
#
#
# Indices 1 2 3 4 5 6 
#
# 1 109.6482 43.4761 20.2879 0.0000 0.0000 0.0000
# 2 43.4761 83.6320 23.4798 0.0000 0.0000 0.0000
# 3 20.2879 23.4798 36.6493 0.0000 0.0000 0.0000
# 4 0.0000 0.0000 0.0000 30.2048 0.0000 0.0000
# 5 0.0000 0.0000 0.0000 0.0000 14.9943 0.0000
# 6 0.0000 0.0000 0.0000 0.0000 0.0000 2.4587
#
#
#
# Elastic Compliance Matrix: (Units=1/GPa)
#
#
# Indices 1 2 3 4 5 6 
#
# 1 0.011782 -0.005236 -0.003168 0.000000 0.000000 0.000000
# 2 -0.005236 0.016906 -0.007933 0.000000 0.000000 0.000000
# 3 -0.003168 -0.007933 0.034122 0.000000 0.000000 0.000000
# 4 0.000000 0.000000 0.000000 0.033107 0.000000 0.000000
# 5 0.000000 0.000000 0.000000 0.000000 0.066692 0.000000
# 6 0.000000 0.000000 0.000000 0.000000 0.000000 0.406726
#
#
# Mechanical properties :
#
#
# Convention : Reuss Voigt Hill
#
# Bulk Modulus (GPa) = 33.18176 44.93522 39.05849
# Shear Modulus (GPa) = 8.16923 19.04393 13.60658
#
# Velocity S-wave (km/s) = 1.96317 2.99741 2.53362
# Velocity P-wave (km/s) = 4.55994 5.76008 5.19479
#
# Compressibility (1/GPa) = 0.03013704
#
# Stress axis : x y z
#
# Youngs Moduli (GPa) = 84.87400 59.15066 29.30699
#
# Poissons Ratio (x) = 0.30969 0.09285
# Poissons Ratio (y) = 0.44436 0.23249
# Poissons Ratio (z) = 0.26888 0.46923
#
# Static dielectric constant tensor:
#      x y z
#    x 1.789440 0.000000 0.000000 
#    y 0.000000 1.727630 0.000000 
#    z 0.000000 0.000000 1.917840 
# 
# From -- ./inp_files/9553.got.cif
#   From: 2010.05.17/outbox.cif.g08.bks.cpg/sg64_5_cif.got.tgz:9553.got - 2010.06.03 16:29:19.
