data_PCOD9478483
_publ_section_title
;
Structure prediction by ZEFSAII (Michael W. Deem and Ramdas Pophale) SiO2 
 PCOD9478483
Probable space group: C M C A
;
_chemical_formula_sum "Si O2"
_cell_formula_units_Z 96
_cell_length_a 8.791614
_cell_length_b 24.056769
_cell_length_c 25.802285
_cell_angle_alpha 90.000000
_cell_angle_beta 90.000000
_cell_angle_gamma 90.000000
_cell_volume 5457.127213
_symmetry_space_group_name_H-M "C M C A"
_symmetry_group_IT_number 64
_symmetry_cell_setting 'orthorhombic'
loop_
_space_group_symop_operation_xyz
x,y,z
-x,1/2-y,1/2+z
x,-y,-z
-x,1/2+y,1/2-z
-x,-y,-z
x,1/2+y,1/2-z
-x,y,z
x,1/2-y,1/2+z
1/2+x,1/2+y,z
1/2-x,-y,1/2+z
1/2+x,1/2-y,-z
1/2-x,y,1/2-z
1/2-x,1/2-y,-z
1/2+x,y,1/2-z
1/2-x,1/2+y,z
1/2+x,-y,1/2+z
loop_
_atom_site_type_symbol
_atom_site_label
_atom_site_fract_x
_atom_site_fract_y
_atom_site_fract_z
Si Si1 0.682141 0.064588 0.495739
Si Si2 0.180705 0.750425 0.942068
Si Si3 0.181287 0.863971 0.596685
Si Si4 0.682988 0.560210 0.806559
Si Si5 0.681993 0.862617 0.402394
Si Si6 0.817369 0.560308 0.193611
O O1 0.500000 0.067776 0.486243
O O2 0.767460 0.095346 0.449502
O O3 0.713569 0.096574 0.549264
O O4 0.723977 0.000000 0.500000
O O5 0.238942 0.805234 0.912907
O O6 0.234470 0.695054 0.912777
O O7 0.000000 0.751837 0.946606
O O8 0.250000 0.750000 0.000000
O O9 0.221208 0.893883 0.650658
O O10 0.000000 0.856204 0.594877
O O11 0.500000 0.556418 0.803756
O O12 0.750000 0.573478 0.750000
O O13 0.723902 0.605737 0.849616
O O14 0.748619 0.499713 0.821499
O O15 0.500000 0.852605 0.401695
O O16 0.750000 0.573939 0.250000
O O17 0.000000 0.555403 0.196970
#
# Coordination Sequence:
#
# PCOD9478483 Si02
#       6
#    16  16  16  16  16  16
#     4  10  20  34  55  83 114 149 186 229 285 343
#     4  12  24  39  60  83 112 152 193 236 285 343
#     4  11  23  38  57  84 115 149 191 238 287 338
#     4  10  20  36  60  87 118 154 191 235 284 339
#     4  10  21  37  57  83 115 151 192 235 281 337
#     4  10  21  37  59  86 117 152 191 236 285 340
#
# _framework density 17.591674999999999
#
# number of rings (size 3 to 8) (size 9 to 14) (size 15 to 20)
#    0.000    1.500    1.667    5.000    0.000    5.667 
#    0.000    0.833    0.000    0.000    0.000    0.000 
#    0.000    0.000    0.000    0.000    0.000    0.000 
#
# Total GULP energy -268258.479634 kJ/mol
# GULP energy per Si atom -5588.718326 kJ/mol
# Density = 1.755164 g / cm^3
# Si number density = 17.591675 Si / 1000 Ang^3
#
#
#
# Elastic Constant Matrix: (Units=GPa)
#
#
# Indices 1 2 3 4 5 6 
#
# 1 81.0167 83.0961 70.3951 0.0000 0.0000 0.0000
# 2 83.0961 179.0700 104.3706 0.0000 0.0000 0.0000
# 3 70.3951 104.3706 125.0140 0.0000 0.0000 0.0000
# 4 0.0000 0.0000 0.0000 17.1193 0.0000 0.0000
# 5 0.0000 0.0000 0.0000 0.0000 26.6007 0.0000
# 6 0.0000 0.0000 0.0000 0.0000 0.0000 13.2341
#
#
#
# Elastic Compliance Matrix: (Units=1/GPa)
#
#
# Indices 1 2 3 4 5 6 
#
# 1 0.028620 -0.007573 -0.009794 0.000000 0.000000 0.000000
# 2 -0.007573 0.012881 -0.006490 0.000000 0.000000 0.000000
# 3 -0.009794 -0.006490 0.018932 0.000000 0.000000 0.000000
# 4 0.000000 0.000000 0.000000 0.058414 0.000000 0.000000
# 5 0.000000 0.000000 0.000000 0.000000 0.037593 0.000000
# 6 0.000000 0.000000 0.000000 0.000000 0.000000 0.075562
#
#
# Mechanical properties :
#
#
# Convention : Reuss Voigt Hill
#
# Bulk Modulus (GPa) = 78.61202 100.09158 89.35180
# Shear Modulus (GPa) = 17.60848 19.87341 18.74095
#
# Velocity S-wave (km/s) = 3.16722 3.36476 3.26748
# Velocity P-wave (km/s) = 7.62621 8.49212 8.07079
#
# Compressibility (1/GPa) = 0.01272070
#
# Stress axis : x y z
#
# Youngs Moduli (GPa) = 34.94103 77.63360 52.82047
#
# Poissons Ratio (x) = 0.58789 0.51730
# Poissons Ratio (y) = 0.26459 0.34280
# Poissons Ratio (z) = 0.34220 0.50383
#
# Static dielectric constant tensor:
#      x y z
#    x 1.592220 0.000000 0.000000 
#    y 0.000000 1.574450 0.000000 
#    z 0.000000 0.000000 1.579630 
# 
# From -- ./inp_files/42988.got.cif
#   From: 2010.05.17/outbox.cif.g08.bks.cpg/sg64_22_cif.got.tgz:42988.got - 2010.06.03 16:29:19.
