data_PCOD9478542
_publ_section_title
;
Structure prediction by ZEFSAII (Michael W. Deem and Ramdas Pophale) SiO2 
 PCOD9478542
Probable space group: C M C A
;
_chemical_formula_sum "Si O2"
_cell_formula_units_Z 96
_cell_length_a 21.484183
_cell_length_b 20.611695
_cell_length_c 11.368423
_cell_angle_alpha 90.000000
_cell_angle_beta 90.000000
_cell_angle_gamma 90.000000
_cell_volume 5034.226773
_symmetry_space_group_name_H-M "C M C A"
_symmetry_group_IT_number 64
_symmetry_cell_setting 'orthorhombic'
loop_
_space_group_symop_operation_xyz
x,y,z
-x,1/2-y,1/2+z
x,-y,-z
-x,1/2+y,1/2-z
-x,-y,-z
x,1/2+y,1/2-z
-x,y,z
x,1/2-y,1/2+z
1/2+x,1/2+y,z
1/2-x,-y,1/2+z
1/2+x,1/2-y,-z
1/2-x,y,1/2-z
1/2-x,1/2-y,-z
1/2+x,y,1/2-z
1/2-x,1/2+y,z
1/2+x,-y,1/2+z
loop_
_atom_site_type_symbol
_atom_site_label
_atom_site_fract_x
_atom_site_fract_y
_atom_site_fract_z
Si Si1 0.137945 0.142575 0.723912
Si Si2 0.696031 0.329927 0.506806
Si Si3 0.570752 0.626568 0.370177
Si Si4 0.672266 0.819196 0.481870
Si Si5 0.071738 0.514742 0.860944
Si Si6 0.430796 0.226925 0.339197
O O1 0.193598 0.161803 0.634731
O O2 0.153139 0.146996 0.861122
O O3 0.113861 0.071382 0.689735
O O4 0.089158 0.199788 0.691031
O O5 0.632506 0.363531 0.551388
O O6 0.689869 0.255605 0.548034
O O7 0.765918 0.350787 0.539867
O O8 0.500000 0.624614 0.425063
O O9 0.578577 0.557066 0.306662
O O10 0.569918 0.685619 0.279943
O O11 0.616563 0.808231 0.572800
O O12 0.000000 0.534720 0.846956
O O13 0.082578 0.500000 0.000000
O O14 0.500000 0.226962 0.390312
#
# Coordination Sequence:
#
# PCOD9478542 Si02
#       6
#    16  16  16  16  16  16
#     4  11  20  36  60  90 119 152 202 255 301 359
#     4  10  20  36  60  85 119 156 198 251 303 360
#     4  10  20  38  60  86 120 159 204 252 303 361
#     4  10  22  36  57  89 119 158 198 247 309 366
#     4  10  20  34  58  89 120 153 195 250 311 357
#     4  10  22  37  58  89 121 156 200 250 302 361
#
# _framework density 19.069462999999999
#
# number of rings (size 3 to 8) (size 9 to 14) (size 15 to 20)
#    0.000    1.833    3.333    1.000    0.000    4.667 
#    0.000    0.833   11.000    3.000    0.000    0.000 
#    0.000    0.000    0.000    0.000    0.000    0.000 
#
# Total GULP energy -267351.751087 kJ/mol
# GULP energy per Si atom -5569.828148 kJ/mol
# Density = 1.902606 g / cm^3
# Si number density = 19.069463 Si / 1000 Ang^3
#
#
#
# Elastic Constant Matrix: (Units=GPa)
#
#
# Indices 1 2 3 4 5 6 
#
# 1 154.4267 22.2331 40.2511 0.0000 0.0000 0.0000
# 2 22.2331 85.4271 6.3372 0.0000 0.0000 0.0000
# 3 40.2511 6.3372 44.9276 0.0000 0.0000 0.0000
# 4 0.0000 0.0000 0.0000 23.8066 0.0000 0.0000
# 5 0.0000 0.0000 0.0000 0.0000 17.3470 0.0000
# 6 0.0000 0.0000 0.0000 0.0000 0.0000 11.1464
#
#
#
# Elastic Compliance Matrix: (Units=1/GPa)
#
#
# Indices 1 2 3 4 5 6 
#
# 1 0.008686 -0.001701 -0.007542 0.000000 0.000000 0.000000
# 2 -0.001701 0.012163 -0.000192 0.000000 0.000000 0.000000
# 3 -0.007542 -0.000192 0.029042 0.000000 0.000000 0.000000
# 4 0.000000 0.000000 0.000000 0.042005 0.000000 0.000000
# 5 0.000000 0.000000 0.000000 0.000000 0.057647 0.000000
# 6 0.000000 0.000000 0.000000 0.000000 0.000000 0.089715
#
#
# Mechanical properties :
#
#
# Convention : Reuss Voigt Hill
#
# Bulk Modulus (GPa) = 32.23563 46.93600 39.58582
# Shear Modulus (GPa) = 18.62412 24.85733 21.74072
#
# Velocity S-wave (km/s) = 3.12852 3.61434 3.38017
# Velocity P-wave (km/s) = 5.47643 6.48726 6.00316
#
# Compressibility (1/GPa) = 0.03102157
#
# Stress axis : x y z
#
# Youngs Moduli (GPa) = 115.12299 82.21766 34.43261
#
# Poissons Ratio (x) = 0.13987 0.25970
# Poissons Ratio (y) = 0.19585 0.00659
# Poissons Ratio (z) = 0.86829 0.01574
#
# Static dielectric constant tensor:
#      x y z
#    x 1.738030 0.000000 0.000000 
#    y 0.000000 1.672800 0.000000 
#    z 0.000000 0.000000 1.684440 
# 
# From -- ./inp_files/17362.got.cif
#   From: 2010.05.17/outbox.cif.g08.bks.cpg/sg64_9_cif.got.tgz:17362.got - 2010.06.03 16:29:19.
