data_PCOD9478179
_publ_section_title
;
Structure prediction by ZEFSAII (Michael W. Deem and Ramdas Pophale) SiO2 
 PCOD9478179
Probable space group: C M C A
;
_chemical_formula_sum "Si O2"
_cell_formula_units_Z 88
_cell_length_a 14.164301
_cell_length_b 16.425409
_cell_length_c 18.115450
_cell_angle_alpha 90.000000
_cell_angle_beta 90.000000
_cell_angle_gamma 90.000000
_cell_volume 4214.639823
_symmetry_space_group_name_H-M "C M C A"
_symmetry_group_IT_number 64
_symmetry_cell_setting 'orthorhombic'
loop_
_space_group_symop_operation_xyz
x,y,z
-x,1/2-y,1/2+z
x,-y,-z
-x,1/2+y,1/2-z
-x,-y,-z
x,1/2+y,1/2-z
-x,y,z
x,1/2-y,1/2+z
1/2+x,1/2+y,z
1/2-x,-y,1/2+z
1/2+x,1/2-y,-z
1/2-x,y,1/2-z
1/2-x,1/2-y,-z
1/2+x,y,1/2-z
1/2-x,1/2+y,z
1/2+x,-y,1/2+z
loop_
_atom_site_type_symbol
_atom_site_label
_atom_site_fract_x
_atom_site_fract_y
_atom_site_fract_z
Si Si1 0.500000 0.375871 0.326054
Si Si2 0.677543 0.968454 0.419314
Si Si3 0.500000 0.196658 0.397871
Si Si4 0.168759 0.496037 0.187491
Si Si5 0.155669 0.292733 0.478190
Si Si6 0.000000 0.614612 0.239768
Si Si7 0.000000 0.079989 0.843262
Si Si8 0.000000 0.739746 0.111738
O O1 0.500000 0.289477 0.366385
O O2 0.401892 0.424109 0.339498
O O3 0.500000 0.380854 0.236918
O O4 0.766519 0.013711 0.383896
O O5 0.687872 0.871299 0.430714
O O6 0.590261 0.972547 0.363252
O O7 0.652568 0.000000 0.500000
O O8 0.590504 0.183724 0.451284
O O9 0.500000 0.141475 0.324763
O O10 0.250000 0.476251 0.250000
O O11 0.094151 0.563535 0.216626
O O12 0.250000 0.250000 0.500000
O O13 0.094922 0.225477 0.433031
O O14 0.000000 0.695263 0.188908
O O15 0.000000 0.161365 0.891811
#
# Coordination Sequence:
#
# PCOD9478179 Si02
#       8
#     8  16   8  16  16   8   8   8
#     4  11  21  43  68  91 133 168 219 272 335 392
#     4  11  24  40  66  97 128 173 223 270 334 388
#     4  11  24  43  70 101 129 175 218 279 339 381
#     4  11  25  42  63  98 135 172 221 270 328 403
#     4  10  23  42  67  95 130 168 226 274 322 398
#     4  11  26  41  66  96 143 172 217 275 337 398
#     4  10  19  40  66  95 120 169 222 275 317 393
#     4   9  21  41  61  90 130 167 213 273 329 381
#
# _framework density 20.879601999999998
#
# number of rings (size 3 to 8) (size 9 to 14) (size 15 to 20)
#    0.000    1.455    2.727    1.909    5.091    0.000 
#    0.000    1.818    0.000    0.000    0.000    0.000 
#    0.000    0.000    0.000    0.000    0.000    0.000 
#
# Total GULP energy -245162.327181 kJ/mol
# GULP energy per Si atom -5571.871072 kJ/mol
# Density = 2.083208 g / cm^3
# Si number density = 20.879602 Si / 1000 Ang^3
#
#
#
# Elastic Constant Matrix: (Units=GPa)
#
#
# Indices 1 2 3 4 5 6 
#
# 1 152.8040 31.6195 40.5268 0.0000 0.0000 0.0000
# 2 31.6195 66.7612 22.7634 0.0000 0.0000 0.0000
# 3 40.5268 22.7634 110.2160 0.0000 0.0000 0.0000
# 4 0.0000 0.0000 0.0000 42.4576 0.0000 0.0000
# 5 0.0000 0.0000 0.0000 0.0000 22.8058 0.0000
# 6 0.0000 0.0000 0.0000 0.0000 0.0000 -18.1494
#
#
#
# Elastic Compliance Matrix: (Units=1/GPa)
#
#
# Indices 1 2 3 4 5 6 
#
# 1 0.007740 -0.002900 -0.002247 0.000000 0.000000 0.000000
# 2 -0.002900 0.017200 -0.002486 0.000000 0.000000 0.000000
# 3 -0.002247 -0.002486 0.010413 0.000000 0.000000 0.000000
# 4 0.000000 0.000000 0.000000 0.023553 0.000000 0.000000
# 5 0.000000 0.000000 0.000000 0.000000 0.043848 0.000000
# 6 0.000000 0.000000 0.000000 0.000000 0.000000 -0.055098
#
#
# Mechanical properties :
#
#
# Convention : Reuss Voigt Hill
#
# Bulk Modulus (GPa) = 49.78383 57.73341 53.75862
# Shear Modulus (GPa) = 71.82031 25.08089 48.45060
#
# Velocity S-wave (km/s) = 5.87129 3.46961 4.82236
# Velocity P-wave (km/s) = 8.35810 6.61526 7.53722
#
# Compressibility (1/GPa) = 0.02008684
#
# Stress axis : x y z
#
# Youngs Moduli (GPa) = 129.19227 58.14006 96.03485
#
# Poissons Ratio (x) = 0.16859 0.21582
# Poissons Ratio (y) = 0.37463 0.23875
# Poissons Ratio (z) = 0.29033 0.14454
#
# Static dielectric constant tensor:
#      x y z
#    x 1.495770 0.000000 0.000000 
#    y 0.000000 1.794680 0.000000 
#    z 0.000000 0.000000 1.786070 
# 
# From -- ./inp_files/32230.got.cif
#   From: 2010.05.17/outbox.cif.g08.bks.cpg/sg64_17_cif.got.tgz:32230.got - 2010.06.03 16:29:19.
