data_PCOD9478270
_publ_section_title
;
Structure prediction by ZEFSAII (Michael W. Deem and Ramdas Pophale) SiO2 
 PCOD9478270
Probable space group: C M C A
;
_chemical_formula_sum "Si O2"
_cell_formula_units_Z 116
_cell_length_a 7.792894
_cell_length_b 25.890129
_cell_length_c 26.064964
_cell_angle_alpha 90.000000
_cell_angle_beta 90.000000
_cell_angle_gamma 90.000000
_cell_volume 5258.841878
_symmetry_space_group_name_H-M "C M C A"
_symmetry_group_IT_number 64
_symmetry_cell_setting 'orthorhombic'
loop_
_space_group_symop_operation_xyz
x,y,z
-x,1/2-y,1/2+z
x,-y,-z
-x,1/2+y,1/2-z
-x,-y,-z
x,1/2+y,1/2-z
-x,y,z
x,1/2-y,1/2+z
1/2+x,1/2+y,z
1/2-x,-y,1/2+z
1/2+x,1/2-y,-z
1/2-x,y,1/2-z
1/2-x,1/2-y,-z
1/2+x,y,1/2-z
1/2-x,1/2+y,z
1/2+x,-y,1/2+z
loop_
_atom_site_type_symbol
_atom_site_label
_atom_site_fract_x
_atom_site_fract_y
_atom_site_fract_z
Si Si1 0.295332 0.632381 0.459592
Si Si2 0.191445 0.495148 0.306192
Si Si3 0.803039 0.115475 0.676727
Si Si4 0.704342 0.232013 0.805519
Si Si5 0.000000 0.000000 0.000000
Si Si6 0.200471 0.260721 0.915518
Si Si7 0.699901 0.854192 0.429928
Si Si8 0.197838 0.977904 0.581572
O O1 0.500000 0.637094 0.466687
O O2 0.225420 0.687173 0.439341
O O3 0.214787 0.621126 0.514685
O O4 0.267543 0.583759 0.423371
O O5 0.250000 0.513855 0.250000
O O6 0.197699 0.432794 0.304046
O O7 0.292256 0.508124 0.358205
O O8 0.000000 0.513861 0.314824
O O9 0.735282 0.172133 0.692008
O O10 0.796551 0.116393 0.614855
O O11 0.000000 0.110342 0.693623
O O12 0.500000 0.230978 0.812331
O O13 0.750000 0.253465 0.750000
O O14 0.781757 0.260998 0.854120
O O15 0.846037 0.002076 0.954480
O O16 0.270584 0.204872 0.932947
O O17 0.000000 0.259720 0.929295
O O18 0.500000 0.851902 0.414768
O O19 0.000000 0.988047 0.564230
#
# Coordination Sequence:
#
# PCOD9478270 Si02
#       8
#    16  16  16  16   4  16  16  16
#     4  10  22  39  60  84 119 160 202 252 311 372
#     4  12  25  44  67  94 128 170 221 273 332 402
#     4  10  21  36  57  87 122 159 203 251 313 382
#     4  10  20  34  54  82 114 152 196 246 303 363
#     4  12  26  48  72 102 136 168 222 274 336 406
#     4   9  19  37  56  82 116 155 198 243 297 364
#     4  10  20  32  56  88 123 160 198 247 302 370
#     4  11  26  46  69 100 134 174 219 276 334 394
#
# _framework density 22.058088000000001
#
# number of rings (size 3 to 8) (size 9 to 14) (size 15 to 20)
#    0.000    1.655    0.690    3.517    2.897    3.862 
#    0.000    0.690    0.000    0.000    0.000    0.000 
#    0.000    0.000    0.000    0.000    0.000    0.000 
#
# Total GULP energy -323582.262526 kJ/mol
# GULP energy per Si atom -5579.004526 kJ/mol
# Density = 2.200788 g / cm^3
# Si number density = 22.058088 Si / 1000 Ang^3
#
#
#
# Elastic Constant Matrix: (Units=GPa)
#
#
# Indices 1 2 3 4 5 6 
#
# 1 81.1316 20.4892 14.5238 0.0000 0.0000 0.0000
# 2 20.4892 45.9416 28.7023 0.0000 0.0000 0.0000
# 3 14.5238 28.7023 135.2637 0.0000 0.0000 0.0000
# 4 0.0000 0.0000 0.0000 14.1156 0.0000 0.0000
# 5 0.0000 0.0000 0.0000 0.0000 31.0380 0.0000
# 6 0.0000 0.0000 0.0000 0.0000 0.0000 6.5865
#
#
#
# Elastic Compliance Matrix: (Units=1/GPa)
#
#
# Indices 1 2 3 4 5 6 
#
# 1 0.013895 -0.006069 -0.000204 0.000000 0.000000 0.000000
# 2 -0.006069 0.027745 -0.005236 0.000000 0.000000 0.000000
# 3 -0.000204 -0.005236 0.008526 0.000000 0.000000 0.000000
# 4 0.000000 0.000000 0.000000 0.070844 0.000000 0.000000
# 5 0.000000 0.000000 0.000000 0.000000 0.032219 0.000000
# 6 0.000000 0.000000 0.000000 0.000000 0.000000 0.151826
#
#
# Mechanical properties :
#
#
# Convention : Reuss Voigt Hill
#
# Bulk Modulus (GPa) = 36.83610 43.30750 40.07180
# Shear Modulus (GPa) = 14.83149 23.58946 19.21048
#
# Velocity S-wave (km/s) = 2.59585 3.27375 2.95431
# Velocity P-wave (km/s) = 5.07153 5.82803 5.46289
#
# Compressibility (1/GPa) = 0.02714728
#
# Stress axis : x y z
#
# Youngs Moduli (GPa) = 71.96849 36.04304 117.29050
#
# Poissons Ratio (x) = 0.21876 0.02393
# Poissons Ratio (y) = 0.43681 0.61408
# Poissons Ratio (z) = 0.01468 0.18871
#
# Static dielectric constant tensor:
#      x y z
#    x 1.779620 0.000000 0.000000 
#    y 0.000000 1.834160 0.000000 
#    z 0.000000 0.000000 1.827520 
# 
# From -- ./inp_files/43548.got.cif
#   From: 2010.05.17/outbox.cif.g08.bks.cpg/sg64_22_cif.got.tgz:43548.got - 2010.06.03 16:29:19.
