data_PCOD9478833
_publ_section_title
;
Structure prediction by ZEFSAII (Michael W. Deem and Ramdas Pophale) SiO2 
 PCOD9478833
Probable space group: C M C A
;
_chemical_formula_sum "Si O2"
_cell_formula_units_Z 96
_cell_length_a 8.741944
_cell_length_b 25.771876
_cell_length_c 24.198863
_cell_angle_alpha 90.000000
_cell_angle_beta 90.000000
_cell_angle_gamma 90.000000
_cell_volume 5451.914220
_symmetry_space_group_name_H-M "C M C A"
_symmetry_group_IT_number 64
_symmetry_cell_setting 'orthorhombic'
loop_
_space_group_symop_operation_xyz
x,y,z
-x,1/2-y,1/2+z
x,-y,-z
-x,1/2+y,1/2-z
-x,-y,-z
x,1/2+y,1/2-z
-x,y,z
x,1/2-y,1/2+z
1/2+x,1/2+y,z
1/2-x,-y,1/2+z
1/2+x,1/2-y,-z
1/2-x,y,1/2-z
1/2-x,1/2-y,-z
1/2+x,y,1/2-z
1/2-x,1/2+y,z
1/2+x,-y,1/2+z
loop_
_atom_site_type_symbol
_atom_site_label
_atom_site_fract_x
_atom_site_fract_y
_atom_site_fract_z
Si Si1 0.816317 0.400406 0.618651
Si Si2 0.683985 0.689604 0.809611
Si Si3 0.814963 0.097533 0.889022
Si Si4 0.816418 0.309671 0.810126
Si Si5 0.683268 0.439137 0.503605
Si Si6 0.816104 0.998936 0.188933
O O1 0.749301 0.347855 0.643933
O O2 0.755032 0.413831 0.558058
O O3 0.769210 0.447804 0.659000
O O4 0.000000 0.398070 0.617700
O O5 0.500000 0.687484 0.805912
O O6 0.750000 0.673929 0.750000
O O7 0.731342 0.650106 0.857538
O O8 0.727683 0.749477 0.820039
O O9 0.741141 0.089049 0.948474
O O10 0.770816 0.049348 0.849625
O O11 0.000000 0.097112 0.894713
O O12 0.750000 0.324437 0.750000
O O13 0.000000 0.313106 0.808586
O O14 0.729068 0.500000 0.500000
O O15 0.500000 0.436869 0.507003
O O16 0.750000 0.994766 0.250000
O O17 0.000000 0.998590 0.192525
#
# Coordination Sequence:
#
# PCOD9478833 Si02
#       6
#    16  16  16  16  16  16
#     4  11  22  37  57  81 109 148 188 228 277 330
#     4   9  19  35  58  84 113 148 185 226 276 328
#     4  10  20  37  57  80 110 146 185 226 273 330
#     4  10  20  36  57  84 115 148 186 229 275 328
#     4  11  23  38  57  82 110 146 186 230 279 331
#     4  10  21  33  51  79 110 140 175 220 272 326
#
# _framework density 17.608494
#
# number of rings (size 3 to 8) (size 9 to 14) (size 15 to 20)
#    0.000    1.833    1.667    2.500    0.000    5.333 
#    0.000    0.833    0.000    0.000    0.000    0.000 
#    0.000    0.000    0.000    0.000    0.000    0.000 
#
# Total GULP energy -268119.925704 kJ/mol
# GULP energy per Si atom -5585.831785 kJ/mol
# Density = 1.756842 g / cm^3
# Si number density = 17.608494 Si / 1000 Ang^3
#
#
#
# Elastic Constant Matrix: (Units=GPa)
#
#
# Indices 1 2 3 4 5 6 
#
# 1 32.3017 32.1413 36.8131 0.0000 0.0000 0.0000
# 2 32.1413 95.9654 68.0161 0.0000 0.0000 0.0000
# 3 36.8131 68.0161 141.4531 0.0000 0.0000 0.0000
# 4 0.0000 0.0000 0.0000 27.3539 0.0000 0.0000
# 5 0.0000 0.0000 0.0000 0.0000 37.8556 0.0000
# 6 0.0000 0.0000 0.0000 0.0000 0.0000 22.7336
#
#
#
# Elastic Compliance Matrix: (Units=1/GPa)
#
#
# Indices 1 2 3 4 5 6 
#
# 1 0.051480 -0.011751 -0.007747 0.000000 0.000000 0.000000
# 2 -0.011751 0.018490 -0.005832 0.000000 0.000000 0.000000
# 3 -0.007747 -0.005832 0.011890 0.000000 0.000000 0.000000
# 4 0.000000 0.000000 0.000000 0.036558 0.000000 0.000000
# 5 0.000000 0.000000 0.000000 0.000000 0.026416 0.000000
# 6 0.000000 0.000000 0.000000 0.000000 0.000000 0.043988
#
#
# Mechanical properties :
#
#
# Convention : Reuss Voigt Hill
#
# Bulk Modulus (GPa) = 32.05269 60.40681 46.22975
# Shear Modulus (GPa) = 20.00931 26.43861 23.22396
#
# Velocity S-wave (km/s) = 3.37463 3.87908 3.63562
# Velocity P-wave (km/s) = 5.78158 7.37855 6.62833
#
# Compressibility (1/GPa) = 0.03119863
#
# Stress axis : x y z
#
# Youngs Moduli (GPa) = 19.42488 54.08338 84.10294
#
# Poissons Ratio (x) = 0.63554 0.65158
# Poissons Ratio (y) = 0.22826 0.49053
# Poissons Ratio (z) = 0.15049 0.31544
#
# Static dielectric constant tensor:
#      x y z
#    x 1.593220 0.000000 0.000000 
#    y 0.000000 1.602810 0.000000 
#    z 0.000000 0.000000 1.556820 
# 
# From -- ./inp_files/36955.got.cif
#   From: 2010.05.17/outbox.cif.g08.bks.cpg/sg64_19_cif.got.tgz:36955.got - 2010.06.03 16:29:19.
