data_PCOD9478474
_publ_section_title
;
Structure prediction by ZEFSAII (Michael W. Deem and Ramdas Pophale) SiO2 
 PCOD9478474
Probable space group: C M C A
;
_chemical_formula_sum "Si O2"
_cell_formula_units_Z 64
_cell_length_a 27.959111
_cell_length_b 8.388052
_cell_length_c 13.101966
_cell_angle_alpha 90.000000
_cell_angle_beta 90.000000
_cell_angle_gamma 90.000000
_cell_volume 3072.705519
_symmetry_space_group_name_H-M "C M C A"
_symmetry_group_IT_number 64
_symmetry_cell_setting 'orthorhombic'
loop_
_space_group_symop_operation_xyz
x,y,z
-x,1/2-y,1/2+z
x,-y,-z
-x,1/2+y,1/2-z
-x,-y,-z
x,1/2+y,1/2-z
-x,y,z
x,1/2-y,1/2+z
1/2+x,1/2+y,z
1/2-x,-y,1/2+z
1/2+x,1/2-y,-z
1/2-x,y,1/2-z
1/2-x,1/2-y,-z
1/2+x,y,1/2-z
1/2-x,1/2+y,z
1/2+x,-y,1/2+z
loop_
_atom_site_type_symbol
_atom_site_label
_atom_site_fract_x
_atom_site_fract_y
_atom_site_fract_z
Si Si1 0.813941 0.240204 0.459597
Si Si2 0.577855 0.674323 0.447069
Si Si3 0.765125 0.927977 0.366954
Si Si4 0.000000 0.707519 0.405064
Si Si5 0.000000 0.052841 0.297663
O O1 0.869580 0.243858 0.435329
O O2 0.801913 0.196238 0.577753
O O3 0.784569 0.391195 0.423294
O O4 0.789522 0.095534 0.394800
O O5 0.583321 0.500000 0.500000
O O6 0.545883 0.781369 0.522246
O O7 0.546506 0.639701 0.346303
O O8 0.750000 0.913046 0.250000
O O9 0.000000 0.567439 0.323466
O O10 0.000000 0.872942 0.339877
#
# Coordination Sequence:
#
# PCOD9478474 Si02
#       5
#    16  16  16   8   8
#     4  10  20  36  56  77 116 145 189 226 275 325
#     4   9  17  36  57  76 109 155 173 214 278 346
#     4  10  20  34  55  79 109 149 189 232 271 319
#     4   9  19  35  62  82 108 139 183 223 276 338
#     4   9  19  35  60  84 106 137 185 221 274 330
#
# _framework density 20.82855
#
# number of rings (size 3 to 8) (size 9 to 14) (size 15 to 20)
#    0.000    2.500    2.500    2.250    0.000    2.000 
#    0.000    2.500    5.500    0.000    0.000    0.000 
#    0.000    0.000    0.000    0.000    0.000    0.000 
#
# Total GULP energy -178501.144808 kJ/mol
# GULP energy per Si atom -5578.160775 kJ/mol
# Density = 2.078114 g / cm^3
# Si number density = 20.828550 Si / 1000 Ang^3
#
#
#
# Elastic Constant Matrix: (Units=GPa)
#
#
# Indices 1 2 3 4 5 6 
#
# 1 178.4173 32.1728 17.1882 0.0000 0.0000 0.0000
# 2 32.1728 40.3569 32.5197 0.0000 0.0000 0.0000
# 3 17.1882 32.5197 97.8060 0.0000 0.0000 0.0000
# 4 0.0000 0.0000 0.0000 21.0836 0.0000 0.0000
# 5 0.0000 0.0000 0.0000 0.0000 5.3173 0.0000
# 6 0.0000 0.0000 0.0000 0.0000 0.0000 55.8534
#
#
#
# Elastic Compliance Matrix: (Units=1/GPa)
#
#
# Indices 1 2 3 4 5 6 
#
# 1 0.006592 -0.005903 0.000804 0.000000 0.000000 0.000000
# 2 -0.005903 0.039134 -0.011974 0.000000 0.000000 0.000000
# 3 0.000804 -0.011974 0.014064 0.000000 0.000000 0.000000
# 4 0.000000 0.000000 0.000000 0.047430 0.000000 0.000000
# 5 0.000000 0.000000 0.000000 0.000000 0.188067 0.000000
# 6 0.000000 0.000000 0.000000 0.000000 0.000000 0.017904
#
#
# Mechanical properties :
#
#
# Convention : Reuss Voigt Hill
#
# Bulk Modulus (GPa) = 38.99585 53.37129 46.18357
# Shear Modulus (GPa) = 14.04946 32.09747 23.07347
#
# Velocity S-wave (km/s) = 2.59999 3.92986 3.33194
# Velocity P-wave (km/s) = 5.27031 6.80231 6.08472
#
# Compressibility (1/GPa) = 0.02564375
#
# Stress axis : x y z
#
# Youngs Moduli (GPa) = 151.70285 25.55330 71.10191
#
# Poissons Ratio (x) = 0.15085 -0.05719
# Poissons Ratio (y) = 0.89553 0.85139
# Poissons Ratio (z) = -0.12202 0.30598
#
# Static dielectric constant tensor:
#      x y z
#    x 1.717110 0.000000 0.000000 
#    y 0.000000 1.800600 0.000000 
#    z 0.000000 0.000000 1.772330 
# 
# From -- ./inp_files/18905.got.cif
#   From: 2010.05.17/outbox.cif.g08.bks.cpg/sg64_10_cif.got.tgz:18905.got - 2010.06.03 16:29:19.
