data_PCOD9478898
_publ_section_title
;
Structure prediction by ZEFSAII (Michael W. Deem and Ramdas Pophale) SiO2 
 PCOD9478898
Probable space group: C M C A
;
_chemical_formula_sum "Si O2"
_cell_formula_units_Z 96
_cell_length_a 26.702800
_cell_length_b 11.574568
_cell_length_c 17.764541
_cell_angle_alpha 90.000000
_cell_angle_beta 90.000000
_cell_angle_gamma 90.000000
_cell_volume 5490.546631
_symmetry_space_group_name_H-M "C M C A"
_symmetry_group_IT_number 64
_symmetry_cell_setting 'orthorhombic'
loop_
_space_group_symop_operation_xyz
x,y,z
-x,1/2-y,1/2+z
x,-y,-z
-x,1/2+y,1/2-z
-x,-y,-z
x,1/2+y,1/2-z
-x,y,z
x,1/2-y,1/2+z
1/2+x,1/2+y,z
1/2-x,-y,1/2+z
1/2+x,1/2-y,-z
1/2-x,y,1/2-z
1/2-x,1/2-y,-z
1/2+x,y,1/2-z
1/2-x,1/2+y,z
1/2+x,-y,1/2+z
loop_
_atom_site_type_symbol
_atom_site_label
_atom_site_fract_x
_atom_site_fract_y
_atom_site_fract_z
Si Si1 0.640835 0.959810 0.143211
Si Si2 0.209946 0.825708 0.611978
Si Si3 0.810602 0.064512 0.075974
Si Si4 0.304314 0.888841 0.286849
Si Si5 0.135486 0.737807 0.982844
Si Si6 0.057011 0.904953 0.567360
O O1 0.653587 0.907510 0.223926
O O2 0.639515 0.859053 0.081471
O O3 0.685341 0.049201 0.124184
O O4 0.590531 0.035587 0.132245
O O5 0.268622 0.843216 0.600614
O O6 0.198539 0.740498 0.680722
O O7 0.182761 0.774549 0.538737
O O8 0.860075 0.136624 0.054253
O O9 0.814783 0.973582 0.143205
O O10 0.793272 0.000000 0.000000
O O11 0.250000 0.915258 0.250000
O O12 0.087485 0.703640 0.033278
O O13 0.000000 0.879289 0.588602
O O14 0.056058 0.000000 0.500000
#
# Coordination Sequence:
#
# PCOD9478898 Si02
#       6
#    16  16  16  16  16  16
#     4  10  21  35  57  84 112 147 189 243 296 341
#     4  11  22  36  52  75 113 154 196 236 277 344
#     4  12  23  36  52  77 113 160 202 236 283 347
#     4  12  25  35  48  79 117 160 194 234 289 339
#     4  10  20  36  59  82 106 145 194 243 286 343
#     4   8  16  35  63  90 108 134 186 242 294 346
#
# _framework density 17.484597000000001
#
# number of rings (size 3 to 8) (size 9 to 14) (size 15 to 20)
#    0.000    1.500    3.333    4.000    4.667    0.000 
#    0.000    0.000    0.000    5.500    0.000    0.000 
#    0.000    0.000    0.000    0.000    0.000    0.000 
#
# Total GULP energy -267847.373610 kJ/mol
# GULP energy per Si atom -5580.153617 kJ/mol
# Density = 1.744480 g / cm^3
# Si number density = 17.484597 Si / 1000 Ang^3
#
#
#
# Elastic Constant Matrix: (Units=GPa)
#
#
# Indices 1 2 3 4 5 6 
#
# 1 83.3122 13.1686 26.8467 0.0000 0.0000 0.0000
# 2 13.1686 53.2095 23.9871 0.0000 0.0000 0.0000
# 3 26.8467 23.9871 105.8073 0.0000 0.0000 0.0000
# 4 0.0000 0.0000 0.0000 34.2513 0.0000 0.0000
# 5 0.0000 0.0000 0.0000 0.0000 14.6754 0.0000
# 6 0.0000 0.0000 0.0000 0.0000 0.0000 11.9787
#
#
#
# Elastic Compliance Matrix: (Units=1/GPa)
#
#
# Indices 1 2 3 4 5 6 
#
# 1 0.013254 -0.001965 -0.002917 0.000000 0.000000 0.000000
# 2 -0.001965 0.021224 -0.004313 0.000000 0.000000 0.000000
# 3 -0.002917 -0.004313 0.011169 0.000000 0.000000 0.000000
# 4 0.000000 0.000000 0.000000 0.029196 0.000000 0.000000
# 5 0.000000 0.000000 0.000000 0.000000 0.068141 0.000000
# 6 0.000000 0.000000 0.000000 0.000000 0.000000 0.083481
#
#
# Mechanical properties :
#
#
# Convention : Reuss Voigt Hill
#
# Bulk Modulus (GPa) = 36.68876 41.14821 38.91848
# Shear Modulus (GPa) = 19.68951 24.06951 21.87951
#
# Velocity S-wave (km/s) = 3.35939 3.71430 3.54129
# Velocity P-wave (km/s) = 6.00636 6.47918 6.24724
#
# Compressibility (1/GPa) = 0.02725631
#
# Stress axis : x y z
#
# Youngs Moduli (GPa) = 75.45034 47.11580 89.53196
#
# Poissons Ratio (x) = 0.09258 0.26120
# Poissons Ratio (y) = 0.14825 0.38616
# Poissons Ratio (z) = 0.22012 0.20322
#
# Static dielectric constant tensor:
#      x y z
#    x 1.587910 0.000000 0.000000 
#    y 0.000000 1.620880 0.000000 
#    z 0.000000 0.000000 1.608240 
# 
# From -- ./inp_files/35437.got.cif
#   From: 2010.05.17/outbox.cif.g08.bks.cpg/sg64_18_cif.got.tgz:35437.got - 2010.06.03 16:29:19.
