data_PCOD9478716
_publ_section_title
;
Structure prediction by ZEFSAII (Michael W. Deem and Ramdas Pophale) SiO2 
 PCOD9478716
Probable space group: C M C A
;
_chemical_formula_sum "Si O2"
_cell_formula_units_Z 72
_cell_length_a 18.248154
_cell_length_b 18.841165
_cell_length_c 10.828030
_cell_angle_alpha 90.000000
_cell_angle_beta 90.000000
_cell_angle_gamma 90.000000
_cell_volume 3722.855165
_symmetry_space_group_name_H-M "C M C A"
_symmetry_group_IT_number 64
_symmetry_cell_setting 'orthorhombic'
loop_
_space_group_symop_operation_xyz
x,y,z
-x,1/2-y,1/2+z
x,-y,-z
-x,1/2+y,1/2-z
-x,-y,-z
x,1/2+y,1/2-z
-x,y,z
x,1/2-y,1/2+z
1/2+x,1/2+y,z
1/2-x,-y,1/2+z
1/2+x,1/2-y,-z
1/2-x,y,1/2-z
1/2-x,1/2-y,-z
1/2+x,y,1/2-z
1/2-x,1/2+y,z
1/2+x,-y,1/2+z
loop_
_atom_site_type_symbol
_atom_site_label
_atom_site_fract_x
_atom_site_fract_y
_atom_site_fract_z
Si Si1 0.500000 0.717253 0.103244
Si Si2 0.000000 0.827010 0.622130
Si Si3 0.370112 0.931727 0.935684
Si Si4 0.776353 0.663925 0.878124
Si Si5 0.250000 0.076910 0.250000
Si Si6 0.161571 0.186812 0.083568
O O1 0.500000 0.722330 0.254402
O O2 0.575302 0.677226 0.072635
O O3 0.500000 0.784302 0.008466
O O4 0.928894 0.878117 0.623047
O O5 0.309076 0.959684 0.838508
O O6 0.325348 0.886064 0.036496
O O7 0.405347 0.000000 0.000000
O O8 0.750000 0.631712 0.750000
O O9 0.821893 0.736359 0.856384
O O10 0.703647 0.686072 0.953603
O O11 0.200479 0.127436 0.164511
#
# Coordination Sequence:
#
# PCOD9478716 Si02
#       6
#     8   8  16  16   8  16
#     4  12  24  36  62  96 128 162 200 254 320 386
#     4  12  25  42  62  98 127 164 204 258 320 368
#     4  11  24  40  62  86 123 169 208 248 301 377
#     4  10  21  36  60  90 115 155 206 264 305 366
#     4  10  20  40  60  88 116 160 204 260 308 360
#     4  10  20  35  59  86 124 150 196 259 326 354
#
# _framework density 19.339994999999998
#
# number of rings (size 3 to 8) (size 9 to 14) (size 15 to 20)
#    0.000    1.333    5.556    0.333    4.667    0.000 
#    0.000    0.000    0.000    0.000    0.000    7.000 
#    0.000    0.000    0.000    0.000    0.000    0.000 
#
# Total GULP energy -200771.335386 kJ/mol
# GULP energy per Si atom -5576.981538 kJ/mol
# Density = 1.929598 g / cm^3
# Si number density = 19.339995 Si / 1000 Ang^3
#
#
#
# Elastic Constant Matrix: (Units=GPa)
#
#
# Indices 1 2 3 4 5 6 
#
# 1 134.2772 6.6879 26.1915 0.0000 0.0000 0.0000
# 2 6.6879 38.1630 11.6010 0.0000 0.0000 0.0000
# 3 26.1915 11.6010 82.3940 0.0000 0.0000 0.0000
# 4 0.0000 0.0000 0.0000 11.1032 0.0000 0.0000
# 5 0.0000 0.0000 0.0000 0.0000 26.2319 0.0000
# 6 0.0000 0.0000 0.0000 0.0000 0.0000 13.7167
#
#
#
# Elastic Compliance Matrix: (Units=1/GPa)
#
#
# Indices 1 2 3 4 5 6 
#
# 1 0.007955 -0.000653 -0.002437 0.000000 0.000000 0.000000
# 2 -0.000653 0.027429 -0.003654 0.000000 0.000000 0.000000
# 3 -0.002437 -0.003654 0.013426 0.000000 0.000000 0.000000
# 4 0.000000 0.000000 0.000000 0.090064 0.000000 0.000000
# 5 0.000000 0.000000 0.000000 0.000000 0.038122 0.000000
# 6 0.000000 0.000000 0.000000 0.000000 0.000000 0.072904
#
#
# Mechanical properties :
#
#
# Convention : Reuss Voigt Hill
#
# Bulk Modulus (GPa) = 28.31178 38.19945 33.25561
# Shear Modulus (GPa) = 18.17114 24.23394 21.20254
#
# Velocity S-wave (km/s) = 3.06855 3.54368 3.31464
# Velocity P-wave (km/s) = 5.21780 6.04467 5.64639
#
# Compressibility (1/GPa) = 0.03532099
#
# Stress axis : x y z
#
# Youngs Moduli (GPa) = 125.70506 36.45811 74.48268
#
# Poissons Ratio (x) = 0.02382 0.18150
# Poissons Ratio (y) = 0.08213 0.27218
# Poissons Ratio (z) = 0.30632 0.13323
#
# Static dielectric constant tensor:
#      x y z
#    x 1.679910 0.000000 0.000000 
#    y 0.000000 1.661320 0.000000 
#    z 0.000000 0.000000 1.733110 
# 
# From -- ./inp_files/15815.got.cif
#   From: 2010.05.17/outbox.cif.g08.bks.cpg/sg64_8_cif.got.tgz:15815.got - 2010.06.03 16:29:19.
