data_PCOD9478823
_publ_section_title
;
Structure prediction by ZEFSAII (Michael W. Deem and Ramdas Pophale) SiO2 
 PCOD9478823
Probable space group: C M C A
;
_chemical_formula_sum "Si O2"
_cell_formula_units_Z 96
_cell_length_a 22.885151
_cell_length_b 21.861745
_cell_length_c 8.957026
_cell_angle_alpha 90.000000
_cell_angle_beta 90.000000
_cell_angle_gamma 90.000000
_cell_volume 4481.283726
_symmetry_space_group_name_H-M "C M C A"
_symmetry_group_IT_number 64
_symmetry_cell_setting 'orthorhombic'
loop_
_space_group_symop_operation_xyz
x,y,z
-x,1/2-y,1/2+z
x,-y,-z
-x,1/2+y,1/2-z
-x,-y,-z
x,1/2+y,1/2-z
-x,y,z
x,1/2-y,1/2+z
1/2+x,1/2+y,z
1/2-x,-y,1/2+z
1/2+x,1/2-y,-z
1/2-x,y,1/2-z
1/2-x,1/2-y,-z
1/2+x,y,1/2-z
1/2-x,1/2+y,z
1/2+x,-y,1/2+z
loop_
_atom_site_type_symbol
_atom_site_label
_atom_site_fract_x
_atom_site_fract_y
_atom_site_fract_z
Si Si1 0.229149 0.562685 0.580713
Si Si2 0.087443 0.060014 0.914813
Si Si3 0.068077 0.189885 0.635021
Si Si4 0.066901 0.061457 0.565683
Si Si5 0.401013 0.190225 0.530207
Si Si6 0.770055 0.187536 0.079159
O O1 0.247958 0.500000 0.500000
O O2 0.250000 0.563089 0.750000
O O3 0.158311 0.562602 0.582585
O O4 0.250503 0.624365 0.498828
O O5 0.067954 0.055661 0.744230
O O6 0.068610 0.124304 0.986547
O O7 0.068266 0.000000 0.000000
O O8 0.090800 0.130275 0.544555
O O9 0.069116 0.250243 0.536360
O O10 0.000000 0.178058 0.676471
O O11 0.103556 0.197034 0.789493
O O12 0.000000 0.062775 0.508013
O O13 0.095455 0.000000 0.500000
O O14 0.339588 0.187002 0.445323
O O15 0.750000 0.188114 0.250000
O O16 0.750000 0.250000 0.000000
#
# Coordination Sequence:
#
# PCOD9478823 Si02
#       6
#    16  16  16  16  16  16
#     4  10  21  38  58  82 112 147 188 233 281 335
#     4   9  20  37  55  78 108 141 180 225 274 327
#     4  10  20  36  57  80 110 147 186 230 280 332
#     4   9  19  35  54  79 109 141 181 226 271 324
#     4  10  21  37  55  80 112 143 182 231 276 331
#     4  11  22  37  58  84 114 149 188 232 285 341
#
# _framework density 21.422433000000002
#
# number of rings (size 3 to 8) (size 9 to 14) (size 15 to 20)
#    0.000    2.167    0.000    2.500    0.000    5.667 
#    0.000    3.333    0.000    0.000    0.000    0.000 
#    0.000    0.000    0.000    0.000    0.000    0.000 
#
# Total GULP energy -267895.271317 kJ/mol
# GULP energy per Si atom -5581.151486 kJ/mol
# Density = 2.137367 g / cm^3
# Si number density = 21.422433 Si / 1000 Ang^3
#
#
#
# Elastic Constant Matrix: (Units=GPa)
#
#
# Indices 1 2 3 4 5 6 
#
# 1 60.0533 28.8338 25.6304 0.0000 0.0000 0.0000
# 2 28.8338 253.6443 103.1833 0.0000 0.0000 0.0000
# 3 25.6304 103.1833 115.1317 0.0000 0.0000 0.0000
# 4 0.0000 0.0000 0.0000 51.8986 0.0000 0.0000
# 5 0.0000 0.0000 0.0000 0.0000 22.3735 0.0000
# 6 0.0000 0.0000 0.0000 0.0000 0.0000 16.3252
#
#
#
# Elastic Compliance Matrix: (Units=1/GPa)
#
#
# Indices 1 2 3 4 5 6 
#
# 1 0.018473 -0.000672 -0.003510 0.000000 0.000000 0.000000
# 2 -0.000672 0.006229 -0.005433 0.000000 0.000000 0.000000
# 3 -0.003510 -0.005433 0.014336 0.000000 0.000000 0.000000
# 4 0.000000 0.000000 0.000000 0.019268 0.000000 0.000000
# 5 0.000000 0.000000 0.000000 0.000000 0.044696 0.000000
# 6 0.000000 0.000000 0.000000 0.000000 0.000000 0.061255
#
#
# Mechanical properties :
#
#
# Convention : Reuss Voigt Hill
#
# Bulk Modulus (GPa) = 50.48523 82.68049 66.58286
# Shear Modulus (GPa) = 26.30334 36.19825 31.25079
#
# Velocity S-wave (km/s) = 3.50786 4.11510 3.82355
# Velocity P-wave (km/s) = 6.32649 7.82674 7.11626
#
# Compressibility (1/GPa) = 0.01980777
#
# Stress axis : x y z
#
# Youngs Moduli (GPa) = 54.13421 160.53681 69.75303
#
# Poissons Ratio (x) = 0.10789 0.24484
# Poissons Ratio (y) = 0.03638 0.37897
# Poissons Ratio (z) = 0.19001 0.87220
#
# Static dielectric constant tensor:
#      x y z
#    x 1.852830 0.000000 0.000000 
#    y 0.000000 1.834180 0.000000 
#    z 0.000000 0.000000 1.703790 
# 
# From -- ./inp_files/10330.got.cif
#   From: 2010.05.17/outbox.cif.g08.bks.cpg/sg64_6_cif.got.tgz:10330.got - 2010.06.03 16:29:19.
