data_PCOD9478026
_publ_section_title
;
Structure prediction by ZEFSAII (Michael W. Deem and Ramdas Pophale) SiO2 
 PCOD9478026
Probable space group: C M C A
;
_chemical_formula_sum "Si O2"
_cell_formula_units_Z 96
_cell_length_a 15.339638
_cell_length_b 29.589065
_cell_length_c 9.435199
_cell_angle_alpha 90.000000
_cell_angle_beta 90.000000
_cell_angle_gamma 90.000000
_cell_volume 4282.500448
_symmetry_space_group_name_H-M "C M C A"
_symmetry_group_IT_number 64
_symmetry_cell_setting 'orthorhombic'
loop_
_space_group_symop_operation_xyz
x,y,z
-x,1/2-y,1/2+z
x,-y,-z
-x,1/2+y,1/2-z
-x,-y,-z
x,1/2+y,1/2-z
-x,y,z
x,1/2-y,1/2+z
1/2+x,1/2+y,z
1/2-x,-y,1/2+z
1/2+x,1/2-y,-z
1/2-x,y,1/2-z
1/2-x,1/2-y,-z
1/2+x,y,1/2-z
1/2-x,1/2+y,z
1/2+x,-y,1/2+z
loop_
_atom_site_type_symbol
_atom_site_label
_atom_site_fract_x
_atom_site_fract_y
_atom_site_fract_z
Si Si1 0.399967 0.460157 0.617251
Si Si2 0.393485 0.283285 0.641858
Si Si3 0.892883 0.129421 0.537887
Si Si4 0.678788 0.979371 0.354445
Si Si5 0.606924 0.802835 0.539147
Si Si6 0.396831 0.615232 0.858608
O O1 0.400997 0.500000 0.500000
O O2 0.500000 0.449574 0.652323
O O3 0.361643 0.415077 0.546844
O O4 0.359111 0.480280 0.758997
O O5 0.500000 0.282870 0.644642
O O6 0.367555 0.325126 0.542486
O O7 0.366804 0.236246 0.570794
O O8 0.363375 0.291163 0.802443
O O9 0.864148 0.127472 0.700973
O O10 0.000000 0.127417 0.539467
O O11 0.750000 0.958910 0.250000
O O12 0.616221 0.937725 0.387017
O O13 0.712466 0.000000 0.500000
O O14 0.500000 0.802984 0.544848
O O15 0.637669 0.851070 0.478863
O O16 0.500000 0.623332 0.853357
#
# Coordination Sequence:
#
# PCOD9478026 Si02
#       6
#    16  16  16  16  16  16
#     4  10  19  36  60  86 115 148 186 232 285 343
#     4   9  16  27  45  76 117 153 182 224 278 334
#     4   9  17  29  52  80 111 148 181 222 279 336
#     4  12  27  42  58  80 112 153 193 240 288 348
#     4   9  17  28  46  76 114 148 184 228 280 335
#     4  10  20  36  58  85 113 147 189 236 287 338
#
# _framework density 22.416810999999999
#
# number of rings (size 3 to 8) (size 9 to 14) (size 15 to 20)
#    0.000    2.167    1.667    2.000    2.333    5.333 
#    0.000    0.000    0.000    0.000    0.000    5.833 
#    0.000    0.000    0.000    0.000    0.000    0.000 
#
# Total GULP energy -268182.131594 kJ/mol
# GULP energy per Si atom -5587.127742 kJ/mol
# Density = 2.236579 g / cm^3
# Si number density = 22.416811 Si / 1000 Ang^3
#
#
#
# Elastic Constant Matrix: (Units=GPa)
#
#
# Indices 1 2 3 4 5 6 
#
# 1 16.4163 -1.2375 18.8333 0.0000 0.0000 0.0000
# 2 -1.2375 63.3140 30.3435 0.0000 0.0000 0.0000
# 3 18.8333 30.3435 131.4110 0.0000 0.0000 0.0000
# 4 0.0000 0.0000 0.0000 36.6687 0.0000 0.0000
# 5 0.0000 0.0000 0.0000 0.0000 12.6519 0.0000
# 6 0.0000 0.0000 0.0000 0.0000 0.0000 -0.1928
#
#
#
# Elastic Compliance Matrix: (Units=1/GPa)
#
#
# Indices 1 2 3 4 5 6 
#
# 1 0.075971 0.007537 -0.012628 0.000000 0.000000 0.000000
# 2 0.007537 0.018507 -0.005354 0.000000 0.000000 0.000000
# 3 -0.012628 -0.005354 0.010656 0.000000 0.000000 0.000000
# 4 0.000000 0.000000 0.000000 0.027271 0.000000 0.000000
# 5 0.000000 0.000000 0.000000 0.000000 0.079039 0.000000
# 6 0.000000 0.000000 0.000000 0.000000 0.000000 -5.186063
#
#
# Mechanical properties :
#
#
# Convention : Reuss Voigt Hill
#
# Bulk Modulus (GPa) = 11.87025 34.11332 22.99179
# Shear Modulus (GPa) = -1.01509 20.70569 9.84530
#
# Velocity S-wave (km/s) = -0.67365 3.04249 2.09797
# Velocity P-wave (km/s) = 2.16833 5.25291 4.01838
#
# Compressibility (1/GPa) = 0.08424425
#
# Stress axis : x y z
#
# Youngs Moduli (GPa) = 13.16295 54.03255 93.84648
#
# Poissons Ratio (x) = -0.40724 1.18511
# Poissons Ratio (y) = -0.09921 0.50242
# Poissons Ratio (z) = 0.16622 0.28927
#
# Static dielectric constant tensor:
#      x y z
#    x 1.877870 0.000000 0.000000 
#    y 0.000000 1.798580 0.000000 
#    z 0.000000 0.000000 1.785130 
# 
# From -- ./inp_files/8442.got.cif
#   From: 2010.05.17/outbox.cif.g08.bks.cpg/sg64_5_cif.got.tgz:8442.got - 2010.06.03 16:29:19.
