data_PCOD9478925
_publ_section_title
;
Structure prediction by ZEFSAII (Michael W. Deem and Ramdas Pophale) SiO2 
 PCOD9478925
Probable space group: C M C A
;
_chemical_formula_sum "Si O2"
_cell_formula_units_Z 80
_cell_length_a 8.904328
_cell_length_b 26.169425
_cell_length_c 18.559601
_cell_angle_alpha 90.000000
_cell_angle_beta 90.000000
_cell_angle_gamma 90.000000
_cell_volume 4324.779453
_symmetry_space_group_name_H-M "C M C A"
_symmetry_group_IT_number 64
_symmetry_cell_setting 'orthorhombic'
loop_
_space_group_symop_operation_xyz
x,y,z
-x,1/2-y,1/2+z
x,-y,-z
-x,1/2+y,1/2-z
-x,-y,-z
x,1/2+y,1/2-z
-x,y,z
x,1/2-y,1/2+z
1/2+x,1/2+y,z
1/2-x,-y,1/2+z
1/2+x,1/2-y,-z
1/2-x,y,1/2-z
1/2-x,1/2-y,-z
1/2+x,y,1/2-z
1/2-x,1/2+y,z
1/2+x,-y,1/2+z
loop_
_atom_site_type_symbol
_atom_site_label
_atom_site_fract_x
_atom_site_fract_y
_atom_site_fract_z
Si Si1 0.820137 0.901181 0.829211
Si Si2 0.320981 0.807930 0.916483
Si Si3 0.679840 0.800559 0.085377
Si Si4 0.679953 0.597492 0.671119
Si Si5 0.680518 0.004330 0.583842
O O1 0.750000 0.904130 0.750000
O O2 0.757605 0.852028 0.871050
O O3 0.781721 0.952202 0.874164
O O4 0.000000 0.897937 0.824010
O O5 0.500000 0.811167 0.907817
O O6 0.262896 0.751775 0.894955
O O7 0.285145 0.813308 0.001765
O O8 0.500000 0.792434 0.089873
O O9 0.721159 0.848252 0.135158
O O10 0.500000 0.594768 0.675447
O O11 0.750000 0.592902 0.750000
O O12 0.740301 0.551911 0.621520
O O13 0.500000 0.011333 0.587792
O O14 0.722415 0.000000 0.500000
#
# Coordination Sequence:
#
# PCOD9478925 Si02
#       5
#    16  16  16  16  16
#     4  11  23  38  57  82 115 151 186 230 282 337
#     4  10  20  36  60  86 112 147 191 237 283 333
#     4   9  20  38  58  83 115 151 191 233 281 337
#     4  11  23  38  58  84 116 152 189 233 283 336
#     4  10  22  40  62  87 114 147 188 233 283 339
#
# _framework density 18.498052999999999
#
# number of rings (size 3 to 8) (size 9 to 14) (size 15 to 20)
#    0.000    1.800    0.000    3.600    0.000    6.800 
#    0.000    2.000    0.000    0.000    0.000    0.000 
#    0.000    0.000    0.000    0.000    0.000    0.000 
#
# Total GULP energy -223594.952991 kJ/mol
# GULP energy per Si atom -5589.873825 kJ/mol
# Density = 1.845595 g / cm^3
# Si number density = 18.498053 Si / 1000 Ang^3
#
#
#
# Elastic Constant Matrix: (Units=GPa)
#
#
# Indices 1 2 3 4 5 6 
#
# 1 43.2819 53.1617 43.3481 0.0000 0.0000 0.0000
# 2 53.1617 126.9555 68.2607 0.0000 0.0000 0.0000
# 3 43.3481 68.2607 104.9068 0.0000 0.0000 0.0000
# 4 0.0000 0.0000 0.0000 -74.8195 0.0000 0.0000
# 5 0.0000 0.0000 0.0000 0.0000 27.0344 0.0000
# 6 0.0000 0.0000 0.0000 0.0000 0.0000 32.4406
#
#
#
# Elastic Compliance Matrix: (Units=1/GPa)
#
#
# Indices 1 2 3 4 5 6 
#
# 1 0.056102 -0.016962 -0.012144 0.000000 0.000000 0.000000
# 2 -0.016962 0.017244 -0.004211 0.000000 0.000000 0.000000
# 3 -0.012144 -0.004211 0.017291 0.000000 0.000000 0.000000
# 4 0.000000 0.000000 0.000000 -0.013365 0.000000 0.000000
# 5 0.000000 0.000000 0.000000 0.000000 0.036990 0.000000
# 6 0.000000 0.000000 0.000000 0.000000 0.000000 0.030826
#
#
# Mechanical properties :
#
#
# Convention : Reuss Voigt Hill
#
# Bulk Modulus (GPa) = 41.66673 67.18725 54.42699
# Shear Modulus (GPa) = 22.75592 4.28935 13.52263
#
# Velocity S-wave (km/s) = 3.51120 1.52442 2.70669
# Velocity P-wave (km/s) = 6.24594 6.28479 6.26540
#
# Compressibility (1/GPa) = 0.02399996
#
# Stress axis : x y z
#
# Youngs Moduli (GPa) = 17.82472 57.99114 57.83467
#
# Poissons Ratio (x) = 0.98367 0.70237
# Poissons Ratio (y) = 0.30235 0.24356
# Poissons Ratio (z) = 0.21647 0.24422
#
# Static dielectric constant tensor:
#      x y z
#    x 1.614270 0.000000 0.000000 
#    y 0.000000 1.601190 0.000000 
#    z 0.000000 0.000000 1.633510 
# 
# From -- ./inp_files/29730.got.cif
#   From: 2010.05.17/outbox.cif.g08.bks.cpg/sg64_15_cif.got.tgz:29730.got - 2010.06.03 16:29:19.
