data_PCOD9478100
_publ_section_title
;
Structure prediction by ZEFSAII (Michael W. Deem and Ramdas Pophale) SiO2 
 PCOD9478100
Probable space group: C M C A
;
_chemical_formula_sum "Si O2"
_cell_formula_units_Z 88
_cell_length_a 24.689084
_cell_length_b 15.261181
_cell_length_c 11.718332
_cell_angle_alpha 90.000000
_cell_angle_beta 90.000000
_cell_angle_gamma 90.000000
_cell_volume 4415.286797
_symmetry_space_group_name_H-M "C M C A"
_symmetry_group_IT_number 64
_symmetry_cell_setting 'orthorhombic'
loop_
_space_group_symop_operation_xyz
x,y,z
-x,1/2-y,1/2+z
x,-y,-z
-x,1/2+y,1/2-z
-x,-y,-z
x,1/2+y,1/2-z
-x,y,z
x,1/2-y,1/2+z
1/2+x,1/2+y,z
1/2-x,-y,1/2+z
1/2+x,1/2-y,-z
1/2-x,y,1/2-z
1/2-x,1/2-y,-z
1/2+x,y,1/2-z
1/2-x,1/2+y,z
1/2+x,-y,1/2+z
loop_
_atom_site_type_symbol
_atom_site_label
_atom_site_fract_x
_atom_site_fract_y
_atom_site_fract_z
Si Si1 0.709121 0.254382 0.649894
Si Si2 0.500000 0.638695 0.721509
Si Si3 0.777827 0.899133 0.961329
Si Si4 0.913065 0.266531 0.364220
Si Si5 0.000000 0.133870 0.452538
Si Si6 0.600749 0.592382 0.065237
Si Si7 0.500000 0.052863 0.282070
O O1 0.750000 0.231417 0.750000
O O2 0.730188 0.349132 0.605681
O O3 0.713681 0.172117 0.562685
O O4 0.646102 0.259095 0.678234
O O5 0.552243 0.693093 0.761302
O O6 0.500000 0.620703 0.587297
O O7 0.500000 0.551316 0.798614
O O8 0.836189 0.901128 0.896742
O O9 0.766735 0.000000 0.000000
O O10 0.946928 0.188607 0.419102
O O11 0.908740 0.335383 0.468162
O O12 0.000000 0.061146 0.354504
O O13 0.553762 0.593725 0.160316
O O14 0.596101 0.500000 0.000000
#
# Coordination Sequence:
#
# PCOD9478100 Si02
#       7
#    16   8  16  16   8  16   8
#     4  10  22  40  66  94 128 168 220 267 324 385
#     4  11  23  42  59  92 136 162 213 265 320 392
#     4   9  21  40  63  95 129 167 213 274 323 389
#     4  10  23  40  63  93 122 171 209 264 320 376
#     4  11  27  38  58  92 132 169 200 260 336 387
#     4  10  19  37  65  93 122 160 220 264 311 379
#     4  12  22  37  65  95 125 171 212 267 322 388
#
# _framework density 19.930755000000001
#
# number of rings (size 3 to 8) (size 9 to 14) (size 15 to 20)
#    0.000    1.818    1.818    1.636    7.636    3.636 
#    0.000    3.636    0.000    0.000    0.000    0.000 
#    0.000    0.000    0.000    0.000    0.000    0.000 
#
# Total GULP energy -245336.119076 kJ/mol
# GULP energy per Si atom -5575.820888 kJ/mol
# Density = 1.988539 g / cm^3
# Si number density = 19.930755 Si / 1000 Ang^3
#
#
#
# Elastic Constant Matrix: (Units=GPa)
#
#
# Indices 1 2 3 4 5 6 
#
# 1 197.2683 59.5199 67.5522 0.0000 0.0000 0.0000
# 2 59.5199 113.4724 27.5870 0.0000 0.0000 0.0000
# 3 67.5522 27.5870 93.5880 0.0000 0.0000 0.0000
# 4 0.0000 0.0000 0.0000 15.7934 0.0000 0.0000
# 5 0.0000 0.0000 0.0000 0.0000 23.9731 0.0000
# 6 0.0000 0.0000 0.0000 0.0000 0.0000 9.0235
#
#
#
# Elastic Compliance Matrix: (Units=1/GPa)
#
#
# Indices 1 2 3 4 5 6 
#
# 1 0.007484 -0.002814 -0.004573 0.000000 0.000000 0.000000
# 2 -0.002814 0.010551 -0.001079 0.000000 0.000000 0.000000
# 3 -0.004573 -0.001079 0.014304 0.000000 0.000000 0.000000
# 4 0.000000 0.000000 0.000000 0.063317 0.000000 0.000000
# 5 0.000000 0.000000 0.000000 0.000000 0.041713 0.000000
# 6 0.000000 0.000000 0.000000 0.000000 0.000000 0.110821
#
#
# Mechanical properties :
#
#
# Convention : Reuss Voigt Hill
#
# Bulk Modulus (GPa) = 64.90243 79.29409 72.09826
# Shear Modulus (GPa) = 18.50084 26.40266 22.45175
#
# Velocity S-wave (km/s) = 3.05003 3.64362 3.35996
# Velocity P-wave (km/s) = 6.71106 7.58765 7.16278
#
# Compressibility (1/GPa) = 0.01540774
#
# Stress axis : x y z
#
# Youngs Moduli (GPa) = 133.61668 94.77723 69.91202
#
# Poissons Ratio (x) = 0.26670 0.31968
# Poissons Ratio (y) = 0.37599 0.07543
# Poissons Ratio (z) = 0.61097 0.10226
#
# Static dielectric constant tensor:
#      x y z
#    x 1.706230 0.000000 0.000000 
#    y 0.000000 1.742010 0.000000 
#    z 0.000000 0.000000 1.731850 
# 
# From -- ./inp_files/18267.got.cif
#   From: 2010.05.17/outbox.cif.g08.bks.cpg/sg64_10_cif.got.tgz:18267.got - 2010.06.03 16:29:19.
