data_PCOD9478411
_publ_section_title
;
Structure prediction by ZEFSAII (Michael W. Deem and Ramdas Pophale) SiO2 
 PCOD9478411
Probable space group: C M C A
;
_chemical_formula_sum "Si O2"
_cell_formula_units_Z 72
_cell_length_a 15.366302
_cell_length_b 8.716202
_cell_length_c 24.954323
_cell_angle_alpha 90.000000
_cell_angle_beta 90.000000
_cell_angle_gamma 90.000000
_cell_volume 3342.277020
_symmetry_space_group_name_H-M "C M C A"
_symmetry_group_IT_number 64
_symmetry_cell_setting 'orthorhombic'
loop_
_space_group_symop_operation_xyz
x,y,z
-x,1/2-y,1/2+z
x,-y,-z
-x,1/2+y,1/2-z
-x,-y,-z
x,1/2+y,1/2-z
-x,y,z
x,1/2-y,1/2+z
1/2+x,1/2+y,z
1/2-x,-y,1/2+z
1/2+x,1/2-y,-z
1/2-x,y,1/2-z
1/2-x,1/2-y,-z
1/2+x,y,1/2-z
1/2-x,1/2+y,z
1/2+x,-y,1/2+z
loop_
_atom_site_type_symbol
_atom_site_label
_atom_site_fract_x
_atom_site_fract_y
_atom_site_fract_z
Si Si1 0.789110 0.876413 0.460563
Si Si2 0.000000 0.091876 0.180230
Si Si3 0.000000 0.956445 0.301689
Si Si4 0.750000 0.318793 0.250000
Si Si5 0.669818 0.893503 0.606977
Si Si6 0.324314 0.915291 0.817357
O O1 0.750000 0.750000 0.500000
O O2 0.848470 0.768707 0.422785
O O3 0.833577 0.000000 0.500000
O O4 0.710293 0.969304 0.430208
O O5 0.000000 0.002339 0.237705
O O6 0.087955 0.060381 0.144603
O O7 0.000000 0.273961 0.192474
O O8 0.080946 0.034598 0.331026
O O9 0.719589 0.430515 0.295832
O O10 0.674014 0.207575 0.230616
O O11 0.756799 0.852681 0.640448
#
# Coordination Sequence:
#
# PCOD9478411 Si02
#       6
#    16   8   8   8  16  16
#     4   9  20  41  67  90 115 152 197 260 327 378
#     4  12  26  40  60  92 131 173 213 255 298 362
#     4  12  24  38  56  88 133 175 216 255 297 344
#     4  10  20  34  52  78 116 160 208 248 300 344
#     4  11  22  40  64  91 123 163 213 256 311 379
#     4  11  21  36  57  82 118 167 208 253 296 357
#
# _framework density 21.542200000000001
#
# number of rings (size 3 to 8) (size 9 to 14) (size 15 to 20)
#    0.000    1.333    0.000    8.000    0.000    1.778 
#    0.000    5.556    0.000    5.333    0.000    0.000 
#    0.000    0.000    0.000    0.000    0.000    0.000 
#
# Total GULP energy -200695.477425 kJ/mol
# GULP energy per Si atom -5574.874373 kJ/mol
# Density = 2.149317 g / cm^3
# Si number density = 21.542200 Si / 1000 Ang^3
#
#
#
# Elastic Constant Matrix: (Units=GPa)
#
#
# Indices 1 2 3 4 5 6 
#
# 1 91.0123 -1.5606 15.0838 0.0000 0.0000 0.0000
# 2 -1.5606 108.5878 20.8809 0.0000 0.0000 0.0000
# 3 15.0838 20.8809 66.0822 0.0000 0.0000 0.0000
# 4 0.0000 0.0000 0.0000 58.8802 0.0000 0.0000
# 5 0.0000 0.0000 0.0000 0.0000 -28.7303 0.0000
# 6 0.0000 0.0000 0.0000 0.0000 0.0000 14.5305
#
#
#
# Elastic Compliance Matrix: (Units=1/GPa)
#
#
# Indices 1 2 3 4 5 6 
#
# 1 0.011471 0.000712 -0.002843 0.000000 0.000000 0.000000
# 2 0.000712 0.009849 -0.003275 0.000000 0.000000 0.000000
# 3 -0.002843 -0.003275 0.016816 0.000000 0.000000 0.000000
# 4 0.000000 0.000000 0.000000 0.016984 0.000000 0.000000
# 5 0.000000 0.000000 0.000000 0.000000 -0.034807 0.000000
# 6 0.000000 0.000000 0.000000 0.000000 0.000000 0.068821
#
#
# Mechanical properties :
#
#
# Convention : Reuss Voigt Hill
#
# Bulk Modulus (GPa) = 36.59785 37.16562 36.88173
# Shear Modulus (GPa) = 45.84867 24.35464 35.10165
#
# Velocity S-wave (km/s) = 4.61838 3.36602 4.04101
# Velocity P-wave (km/s) = 6.74277 5.69181 6.23946
#
# Compressibility (1/GPa) = 0.02732401
#
# Stress axis : x y z
#
# Youngs Moduli (GPa) = 87.17679 101.53268 59.46591
#
# Poissons Ratio (x) = -0.07225 0.16907
# Poissons Ratio (y) = -0.06203 0.19473
# Poissons Ratio (z) = 0.24786 0.33248
#
# Static dielectric constant tensor:
#      x y z
#    x 2.086530 0.000000 0.000000 
#    y 0.000000 1.810140 0.000000 
#    z 0.000000 0.000000 1.985940 
# 
# From -- ./inp_files/49841.got.cif
#   From: 2010.05.17/outbox.cif.g08.bks.cpg/sg64_25_cif.got.tgz:49841.got - 2010.06.03 16:29:19.
