data_PCOD9478602
_publ_section_title
;
Structure prediction by ZEFSAII (Michael W. Deem and Ramdas Pophale) SiO2 
 PCOD9478602
Probable space group: C M C A
;
_chemical_formula_sum "Si O2"
_cell_formula_units_Z 96
_cell_length_a 14.727795
_cell_length_b 18.169117
_cell_length_c 16.164888
_cell_angle_alpha 90.000000
_cell_angle_beta 90.000000
_cell_angle_gamma 90.000000
_cell_volume 4325.579038
_symmetry_space_group_name_H-M "C M C A"
_symmetry_group_IT_number 64
_symmetry_cell_setting 'orthorhombic'
loop_
_space_group_symop_operation_xyz
x,y,z
-x,1/2-y,1/2+z
x,-y,-z
-x,1/2+y,1/2-z
-x,-y,-z
x,1/2+y,1/2-z
-x,y,z
x,1/2-y,1/2+z
1/2+x,1/2+y,z
1/2-x,-y,1/2+z
1/2+x,1/2-y,-z
1/2-x,y,1/2-z
1/2-x,1/2-y,-z
1/2+x,y,1/2-z
1/2-x,1/2+y,z
1/2+x,-y,1/2+z
loop_
_atom_site_type_symbol
_atom_site_label
_atom_site_fract_x
_atom_site_fract_y
_atom_site_fract_z
Si Si1 0.139939 0.536545 0.253594
Si Si2 0.103646 0.704476 0.933394
Si Si3 0.894750 0.303409 0.712461
Si Si4 0.689907 0.401076 0.166828
Si Si5 0.361479 0.036112 0.912245
Si Si6 0.889483 0.748740 0.111942
O O1 0.250000 0.542348 0.250000
O O2 0.107142 0.609258 0.298574
O O3 0.118830 0.461008 0.300799
O O4 0.108681 0.520072 0.159891
O O5 0.146881 0.754285 0.860923
O O6 0.100580 0.619070 0.908266
O O7 0.000000 0.731138 0.941076
O O8 0.143588 0.714621 0.025191
O O9 0.856406 0.291702 0.804612
O O10 0.000000 0.279050 0.717494
O O11 0.750000 0.381373 0.250000
O O12 0.755946 0.445027 0.104998
O O13 0.645738 0.331429 0.124275
O O14 0.379185 0.000000 0.000000
O O15 0.000000 0.745888 0.111839
#
# Coordination Sequence:
#
# PCOD9478602 Si02
#       6
#    16  16  16  16  16  16
#     4   9  20  35  52  76 107 141 179 224 273 328
#     4  10  22  37  55  84 114 142 186 233 271 326
#     4  10  20  35  55  80 110 143 183 227 271 323
#     4   9  20  37  54  78 110 143 185 229 272 329
#     4  10  20  35  55  80 108 141 182 229 278 326
#     4  10  21  37  57  81 111 147 184 226 277 330
#
# _framework density 22.193559
#
# number of rings (size 3 to 8) (size 9 to 14) (size 15 to 20)
#    0.000    2.667    0.000    3.000    0.000    7.000 
#    0.000    0.000    0.000    3.500    0.000    0.000 
#    0.000    0.000    0.000    0.000    0.000    0.000 
#
# Total GULP energy -267699.091317 kJ/mol
# GULP energy per Si atom -5577.064402 kJ/mol
# Density = 2.214305 g / cm^3
# Si number density = 22.193559 Si / 1000 Ang^3
#
#
#
# Elastic Constant Matrix: (Units=GPa)
#
#
# Indices 1 2 3 4 5 6 
#
# 1 32.4475 -14.0170 12.5725 0.0000 0.0000 0.0000
# 2 -14.0170 97.1479 54.0823 0.0000 0.0000 0.0000
# 3 12.5725 54.0823 135.8647 0.0000 0.0000 0.0000
# 4 0.0000 0.0000 0.0000 43.3035 0.0000 0.0000
# 5 0.0000 0.0000 0.0000 0.0000 2.6504 0.0000
# 6 0.0000 0.0000 0.0000 0.0000 0.0000 51.5568
#
#
#
# Elastic Compliance Matrix: (Units=1/GPa)
#
#
# Indices 1 2 3 4 5 6 
#
# 1 0.037737 0.009492 -0.007271 0.000000 0.000000 0.000000
# 2 0.009492 0.015612 -0.007093 0.000000 0.000000 0.000000
# 3 -0.007271 -0.007093 0.010856 0.000000 0.000000 0.000000
# 4 0.000000 0.000000 0.000000 0.023093 0.000000 0.000000
# 5 0.000000 0.000000 0.000000 0.000000 0.377307 0.000000
# 6 0.000000 0.000000 0.000000 0.000000 0.000000 0.019396
#
#
# Mechanical properties :
#
#
# Convention : Reuss Voigt Hill
#
# Bulk Modulus (GPa) = 18.36114 41.19287 29.77701
# Shear Modulus (GPa) = 9.76759 33.69028 21.72893
#
# Velocity S-wave (km/s) = 2.10015 3.90040 3.13240
# Velocity P-wave (km/s) = 3.76457 6.23580 5.15059
#
# Compressibility (1/GPa) = 0.05446284
#
# Stress axis : x y z
#
# Youngs Moduli (GPa) = 26.49939 64.05434 92.11136
#
# Poissons Ratio (x) = -0.60803 0.66970
# Poissons Ratio (y) = -0.25154 0.65333
# Poissons Ratio (z) = 0.19267 0.45432
#
# Static dielectric constant tensor:
#      x y z
#    x 1.881140 0.000000 0.000000 
#    y 0.000000 1.806140 0.000000 
#    z 0.000000 0.000000 1.861460 
# 
# From -- ./inp_files/33251.got.cif
#   From: 2010.05.17/outbox.cif.g08.bks.cpg/sg64_17_cif.got.tgz:33251.got - 2010.06.03 16:29:19.
