data_PCOD9478138
_publ_section_title
;
Structure prediction by ZEFSAII (Michael W. Deem and Ramdas Pophale) SiO2 
 PCOD9478138
Probable space group: C M C A
;
_chemical_formula_sum "Si O2"
_cell_formula_units_Z 32
_cell_length_a 15.247154
_cell_length_b 16.953434
_cell_length_c 5.103255
_cell_angle_alpha 90.000000
_cell_angle_beta 90.000000
_cell_angle_gamma 90.000000
_cell_volume 1319.148647
_symmetry_space_group_name_H-M "C M C A"
_symmetry_group_IT_number 64
_symmetry_cell_setting 'orthorhombic'
loop_
_space_group_symop_operation_xyz
x,y,z
-x,1/2-y,1/2+z
x,-y,-z
-x,1/2+y,1/2-z
-x,-y,-z
x,1/2+y,1/2-z
-x,y,z
x,1/2-y,1/2+z
1/2+x,1/2+y,z
1/2-x,-y,1/2+z
1/2+x,1/2-y,-z
1/2-x,y,1/2-z
1/2-x,1/2-y,-z
1/2+x,y,1/2-z
1/2-x,1/2+y,z
1/2+x,-y,1/2+z
loop_
_atom_site_type_symbol
_atom_site_label
_atom_site_fract_x
_atom_site_fract_y
_atom_site_fract_z
Si Si1 0.250000 0.193897 0.750000
Si Si2 0.400554 0.587858 0.556456
Si Si3 0.000000 0.805842 0.788259
O O1 0.250000 0.250000 0.500000
O O2 0.334289 0.137785 0.773132
O O3 0.368376 0.500000 0.500000
O O4 0.500000 0.579899 0.670316
O O5 0.418529 0.638070 0.290374
O O6 0.000000 0.738088 0.562184
#
# Coordination Sequence:
#
# PCOD9478138 Si02
#       3
#     8  16   8
#     4  12  26  44  72 106 142 192 242 304 366 436
#     4   9  22  45  70 102 142 187 238 297 364 432
#     4  10  19  38  65  94 130 170 224 282 340 414
#
# _framework density 24.258071999999999
#
# number of rings (size 3 to 8) (size 9 to 14) (size 15 to 20)
#    1.500    0.500    0.000    3.000    0.000    2.000 
#    0.000   10.000    0.000    0.000    0.000    0.000 
#    0.000    0.000    0.000    0.000    0.000    0.000 
#
# Total GULP energy -89514.068492 kJ/mol
# GULP energy per Si atom -5594.629281 kJ/mol
# Density = 2.420286 g / cm^3
# Si number density = 24.258072 Si / 1000 Ang^3
#
#
#
# Elastic Constant Matrix: (Units=GPa)
#
#
# Indices 1 2 3 4 5 6 
#
# 1 128.4434 62.6256 48.3848 0.0000 0.0000 0.0000
# 2 62.6256 232.0094 79.9191 0.0000 0.0000 0.0000
# 3 48.3848 79.9191 127.1120 0.0000 0.0000 0.0000
# 4 0.0000 0.0000 0.0000 29.2790 0.0000 0.0000
# 5 0.0000 0.0000 0.0000 0.0000 25.2991 0.0000
# 6 0.0000 0.0000 0.0000 0.0000 0.0000 48.4412
#
#
#
# Elastic Compliance Matrix: (Units=1/GPa)
#
#
# Indices 1 2 3 4 5 6 
#
# 1 0.009586 -0.001698 -0.002581 0.000000 0.000000 0.000000
# 2 -0.001698 0.005803 -0.003002 0.000000 0.000000 0.000000
# 3 -0.002581 -0.003002 0.010737 0.000000 0.000000 0.000000
# 4 0.000000 0.000000 0.000000 0.034154 0.000000 0.000000
# 5 0.000000 0.000000 0.000000 0.000000 0.039527 0.000000
# 6 0.000000 0.000000 0.000000 0.000000 0.000000 0.020644
#
#
# Mechanical properties :
#
#
# Convention : Reuss Voigt Hill
#
# Bulk Modulus (GPa) = 86.48308 96.60265 91.54286
# Shear Modulus (GPa) = 36.00571 40.37956 38.19263
#
# Velocity S-wave (km/s) = 3.85681 4.08436 3.97221
# Velocity P-wave (km/s) = 7.45399 7.88365 7.67183
#
# Compressibility (1/GPa) = 0.01156296
#
# Stress axis : x y z
#
# Youngs Moduli (GPa) = 104.31987 172.33555 93.13734
#
# Poissons Ratio (x) = 0.29270 0.24039
# Poissons Ratio (y) = 0.17718 0.27958
# Poissons Ratio (z) = 0.26925 0.51731
#
# Static dielectric constant tensor:
#      x y z
#    x 2.005130 0.000000 0.000000 
#    y 0.000000 1.912960 0.000000 
#    z 0.000000 0.000000 1.949950 
# 
# From -- ./inp_files/465.got.cif
#   From: 2010.05.17/outbox.cif.g08.bks.cpg/sg64_1_cif.got.tgz:465.got - 2010.06.03 16:29:19.
