data_PCOD9478435
_publ_section_title
;
Structure prediction by ZEFSAII (Michael W. Deem and Ramdas Pophale) SiO2 
 PCOD9478435
Probable space group: C M C A
;
_chemical_formula_sum "Si O2"
_cell_formula_units_Z 96
_cell_length_a 21.538957
_cell_length_b 9.629273
_cell_length_c 25.252613
_cell_angle_alpha 90.000000
_cell_angle_beta 90.000000
_cell_angle_gamma 90.000000
_cell_volume 5237.505499
_symmetry_space_group_name_H-M "C M C A"
_symmetry_group_IT_number 64
_symmetry_cell_setting 'orthorhombic'
loop_
_space_group_symop_operation_xyz
x,y,z
-x,1/2-y,1/2+z
x,-y,-z
-x,1/2+y,1/2-z
-x,-y,-z
x,1/2+y,1/2-z
-x,y,z
x,1/2-y,1/2+z
1/2+x,1/2+y,z
1/2-x,-y,1/2+z
1/2+x,1/2-y,-z
1/2-x,y,1/2-z
1/2-x,1/2-y,-z
1/2+x,y,1/2-z
1/2-x,1/2+y,z
1/2+x,-y,1/2+z
loop_
_atom_site_type_symbol
_atom_site_label
_atom_site_fract_x
_atom_site_fract_y
_atom_site_fract_z
Si Si1 0.305237 0.971785 0.561868
Si Si2 0.000000 0.301292 0.692895
Si Si3 0.744040 0.270702 0.123076
Si Si4 0.386853 0.712489 0.323389
Si Si5 0.101608 0.010056 0.146890
Si Si6 0.311378 0.838005 0.719427
Si Si7 0.000000 0.531153 0.195970
O O1 0.276719 0.826884 0.580142
O O2 0.373827 0.984729 0.587301
O O3 0.303841 0.000000 0.500000
O O4 0.266261 0.084673 0.594688
O O5 0.941990 0.361465 0.660282
O O6 0.000000 0.387964 0.747682
O O7 0.000000 0.135755 0.700460
O O8 0.676137 0.212772 0.141309
O O9 0.787246 0.271665 0.175586
O O10 0.360890 0.711929 0.262955
O O11 0.436166 0.588389 0.330245
O O12 0.421073 0.857528 0.337159
O O13 0.160157 0.036619 0.185814
O O14 0.250000 0.884723 0.750000
#
# Coordination Sequence:
#
# PCOD9478435 Si02
#       7
#    16   8  16  16  16  16   8
#     4  10  20  37  58  83 111 145 186 235 284 329
#     4  12  24  38  53  77 111 148 191 227 265 325
#     4   9  20  34  54  83 112 144 181 225 276 331
#     4  10  20  34  53  80 114 149 183 217 271 325
#     4  10  21  35  54  79 110 146 188 230 268 327
#     4   9  18  30  50  79 114 145 176 217 268 328
#     4  12  24  36  56  79 112 154 184 217 270 325
#
# _framework density 18.329336999999999
#
# number of rings (size 3 to 8) (size 9 to 14) (size 15 to 20)
#    0.000    2.000    1.667    2.000    0.000    8.667 
#    0.000    0.417    0.000    0.000    0.000    5.250 
#    0.000    0.000    0.000    0.000    0.000    0.000 
#
# Total GULP energy -267621.450404 kJ/mol
# GULP energy per Si atom -5575.446883 kJ/mol
# Density = 1.828762 g / cm^3
# Si number density = 18.329337 Si / 1000 Ang^3
#
#
#
# Elastic Constant Matrix: (Units=GPa)
#
#
# Indices 1 2 3 4 5 6 
#
# 1 58.8325 24.7952 11.4992 0.0000 0.0000 0.0000
# 2 24.7952 108.1147 8.4358 0.0000 0.0000 0.0000
# 3 11.4992 8.4358 56.2472 0.0000 0.0000 0.0000
# 4 0.0000 0.0000 0.0000 14.4657 0.0000 0.0000
# 5 0.0000 0.0000 0.0000 0.0000 15.5529 0.0000
# 6 0.0000 0.0000 0.0000 0.0000 0.0000 32.0740
#
#
#
# Elastic Compliance Matrix: (Units=1/GPa)
#
#
# Indices 1 2 3 4 5 6 
#
# 1 0.019417 -0.004193 -0.003341 0.000000 0.000000 0.000000
# 2 -0.004193 0.010264 -0.000682 0.000000 0.000000 0.000000
# 3 -0.003341 -0.000682 0.018564 0.000000 0.000000 0.000000
# 4 0.000000 0.000000 0.000000 0.069129 0.000000 0.000000
# 5 0.000000 0.000000 0.000000 0.000000 0.064297 0.000000
# 6 0.000000 0.000000 0.000000 0.000000 0.000000 0.031178
#
#
# Mechanical properties :
#
#
# Convention : Reuss Voigt Hill
#
# Bulk Modulus (GPa) = 31.43257 34.73942 33.08600
# Shear Modulus (GPa) = 20.84327 24.31612 22.57970
#
# Velocity S-wave (km/s) = 3.37583 3.64624 3.51363
# Velocity P-wave (km/s) = 5.69043 6.05977 5.87800
#
# Compressibility (1/GPa) = 0.03181413
#
# Stress axis : x y z
#
# Youngs Moduli (GPa) = 51.50024 97.42607 53.86765
#
# Poissons Ratio (x) = 0.40846 0.17997
# Poissons Ratio (y) = 0.21592 0.03675
# Poissons Ratio (z) = 0.17206 0.06647
#
# Static dielectric constant tensor:
#      x y z
#    x 1.722840 0.000000 0.000000 
#    y 0.000000 1.637130 0.000000 
#    z 0.000000 0.000000 1.615540 
# 
# From -- ./inp_files/46640.got.cif
#   From: 2010.05.17/outbox.cif.g08.bks.cpg/sg64_24_cif.got.tgz:46640.got - 2010.06.03 16:29:19.
