data_PCOD9478469
_publ_section_title
;
Structure prediction by ZEFSAII (Michael W. Deem and Ramdas Pophale) SiO2 
 PCOD9478469
Probable space group: C M C A
;
_chemical_formula_sum "Si O2"
_cell_formula_units_Z 104
_cell_length_a 9.087501
_cell_length_b 27.613110
_cell_length_c 22.063839
_cell_angle_alpha 90.000000
_cell_angle_beta 90.000000
_cell_angle_gamma 90.000000
_cell_volume 5536.571010
_symmetry_space_group_name_H-M "C M C A"
_symmetry_group_IT_number 64
_symmetry_cell_setting 'orthorhombic'
loop_
_space_group_symop_operation_xyz
x,y,z
-x,1/2-y,1/2+z
x,-y,-z
-x,1/2+y,1/2-z
-x,-y,-z
x,1/2+y,1/2-z
-x,y,z
x,1/2-y,1/2+z
1/2+x,1/2+y,z
1/2-x,-y,1/2+z
1/2+x,1/2-y,-z
1/2-x,y,1/2-z
1/2-x,1/2-y,-z
1/2+x,y,1/2-z
1/2-x,1/2+y,z
1/2+x,-y,1/2+z
loop_
_atom_site_type_symbol
_atom_site_label
_atom_site_fract_x
_atom_site_fract_y
_atom_site_fract_z
Si Si1 0.174640 0.724304 0.593508
Si Si2 0.820909 0.154542 0.683410
Si Si3 0.835615 0.411285 0.580712
Si Si4 0.173930 0.678603 0.024818
Si Si5 0.176442 0.538073 0.186634
Si Si6 0.673039 0.556638 0.618345
Si Si7 0.732458 0.500000 0.000000
O O1 0.256303 0.702817 0.651958
O O2 0.190019 0.781288 0.578042
O O3 0.250171 0.699038 0.535492
O O4 0.000000 0.713604 0.596120
O O5 0.750000 0.147706 0.750000
O O6 0.772665 0.109511 0.639179
O O7 0.000000 0.156458 0.686944
O O8 0.756013 0.369947 0.542917
O O9 0.733381 0.424261 0.637175
O O10 0.845645 0.460131 0.541025
O O11 0.000000 0.396666 0.598796
O O12 0.000000 0.670978 0.013995
O O13 0.250000 0.548737 0.250000
O O14 0.229719 0.485180 0.163395
O O15 0.000000 0.538234 0.189781
O O16 0.500000 0.559703 0.628275
O O17 0.690691 0.534530 0.550750
#
# Coordination Sequence:
#
# PCOD9478469 Si02
#       7
#    16  16  16  16  16  16   8
#     4  10  21  38  60  85 113 145 183 230 284 341
#     4  11  22  37  57  84 118 156 198 241 291 348
#     4  11  22  36  55  81 113 147 184 226 274 326
#     4  10  21  38  60  86 114 145 184 230 283 340
#     4  10  20  36  55  76 105 142 183 224 268 321
#     4   9  19  33  53  81 113 150 188 230 279 333
#     4  10  20  34  54  84 119 152 189 234 281 334
#
# _framework density 18.784189999999999
#
# number of rings (size 3 to 8) (size 9 to 14) (size 15 to 20)
#    0.000    1.846    0.000    4.154    0.000    4.923 
#    0.000    8.462    0.000    3.692    0.000    0.000 
#    0.000    0.000    0.000    0.000    0.000    0.000 
#
# Total GULP energy -289856.217801 kJ/mol
# GULP energy per Si atom -5574.158035 kJ/mol
# Density = 1.874144 g / cm^3
# Si number density = 18.784190 Si / 1000 Ang^3
#
#
#
# Elastic Constant Matrix: (Units=GPa)
#
#
# Indices 1 2 3 4 5 6 
#
# 1 100.1821 41.2925 23.8464 0.0000 0.0000 0.0000
# 2 41.2925 73.8317 25.6716 0.0000 0.0000 0.0000
# 3 23.8464 25.6716 81.9574 0.0000 0.0000 0.0000
# 4 0.0000 0.0000 0.0000 -9.2425 0.0000 0.0000
# 5 0.0000 0.0000 0.0000 0.0000 -4.3987 0.0000
# 6 0.0000 0.0000 0.0000 0.0000 0.0000 9.4622
#
#
#
# Elastic Compliance Matrix: (Units=1/GPa)
#
#
# Indices 1 2 3 4 5 6 
#
# 1 0.013183 -0.006777 -0.001713 0.000000 0.000000 0.000000
# 2 -0.006777 0.018684 -0.003880 0.000000 0.000000 0.000000
# 3 -0.001713 -0.003880 0.013915 0.000000 0.000000 0.000000
# 4 0.000000 0.000000 0.000000 -0.108195 0.000000 0.000000
# 5 0.000000 0.000000 0.000000 0.000000 -0.227338 0.000000
# 6 0.000000 0.000000 0.000000 0.000000 0.000000 0.105684
#
#
# Mechanical properties :
#
#
# Convention : Reuss Voigt Hill
#
# Bulk Modulus (GPa) = 47.52642 48.62135 48.07389
# Shear Modulus (GPa) = -32.82749 10.17489 -11.32630
#
# Velocity S-wave (km/s) = -4.18498 2.32991 -2.45821
# Velocity P-wave (km/s) = 1.41567 5.76007 4.19419
#
# Compressibility (1/GPa) = 0.02104093
#
# Stress axis : x y z
#
# Youngs Moduli (GPa) = 75.85516 53.52164 71.86331
#
# Poissons Ratio (x) = 0.36274 0.12309
# Poissons Ratio (y) = 0.51410 0.27886
# Poissons Ratio (z) = 0.12993 0.20769
#
# Static dielectric constant tensor:
#      x y z
#    x 1.637060 0.000000 0.000000 
#    y 0.000000 1.677200 0.000000 
#    z 0.000000 0.000000 1.688850 
# 
# From -- ./inp_files/37263.got.cif
#   From: 2010.05.17/outbox.cif.g08.bks.cpg/sg64_19_cif.got.tgz:37263.got - 2010.06.03 16:29:19.
