data_PCOD9478931
_publ_section_title
;
Structure prediction by ZEFSAII (Michael W. Deem and Ramdas Pophale) SiO2 
 PCOD9478931
Probable space group: C M C A
;
_chemical_formula_sum "Si O2"
_cell_formula_units_Z 112
_cell_length_a 18.086095
_cell_length_b 23.701660
_cell_length_c 13.117616
_cell_angle_alpha 90.000000
_cell_angle_beta 90.000000
_cell_angle_gamma 90.000000
_cell_volume 5623.134674
_symmetry_space_group_name_H-M "C M C A"
_symmetry_group_IT_number 64
_symmetry_cell_setting 'orthorhombic'
loop_
_space_group_symop_operation_xyz
x,y,z
-x,1/2-y,1/2+z
x,-y,-z
-x,1/2+y,1/2-z
-x,-y,-z
x,1/2+y,1/2-z
-x,y,z
x,1/2-y,1/2+z
1/2+x,1/2+y,z
1/2-x,-y,1/2+z
1/2+x,1/2-y,-z
1/2-x,y,1/2-z
1/2-x,1/2-y,-z
1/2+x,y,1/2-z
1/2-x,1/2+y,z
1/2+x,-y,1/2+z
loop_
_atom_site_type_symbol
_atom_site_label
_atom_site_fract_x
_atom_site_fract_y
_atom_site_fract_z
Si Si1 0.587385 0.890344 0.763996
Si Si2 0.588785 0.495918 0.882009
Si Si3 0.915566 0.787463 0.890103
Si Si4 0.807742 0.305425 0.424381
Si Si5 0.831669 0.905063 0.233197
Si Si6 0.415094 0.833561 0.116078
Si Si7 0.170624 0.177020 0.426744
O O1 0.500000 0.899456 0.799116
O O2 0.585582 0.835169 0.693736
O O3 0.650804 0.872374 0.846480
O O4 0.608739 0.941939 0.688706
O O5 0.500000 0.495324 0.886525
O O6 0.617698 0.550661 0.824236
O O7 0.615516 0.500000 0.000000
O O8 0.889168 0.727853 0.844368
O O9 0.000000 0.778315 0.922098
O O10 0.869400 0.805517 0.987648
O O11 0.822781 0.349396 0.336043
O O12 0.809899 0.240087 0.385619
O O13 0.735021 0.326078 0.486924
O O14 0.750000 0.929085 0.250000
O O15 0.868601 0.884129 0.337293
O O16 0.500000 0.842681 0.143399
O O17 0.403160 0.824893 0.995871
#
# Coordination Sequence:
#
# PCOD9478931 Si02
#       7
#    16  16  16  16  16  16  16
#     4  10  20  38  62  88 119 158 209 262 309 364
#     4  10  23  45  68  87 114 157 212 268 314 365
#     4   9  19  35  58  91 120 152 200 250 301 366
#     4  10  21  36  59  87 127 162 197 248 313 373
#     4  12  23  40  58  88 124 162 204 253 304 373
#     4  10  20  36  60  88 122 160 197 244 305 368
#     4  10  20  37  58  92 124 161 198 245 311 379
#
# _framework density 19.917715000000001
#
# number of rings (size 3 to 8) (size 9 to 14) (size 15 to 20)
#    0.000    1.857    1.429    2.571    0.000    3.429 
#    5.143    0.714    0.000    2.571    0.000    0.000 
#    0.000    0.000    0.000    0.000    0.000    0.000 
#
# Total GULP energy -311822.501025 kJ/mol
# GULP energy per Si atom -5568.258947 kJ/mol
# Density = 1.987238 g / cm^3
# Si number density = 19.917715 Si / 1000 Ang^3
#
#
#
# Elastic Constant Matrix: (Units=GPa)
#
#
# Indices 1 2 3 4 5 6 
#
# 1 36.3522 11.2692 26.0967 0.0000 0.0000 0.0000
# 2 11.2692 93.2176 41.6297 0.0000 0.0000 0.0000
# 3 26.0967 41.6297 58.5530 0.0000 0.0000 0.0000
# 4 0.0000 0.0000 0.0000 73.8351 0.0000 0.0000
# 5 0.0000 0.0000 0.0000 0.0000 27.9195 0.0000
# 6 0.0000 0.0000 0.0000 0.0000 0.0000 44.1464
#
#
#
# Elastic Compliance Matrix: (Units=1/GPa)
#
#
# Indices 1 2 3 4 5 6 
#
# 1 0.041864 0.004794 -0.022067 0.000000 0.000000 0.000000
# 2 0.004794 0.016267 -0.013702 0.000000 0.000000 0.000000
# 3 -0.022067 -0.013702 0.036655 0.000000 0.000000 0.000000
# 4 0.000000 0.000000 0.000000 0.013544 0.000000 0.000000
# 5 0.000000 0.000000 0.000000 0.000000 0.035817 0.000000
# 6 0.000000 0.000000 0.000000 0.000000 0.000000 0.022652
#
#
# Mechanical properties :
#
#
# Convention : Reuss Voigt Hill
#
# Bulk Modulus (GPa) = 30.45407 38.45712 34.45559
# Shear Modulus (GPa) = 20.85984 36.45536 28.65760
#
# Velocity S-wave (km/s) = 3.23971 4.28284 3.79727
# Velocity P-wave (km/s) = 5.41456 6.61868 6.04667
#
# Compressibility (1/GPa) = 0.03283633
#
# Stress axis : x y z
#
# Youngs Moduli (GPa) = 23.88694 61.47314 27.28112
#
# Poissons Ratio (x) = -0.29468 0.60200
# Poissons Ratio (y) = -0.11451 0.37381
# Poissons Ratio (z) = 0.52711 0.84231
#
# Static dielectric constant tensor:
#      x y z
#    x 1.771490 0.000000 0.000000 
#    y 0.000000 1.716960 0.000000 
#    z 0.000000 0.000000 1.724870 
# 
# From -- ./inp_files/17524.got.cif
#   From: 2010.05.17/outbox.cif.g08.bks.cpg/sg64_9_cif.got.tgz:17524.got - 2010.06.03 16:29:19.
