data_PCOD9478443
_publ_section_title
;
Structure prediction by ZEFSAII (Michael W. Deem and Ramdas Pophale) SiO2 
 PCOD9478443
Probable space group: C M C A
;
_chemical_formula_sum "Si O2"
_cell_formula_units_Z 64
_cell_length_a 29.200018
_cell_length_b 5.130967
_cell_length_c 20.601328
_cell_angle_alpha 90.000000
_cell_angle_beta 90.000000
_cell_angle_gamma 90.000000
_cell_volume 3086.580139
_symmetry_space_group_name_H-M "C M C A"
_symmetry_group_IT_number 64
_symmetry_cell_setting 'orthorhombic'
loop_
_space_group_symop_operation_xyz
x,y,z
-x,1/2-y,1/2+z
x,-y,-z
-x,1/2+y,1/2-z
-x,-y,-z
x,1/2+y,1/2-z
-x,y,z
x,1/2-y,1/2+z
1/2+x,1/2+y,z
1/2-x,-y,1/2+z
1/2+x,1/2-y,-z
1/2-x,y,1/2-z
1/2-x,1/2-y,-z
1/2+x,y,1/2-z
1/2-x,1/2+y,z
1/2+x,-y,1/2+z
loop_
_atom_site_type_symbol
_atom_site_label
_atom_site_fract_x
_atom_site_fract_y
_atom_site_fract_z
Si Si1 0.217459 0.000000 0.500000
Si Si2 0.230040 0.279665 0.178269
Si Si3 0.595886 0.037967 0.578207
Si Si4 0.353828 0.537909 0.617594
Si Si5 0.000000 0.243978 0.952808
O O1 0.250000 0.250000 0.500000
O O2 0.182465 0.053927 0.559008
O O3 0.250000 0.232442 0.250000
O O4 0.262351 0.499053 0.146275
O O5 0.178289 0.379942 0.177579
O O6 0.629153 0.243173 0.612984
O O7 0.546831 0.184977 0.585443
O O8 0.603555 0.000000 0.500000
O O9 0.606016 0.750941 0.606709
O O10 0.000000 0.500000 0.000000
O O11 0.000000 0.000000 0.000000
#
# Coordination Sequence:
#
# PCOD9478443 Si02
#       5
#     8  16  16  16   8
#     4  12  22  32  46  69 108 147 182 220 278 318
#     4  10  21  38  56  75 105 143 188 242 283 326
#     4  11  20  35  51  79 112 148 187 230 274 346
#     4  12  21  34  53  77 110 145 193 233 273 333
#     4  10  20  34  54  76 110 156 190 224 284 333
#
# _framework density 20.734923999999999
#
# number of rings (size 3 to 8) (size 9 to 14) (size 15 to 20)
#    0.000    1.000    2.500    7.500    0.000    0.000 
#    0.000    0.000    0.000    0.000    0.000    0.000 
#    0.000   80.000    0.000    0.000    0.000    0.000 
#
# Total GULP energy -178295.435047 kJ/mol
# GULP energy per Si atom -5571.732345 kJ/mol
# Density = 2.068773 g / cm^3
# Si number density = 20.734924 Si / 1000 Ang^3
#
#
#
# Elastic Constant Matrix: (Units=GPa)
#
#
# Indices 1 2 3 4 5 6 
#
# 1 91.9123 19.4407 13.6563 0.0000 0.0000 0.0000
# 2 19.4407 150.4861 -4.9834 0.0000 0.0000 0.0000
# 3 13.6563 -4.9834 40.0012 0.0000 0.0000 0.0000
# 4 0.0000 0.0000 0.0000 16.0111 0.0000 0.0000
# 5 0.0000 0.0000 0.0000 0.0000 22.0566 0.0000
# 6 0.0000 0.0000 0.0000 0.0000 0.0000 43.0637
#
#
#
# Elastic Compliance Matrix: (Units=1/GPa)
#
#
# Indices 1 2 3 4 5 6 
#
# 1 0.011867 -0.001674 -0.004260 0.000000 0.000000 0.000000
# 2 -0.001674 0.006909 0.001432 0.000000 0.000000 0.000000
# 3 -0.004260 0.001432 0.026632 0.000000 0.000000 0.000000
# 4 0.000000 0.000000 0.000000 0.062457 0.000000 0.000000
# 5 0.000000 0.000000 0.000000 0.000000 0.045338 0.000000
# 6 0.000000 0.000000 0.000000 0.000000 0.000000 0.023221
#
#
# Mechanical properties :
#
#
# Convention : Reuss Voigt Hill
#
# Bulk Modulus (GPa) = 27.46933 37.62520 32.54726
# Shear Modulus (GPa) = 25.30850 33.17868 29.24359
#
# Velocity S-wave (km/s) = 3.49746 4.00451 3.75954
# Velocity P-wave (km/s) = 5.43933 6.29020 5.88018
#
# Compressibility (1/GPa) = 0.03640424
#
# Stress axis : x y z
#
# Youngs Moduli (GPa) = 84.26744 144.74223 37.54880
#
# Poissons Ratio (x) = 0.24232 0.15996
# Poissons Ratio (y) = 0.14107 -0.05378
# Poissons Ratio (z) = 0.35897 -0.20731
#
# Static dielectric constant tensor:
#      x y z
#    x 1.897930 0.000000 0.000000 
#    y 0.000000 1.832790 0.000000 
#    z 0.000000 0.000000 2.096840 
# 
# From -- ./inp_files/2211.got.cif
#   From: 2010.05.17/outbox.cif.g08.bks.cpg/sg64_2_cif.got.tgz:2211.got - 2010.06.03 16:29:19.
