data_PCOD9478784
_publ_section_title
;
Structure prediction by ZEFSAII (Michael W. Deem and Ramdas Pophale) SiO2 
 PCOD9478784
Probable space group: C M C A
;
_chemical_formula_sum "Si O2"
_cell_formula_units_Z 96
_cell_length_a 24.188856
_cell_length_b 8.757322
_cell_length_c 23.083872
_cell_angle_alpha 90.000000
_cell_angle_beta 90.000000
_cell_angle_gamma 90.000000
_cell_volume 4889.847391
_symmetry_space_group_name_H-M "C M C A"
_symmetry_group_IT_number 64
_symmetry_cell_setting 'orthorhombic'
loop_
_space_group_symop_operation_xyz
x,y,z
-x,1/2-y,1/2+z
x,-y,-z
-x,1/2+y,1/2-z
-x,-y,-z
x,1/2+y,1/2-z
-x,y,z
x,1/2-y,1/2+z
1/2+x,1/2+y,z
1/2-x,-y,1/2+z
1/2+x,1/2-y,-z
1/2-x,y,1/2-z
1/2-x,1/2-y,-z
1/2+x,y,1/2-z
1/2-x,1/2+y,z
1/2+x,-y,1/2+z
loop_
_atom_site_type_symbol
_atom_site_label
_atom_site_fract_x
_atom_site_fract_y
_atom_site_fract_z
Si Si1 0.115850 0.067969 0.834140
Si Si2 0.619784 0.596941 0.373901
Si Si3 0.284530 0.465616 0.436569
Si Si4 0.800471 0.333964 0.628240
Si Si5 0.692190 0.923895 0.223025
Si Si6 0.500000 0.379190 0.216581
Si Si7 0.000000 0.036245 0.334101
O O1 0.117588 0.220688 0.872042
O O2 0.153836 0.104034 0.778451
O O3 0.054412 0.046392 0.810751
O O4 0.142004 0.922526 0.865560
O O5 0.655906 0.543321 0.427926
O O6 0.655279 0.532084 0.318866
O O7 0.557520 0.534103 0.368950
O O8 0.262247 0.500000 0.500000
O O9 0.244499 0.537310 0.387293
O O10 0.293148 0.288658 0.422734
O O11 0.795274 0.229362 0.685815
O O12 0.750000 0.981578 0.250000
O O13 0.500000 0.407142 0.284991
O O14 0.500000 0.200226 0.199648
#
# Coordination Sequence:
#
# PCOD9478784 Si02
#       7
#    16  16  16  16  16   8   8
#     4  11  21  36  55  87 121 155 190 228 283 358
#     4  10  21  36  56  81 113 149 191 237 291 345
#     4  11  23  42  62  85 112 151 203 258 303 345
#     4  11  24  37  58  87 117 155 195 240 297 345
#     4  11  21  33  53  83 119 157 186 226 283 358
#     4  10  22  34  58  83 122 162 194 223 280 347
#     4  10  20  36  55  83 115 156 189 237 279 353
#
# _framework density 19.632515000000001
#
# number of rings (size 3 to 8) (size 9 to 14) (size 15 to 20)
#    0.000    1.333    1.667    5.500    2.333    2.667 
#    0.000    0.417    0.000    0.000    0.000    4.083 
#    0.000    0.000    0.000    0.000    0.000    0.000 
#
# Total GULP energy -268017.843801 kJ/mol
# GULP energy per Si atom -5583.705079 kJ/mol
# Density = 1.958783 g / cm^3
# Si number density = 19.632515 Si / 1000 Ang^3
#
#
#
# Elastic Constant Matrix: (Units=GPa)
#
#
# Indices 1 2 3 4 5 6 
#
# 1 126.8160 19.7195 14.2324 0.0000 0.0000 0.0000
# 2 19.7195 67.3465 10.5451 0.0000 0.0000 0.0000
# 3 14.2324 10.5451 33.0036 0.0000 0.0000 0.0000
# 4 0.0000 0.0000 0.0000 20.3539 0.0000 0.0000
# 5 0.0000 0.0000 0.0000 0.0000 16.2674 0.0000
# 6 0.0000 0.0000 0.0000 0.0000 0.0000 20.8809
#
#
#
# Elastic Compliance Matrix: (Units=1/GPa)
#
#
# Indices 1 2 3 4 5 6 
#
# 1 0.008541 -0.002026 -0.003036 0.000000 0.000000 0.000000
# 2 -0.002026 0.016111 -0.004274 0.000000 0.000000 0.000000
# 3 -0.003036 -0.004274 0.032975 0.000000 0.000000 0.000000
# 4 0.000000 0.000000 0.000000 0.049131 0.000000 0.000000
# 5 0.000000 0.000000 0.000000 0.000000 0.061473 0.000000
# 6 0.000000 0.000000 0.000000 0.000000 0.000000 0.047891
#
#
# Mechanical properties :
#
#
# Convention : Reuss Voigt Hill
#
# Bulk Modulus (GPa) = 25.67055 35.12889 30.39972
# Shear Modulus (GPa) = 20.17942 23.67839 21.92890
#
# Velocity S-wave (km/s) = 3.20950 3.47663 3.34573
# Velocity P-wave (km/s) = 5.18058 5.83507 5.51754
#
# Compressibility (1/GPa) = 0.03895515
#
# Stress axis : x y z
#
# Youngs Moduli (GPa) = 117.08044 62.06974 30.32637
#
# Poissons Ratio (x) = 0.12572 0.09207
# Poissons Ratio (y) = 0.23715 0.12962
# Poissons Ratio (z) = 0.35547 0.26530
#
# Static dielectric constant tensor:
#      x y z
#    x 1.696430 0.000000 0.000000 
#    y 0.000000 1.723380 0.000000 
#    z 0.000000 0.000000 1.685430 
# 
# From -- ./inp_files/46616.got.cif
#   From: 2010.05.17/outbox.cif.g08.bks.cpg/sg64_24_cif.got.tgz:46616.got - 2010.06.03 16:29:19.
