data_PCOD9478536
_publ_section_title
;
Structure prediction by ZEFSAII (Michael W. Deem and Ramdas Pophale) SiO2 
 PCOD9478536
Probable space group: C M C A
;
_chemical_formula_sum "Si O2"
_cell_formula_units_Z 88
_cell_length_a 21.919568
_cell_length_b 10.611985
_cell_length_c 16.545432
_cell_angle_alpha 90.000000
_cell_angle_beta 90.000000
_cell_angle_gamma 90.000000
_cell_volume 3848.635036
_symmetry_space_group_name_H-M "C M C A"
_symmetry_group_IT_number 64
_symmetry_cell_setting 'orthorhombic'
loop_
_space_group_symop_operation_xyz
x,y,z
-x,1/2-y,1/2+z
x,-y,-z
-x,1/2+y,1/2-z
-x,-y,-z
x,1/2+y,1/2-z
-x,y,z
x,1/2-y,1/2+z
1/2+x,1/2+y,z
1/2-x,-y,1/2+z
1/2+x,1/2-y,-z
1/2-x,y,1/2-z
1/2-x,1/2-y,-z
1/2+x,y,1/2-z
1/2-x,1/2+y,z
1/2+x,-y,1/2+z
loop_
_atom_site_type_symbol
_atom_site_label
_atom_site_fract_x
_atom_site_fract_y
_atom_site_fract_z
Si Si1 0.834481 0.754714 0.670159
Si Si2 0.694109 0.260953 0.359145
Si Si3 0.566222 0.545870 0.814004
Si Si4 0.500000 0.346930 0.463260
Si Si5 0.605237 0.509248 0.631695
Si Si6 0.404675 0.372481 0.949107
O O1 0.868203 0.869841 0.627057
O O2 0.766635 0.734608 0.637213
O O3 0.824972 0.780117 0.767061
O O4 0.877583 0.633755 0.660838
O O5 0.662469 0.396053 0.370663
O O6 0.662967 0.172985 0.426315
O O7 0.500000 0.606870 0.828308
O O8 0.574953 0.521788 0.719891
O O9 0.568189 0.415377 0.862309
O O10 0.553197 0.443644 0.427846
O O11 0.553487 0.239287 0.481614
O O12 0.407495 0.500000 0.000000
#
# Coordination Sequence:
#
# PCOD9478536 Si02
#       6
#    16  16  16   8  16  16
#     4  10  21  35  60  89 123 145 187 257 309 349
#     4   9  21  36  58  88 114 158 194 235 308 347
#     4  11  22  33  58  88 117 153 198 237 298 352
#     4  10  21  36  58  85 113 157 192 234 304 330
#     4  10  20  34  58  86 123 147 183 253 300 355
#     4  11  22  40  62  83 118 162 208 238 270 363
#
# _framework density 22.865248000000001
#
# number of rings (size 3 to 8) (size 9 to 14) (size 15 to 20)
#    0.000    1.818    3.636    0.273    3.818    1.455 
#    0.000    0.909    0.000    1.091    0.000    0.000 
#    0.000    0.000    0.000    0.000    0.000    0.000 
#
# Total GULP energy -245031.663318 kJ/mol
# GULP energy per Si atom -5568.901439 kJ/mol
# Density = 2.281321 g / cm^3
# Si number density = 22.865248 Si / 1000 Ang^3
#
#
#
# Elastic Constant Matrix: (Units=GPa)
#
#
# Indices 1 2 3 4 5 6 
#
# 1 210.5309 34.3279 29.0752 0.0000 0.0000 0.0000
# 2 34.3279 35.3691 27.6514 0.0000 0.0000 0.0000
# 3 29.0752 27.6514 59.9440 0.0000 0.0000 0.0000
# 4 0.0000 0.0000 0.0000 33.9215 0.0000 0.0000
# 5 0.0000 0.0000 0.0000 0.0000 13.1227 0.0000
# 6 0.0000 0.0000 0.0000 0.0000 0.0000 34.9647
#
#
#
# Elastic Compliance Matrix: (Units=1/GPa)
#
#
# Indices 1 2 3 4 5 6 
#
# 1 0.005647 -0.005223 -0.000330 0.000000 0.000000 0.000000
# 2 -0.005223 0.049052 -0.020094 0.000000 0.000000 0.000000
# 3 -0.000330 -0.020094 0.026111 0.000000 0.000000 0.000000
# 4 0.000000 0.000000 0.000000 0.029480 0.000000 0.000000
# 5 0.000000 0.000000 0.000000 0.000000 0.076204 0.000000
# 6 0.000000 0.000000 0.000000 0.000000 0.000000 0.028600
#
#
# Mechanical properties :
#
#
# Convention : Reuss Voigt Hill
#
# Bulk Modulus (GPa) = 33.87858 54.21699 44.04779
# Shear Modulus (GPa) = 18.10113 30.72107 24.41110
#
# Velocity S-wave (km/s) = 2.81667 3.66945 3.27097
# Velocity P-wave (km/s) = 5.04251 6.45881 5.79410
#
# Compressibility (1/GPa) = 0.02951717
#
# Stress axis : x y z
#
# Youngs Moduli (GPa) = 177.08295 20.38663 38.29787
#
# Poissons Ratio (x) = 0.10648 0.01263
# Poissons Ratio (y) = 0.92492 0.76954
# Poissons Ratio (z) = 0.05839 0.40964
#
# Static dielectric constant tensor:
#      x y z
#    x 2.129960 0.000000 0.000000 
#    y 0.000000 1.852410 0.000000 
#    z 0.000000 0.000000 1.957380 
# 
# From -- ./inp_files/34133.got.cif
#   From: 2010.05.17/outbox.cif.g08.bks.cpg/sg64_18_cif.got.tgz:34133.got - 2010.06.03 16:29:19.
