data_PCOD9478111
_publ_section_title
;
Structure prediction by ZEFSAII (Michael W. Deem and Ramdas Pophale) SiO2 
 PCOD9478111
Probable space group: C M C A
;
_chemical_formula_sum "Si O2"
_cell_formula_units_Z 104
_cell_length_a 15.367160
_cell_length_b 16.582901
_cell_length_c 21.544235
_cell_angle_alpha 90.000000
_cell_angle_beta 90.000000
_cell_angle_gamma 90.000000
_cell_volume 5490.162496
_symmetry_space_group_name_H-M "C M C A"
_symmetry_group_IT_number 64
_symmetry_cell_setting 'orthorhombic'
loop_
_space_group_symop_operation_xyz
x,y,z
-x,1/2-y,1/2+z
x,-y,-z
-x,1/2+y,1/2-z
-x,-y,-z
x,1/2+y,1/2-z
-x,y,z
x,1/2-y,1/2+z
1/2+x,1/2+y,z
1/2-x,-y,1/2+z
1/2+x,1/2-y,-z
1/2-x,y,1/2-z
1/2-x,1/2-y,-z
1/2+x,y,1/2-z
1/2-x,1/2+y,z
1/2+x,-y,1/2+z
loop_
_atom_site_type_symbol
_atom_site_label
_atom_site_fract_x
_atom_site_fract_y
_atom_site_fract_z
Si Si1 0.097867 0.941743 0.341317
Si Si2 0.902155 0.879956 0.894635
Si Si3 0.774388 0.116242 0.891753
Si Si4 0.159994 0.000000 0.000000
Si Si5 0.402374 0.068755 0.051742
Si Si6 0.232596 0.213058 0.432971
Si Si7 0.899457 0.980249 0.197928
O O1 0.174067 0.887862 0.370320
O O2 0.115692 0.968001 0.270743
O O3 0.000000 0.906508 0.344861
O O4 0.098002 0.021391 0.383520
O O5 0.822518 0.819462 0.904215
O O6 0.000000 0.845805 0.896478
O O7 0.890622 0.930136 0.830768
O O8 0.892704 0.944871 0.951196
O O9 0.802405 0.208938 0.896979
O O10 0.832423 0.073108 0.840242
O O11 0.789121 0.063212 0.954790
O O12 0.500000 0.099950 0.038744
O O13 0.333505 0.139629 0.057870
O O14 0.385127 0.000000 0.000000
O O15 0.250000 0.250000 0.500000
O O16 0.000000 0.956809 0.185089
#
# Coordination Sequence:
#
# PCOD9478111 Si02
#       7
#    16  16  16   8  16  16  16
#     4  10  21  39  64  87 114 157 209 250 292 360
#     4  10  21  37  60  86 116 156 200 250 302 350
#     4  11  22  36  60  87 123 157 195 244 306 355
#     4  10  19  38  59  82 116 152 201 250 283 356
#     4  10  22  40  63  87 116 158 204 250 303 358
#     4  12  24  36  55  89 127 156 194 250 303 363
#     4   9  20  40  64  88 112 154 210 254 295 355
#
# _framework density 18.942972999999999
#
# number of rings (size 3 to 8) (size 9 to 14) (size 15 to 20)
#    0.000    1.692    1.538    3.462    2.154    2.462 
#    0.000    3.077    0.000    3.692    0.000    0.000 
#    0.000    0.000    0.000    0.000    0.000    0.000 
#
# Total GULP energy -290119.064217 kJ/mol
# GULP energy per Si atom -5579.212773 kJ/mol
# Density = 1.889986 g / cm^3
# Si number density = 18.942973 Si / 1000 Ang^3
#
#
#
# Elastic Constant Matrix: (Units=GPa)
#
#
# Indices 1 2 3 4 5 6 
#
# 1 121.2210 65.3327 39.8427 0.0000 0.0000 0.0000
# 2 65.3327 91.3941 30.4747 0.0000 0.0000 0.0000
# 3 39.8427 30.4747 94.2572 0.0000 0.0000 0.0000
# 4 0.0000 0.0000 0.0000 11.4718 0.0000 0.0000
# 5 0.0000 0.0000 0.0000 0.0000 23.6575 0.0000
# 6 0.0000 0.0000 0.0000 0.0000 0.0000 0.1884
#
#
#
# Elastic Compliance Matrix: (Units=1/GPa)
#
#
# Indices 1 2 3 4 5 6 
#
# 1 0.014156 -0.009106 -0.003040 0.000000 0.000000 0.000000
# 2 -0.009106 0.018121 -0.002010 0.000000 0.000000 0.000000
# 3 -0.003040 -0.002010 0.012544 0.000000 0.000000 0.000000
# 4 0.000000 0.000000 0.000000 0.087171 0.000000 0.000000
# 5 0.000000 0.000000 0.000000 0.000000 0.042270 0.000000
# 6 0.000000 0.000000 0.000000 0.000000 0.000000 5.308952
#
#
# Mechanical properties :
#
#
# Convention : Reuss Voigt Hill
#
# Bulk Modulus (GPa) = 60.56781 64.24140 62.40460
# Shear Modulus (GPa) = 0.90628 18.47833 9.69231
#
# Velocity S-wave (km/s) = 0.69244 3.12664 2.26444
# Velocity P-wave (km/s) = 5.71686 6.85720 6.31283
#
# Compressibility (1/GPa) = 0.01651042
#
# Stress axis : x y z
#
# Youngs Moduli (GPa) = 70.64054 55.18439 79.71961
#
# Poissons Ratio (x) = 0.50250 0.24233
# Poissons Ratio (y) = 0.64325 0.16021
# Poissons Ratio (z) = 0.21473 0.11090
#
# Static dielectric constant tensor:
#      x y z
#    x 1.707000 0.000000 0.000000 
#    y 0.000000 1.657140 0.000000 
#    z 0.000000 0.000000 1.671140 
# 
# From -- ./inp_files/39441.got.cif
#   From: 2010.05.17/outbox.cif.g08.bks.cpg/sg64_20_cif.got.tgz:39441.got - 2010.06.03 16:29:19.
