data_PCOD9478581
_publ_section_title
;
Structure prediction by ZEFSAII (Michael W. Deem and Ramdas Pophale) SiO2 
 PCOD9478581
Probable space group: C M C A
;
_chemical_formula_sum "Si O2"
_cell_formula_units_Z 80
_cell_length_a 8.765862
_cell_length_b 28.070438
_cell_length_c 18.634342
_cell_angle_alpha 90.000000
_cell_angle_beta 90.000000
_cell_angle_gamma 90.000000
_cell_volume 4585.195743
_symmetry_space_group_name_H-M "C M C A"
_symmetry_group_IT_number 64
_symmetry_cell_setting 'orthorhombic'
loop_
_space_group_symop_operation_xyz
x,y,z
-x,1/2-y,1/2+z
x,-y,-z
-x,1/2+y,1/2-z
-x,-y,-z
x,1/2+y,1/2-z
-x,y,z
x,1/2-y,1/2+z
1/2+x,1/2+y,z
1/2-x,-y,1/2+z
1/2+x,1/2-y,-z
1/2-x,y,1/2-z
1/2-x,1/2-y,-z
1/2+x,y,1/2-z
1/2-x,1/2+y,z
1/2+x,-y,1/2+z
loop_
_atom_site_type_symbol
_atom_site_label
_atom_site_fract_x
_atom_site_fract_y
_atom_site_fract_z
Si Si1 0.817272 0.959985 0.671955
Si Si2 0.682597 0.299375 0.473839
Si Si3 0.316136 0.901154 0.967280
Si Si4 0.182926 0.845966 0.325233
Si Si5 0.317643 0.557861 0.889505
O O1 0.750000 0.949179 0.750000
O O2 0.780229 0.920723 0.611351
O O3 0.000000 0.964027 0.676851
O O4 0.749875 0.009701 0.643161
O O5 0.500000 0.296596 0.478546
O O6 0.750000 0.250000 0.500000
O O7 0.730241 0.346376 0.518762
O O8 0.722618 0.311544 0.391489
O O9 0.500000 0.904161 0.977836
O O10 0.239038 0.933045 0.029116
O O11 0.250000 0.829406 0.250000
O O12 0.253748 0.897267 0.344770
O O13 0.000000 0.850419 0.321875
O O14 0.500000 0.556980 0.886798
#
# Coordination Sequence:
#
# PCOD9478581 Si02
#       5
#    16  16  16  16  16
#     4  11  22  36  53  74 106 144 178 214 255 303
#     4   9  19  36  57  79 103 133 171 214 261 312
#     4   9  20  38  56  75 103 139 176 216 262 310
#     4  10  20  35  54  79 109 138 172 215 263 312
#     4  11  21  33  53  80 108 138 174 215 258 309
#
# _framework density 17.447455000000001
#
# number of rings (size 3 to 8) (size 9 to 14) (size 15 to 20)
#    0.000    2.000    0.000    5.400    0.000    8.000 
#    0.000    1.000    0.000    4.800    0.000    0.000 
#    0.000    0.000    0.000    0.000    0.000    0.000 
#
# Total GULP energy -223375.516686 kJ/mol
# GULP energy per Si atom -5584.387917 kJ/mol
# Density = 1.740774 g / cm^3
# Si number density = 17.447455 Si / 1000 Ang^3
#
#
#
# Elastic Constant Matrix: (Units=GPa)
#
#
# Indices 1 2 3 4 5 6 
#
# 1 64.4894 45.4510 66.1842 0.0000 0.0000 0.0000
# 2 45.4510 106.4912 96.2195 0.0000 0.0000 0.0000
# 3 66.1842 96.2195 172.3408 0.0000 0.0000 0.0000
# 4 0.0000 0.0000 0.0000 16.1918 0.0000 0.0000
# 5 0.0000 0.0000 0.0000 0.0000 33.7048 0.0000
# 6 0.0000 0.0000 0.0000 0.0000 0.0000 20.9014
#
#
#
# Elastic Compliance Matrix: (Units=1/GPa)
#
#
# Indices 1 2 3 4 5 6 
#
# 1 0.026523 -0.004272 -0.007800 0.000000 0.000000 0.000000
# 2 -0.004272 0.019638 -0.009323 0.000000 0.000000 0.000000
# 3 -0.007800 -0.009323 0.014003 0.000000 0.000000 0.000000
# 4 0.000000 0.000000 0.000000 0.061760 0.000000 0.000000
# 5 0.000000 0.000000 0.000000 0.000000 0.029669 0.000000
# 6 0.000000 0.000000 0.000000 0.000000 0.000000 0.047844
#
#
# Mechanical properties :
#
#
# Convention : Reuss Voigt Hill
#
# Bulk Modulus (GPa) = 57.56294 84.33676 70.94985
# Shear Modulus (GPa) = 20.15971 23.19070 21.67520
#
# Velocity S-wave (km/s) = 3.40288 3.64974 3.52847
# Velocity P-wave (km/s) = 6.96443 8.13654 7.57320
#
# Compressibility (1/GPa) = 0.01737229
#
# Stress axis : x y z
#
# Youngs Moduli (GPa) = 37.70354 50.92186 71.41092
#
# Poissons Ratio (x) = 0.21754 0.55704
# Poissons Ratio (y) = 0.16107 0.66580
# Poissons Ratio (z) = 0.29410 0.47477
#
# Static dielectric constant tensor:
#      x y z
#    x 1.586290 0.000000 0.000000 
#    y 0.000000 1.566190 0.000000 
#    z 0.000000 0.000000 1.600540 
# 
# From -- ./inp_files/29700.got.cif
#   From: 2010.05.17/outbox.cif.g08.bks.cpg/sg64_15_cif.got.tgz:29700.got - 2010.06.03 16:29:19.
