data_PCOD9478714
_publ_section_title
;
Structure prediction by ZEFSAII (Michael W. Deem and Ramdas Pophale) SiO2 
 PCOD9478714
Probable space group: C M C A
;
_chemical_formula_sum "Si O2"
_cell_formula_units_Z 88
_cell_length_a 30.734510
_cell_length_b 17.170809
_cell_length_c 7.925443
_cell_angle_alpha 90.000000
_cell_angle_beta 90.000000
_cell_angle_gamma 90.000000
_cell_volume 4182.544765
_symmetry_space_group_name_H-M "C M C A"
_symmetry_group_IT_number 64
_symmetry_cell_setting 'orthorhombic'
loop_
_space_group_symop_operation_xyz
x,y,z
-x,1/2-y,1/2+z
x,-y,-z
-x,1/2+y,1/2-z
-x,-y,-z
x,1/2+y,1/2-z
-x,y,z
x,1/2-y,1/2+z
1/2+x,1/2+y,z
1/2-x,-y,1/2+z
1/2+x,1/2-y,-z
1/2-x,y,1/2-z
1/2-x,1/2-y,-z
1/2+x,y,1/2-z
1/2-x,1/2+y,z
1/2+x,-y,1/2+z
loop_
_atom_site_type_symbol
_atom_site_label
_atom_site_fract_x
_atom_site_fract_y
_atom_site_fract_z
Si Si1 0.049138 0.931313 0.362730
Si Si2 0.797933 0.388022 0.168715
Si Si3 0.618642 0.696828 0.730522
Si Si4 0.623827 0.358187 0.889587
Si Si5 0.199243 0.443285 0.782552
Si Si6 0.932097 0.000000 0.000000
O O1 0.085544 0.863098 0.360885
O O2 0.000000 0.904624 0.408142
O O3 0.060160 0.000000 0.500000
O O4 0.046690 0.959549 0.165592
O O5 0.750000 0.372666 0.250000
O O6 0.831622 0.317321 0.172251
O O7 0.816051 0.467739 0.256184
O O8 0.800503 0.416193 0.975940
O O9 0.605815 0.786692 0.718629
O O10 0.622428 0.674595 0.923881
O O11 0.670927 0.384255 0.825321
O O12 0.595390 0.434951 0.901806
O O13 0.250000 0.444831 0.750000
#
# Coordination Sequence:
#
# PCOD9478714 Si02
#       6
#    16  16  16  16  16   8
#     4  10  23  43  70  99 128 167 215 267 328 399
#     4  10  21  36  59  91 126 170 217 271 321 390
#     4  11  24  39  63  91 131 162 215 268 331 387
#     4  11  23  40  61  95 123 173 212 270 322 394
#     4  10  20  35  59  85 124 170 221 266 322 384
#     4  10  23  42  72  92 134 168 222 264 330 402
#
# _framework density 21.039822999999998
#
# number of rings (size 3 to 8) (size 9 to 14) (size 15 to 20)
#    0.000    1.636    0.000    4.636    7.636    3.636 
#    0.000    8.182    0.000    0.000    0.000    0.000 
#    0.000    0.000    0.000    0.000    0.000    0.000 
#
# Total GULP energy -245139.737615 kJ/mol
# GULP energy per Si atom -5571.357673 kJ/mol
# Density = 2.099194 g / cm^3
# Si number density = 21.039823 Si / 1000 Ang^3
#
#
#
# Elastic Constant Matrix: (Units=GPa)
#
#
# Indices 1 2 3 4 5 6 
#
# 1 81.6771 57.5800 20.9681 0.0000 0.0000 0.0000
# 2 57.5800 112.6629 17.9933 0.0000 0.0000 0.0000
# 3 20.9681 17.9933 49.3699 0.0000 0.0000 0.0000
# 4 0.0000 0.0000 0.0000 36.6070 0.0000 0.0000
# 5 0.0000 0.0000 0.0000 0.0000 21.2613 0.0000
# 6 0.0000 0.0000 0.0000 0.0000 0.0000 16.4830
#
#
#
# Elastic Compliance Matrix: (Units=1/GPa)
#
#
# Indices 1 2 3 4 5 6 
#
# 1 0.020297 -0.009553 -0.005139 0.000000 0.000000 0.000000
# 2 -0.009553 0.013921 -0.001016 0.000000 0.000000 0.000000
# 3 -0.005139 -0.001016 0.022808 0.000000 0.000000 0.000000
# 4 0.000000 0.000000 0.000000 0.027317 0.000000 0.000000
# 5 0.000000 0.000000 0.000000 0.000000 0.047034 0.000000
# 6 0.000000 0.000000 0.000000 0.000000 0.000000 0.060669
#
#
# Mechanical properties :
#
#
# Convention : Reuss Voigt Hill
#
# Bulk Modulus (GPa) = 39.04718 48.53251 43.78985
# Shear Modulus (GPa) = 21.55194 24.68149 23.11672
#
# Velocity S-wave (km/s) = 3.20400 3.42875 3.31828
# Velocity P-wave (km/s) = 5.68212 6.22833 5.96149
#
# Compressibility (1/GPa) = 0.02561004
#
# Stress axis : x y z
#
# Youngs Moduli (GPa) = 49.26848 71.83624 43.84385
#
# Poissons Ratio (x) = 0.68623 0.22531
# Poissons Ratio (y) = 0.47065 0.04456
# Poissons Ratio (z) = 0.25318 0.07301
#
# Static dielectric constant tensor:
#      x y z
#    x 1.704600 0.000000 0.000000 
#    y 0.000000 1.878540 0.000000 
#    z 0.000000 0.000000 1.335150 
# 
# From -- ./inp_files/11095.got.cif
#   From: 2010.05.17/outbox.cif.g08.bks.cpg/sg64_6_cif.got.tgz:11095.got - 2010.06.03 16:29:19.
