data_PCOD9478625
_publ_section_title
;
Structure prediction by ZEFSAII (Michael W. Deem and Ramdas Pophale) SiO2 
 PCOD9478625
Probable space group: C M C A
;
_chemical_formula_sum "Si O2"
_cell_formula_units_Z 64
_cell_length_a 21.383860
_cell_length_b 8.325534
_cell_length_c 17.945039
_cell_angle_alpha 90.000000
_cell_angle_beta 90.000000
_cell_angle_gamma 90.000000
_cell_volume 3194.792143
_symmetry_space_group_name_H-M "C M C A"
_symmetry_group_IT_number 64
_symmetry_cell_setting 'orthorhombic'
loop_
_space_group_symop_operation_xyz
x,y,z
-x,1/2-y,1/2+z
x,-y,-z
-x,1/2+y,1/2-z
-x,-y,-z
x,1/2+y,1/2-z
-x,y,z
x,1/2-y,1/2+z
1/2+x,1/2+y,z
1/2-x,-y,1/2+z
1/2+x,1/2-y,-z
1/2-x,y,1/2-z
1/2-x,1/2-y,-z
1/2+x,y,1/2-z
1/2-x,1/2+y,z
1/2+x,-y,1/2+z
loop_
_atom_site_type_symbol
_atom_site_label
_atom_site_fract_x
_atom_site_fract_y
_atom_site_fract_z
Si Si1 0.070230 0.439726 0.641898
Si Si2 0.376085 0.855163 0.224027
Si Si3 0.695988 0.465008 0.080839
Si Si4 0.699294 0.145061 0.164621
O O1 0.081475 0.265837 0.678052
O O2 0.085537 0.565534 0.708375
O O3 0.126088 0.466236 0.584256
O O4 0.000000 0.459567 0.614499
O O5 0.319560 0.753382 0.262974
O O6 0.348508 0.996667 0.173067
O O7 0.693245 0.276807 0.099617
O O8 0.735928 0.554447 0.145451
O O9 0.724043 0.500000 0.000000
#
# Coordination Sequence:
#
# PCOD9478625 Si02
#       4
#    16  16  16  16
#     4  10  20  35  56  80 109 144 181 225 276 331
#     4   9  20  36  57  85 110 135 175 233 292 335
#     4  11  23  37  55  79 112 152 188 222 264 327
#     4  10  21  36  57  83 111 138 177 231 286 330
#
# _framework density 20.032603000000002
#
# number of rings (size 3 to 8) (size 9 to 14) (size 15 to 20)
#    0.000    2.000    0.000    3.000    0.000   17.500 
#    0.000    1.250    0.000    1.500    0.000    0.000 
#    0.000    0.000    0.000    0.000    0.000    0.000 
#
# Total GULP energy -178430.277767 kJ/mol
# GULP energy per Si atom -5575.946180 kJ/mol
# Density = 1.998701 g / cm^3
# Si number density = 20.032603 Si / 1000 Ang^3
#
#
#
# Elastic Constant Matrix: (Units=GPa)
#
#
# Indices 1 2 3 4 5 6 
#
# 1 78.5103 12.3863 -16.0736 0.0000 0.0000 0.0000
# 2 12.3863 112.2915 12.1234 0.0000 0.0000 0.0000
# 3 -16.0736 12.1234 23.0558 0.0000 0.0000 0.0000
# 4 0.0000 0.0000 0.0000 24.0336 0.0000 0.0000
# 5 0.0000 0.0000 0.0000 0.0000 10.3948 0.0000
# 6 0.0000 0.0000 0.0000 0.0000 0.0000 15.3972
#
#
#
# Elastic Compliance Matrix: (Units=1/GPa)
#
#
# Indices 1 2 3 4 5 6 
#
# 1 0.015822 -0.003113 0.012667 0.000000 0.000000 0.000000
# 2 -0.003113 0.010054 -0.007457 0.000000 0.000000 0.000000
# 3 0.012667 -0.007457 0.056125 0.000000 0.000000 0.000000
# 4 0.000000 0.000000 0.000000 0.041608 0.000000 0.000000
# 5 0.000000 0.000000 0.000000 0.000000 0.096202 0.000000
# 6 0.000000 0.000000 0.000000 0.000000 0.000000 0.064947
#
#
# Mechanical properties :
#
#
# Convention : Reuss Voigt Hill
#
# Bulk Modulus (GPa) = 11.60157 25.63665 18.61911
# Shear Modulus (GPa) = 16.16585 23.65988 19.91286
#
# Velocity S-wave (km/s) = 2.84382 3.44040 3.15623
# Velocity P-wave (km/s) = 4.07271 5.34855 4.75363
#
# Compressibility (1/GPa) = 0.08619521
#
# Stress axis : x y z
#
# Youngs Moduli (GPa) = 63.20475 99.46494 17.81744
#
# Poissons Ratio (x) = 0.30961 -0.22569
# Poissons Ratio (y) = 0.19674 0.13286
# Poissons Ratio (z) = -0.80061 0.74167
#
# Static dielectric constant tensor:
#      x y z
#    x 1.726640 0.000000 0.000000 
#    y 0.000000 1.707340 0.000000 
#    z 0.000000 0.000000 1.765930 
# 
# From -- ./inp_files/33861.got.cif
#   From: 2010.05.17/outbox.cif.g08.bks.cpg/sg64_17_cif.got.tgz:33861.got - 2010.06.03 16:29:19.
