data_PCOD9478509
_publ_section_title
;
Structure prediction by ZEFSAII (Michael W. Deem and Ramdas Pophale) SiO2 
 PCOD9478509
Probable space group: C M C A
;
_chemical_formula_sum "Si O2"
_cell_formula_units_Z 96
_cell_length_a 14.456421
_cell_length_b 28.703130
_cell_length_c 11.881247
_cell_angle_alpha 90.000000
_cell_angle_beta 90.000000
_cell_angle_gamma 90.000000
_cell_volume 4930.058468
_symmetry_space_group_name_H-M "C M C A"
_symmetry_group_IT_number 64
_symmetry_cell_setting 'orthorhombic'
loop_
_space_group_symop_operation_xyz
x,y,z
-x,1/2-y,1/2+z
x,-y,-z
-x,1/2+y,1/2-z
-x,-y,-z
x,1/2+y,1/2-z
-x,y,z
x,1/2-y,1/2+z
1/2+x,1/2+y,z
1/2-x,-y,1/2+z
1/2+x,1/2-y,-z
1/2-x,y,1/2-z
1/2-x,1/2-y,-z
1/2+x,y,1/2-z
1/2-x,1/2+y,z
1/2+x,-y,1/2+z
loop_
_atom_site_type_symbol
_atom_site_label
_atom_site_fract_x
_atom_site_fract_y
_atom_site_fract_z
Si Si1 0.288181 0.165267 0.516583
Si Si2 0.607892 0.299513 0.797465
Si Si3 0.000000 0.939561 0.596797
Si Si4 0.180802 0.116003 0.342175
Si Si5 0.605014 0.298479 0.375478
Si Si6 0.642652 0.386375 0.228559
Si Si7 0.500000 0.953910 0.171857
O O1 0.348135 0.188944 0.418839
O O2 0.235114 0.122495 0.457335
O O3 0.202549 0.198111 0.556976
O O4 0.353463 0.142400 0.611260
O O5 0.500000 0.311226 0.797900
O O6 0.654435 0.332298 0.704497
O O7 0.616636 0.243899 0.786975
O O8 0.910142 0.912905 0.639560
O O9 0.000000 0.937855 0.459970
O O10 0.000000 0.990836 0.651631
O O11 0.250000 0.095359 0.250000
O O12 0.500000 0.291744 0.427668
O O13 0.604621 0.348102 0.315413
O O14 0.750000 0.395828 0.250000
O O15 0.585307 0.432557 0.256702
#
# Coordination Sequence:
#
# PCOD9478509 Si02
#       7
#    16  16   8  16  16  16   8
#     4  10  22  35  59  87 120 164 196 247 298 354
#     4  10  21  36  56  87 122 162 207 246 290 353
#     4  11  22  42  68  89 115 151 196 242 302 359
#     4  10  22  40  62  87 120 158 202 246 293 356
#     4  10  20  34  56  86 124 160 203 244 294 355
#     4  10  21  38  58  85 122 153 192 247 300 351
#     4  11  24  40  66  93 113 149 198 248 298 371
#
# _framework density 19.472384999999999
#
# number of rings (size 3 to 8) (size 9 to 14) (size 15 to 20)
#    0.000    1.833    1.667    2.500    2.333    8.000 
#    0.000    3.333    0.000    7.000    0.000    0.000 
#    0.000    0.000    0.000    0.000    0.000    0.000 
#
# Total GULP energy -267373.173359 kJ/mol
# GULP energy per Si atom -5570.274445 kJ/mol
# Density = 1.942807 g / cm^3
# Si number density = 19.472385 Si / 1000 Ang^3
#
#
#
# Elastic Constant Matrix: (Units=GPa)
#
#
# Indices 1 2 3 4 5 6 
#
# 1 92.9943 16.9453 2.8395 0.0000 0.0000 0.0000
# 2 16.9453 71.1541 6.6747 0.0000 0.0000 0.0000
# 3 2.8395 6.6747 37.6936 0.0000 0.0000 0.0000
# 4 0.0000 0.0000 0.0000 2.5784 0.0000 0.0000
# 5 0.0000 0.0000 0.0000 0.0000 19.0233 0.0000
# 6 0.0000 0.0000 0.0000 0.0000 0.0000 -65.3302
#
#
#
# Elastic Compliance Matrix: (Units=1/GPa)
#
#
# Indices 1 2 3 4 5 6 
#
# 1 0.011246 -0.002643 -0.000379 0.000000 0.000000 0.000000
# 2 -0.002643 0.014912 -0.002442 0.000000 0.000000 0.000000
# 3 -0.000379 -0.002442 0.026991 0.000000 0.000000 0.000000
# 4 0.000000 0.000000 0.000000 0.387832 0.000000 0.000000
# 5 0.000000 0.000000 0.000000 0.000000 0.052567 0.000000
# 6 0.000000 0.000000 0.000000 0.000000 0.000000 -0.015307
#
#
# Mechanical properties :
#
#
# Convention : Reuss Voigt Hill
#
# Bulk Modulus (GPa) = 23.68412 28.30678 25.99545
# Shear Modulus (GPa) = 9.93557 2.94648 6.44102
#
# Velocity S-wave (km/s) = 2.26130 1.23144 1.82070
# Velocity P-wave (km/s) = 4.35973 4.07313 4.21887
#
# Compressibility (1/GPa) = 0.04222238
#
# Stress axis : x y z
#
# Youngs Moduli (GPa) = 88.91663 67.05823 37.04986
#
# Poissons Ratio (x) = 0.17722 0.01405
# Poissons Ratio (y) = 0.23499 0.09046
# Poissons Ratio (z) = 0.03372 0.16373
#
# Static dielectric constant tensor:
#      x y z
#    x 1.743610 0.000000 0.000000 
#    y 0.000000 1.667290 0.000000 
#    z 0.000000 0.000000 1.730130 
# 
# From -- ./inp_files/14877.got.cif
#   From: 2010.05.17/outbox.cif.g08.bks.cpg/sg64_8_cif.got.tgz:14877.got - 2010.06.03 16:29:19.
