data_PCOD9478644
_publ_section_title
;
Structure prediction by ZEFSAII (Michael W. Deem and Ramdas Pophale) SiO2 
 PCOD9478644
Probable space group: C M C A
;
_chemical_formula_sum "Si O2"
_cell_formula_units_Z 80
_cell_length_a 16.435893
_cell_length_b 27.827262
_cell_length_c 7.293563
_cell_angle_alpha 90.000000
_cell_angle_beta 90.000000
_cell_angle_gamma 90.000000
_cell_volume 3335.827011
_symmetry_space_group_name_H-M "C M C A"
_symmetry_group_IT_number 64
_symmetry_cell_setting 'orthorhombic'
loop_
_space_group_symop_operation_xyz
x,y,z
-x,1/2-y,1/2+z
x,-y,-z
-x,1/2+y,1/2-z
-x,-y,-z
x,1/2+y,1/2-z
-x,y,z
x,1/2-y,1/2+z
1/2+x,1/2+y,z
1/2-x,-y,1/2+z
1/2+x,1/2-y,-z
1/2-x,y,1/2-z
1/2-x,1/2-y,-z
1/2+x,y,1/2-z
1/2-x,1/2+y,z
1/2+x,-y,1/2+z
loop_
_atom_site_type_symbol
_atom_site_label
_atom_site_fract_x
_atom_site_fract_y
_atom_site_fract_z
Si Si1 0.593682 0.804944 0.721405
Si Si2 0.653631 0.006524 0.718205
Si Si3 0.836176 0.207998 0.839402
Si Si4 0.595518 0.891955 0.315373
Si Si5 0.652100 0.097556 0.260836
O O1 0.500000 0.808174 0.656535
O O2 0.658793 0.802332 0.555713
O O3 0.606318 0.754470 0.821077
O O4 0.613814 0.854504 0.826353
O O5 0.750000 0.009785 0.750000
O O6 0.625843 0.955717 0.803605
O O7 0.638588 0.000000 0.500000
O O8 0.618276 0.057625 0.777509
O O9 0.750000 0.219293 0.750000
O O10 0.864758 0.157792 0.750542
O O11 0.500000 0.885590 0.310883
O O12 0.624203 0.898823 0.526726
O O13 0.750000 0.099349 0.250000
#
# Coordination Sequence:
#
# PCOD9478644 Si02
#       5
#    16  16  16  16  16
#     4  11  22  38  57  81 112 144 182 227 274 322
#     4   9  18  33  55  81 109 143 181 225 271 322
#     4  11  22  37  57  81 110 145 185 225 271 327
#     4  10  20  35  56  83 111 141 183 230 274 321
#     4   9  18  32  52  79 110 140 176 221 267 319
#
# _framework density 23.982057999999999
#
# number of rings (size 3 to 8) (size 9 to 14) (size 15 to 20)
#    0.000    2.000    0.000    5.400    0.000    6.000 
#    0.000    2.000    0.000    0.600    0.000    9.800 
#    0.000    0.000    0.000    0.000    0.000    0.000 
#
# Total GULP energy -223313.866038 kJ/mol
# GULP energy per Si atom -5582.846651 kJ/mol
# Density = 2.392747 g / cm^3
# Si number density = 23.982058 Si / 1000 Ang^3
#
#
#
# Elastic Constant Matrix: (Units=GPa)
#
#
# Indices 1 2 3 4 5 6 
#
# 1 97.0314 50.7890 -8.8026 0.0000 0.0000 0.0000
# 2 50.7890 272.6075 13.1240 0.0000 0.0000 0.0000
# 3 -8.8026 13.1240 45.0513 0.0000 0.0000 0.0000
# 4 0.0000 0.0000 0.0000 16.0954 0.0000 0.0000
# 5 0.0000 0.0000 0.0000 0.0000 18.0704 0.0000
# 6 0.0000 0.0000 0.0000 0.0000 0.0000 147.3542
#
#
#
# Elastic Compliance Matrix: (Units=1/GPa)
#
#
# Indices 1 2 3 4 5 6 
#
# 1 0.011803 -0.002343 0.002989 0.000000 0.000000 0.000000
# 2 -0.002343 0.004186 -0.001677 0.000000 0.000000 0.000000
# 3 0.002989 -0.001677 0.023269 0.000000 0.000000 0.000000
# 4 0.000000 0.000000 0.000000 0.062130 0.000000 0.000000
# 5 0.000000 0.000000 0.000000 0.000000 0.055339 0.000000
# 6 0.000000 0.000000 0.000000 0.000000 0.000000 0.006786
#
#
# Mechanical properties :
#
#
# Convention : Reuss Voigt Hill
#
# Bulk Modulus (GPa) = 26.88460 58.32343 42.60401
# Shear Modulus (GPa) = 28.09391 60.27599 44.18495
#
# Velocity S-wave (km/s) = 3.42637 5.01880 4.29700
# Velocity P-wave (km/s) = 5.18536 7.61294 6.51325
#
# Compressibility (1/GPa) = 0.03719601
#
# Stress axis : x y z
#
# Youngs Moduli (GPa) = 84.72089 238.91834 42.97475
#
# Poissons Ratio (x) = 0.55978 -0.12844
# Poissons Ratio (y) = 0.19850 0.07207
# Poissons Ratio (z) = -0.25322 0.40069
#
# Static dielectric constant tensor:
#      x y z
#    x 1.894970 0.000000 0.000000 
#    y 0.000000 2.055170 0.000000 
#    z 0.000000 0.000000 2.077620 
# 
# From -- ./inp_files/7115.got.cif
#   From: 2010.05.17/outbox.cif.g08.bks.cpg/sg64_4_cif.got.tgz:7115.got - 2010.06.03 16:29:19.
