data_PCOD9478751
_publ_section_title
;
Structure prediction by ZEFSAII (Michael W. Deem and Ramdas Pophale) SiO2 
 PCOD9478751
Probable space group: C M C A
;
_chemical_formula_sum "Si O2"
_cell_formula_units_Z 64
_cell_length_a 22.400980
_cell_length_b 11.705277
_cell_length_c 10.963340
_cell_angle_alpha 90.000000
_cell_angle_beta 90.000000
_cell_angle_gamma 90.000000
_cell_volume 2874.693829
_symmetry_space_group_name_H-M "C M C A"
_symmetry_group_IT_number 64
_symmetry_cell_setting 'orthorhombic'
loop_
_space_group_symop_operation_xyz
x,y,z
-x,1/2-y,1/2+z
x,-y,-z
-x,1/2+y,1/2-z
-x,-y,-z
x,1/2+y,1/2-z
-x,y,z
x,1/2-y,1/2+z
1/2+x,1/2+y,z
1/2-x,-y,1/2+z
1/2+x,1/2-y,-z
1/2-x,y,1/2-z
1/2-x,1/2-y,-z
1/2+x,y,1/2-z
1/2-x,1/2+y,z
1/2+x,-y,1/2+z
loop_
_atom_site_type_symbol
_atom_site_label
_atom_site_fract_x
_atom_site_fract_y
_atom_site_fract_z
Si Si1 0.258014 0.604240 0.116253
Si Si2 0.347640 0.277513 0.511876
Si Si3 0.068904 0.429214 0.127438
Si Si4 0.135050 0.556459 0.628097
O O1 0.250000 0.651377 0.250000
O O2 0.193309 0.616844 0.055389
O O3 0.295194 0.486066 0.130794
O O4 0.302500 0.690538 0.051843
O O5 0.396908 0.316258 0.416725
O O6 0.371891 0.193599 0.617274
O O7 0.103168 0.479533 0.246029
O O8 0.000000 0.411607 0.160960
O O9 0.069717 0.500000 0.000000
O O10 0.111813 0.500000 0.500000
#
# Coordination Sequence:
#
# PCOD9478751 Si02
#       4
#    16  16  16  16
#     4  10  20  35  61  94 131 167 207 267 326 387
#     4  10  22  39  61  94 127 169 218 260 323 389
#     4  11  25  44  66  93 129 172 220 272 321 383
#     4  10  23  42  64  96 131 169 215 264 325 388
#
# _framework density 22.26324
#
# number of rings (size 3 to 8) (size 9 to 14) (size 15 to 20)
#    0.000    1.750    0.000    3.000    0.000   17.500 
#    0.000    8.750    0.000    0.000    0.000    0.000 
#    0.000    0.000    0.000    0.000    0.000    0.000 
#
# Total GULP energy -178308.002980 kJ/mol
# GULP energy per Si atom -5572.125093 kJ/mol
# Density = 2.221257 g / cm^3
# Si number density = 22.263240 Si / 1000 Ang^3
#
#
#
# Elastic Constant Matrix: (Units=GPa)
#
#
# Indices 1 2 3 4 5 6 
#
# 1 113.9412 42.5021 49.8713 0.0000 0.0000 0.0000
# 2 42.5021 69.2881 25.8493 0.0000 0.0000 0.0000
# 3 49.8713 25.8493 130.7580 0.0000 0.0000 0.0000
# 4 0.0000 0.0000 0.0000 20.6884 0.0000 0.0000
# 5 0.0000 0.0000 0.0000 0.0000 21.8993 0.0000
# 6 0.0000 0.0000 0.0000 0.0000 0.0000 1.3821
#
#
#
# Elastic Compliance Matrix: (Units=1/GPa)
#
#
# Indices 1 2 3 4 5 6 
#
# 1 0.012769 -0.006495 -0.003586 0.000000 0.000000 0.000000
# 2 -0.006495 0.018885 -0.001256 0.000000 0.000000 0.000000
# 3 -0.003586 -0.001256 0.009264 0.000000 0.000000 0.000000
# 4 0.000000 0.000000 0.000000 0.048336 0.000000 0.000000
# 5 0.000000 0.000000 0.000000 0.000000 0.045664 0.000000
# 6 0.000000 0.000000 0.000000 0.000000 0.000000 0.723535
#
#
# Mechanical properties :
#
#
# Convention : Reuss Voigt Hill
#
# Bulk Modulus (GPa) = 54.81383 61.15918 57.98650
# Shear Modulus (GPa) = 5.63566 21.84494 13.74030
#
# Velocity S-wave (km/s) = 1.59276 3.13583 2.48699
# Velocity P-wave (km/s) = 5.29686 6.37509 5.86082
#
# Compressibility (1/GPa) = 0.01824357
#
# Stress axis : x y z
#
# Youngs Moduli (GPa) = 78.31679 52.95198 107.94691
#
# Poissons Ratio (x) = 0.34390 0.38711
# Poissons Ratio (y) = 0.50863 0.13561
# Poissons Ratio (z) = 0.28085 0.06652
#
# Static dielectric constant tensor:
#      x y z
#    x 1.828320 0.000000 0.000000 
#    y 0.000000 1.917040 0.000000 
#    z 0.000000 0.000000 2.275450 
# 
# From -- ./inp_files/16880.got.cif
#   From: 2010.05.17/outbox.cif.g08.bks.cpg/sg64_9_cif.got.tgz:16880.got - 2010.06.03 16:29:19.
