data_PCOD9478920
_publ_section_title
;
Structure prediction by ZEFSAII (Michael W. Deem and Ramdas Pophale) SiO2 
 PCOD9478920
Probable space group: C M C A
;
_chemical_formula_sum "Si O2"
_cell_formula_units_Z 80
_cell_length_a 14.021765
_cell_length_b 28.557500
_cell_length_c 10.782964
_cell_angle_alpha 90.000000
_cell_angle_beta 90.000000
_cell_angle_gamma 90.000000
_cell_volume 4317.785116
_symmetry_space_group_name_H-M "C M C A"
_symmetry_group_IT_number 64
_symmetry_cell_setting 'orthorhombic'
loop_
_space_group_symop_operation_xyz
x,y,z
-x,1/2-y,1/2+z
x,-y,-z
-x,1/2+y,1/2-z
-x,-y,-z
x,1/2+y,1/2-z
-x,y,z
x,1/2-y,1/2+z
1/2+x,1/2+y,z
1/2-x,-y,1/2+z
1/2+x,1/2-y,-z
1/2-x,y,1/2-z
1/2-x,1/2-y,-z
1/2+x,y,1/2-z
1/2-x,1/2+y,z
1/2+x,-y,1/2+z
loop_
_atom_site_type_symbol
_atom_site_label
_atom_site_fract_x
_atom_site_fract_y
_atom_site_fract_z
Si Si1 0.806865 0.734405 0.376776
Si Si2 0.385911 0.854527 0.493849
Si Si3 0.388125 0.566867 0.660679
Si Si4 0.686330 0.047963 0.562251
Si Si5 0.111718 0.829676 0.278842
O O1 0.750000 0.724180 0.250000
O O2 0.750000 0.750000 0.500000
O O3 0.863283 0.687445 0.412655
O O4 0.863666 0.781304 0.341965
O O5 0.500000 0.861699 0.489138
O O6 0.338144 0.905107 0.514936
O O7 0.346488 0.836721 0.359147
O O8 0.500000 0.556680 0.632279
O O9 0.366763 0.555451 0.805441
O O10 0.300231 0.544396 0.586954
O O11 0.370409 0.622745 0.646591
O O12 0.653428 0.000000 0.500000
O O13 0.000000 0.829032 0.257274
#
# Coordination Sequence:
#
# PCOD9478920 Si02
#       5
#    16  16  16  16  16
#     4  12  22  35  56  85 121 159 193 241 296 358
#     4  10  21  38  59  85 116 153 201 248 295 362
#     4   9  19  35  58  86 112 147 199 250 297 362
#     4  10  20  36  60  83 112 153 199 252 304 356
#     4   9  18  35  58  82 110 147 195 237 286 358
#
# _framework density 18.528017999999999
#
# number of rings (size 3 to 8) (size 9 to 14) (size 15 to 20)
#    0.000    2.000    2.000    3.600    2.800    2.000 
#    3.600    0.000    0.000    1.200    0.000    0.000 
#    0.000    0.000    0.000    0.000    0.000    0.000 
#
# Total GULP energy -222815.300662 kJ/mol
# GULP energy per Si atom -5570.382517 kJ/mol
# Density = 1.848585 g / cm^3
# Si number density = 18.528018 Si / 1000 Ang^3
#
#
#
# Elastic Constant Matrix: (Units=GPa)
#
#
# Indices 1 2 3 4 5 6 
#
# 1 76.4439 21.1377 13.3169 0.0000 0.0000 0.0000
# 2 21.1377 150.3574 38.6945 0.0000 0.0000 0.0000
# 3 13.3169 38.6945 48.2953 0.0000 0.0000 0.0000
# 4 0.0000 0.0000 0.0000 24.7070 0.0000 0.0000
# 5 0.0000 0.0000 0.0000 0.0000 19.9013 0.0000
# 6 0.0000 0.0000 0.0000 0.0000 0.0000 22.4406
#
#
#
# Elastic Compliance Matrix: (Units=1/GPa)
#
#
# Indices 1 2 3 4 5 6 
#
# 1 0.013917 -0.001221 -0.002860 0.000000 0.000000 0.000000
# 2 -0.001221 0.008485 -0.006462 0.000000 0.000000 0.000000
# 3 -0.002860 -0.006462 0.026672 0.000000 0.000000 0.000000
# 4 0.000000 0.000000 0.000000 0.040474 0.000000 0.000000
# 5 0.000000 0.000000 0.000000 0.000000 0.050248 0.000000
# 6 0.000000 0.000000 0.000000 0.000000 0.000000 0.044562
#
#
# Mechanical properties :
#
#
# Convention : Reuss Voigt Hill
#
# Bulk Modulus (GPa) = 35.72692 46.82164 41.27428
# Shear Modulus (GPa) = 23.28036 26.87293 25.07665
#
# Velocity S-wave (km/s) = 3.54855 3.81254 3.68291
# Velocity P-wave (km/s) = 6.00950 6.68627 6.35690
#
# Compressibility (1/GPa) = 0.02799009
#
# Stress axis : x y z
#
# Youngs Moduli (GPa) = 71.85375 117.84926 37.49270
#
# Poissons Ratio (x) = 0.14385 0.10721
# Poissons Ratio (y) = 0.08771 0.24228
# Poissons Ratio (z) = 0.20547 0.76154
#
# Static dielectric constant tensor:
#      x y z
#    x 1.673640 0.000000 0.000000 
#    y 0.000000 1.694810 0.000000 
#    z 0.000000 0.000000 1.605500 
# 
# From -- ./inp_files/14451.got.cif
#   From: 2010.05.17/outbox.cif.g08.bks.cpg/sg64_8_cif.got.tgz:14451.got - 2010.06.03 16:29:19.
