data_PCOD9478568
_publ_section_title
;
Structure prediction by ZEFSAII (Michael W. Deem and Ramdas Pophale) SiO2 
 PCOD9478568
Probable space group: C M C A
;
_chemical_formula_sum "Si O2"
_cell_formula_units_Z 120
_cell_length_a 11.422360
_cell_length_b 24.969563
_cell_length_c 21.951076
_cell_angle_alpha 90.000000
_cell_angle_beta 90.000000
_cell_angle_gamma 90.000000
_cell_volume 6260.695748
_symmetry_space_group_name_H-M "C M C A"
_symmetry_group_IT_number 64
_symmetry_cell_setting 'orthorhombic'
loop_
_space_group_symop_operation_xyz
x,y,z
-x,1/2-y,1/2+z
x,-y,-z
-x,1/2+y,1/2-z
-x,-y,-z
x,1/2+y,1/2-z
-x,y,z
x,1/2-y,1/2+z
1/2+x,1/2+y,z
1/2-x,-y,1/2+z
1/2+x,1/2-y,-z
1/2-x,y,1/2-z
1/2-x,1/2-y,-z
1/2+x,y,1/2-z
1/2-x,1/2+y,z
1/2+x,-y,1/2+z
loop_
_atom_site_type_symbol
_atom_site_label
_atom_site_fract_x
_atom_site_fract_y
_atom_site_fract_z
Si Si1 0.702472 0.500000 0.500000
Si Si2 0.134982 0.134185 0.794596
Si Si3 0.694640 0.752884 0.816628
Si Si4 0.202404 0.164433 0.999647
Si Si5 0.129104 0.070175 0.917579
Si Si6 0.627979 0.401878 0.578349
Si Si7 0.130720 0.370616 0.790113
Si Si8 0.631298 0.263615 0.425519
O O1 0.780601 0.469773 0.449225
O O2 0.633815 0.455258 0.537914
O O3 0.250000 0.130672 0.750000
O O4 0.133262 0.195059 0.821451
O O5 0.154558 0.092677 0.850094
O O6 0.000000 0.125355 0.770130
O O7 0.750000 0.751361 0.750000
O O8 0.629482 0.809674 0.816725
O O9 0.793691 0.754157 0.867780
O O10 0.266718 0.134669 0.054873
O O11 0.135402 0.215694 0.025356
O O12 0.129862 0.122061 0.961468
O O13 0.304462 0.186379 0.955860
O O14 0.000000 0.045486 0.916917
O O15 0.500000 0.376324 0.568002
O O16 0.639795 0.408798 0.650844
O O17 0.250000 0.375797 0.750000
O O18 0.000000 0.378899 0.761313
O O19 0.500000 0.276125 0.407526
#
# Coordination Sequence:
#
# PCOD9478568 Si02
#       8
#     8  16  16  16  16  16  16  16
#     4  10  22  38  62  88 112 142 190 236 312 368
#     4  10  21  38  59  86 119 158 198 240 286 341
#     4  10  20  35  52  82 118 157 195 234 273 332
#     4  10  20  36  52  82 114 152 200 232 292 344
#     4  10  20  38  60  83 114 148 190 243 298 353
#     4  10  20  38  60  83 114 148 190 243 298 353
#     4  10  21  38  59  86 119 158 198 240 286 341
#     4  11  21  33  53  82 119 155 198 242 285 344
#
# _framework density 19.167200000000001
#
# number of rings (size 3 to 8) (size 9 to 14) (size 15 to 20)
#    0.000    1.867    2.667    1.600    0.000    4.267 
#    0.000    3.333    0.000    3.200    0.000    0.000 
#    0.000    0.000    0.000    0.000    0.000    0.000 
#
# Total GULP energy -334160.965285 kJ/mol
# GULP energy per Si atom -5569.349421 kJ/mol
# Density = 1.912357 g / cm^3
# Si number density = 19.167200 Si / 1000 Ang^3
#
#
#
# Elastic Constant Matrix: (Units=GPa)
#
#
# Indices 1 2 3 4 5 6 
#
# 1 139.3807 11.6720 46.7081 0.0000 0.0000 0.0000
# 2 11.6720 37.6855 5.6450 0.0000 0.0000 0.0000
# 3 46.7081 5.6450 68.7874 0.0000 0.0000 0.0000
# 4 0.0000 0.0000 0.0000 27.7348 0.0000 0.0000
# 5 0.0000 0.0000 0.0000 0.0000 14.0385 0.0000
# 6 0.0000 0.0000 0.0000 0.0000 0.0000 -1.1904
#
#
#
# Elastic Compliance Matrix: (Units=1/GPa)
#
#
# Indices 1 2 3 4 5 6 
#
# 1 0.009433 -0.001987 -0.006242 0.000000 0.000000 0.000000
# 2 -0.001987 0.027284 -0.000890 0.000000 0.000000 0.000000
# 3 -0.006242 -0.000890 0.018849 0.000000 0.000000 0.000000
# 4 0.000000 0.000000 0.000000 0.036056 0.000000 0.000000
# 5 0.000000 0.000000 0.000000 0.000000 0.071233 0.000000
# 6 0.000000 0.000000 0.000000 0.000000 0.000000 -0.840021
#
#
# Mechanical properties :
#
#
# Convention : Reuss Voigt Hill
#
# Bulk Modulus (GPa) = 26.78927 41.54489 34.16708
# Shear Modulus (GPa) = -7.73411 20.23846 6.25218
#
# Velocity S-wave (km/s) = -2.01093 3.25297 1.80804
# Velocity P-wave (km/s) = 2.93516 5.98591 4.71415
#
# Compressibility (1/GPa) = 0.03732838
#
# Stress axis : x y z
#
# Youngs Moduli (GPa) = 106.01404 36.65154 53.05307
#
# Poissons Ratio (x) = 0.07281 0.33116
# Poissons Ratio (y) = 0.21060 0.04723
# Poissons Ratio (z) = 0.66174 0.03263
#
# Static dielectric constant tensor:
#      x y z
#    x 1.693470 0.000000 0.000000 
#    y 0.000000 1.674700 0.000000 
#    z 0.000000 0.000000 1.649330 
# 
# From -- ./inp_files/38515.got.cif
#   From: 2010.05.17/outbox.cif.g08.bks.cpg/sg64_20_cif.got.tgz:38515.got - 2010.06.03 16:29:19.
