data_PCOD9478097
_publ_section_title
;
Structure prediction by ZEFSAII (Michael W. Deem and Ramdas Pophale) SiO2 
 PCOD9478097
Probable space group: C M C A
;
_chemical_formula_sum "Si O2"
_cell_formula_units_Z 64
_cell_length_a 12.128937
_cell_length_b 18.610514
_cell_length_c 12.083247
_cell_angle_alpha 90.000000
_cell_angle_beta 90.000000
_cell_angle_gamma 90.000000
_cell_volume 2727.500014
_symmetry_space_group_name_H-M "C M C A"
_symmetry_group_IT_number 64
_symmetry_cell_setting 'orthorhombic'
loop_
_space_group_symop_operation_xyz
x,y,z
-x,1/2-y,1/2+z
x,-y,-z
-x,1/2+y,1/2-z
-x,-y,-z
x,1/2+y,1/2-z
-x,y,z
x,1/2-y,1/2+z
1/2+x,1/2+y,z
1/2-x,-y,1/2+z
1/2+x,1/2-y,-z
1/2-x,y,1/2-z
1/2-x,1/2-y,-z
1/2+x,y,1/2-z
1/2-x,1/2+y,z
1/2+x,-y,1/2+z
loop_
_atom_site_type_symbol
_atom_site_label
_atom_site_fract_x
_atom_site_fract_y
_atom_site_fract_z
Si Si1 0.375154 0.578567 0.976914
Si Si2 0.120884 0.675137 0.923040
Si Si3 0.873205 0.958245 0.267864
Si Si4 0.242971 0.688139 0.124996
O O1 0.500000 0.574700 0.018301
O O2 0.318811 0.639629 0.046571
O O3 0.324728 0.500000 0.000000
O O4 0.378500 0.588312 0.845209
O O5 0.135418 0.595607 0.872380
O O6 0.210692 0.731026 0.878724
O O7 0.000000 0.699727 0.887132
O O8 0.130362 0.679955 0.056333
O O9 0.750000 0.994796 0.250000
O O10 0.000000 0.992084 0.274285
O O11 0.250000 0.663428 0.250000
#
# Coordination Sequence:
#
# PCOD9478097 Si02
#       4
#    16  16  16  16
#     4  10  22  40  63  89 122 168 215 257 307 374
#     4  10  22  38  61  92 125 160 203 257 324 385
#     4  10  19  37  64  91 120 161 210 256 310 373
#     4  11  23  38  59  91 125 160 203 264 317 376
#
# _framework density 23.46471
#
# number of rings (size 3 to 8) (size 9 to 14) (size 15 to 20)
#    0.000    1.750    2.500    1.500    3.500    3.000 
#    0.000    0.000    0.000    3.000    0.000    0.000 
#    0.000    0.000    0.000    0.000    0.000    0.000 
#
# Total GULP energy -178240.567985 kJ/mol
# GULP energy per Si atom -5570.017750 kJ/mol
# Density = 2.341130 g / cm^3
# Si number density = 23.464710 Si / 1000 Ang^3
#
#
#
# Elastic Constant Matrix: (Units=GPa)
#
#
# Indices 1 2 3 4 5 6 
#
# 1 139.5648 22.5089 -1.4350 0.0000 0.0000 0.0000
# 2 22.5089 54.0040 6.8566 0.0000 0.0000 0.0000
# 3 -1.4350 6.8566 131.3443 0.0000 0.0000 0.0000
# 4 0.0000 0.0000 0.0000 13.9563 0.0000 0.0000
# 5 0.0000 0.0000 0.0000 0.0000 21.8846 0.0000
# 6 0.0000 0.0000 0.0000 0.0000 0.0000 11.3204
#
#
#
# Elastic Compliance Matrix: (Units=1/GPa)
#
#
# Indices 1 2 3 4 5 6 
#
# 1 0.007690 -0.003237 0.000253 0.000000 0.000000 0.000000
# 2 -0.003237 0.020004 -0.001080 0.000000 0.000000 0.000000
# 3 0.000253 -0.001080 0.007673 0.000000 0.000000 0.000000
# 4 0.000000 0.000000 0.000000 0.071652 0.000000 0.000000
# 5 0.000000 0.000000 0.000000 0.000000 0.045694 0.000000
# 6 0.000000 0.000000 0.000000 0.000000 0.000000 0.088336
#
#
# Mechanical properties :
#
#
# Convention : Reuss Voigt Hill
#
# Bulk Modulus (GPa) = 36.71296 42.30822 39.51059
# Shear Modulus (GPa) = 19.36064 29.23110 24.29587
#
# Velocity S-wave (km/s) = 2.87556 3.53334 3.22129
# Velocity P-wave (km/s) = 5.16770 5.89201 5.54170
#
# Compressibility (1/GPa) = 0.02723834
#
# Stress axis : x y z
#
# Youngs Moduli (GPa) = 130.04185 49.99125 130.33219
#
# Poissons Ratio (x) = 0.16183 -0.03298
# Poissons Ratio (y) = 0.42098 0.14071
# Poissons Ratio (z) = -0.03290 0.05397
#
# Static dielectric constant tensor:
#      x y z
#    x 2.044310 0.000000 0.000000 
#    y 0.000000 1.879930 0.000000 
#    z 0.000000 0.000000 1.947190 
# 
# From -- ./inp_files/12791.got.cif
#   From: 2010.05.17/outbox.cif.g08.bks.cpg/sg64_7_cif.got.tgz:12791.got - 2010.06.03 16:29:19.
