data_PCOD9478677
_publ_section_title
;
Structure prediction by ZEFSAII (Michael W. Deem and Ramdas Pophale) SiO2 
 PCOD9478677
Probable space group: C M C A
;
_chemical_formula_sum "Si O2"
_cell_formula_units_Z 128
_cell_length_a 25.228020
_cell_length_b 23.414918
_cell_length_c 12.268812
_cell_angle_alpha 90.000000
_cell_angle_beta 90.000000
_cell_angle_gamma 90.000000
_cell_volume 7247.334715
_symmetry_space_group_name_H-M "C M C A"
_symmetry_group_IT_number 64
_symmetry_cell_setting 'orthorhombic'
loop_
_space_group_symop_operation_xyz
x,y,z
-x,1/2-y,1/2+z
x,-y,-z
-x,1/2+y,1/2-z
-x,-y,-z
x,1/2+y,1/2-z
-x,y,z
x,1/2-y,1/2+z
1/2+x,1/2+y,z
1/2-x,-y,1/2+z
1/2+x,1/2-y,-z
1/2-x,y,1/2-z
1/2-x,1/2-y,-z
1/2+x,y,1/2-z
1/2-x,1/2+y,z
1/2+x,-y,1/2+z
loop_
_atom_site_type_symbol
_atom_site_label
_atom_site_fract_x
_atom_site_fract_y
_atom_site_fract_z
Si Si1 0.749243 0.313189 0.449332
Si Si2 0.892701 0.306154 0.788793
Si Si3 0.208734 0.619879 0.152669
Si Si4 0.779716 0.006389 0.627668
Si Si5 0.061930 0.194892 0.055309
Si Si6 0.345765 0.378004 0.359142
Si Si7 0.133914 0.177234 0.852676
Si Si8 0.058761 0.670433 0.991035
O O1 0.750000 0.250000 0.500000
O O2 0.739381 0.357259 0.547153
O O3 0.698938 0.327918 0.372993
O O4 0.805381 0.321835 0.392548
O O5 0.839132 0.338310 0.821009
O O6 0.912147 0.321560 0.669403
O O7 0.881780 0.238578 0.801339
O O8 0.935222 0.324411 0.879245
O O9 0.250000 0.621841 0.250000
O O10 0.191331 0.554542 0.138308
O O11 0.750000 0.011755 0.750000
O O12 0.816489 0.062111 0.624626
O O13 0.755103 0.000000 0.500000
O O14 0.065507 0.264127 0.049071
O O15 0.000000 0.180009 0.048851
O O16 0.095475 0.170074 0.955474
O O17 0.369986 0.370480 0.239513
O O18 0.392868 0.365907 0.443565
O O19 0.000000 0.650514 0.959759
#
# Coordination Sequence:
#
# PCOD9478677 Si02
#       8
#    16  16  16  16  16  16  16  16
#     4  12  21  34  55  87 125 154 188 243 300 366
#     4  11  19  37  55  86 122 158 200 243 306 371
#     4  11  23  35  58  85 122 162 200 243 297 368
#     4  11  23  43  62  86 121 167 214 250 302 368
#     4  10  21  37  56  83 123 161 198 245 305 376
#     4  12  23  40  59  87 122 161 199 257 301 361
#     4  11  23  33  55  87 121 155 199 243 309 359
#     4  10  20  35  57  86 116 157 204 250 308 365
#
# _framework density 17.661666
#
# number of rings (size 3 to 8) (size 9 to 14) (size 15 to 20)
#    0.000    1.000    5.000    3.000    1.750    1.000 
#    0.000    0.000    0.000    4.125    0.000    0.875 
#    0.000    0.000    0.000    0.000    0.000    0.000 
#
# Total GULP energy -356770.438454 kJ/mol
# GULP energy per Si atom -5574.538101 kJ/mol
# Density = 1.762147 g / cm^3
# Si number density = 17.661666 Si / 1000 Ang^3
#
#
#
# Elastic Constant Matrix: (Units=GPa)
#
#
# Indices 1 2 3 4 5 6 
#
# 1 78.9866 10.2975 43.0248 0.0000 0.0000 0.0000
# 2 10.2975 65.6302 24.5868 0.0000 0.0000 0.0000
# 3 43.0248 24.5868 141.8485 0.0000 0.0000 0.0000
# 4 0.0000 0.0000 0.0000 22.4554 0.0000 0.0000
# 5 0.0000 0.0000 0.0000 0.0000 10.1705 0.0000
# 6 0.0000 0.0000 0.0000 0.0000 0.0000 10.3298
#
#
#
# Elastic Compliance Matrix: (Units=1/GPa)
#
#
# Indices 1 2 3 4 5 6 
#
# 1 0.015196 -0.000703 -0.004487 0.000000 0.000000 0.000000
# 2 -0.000703 0.016328 -0.002617 0.000000 0.000000 0.000000
# 3 -0.004487 -0.002617 0.008864 0.000000 0.000000 0.000000
# 4 0.000000 0.000000 0.000000 0.044533 0.000000 0.000000
# 5 0.000000 0.000000 0.000000 0.000000 0.098324 0.000000
# 6 0.000000 0.000000 0.000000 0.000000 0.000000 0.096807
#
#
# Mechanical properties :
#
#
# Convention : Reuss Voigt Hill
#
# Bulk Modulus (GPa) = 40.36564 49.14261 44.75412
# Shear Modulus (GPa) = 16.45146 22.49490 19.47318
#
# Velocity S-wave (km/s) = 3.05532 3.57270 3.32410
# Velocity P-wave (km/s) = 5.94569 6.70103 6.33463
#
# Compressibility (1/GPa) = 0.02477355
#
# Stress axis : x y z
#
# Youngs Moduli (GPa) = 65.80512 61.24622 112.81028
#
# Poissons Ratio (x) = 0.04307 0.50622
# Poissons Ratio (y) = 0.04628 0.29520
# Poissons Ratio (z) = 0.29529 0.16027
#
# Static dielectric constant tensor:
#      x y z
#    x 1.596800 0.000000 0.000000 
#    y 0.000000 1.584390 0.000000 
#    z 0.000000 0.000000 1.691340 
# 
# From -- ./inp_files/19412.got.cif
#   From: 2010.05.17/outbox.cif.g08.bks.cpg/sg64_10_cif.got.tgz:19412.got - 2010.06.03 16:29:19.
