data_PCOD9478703
_publ_section_title
;
Structure prediction by ZEFSAII (Michael W. Deem and Ramdas Pophale) SiO2 
 PCOD9478703
Probable space group: C M C A
;
_chemical_formula_sum "Si O2"
_cell_formula_units_Z 96
_cell_length_a 20.912137
_cell_length_b 12.352656
_cell_length_c 20.731938
_cell_angle_alpha 90.000000
_cell_angle_beta 90.000000
_cell_angle_gamma 90.000000
_cell_volume 5355.483234
_symmetry_space_group_name_H-M "C M C A"
_symmetry_group_IT_number 64
_symmetry_cell_setting 'orthorhombic'
loop_
_space_group_symop_operation_xyz
x,y,z
-x,1/2-y,1/2+z
x,-y,-z
-x,1/2+y,1/2-z
-x,-y,-z
x,1/2+y,1/2-z
-x,y,z
x,1/2-y,1/2+z
1/2+x,1/2+y,z
1/2-x,-y,1/2+z
1/2+x,1/2-y,-z
1/2-x,y,1/2-z
1/2-x,1/2-y,-z
1/2+x,y,1/2-z
1/2-x,1/2+y,z
1/2+x,-y,1/2+z
loop_
_atom_site_type_symbol
_atom_site_label
_atom_site_fract_x
_atom_site_fract_y
_atom_site_fract_z
Si Si1 0.830275 0.920567 0.681740
Si Si2 0.691807 0.466042 0.831199
Si Si3 0.628097 0.177100 0.662794
Si Si4 0.924653 0.383098 0.476326
Si Si5 0.073534 0.112691 0.699215
Si Si6 0.925268 0.329262 0.615091
O O1 0.762076 0.931711 0.645930
O O2 0.815988 0.926935 0.757964
O O3 0.858986 0.803511 0.668509
O O4 0.879136 0.020097 0.672809
O O5 0.688619 0.596358 0.832089
O O6 0.629189 0.415486 0.865257
O O7 0.601601 0.155389 0.591551
O O8 0.586994 0.138686 0.725117
O O9 0.899058 0.500000 0.500000
O O10 0.916176 0.307068 0.538896
O O11 0.000000 0.396550 0.466373
O O12 0.082493 0.223337 0.659008
O O13 0.000000 0.077606 0.692604
O O14 0.000000 0.367395 0.623167
#
# Coordination Sequence:
#
# PCOD9478703 Si02
#       6
#    16  16  16  16  16  16
#     4  10  23  36  58  90 120 158 195 246 300 358
#     4  10  21  36  59  85 120 154 198 246 295 351
#     4  11  21  37  60  89 114 155 203 247 294 351
#     4  10  20  35  58  88 119 151 194 248 304 349
#     4  10  22  38  60  91 123 155 197 249 302 355
#     4  10  20  38  61  85 119 158 194 246 303 347
#
# _framework density 17.925553000000001
#
# number of rings (size 3 to 8) (size 9 to 14) (size 15 to 20)
#    0.000    1.833    3.333    0.500    2.333    5.333 
#    0.000    1.667    3.667    3.000    0.000    0.000 
#    0.000    0.000    0.000    0.000    0.000    0.000 
#
# Total GULP energy -267308.019382 kJ/mol
# GULP energy per Si atom -5568.917070 kJ/mol
# Density = 1.788475 g / cm^3
# Si number density = 17.925553 Si / 1000 Ang^3
#
#
#
# Elastic Constant Matrix: (Units=GPa)
#
#
# Indices 1 2 3 4 5 6 
#
# 1 102.5364 50.8656 25.5499 0.0000 0.0000 0.0000
# 2 50.8656 85.5236 37.8548 0.0000 0.0000 0.0000
# 3 25.5499 37.8548 107.1349 0.0000 0.0000 0.0000
# 4 0.0000 0.0000 0.0000 23.7258 0.0000 0.0000
# 5 0.0000 0.0000 0.0000 0.0000 6.5857 0.0000
# 6 0.0000 0.0000 0.0000 0.0000 0.0000 -2.5741
#
#
#
# Elastic Compliance Matrix: (Units=1/GPa)
#
#
# Indices 1 2 3 4 5 6 
#
# 1 0.013854 -0.008034 -0.000465 0.000000 0.000000 0.000000
# 2 -0.008034 0.018519 -0.004628 0.000000 0.000000 0.000000
# 3 -0.000465 -0.004628 0.011080 0.000000 0.000000 0.000000
# 4 0.000000 0.000000 0.000000 0.042148 0.000000 0.000000
# 5 0.000000 0.000000 0.000000 0.000000 0.151845 0.000000
# 6 0.000000 0.000000 0.000000 0.000000 0.000000 -0.388486
#
#
# Mechanical properties :
#
#
# Convention : Reuss Voigt Hill
#
# Bulk Modulus (GPa) = 58.14009 58.19285 58.16647
# Shear Modulus (GPa) = -41.99800 17.60911 -12.19445
#
# Velocity S-wave (km/s) = -4.84562 3.13764 -2.61105
# Velocity P-wave (km/s) = 1.09451 6.75725 4.84037
#
# Compressibility (1/GPa) = 0.01719983
#
# Stress axis : x y z
#
# Youngs Moduli (GPa) = 72.18194 53.99847 90.25197
#
# Poissons Ratio (x) = 0.43381 0.04200
# Poissons Ratio (y) = 0.57989 0.41765
# Poissons Ratio (z) = 0.03359 0.24988
#
# Static dielectric constant tensor:
#      x y z
#    x 1.675570 0.000000 0.000000 
#    y 0.000000 1.616960 0.000000 
#    z 0.000000 0.000000 1.615990 
# 
# From -- ./inp_files/34957.got.cif
#   From: 2010.05.17/outbox.cif.g08.bks.cpg/sg64_18_cif.got.tgz:34957.got - 2010.06.03 16:29:19.
