data_PCOD9478462
_publ_section_title
;
Structure prediction by ZEFSAII (Michael W. Deem and Ramdas Pophale) SiO2 
 PCOD9478462
Probable space group: C M C A
;
_chemical_formula_sum "Si O2"
_cell_formula_units_Z 112
_cell_length_a 18.758708
_cell_length_b 23.306641
_cell_length_c 13.706360
_cell_angle_alpha 90.000000
_cell_angle_beta 90.000000
_cell_angle_gamma 90.000000
_cell_volume 5992.454488
_symmetry_space_group_name_H-M "C M C A"
_symmetry_group_IT_number 64
_symmetry_cell_setting 'orthorhombic'
loop_
_space_group_symop_operation_xyz
x,y,z
-x,1/2-y,1/2+z
x,-y,-z
-x,1/2+y,1/2-z
-x,-y,-z
x,1/2+y,1/2-z
-x,y,z
x,1/2-y,1/2+z
1/2+x,1/2+y,z
1/2-x,-y,1/2+z
1/2+x,1/2-y,-z
1/2-x,y,1/2-z
1/2-x,1/2-y,-z
1/2+x,y,1/2-z
1/2-x,1/2+y,z
1/2+x,-y,1/2+z
loop_
_atom_site_type_symbol
_atom_site_label
_atom_site_fract_x
_atom_site_fract_y
_atom_site_fract_z
Si Si1 0.172198 0.047970 0.714459
Si Si2 0.914711 0.220878 0.249106
Si Si3 0.081940 0.345791 0.948924
Si Si4 0.083089 0.159805 0.667402
Si Si5 0.156901 0.883457 0.837974
Si Si6 0.082129 0.990042 0.888853
Si Si7 0.805428 0.571250 0.121317
O O1 0.250000 0.065927 0.750000
O O2 0.128604 0.102640 0.679282
O O3 0.129955 0.020793 0.807008
O O4 0.186160 0.997023 0.635190
O O5 0.903127 0.196747 0.358632
O O6 0.896028 0.287432 0.236523
O O7 0.867853 0.181641 0.176046
O O8 0.000000 0.215003 0.228477
O O9 0.135409 0.399334 0.944902
O O10 0.000000 0.365561 0.936884
O O11 0.088401 0.318620 0.055585
O O12 0.000000 0.145858 0.685602
O O13 0.175873 0.904705 0.729075
O O14 0.226439 0.903554 0.899212
O O15 0.091182 0.922247 0.871261
O O16 0.000000 0.007965 0.878763
O O17 0.105598 0.000000 0.000000
#
# Coordination Sequence:
#
# PCOD9478462 Si02
#       7
#    16  16  16  16  16  16  16
#     4  11  21  39  55  82 118 156 184 233 299 344
#     4   9  18  36  60  81 110 151 193 241 284 336
#     4   9  19  36  59  87 113 147 197 241 289 344
#     4  10  22  39  58  86 120 151 191 241 289 347
#     4   9  16  33  55  79 108 146 188 236 281 333
#     4  10  20  34  54  82 111 146 194 239 284 348
#     4   9  17  33  56  81 111 144 185 231 288 340
#
# _framework density 18.690170999999999
#
# number of rings (size 3 to 8) (size 9 to 14) (size 15 to 20)
#    0.000    2.429    2.857    0.857    0.000    5.714 
#    7.714    2.143    0.000    0.000    0.000    0.000 
#    0.000    0.000    0.000    0.000    0.000    0.000 
#
# Total GULP energy -311855.625268 kJ/mol
# GULP energy per Si atom -5568.850451 kJ/mol
# Density = 1.864763 g / cm^3
# Si number density = 18.690171 Si / 1000 Ang^3
#
#
#
# Elastic Constant Matrix: (Units=GPa)
#
#
# Indices 1 2 3 4 5 6 
#
# 1 75.9398 48.2075 31.7320 0.0000 0.0000 0.0000
# 2 48.2075 109.8566 23.7532 0.0000 0.0000 0.0000
# 3 31.7320 23.7532 50.8337 0.0000 0.0000 0.0000
# 4 0.0000 0.0000 0.0000 18.0914 0.0000 0.0000
# 5 0.0000 0.0000 0.0000 0.0000 13.0396 0.0000
# 6 0.0000 0.0000 0.0000 0.0000 0.0000 25.1545
#
#
#
# Elastic Compliance Matrix: (Units=1/GPa)
#
#
# Indices 1 2 3 4 5 6 
#
# 1 0.022297 -0.007536 -0.010397 0.000000 0.000000 0.000000
# 2 -0.007536 0.012673 -0.001217 0.000000 0.000000 0.000000
# 3 -0.010397 -0.001217 0.026731 0.000000 0.000000 0.000000
# 4 0.000000 0.000000 0.000000 0.055275 0.000000 0.000000
# 5 0.000000 0.000000 0.000000 0.000000 0.076690 0.000000
# 6 0.000000 0.000000 0.000000 0.000000 0.000000 0.039754
#
#
# Mechanical properties :
#
#
# Convention : Reuss Voigt Hill
#
# Bulk Modulus (GPa) = 42.73565 49.33507 46.03536
# Shear Modulus (GPa) = 17.88773 20.11958 19.00365
#
# Velocity S-wave (km/s) = 3.09701 3.28453 3.19215
# Velocity P-wave (km/s) = 5.97524 6.39044 6.18633
#
# Compressibility (1/GPa) = 0.02339967
#
# Stress axis : x y z
#
# Youngs Moduli (GPa) = 44.84923 78.90725 37.40988
#
# Poissons Ratio (x) = 0.59467 0.38895
# Poissons Ratio (y) = 0.33800 0.04554
# Poissons Ratio (z) = 0.46629 0.09606
#
# Static dielectric constant tensor:
#      x y z
#    x 1.677470 0.000000 0.000000 
#    y 0.000000 1.639120 0.000000 
#    z 0.000000 0.000000 1.661940 
# 
# From -- ./inp_files/24222.got.cif
#   From: 2010.05.17/outbox.cif.g08.bks.cpg/sg64_13_cif.got.tgz:24222.got - 2010.06.03 16:29:19.
