data_PCOD9478124
_publ_section_title
;
Structure prediction by ZEFSAII (Michael W. Deem and Ramdas Pophale) SiO2 
 PCOD9478124
Probable space group: C M C A
;
_chemical_formula_sum "Si O2"
_cell_formula_units_Z 88
_cell_length_a 18.965463
_cell_length_b 16.013259
_cell_length_c 13.610605
_cell_angle_alpha 90.000000
_cell_angle_beta 90.000000
_cell_angle_gamma 90.000000
_cell_volume 4133.525373
_symmetry_space_group_name_H-M "C M C A"
_symmetry_group_IT_number 64
_symmetry_cell_setting 'orthorhombic'
loop_
_space_group_symop_operation_xyz
x,y,z
-x,1/2-y,1/2+z
x,-y,-z
-x,1/2+y,1/2-z
-x,-y,-z
x,1/2+y,1/2-z
-x,y,z
x,1/2-y,1/2+z
1/2+x,1/2+y,z
1/2-x,-y,1/2+z
1/2+x,1/2-y,-z
1/2-x,y,1/2-z
1/2-x,1/2-y,-z
1/2+x,y,1/2-z
1/2-x,1/2+y,z
1/2+x,-y,1/2+z
loop_
_atom_site_type_symbol
_atom_site_label
_atom_site_fract_x
_atom_site_fract_y
_atom_site_fract_z
Si Si1 0.250000 0.857139 0.250000
Si Si2 0.581585 0.868737 0.774175
Si Si3 0.363914 0.404477 0.510433
Si Si4 0.352321 0.986638 0.338542
Si Si5 0.147951 0.262093 0.120532
Si Si6 0.699036 0.890502 0.515383
O O1 0.314024 0.920399 0.270015
O O2 0.219640 0.795842 0.331131
O O3 0.500000 0.854695 0.796561
O O4 0.622878 0.875251 0.877608
O O5 0.608322 0.794260 0.702173
O O6 0.590011 0.958242 0.717143
O O7 0.388965 0.500000 0.500000
O O8 0.393445 0.338665 0.430483
O O9 0.279868 0.403315 0.486427
O O10 0.356284 0.931477 0.438437
O O11 0.303558 0.061151 0.380476
O O12 0.172641 0.201661 0.033402
#
# Coordination Sequence:
#
# PCOD9478124 Si02
#       6
#     8  16  16  16  16  16
#     4  12  20  36  66 106 132 158 218 286 364 388
#     4  11  27  46  63  94 140 193 235 260 325 418
#     4  12  22  42  70 101 135 174 224 294 346 402
#     4  10  20  37  64  92 130 170 215 286 333 398
#     4  11  24  38  66 100 139 176 217 288 341 403
#     4  10  19  38  62 101 133 160 222 285 361 393
#
# _framework density 21.289332999999999
#
# number of rings (size 3 to 8) (size 9 to 14) (size 15 to 20)
#    0.000    1.091    3.636    3.818    2.545    4.000 
#    0.000   10.000    0.000    0.000    0.000    0.000 
#    0.000    0.000    0.000    0.000    0.000    0.000 
#
# Total GULP energy -244940.304452 kJ/mol
# GULP energy per Si atom -5566.825101 kJ/mol
# Density = 2.124088 g / cm^3
# Si number density = 21.289333 Si / 1000 Ang^3
#
#
#
# Elastic Constant Matrix: (Units=GPa)
#
#
# Indices 1 2 3 4 5 6 
#
# 1 29.9639 16.5212 14.6281 0.0000 0.0000 0.0000
# 2 16.5212 147.7087 58.2872 0.0000 0.0000 0.0000
# 3 14.6281 58.2872 108.8160 0.0000 0.0000 0.0000
# 4 0.0000 0.0000 0.0000 36.2436 0.0000 0.0000
# 5 0.0000 0.0000 0.0000 0.0000 4.4727 0.0000
# 6 0.0000 0.0000 0.0000 0.0000 0.0000 11.9103
#
#
#
# Elastic Compliance Matrix: (Units=1/GPa)
#
#
# Indices 1 2 3 4 5 6 
#
# 1 0.036563 -0.002726 -0.003455 0.000000 0.000000 0.000000
# 2 -0.002726 0.008788 -0.004341 0.000000 0.000000 0.000000
# 3 -0.003455 -0.004341 0.011979 0.000000 0.000000 0.000000
# 4 0.000000 0.000000 0.000000 0.027591 0.000000 0.000000
# 5 0.000000 0.000000 0.000000 0.000000 0.223578 0.000000
# 6 0.000000 0.000000 0.000000 0.000000 0.000000 0.083961
#
#
# Mechanical properties :
#
#
# Convention : Reuss Voigt Hill
#
# Bulk Modulus (GPa) = 27.55822 51.70686 39.63254
# Shear Modulus (GPa) = 11.74811 23.66213 17.70512
#
# Velocity S-wave (km/s) = 2.35166 3.33747 2.88695
# Velocity P-wave (km/s) = 4.51070 6.26035 5.45612
#
# Compressibility (1/GPa) = 0.03628682
#
# Stress axis : x y z
#
# Youngs Moduli (GPa) = 27.34982 113.79262 83.47680
#
# Poissons Ratio (x) = 0.31023 0.28840
# Poissons Ratio (y) = 0.07456 0.36235
# Poissons Ratio (z) = 0.09449 0.49394
#
# Static dielectric constant tensor:
#      x y z
#    x 1.726750 0.000000 0.000000 
#    y 0.000000 1.857440 0.000000 
#    z 0.000000 0.000000 1.915070 
# 
# From -- ./inp_files/25429.got.cif
#   From: 2010.05.17/outbox.cif.g08.bks.cpg/sg64_13_cif.got.tgz:25429.got - 2010.06.03 16:29:19.
