data_PCOD9478384
_publ_section_title
;
Structure prediction by ZEFSAII (Michael W. Deem and Ramdas Pophale) SiO2 
 PCOD9478384
Probable space group: C M C A
;
_chemical_formula_sum "Si O2"
_cell_formula_units_Z 128
_cell_length_a 21.107321
_cell_length_b 28.992992
_cell_length_c 11.425146
_cell_angle_alpha 90.000000
_cell_angle_beta 90.000000
_cell_angle_gamma 90.000000
_cell_volume 6991.782490
_symmetry_space_group_name_H-M "C M C A"
_symmetry_group_IT_number 64
_symmetry_cell_setting 'orthorhombic'
loop_
_space_group_symop_operation_xyz
x,y,z
-x,1/2-y,1/2+z
x,-y,-z
-x,1/2+y,1/2-z
-x,-y,-z
x,1/2+y,1/2-z
-x,y,z
x,1/2-y,1/2+z
1/2+x,1/2+y,z
1/2-x,-y,1/2+z
1/2+x,1/2-y,-z
1/2-x,y,1/2-z
1/2-x,1/2-y,-z
1/2+x,y,1/2-z
1/2-x,1/2+y,z
1/2+x,-y,1/2+z
loop_
_atom_site_type_symbol
_atom_site_label
_atom_site_fract_x
_atom_site_fract_y
_atom_site_fract_z
Si Si1 0.747653 0.216230 0.885456
Si Si2 0.076608 0.519621 0.123088
Si Si3 0.076954 0.572210 0.748133
Si Si4 0.116263 0.161781 0.632095
Si Si5 0.077941 0.387988 0.757034
Si Si6 0.886578 0.698153 0.618803
Si Si7 0.927549 0.800863 0.606100
Si Si8 0.073113 0.389319 0.498103
O O1 0.750000 0.236815 0.750000
O O2 0.685723 0.183785 0.889590
O O3 0.812220 0.186925 0.891047
O O4 0.750000 0.250000 0.000000
O O5 0.089846 0.480415 0.219069
O O6 0.098495 0.570267 0.159657
O O7 0.000000 0.522917 0.114083
O O8 0.100290 0.500000 0.000000
O O9 0.110226 0.607906 0.836918
O O10 0.098601 0.585555 0.617379
O O11 0.000000 0.579481 0.756897
O O12 0.091208 0.186306 0.750257
O O13 0.076057 0.174366 0.518989
O O14 0.099032 0.337997 0.802324
O O15 0.100630 0.397757 0.625670
O O16 0.000000 0.386653 0.757711
O O17 0.893023 0.752231 0.598607
O O18 0.922803 0.665199 0.529830
O O19 0.000000 0.790522 0.637294
O O20 0.000000 0.403680 0.504997
#
# Coordination Sequence:
#
# PCOD9478384 Si02
#       8
#    16  16  16  16  16  16  16  16
#     4  10  20  36  54  72  98 131 175 223 260 303
#     4   9  16  28  47  70 102 137 168 206 255 308
#     4   9  17  30  50  73 101 137 168 209 263 316
#     4  10  20  34  50  71  99 125 175 216 255 308
#     4   9  19  31  45  72 106 139 172 210 256 308
#     4  10  21  34  50  70  99 137 176 210 259 309
#     4  11  21  30  47  71 102 140 171 206 257 309
#     4   9  18  32  47  69 105 135 171 215 254 311
#
# _framework density 18.307206000000001
#
# number of rings (size 3 to 8) (size 9 to 14) (size 15 to 20)
#    0.000    2.375    1.250    1.500    1.750    4.000 
#    0.000    2.500    0.000    0.000    0.000    0.000 
#   52.500    0.000    0.000    0.000    0.000    0.000 
#
# Total GULP energy -356372.117883 kJ/mol
# GULP energy per Si atom -5568.314342 kJ/mol
# Density = 1.826554 g / cm^3
# Si number density = 18.307206 Si / 1000 Ang^3
#
#
#
# Elastic Constant Matrix: (Units=GPa)
#
#
# Indices 1 2 3 4 5 6 
#
# 1 30.2819 2.5333 -0.5348 0.0000 0.0000 0.0000
# 2 2.5333 56.2478 6.7754 0.0000 0.0000 0.0000
# 3 -0.5348 6.7754 72.2859 0.0000 0.0000 0.0000
# 4 0.0000 0.0000 0.0000 20.4509 0.0000 0.0000
# 5 0.0000 0.0000 0.0000 0.0000 13.9533 0.0000
# 6 0.0000 0.0000 0.0000 0.0000 0.0000 7.1369
#
#
#
# Elastic Compliance Matrix: (Units=1/GPa)
#
#
# Indices 1 2 3 4 5 6 
#
# 1 0.033159 -0.001540 0.000390 0.000000 0.000000 0.000000
# 2 -0.001540 0.018053 -0.001704 0.000000 0.000000 0.000000
# 3 0.000390 -0.001704 0.013997 0.000000 0.000000 0.000000
# 4 0.000000 0.000000 0.000000 0.048898 0.000000 0.000000
# 5 0.000000 0.000000 0.000000 0.000000 0.071667 0.000000
# 6 0.000000 0.000000 0.000000 0.000000 0.000000 0.140116
#
#
# Mechanical properties :
#
#
# Convention : Reuss Voigt Hill
#
# Bulk Modulus (GPa) = 16.80672 19.59593 18.20133
# Shear Modulus (GPa) = 14.22753 18.31100 16.26926
#
# Velocity S-wave (km/s) = 2.79077 3.16604 2.98431
# Velocity P-wave (km/s) = 4.42548 4.90838 4.67317
#
# Compressibility (1/GPa) = 0.05950000
#
# Stress axis : x y z
#
# Youngs Moduli (GPa) = 30.15791 55.39227 71.44636
#
# Poissons Ratio (x) = 0.08532 -0.02784
# Poissons Ratio (y) = 0.04645 0.12171
# Poissons Ratio (z) = -0.01175 0.09436
#
# Static dielectric constant tensor:
#      x y z
#    x 1.625510 0.000000 0.000000 
#    y 0.000000 1.643270 0.000000 
#    z 0.000000 0.000000 1.677030 
# 
# From -- ./inp_files/18741.got.cif
#   From: 2010.05.17/outbox.cif.g08.bks.cpg/sg64_10_cif.got.tgz:18741.got - 2010.06.03 16:29:19.
