data_PCOD9478861
_publ_section_title
;
Structure prediction by ZEFSAII (Michael W. Deem and Ramdas Pophale) SiO2 
 PCOD9478861
Probable space group: C M C A
;
_chemical_formula_sum "Si O2"
_cell_formula_units_Z 96
_cell_length_a 8.315414
_cell_length_b 27.727321
_cell_length_c 19.569732
_cell_angle_alpha 90.000000
_cell_angle_beta 90.000000
_cell_angle_gamma 90.000000
_cell_volume 4512.078687
_symmetry_space_group_name_H-M "C M C A"
_symmetry_group_IT_number 64
_symmetry_cell_setting 'orthorhombic'
loop_
_space_group_symop_operation_xyz
x,y,z
-x,1/2-y,1/2+z
x,-y,-z
-x,1/2+y,1/2-z
-x,-y,-z
x,1/2+y,1/2-z
-x,y,z
x,1/2-y,1/2+z
1/2+x,1/2+y,z
1/2-x,-y,1/2+z
1/2+x,1/2-y,-z
1/2-x,y,1/2-z
1/2-x,1/2-y,-z
1/2+x,y,1/2-z
1/2-x,1/2+y,z
1/2+x,-y,1/2+z
loop_
_atom_site_type_symbol
_atom_site_label
_atom_site_fract_x
_atom_site_fract_y
_atom_site_fract_z
Si Si1 0.690121 0.547587 0.461210
Si Si2 0.191359 0.706232 0.327738
Si Si3 0.806706 0.652707 0.457327
Si Si4 0.306549 0.496459 0.827258
Si Si5 0.806689 0.894896 0.172957
Si Si6 0.804933 0.699729 0.591513
O O1 0.755890 0.500000 0.500000
O O2 0.500000 0.549433 0.472428
O O3 0.761673 0.599126 0.480823
O O4 0.730408 0.539080 0.381844
O O5 0.250000 0.703428 0.250000
O O6 0.253309 0.665888 0.381469
O O7 0.236613 0.756317 0.364951
O O8 0.000000 0.702564 0.324831
O O9 0.751948 0.692311 0.512987
O O10 0.000000 0.654859 0.456263
O O11 0.500000 0.493624 0.830511
O O12 0.250000 0.487715 0.750000
O O13 0.252720 0.551174 0.846468
O O14 0.750000 0.886528 0.250000
O O15 0.754172 0.850383 0.127301
O O16 0.000000 0.895789 0.171497
O O17 0.000000 0.703216 0.593275
#
# Coordination Sequence:
#
# PCOD9478861 Si02
#       6
#    16  16  16  16  16  16
#     4  11  24  40  60  89 122 157 200 248 298 355
#     4  11  24  41  62  89 120 156 198 241 290 349
#     4  10  23  42  63  87 117 156 199 244 297 354
#     4  10  20  36  58  83 116 157 200 248 301 357
#     4   9  18  31  51  81 114 150 191 237 290 349
#     4  10  20  37  61  88 118 152 194 243 297 355
#
# _framework density 21.276225
#
# number of rings (size 3 to 8) (size 9 to 14) (size 15 to 20)
#    0.000    1.833    0.000    3.500    0.000    8.000 
#    0.000    1.667    0.000    0.000    0.000    0.000 
#    0.000    0.000    0.000    0.000    0.000    0.000 
#
# Total GULP energy -268159.018269 kJ/mol
# GULP energy per Si atom -5586.646214 kJ/mol
# Density = 2.122780 g / cm^3
# Si number density = 21.276225 Si / 1000 Ang^3
#
#
#
# Elastic Constant Matrix: (Units=GPa)
#
#
# Indices 1 2 3 4 5 6 
#
# 1 12.5901 2.9102 8.3980 0.0000 0.0000 0.0000
# 2 2.9102 88.2479 47.7249 0.0000 0.0000 0.0000
# 3 8.3980 47.7249 107.1985 0.0000 0.0000 0.0000
# 4 0.0000 0.0000 0.0000 35.9094 0.0000 0.0000
# 5 0.0000 0.0000 0.0000 0.0000 18.3539 0.0000
# 6 0.0000 0.0000 0.0000 0.0000 0.0000 14.3279
#
#
#
# Elastic Compliance Matrix: (Units=1/GPa)
#
#
# Indices 1 2 3 4 5 6 
#
# 1 0.083879 0.001037 -0.007033 0.000000 0.000000 0.000000
# 2 0.001037 0.014938 -0.006732 0.000000 0.000000 0.000000
# 3 -0.007033 -0.006732 0.012876 0.000000 0.000000 0.000000
# 4 0.000000 0.000000 0.000000 0.027848 0.000000 0.000000
# 5 0.000000 0.000000 0.000000 0.000000 0.054484 0.000000
# 6 0.000000 0.000000 0.000000 0.000000 0.000000 0.069794
#
#
# Mechanical properties :
#
#
# Convention : Reuss Voigt Hill
#
# Bulk Modulus (GPa) = 11.59568 36.23362 23.91465
# Shear Modulus (GPa) = 15.72224 23.65180 19.68702
#
# Velocity S-wave (km/s) = 2.72133 3.33776 3.04518
# Velocity P-wave (km/s) = 3.91613 5.64989 4.86093
#
# Compressibility (1/GPa) = 0.08623902
#
# Stress axis : x y z
#
# Youngs Moduli (GPa) = 11.92189 66.94317 77.66134
#
# Poissons Ratio (x) = -0.06944 0.54619
# Poissons Ratio (y) = -0.01237 0.52279
# Poissons Ratio (z) = 0.08385 0.45064
#
# Static dielectric constant tensor:
#      x y z
#    x 1.726220 0.000000 0.000000 
#    y 0.000000 1.770770 0.000000 
#    z 0.000000 0.000000 1.792260 
# 
# From -- ./inp_files/36998.got.cif
#   From: 2010.05.17/outbox.cif.g08.bks.cpg/sg64_19_cif.got.tgz:36998.got - 2010.06.03 16:29:19.
