data_PCOD9478883
_publ_section_title
;
Structure prediction by ZEFSAII (Michael W. Deem and Ramdas Pophale) SiO2 
 PCOD9478883
Probable space group: C M C A
;
_chemical_formula_sum "Si O2"
_cell_formula_units_Z 96
_cell_length_a 22.832454
_cell_length_b 8.127728
_cell_length_c 19.534927
_cell_angle_alpha 90.000000
_cell_angle_beta 90.000000
_cell_angle_gamma 90.000000
_cell_volume 3625.213138
_symmetry_space_group_name_H-M "C M C A"
_symmetry_group_IT_number 64
_symmetry_cell_setting 'orthorhombic'
loop_
_space_group_symop_operation_xyz
x,y,z
-x,1/2-y,1/2+z
x,-y,-z
-x,1/2+y,1/2-z
-x,-y,-z
x,1/2+y,1/2-z
-x,y,z
x,1/2-y,1/2+z
1/2+x,1/2+y,z
1/2-x,-y,1/2+z
1/2+x,1/2-y,-z
1/2-x,y,1/2-z
1/2-x,1/2-y,-z
1/2+x,y,1/2-z
1/2-x,1/2+y,z
1/2+x,-y,1/2+z
loop_
_atom_site_type_symbol
_atom_site_label
_atom_site_fract_x
_atom_site_fract_y
_atom_site_fract_z
Si Si1 0.269457 0.156349 0.855784
Si Si2 0.436317 0.666874 0.770549
Si Si3 0.935635 0.255418 0.611216
Si Si4 0.309363 0.376571 0.561808
Si Si5 0.934080 0.369204 0.909199
Si Si6 0.841556 0.941033 0.827581
O O1 0.246640 0.265170 0.920572
O O2 0.304536 0.279715 0.807368
O O3 0.310471 0.003128 0.873775
O O4 0.208547 0.076415 0.835637
O O5 0.500000 0.587498 0.781271
O O6 0.435718 0.729616 0.693501
O O7 0.431240 0.802220 0.831002
O O8 0.387043 0.532372 0.780249
O O9 0.879807 0.377022 0.606358
O O10 0.000000 0.320332 0.590711
O O11 0.930682 0.068323 0.583663
O O12 0.299350 0.500000 0.500000
O O13 0.374372 0.300246 0.556769
O O14 0.000000 0.322618 0.933566
#
# Coordination Sequence:
#
# PCOD9478883 Si02
#       6
#    16  16  16  16  16  16
#     4  10  23  38  59  86 110 152 199 240 287 354
#     4  10  20  36  61  88 114 152 197 241 287 341
#     4  10  20  36  61  88 114 152 197 241 287 341
#     4  11  21  40  63  84 112 150 197 249 297 347
#     4  10  20  36  58  87 119 148 190 241 294 353
#     4  11  20  38  59  79 122 152 191 239 292 336
#
# _framework density 26.481203000000001
#
# number of rings (size 3 to 8) (size 9 to 14) (size 15 to 20)
#    0.000    1.667    3.333    2.000    0.000    3.000 
#    0.000    2.500    0.000    0.000    0.000    4.667 
#    0.000    0.000    0.000    0.000    0.000    0.000 
#
# Total GULP energy -268103.922856 kJ/mol
# GULP energy per Si atom -5585.498393 kJ/mol
# Density = 2.642093 g / cm^3
# Si number density = 26.481203 Si / 1000 Ang^3
#
#
#
# Elastic Constant Matrix: (Units=GPa)
#
#
# Indices 1 2 3 4 5 6 
#
# 1 213.9068 46.7245 8.3960 0.0000 0.0000 0.0000
# 2 46.7245 75.5253 17.8192 0.0000 0.0000 0.0000
# 3 8.3960 17.8192 48.3919 0.0000 0.0000 0.0000
# 4 0.0000 0.0000 0.0000 26.0658 0.0000 0.0000
# 5 0.0000 0.0000 0.0000 0.0000 3.9172 0.0000
# 6 0.0000 0.0000 0.0000 0.0000 0.0000 45.4538
#
#
#
# Elastic Compliance Matrix: (Units=1/GPa)
#
#
# Indices 1 2 3 4 5 6 
#
# 1 0.005410 -0.003423 0.000322 0.000000 0.000000 0.000000
# 2 -0.003423 0.016666 -0.005543 0.000000 0.000000 0.000000
# 3 0.000322 -0.005543 0.022650 0.000000 0.000000 0.000000
# 4 0.000000 0.000000 0.000000 0.038364 0.000000 0.000000
# 5 0.000000 0.000000 0.000000 0.000000 0.255282 0.000000
# 6 0.000000 0.000000 0.000000 0.000000 0.000000 0.022000
#
#
# Mechanical properties :
#
#
# Convention : Reuss Voigt Hill
#
# Bulk Modulus (GPa) = 36.44626 53.74481 45.09553
# Shear Modulus (GPa) = 12.92637 32.74633 22.83635
#
# Velocity S-wave (km/s) = 2.21177 3.52033 2.93978
# Velocity P-wave (km/s) = 4.50727 6.07150 5.34690
#
# Compressibility (1/GPa) = 0.02743766
#
# Stress axis : x y z
#
# Youngs Moduli (GPa) = 184.84392 60.00258 44.15035
#
# Poissons Ratio (x) = 0.20538 -0.01421
# Poissons Ratio (y) = 0.63269 0.24472
# Poissons Ratio (z) = -0.05947 0.33259
#
# Static dielectric constant tensor:
#      x y z
#    x 2.134150 0.000000 0.000000 
#    y 0.000000 2.107370 0.000000 
#    z 0.000000 0.000000 2.157590 
# 
# From -- ./inp_files/10352.got.cif
#   From: 2010.05.17/outbox.cif.g08.bks.cpg/sg64_6_cif.got.tgz:10352.got - 2010.06.03 16:29:19.
