data_PCOD9478682
_publ_section_title
;
Structure prediction by ZEFSAII (Michael W. Deem and Ramdas Pophale) SiO2 
 PCOD9478682
Probable space group: C M C A
;
_chemical_formula_sum "Si O2"
_cell_formula_units_Z 88
_cell_length_a 9.406682
_cell_length_b 23.341154
_cell_length_c 20.175323
_cell_angle_alpha 90.000000
_cell_angle_beta 90.000000
_cell_angle_gamma 90.000000
_cell_volume 4429.750675
_symmetry_space_group_name_H-M "C M C A"
_symmetry_group_IT_number 64
_symmetry_cell_setting 'orthorhombic'
loop_
_space_group_symop_operation_xyz
x,y,z
-x,1/2-y,1/2+z
x,-y,-z
-x,1/2+y,1/2-z
-x,-y,-z
x,1/2+y,1/2-z
-x,y,z
x,1/2-y,1/2+z
1/2+x,1/2+y,z
1/2-x,-y,1/2+z
1/2+x,1/2-y,-z
1/2-x,y,1/2-z
1/2-x,1/2-y,-z
1/2+x,y,1/2-z
1/2-x,1/2+y,z
1/2+x,-y,1/2+z
loop_
_atom_site_type_symbol
_atom_site_label
_atom_site_fract_x
_atom_site_fract_y
_atom_site_fract_z
Si Si1 0.836944 0.254024 0.643065
Si Si2 0.654217 0.921778 0.360701
Si Si3 0.671061 0.351853 0.596962
Si Si4 0.335085 0.821093 0.463243
Si Si5 0.750000 0.165649 0.750000
Si Si6 0.169524 0.515335 0.075286
O O1 0.747203 0.312474 0.652317
O O2 0.751628 0.220369 0.585516
O O3 0.837027 0.209590 0.704109
O O4 0.000000 0.266748 0.625523
O O5 0.500000 0.949656 0.355778
O O6 0.659676 0.881579 0.425326
O O7 0.672498 0.877603 0.300232
O O8 0.769887 0.970208 0.372177
O O9 0.500000 0.343791 0.596618
O O10 0.745552 0.330079 0.529421
O O11 0.701898 0.419697 0.597034
O O12 0.500000 0.802542 0.472567
O O13 0.000000 0.509830 0.073295
O O14 0.220993 0.500000 0.000000
#
# Coordination Sequence:
#
# PCOD9478682 Si02
#       6
#    16  16  16  16   8  16
#     4  11  23  39  61  86 118 158 202 251 303 357
#     4  10  21  37  62  92 119 155 204 253 296 353
#     4  11  22  37  58  87 124 160 199 245 300 363
#     4  10  20  35  57  88 124 158 198 245 300 358
#     4  10  24  44  64  88 116 158 204 254 304 362
#     4  10  21  38  60  89 125 163 199 242 304 366
#
# _framework density 19.865677999999999
#
# number of rings (size 3 to 8) (size 9 to 14) (size 15 to 20)
#    0.000    1.636    1.818    2.727    0.000    7.636 
#    0.000    0.909    0.000    0.000    0.000    0.000 
#    0.000    0.000    0.000    0.000    0.000    0.000 
#
# Total GULP energy -245374.656197 kJ/mol
# GULP energy per Si atom -5576.696732 kJ/mol
# Density = 1.982046 g / cm^3
# Si number density = 19.865678 Si / 1000 Ang^3
#
#
#
# Elastic Constant Matrix: (Units=GPa)
#
#
# Indices 1 2 3 4 5 6 
#
# 1 101.2576 65.9257 18.7475 0.0000 0.0000 0.0000
# 2 65.9257 141.3654 37.1617 0.0000 0.0000 0.0000
# 3 18.7475 37.1617 61.6892 0.0000 0.0000 0.0000
# 4 0.0000 0.0000 0.0000 18.5919 0.0000 0.0000
# 5 0.0000 0.0000 0.0000 0.0000 -42.7576 0.0000
# 6 0.0000 0.0000 0.0000 0.0000 0.0000 19.7911
#
#
#
# Elastic Compliance Matrix: (Units=1/GPa)
#
#
# Indices 1 2 3 4 5 6 
#
# 1 0.014190 -0.006515 -0.000387 0.000000 0.000000 0.000000
# 2 -0.006515 0.011397 -0.004885 0.000000 0.000000 0.000000
# 3 -0.000387 -0.004885 0.019271 0.000000 0.000000 0.000000
# 4 0.000000 0.000000 0.000000 0.053787 0.000000 0.000000
# 5 0.000000 0.000000 0.000000 0.000000 -0.023388 0.000000
# 6 0.000000 0.000000 0.000000 0.000000 0.000000 0.050528
#
#
# Mechanical properties :
#
#
# Convention : Reuss Voigt Hill
#
# Bulk Modulus (GPa) = 46.99041 60.88690 53.93865
# Shear Modulus (GPa) = 31.95838 11.29024 21.62431
#
# Velocity S-wave (km/s) = 4.01524 2.38655 3.30286
# Velocity P-wave (km/s) = 6.72322 6.18951 6.46187
#
# Compressibility (1/GPa) = 0.02128094
#
# Stress axis : x y z
#
# Youngs Moduli (GPa) = 70.47449 87.74563 51.89171
#
# Poissons Ratio (x) = 0.57170 0.02010
# Poissons Ratio (y) = 0.45917 0.25350
# Poissons Ratio (z) = 0.02730 0.42866
#
# Static dielectric constant tensor:
#      x y z
#    x 1.684020 0.000000 0.000000 
#    y 0.000000 1.714440 0.000000 
#    z 0.000000 0.000000 1.742760 
# 
# From -- ./inp_files/36778.got.cif
#   From: 2010.05.17/outbox.cif.g08.bks.cpg/sg64_19_cif.got.tgz:36778.got - 2010.06.03 16:29:19.
