data_PCOD9478475
_publ_section_title
;
Structure prediction by ZEFSAII (Michael W. Deem and Ramdas Pophale) SiO2 
 PCOD9478475
Probable space group: C M C A
;
_chemical_formula_sum "Si O2"
_cell_formula_units_Z 80
_cell_length_a 24.135344
_cell_length_b 18.240509
_cell_length_c 7.774276
_cell_angle_alpha 90.000000
_cell_angle_beta 90.000000
_cell_angle_gamma 90.000000
_cell_volume 3422.554725
_symmetry_space_group_name_H-M "C M C A"
_symmetry_group_IT_number 64
_symmetry_cell_setting 'orthorhombic'
loop_
_space_group_symop_operation_xyz
x,y,z
-x,1/2-y,1/2+z
x,-y,-z
-x,1/2+y,1/2-z
-x,-y,-z
x,1/2+y,1/2-z
-x,y,z
x,1/2-y,1/2+z
1/2+x,1/2+y,z
1/2-x,-y,1/2+z
1/2+x,1/2-y,-z
1/2-x,y,1/2-z
1/2-x,1/2-y,-z
1/2+x,y,1/2-z
1/2-x,1/2+y,z
1/2+x,-y,1/2+z
loop_
_atom_site_type_symbol
_atom_site_label
_atom_site_fract_x
_atom_site_fract_y
_atom_site_fract_z
Si Si1 0.063271 0.352724 0.182364
Si Si2 0.331840 0.610016 0.106807
Si Si3 0.150805 0.036920 0.732582
Si Si4 0.118402 0.744073 0.523588
Si Si5 0.223499 0.657848 0.932850
O O1 0.091865 0.432072 0.168916
O O2 0.101320 0.304495 0.312514
O O3 0.071150 0.303479 0.013391
O O4 0.000000 0.357261 0.237239
O O5 0.339497 0.549439 0.252884
O O6 0.373050 0.678601 0.116825
O O7 0.343534 0.568279 0.926344
O O8 0.271255 0.642351 0.069721
O O9 0.195987 0.080745 0.622779
O O10 0.176114 0.789460 0.510028
O O11 0.250000 0.685412 0.750000
#
# Coordination Sequence:
#
# PCOD9478475 Si02
#       5
#    16  16  16  16  16
#     4  10  20  37  57  78 107 144 184 234 275 308
#     4   9  16  31  50  75 106 136 174 219 262 323
#     4   8  17  32  50  75 106 139 178 216 266 327
#     4  10  20  34  55  81 107 139 185 224 267 330
#     4   9  17  32  51  75 111 147 175 217 274 327
#
# _framework density 23.374351999999998
#
# number of rings (size 3 to 8) (size 9 to 14) (size 15 to 20)
#    0.000    2.800    0.000    2.400    0.000    0.000 
#    0.000   30.000    0.000    3.600    0.000    7.000 
#    0.000    0.000    0.000    0.000    0.000    0.000 
#
# Total GULP energy -223311.409373 kJ/mol
# GULP energy per Si atom -5582.785234 kJ/mol
# Density = 2.332115 g / cm^3
# Si number density = 23.374352 Si / 1000 Ang^3
#
#
#
# Elastic Constant Matrix: (Units=GPa)
#
#
# Indices 1 2 3 4 5 6 
#
# 1 104.1336 46.7745 7.6004 0.0000 0.0000 0.0000
# 2 46.7745 133.2592 16.8834 0.0000 0.0000 0.0000
# 3 7.6004 16.8834 65.6672 0.0000 0.0000 0.0000
# 4 0.0000 0.0000 0.0000 30.5132 0.0000 0.0000
# 5 0.0000 0.0000 0.0000 0.0000 17.4080 0.0000
# 6 0.0000 0.0000 0.0000 0.0000 0.0000 6.0190
#
#
#
# Elastic Compliance Matrix: (Units=1/GPa)
#
#
# Indices 1 2 3 4 5 6 
#
# 1 0.011406 -0.003966 -0.000301 0.000000 0.000000 0.000000
# 2 -0.003966 0.009136 -0.001890 0.000000 0.000000 0.000000
# 3 -0.000301 -0.001890 0.015749 0.000000 0.000000 0.000000
# 4 0.000000 0.000000 0.000000 0.032773 0.000000 0.000000
# 5 0.000000 0.000000 0.000000 0.000000 0.057445 0.000000
# 6 0.000000 0.000000 0.000000 0.000000 0.000000 0.166142
#
#
# Mechanical properties :
#
#
# Convention : Reuss Voigt Hill
#
# Bulk Modulus (GPa) = 41.70352 49.50850 45.60601
# Shear Modulus (GPa) = 15.97674 26.24147 21.10910
#
# Velocity S-wave (km/s) = 2.61725 3.35425 3.00840
# Velocity P-wave (km/s) = 5.19746 6.01897 5.62324
#
# Compressibility (1/GPa) = 0.02397879
#
# Stress axis : x y z
#
# Youngs Moduli (GPa) = 87.67145 109.46275 63.49621
#
# Poissons Ratio (x) = 0.43408 0.01909
# Poissons Ratio (y) = 0.34766 0.12000
# Poissons Ratio (z) = 0.02635 0.20687
#
# Static dielectric constant tensor:
#      x y z
#    x 1.847210 0.000000 0.000000 
#    y 0.000000 1.910560 0.000000 
#    z 0.000000 0.000000 1.989530 
# 
# From -- ./inp_files/10214.got.cif
#   From: 2010.05.17/outbox.cif.g08.bks.cpg/sg64_6_cif.got.tgz:10214.got - 2010.06.03 16:29:19.
