data_PCOD9478984
_publ_section_title
;
Structure prediction by ZEFSAII (Michael W. Deem and Ramdas Pophale) SiO2 
 PCOD9478984
Probable space group: C M C A
;
_chemical_formula_sum "Si O2"
_cell_formula_units_Z 64
_cell_length_a 14.645008
_cell_length_b 10.603018
_cell_length_c 21.617391
_cell_angle_alpha 90.000000
_cell_angle_beta 90.000000
_cell_angle_gamma 90.000000
_cell_volume 3356.776219
_symmetry_space_group_name_H-M "C M C A"
_symmetry_group_IT_number 64
_symmetry_cell_setting 'orthorhombic'
loop_
_space_group_symop_operation_xyz
x,y,z
-x,1/2-y,1/2+z
x,-y,-z
-x,1/2+y,1/2-z
-x,-y,-z
x,1/2+y,1/2-z
-x,y,z
x,1/2-y,1/2+z
1/2+x,1/2+y,z
1/2-x,-y,1/2+z
1/2+x,1/2-y,-z
1/2-x,y,1/2-z
1/2-x,1/2-y,-z
1/2+x,y,1/2-z
1/2-x,1/2+y,z
1/2+x,-y,1/2+z
loop_
_atom_site_type_symbol
_atom_site_label
_atom_site_fract_x
_atom_site_fract_y
_atom_site_fract_z
Si Si1 0.712262 0.869496 0.462115
Si Si2 0.900140 0.233577 0.371766
Si Si3 0.717207 0.999009 0.153909
Si Si4 0.605462 0.049459 0.724374
O O1 0.750000 0.750000 0.500000
O O2 0.618553 0.826354 0.429096
O O3 0.774711 0.902332 0.402547
O O4 0.704635 0.000000 0.500000
O O5 0.895328 0.313816 0.308530
O O6 0.000000 0.175364 0.376540
O O7 0.823697 0.128330 0.370697
O O8 0.649921 0.950642 0.207875
O O9 0.818102 0.021546 0.182910
O O10 0.500000 0.003807 0.724185
#
# Coordination Sequence:
#
# PCOD9478984 Si02
#       4
#    16  16  16  16
#     4  11  22  41  63  88 122 167 218 260 314 373
#     4  10  21  39  63  91 127 166 209 262 313 375
#     4  10  20  36  63  90 124 164 202 256 321 363
#     4   9  20  37  59  91 124 159 204 253 313 382
#
# _framework density 19.065909999999999
#
# number of rings (size 3 to 8) (size 9 to 14) (size 15 to 20)
#    0.000    2.000    2.500    0.750    0.000    8.500 
#    0.000    3.750    0.000    6.000    0.000    0.000 
#    0.000    0.000    0.000    0.000    0.000    0.000 
#
# Total GULP energy -178276.508861 kJ/mol
# GULP energy per Si atom -5571.140902 kJ/mol
# Density = 1.902252 g / cm^3
# Si number density = 19.065910 Si / 1000 Ang^3
#
#
#
# Elastic Constant Matrix: (Units=GPa)
#
#
# Indices 1 2 3 4 5 6 
#
# 1 147.8616 49.6873 45.9543 0.0000 0.0000 0.0000
# 2 49.6873 87.1295 52.1659 0.0000 0.0000 0.0000
# 3 45.9543 52.1659 124.5946 0.0000 0.0000 0.0000
# 4 0.0000 0.0000 0.0000 28.0394 0.0000 0.0000
# 5 0.0000 0.0000 0.0000 0.0000 7.4796 0.0000
# 6 0.0000 0.0000 0.0000 0.0000 0.0000 26.0588
#
#
#
# Elastic Compliance Matrix: (Units=1/GPa)
#
#
# Indices 1 2 3 4 5 6 
#
# 1 0.008568 -0.003996 -0.001487 0.000000 0.000000 0.000000
# 2 -0.003996 0.017180 -0.005719 0.000000 0.000000 0.000000
# 3 -0.001487 -0.005719 0.010969 0.000000 0.000000 0.000000
# 4 0.000000 0.000000 0.000000 0.035664 0.000000 0.000000
# 5 0.000000 0.000000 0.000000 0.000000 0.133698 0.000000
# 6 0.000000 0.000000 0.000000 0.000000 0.000000 0.038375
#
#
# Mechanical properties :
#
#
# Convention : Reuss Voigt Hill
#
# Bulk Modulus (GPa) = 69.86745 72.80010 71.33377
# Shear Modulus (GPa) = 18.40746 26.43409 22.42078
#
# Velocity S-wave (km/s) = 3.11056 3.72756 3.43295
# Velocity P-wave (km/s) = 7.04454 7.53608 7.29445
#
# Compressibility (1/GPa) = 0.01431282
#
# Stress axis : x y z
#
# Youngs Moduli (GPa) = 116.71345 58.20721 91.16478
#
# Poissons Ratio (x) = 0.23258 0.13558
# Poissons Ratio (y) = 0.46635 0.52140
# Poissons Ratio (z) = 0.17358 0.33290
#
# Static dielectric constant tensor:
#      x y z
#    x 1.674040 0.000000 0.000000 
#    y 0.000000 1.676750 0.000000 
#    z 0.000000 0.000000 1.696650 
# 
# From -- ./inp_files/38820.got.cif
#   From: 2010.05.17/outbox.cif.g08.bks.cpg/sg64_20_cif.got.tgz:38820.got - 2010.06.03 16:29:19.
