data_PCOD9478775
_publ_section_title
;
Structure prediction by ZEFSAII (Michael W. Deem and Ramdas Pophale) SiO2 
 PCOD9478775
Probable space group: C M C A
;
_chemical_formula_sum "Si O2"
_cell_formula_units_Z 96
_cell_length_a 18.232118
_cell_length_b 12.389679
_cell_length_c 25.792331
_cell_angle_alpha 90.000000
_cell_angle_beta 90.000000
_cell_angle_gamma 90.000000
_cell_volume 5826.231958
_symmetry_space_group_name_H-M "C M C A"
_symmetry_group_IT_number 64
_symmetry_cell_setting 'orthorhombic'
loop_
_space_group_symop_operation_xyz
x,y,z
-x,1/2-y,1/2+z
x,-y,-z
-x,1/2+y,1/2-z
-x,-y,-z
x,1/2+y,1/2-z
-x,y,z
x,1/2-y,1/2+z
1/2+x,1/2+y,z
1/2-x,-y,1/2+z
1/2+x,1/2-y,-z
1/2-x,y,1/2-z
1/2-x,1/2-y,-z
1/2+x,y,1/2-z
1/2-x,1/2+y,z
1/2+x,-y,1/2+z
loop_
_atom_site_type_symbol
_atom_site_label
_atom_site_fract_x
_atom_site_fract_y
_atom_site_fract_z
Si Si1 0.151549 0.129187 0.998919
Si Si2 0.000000 0.129895 0.614012
Si Si3 0.500000 0.131080 0.113278
Si Si4 0.500000 0.254887 0.499188
Si Si5 0.748841 0.750049 0.917819
Si Si6 0.750000 0.750980 0.750000
Si Si7 0.154652 0.629264 0.835994
Si Si8 0.845257 0.627435 0.164507
O O1 0.071187 0.179567 0.001542
O O2 0.191031 0.177318 0.948486
O O3 0.199287 0.180849 0.044957
O O4 0.151433 0.000000 0.000000
O O5 0.000000 0.176940 0.555054
O O6 0.928087 0.161916 0.647412
O O7 0.000000 0.999474 0.608481
O O8 0.500000 0.179121 0.054317
O O9 0.427361 0.161591 0.146484
O O10 0.796996 0.668857 0.884131
O O11 0.706119 0.834273 0.882276
O O12 0.804224 0.682002 0.786902
O O13 0.806081 0.819849 0.714409
O O14 0.154540 0.500944 0.829602
#
# Coordination Sequence:
#
# PCOD9478775 Si02
#       8
#    16   8   8   8  16   8  16  16
#     4  11  22  34  53  80 114 154 187 225 275 327
#     4  10  21  36  58  83 113 147 185 224 271 330
#     4  10  21  36  58  83 113 147 185 224 271 330
#     4  12  20  38  54  82 118 150 184 222 272 332
#     4  10  20  36  54  80 112 146 186 230 266 330
#     4  10  22  36  60  84 108 140 178 238 288 330
#     4  10  20  37  58  81 108 143 184 230 278 328
#     4  10  20  37  58  81 108 143 184 230 278 328
#
# _framework density 16.477201999999998
#
# number of rings (size 3 to 8) (size 9 to 14) (size 15 to 20)
#    0.000    1.667    3.333    2.000    0.000    0.667 
#    0.000    0.000    0.000    0.000    0.000    0.000 
#    0.000    0.000    0.000    0.000    0.000    0.000 
#
# Total GULP energy -267452.050576 kJ/mol
# GULP energy per Si atom -5571.917720 kJ/mol
# Density = 1.643970 g / cm^3
# Si number density = 16.477202 Si / 1000 Ang^3
#
#
#
# Elastic Constant Matrix: (Units=GPa)
#
#
# Indices 1 2 3 4 5 6 
#
# 1 134.0612 43.1709 43.8878 0.0000 0.0000 0.0000
# 2 43.1709 84.6702 42.6668 0.0000 0.0000 0.0000
# 3 43.8878 42.6668 90.3181 0.0000 0.0000 0.0000
# 4 0.0000 0.0000 0.0000 -7.2991 0.0000 0.0000
# 5 0.0000 0.0000 0.0000 0.0000 -53.3173 0.0000
# 6 0.0000 0.0000 0.0000 0.0000 0.0000 28.5540
#
#
#
# Elastic Compliance Matrix: (Units=1/GPa)
#
#
# Indices 1 2 3 4 5 6 
#
# 1 0.009530 -0.003315 -0.003065 0.000000 0.000000 0.000000
# 2 -0.003315 0.016653 -0.006256 0.000000 0.000000 0.000000
# 3 -0.003065 -0.006256 0.015517 0.000000 0.000000 0.000000
# 4 0.000000 0.000000 0.000000 -0.137003 0.000000 0.000000
# 5 0.000000 0.000000 0.000000 0.000000 -0.018756 0.000000
# 6 0.000000 0.000000 0.000000 0.000000 0.000000 0.035021
#
#
# Mechanical properties :
#
#
# Convention : Reuss Voigt Hill
#
# Bulk Modulus (GPa) = 60.87137 63.16672 62.01905
# Shear Modulus (GPa) = -103.54486 5.54246 -49.00120
#
# Velocity S-wave (km/s) = -7.93585 1.83603 -5.45924
# Velocity P-wave (km/s) = 6.85181 6.55086 1.42013
#
# Compressibility (1/GPa) = 0.01642808
#
# Stress axis : x y z
#
# Youngs Moduli (GPa) = 104.93108 60.04819 64.44557
#
# Poissons Ratio (x) = 0.19903 0.19753
# Poissons Ratio (y) = 0.34780 0.40320
# Poissons Ratio (z) = 0.32162 0.37569
#
# Static dielectric constant tensor:
#      x y z
#    x 1.588020 0.000000 0.000000 
#    y 0.000000 1.517770 0.000000 
#    z 0.000000 0.000000 1.551440 
# 
# From -- ./inp_files/18440.got.cif
#   From: 2010.05.17/outbox.cif.g08.bks.cpg/sg64_10_cif.got.tgz:18440.got - 2010.06.03 16:29:19.
