data_PCOD9478219
_publ_section_title
;
Structure prediction by ZEFSAII (Michael W. Deem and Ramdas Pophale) SiO2 
 PCOD9478219
Probable space group: C M C A
;
_chemical_formula_sum "Si O2"
_cell_formula_units_Z 80
_cell_length_a 27.748011
_cell_length_b 5.098858
_cell_length_c 33.890979
_cell_angle_alpha 90.000000
_cell_angle_beta 90.000000
_cell_angle_gamma 90.000000
_cell_volume 4795.003071
_symmetry_space_group_name_H-M "C M C A"
_symmetry_group_IT_number 64
_symmetry_cell_setting 'orthorhombic'
loop_
_space_group_symop_operation_xyz
x,y,z
-x,1/2-y,1/2+z
x,-y,-z
-x,1/2+y,1/2-z
-x,-y,-z
x,1/2+y,1/2-z
-x,y,z
x,1/2-y,1/2+z
1/2+x,1/2+y,z
1/2-x,-y,1/2+z
1/2+x,1/2-y,-z
1/2-x,y,1/2-z
1/2-x,1/2-y,-z
1/2+x,y,1/2-z
1/2-x,1/2+y,z
1/2+x,-y,1/2+z
loop_
_atom_site_type_symbol
_atom_site_label
_atom_site_fract_x
_atom_site_fract_y
_atom_site_fract_z
Si Si1 0.058702 0.776424 0.726358
Si Si2 0.373088 0.751571 0.526632
Si Si3 0.558406 0.454831 0.640207
Si Si4 0.442163 0.542257 0.092359
Si Si5 0.275912 0.027344 0.952150
O O1 0.073165 0.989675 0.759131
O O2 0.075634 0.866321 0.683256
O O3 0.000000 0.776293 0.724990
O O4 0.387228 0.500000 0.500000
O O5 0.415874 0.861353 0.553233
O O6 0.328900 0.646020 0.553247
O O7 0.356185 0.000000 0.500000
O O8 0.500000 0.442022 0.641651
O O9 0.573289 0.244519 0.607050
O O10 0.570009 0.747510 0.626592
O O11 0.500000 0.543648 0.086941
O O12 0.237112 0.239290 0.937479
O O13 0.272725 0.000000 0.000000
#
# Coordination Sequence:
#
# PCOD9478219 Si02
#       5
#    16  16  16  16  16
#     4   9  15  23  38  59  78  97 129 171 204 234
#     4  11  21  31  45  63  80 104 143 182 212 244
#     4   9  17  29  42  56  78 109 141 170 204 245
#     4  10  20  32  43  56  80 114 147 176 205 238
#     4   9  16  28  45  63  81  98 121 163 216 263
#
# _framework density 16.684034
#
# number of rings (size 3 to 8) (size 9 to 14) (size 15 to 20)
#    0.000    2.400    0.000    5.400    0.000    5.600 
#    0.000    0.000    0.000    0.000    0.000    0.000 
#    0.000    0.000    0.000    0.000    0.000   70.000 
#
# Total GULP energy -222871.769021 kJ/mol
# GULP energy per Si atom -5571.794226 kJ/mol
# Density = 1.664606 g / cm^3
# Si number density = 16.684034 Si / 1000 Ang^3
#
#
#
# Elastic Constant Matrix: (Units=GPa)
#
#
# Indices 1 2 3 4 5 6 
#
# 1 28.2433 1.3511 5.1003 0.0000 0.0000 0.0000
# 2 1.3511 56.4344 -14.1724 0.0000 0.0000 0.0000
# 3 5.1003 -14.1724 20.6421 0.0000 0.0000 0.0000
# 4 0.0000 0.0000 0.0000 17.0448 0.0000 0.0000
# 5 0.0000 0.0000 0.0000 0.0000 -1.8007 0.0000
# 6 0.0000 0.0000 0.0000 0.0000 0.0000 15.1251
#
#
#
# Elastic Compliance Matrix: (Units=1/GPa)
#
#
# Indices 1 2 3 4 5 6 
#
# 1 0.037766 -0.003924 -0.012025 0.000000 0.000000 0.000000
# 2 -0.003924 0.021819 0.015950 0.000000 0.000000 0.000000
# 3 -0.012025 0.015950 0.062367 0.000000 0.000000 0.000000
# 4 0.000000 0.000000 0.000000 0.058669 0.000000 0.000000
# 5 0.000000 0.000000 0.000000 0.000000 -0.555343 0.000000
# 6 0.000000 0.000000 0.000000 0.000000 0.000000 0.066115
#
#
# Mechanical properties :
#
#
# Convention : Reuss Voigt Hill
#
# Bulk Modulus (GPa) = 8.19986 9.98641 9.09314
# Shear Modulus (GPa) = -18.65968 13.60991 -2.52488
#
# Velocity S-wave (km/s) = -3.34790 2.85922 -1.23152
# Velocity P-wave (km/s) = 3.16530 4.11082 1.85468
#
# Compressibility (1/GPa) = 0.12195327
#
# Stress axis : x y z
#
# Youngs Moduli (GPa) = 26.47892 45.83115 16.03413
#
# Poissons Ratio (x) = 0.17985 0.19282
# Poissons Ratio (y) = 0.10391 -0.25575
# Poissons Ratio (z) = 0.31842 -0.73101
#
# Static dielectric constant tensor:
#      x y z
#    x 1.571660 0.000000 0.000000 
#    y 0.000000 1.587840 0.000000 
#    z 0.000000 0.000000 1.570820 
# 
# From -- ./inp_files/53848.got.cif
#   From: 2010.05.17/outbox.cif.g08.bks.cpg/sg64_27_cif.got.tgz:53848.got - 2010.06.03 16:29:19.
