data_PCOD9478061
_publ_section_title
;
Structure prediction by ZEFSAII (Michael W. Deem and Ramdas Pophale) SiO2 
 PCOD9478061
Probable space group: C M C A
;
_chemical_formula_sum "Si O2"
_cell_formula_units_Z 128
_cell_length_a 24.133113
_cell_length_b 14.285515
_cell_length_c 18.260473
_cell_angle_alpha 90.000000
_cell_angle_beta 90.000000
_cell_angle_gamma 90.000000
_cell_volume 6295.370155
_symmetry_space_group_name_H-M "C M C A"
_symmetry_group_IT_number 64
_symmetry_cell_setting 'orthorhombic'
loop_
_space_group_symop_operation_xyz
x,y,z
-x,1/2-y,1/2+z
x,-y,-z
-x,1/2+y,1/2-z
-x,-y,-z
x,1/2+y,1/2-z
-x,y,z
x,1/2-y,1/2+z
1/2+x,1/2+y,z
1/2-x,-y,1/2+z
1/2+x,1/2-y,-z
1/2-x,y,1/2-z
1/2-x,1/2-y,-z
1/2+x,y,1/2-z
1/2-x,1/2+y,z
1/2+x,-y,1/2+z
loop_
_atom_site_type_symbol
_atom_site_label
_atom_site_fract_x
_atom_site_fract_y
_atom_site_fract_z
Si Si1 0.220348 0.958721 0.183671
Si Si2 0.367701 0.033839 0.422402
Si Si3 0.131070 0.254134 0.613361
Si Si4 0.062691 0.188525 0.490596
Si Si5 0.319859 0.817642 0.920371
Si Si6 0.560773 0.861986 0.385621
Si Si7 0.759972 0.849637 0.445187
Si Si8 0.845962 0.225814 0.781985
O O1 0.250000 0.009291 0.250000
O O2 0.257852 0.930222 0.114687
O O3 0.196165 0.861820 0.217787
O O4 0.171482 0.014526 0.146399
O O5 0.379129 0.142512 0.417498
O O6 0.342134 0.000000 0.500000
O O7 0.418551 0.962982 0.411286
O O8 0.082803 0.193133 0.574734
O O9 0.189737 0.216149 0.582919
O O10 0.135766 0.251863 0.700699
O O11 0.118638 0.153210 0.448132
O O12 0.058930 0.291545 0.454228
O O13 0.000000 0.147941 0.482418
O O14 0.297328 0.710349 0.939084
O O15 0.321348 0.809833 0.832522
O O16 0.276185 0.873259 0.971249
O O17 0.500000 0.868373 0.352949
O O18 0.602527 0.814604 0.328511
#
# Coordination Sequence:
#
# PCOD9478061 Si02
#       8
#    16  16  16  16  16  16  16  16
#     4  10  19  37  51  71 102 144 176 220 274 331
#     4  11  23  35  51  79 115 143 178 220 280 345
#     4  11  20  32  49  80 108 137 177 229 271 327
#     4   9  17  30  49  73 101 131 168 212 260 319
#     4   8  16  28  47  75  95 127 174 217 258 313
#     4   9  18  35  55  72 104 148 179 210 266 326
#     4   9  17  30  55  72  97 138 181 217 266 322
#     4   9  18  32  52  74 103 136 181 220 261 312
#
# _framework density 20.332401999999998
#
# number of rings (size 3 to 8) (size 9 to 14) (size 15 to 20)
#    0.000    2.500    2.500    0.750    5.250    1.250 
#    4.500    0.000    0.000    0.000    0.000    0.000 
#    0.000    0.000    0.000   23.125    0.000    0.000 
#
# Total GULP energy -356293.123322 kJ/mol
# GULP energy per Si atom -5567.080052 kJ/mol
# Density = 2.028613 g / cm^3
# Si number density = 20.332402 Si / 1000 Ang^3
#
#
#
# Elastic Constant Matrix: (Units=GPa)
#
#
# Indices 1 2 3 4 5 6 
#
# 1 91.3823 -7.3619 23.3397 0.0000 0.0000 0.0000
# 2 -7.3619 18.1177 1.5814 0.0000 0.0000 0.0000
# 3 23.3397 1.5814 119.9376 0.0000 0.0000 0.0000
# 4 0.0000 0.0000 0.0000 11.9660 0.0000 0.0000
# 5 0.0000 0.0000 0.0000 0.0000 18.2955 0.0000
# 6 0.0000 0.0000 0.0000 0.0000 0.0000 4.5098
#
#
#
# Elastic Compliance Matrix: (Units=1/GPa)
#
#
# Indices 1 2 3 4 5 6 
#
# 1 0.011963 0.005070 -0.002395 0.000000 0.000000 0.000000
# 2 0.005070 0.057407 -0.001744 0.000000 0.000000 0.000000
# 3 -0.002395 -0.001744 0.008827 0.000000 0.000000 0.000000
# 4 0.000000 0.000000 0.000000 0.083570 0.000000 0.000000
# 5 0.000000 0.000000 0.000000 0.000000 0.054658 0.000000
# 6 0.000000 0.000000 0.000000 0.000000 0.000000 0.221737
#
#
# Mechanical properties :
#
#
# Convention : Reuss Voigt Hill
#
# Bulk Modulus (GPa) = 12.49058 29.39511 20.94284
# Shear Modulus (GPa) = 10.79946 21.07949 15.93948
#
# Velocity S-wave (km/s) = 2.30716 3.22334 2.80294
# Velocity P-wave (km/s) = 3.64058 5.32371 4.56047
#
# Compressibility (1/GPa) = 0.08006033
#
# Stress axis : x y z
#
# Youngs Moduli (GPa) = 83.58995 17.41945 113.29265
#
# Poissons Ratio (x) = -0.08832 0.27132
# Poissons Ratio (y) = -0.42381 0.19753
# Poissons Ratio (z) = 0.20019 0.03037
#
# Static dielectric constant tensor:
#      x y z
#    x 1.763920 0.000000 0.000000 
#    y 0.000000 1.745920 0.000000 
#    z 0.000000 0.000000 1.773560 
# 
# From -- ./inp_files/35174.got.cif
#   From: 2010.05.17/outbox.cif.g08.bks.cpg/sg64_18_cif.got.tgz:35174.got - 2010.06.03 16:29:19.
