data_PCOD9478143
_publ_section_title
;
Structure prediction by ZEFSAII (Michael W. Deem and Ramdas Pophale) SiO2 
 PCOD9478143
Probable space group: C M C A
;
_chemical_formula_sum "Si O2"
_cell_formula_units_Z 64
_cell_length_a 17.087049
_cell_length_b 9.651865
_cell_length_c 18.792737
_cell_angle_alpha 90.000000
_cell_angle_beta 90.000000
_cell_angle_gamma 90.000000
_cell_volume 3099.333708
_symmetry_space_group_name_H-M "C M C A"
_symmetry_group_IT_number 64
_symmetry_cell_setting 'orthorhombic'
loop_
_space_group_symop_operation_xyz
x,y,z
-x,1/2-y,1/2+z
x,-y,-z
-x,1/2+y,1/2-z
-x,-y,-z
x,1/2+y,1/2-z
-x,y,z
x,1/2-y,1/2+z
1/2+x,1/2+y,z
1/2-x,-y,1/2+z
1/2+x,1/2-y,-z
1/2-x,y,1/2-z
1/2-x,1/2-y,-z
1/2+x,y,1/2-z
1/2-x,1/2+y,z
1/2+x,-y,1/2+z
loop_
_atom_site_type_symbol
_atom_site_label
_atom_site_fract_x
_atom_site_fract_y
_atom_site_fract_z
Si Si1 0.171087 0.663290 0.489421
Si Si2 0.594214 0.675887 0.164410
Si Si3 0.594678 0.519788 0.712970
Si Si4 0.593389 0.602015 0.435989
O O1 0.180714 0.500000 0.500000
O O2 0.250000 0.750000 0.500000
O O3 0.136116 0.682757 0.410912
O O4 0.113323 0.740574 0.544413
O O5 0.500000 0.667446 0.152428
O O6 0.621903 0.551211 0.214649
O O7 0.610048 0.818112 0.206394
O O8 0.500000 0.502506 0.713257
O O9 0.624507 0.446435 0.640673
O O10 0.620900 0.500000 0.500000
O O11 0.500000 0.586212 0.433551
#
# Coordination Sequence:
#
# PCOD9478143 Si02
#       4
#    16  16  16  16
#     4  12  27  43  63  88 128 174 223 276 320 382
#     4  10  21  40  67  99 130 164 211 267 330 394
#     4   9  19  35  63  98 129 159 199 262 326 388
#     4  10  19  38  67  94 124 165 210 262 328 388
#
# _framework density 20.649601000000001
#
# number of rings (size 3 to 8) (size 9 to 14) (size 15 to 20)
#    0.000    1.750    2.500    1.500    3.500    2.000 
#    0.000    1.250    0.000    0.000    0.000    0.000 
#    0.000    0.000    0.000    0.000    0.000    0.000 
#
# Total GULP energy -178721.314718 kJ/mol
# GULP energy per Si atom -5585.041085 kJ/mol
# Density = 2.060260 g / cm^3
# Si number density = 20.649601 Si / 1000 Ang^3
#
#
#
# Elastic Constant Matrix: (Units=GPa)
#
#
# Indices 1 2 3 4 5 6 
#
# 1 27.0673 25.8601 33.9414 0.0000 0.0000 0.0000
# 2 25.8601 112.2463 24.0251 0.0000 0.0000 0.0000
# 3 33.9414 24.0251 58.5269 0.0000 0.0000 0.0000
# 4 0.0000 0.0000 0.0000 41.5762 0.0000 0.0000
# 5 0.0000 0.0000 0.0000 0.0000 -1.7105 0.0000
# 6 0.0000 0.0000 0.0000 0.0000 0.0000 24.7263
#
#
#
# Elastic Compliance Matrix: (Units=1/GPa)
#
#
# Indices 1 2 3 4 5 6 
#
# 1 0.166827 -0.019435 -0.088770 0.000000 0.000000 0.000000
# 2 -0.019435 0.012031 0.006332 0.000000 0.000000 0.000000
# 3 -0.088770 0.006332 0.065967 0.000000 0.000000 0.000000
# 4 0.000000 0.000000 0.000000 0.024052 0.000000 0.000000
# 5 0.000000 0.000000 0.000000 0.000000 -0.584611 0.000000
# 6 0.000000 0.000000 0.000000 0.000000 0.000000 0.040443
#
#
# Mechanical properties :
#
#
# Convention : Reuss Voigt Hill
#
# Bulk Modulus (GPa) = 24.34259 40.61040 32.47649
# Shear Modulus (GPa) = -86.42888 20.51932 -32.95478
#
# Velocity S-wave (km/s) = -6.47656 3.15571 -3.99921
# Velocity P-wave (km/s) = 6.64182 5.74344 2.35868
#
# Compressibility (1/GPa) = 0.04108026
#
# Stress axis : x y z
#
# Youngs Moduli (GPa) = 5.99422 83.11735 15.15904
#
# Poissons Ratio (x) = 1.61535 1.34567
# Poissons Ratio (y) = 0.11650 -0.09599
# Poissons Ratio (z) = 0.53211 -0.52629
#
# Static dielectric constant tensor:
#      x y z
#    x 1.802210 0.000000 0.000000 
#    y 0.000000 1.745100 0.000000 
#    z 0.000000 0.000000 1.724960 
# 
# From -- ./inp_files/33872.got.cif
#   From: 2010.05.17/outbox.cif.g08.bks.cpg/sg64_17_cif.got.tgz:33872.got - 2010.06.03 16:29:19.
