data_PCOD9478383
_publ_section_title
;
Structure prediction by ZEFSAII (Michael W. Deem and Ramdas Pophale) SiO2 
 PCOD9478383
Probable space group: C M C A
;
_chemical_formula_sum "Si O2"
_cell_formula_units_Z 88
_cell_length_a 35.480855
_cell_length_b 5.246284
_cell_length_c 27.756210
_cell_angle_alpha 90.000000
_cell_angle_beta 90.000000
_cell_angle_gamma 90.000000
_cell_volume 5166.614258
_symmetry_space_group_name_H-M "C M C A"
_symmetry_group_IT_number 64
_symmetry_cell_setting 'orthorhombic'
loop_
_space_group_symop_operation_xyz
x,y,z
-x,1/2-y,1/2+z
x,-y,-z
-x,1/2+y,1/2-z
-x,-y,-z
x,1/2+y,1/2-z
-x,y,z
x,1/2-y,1/2+z
1/2+x,1/2+y,z
1/2-x,-y,1/2+z
1/2+x,1/2-y,-z
1/2-x,y,1/2-z
1/2-x,1/2-y,-z
1/2+x,y,1/2-z
1/2-x,1/2+y,z
1/2+x,-y,1/2+z
loop_
_atom_site_type_symbol
_atom_site_label
_atom_site_fract_x
_atom_site_fract_y
_atom_site_fract_z
Si Si1 0.044505 0.728789 0.718780
Si Si2 0.771616 0.004121 0.941405
Si Si3 0.643236 0.383750 0.054536
Si Si4 0.929347 0.391235 0.384526
Si Si5 0.042724 0.868355 0.434017
Si Si6 0.103947 0.000000 0.500000
O O1 0.051168 0.501710 0.756765
O O2 0.068767 0.680583 0.671209
O O3 0.000000 0.717910 0.704907
O O4 0.744290 0.232322 0.925409
O O5 0.814723 0.063545 0.928391
O O6 0.771022 0.000000 0.000000
O O7 0.611809 0.453350 0.093584
O O8 0.631757 0.093522 0.041765
O O9 0.639791 0.500000 0.000000
O O10 0.953084 0.646014 0.394832
O O11 0.946325 0.145996 0.412926
O O12 0.000000 0.869362 0.451459
O O13 0.073442 0.810986 0.475642
#
# Coordination Sequence:
#
# PCOD9478383 Si02
#       6
#    16  16  16  16  16   8
#     4  10  20  35  54  73  96 125 164 214 259 296
#     4   9  19  30  48  70  94 130 168 199 234 286
#     4  10  20  34  50  70 107 134 166 201 248 293
#     4  11  22  35  53  75  97 133 168 210 259 297
#     4  11  21  33  48  67  97 132 174 209 239 291
#     4  10  21  32  44  68  98 142 170 204 242 284
#
# _framework density 17.032430999999999
#
# number of rings (size 3 to 8) (size 9 to 14) (size 15 to 20)
#    0.000    1.818    1.818    3.000    6.364    1.455 
#    0.000    2.727    0.000    0.000    0.000    0.000 
#    0.000    4.364    0.000    0.000    0.000    0.000 
#
# Total GULP energy -245168.804477 kJ/mol
# GULP energy per Si atom -5572.018284 kJ/mol
# Density = 1.699366 g / cm^3
# Si number density = 17.032431 Si / 1000 Ang^3
#
#
#
# Elastic Constant Matrix: (Units=GPa)
#
#
# Indices 1 2 3 4 5 6 
#
# 1 129.6946 26.9656 19.7673 0.0000 0.0000 0.0000
# 2 26.9656 64.4963 -8.9073 0.0000 0.0000 0.0000
# 3 19.7673 -8.9073 42.4056 0.0000 0.0000 0.0000
# 4 0.0000 0.0000 0.0000 16.7390 0.0000 0.0000
# 5 0.0000 0.0000 0.0000 0.0000 14.1687 0.0000
# 6 0.0000 0.0000 0.0000 0.0000 0.0000 13.8579
#
#
#
# Elastic Compliance Matrix: (Units=1/GPa)
#
#
# Indices 1 2 3 4 5 6 
#
# 1 0.009522 -0.004731 -0.005433 0.000000 0.000000 0.000000
# 2 -0.004731 0.018319 0.006053 0.000000 0.000000 0.000000
# 3 -0.005433 0.006053 0.027386 0.000000 0.000000 0.000000
# 4 0.000000 0.000000 0.000000 0.059741 0.000000 0.000000
# 5 0.000000 0.000000 0.000000 0.000000 0.070578 0.000000
# 6 0.000000 0.000000 0.000000 0.000000 0.000000 0.072161
#
#
# Mechanical properties :
#
#
# Convention : Reuss Voigt Hill
#
# Bulk Modulus (GPa) = 21.27401 34.69419 27.98410
# Shear Modulus (GPa) = 17.75592 22.20452 19.98022
#
# Velocity S-wave (km/s) = 3.23224 3.61454 3.42873
# Velocity P-wave (km/s) = 5.14269 6.15090 5.66925
#
# Compressibility (1/GPa) = 0.04700571
#
# Stress axis : x y z
#
# Youngs Moduli (GPa) = 105.01806 54.58822 36.51540
#
# Poissons Ratio (x) = 0.25828 0.19837
# Poissons Ratio (y) = 0.49689 -0.22104
# Poissons Ratio (z) = 0.57052 -0.33045
#
# Static dielectric constant tensor:
#      x y z
#    x 1.571590 0.000000 0.000000 
#    y 0.000000 1.705120 0.000000 
#    z 0.000000 0.000000 1.587060 
# 
# From -- ./inp_files/47080.got.cif
#   From: 2010.05.17/outbox.cif.g08.bks.cpg/sg64_24_cif.got.tgz:47080.got - 2010.06.03 16:29:19.
