data_PCOD9478145
_publ_section_title
;
Structure prediction by ZEFSAII (Michael W. Deem and Ramdas Pophale) SiO2 
 PCOD9478145
Probable space group: C M C A
;
_chemical_formula_sum "Si O2"
_cell_formula_units_Z 96
_cell_length_a 21.071378
_cell_length_b 22.512101
_cell_length_c 8.491015
_cell_angle_alpha 90.000000
_cell_angle_beta 90.000000
_cell_angle_gamma 90.000000
_cell_volume 4027.806279
_symmetry_space_group_name_H-M "C M C A"
_symmetry_group_IT_number 64
_symmetry_cell_setting 'orthorhombic'
loop_
_space_group_symop_operation_xyz
x,y,z
-x,1/2-y,1/2+z
x,-y,-z
-x,1/2+y,1/2-z
-x,-y,-z
x,1/2+y,1/2-z
-x,y,z
x,1/2-y,1/2+z
1/2+x,1/2+y,z
1/2-x,-y,1/2+z
1/2+x,1/2-y,-z
1/2-x,y,1/2-z
1/2-x,1/2-y,-z
1/2+x,y,1/2-z
1/2-x,1/2+y,z
1/2+x,-y,1/2+z
loop_
_atom_site_type_symbol
_atom_site_label
_atom_site_fract_x
_atom_site_fract_y
_atom_site_fract_z
Si Si1 0.927938 0.746329 0.222980
Si Si2 0.265906 0.137514 0.915044
Si Si3 0.864883 0.541839 0.846864
Si Si4 0.573123 0.944183 0.666357
Si Si5 0.627092 0.837369 0.503925
Si Si6 0.399596 0.140320 0.034686
O O1 0.891240 0.708117 0.355495
O O2 0.932847 0.700920 0.074995
O O3 0.000000 0.760317 0.268925
O O4 0.890749 0.802970 0.156140
O O5 0.250000 0.169668 0.750000
O O6 0.296799 0.074222 0.860133
O O7 0.299803 0.358281 0.993007
O O8 0.325238 0.158894 0.018330
O O9 0.882441 0.501151 0.699152
O O10 0.868906 0.500000 0.000000
O O11 0.911283 0.597612 0.885068
O O12 0.500000 0.963061 0.663164
O O13 0.587951 0.898087 0.527610
O O14 0.585276 0.902204 0.818328
#
# Coordination Sequence:
#
# PCOD9478145 Si02
#       6
#    16  16  16  16  16  16
#     4  11  23  42  68 100 138 186 243 295 361 430
#     4  10  23  42  59  93 138 180 243 287 360 425
#     4   8  18  37  61 100 127 183 226 294 363 420
#     4  10  19  38  68 102 136 176 236 294 361 435
#     4  11  25  42  69 100 143 189 232 306 357 426
#     4   8  19  37  59  98 128 183 229 294 352 417
#
# _framework density 23.834313000000002
#
# number of rings (size 3 to 8) (size 9 to 14) (size 15 to 20)
#    1.000    1.333    0.000    3.000    2.333    8.333 
#    0.000    0.000    0.000    4.000    0.000    0.000 
#    0.000    0.000    0.000    0.000    0.000    0.000 
#
# Total GULP energy -267328.749560 kJ/mol
# GULP energy per Si atom -5569.348949 kJ/mol
# Density = 2.378007 g / cm^3
# Si number density = 23.834313 Si / 1000 Ang^3
#
#
#
# Elastic Constant Matrix: (Units=GPa)
#
#
# Indices 1 2 3 4 5 6 
#
# 1 170.4468 41.0648 36.8975 0.0000 0.0000 0.0000
# 2 41.0648 110.9186 63.7360 0.0000 0.0000 0.0000
# 3 36.8975 63.7360 66.3295 0.0000 0.0000 0.0000
# 4 0.0000 0.0000 0.0000 64.7926 0.0000 0.0000
# 5 0.0000 0.0000 0.0000 0.0000 -158.4431 0.0000
# 6 0.0000 0.0000 0.0000 0.0000 0.0000 24.4781
#
#
#
# Elastic Compliance Matrix: (Units=1/GPa)
#
#
# Indices 1 2 3 4 5 6 
#
# 1 0.006698 -0.000756 -0.002999 0.000000 0.000000 0.000000
# 2 -0.000756 0.020216 -0.019005 0.000000 0.000000 0.000000
# 3 -0.002999 -0.019005 0.035007 0.000000 0.000000 0.000000
# 4 0.000000 0.000000 0.000000 0.015434 0.000000 0.000000
# 5 0.000000 0.000000 0.000000 0.000000 -0.006311 0.000000
# 6 0.000000 0.000000 0.000000 0.000000 0.000000 0.040853
#
#
# Mechanical properties :
#
#
# Convention : Reuss Voigt Hill
#
# Bulk Modulus (GPa) = 60.97646 70.12127 65.54887
# Shear Modulus (GPa) = 30.69648 -0.10136 15.29756
#
# Velocity S-wave (km/s) = 3.59264 -0.20644 2.53618
# Velocity P-wave (km/s) = 6.54587 5.42470 6.01148
#
# Compressibility (1/GPa) = 0.01639977
#
# Stress axis : x y z
#
# Youngs Moduli (GPa) = 149.28807 49.46480 28.56599
#
# Poissons Ratio (x) = 0.03742 0.08568
# Poissons Ratio (y) = 0.11294 0.54290
# Poissons Ratio (z) = 0.44776 0.94008
#
# Static dielectric constant tensor:
#      x y z
#    x 1.917030 0.000000 0.000000 
#    y 0.000000 1.960680 0.000000 
#    z 0.000000 0.000000 2.105350 
# 
# From -- ./inp_files/17489.got.cif
#   From: 2010.05.17/outbox.cif.g08.bks.cpg/sg64_9_cif.got.tgz:17489.got - 2010.06.03 16:29:19.
