data_PCOD9478251
_publ_section_title
;
Structure prediction by ZEFSAII (Michael W. Deem and Ramdas Pophale) SiO2 
 PCOD9478251
Probable space group: C M C A
;
_chemical_formula_sum "Si O2"
_cell_formula_units_Z 56
_cell_length_a 26.288197
_cell_length_b 22.808489
_cell_length_c 5.009232
_cell_angle_alpha 90.000000
_cell_angle_beta 90.000000
_cell_angle_gamma 90.000000
_cell_volume 3003.505713
_symmetry_space_group_name_H-M "C M C A"
_symmetry_group_IT_number 64
_symmetry_cell_setting 'orthorhombic'
loop_
_space_group_symop_operation_xyz
x,y,z
-x,1/2-y,1/2+z
x,-y,-z
-x,1/2+y,1/2-z
-x,-y,-z
x,1/2+y,1/2-z
-x,y,z
x,1/2-y,1/2+z
1/2+x,1/2+y,z
1/2-x,-y,1/2+z
1/2+x,1/2-y,-z
1/2-x,y,1/2-z
1/2-x,1/2-y,-z
1/2+x,y,1/2-z
1/2-x,1/2+y,z
1/2+x,-y,1/2+z
loop_
_atom_site_type_symbol
_atom_site_label
_atom_site_fract_x
_atom_site_fract_y
_atom_site_fract_z
Si Si1 0.089104 0.380580 0.575840
Si Si2 0.500000 0.211703 0.418789
Si Si3 0.642671 0.429064 0.448752
Si Si4 0.250000 0.040838 0.750000
Si Si5 0.000000 0.040296 0.251871
O O1 0.052699 0.324128 0.529812
O O2 0.106979 0.407156 0.294205
O O3 0.049432 0.421204 0.733039
O O4 0.134724 0.387796 0.790287
O O5 0.500000 0.267311 0.613885
O O6 0.635230 0.500000 0.500000
O O7 0.700768 0.424495 0.347938
O O8 0.266163 0.000000 0.500000
O O9 0.000000 0.000000 0.500000
O O10 0.000000 0.000000 0.000000
#
# Coordination Sequence:
#
# PCOD9478251 Si02
#       5
#    16   8  16   8   8
#     4  11  22  34  54  79 103 143 184 216 271 324
#     4  11  24  43  59  78 105 136 186 244 282 326
#     4  11  20  34  53  82 118 148 177 212 253 320
#     4  10  20  32  50  78 116 158 184 206 248 306
#     4  11  20  29  44  72 108 136 160 200 253 318
#
# _framework density 18.644877999999999
#
# number of rings (size 3 to 8) (size 9 to 14) (size 15 to 20)
#    0.000    1.143    0.000   10.286    0.000    4.571 
#    0.000    2.143    0.000    0.000    0.000   20.000 
#    0.000    0.000    0.000    0.000    0.000    0.000 
#
# Total GULP energy -156063.047024 kJ/mol
# GULP energy per Si atom -5573.680251 kJ/mol
# Density = 1.860244 g / cm^3
# Si number density = 18.644878 Si / 1000 Ang^3
#
#
#
# Elastic Constant Matrix: (Units=GPa)
#
#
# Indices 1 2 3 4 5 6 
#
# 1 93.3151 26.8209 18.6939 0.0000 0.0000 0.0000
# 2 26.8209 43.5838 13.4106 0.0000 0.0000 0.0000
# 3 18.6939 13.4106 117.7310 0.0000 0.0000 0.0000
# 4 0.0000 0.0000 0.0000 32.4474 0.0000 0.0000
# 5 0.0000 0.0000 0.0000 0.0000 -293.7037 0.0000
# 6 0.0000 0.0000 0.0000 0.0000 0.0000 16.5245
#
#
#
# Elastic Compliance Matrix: (Units=1/GPa)
#
#
# Indices 1 2 3 4 5 6 
#
# 1 0.013184 -0.007740 -0.001212 0.000000 0.000000 0.000000
# 2 -0.007740 0.028322 -0.001997 0.000000 0.000000 0.000000
# 3 -0.001212 -0.001997 0.008914 0.000000 0.000000 0.000000
# 4 0.000000 0.000000 0.000000 0.030819 0.000000 0.000000
# 5 0.000000 0.000000 0.000000 0.000000 -0.003405 0.000000
# 6 0.000000 0.000000 0.000000 0.000000 0.000000 0.060516
#
#
# Mechanical properties :
#
#
# Convention : Reuss Voigt Hill
#
# Bulk Modulus (GPa) = 35.06125 41.38674 38.22399
# Shear Modulus (GPa) = 29.45409 -35.89938 -3.22264
#
# Velocity S-wave (km/s) = 3.97891 -4.39273 -1.31613
# Velocity P-wave (km/s) = 6.32096 1.86616 4.27036
#
# Compressibility (1/GPa) = 0.02852152
#
# Stress axis : x y z
#
# Youngs Moduli (GPa) = 75.85022 35.30813 112.18524
#
# Poissons Ratio (x) = 0.27330 0.13594
# Poissons Ratio (y) = 0.58711 0.22404
# Poissons Ratio (z) = 0.09191 0.07051
#
# Static dielectric constant tensor:
#      x y z
#    x 1.411450 0.000000 0.000000 
#    y 0.000000 1.645190 0.000000 
#    z 0.000000 0.000000 1.672310 
# 
# From -- ./inp_files/2707.got.cif
#   From: 2010.05.17/outbox.cif.g08.bks.cpg/sg64_2_cif.got.tgz:2707.got - 2010.06.03 16:29:19.
