data_PCOD9478521
_publ_section_title
;
Structure prediction by ZEFSAII (Michael W. Deem and Ramdas Pophale) SiO2 
 PCOD9478521
Probable space group: C M C A
;
_chemical_formula_sum "Si O2"
_cell_formula_units_Z 88
_cell_length_a 24.772500
_cell_length_b 14.122813
_cell_length_c 10.554352
_cell_angle_alpha 90.000000
_cell_angle_beta 90.000000
_cell_angle_gamma 90.000000
_cell_volume 3692.517992
_symmetry_space_group_name_H-M "C M C A"
_symmetry_group_IT_number 64
_symmetry_cell_setting 'orthorhombic'
loop_
_space_group_symop_operation_xyz
x,y,z
-x,1/2-y,1/2+z
x,-y,-z
-x,1/2+y,1/2-z
-x,-y,-z
x,1/2+y,1/2-z
-x,y,z
x,1/2-y,1/2+z
1/2+x,1/2+y,z
1/2-x,-y,1/2+z
1/2+x,1/2-y,-z
1/2-x,y,1/2-z
1/2-x,1/2-y,-z
1/2+x,y,1/2-z
1/2-x,1/2+y,z
1/2+x,-y,1/2+z
loop_
_atom_site_type_symbol
_atom_site_label
_atom_site_fract_x
_atom_site_fract_y
_atom_site_fract_z
Si Si1 0.187229 0.166757 0.720438
Si Si2 0.383518 0.144777 0.002225
Si Si3 0.500000 0.946292 0.367968
Si Si4 0.117690 0.143483 0.214240
Si Si5 0.613146 0.130671 0.560651
Si Si6 0.000000 0.854893 0.742888
Si Si7 0.000000 0.391397 0.034662
O O1 0.250000 0.170183 0.750000
O O2 0.167754 0.124446 0.586085
O O3 0.161763 0.273295 0.717651
O O4 0.158360 0.112257 0.835110
O O5 0.438365 0.124792 0.922448
O O6 0.382802 0.098165 0.143690
O O7 0.383652 0.256541 0.033270
O O8 0.555318 0.889418 0.376069
O O9 0.500000 0.000000 0.500000
O O10 0.500000 0.030975 0.266191
O O11 0.055772 0.181093 0.201333
O O12 0.122102 0.087570 0.080893
O O13 0.000000 0.832007 0.595848
O O14 0.000000 0.500000 0.000000
#
# Coordination Sequence:
#
# PCOD9478521 Si02
#       7
#    16  16   8  16  16   8   8
#     4  10  22  37  57  82 111 148 202 248 275 320
#     4   9  20  36  55  82 122 149 188 239 291 342
#     4  12  21  33  59  88 121 149 183 233 297 358
#     4   9  18  35  55  81 114 149 181 233 291 343
#     4  10  20  34  57  85 113 148 190 234 292 339
#     4  10  20  35  52  85 125 147 180 232 290 368
#     4  10  21  34  55  87 122 157 185 223 298 374
#
# _framework density 23.831975
#
# number of rings (size 3 to 8) (size 9 to 14) (size 15 to 20)
#    0.000    2.182    1.818    0.545    2.545   10.909 
#    0.000    0.000    0.000    2.182    0.000    0.000 
#    0.000    0.000    0.000    0.000    0.000    0.000 
#
# Total GULP energy -245383.320069 kJ/mol
# GULP energy per Si atom -5576.893638 kJ/mol
# Density = 2.377773 g / cm^3
# Si number density = 23.831975 Si / 1000 Ang^3
#
#
#
# Elastic Constant Matrix: (Units=GPa)
#
#
# Indices 1 2 3 4 5 6 
#
# 1 206.1924 26.5788 88.2602 0.0000 0.0000 0.0000
# 2 26.5788 56.9308 15.0069 0.0000 0.0000 0.0000
# 3 88.2602 15.0069 196.5032 0.0000 0.0000 0.0000
# 4 0.0000 0.0000 0.0000 23.2383 0.0000 0.0000
# 5 0.0000 0.0000 0.0000 0.0000 3.1648 0.0000
# 6 0.0000 0.0000 0.0000 0.0000 0.0000 10.0770
#
#
#
# Elastic Compliance Matrix: (Units=1/GPa)
#
#
# Indices 1 2 3 4 5 6 
#
# 1 0.006270 -0.002230 -0.002646 0.000000 0.000000 0.000000
# 2 -0.002230 0.018719 -0.000428 0.000000 0.000000 0.000000
# 3 -0.002646 -0.000428 0.006310 0.000000 0.000000 0.000000
# 4 0.000000 0.000000 0.000000 0.043032 0.000000 0.000000
# 5 0.000000 0.000000 0.000000 0.000000 0.315977 0.000000
# 6 0.000000 0.000000 0.000000 0.000000 0.000000 0.099236
#
#
# Mechanical properties :
#
#
# Convention : Reuss Voigt Hill
#
# Bulk Modulus (GPa) = 48.32871 79.92425 64.12648
# Shear Modulus (GPa) = 9.86100 29.28139 19.57119
#
# Velocity S-wave (km/s) = 2.03634 3.50903 2.86880
# Velocity P-wave (km/s) = 5.08448 7.07298 6.15950
#
# Compressibility (1/GPa) = 0.02069163
#
# Stress axis : x y z
#
# Youngs Moduli (GPa) = 159.49504 53.42165 158.47739
#
# Poissons Ratio (x) = 0.11911 0.41930
# Poissons Ratio (y) = 0.35562 0.06784
# Poissons Ratio (z) = 0.42199 0.02287
#
# Static dielectric constant tensor:
#      x y z
#    x 1.867820 0.000000 0.000000 
#    y 0.000000 1.955620 0.000000 
#    z 0.000000 0.000000 1.969760 
# 
# From -- ./inp_files/17190.got.cif
#   From: 2010.05.17/outbox.cif.g08.bks.cpg/sg64_9_cif.got.tgz:17190.got - 2010.06.03 16:29:19.
