data_PCOD9478802
_publ_section_title
;
Structure prediction by ZEFSAII (Michael W. Deem and Ramdas Pophale) SiO2 
 PCOD9478802
Probable space group: C M C A
;
_chemical_formula_sum "Si O2"
_cell_formula_units_Z 80
_cell_length_a 16.573932
_cell_length_b 26.527899
_cell_length_c 8.075137
_cell_angle_alpha 90.000000
_cell_angle_beta 90.000000
_cell_angle_gamma 90.000000
_cell_volume 3550.408358
_symmetry_space_group_name_H-M "C M C A"
_symmetry_group_IT_number 64
_symmetry_cell_setting 'orthorhombic'
loop_
_space_group_symop_operation_xyz
x,y,z
-x,1/2-y,1/2+z
x,-y,-z
-x,1/2+y,1/2-z
-x,-y,-z
x,1/2+y,1/2-z
-x,y,z
x,1/2-y,1/2+z
1/2+x,1/2+y,z
1/2-x,-y,1/2+z
1/2+x,1/2-y,-z
1/2-x,y,1/2-z
1/2-x,1/2-y,-z
1/2+x,y,1/2-z
1/2-x,1/2+y,z
1/2+x,-y,1/2+z
loop_
_atom_site_type_symbol
_atom_site_label
_atom_site_fract_x
_atom_site_fract_y
_atom_site_fract_z
Si Si1 0.405130 0.779628 0.058175
Si Si2 0.842100 0.423376 0.806665
Si Si3 0.903821 0.884608 0.344509
Si Si4 0.839313 0.975449 0.180026
Si Si5 0.906984 0.178393 0.183435
O O1 0.500000 0.772983 0.101727
O O2 0.376493 0.826373 0.171257
O O3 0.368406 0.724093 0.078915
O O4 0.402169 0.799616 0.870980
O O5 0.750000 0.429880 0.750000
O O6 0.879504 0.478825 0.783482
O O7 0.871548 0.377206 0.693443
O O8 0.858377 0.406726 0.994347
O O9 0.886017 0.923050 0.197017
O O10 0.000000 0.883670 0.379103
O O11 0.750000 0.965081 0.250000
O O12 0.833465 0.000000 0.000000
O O13 0.000000 0.171575 0.133841
#
# Coordination Sequence:
#
# PCOD9478802 Si02
#       5
#    16  16  16  16  16
#     4   8  16  31  52  78 108 144 183 228 281 330
#     4  10  20  36  56  80 112 150 189 230 282 340
#     4  10  21  39  61  84 114 152 193 235 282 337
#     4  11  23  39  58  82 114 151 188 232 289 343
#     4   9  17  32  53  75 104 144 187 228 276 333
#
# _framework density 22.532620999999999
#
# number of rings (size 3 to 8) (size 9 to 14) (size 15 to 20)
#    0.000    2.400    0.000    4.800    0.000    4.400 
#    0.000    7.000    0.000    0.000    0.000    0.000 
#    0.000    0.000    0.000    0.000    0.000    0.000 
#
# Total GULP energy -223074.656561 kJ/mol
# GULP energy per Si atom -5576.866414 kJ/mol
# Density = 2.248134 g / cm^3
# Si number density = 22.532621 Si / 1000 Ang^3
#
#
#
# Elastic Constant Matrix: (Units=GPa)
#
#
# Indices 1 2 3 4 5 6 
#
# 1 29.1820 11.6436 8.4534 0.0000 0.0000 0.0000
# 2 11.6436 67.5519 2.2943 0.0000 0.0000 0.0000
# 3 8.4534 2.2943 49.9227 0.0000 0.0000 0.0000
# 4 0.0000 0.0000 0.0000 41.9916 0.0000 0.0000
# 5 0.0000 0.0000 0.0000 0.0000 16.6841 0.0000
# 6 0.0000 0.0000 0.0000 0.0000 0.0000 29.0320
#
#
#
# Elastic Compliance Matrix: (Units=1/GPa)
#
#
# Indices 1 2 3 4 5 6 
#
# 1 0.038651 -0.006450 -0.006248 0.000000 0.000000 0.000000
# 2 -0.006450 0.015903 0.000361 0.000000 0.000000 0.000000
# 3 -0.006248 0.000361 0.021072 0.000000 0.000000 0.000000
# 4 0.000000 0.000000 0.000000 0.023814 0.000000 0.000000
# 5 0.000000 0.000000 0.000000 0.000000 0.059937 0.000000
# 6 0.000000 0.000000 0.000000 0.000000 0.000000 0.034445
#
#
# Mechanical properties :
#
#
# Convention : Reuss Voigt Hill
#
# Bulk Modulus (GPa) = 19.62607 21.27100 20.44853
# Shear Modulus (GPa) = 21.23313 25.82590 23.52952
#
# Velocity S-wave (km/s) = 3.07307 3.38917 3.23498
# Velocity P-wave (km/s) = 4.61743 4.97753 4.80086
#
# Compressibility (1/GPa) = 0.05095264
#
# Stress axis : x y z
#
# Youngs Moduli (GPa) = 25.87238 62.88166 47.45543
#
# Poissons Ratio (x) = 0.40558 0.29652
# Poissons Ratio (y) = 0.16687 -0.01715
# Poissons Ratio (z) = 0.16166 -0.02272
#
# Static dielectric constant tensor:
#      x y z
#    x 1.825980 0.000000 0.000000 
#    y 0.000000 1.913740 0.000000 
#    z 0.000000 0.000000 1.906720 
# 
# From -- ./inp_files/7073.got.cif
#   From: 2010.05.17/outbox.cif.g08.bks.cpg/sg64_4_cif.got.tgz:7073.got - 2010.06.03 16:29:19.
