data_PCOD9478105
_publ_section_title
;
Structure prediction by ZEFSAII (Michael W. Deem and Ramdas Pophale) SiO2 
 PCOD9478105
Probable space group: C M C A
;
_chemical_formula_sum "Si O2"
_cell_formula_units_Z 88
_cell_length_a 14.626705
_cell_length_b 12.540778
_cell_length_c 20.460188
_cell_angle_alpha 90.000000
_cell_angle_beta 90.000000
_cell_angle_gamma 90.000000
_cell_volume 3753.017610
_symmetry_space_group_name_H-M "C M C A"
_symmetry_group_IT_number 64
_symmetry_cell_setting 'orthorhombic'
loop_
_space_group_symop_operation_xyz
x,y,z
-x,1/2-y,1/2+z
x,-y,-z
-x,1/2+y,1/2-z
-x,-y,-z
x,1/2+y,1/2-z
-x,y,z
x,1/2-y,1/2+z
1/2+x,1/2+y,z
1/2-x,-y,1/2+z
1/2+x,1/2-y,-z
1/2-x,y,1/2-z
1/2-x,1/2-y,-z
1/2+x,y,1/2-z
1/2-x,1/2+y,z
1/2+x,-y,1/2+z
loop_
_atom_site_type_symbol
_atom_site_label
_atom_site_fract_x
_atom_site_fract_y
_atom_site_fract_z
Si Si1 0.608401 0.417368 0.644090
Si Si2 0.649806 0.647078 0.625678
Si Si3 0.000000 0.322976 0.632159
Si Si4 0.000000 0.940026 0.161014
Si Si5 0.324300 0.301195 0.192709
Si Si6 0.500000 0.837357 0.474938
Si Si7 0.837692 0.681547 0.018288
O O1 0.500000 0.407499 0.631376
O O2 0.626443 0.539010 0.663983
O O3 0.639530 0.320277 0.690072
O O4 0.668181 0.399165 0.578101
O O5 0.587654 0.747870 0.645966
O O6 0.756188 0.673935 0.632608
O O7 0.627691 0.629749 0.549145
O O8 0.000000 0.350819 0.553790
O O9 0.000000 0.433026 0.671822
O O10 0.910446 0.880101 0.188732
O O11 0.000000 0.925659 0.081476
O O12 0.250000 0.314592 0.250000
O O13 0.586983 0.765796 0.459850
O O14 0.750000 0.750000 0.000000
#
# Coordination Sequence:
#
# PCOD9478105 Si02
#       7
#    16  16   8   8  16   8  16
#     4  12  23  47  75 103 147 193 238 303 372 441
#     4  11  25  43  69 112 147 183 240 299 364 437
#     4  10  25  41  70 117 152 182 234 293 365 453
#     4  12  23  50  73 103 151 198 239 302 361 433
#     4  12  28  49  74 102 137 194 253 299 362 433
#     4  10  19  37  69 105 148 190 229 284 357 443
#     4  11  19  37  68 106 146 187 233 291 362 443
#
# _framework density 23.447799
#
# number of rings (size 3 to 8) (size 9 to 14) (size 15 to 20)
#    0.000    0.727    6.364    0.818    2.545    2.182 
#    0.000    3.636    0.000    0.000    0.000    0.000 
#    0.000    0.000    0.000    0.000    0.000    0.000 
#
# Total GULP energy -245905.385398 kJ/mol
# GULP energy per Si atom -5588.758759 kJ/mol
# Density = 2.339443 g / cm^3
# Si number density = 23.447799 Si / 1000 Ang^3
#
#
#
# Elastic Constant Matrix: (Units=GPa)
#
#
# Indices 1 2 3 4 5 6 
#
# 1 180.7189 86.4675 27.1821 0.0000 0.0000 0.0000
# 2 86.4675 215.4946 40.6418 0.0000 0.0000 0.0000
# 3 27.1821 40.6418 74.1768 0.0000 0.0000 0.0000
# 4 0.0000 0.0000 0.0000 13.3121 0.0000 0.0000
# 5 0.0000 0.0000 0.0000 0.0000 19.7752 0.0000
# 6 0.0000 0.0000 0.0000 0.0000 0.0000 29.8806
#
#
#
# Elastic Compliance Matrix: (Units=1/GPa)
#
#
# Indices 1 2 3 4 5 6 
#
# 1 0.006933 -0.002568 -0.001133 0.000000 0.000000 0.000000
# 2 -0.002568 0.006126 -0.002416 0.000000 0.000000 0.000000
# 3 -0.001133 -0.002416 0.015220 0.000000 0.000000 0.000000
# 4 0.000000 0.000000 0.000000 0.075119 0.000000 0.000000
# 5 0.000000 0.000000 0.000000 0.000000 0.050568 0.000000
# 6 0.000000 0.000000 0.000000 0.000000 0.000000 0.033467
#
#
# Mechanical properties :
#
#
# Convention : Reuss Voigt Hill
#
# Bulk Modulus (GPa) = 62.32435 86.55257 74.43846
# Shear Modulus (GPa) = 24.38832 33.66685 29.02758
#
# Velocity S-wave (km/s) = 3.22857 3.79333 3.52229
# Velocity P-wave (km/s) = 6.36679 7.49526 6.95395
#
# Compressibility (1/GPa) = 0.01604509
#
# Stress axis : x y z
#
# Youngs Moduli (GPa) = 144.24572 163.22596 65.70201
#
# Poissons Ratio (x) = 0.41916 0.07447
# Poissons Ratio (y) = 0.37042 0.15872
# Poissons Ratio (z) = 0.16350 0.39430
#
# Static dielectric constant tensor:
#      x y z
#    x 1.803270 0.000000 0.000000 
#    y 0.000000 1.871790 0.000000 
#    z 0.000000 0.000000 2.072610 
# 
# From -- ./inp_files/39101.got.cif
#   From: 2010.05.17/outbox.cif.g08.bks.cpg/sg64_20_cif.got.tgz:39101.got - 2010.06.03 16:29:19.
