data_PCOD9478713
_publ_section_title
;
Structure prediction by ZEFSAII (Michael W. Deem and Ramdas Pophale) SiO2 
 PCOD9478713
Probable space group: C M C A
;
_chemical_formula_sum "Si O2"
_cell_formula_units_Z 88
_cell_length_a 13.872334
_cell_length_b 12.630225
_cell_length_c 27.491039
_cell_angle_alpha 90.000000
_cell_angle_beta 90.000000
_cell_angle_gamma 90.000000
_cell_volume 4816.724179
_symmetry_space_group_name_H-M "C M C A"
_symmetry_group_IT_number 64
_symmetry_cell_setting 'orthorhombic'
loop_
_space_group_symop_operation_xyz
x,y,z
-x,1/2-y,1/2+z
x,-y,-z
-x,1/2+y,1/2-z
-x,-y,-z
x,1/2+y,1/2-z
-x,y,z
x,1/2-y,1/2+z
1/2+x,1/2+y,z
1/2-x,-y,1/2+z
1/2+x,1/2-y,-z
1/2-x,y,1/2-z
1/2-x,1/2-y,-z
1/2+x,y,1/2-z
1/2-x,1/2+y,z
1/2+x,-y,1/2+z
loop_
_atom_site_type_symbol
_atom_site_label
_atom_site_fract_x
_atom_site_fract_y
_atom_site_fract_z
Si Si1 0.613206 0.985635 0.322077
Si Si2 0.611207 0.632103 0.430753
Si Si3 0.389349 0.767956 0.823103
Si Si4 0.250000 0.108961 0.250000
Si Si5 0.615013 0.336626 0.009229
Si Si6 0.196015 0.527371 0.427142
O O1 0.500000 0.012396 0.319106
O O2 0.621475 0.858461 0.321892
O O3 0.674180 0.037002 0.279052
O O4 0.657537 0.026130 0.372691
O O5 0.500000 0.598620 0.436215
O O6 0.620643 0.691111 0.378585
O O7 0.634710 0.718211 0.472551
O O8 0.689186 0.539672 0.430719
O O9 0.500000 0.793426 0.807951
O O10 0.311215 0.821472 0.788197
O O11 0.500000 0.350906 0.011375
O O12 0.660931 0.421126 0.046342
O O13 0.652112 0.373221 0.956780
#
# Coordination Sequence:
#
# PCOD9478713 Si02
#       6
#    16  16  16   8  16  16
#     4  11  22  37  59  83 110 144 184 232 273 320
#     4  10  20  36  56  79 112 150 180 216 277 332
#     4  10  21  38  56  79 111 144 181 222 275 333
#     4  12  22  38  58  84 106 144 186 230 276 322
#     4  10  20  35  59  85 111 144 183 228 270 327
#     4  11  19  34  58  87 108 141 189 227 267 320
#
# _framework density 18.269677999999999
#
# number of rings (size 3 to 8) (size 9 to 14) (size 15 to 20)
#    0.000    1.455    3.636    3.818    0.000    0.000 
#    0.000    1.818    0.000    6.545    0.000    0.000 
#    0.000    0.000    0.000    0.000    0.000    0.000 
#
# Total GULP energy -245780.371679 kJ/mol
# GULP energy per Si atom -5585.917538 kJ/mol
# Density = 1.822809 g / cm^3
# Si number density = 18.269678 Si / 1000 Ang^3
#
#
#
# Elastic Constant Matrix: (Units=GPa)
#
#
# Indices 1 2 3 4 5 6 
#
# 1 90.9946 27.4886 -5.5432 0.0000 0.0000 0.0000
# 2 27.4886 16.6756 -4.6596 0.0000 0.0000 0.0000
# 3 -5.5432 -4.6596 38.1359 0.0000 0.0000 0.0000
# 4 0.0000 0.0000 0.0000 6.4697 0.0000 0.0000
# 5 0.0000 0.0000 0.0000 0.0000 31.1854 0.0000
# 6 0.0000 0.0000 0.0000 0.0000 0.0000 17.7213
#
#
#
# Elastic Compliance Matrix: (Units=1/GPa)
#
#
# Indices 1 2 3 4 5 6 
#
# 1 0.021950 -0.036540 -0.001274 0.000000 0.000000 0.000000
# 2 -0.036540 0.122913 0.009707 0.000000 0.000000 0.000000
# 3 -0.001274 0.009707 0.027223 0.000000 0.000000 0.000000
# 4 0.000000 0.000000 0.000000 0.154568 0.000000 0.000000
# 5 0.000000 0.000000 0.000000 0.000000 0.032066 0.000000
# 6 0.000000 0.000000 0.000000 0.000000 0.000000 0.056429
#
#
# Mechanical properties :
#
#
# Convention : Reuss Voigt Hill
#
# Bulk Modulus (GPa) = 8.63011 20.04197 14.33604
# Shear Modulus (GPa) = 9.80416 19.64330 14.72373
#
# Velocity S-wave (km/s) = 2.31905 3.28256 2.84194
# Velocity P-wave (km/s) = 3.45031 5.03595 4.31657
#
# Compressibility (1/GPa) = 0.11587332
#
# Stress axis : x y z
#
# Youngs Moduli (GPa) = 45.55737 8.13581 36.73382
#
# Poissons Ratio (x) = 0.29728 0.04680
# Poissons Ratio (y) = 1.66465 -0.35658
# Poissons Ratio (z) = 0.05804 -0.07897
#
# Static dielectric constant tensor:
#      x y z
#    x 1.628640 0.000000 0.000000 
#    y 0.000000 1.602860 0.000000 
#    z 0.000000 0.000000 1.616160 
# 
# From -- ./inp_files/44092.got.cif
#   From: 2010.05.17/outbox.cif.g08.bks.cpg/sg64_23_cif.got.tgz:44092.got - 2010.06.03 16:29:19.
