data_PCOD9478818
_publ_section_title
;
Structure prediction by ZEFSAII (Michael W. Deem and Ramdas Pophale) SiO2 
 PCOD9478818
Probable space group: C M C A
;
_chemical_formula_sum "Si O2"
_cell_formula_units_Z 80
_cell_length_a 18.412659
_cell_length_b 14.547137
_cell_length_c 13.715225
_cell_angle_alpha 90.000000
_cell_angle_beta 90.000000
_cell_angle_gamma 90.000000
_cell_volume 3673.643219
_symmetry_space_group_name_H-M "C M C A"
_symmetry_group_IT_number 64
_symmetry_cell_setting 'orthorhombic'
loop_
_space_group_symop_operation_xyz
x,y,z
-x,1/2-y,1/2+z
x,-y,-z
-x,1/2+y,1/2-z
-x,-y,-z
x,1/2+y,1/2-z
-x,y,z
x,1/2-y,1/2+z
1/2+x,1/2+y,z
1/2-x,-y,1/2+z
1/2+x,1/2-y,-z
1/2-x,y,1/2-z
1/2-x,1/2-y,-z
1/2+x,y,1/2-z
1/2-x,1/2+y,z
1/2+x,-y,1/2+z
loop_
_atom_site_type_symbol
_atom_site_label
_atom_site_fract_x
_atom_site_fract_y
_atom_site_fract_z
Si Si1 0.628136 0.008564 0.281874
Si Si2 0.415329 0.795990 0.279023
Si Si3 0.419091 0.826385 0.599024
Si Si4 0.305444 0.803135 0.432236
Si Si5 0.273764 0.480658 0.387197
O O1 0.596745 0.905698 0.294661
O O2 0.654838 0.008632 0.170698
O O3 0.703224 0.027634 0.340553
O O4 0.579528 0.088000 0.326076
O O5 0.500000 0.774132 0.299216
O O6 0.400615 0.760328 0.169100
O O7 0.355587 0.752759 0.352200
O O8 0.500000 0.812721 0.558603
O O9 0.364241 0.842836 0.509807
O O10 0.250000 0.750000 0.500000
O O11 0.253549 0.875650 0.377252
O O12 0.280903 0.500000 0.500000
#
# Coordination Sequence:
#
# PCOD9478818 Si02
#       5
#    16  16  16  16  16
#     4  10  21  38  62  85 124 159 201 258 307 359
#     4  10  23  41  59  87 124 161 207 256 304 370
#     4  11  23  40  64  90 122 169 211 250 310 379
#     4  11  23  38  63  92 121 161 202 258 317 364
#     4  10  20  36  56  91 120 150 198 255 306 361
#
# _framework density 21.776747
#
# number of rings (size 3 to 8) (size 9 to 14) (size 15 to 20)
#    0.000    1.600    2.000    2.400    2.800    2.400 
#    0.000    3.000    0.000    1.200    0.000    0.000 
#    0.000    0.000    0.000    0.000    0.000    0.000 
#
# Total GULP energy -222979.544448 kJ/mol
# GULP energy per Si atom -5574.488611 kJ/mol
# Density = 2.172718 g / cm^3
# Si number density = 21.776747 Si / 1000 Ang^3
#
#
#
# Elastic Constant Matrix: (Units=GPa)
#
#
# Indices 1 2 3 4 5 6 
#
# 1 76.3728 4.1921 13.2415 0.0000 0.0000 0.0000
# 2 4.1921 41.1670 -2.9612 0.0000 0.0000 0.0000
# 3 13.2415 -2.9612 90.3978 0.0000 0.0000 0.0000
# 4 0.0000 0.0000 0.0000 24.7436 0.0000 0.0000
# 5 0.0000 0.0000 0.0000 0.0000 29.1782 0.0000
# 6 0.0000 0.0000 0.0000 0.0000 0.0000 6.0433
#
#
#
# Elastic Compliance Matrix: (Units=1/GPa)
#
#
# Indices 1 2 3 4 5 6 
#
# 1 0.013530 -0.001524 -0.002032 0.000000 0.000000 0.000000
# 2 -0.001524 0.024520 0.001026 0.000000 0.000000 0.000000
# 3 -0.002032 0.001026 0.011393 0.000000 0.000000 0.000000
# 4 0.000000 0.000000 0.000000 0.040415 0.000000 0.000000
# 5 0.000000 0.000000 0.000000 0.000000 0.034272 0.000000
# 6 0.000000 0.000000 0.000000 0.000000 0.000000 0.165472
#
#
# Mechanical properties :
#
#
# Convention : Reuss Voigt Hill
#
# Bulk Modulus (GPa) = 22.53015 26.32027 24.42521
# Shear Modulus (GPa) = 16.15741 24.89069 20.52405
#
# Velocity S-wave (km/s) = 2.72684 3.38449 3.07331
# Velocity P-wave (km/s) = 4.50363 5.23313 4.88202
#
# Compressibility (1/GPa) = 0.04438497
#
# Stress axis : x y z
#
# Youngs Moduli (GPa) = 73.91218 40.78255 87.76973
#
# Poissons Ratio (x) = 0.06215 0.17833
# Poissons Ratio (y) = 0.11263 -0.09009
# Poissons Ratio (z) = 0.15017 -0.04186
#
# Static dielectric constant tensor:
#      x y z
#    x 1.862410 0.000000 0.000000 
#    y 0.000000 1.880520 0.000000 
#    z 0.000000 0.000000 1.803410 
# 
# From -- ./inp_files/25281.got.cif
#   From: 2010.05.17/outbox.cif.g08.bks.cpg/sg64_13_cif.got.tgz:25281.got - 2010.06.03 16:29:19.
