data_PCOD9478654
_publ_section_title
;
Structure prediction by ZEFSAII (Michael W. Deem and Ramdas Pophale) SiO2 
 PCOD9478654
Probable space group: C M C A
;
_chemical_formula_sum "Si O2"
_cell_formula_units_Z 116
_cell_length_a 8.053258
_cell_length_b 23.417066
_cell_length_c 27.279018
_cell_angle_alpha 90.000000
_cell_angle_beta 90.000000
_cell_angle_gamma 90.000000
_cell_volume 5144.377440
_symmetry_space_group_name_H-M "C M C A"
_symmetry_group_IT_number 64
_symmetry_cell_setting 'orthorhombic'
loop_
_space_group_symop_operation_xyz
x,y,z
-x,1/2-y,1/2+z
x,-y,-z
-x,1/2+y,1/2-z
-x,-y,-z
x,1/2+y,1/2-z
-x,y,z
x,1/2-y,1/2+z
1/2+x,1/2+y,z
1/2-x,-y,1/2+z
1/2+x,1/2-y,-z
1/2-x,y,1/2-z
1/2-x,1/2-y,-z
1/2+x,y,1/2-z
1/2-x,1/2+y,z
1/2+x,-y,1/2+z
loop_
_atom_site_type_symbol
_atom_site_label
_atom_site_fract_x
_atom_site_fract_y
_atom_site_fract_z
Si Si1 0.306659 0.293149 0.397727
Si Si2 0.192711 0.110127 0.348117
Si Si3 0.196155 0.779634 0.801125
Si Si4 0.692633 0.081810 0.603077
Si Si5 0.000000 0.500000 0.500000
Si Si6 0.693134 0.009527 0.693752
Si Si7 0.687749 0.924587 0.999286
Si Si8 0.696075 0.682573 0.442224
O O1 0.500000 0.310102 0.397920
O O2 0.266138 0.260221 0.347166
O O3 0.199151 0.349944 0.397887
O O4 0.280594 0.243869 0.438328
O O5 0.211567 0.160293 0.308332
O O6 0.255798 0.140727 0.397839
O O7 0.000000 0.096128 0.355647
O O8 0.277985 0.052953 0.329390
O O9 0.250000 0.752856 0.750000
O O10 0.000000 0.790683 0.801528
O O11 0.500000 0.062713 0.592454
O O12 0.757382 0.055251 0.653763
O O13 0.802515 0.063610 0.557103
O O14 0.849291 0.457138 0.520484
O O15 0.500000 0.021667 0.695712
O O16 0.750000 0.011921 0.750000
O O17 0.500000 0.937637 0.980731
O O18 0.713573 0.857016 0.989604
O O19 0.500000 0.692742 0.433977
#
# Coordination Sequence:
#
# PCOD9478654 Si02
#       8
#    16  16  16  16   4  16  16  16
#     4  10  22  39  63  90 121 163 211 266 322 382
#     4  10  20  36  60  88 123 160 201 255 314 379
#     4  10  20  35  56  86 119 156 205 259 319 379
#     4  11  25  45  65  91 127 169 215 265 324 386
#     4  12  26  44  68 102 144 172 218 268 314 394
#     4  11  25  42  62  87 121 165 212 261 321 387
#     4  11  25  44  69 101 136 177 218 263 322 383
#     4   9  21  40  64  96 127 165 213 261 319 377
#
# _framework density 22.548891000000001
#
# number of rings (size 3 to 8) (size 9 to 14) (size 15 to 20)
#    0.000    1.655    0.690    2.690    2.897    5.517 
#    0.000    2.759    0.000    0.000    0.000    0.000 
#    0.000    0.000    0.000    0.000    0.000    0.000 
#
# Total GULP energy -323478.301241 kJ/mol
# GULP energy per Si atom -5577.212090 kJ/mol
# Density = 2.249757 g / cm^3
# Si number density = 22.548891 Si / 1000 Ang^3
#
#
#
# Elastic Constant Matrix: (Units=GPa)
#
#
# Indices 1 2 3 4 5 6 
#
# 1 73.0619 29.3295 18.4882 0.0000 0.0000 0.0000
# 2 29.3295 88.1229 18.8317 0.0000 0.0000 0.0000
# 3 18.4882 18.8317 81.8378 0.0000 0.0000 0.0000
# 4 0.0000 0.0000 0.0000 16.4931 0.0000 0.0000
# 5 0.0000 0.0000 0.0000 0.0000 22.9844 0.0000
# 6 0.0000 0.0000 0.0000 0.0000 0.0000 31.2032
#
#
#
# Elastic Compliance Matrix: (Units=1/GPa)
#
#
# Indices 1 2 3 4 5 6 
#
# 1 0.016292 -0.004876 -0.002559 0.000000 0.000000 0.000000
# 2 -0.004876 0.013394 -0.001981 0.000000 0.000000 0.000000
# 3 -0.002559 -0.001981 0.013253 0.000000 0.000000 0.000000
# 4 0.000000 0.000000 0.000000 0.060631 0.000000 0.000000
# 5 0.000000 0.000000 0.000000 0.000000 0.043508 0.000000
# 6 0.000000 0.000000 0.000000 0.000000 0.000000 0.032048
#
#
# Mechanical properties :
#
#
# Convention : Reuss Voigt Hill
#
# Bulk Modulus (GPa) = 41.47816 41.81349 41.64582
# Shear Modulus (GPa) = 24.27287 25.89435 25.08361
#
# Velocity S-wave (km/s) = 3.28450 3.39243 3.33890
# Velocity P-wave (km/s) = 5.72875 5.82482 5.77698
#
# Compressibility (1/GPa) = 0.02410908
#
# Stress axis : x y z
#
# Youngs Moduli (GPa) = 61.38107 74.66182 75.45426
#
# Poissons Ratio (x) = 0.36401 0.19306
# Poissons Ratio (y) = 0.29926 0.14944
# Poissons Ratio (z) = 0.15705 0.14787
#
# Static dielectric constant tensor:
#      x y z
#    x 1.810200 0.000000 0.000000 
#    y 0.000000 1.842430 0.000000 
#    z 0.000000 0.000000 1.947160 
# 
# From -- ./inp_files/48541.got.cif
#   From: 2010.05.17/outbox.cif.g08.bks.cpg/sg64_25_cif.got.tgz:48541.got - 2010.06.03 16:29:19.
