data_PCOD9478334
_publ_section_title
;
Structure prediction by ZEFSAII (Michael W. Deem and Ramdas Pophale) SiO2 
 PCOD9478334
Probable space group: C M C A
;
_chemical_formula_sum "Si O2"
_cell_formula_units_Z 112
_cell_length_a 26.758845
_cell_length_b 14.795646
_cell_length_c 14.850254
_cell_angle_alpha 90.000000
_cell_angle_beta 90.000000
_cell_angle_gamma 90.000000
_cell_volume 5879.429372
_symmetry_space_group_name_H-M "C M C A"
_symmetry_group_IT_number 64
_symmetry_cell_setting 'orthorhombic'
loop_
_space_group_symop_operation_xyz
x,y,z
-x,1/2-y,1/2+z
x,-y,-z
-x,1/2+y,1/2-z
-x,-y,-z
x,1/2+y,1/2-z
-x,y,z
x,1/2-y,1/2+z
1/2+x,1/2+y,z
1/2-x,-y,1/2+z
1/2+x,1/2-y,-z
1/2-x,y,1/2-z
1/2-x,1/2-y,-z
1/2+x,y,1/2-z
1/2-x,1/2+y,z
1/2+x,-y,1/2+z
loop_
_atom_site_type_symbol
_atom_site_label
_atom_site_fract_x
_atom_site_fract_y
_atom_site_fract_z
Si Si1 0.556661 0.595418 0.277245
Si Si2 0.303699 0.458262 0.210415
Si Si3 0.879046 0.333905 0.194133
Si Si4 0.152840 0.140688 0.166014
Si Si5 0.861885 0.401201 0.467094
Si Si6 0.057178 0.435896 0.081814
Si Si7 0.058086 0.215330 0.861759
O O1 0.500000 0.607722 0.242377
O O2 0.598105 0.605233 0.199858
O O3 0.558603 0.501365 0.330631
O O4 0.565004 0.676524 0.349845
O O5 0.250000 0.433734 0.250000
O O6 0.344582 0.416328 0.276962
O O7 0.309696 0.566484 0.205129
O O8 0.321190 0.419986 0.112153
O O9 0.846326 0.243349 0.198701
O O10 0.905201 0.354427 0.099543
O O11 0.924520 0.320945 0.264039
O O12 0.158896 0.140713 0.058784
O O13 0.880817 0.500000 0.500000
O O14 0.905079 0.336812 0.428683
O O15 0.000000 0.405780 0.067238
O O16 0.071793 0.500000 0.000000
O O17 0.000000 0.197415 0.879862
#
# Coordination Sequence:
#
# PCOD9478334 Si02
#       7
#    16  16  16  16  16  16  16
#     4   9  18  33  53  80 116 161 198 231 281 339
#     4  10  21  41  62  79 109 146 185 239 305 359
#     4  10  20  36  58  84 112 151 194 236 290 346
#     4  10  20  37  60  85 117 150 190 242 292 350
#     4   9  20  36  55  84 115 148 190 241 291 344
#     4  10  20  33  52  80 119 159 199 240 278 330
#     4   9  18  32  52  80 117 157 193 228 274 339
#
# _framework density 19.049468000000001
#
# number of rings (size 3 to 8) (size 9 to 14) (size 15 to 20)
#    0.000    2.429    1.429    0.429    2.000    2.000 
#    0.000    2.857    0.000    0.000    0.000    0.000 
#    0.000    0.000    0.000    0.000    0.000    0.000 
#
# Total GULP energy -312028.173910 kJ/mol
# GULP energy per Si atom -5571.931677 kJ/mol
# Density = 1.900611 g / cm^3
# Si number density = 19.049468 Si / 1000 Ang^3
#
#
#
# Elastic Constant Matrix: (Units=GPa)
#
#
# Indices 1 2 3 4 5 6 
#
# 1 62.9606 14.5684 14.6040 0.0000 0.0000 0.0000
# 2 14.5684 65.2788 7.9622 0.0000 0.0000 0.0000
# 3 14.6040 7.9622 45.8118 0.0000 0.0000 0.0000
# 4 0.0000 0.0000 0.0000 13.2397 0.0000 0.0000
# 5 0.0000 0.0000 0.0000 0.0000 14.1334 0.0000
# 6 0.0000 0.0000 0.0000 0.0000 0.0000 18.1984
#
#
#
# Elastic Compliance Matrix: (Units=1/GPa)
#
#
# Indices 1 2 3 4 5 6 
#
# 1 0.017844 -0.003360 -0.005105 0.000000 0.000000 0.000000
# 2 -0.003360 0.016283 -0.001759 0.000000 0.000000 0.000000
# 3 -0.005105 -0.001759 0.023761 0.000000 0.000000 0.000000
# 4 0.000000 0.000000 0.000000 0.075530 0.000000 0.000000
# 5 0.000000 0.000000 0.000000 0.000000 0.070754 0.000000
# 6 0.000000 0.000000 0.000000 0.000000 0.000000 0.054950
#
#
# Mechanical properties :
#
#
# Convention : Reuss Voigt Hill
#
# Bulk Modulus (GPa) = 26.70771 27.59116 27.14943
# Shear Modulus (GPa) = 17.12032 18.24209 17.68120
#
# Velocity S-wave (km/s) = 3.00113 3.09790 3.04990
# Velocity P-wave (km/s) = 5.10487 5.22603 5.16580
#
# Compressibility (1/GPa) = 0.03744238
#
# Stress axis : x y z
#
# Youngs Moduli (GPa) = 56.04008 61.41278 42.08510
#
# Poissons Ratio (x) = 0.20633 0.21482
# Poissons Ratio (y) = 0.18828 0.07403
# Poissons Ratio (z) = 0.28606 0.10803
#
# Static dielectric constant tensor:
#      x y z
#    x 1.634840 0.000000 0.000000 
#    y 0.000000 1.706470 0.000000 
#    z 0.000000 0.000000 1.682230 
# 
# From -- ./inp_files/27399.got.cif
#   From: 2010.05.17/outbox.cif.g08.bks.cpg/sg64_14_cif.got.tgz:27399.got - 2010.06.03 16:29:19.
