data_PCOD9478750
_publ_section_title
;
Structure prediction by ZEFSAII (Michael W. Deem and Ramdas Pophale) SiO2 
 PCOD9478750
Probable space group: C M C A
;
_chemical_formula_sum "Si O2"
_cell_formula_units_Z 96
_cell_length_a 17.404517
_cell_length_b 20.465439
_cell_length_c 14.506856
_cell_angle_alpha 90.000000
_cell_angle_beta 90.000000
_cell_angle_gamma 90.000000
_cell_volume 5167.212720
_symmetry_space_group_name_H-M "C M C A"
_symmetry_group_IT_number 64
_symmetry_cell_setting 'orthorhombic'
loop_
_space_group_symop_operation_xyz
x,y,z
-x,1/2-y,1/2+z
x,-y,-z
-x,1/2+y,1/2-z
-x,-y,-z
x,1/2+y,1/2-z
-x,y,z
x,1/2-y,1/2+z
1/2+x,1/2+y,z
1/2-x,-y,1/2+z
1/2+x,1/2-y,-z
1/2-x,y,1/2-z
1/2-x,1/2-y,-z
1/2+x,y,1/2-z
1/2-x,1/2+y,z
1/2+x,-y,1/2+z
loop_
_atom_site_type_symbol
_atom_site_label
_atom_site_fract_x
_atom_site_fract_y
_atom_site_fract_z
Si Si1 0.590771 0.434717 0.188862
Si Si2 0.591262 0.413402 0.820090
Si Si3 0.091079 0.305005 0.831855
Si Si4 0.839204 0.686242 0.779415
Si Si5 0.312458 0.923875 0.495553
Si Si6 0.808472 0.309564 0.014515
O O1 0.500000 0.422475 0.185455
O O2 0.602455 0.511277 0.209966
O O3 0.630937 0.386338 0.259741
O O4 0.628794 0.420015 0.089871
O O5 0.500000 0.405382 0.841496
O O6 0.612100 0.362842 0.739812
O O7 0.642545 0.404601 0.911172
O O8 0.115002 0.237369 0.783442
O O9 0.000000 0.307074 0.846174
O O10 0.134974 0.312284 0.928005
O O11 0.750000 0.691066 0.750000
O O12 0.848154 0.701450 0.887045
O O13 0.241902 0.875480 0.480168
O O14 0.288624 0.000000 0.500000
O O15 0.750000 0.250000 0.000000
#
# Coordination Sequence:
#
# PCOD9478750 Si02
#       6
#    16  16  16  16  16  16
#     4  10  20  38  62  91 123 158 201 248 293 354
#     4   9  20  38  61  89 124 162 202 245 297 353
#     4  11  25  43  62  88 121 161 202 246 302 363
#     4  12  23  40  63  88 121 158 200 247 302 359
#     4  10  20  35  61  94 122 157 200 249 301 351
#     4  12  24  40  61  88 121 153 198 252 300 357
#
# _framework density 18.578681
#
# number of rings (size 3 to 8) (size 9 to 14) (size 15 to 20)
#    0.000    1.333    3.333    2.000    0.000    4.667 
#    0.000    2.500    0.000    3.500    0.000    0.000 
#    0.000    0.000    0.000    0.000    0.000    0.000 
#
# Total GULP energy -268280.125906 kJ/mol
# GULP energy per Si atom -5589.169290 kJ/mol
# Density = 1.853640 g / cm^3
# Si number density = 18.578681 Si / 1000 Ang^3
#
#
#
# Elastic Constant Matrix: (Units=GPa)
#
#
# Indices 1 2 3 4 5 6 
#
# 1 41.1574 14.0191 7.0758 0.0000 0.0000 0.0000
# 2 14.0191 37.1953 6.2312 0.0000 0.0000 0.0000
# 3 7.0758 6.2312 66.0721 0.0000 0.0000 0.0000
# 4 0.0000 0.0000 0.0000 29.4062 0.0000 0.0000
# 5 0.0000 0.0000 0.0000 0.0000 32.1018 0.0000
# 6 0.0000 0.0000 0.0000 0.0000 0.0000 25.8555
#
#
#
# Elastic Compliance Matrix: (Units=1/GPa)
#
#
# Indices 1 2 3 4 5 6 
#
# 1 0.028145 -0.010265 -0.002046 0.000000 0.000000 0.000000
# 2 -0.010265 0.031061 -0.001830 0.000000 0.000000 0.000000
# 3 -0.002046 -0.001830 0.015527 0.000000 0.000000 0.000000
# 4 0.000000 0.000000 0.000000 0.034006 0.000000 0.000000
# 5 0.000000 0.000000 0.000000 0.000000 0.031151 0.000000
# 6 0.000000 0.000000 0.000000 0.000000 0.000000 0.038677
#
#
# Mechanical properties :
#
#
# Convention : Reuss Voigt Hill
#
# Bulk Modulus (GPa) = 21.52853 22.11969 21.82411
# Shear Modulus (GPa) = 22.48883 25.27929 23.88406
#
# Velocity S-wave (km/s) = 3.48295 3.69272 3.58936
# Velocity P-wave (km/s) = 5.27138 5.48756 5.38056
#
# Compressibility (1/GPa) = 0.04644999
#
# Stress axis : x y z
#
# Youngs Moduli (GPa) = 35.52992 32.19499 64.40530
#
# Poissons Ratio (x) = 0.33049 0.13177
# Poissons Ratio (y) = 0.36473 0.11786
# Poissons Ratio (z) = 0.07269 0.05892
#
# Static dielectric constant tensor:
#      x y z
#    x 1.612780 0.000000 0.000000 
#    y 0.000000 1.645880 0.000000 
#    z 0.000000 0.000000 1.622850 
# 
# From -- ./inp_files/23873.got.cif
#   From: 2010.05.17/outbox.cif.g08.bks.cpg/sg64_12_cif.got.tgz:23873.got - 2010.06.03 16:29:19.
