data_PCOD9478935
_publ_section_title
;
Structure prediction by ZEFSAII (Michael W. Deem and Ramdas Pophale) SiO2 
 PCOD9478935
Probable space group: C M C A
;
_chemical_formula_sum "Si O2"
_cell_formula_units_Z 112
_cell_length_a 14.195540
_cell_length_b 23.906751
_cell_length_c 15.375724
_cell_angle_alpha 90.000000
_cell_angle_beta 90.000000
_cell_angle_gamma 90.000000
_cell_volume 5218.047770
_symmetry_space_group_name_H-M "C M C A"
_symmetry_group_IT_number 64
_symmetry_cell_setting 'orthorhombic'
loop_
_space_group_symop_operation_xyz
x,y,z
-x,1/2-y,1/2+z
x,-y,-z
-x,1/2+y,1/2-z
-x,-y,-z
x,1/2+y,1/2-z
-x,y,z
x,1/2-y,1/2+z
1/2+x,1/2+y,z
1/2-x,-y,1/2+z
1/2+x,1/2-y,-z
1/2-x,y,1/2-z
1/2-x,1/2-y,-z
1/2+x,y,1/2-z
1/2-x,1/2+y,z
1/2+x,-y,1/2+z
loop_
_atom_site_type_symbol
_atom_site_label
_atom_site_fract_x
_atom_site_fract_y
_atom_site_fract_z
Si Si1 0.390194 0.360310 0.360840
Si Si2 0.892216 0.203245 0.976757
Si Si3 0.111665 0.611535 0.673143
Si Si4 0.306845 0.183486 0.036465
Si Si5 0.229081 0.414356 0.842791
Si Si6 0.891629 0.507946 0.396231
Si Si7 0.390676 0.508704 0.597473
O O1 0.500000 0.342374 0.366035
O O2 0.354908 0.359011 0.261643
O O3 0.333382 0.328859 0.435906
O O4 0.385734 0.426325 0.381606
O O5 0.880844 0.153248 0.907724
O O6 0.869464 0.263848 0.935229
O O7 0.000000 0.201898 0.009377
O O8 0.804776 0.196575 0.042677
O O9 0.147375 0.549616 0.647525
O O10 0.000000 0.602669 0.688745
O O11 0.321213 0.128104 0.092299
O O12 0.250000 0.387944 0.750000
O O13 0.326836 0.439062 0.877996
O O14 0.163557 0.469201 0.836045
O O15 0.892774 0.500000 0.500000
O O16 0.000000 0.516444 0.367893
O O17 0.350825 0.500000 0.500000
O O18 0.500000 0.491874 0.596271
#
# Coordination Sequence:
#
# PCOD9478935 Si02
#       7
#    16  16  16  16  16  16  16
#     4  10  20  37  63  95 125 156 206 263 313 371
#     4  10  23  45  66  88 121 159 211 265 314 374
#     4   9  19  37  63  95 123 157 206 261 314 366
#     4  11  24  42  64  90 119 169 210 255 321 377
#     4  12  25  39  59  92 134 166 209 253 311 385
#     4  10  21  39  64  92 129 170 208 254 313 376
#     4  10  20  36  60  89 126 167 208 255 310 370
#
# _framework density 21.463965000000002
#
# number of rings (size 3 to 8) (size 9 to 14) (size 15 to 20)
#    0.000    1.714    1.429    2.571    2.000    4.571 
#    5.143    0.000    0.000    0.000    0.000    0.000 
#    0.000    0.000    0.000    0.000    0.000    0.000 
#
# Total GULP energy -312789.278671 kJ/mol
# GULP energy per Si atom -5585.522833 kJ/mol
# Density = 2.141511 g / cm^3
# Si number density = 21.463965 Si / 1000 Ang^3
#
#
#
# Elastic Constant Matrix: (Units=GPa)
#
#
# Indices 1 2 3 4 5 6 
#
# 1 86.1251 -5.9341 -16.0710 0.0000 0.0000 0.0000
# 2 -5.9341 68.4611 -10.9574 0.0000 0.0000 0.0000
# 3 -16.0710 -10.9574 29.7797 0.0000 0.0000 0.0000
# 4 0.0000 0.0000 0.0000 6.6489 0.0000 0.0000
# 5 0.0000 0.0000 0.0000 0.0000 16.2833 0.0000
# 6 0.0000 0.0000 0.0000 0.0000 0.0000 19.7364
#
#
#
# Elastic Compliance Matrix: (Units=1/GPa)
#
#
# Indices 1 2 3 4 5 6 
#
# 1 0.013285 0.002443 0.008068 0.000000 0.000000 0.000000
# 2 0.002443 0.015970 0.007194 0.000000 0.000000 0.000000
# 3 0.008068 0.007194 0.040581 0.000000 0.000000 0.000000
# 4 0.000000 0.000000 0.000000 0.150401 0.000000 0.000000
# 5 0.000000 0.000000 0.000000 0.000000 0.061412 0.000000
# 6 0.000000 0.000000 0.000000 0.000000 0.000000 0.050668
#
#
# Mechanical properties :
#
#
# Convention : Reuss Voigt Hill
#
# Bulk Modulus (GPa) = 9.50146 13.16012 11.33079
# Shear Modulus (GPa) = 15.06074 23.02228 19.04151
#
# Velocity S-wave (km/s) = 2.65179 3.27861 2.98172
# Velocity P-wave (km/s) = 3.71649 4.52515 4.14061
#
# Compressibility (1/GPa) = 0.10524693
#
# Stress axis : x y z
#
# Youngs Moduli (GPa) = 75.27375 62.61718 24.64198
#
# Poissons Ratio (x) = -0.15296 -0.19882
# Poissons Ratio (y) = -0.18388 -0.17729
# Poissons Ratio (z) = -0.60732 -0.45050
#
# Static dielectric constant tensor:
#      x y z
#    x 1.818620 0.000000 0.000000 
#    y 0.000000 1.778760 0.000000 
#    z 0.000000 0.000000 1.856610 
# 
# From -- ./inp_files/24209.got.cif
#   From: 2010.05.17/outbox.cif.g08.bks.cpg/sg64_13_cif.got.tgz:24209.got - 2010.06.03 16:29:19.
