data_PCOD9478648
_publ_section_title
;
Structure prediction by ZEFSAII (Michael W. Deem and Ramdas Pophale) SiO2 
 PCOD9478648
Probable space group: C M C A
;
_chemical_formula_sum "Si O2"
_cell_formula_units_Z 104
_cell_length_a 21.132030
_cell_length_b 20.342129
_cell_length_c 12.244690
_cell_angle_alpha 90.000000
_cell_angle_beta 90.000000
_cell_angle_gamma 90.000000
_cell_volume 5263.630771
_symmetry_space_group_name_H-M "C M C A"
_symmetry_group_IT_number 64
_symmetry_cell_setting 'orthorhombic'
loop_
_space_group_symop_operation_xyz
x,y,z
-x,1/2-y,1/2+z
x,-y,-z
-x,1/2+y,1/2-z
-x,-y,-z
x,1/2+y,1/2-z
-x,y,z
x,1/2-y,1/2+z
1/2+x,1/2+y,z
1/2-x,-y,1/2+z
1/2+x,1/2-y,-z
1/2-x,y,1/2-z
1/2-x,1/2-y,-z
1/2+x,y,1/2-z
1/2-x,1/2+y,z
1/2+x,-y,1/2+z
loop_
_atom_site_type_symbol
_atom_site_label
_atom_site_fract_x
_atom_site_fract_y
_atom_site_fract_z
Si Si1 0.338520 0.052836 0.098024
Si Si2 0.927860 0.036547 0.737868
Si Si3 0.750000 0.390481 0.250000
Si Si4 0.232118 0.346251 0.576378
Si Si5 0.817998 0.785907 0.381749
Si Si6 0.928781 0.356957 0.042804
Si Si7 0.340208 0.435557 0.072162
O O1 0.275426 0.094887 0.123508
O O2 0.374939 0.015237 0.195047
O O3 0.389142 0.104571 0.048871
O O4 0.326179 0.000000 0.000000
O O5 0.929899 0.092438 0.644771
O O6 0.901396 0.065227 0.850928
O O7 0.000000 0.010588 0.747135
O O8 0.804101 0.340507 0.209797
O O9 0.720650 0.432766 0.153346
O O10 0.205707 0.286420 0.648111
O O11 0.276518 0.312748 0.483690
O O12 0.172881 0.376267 0.510702
O O13 0.889933 0.793288 0.419197
O O14 0.000000 0.343451 0.008540
O O15 0.341030 0.500000 0.000000
#
# Coordination Sequence:
#
# PCOD9478648 Si02
#       7
#    16  16   8  16  16  16  16
#     4   9  17  31  54  88 122 149 190 255 297 339
#     4  10  20  35  56  83 121 165 197 228 294 365
#     4  10  20  38  58  82 118 156 188 248 294 348
#     4   9  19  33  53  81 115 147 187 240 298 339
#     4   9  17  34  54  79 112 147 189 235 292 344
#     4   9  16  30  56  87 113 149 199 247 290 339
#     4  11  23  36  56  85 119 156 192 241 296 354
#
# _framework density 19.758224999999999
#
# number of rings (size 3 to 8) (size 9 to 14) (size 15 to 20)
#    0.000    2.462    1.538    0.923    4.308    2.154 
#    2.769    0.769    0.000    0.000    0.000    0.000 
#    0.000    0.000    0.000    0.000    0.000    0.000 
#
# Total GULP energy -289918.636295 kJ/mol
# GULP energy per Si atom -5575.358390 kJ/mol
# Density = 1.971325 g / cm^3
# Si number density = 19.758225 Si / 1000 Ang^3
#
#
#
# Elastic Constant Matrix: (Units=GPa)
#
#
# Indices 1 2 3 4 5 6 
#
# 1 88.7235 45.8253 20.1499 0.0000 0.0000 0.0000
# 2 45.8253 68.9000 12.5072 0.0000 0.0000 0.0000
# 3 20.1499 12.5072 43.9829 0.0000 0.0000 0.0000
# 4 0.0000 0.0000 0.0000 14.4755 0.0000 0.0000
# 5 0.0000 0.0000 0.0000 0.0000 17.3370 0.0000
# 6 0.0000 0.0000 0.0000 0.0000 0.0000 15.0456
#
#
#
# Elastic Compliance Matrix: (Units=1/GPa)
#
#
# Indices 1 2 3 4 5 6 
#
# 1 0.018218 -0.011179 -0.005167 0.000000 0.000000 0.000000
# 2 -0.011179 0.022163 -0.001181 0.000000 0.000000 0.000000
# 3 -0.005167 -0.001181 0.025439 0.000000 0.000000 0.000000
# 4 0.000000 0.000000 0.000000 0.069082 0.000000 0.000000
# 5 0.000000 0.000000 0.000000 0.000000 0.057680 0.000000
# 6 0.000000 0.000000 0.000000 0.000000 0.000000 0.066465
#
#
# Mechanical properties :
#
#
# Convention : Reuss Voigt Hill
#
# Bulk Modulus (GPa) = 32.50339 39.84123 36.17231
# Shear Modulus (GPa) = 16.42800 17.57990 17.00395
#
# Velocity S-wave (km/s) = 2.88662 2.98611 2.93678
# Velocity P-wave (km/s) = 5.25322 5.66544 5.46322
#
# Compressibility (1/GPa) = 0.03076602
#
# Stress axis : x y z
#
# Youngs Moduli (GPa) = 54.88938 45.11954 39.30921
#
# Poissons Ratio (x) = 0.50439 0.20313
# Poissons Ratio (y) = 0.61361 0.04643
# Poissons Ratio (z) = 0.28364 0.05329
#
# Static dielectric constant tensor:
#      x y z
#    x 1.715420 0.000000 0.000000 
#    y 0.000000 1.726340 0.000000 
#    z 0.000000 0.000000 1.718120 
# 
# From -- ./inp_files/26709.got.cif
#   From: 2010.05.17/outbox.cif.g08.bks.cpg/sg64_14_cif.got.tgz:26709.got - 2010.06.03 16:29:19.
