data_PCOD9478998
_publ_section_title
;
Structure prediction by ZEFSAII (Michael W. Deem and Ramdas Pophale) SiO2 
 PCOD9478998
Probable space group: C M C A
;
_chemical_formula_sum "Si O2"
_cell_formula_units_Z 104
_cell_length_a 9.582673
_cell_length_b 29.906563
_cell_length_c 19.140171
_cell_angle_alpha 90.000000
_cell_angle_beta 90.000000
_cell_angle_gamma 90.000000
_cell_volume 5485.282342
_symmetry_space_group_name_H-M "C M C A"
_symmetry_group_IT_number 64
_symmetry_cell_setting 'orthorhombic'
loop_
_space_group_symop_operation_xyz
x,y,z
-x,1/2-y,1/2+z
x,-y,-z
-x,1/2+y,1/2-z
-x,-y,-z
x,1/2+y,1/2-z
-x,y,z
x,1/2-y,1/2+z
1/2+x,1/2+y,z
1/2-x,-y,1/2+z
1/2+x,1/2-y,-z
1/2-x,y,1/2-z
1/2-x,1/2-y,-z
1/2+x,y,1/2-z
1/2-x,1/2+y,z
1/2+x,-y,1/2+z
loop_
_atom_site_type_symbol
_atom_site_label
_atom_site_fract_x
_atom_site_fract_y
_atom_site_fract_z
Si Si1 0.335656 0.472894 0.931015
Si Si2 0.666207 0.687825 0.317830
Si Si3 0.163701 0.370773 0.102989
Si Si4 0.834406 0.551729 0.678249
Si Si5 0.336093 0.883016 0.938344
Si Si6 0.000000 0.735699 0.495296
Si Si7 0.247594 0.773757 0.396255
O O1 0.500000 0.462869 0.940243
O O2 0.319487 0.506086 0.865941
O O3 0.252506 0.427131 0.923924
O O4 0.288475 0.500000 0.000000
O O5 0.500000 0.685820 0.306381
O O6 0.750000 0.672291 0.250000
O O7 0.699164 0.656758 0.385016
O O8 0.711125 0.737744 0.337877
O O9 0.263365 0.408671 0.133872
O O10 0.203330 0.322203 0.131661
O O11 0.000000 0.380912 0.116087
O O12 0.182836 0.368657 0.018782
O O13 0.750000 0.548409 0.750000
O O14 0.000000 0.559692 0.688698
O O15 0.500000 0.893023 0.929112
O O16 0.120681 0.753780 0.440953
O O17 0.121544 0.721734 0.552022
#
# Coordination Sequence:
#
# PCOD9478998 Si02
#       7
#    16  16  16  16  16   8  16
#     4  10  21  42  65  98 130 161 209 265 316 378
#     4  11  26  45  62  91 132 176 221 265 321 389
#     4  11  23  40  65  98 131 167 216 271 324 380
#     4  11  25  44  67  95 133 171 211 260 323 393
#     4  10  22  40  66  95 129 164 213 270 318 379
#     4  10  20  36  64  92 122 160 216 266 326 372
#     4  11  22  40  62  94 131 168 214 271 324 379
#
# _framework density 18.959824999999999
#
# number of rings (size 3 to 8) (size 9 to 14) (size 15 to 20)
#    0.000    1.385    3.077    2.308    4.308    3.385 
#    2.769    3.077    0.000    0.000    0.000    0.000 
#    0.000    0.000    0.000    0.000    0.000    0.000 
#
# Total GULP energy -289478.851525 kJ/mol
# GULP energy per Si atom -5566.900991 kJ/mol
# Density = 1.891667 g / cm^3
# Si number density = 18.959825 Si / 1000 Ang^3
#
#
#
# Elastic Constant Matrix: (Units=GPa)
#
#
# Indices 1 2 3 4 5 6 
#
# 1 129.9887 52.2022 53.6320 0.0000 0.0000 0.0000
# 2 52.2022 105.3458 43.3803 0.0000 0.0000 0.0000
# 3 53.6320 43.3803 73.5829 0.0000 0.0000 0.0000
# 4 0.0000 0.0000 0.0000 2.3418 0.0000 0.0000
# 5 0.0000 0.0000 0.0000 0.0000 26.5777 0.0000
# 6 0.0000 0.0000 0.0000 0.0000 0.0000 -1.7833
#
#
#
# Elastic Compliance Matrix: (Units=1/GPa)
#
#
# Indices 1 2 3 4 5 6 
#
# 1 0.011684 -0.003015 -0.006739 0.000000 0.000000 0.000000
# 2 -0.003015 0.013314 -0.005652 0.000000 0.000000 0.000000
# 3 -0.006739 -0.005652 0.021834 0.000000 0.000000 0.000000
# 4 0.000000 0.000000 0.000000 0.427023 0.000000 0.000000
# 5 0.000000 0.000000 0.000000 0.000000 0.037625 0.000000
# 6 0.000000 0.000000 0.000000 0.000000 0.000000 -0.560746
#
#
# Mechanical properties :
#
#
# Convention : Reuss Voigt Hill
#
# Bulk Modulus (GPa) = 62.41789 67.48293 64.95041
# Shear Modulus (GPa) = -381.24155 16.07410 -182.58373
#
# Velocity S-wave (km/s) = -14.19560 2.91486 -9.82392
# Velocity P-wave (km/s) = 15.35234 6.85554 9.71329
#
# Compressibility (1/GPa) = 0.01602105
#
# Stress axis : x y z
#
# Youngs Moduli (GPa) = 85.58692 75.11005 45.80106
#
# Poissons Ratio (x) = 0.22645 0.30864
# Poissons Ratio (y) = 0.25804 0.25885
# Poissons Ratio (z) = 0.57674 0.42449
#
# Static dielectric constant tensor:
#      x y z
#    x 1.634060 0.000000 0.000000 
#    y 0.000000 1.649540 0.000000 
#    z 0.000000 0.000000 1.657300 
# 
# From -- ./inp_files/37266.got.cif
#   From: 2010.05.17/outbox.cif.g08.bks.cpg/sg64_19_cif.got.tgz:37266.got - 2010.06.03 16:29:19.
