data_PCOD9478434
_publ_section_title
;
Structure prediction by ZEFSAII (Michael W. Deem and Ramdas Pophale) SiO2 
 PCOD9478434
Probable space group: C M C A
;
_chemical_formula_sum "Si O2"
_cell_formula_units_Z 96
_cell_length_a 25.995542
_cell_length_b 22.364713
_cell_length_c 8.404583
_cell_angle_alpha 90.000000
_cell_angle_beta 90.000000
_cell_angle_gamma 90.000000
_cell_volume 4886.280301
_symmetry_space_group_name_H-M "C M C A"
_symmetry_group_IT_number 64
_symmetry_cell_setting 'orthorhombic'
loop_
_space_group_symop_operation_xyz
x,y,z
-x,1/2-y,1/2+z
x,-y,-z
-x,1/2+y,1/2-z
-x,-y,-z
x,1/2+y,1/2-z
-x,y,z
x,1/2-y,1/2+z
1/2+x,1/2+y,z
1/2-x,-y,1/2+z
1/2+x,1/2-y,-z
1/2-x,y,1/2-z
1/2-x,1/2-y,-z
1/2+x,y,1/2-z
1/2-x,1/2+y,z
1/2+x,-y,1/2+z
loop_
_atom_site_type_symbol
_atom_site_label
_atom_site_fract_x
_atom_site_fract_y
_atom_site_fract_z
Si Si1 0.345650 0.648122 0.317820
Si Si2 0.733205 0.935489 0.938784
Si Si3 0.211426 0.232868 0.862523
Si Si4 0.059283 0.715381 0.261272
Si Si5 0.847231 0.929221 0.001243
Si Si6 0.898526 0.323281 0.399067
O O1 0.312994 0.611818 0.447655
O O2 0.309569 0.705683 0.281265
O O3 0.401146 0.677540 0.348730
O O4 0.353679 0.602804 0.170857
O O5 0.750000 0.937948 0.750000
O O6 0.786013 0.921126 0.032242
O O7 0.715871 0.000000 0.000000
O O8 0.250000 0.196976 0.750000
O O9 0.159874 0.200844 0.915170
O O10 0.250000 0.250000 0.000000
O O11 0.075291 0.784701 0.238810
O O12 0.070912 0.694017 0.440702
O O13 0.000000 0.707027 0.221280
O O14 0.887342 0.893697 0.112434
O O15 0.856263 0.000000 0.000000
#
# Coordination Sequence:
#
# PCOD9478434 Si02
#       6
#    16  16  16  16  16  16
#     4   9  18  32  50  73 103 140 177 214 265 320
#     4   9  16  29  47  70 101 137 171 202 246 310
#     4  11  19  31  51  77 111 141 170 215 270 331
#     4  10  20  36  57  76  99 134 177 229 276 310
#     4   9  17  32  52  74 107 144 177 211 253 318
#     4  10  20  34  53  80 105 134 174 216 267 321
#
# _framework density 19.646847000000001
#
# number of rings (size 3 to 8) (size 9 to 14) (size 15 to 20)
#    0.000    2.333    0.000    6.000    0.000    0.000 
#    0.000   22.500    0.000   13.000    0.000    0.000 
#    0.000    0.000    0.000    0.000    0.000    0.000 
#
# Total GULP energy -267300.475299 kJ/mol
# GULP energy per Si atom -5568.759902 kJ/mol
# Density = 1.960213 g / cm^3
# Si number density = 19.646847 Si / 1000 Ang^3
#
#
#
# Elastic Constant Matrix: (Units=GPa)
#
#
# Indices 1 2 3 4 5 6 
#
# 1 145.8508 52.5477 11.5842 0.0000 0.0000 0.0000
# 2 52.5477 126.0189 12.1828 0.0000 0.0000 0.0000
# 3 11.5842 12.1828 20.6319 0.0000 0.0000 0.0000
# 4 0.0000 0.0000 0.0000 27.3671 0.0000 0.0000
# 5 0.0000 0.0000 0.0000 0.0000 23.2304 0.0000
# 6 0.0000 0.0000 0.0000 0.0000 0.0000 15.7684
#
#
#
# Elastic Compliance Matrix: (Units=1/GPa)
#
#
# Indices 1 2 3 4 5 6 
#
# 1 0.008213 -0.003159 -0.002746 0.000000 0.000000 0.000000
# 2 -0.003159 0.009631 -0.003913 0.000000 0.000000 0.000000
# 3 -0.002746 -0.003913 0.052321 0.000000 0.000000 0.000000
# 4 0.000000 0.000000 0.000000 0.036540 0.000000 0.000000
# 5 0.000000 0.000000 0.000000 0.000000 0.043047 0.000000
# 6 0.000000 0.000000 0.000000 0.000000 0.000000 0.063418
#
#
# Mechanical properties :
#
#
# Convention : Reuss Voigt Hill
#
# Bulk Modulus (GPa) = 19.79084 49.45901 34.62492
# Shear Modulus (GPa) = 20.02819 27.68565 23.85692
#
# Velocity S-wave (km/s) = 3.19628 3.75796 3.48844
# Velocity P-wave (km/s) = 4.86999 6.63764 5.82130
#
# Compressibility (1/GPa) = 0.05052844
#
# Stress axis : x y z
#
# Youngs Moduli (GPa) = 121.76471 103.83264 19.11282
#
# Poissons Ratio (x) = 0.32801 0.05248
# Poissons Ratio (y) = 0.38466 0.07479
# Poissons Ratio (z) = 0.33434 0.40631
#
# Static dielectric constant tensor:
#      x y z
#    x 1.630460 0.000000 0.000000 
#    y 0.000000 1.747890 0.000000 
#    z 0.000000 0.000000 1.646560 
# 
# From -- ./inp_files/10516.got.cif
#   From: 2010.05.17/outbox.cif.g08.bks.cpg/sg64_6_cif.got.tgz:10516.got - 2010.06.03 16:29:19.
