data_PCOD9478358
_publ_section_title
;
Structure prediction by ZEFSAII (Michael W. Deem and Ramdas Pophale) SiO2 
 PCOD9478358
Probable space group: C M C A
;
_chemical_formula_sum "Si O2"
_cell_formula_units_Z 96
_cell_length_a 14.415811
_cell_length_b 9.921594
_cell_length_c 29.184981
_cell_angle_alpha 90.000000
_cell_angle_beta 90.000000
_cell_angle_gamma 90.000000
_cell_volume 4174.264324
_symmetry_space_group_name_H-M "C M C A"
_symmetry_group_IT_number 64
_symmetry_cell_setting 'orthorhombic'
loop_
_space_group_symop_operation_xyz
x,y,z
-x,1/2-y,1/2+z
x,-y,-z
-x,1/2+y,1/2-z
-x,-y,-z
x,1/2+y,1/2-z
-x,y,z
x,1/2-y,1/2+z
1/2+x,1/2+y,z
1/2-x,-y,1/2+z
1/2+x,1/2-y,-z
1/2-x,y,1/2-z
1/2-x,1/2-y,-z
1/2+x,y,1/2-z
1/2-x,1/2+y,z
1/2+x,-y,1/2+z
loop_
_atom_site_type_symbol
_atom_site_label
_atom_site_fract_x
_atom_site_fract_y
_atom_site_fract_z
Si Si1 0.611968 0.001038 0.364054
Si Si2 0.606126 0.201328 0.125075
Si Si3 0.631639 0.360586 0.519846
Si Si4 0.613353 0.302225 0.782334
Si Si5 0.648111 0.610584 0.035267
Si Si6 0.613087 0.996662 0.800731
O O1 0.500000 0.992229 0.360049
O O2 0.643053 0.100967 0.324014
O O3 0.632020 0.066270 0.413218
O O4 0.649527 0.847145 0.363122
O O5 0.500000 0.210808 0.141774
O O6 0.602444 0.182699 0.070576
O O7 0.643236 0.067989 0.150601
O O8 0.597525 0.500000 0.500000
O O9 0.608618 0.251213 0.481527
O O10 0.742287 0.375784 0.526411
O O11 0.500000 0.297638 0.782451
O O12 0.639313 0.382248 0.736268
O O13 0.646386 0.147730 0.788485
O O14 0.611466 0.500000 0.000000
O O15 0.500000 0.008940 0.800002
#
# Coordination Sequence:
#
# PCOD9478358 Si02
#       6
#    16  16  16  16  16  16
#     4  10  20  33  54  80 106 136 174 217 261 305
#     4  10  20  34  52  79 109 137 171 216 263 306
#     4  10  22  36  54  75 103 141 178 216 258 310
#     4   9  17  30  49  75 105 139 172 208 255 310
#     4  10  20  38  55  74 102 140 182 213 254 311
#     4   9  17  30  49  74 107 139 171 208 255 311
#
# _framework density 22.998066000000001
#
# number of rings (size 3 to 8) (size 9 to 14) (size 15 to 20)
#    0.000    2.333    1.667    1.000    2.333    5.333 
#    0.000    0.000    0.000    1.000    0.000    4.667 
#    0.000    0.000    0.000    0.000    0.000    0.000 
#
# Total GULP energy -268087.434043 kJ/mol
# GULP energy per Si atom -5585.154876 kJ/mol
# Density = 2.294572 g / cm^3
# Si number density = 22.998066 Si / 1000 Ang^3
#
#
#
# Elastic Constant Matrix: (Units=GPa)
#
#
# Indices 1 2 3 4 5 6 
#
# 1 59.5373 1.5209 -17.5836 0.0000 0.0000 0.0000
# 2 1.5209 206.9447 47.8762 0.0000 0.0000 0.0000
# 3 -17.5836 47.8762 91.7747 0.0000 0.0000 0.0000
# 4 0.0000 0.0000 0.0000 39.7606 0.0000 0.0000
# 5 0.0000 0.0000 0.0000 0.0000 43.6137 0.0000
# 6 0.0000 0.0000 0.0000 0.0000 0.0000 20.1508
#
#
#
# Elastic Compliance Matrix: (Units=1/GPa)
#
#
# Indices 1 2 3 4 5 6 
#
# 1 0.018005 -0.001058 0.004002 0.000000 0.000000 0.000000
# 2 -0.001058 0.005558 -0.003102 0.000000 0.000000 0.000000
# 3 0.004002 -0.003102 0.013281 0.000000 0.000000 0.000000
# 4 0.000000 0.000000 0.000000 0.025151 0.000000 0.000000
# 5 0.000000 0.000000 0.000000 0.000000 0.022929 0.000000
# 6 0.000000 0.000000 0.000000 0.000000 0.000000 0.049626
#
#
# Mechanical properties :
#
#
# Convention : Reuss Voigt Hill
#
# Bulk Modulus (GPa) = 27.37699 46.87596 37.12648
# Shear Modulus (GPa) = 34.00406 42.46791 38.23598
#
# Velocity S-wave (km/s) = 3.84938 4.30185 4.08189
# Velocity P-wave (km/s) = 5.62911 6.71576 6.19630
#
# Compressibility (1/GPa) = 0.03652702
#
# Stress axis : x y z
#
# Youngs Moduli (GPa) = 55.53996 179.93318 75.29462
#
# Poissons Ratio (x) = 0.19039 -0.30130
# Poissons Ratio (y) = 0.05877 0.23356
# Poissons Ratio (z) = -0.22225 0.55815
#
# Static dielectric constant tensor:
#      x y z
#    x 1.934900 0.000000 0.000000 
#    y 0.000000 1.782590 0.000000 
#    z 0.000000 0.000000 1.744880 
# 
# From -- ./inp_files/46604.got.cif
#   From: 2010.05.17/outbox.cif.g08.bks.cpg/sg64_24_cif.got.tgz:46604.got - 2010.06.03 16:29:19.
