data_PCOD9478042
_publ_section_title
;
Structure prediction by ZEFSAII (Michael W. Deem and Ramdas Pophale) SiO2 
 PCOD9478042
Probable space group: C M C A
;
_chemical_formula_sum "Si O2"
_cell_formula_units_Z 112
_cell_length_a 15.509560
_cell_length_b 24.444209
_cell_length_c 14.535648
_cell_angle_alpha 90.000000
_cell_angle_beta 90.000000
_cell_angle_gamma 90.000000
_cell_volume 5510.739260
_symmetry_space_group_name_H-M "C M C A"
_symmetry_group_IT_number 64
_symmetry_cell_setting 'orthorhombic'
loop_
_space_group_symop_operation_xyz
x,y,z
-x,1/2-y,1/2+z
x,-y,-z
-x,1/2+y,1/2-z
-x,-y,-z
x,1/2+y,1/2-z
-x,y,z
x,1/2-y,1/2+z
1/2+x,1/2+y,z
1/2-x,-y,1/2+z
1/2+x,1/2-y,-z
1/2-x,y,1/2-z
1/2-x,1/2-y,-z
1/2+x,y,1/2-z
1/2-x,1/2+y,z
1/2+x,-y,1/2+z
loop_
_atom_site_type_symbol
_atom_site_label
_atom_site_fract_x
_atom_site_fract_y
_atom_site_fract_z
Si Si1 0.287296 0.145844 0.351695
Si Si2 0.093374 0.546875 0.716304
Si Si3 0.211789 0.529953 0.400902
Si Si4 0.397698 0.243167 0.829002
Si Si5 0.906542 0.984370 0.606535
Si Si6 0.330731 0.841330 0.312372
Si Si7 0.215778 0.809409 0.475745
O O1 0.250000 0.137759 0.250000
O O2 0.330254 0.089709 0.388231
O O3 0.350397 0.198706 0.345061
O O4 0.213383 0.159849 0.427568
O O5 0.168196 0.512097 0.669179
O O6 0.096477 0.536477 0.825569
O O7 0.101968 0.610241 0.693496
O O8 0.000000 0.526315 0.683553
O O9 0.206211 0.500000 0.500000
O O10 0.312784 0.541528 0.378967
O O11 0.500000 0.248726 0.828453
O O12 0.364487 0.214606 0.734331
O O13 0.365940 0.201392 0.909925
O O14 0.000000 0.956569 0.626963
O O15 0.908492 0.000000 0.500000
O O16 0.250000 0.859414 0.250000
O O17 0.290745 0.835254 0.412805
O O18 0.250000 0.750000 0.500000
#
# Coordination Sequence:
#
# PCOD9478042 Si02
#       7
#    16  16  16  16  16  16  16
#     4  11  22  40  62  86 123 168 210 255 315 384
#     4  11  22  36  57  88 122 156 200 249 301 368
#     4  11  23  40  61  85 119 165 209 254 310 370
#     4  10  21  38  62  94 126 158 207 265 318 374
#     4   9  19  36  58  85 115 148 193 247 301 357
#     4  10  19  36  62  87 117 155 199 253 311 369
#     4   9  19  38  60  83 114 158 203 244 305 373
#
# _framework density 20.323951999999998
#
# number of rings (size 3 to 8) (size 9 to 14) (size 15 to 20)
#    0.000    1.857    0.000    5.571    0.000    4.286 
#    0.000   15.000    0.000    0.000    0.000    0.000 
#    0.000    0.000    0.000    0.000    0.000    0.000 
#
# Total GULP energy -312007.454384 kJ/mol
# GULP energy per Si atom -5571.561685 kJ/mol
# Density = 2.027769 g / cm^3
# Si number density = 20.323952 Si / 1000 Ang^3
#
#
#
# Elastic Constant Matrix: (Units=GPa)
#
#
# Indices 1 2 3 4 5 6 
#
# 1 112.0832 27.1198 31.3616 0.0000 0.0000 0.0000
# 2 27.1198 110.2798 37.4515 0.0000 0.0000 0.0000
# 3 31.3616 37.4515 130.2721 0.0000 0.0000 0.0000
# 4 0.0000 0.0000 0.0000 30.0028 0.0000 0.0000
# 5 0.0000 0.0000 0.0000 0.0000 9.0250 0.0000
# 6 0.0000 0.0000 0.0000 0.0000 0.0000 13.3267
#
#
#
# Elastic Compliance Matrix: (Units=1/GPa)
#
#
# Indices 1 2 3 4 5 6 
#
# 1 0.009878 -0.001797 -0.001861 0.000000 0.000000 0.000000
# 2 -0.001797 0.010376 -0.002550 0.000000 0.000000 0.000000
# 3 -0.001861 -0.002550 0.008858 0.000000 0.000000 0.000000
# 4 0.000000 0.000000 0.000000 0.033330 0.000000 0.000000
# 5 0.000000 0.000000 0.000000 0.000000 0.110803 0.000000
# 6 0.000000 0.000000 0.000000 0.000000 0.000000 0.075037
#
#
# Mechanical properties :
#
#
# Convention : Reuss Voigt Hill
#
# Bulk Modulus (GPa) = 59.90274 60.50010 60.20142
# Shear Modulus (GPa) = 18.77841 27.58438 23.18140
#
# Velocity S-wave (km/s) = 3.04296 3.68806 3.38093
# Velocity P-wave (km/s) = 6.47179 6.92591 6.70270
#
# Compressibility (1/GPa) = 0.01669373
#
# Stress axis : x y z
#
# Youngs Moduli (GPa) = 101.23972 96.37771 112.89848
#
# Poissons Ratio (x) = 0.17319 0.21014
# Poissons Ratio (y) = 0.18192 0.28793
# Poissons Ratio (z) = 0.18844 0.24579
#
# Static dielectric constant tensor:
#      x y z
#    x 1.739570 0.000000 0.000000 
#    y 0.000000 1.740990 0.000000 
#    z 0.000000 0.000000 1.736460 
# 
# From -- ./inp_files/24233.got.cif
#   From: 2010.05.17/outbox.cif.g08.bks.cpg/sg64_13_cif.got.tgz:24233.got - 2010.06.03 16:29:19.
