data_PCOD9478764
_publ_section_title
;
Structure prediction by ZEFSAII (Michael W. Deem and Ramdas Pophale) SiO2 
 PCOD9478764
Probable space group: C M C A
;
_chemical_formula_sum "Si O2"
_cell_formula_units_Z 104
_cell_length_a 26.649723
_cell_length_b 8.568723
_cell_length_c 24.727616
_cell_angle_alpha 90.000000
_cell_angle_beta 90.000000
_cell_angle_gamma 90.000000
_cell_volume 5646.652359
_symmetry_space_group_name_H-M "C M C A"
_symmetry_group_IT_number 64
_symmetry_cell_setting 'orthorhombic'
loop_
_space_group_symop_operation_xyz
x,y,z
-x,1/2-y,1/2+z
x,-y,-z
-x,1/2+y,1/2-z
-x,-y,-z
x,1/2+y,1/2-z
-x,y,z
x,1/2-y,1/2+z
1/2+x,1/2+y,z
1/2-x,-y,1/2+z
1/2+x,1/2-y,-z
1/2-x,y,1/2-z
1/2-x,1/2-y,-z
1/2+x,y,1/2-z
1/2-x,1/2+y,z
1/2+x,-y,1/2+z
loop_
_atom_site_type_symbol
_atom_site_label
_atom_site_fract_x
_atom_site_fract_y
_atom_site_fract_z
Si Si1 0.803424 0.945615 0.804971
Si Si2 0.500000 0.259886 0.279917
Si Si3 0.092601 0.500000 0.000000
Si Si4 0.440912 0.846806 0.532137
Si Si5 0.903793 0.301045 0.653034
Si Si6 0.000000 0.392795 0.832020
Si Si7 0.391057 0.950048 0.877943
Si Si8 0.200892 0.310706 0.815423
O O1 0.855861 0.898229 0.830434
O O2 0.805702 0.890237 0.742981
O O3 0.755482 0.868987 0.834483
O O4 0.796044 0.128364 0.806345
O O5 0.450348 0.182793 0.305938
O O6 0.500000 0.439135 0.300939
O O7 0.500000 0.235550 0.215552
O O8 0.066414 0.328849 0.007923
O O9 0.118327 0.523733 0.058325
O O10 0.500000 0.868805 0.536910
O O11 0.419664 0.844053 0.592536
O O12 0.420961 0.000000 0.500000
O O13 0.889685 0.118100 0.651242
O O14 0.051758 0.388186 0.866788
O O15 0.346733 0.849400 0.852366
#
# Coordination Sequence:
#
# PCOD9478764 Si02
#       8
#    16   8   8  16  16   8  16  16
#     4  11  22  37  64  86 120 152 196 245 294 367
#     4  10  20  36  51  80 122 151 192 225 303 342
#     4  10  23  38  64  82 124 160 208 253 302 350
#     4  10  21  37  59  87 119 157 206 249 295 358
#     4  10  20  37  58  82 120 159 185 248 292 349
#     4  10  22  35  54  84 119 161 190 238 290 368
#     4  10  22  38  59  86 118 157 204 241 301 352
#     4  11  22  39  60  90 115 154 197 242 300 357
#
# _framework density 18.417991000000001
#
# number of rings (size 3 to 8) (size 9 to 14) (size 15 to 20)
#    0.000    1.692    0.769    4.846    6.462    3.692 
#    0.000    0.000    1.692    2.769    0.000    0.000 
#    0.000    0.000    0.000    0.000    0.000    0.000 
#
# Total GULP energy -290003.057886 kJ/mol
# GULP energy per Si atom -5576.981882 kJ/mol
# Density = 1.837607 g / cm^3
# Si number density = 18.417991 Si / 1000 Ang^3
#
#
#
# Elastic Constant Matrix: (Units=GPa)
#
#
# Indices 1 2 3 4 5 6 
#
# 1 100.6984 65.0127 27.7988 0.0000 0.0000 0.0000
# 2 65.0127 82.2233 33.4251 0.0000 0.0000 0.0000
# 3 27.7988 33.4251 62.2037 0.0000 0.0000 0.0000
# 4 0.0000 0.0000 0.0000 17.6721 0.0000 0.0000
# 5 0.0000 0.0000 0.0000 0.0000 10.2463 0.0000
# 6 0.0000 0.0000 0.0000 0.0000 0.0000 22.0015
#
#
#
# Elastic Compliance Matrix: (Units=1/GPa)
#
#
# Indices 1 2 3 4 5 6 
#
# 1 0.020302 -0.015820 -0.000572 0.000000 0.000000 0.000000
# 2 -0.015820 0.027889 -0.007916 0.000000 0.000000 0.000000
# 3 -0.000572 -0.007916 0.020586 0.000000 0.000000 0.000000
# 4 0.000000 0.000000 0.000000 0.056586 0.000000 0.000000
# 5 0.000000 0.000000 0.000000 0.000000 0.097596 0.000000
# 6 0.000000 0.000000 0.000000 0.000000 0.000000 0.045451
#
#
# Mechanical properties :
#
#
# Convention : Reuss Voigt Hill
#
# Bulk Modulus (GPa) = 49.60301 55.28873 52.44587
# Shear Modulus (GPa) = 15.44414 17.90990 16.67702
#
# Velocity S-wave (km/s) = 2.89889 3.12174 3.01237
# Velocity P-wave (km/s) = 6.18021 6.56336 6.37467
#
# Compressibility (1/GPa) = 0.02016007
#
# Stress axis : x y z
#
# Youngs Moduli (GPa) = 49.25526 35.85674 48.57773
#
# Poissons Ratio (x) = 0.56726 0.02779
# Poissons Ratio (y) = 0.77923 0.38454
# Poissons Ratio (z) = 0.02818 0.28384
#
# Static dielectric constant tensor:
#      x y z
#    x 1.643170 0.000000 0.000000 
#    y 0.000000 1.659000 0.000000 
#    z 0.000000 0.000000 1.626380 
# 
# From -- ./inp_files/51068.got.cif
#   From: 2010.05.17/outbox.cif.g08.bks.cpg/sg64_26_cif.got.tgz:51068.got - 2010.06.03 16:29:19.
