data_PCOD9478631
_publ_section_title
;
Structure prediction by ZEFSAII (Michael W. Deem and Ramdas Pophale) SiO2 
 PCOD9478631
Probable space group: C M C A
;
_chemical_formula_sum "Si O2"
_cell_formula_units_Z 88
_cell_length_a 28.177265
_cell_length_b 13.083061
_cell_length_c 11.686384
_cell_angle_alpha 90.000000
_cell_angle_beta 90.000000
_cell_angle_gamma 90.000000
_cell_volume 4308.125590
_symmetry_space_group_name_H-M "C M C A"
_symmetry_group_IT_number 64
_symmetry_cell_setting 'orthorhombic'
loop_
_space_group_symop_operation_xyz
x,y,z
-x,1/2-y,1/2+z
x,-y,-z
-x,1/2+y,1/2-z
-x,-y,-z
x,1/2+y,1/2-z
-x,y,z
x,1/2-y,1/2+z
1/2+x,1/2+y,z
1/2-x,-y,1/2+z
1/2+x,1/2-y,-z
1/2-x,y,1/2-z
1/2-x,1/2-y,-z
1/2+x,y,1/2-z
1/2-x,1/2+y,z
1/2+x,-y,1/2+z
loop_
_atom_site_type_symbol
_atom_site_label
_atom_site_fract_x
_atom_site_fract_y
_atom_site_fract_z
Si Si1 0.394534 0.571664 0.361627
Si Si2 0.554501 0.876487 0.087710
Si Si3 0.812451 0.822934 0.515468
Si Si4 0.885066 0.689795 0.374356
Si Si5 0.349619 0.500000 0.000000
Si Si6 0.723913 0.625786 0.870307
O O1 0.434319 0.608868 0.452673
O O2 0.410357 0.454577 0.345263
O O3 0.346157 0.592774 0.429781
O O4 0.388213 0.638007 0.248975
O O5 0.500000 0.898071 0.113213
O O6 0.569636 0.761849 0.114216
O O7 0.840688 0.762602 0.413413
O O8 0.764619 0.870797 0.467125
O O9 0.800806 0.736293 0.610411
O O10 0.880565 0.595463 0.461153
O O11 0.314705 0.539208 0.898848
O O12 0.750000 0.614138 0.750000
#
# Coordination Sequence:
#
# PCOD9478631 Si02
#       6
#    16  16  16  16   8  16
#     4  10  20  37  63  85 115 154 190 234 291 346
#     4  10  23  40  60  90 116 142 193 243 285 357
#     4   9  20  36  56  88 118 151 199 237 276 340
#     4  10  22  40  60  84 118 154 186 237 296 342
#     4  10  24  38  53  86 120 150 199 242 276 338
#     4  10  20  35  56  81 117 157 195 239 282 326
#
# _framework density 20.426517
#
# number of rings (size 3 to 8) (size 9 to 14) (size 15 to 20)
#    0.000    2.182    0.000    2.182    0.000   14.545 
#    0.000    2.273    0.000    0.000    0.000    0.000 
#    0.000    0.000    0.000    0.000    0.000    0.000 
#
# Total GULP energy -245489.396275 kJ/mol
# GULP energy per Si atom -5579.304461 kJ/mol
# Density = 2.038003 g / cm^3
# Si number density = 20.426517 Si / 1000 Ang^3
#
#
#
# Elastic Constant Matrix: (Units=GPa)
#
#
# Indices 1 2 3 4 5 6 
#
# 1 83.6164 48.3525 3.3995 0.0000 0.0000 0.0000
# 2 48.3525 108.8438 29.3310 0.0000 0.0000 0.0000
# 3 3.3995 29.3310 76.7038 0.0000 0.0000 0.0000
# 4 0.0000 0.0000 0.0000 7.2465 0.0000 0.0000
# 5 0.0000 0.0000 0.0000 0.0000 14.3058 0.0000
# 6 0.0000 0.0000 0.0000 0.0000 0.0000 27.6620
#
#
#
# Elastic Compliance Matrix: (Units=1/GPa)
#
#
# Indices 1 2 3 4 5 6 
#
# 1 0.016451 -0.007928 0.002303 0.000000 0.000000 0.000000
# 2 -0.007928 0.014064 -0.005027 0.000000 0.000000 0.000000
# 3 0.002303 -0.005027 0.014857 0.000000 0.000000 0.000000
# 4 0.000000 0.000000 0.000000 0.137997 0.000000 0.000000
# 5 0.000000 0.000000 0.000000 0.000000 0.069902 0.000000
# 6 0.000000 0.000000 0.000000 0.000000 0.000000 0.036151
#
#
# Mechanical properties :
#
#
# Convention : Reuss Voigt Hill
#
# Bulk Modulus (GPa) = 41.55044 47.92555 44.73800
# Shear Modulus (GPa) = 15.68636 22.38160 19.03398
#
# Velocity S-wave (km/s) = 2.77418 3.31375 3.05590
# Velocity P-wave (km/s) = 5.53598 6.17694 5.86522
#
# Compressibility (1/GPa) = 0.02406713
#
# Stress axis : x y z
#
# Youngs Moduli (GPa) = 60.78839 71.10273 67.30715
#
# Poissons Ratio (x) = 0.56373 -0.15499
# Poissons Ratio (y) = 0.48196 0.33833
# Poissons Ratio (z) = -0.13998 0.35741
#
# Static dielectric constant tensor:
#      x y z
#    x 1.712330 0.000000 0.000000 
#    y 0.000000 1.765750 0.000000 
#    z 0.000000 0.000000 1.734550 
# 
# From -- ./inp_files/19761.got.cif
#   From: 2010.05.17/outbox.cif.g08.bks.cpg/sg64_10_cif.got.tgz:19761.got - 2010.06.03 16:29:19.
