data_PCOD9478996
_publ_section_title
;
Structure prediction by ZEFSAII (Michael W. Deem and Ramdas Pophale) SiO2 
 PCOD9478996
Probable space group: C M C A
;
_chemical_formula_sum "Si O2"
_cell_formula_units_Z 104
_cell_length_a 9.704361
_cell_length_b 29.801931
_cell_length_c 19.097332
_cell_angle_alpha 90.000000
_cell_angle_beta 90.000000
_cell_angle_gamma 90.000000
_cell_volume 5523.114502
_symmetry_space_group_name_H-M "C M C A"
_symmetry_group_IT_number 64
_symmetry_cell_setting 'orthorhombic'
loop_
_space_group_symop_operation_xyz
x,y,z
-x,1/2-y,1/2+z
x,-y,-z
-x,1/2+y,1/2-z
-x,-y,-z
x,1/2+y,1/2-z
-x,y,z
x,1/2-y,1/2+z
1/2+x,1/2+y,z
1/2-x,-y,1/2+z
1/2+x,1/2-y,-z
1/2-x,y,1/2-z
1/2-x,1/2-y,-z
1/2+x,y,1/2-z
1/2-x,1/2+y,z
1/2+x,-y,1/2+z
loop_
_atom_site_type_symbol
_atom_site_label
_atom_site_fract_x
_atom_site_fract_y
_atom_site_fract_z
Si Si1 0.500000 0.741739 0.008957
Si Si2 0.161141 0.887326 0.428190
Si Si3 0.161029 0.524534 0.572669
Si Si4 0.660624 0.786243 0.815815
Si Si5 0.161680 0.557274 0.320407
Si Si6 0.747341 0.291505 0.087849
Si Si7 0.657409 0.626694 0.405205
O O1 0.380615 0.770905 0.050085
O O2 0.620146 0.714561 0.964926
O O3 0.245522 0.932405 0.414034
O O4 0.224135 0.843018 0.393621
O O5 0.170772 0.877758 0.511867
O O6 0.000000 0.892638 0.410843
O O7 0.202372 0.500000 0.500000
O O8 0.171632 0.488064 0.634155
O O9 0.000000 0.537580 0.564902
O O10 0.500000 0.783730 0.796855
O O11 0.750000 0.801592 0.750000
O O12 0.713439 0.739291 0.845239
O O13 0.672691 0.822322 0.878647
O O14 0.250000 0.553786 0.250000
O O15 0.230696 0.596473 0.366499
O O16 0.000000 0.566447 0.306695
O O17 0.500000 0.612787 0.386223
#
# Coordination Sequence:
#
# PCOD9478996 Si02
#       7
#     8  16  16  16  16  16  16
#     4  10  20  36  64  86 126 152 202 262 308 352
#     4  11  23  38  64  95 127 158 202 261 310 365
#     4  10  22  42  62  92 124 159 206 257 309 366
#     4  11  25  42  59  86 128 169 210 251 301 372
#     4  11  23  41  63  91 126 164 204 251 306 375
#     4  11  22  40  59  94 121 164 207 257 307 362
#     4  10  21  38  61  92 126 160 200 249 308 368
#
# _framework density 18.829955999999999
#
# number of rings (size 3 to 8) (size 9 to 14) (size 15 to 20)
#    0.000    1.385    3.077    2.769    4.308    3.385 
#    2.769    0.769    0.000    0.000    0.000    0.000 
#    0.000    0.000    0.000    0.000    0.000    0.000 
#
# Total GULP energy -289500.653110 kJ/mol
# GULP energy per Si atom -5567.320252 kJ/mol
# Density = 1.878710 g / cm^3
# Si number density = 18.829956 Si / 1000 Ang^3
#
#
#
# Elastic Constant Matrix: (Units=GPa)
#
#
# Indices 1 2 3 4 5 6 
#
# 1 140.4667 35.9412 19.0554 0.0000 0.0000 0.0000
# 2 35.9412 64.1557 -1.9268 0.0000 0.0000 0.0000
# 3 19.0554 -1.9268 26.5730 0.0000 0.0000 0.0000
# 4 0.0000 0.0000 0.0000 5.6532 0.0000 0.0000
# 5 0.0000 0.0000 0.0000 0.0000 3.4217 0.0000
# 6 0.0000 0.0000 0.0000 0.0000 0.0000 74.1028
#
#
#
# Elastic Compliance Matrix: (Units=1/GPa)
#
#
# Indices 1 2 3 4 5 6 
#
# 1 0.009520 -0.005550 -0.007229 0.000000 0.000000 0.000000
# 2 -0.005550 0.018857 0.005347 0.000000 0.000000 0.000000
# 3 -0.007229 0.005347 0.043204 0.000000 0.000000 0.000000
# 4 0.000000 0.000000 0.000000 0.176891 0.000000 0.000000
# 5 0.000000 0.000000 0.000000 0.000000 0.292256 0.000000
# 6 0.000000 0.000000 0.000000 0.000000 0.000000 0.013495
#
#
# Mechanical properties :
#
#
# Convention : Reuss Voigt Hill
#
# Bulk Modulus (GPa) = 17.63148 37.48170 27.55659
# Shear Modulus (GPa) = 8.50351 28.51058 18.50705
#
# Velocity S-wave (km/s) = 2.12738 3.89537 3.13845
# Velocity P-wave (km/s) = 3.92660 6.33881 5.27251
#
# Compressibility (1/GPa) = 0.05671675
#
# Stress axis : x y z
#
# Youngs Moduli (GPa) = 105.04197 53.03043 23.14605
#
# Poissons Ratio (x) = 0.29434 0.16733
# Poissons Ratio (y) = 0.58302 -0.12377
# Poissons Ratio (z) = 0.75937 -0.28358
#
# Static dielectric constant tensor:
#      x y z
#    x 1.635270 0.000000 0.000000 
#    y 0.000000 1.645850 0.000000 
#    z 0.000000 0.000000 1.654710 
# 
# From -- ./inp_files/37419.got.cif
#   From: 2010.05.17/outbox.cif.g08.bks.cpg/sg64_19_cif.got.tgz:37419.got - 2010.06.03 16:29:19.
