data_PCOD9478964
_publ_section_title
;
Structure prediction by ZEFSAII (Michael W. Deem and Ramdas Pophale) SiO2 
 PCOD9478964
Probable space group: C M C A
;
_chemical_formula_sum "Si O2"
_cell_formula_units_Z 56
_cell_length_a 19.668668
_cell_length_b 21.668464
_cell_length_c 5.265419
_cell_angle_alpha 90.000000
_cell_angle_beta 90.000000
_cell_angle_gamma 90.000000
_cell_volume 2244.067999
_symmetry_space_group_name_H-M "C M C A"
_symmetry_group_IT_number 64
_symmetry_cell_setting 'orthorhombic'
loop_
_space_group_symop_operation_xyz
x,y,z
-x,1/2-y,1/2+z
x,-y,-z
-x,1/2+y,1/2-z
-x,-y,-z
x,1/2+y,1/2-z
-x,y,z
x,1/2-y,1/2+z
1/2+x,1/2+y,z
1/2-x,-y,1/2+z
1/2+x,1/2-y,-z
1/2-x,y,1/2-z
1/2-x,1/2-y,-z
1/2+x,y,1/2-z
1/2-x,1/2+y,z
1/2+x,-y,1/2+z
loop_
_atom_site_type_symbol
_atom_site_label
_atom_site_fract_x
_atom_site_fract_y
_atom_site_fract_z
Si Si1 0.750000 0.354277 0.750000
Si Si2 0.000000 0.213226 0.784022
Si Si3 0.500000 0.045011 0.244853
Si Si4 0.683576 0.447919 0.353085
Si Si5 0.887943 0.366713 0.549257
O O1 0.715270 0.394530 0.526704
O O2 0.821304 0.327477 0.640905
O O3 0.000000 0.269858 0.987661
O O4 0.065251 0.174776 0.870690
O O5 0.436580 0.094747 0.259383
O O6 0.500000 0.000000 0.500000
O O7 0.500000 0.000000 0.000000
O O8 0.643681 0.500000 0.500000
O O9 0.750000 0.482772 0.250000
O O10 0.642809 0.420052 0.124940
#
# Coordination Sequence:
#
# PCOD9478964 Si02
#       5
#     8   8   8  16  16
#     4  10  22  38  70 100 158 182 242 292 372 424
#     4  11  28  55  83 100 133 190 254 322 390 432
#     4  11  28  43  62 100 152 200 242 288 345 440
#     4  10  20  36  62 104 153 200 229 277 352 442
#     4  10  26  44  70 105 146 192 251 308 366 440
#
# _framework density 24.954681000000001
#
# number of rings (size 3 to 8) (size 9 to 14) (size 15 to 20)
#    0.000    1.714    1.429    0.000   12.000    2.286 
#    5.143    3.571    0.000    0.000    0.000    0.000 
#    0.000    0.000    0.000    0.000    0.000    0.000 
#
# Total GULP energy -156233.094661 kJ/mol
# GULP energy per Si atom -5579.753381 kJ/mol
# Density = 2.489788 g / cm^3
# Si number density = 24.954681 Si / 1000 Ang^3
#
#
#
# Elastic Constant Matrix: (Units=GPa)
#
#
# Indices 1 2 3 4 5 6 
#
# 1 178.9831 17.2038 3.7609 0.0000 0.0000 0.0000
# 2 17.2038 34.3030 -3.2398 0.0000 0.0000 0.0000
# 3 3.7609 -3.2398 77.8653 0.0000 0.0000 0.0000
# 4 0.0000 0.0000 0.0000 33.6432 0.0000 0.0000
# 5 0.0000 0.0000 0.0000 0.0000 17.8012 0.0000
# 6 0.0000 0.0000 0.0000 0.0000 0.0000 -10.6476
#
#
#
# Elastic Compliance Matrix: (Units=1/GPa)
#
#
# Indices 1 2 3 4 5 6 
#
# 1 0.005883 -0.002989 -0.000409 0.000000 0.000000 0.000000
# 2 -0.002989 0.030786 0.001425 0.000000 0.000000 0.000000
# 3 -0.000409 0.001425 0.012922 0.000000 0.000000 0.000000
# 4 0.000000 0.000000 0.000000 0.029724 0.000000 0.000000
# 5 0.000000 0.000000 0.000000 0.000000 0.056176 0.000000
# 6 0.000000 0.000000 0.000000 0.000000 0.000000 -0.093918
#
#
# Mechanical properties :
#
#
# Convention : Reuss Voigt Hill
#
# Bulk Modulus (GPa) = 21.90780 36.28903 29.09841
# Shear Modulus (GPa) = 82.32819 26.38778 54.35799
#
# Velocity S-wave (km/s) = 5.75002 3.25534 4.67226
# Velocity P-wave (km/s) = 7.27198 5.35754 6.38690
#
# Compressibility (1/GPa) = 0.04564585
#
# Stress axis : x y z
#
# Youngs Moduli (GPa) = 169.98094 32.48262 77.38908
#
# Poissons Ratio (x) = 0.09709 0.03161
# Poissons Ratio (y) = 0.50808 -0.11030
# Poissons Ratio (z) = 0.06944 -0.04630
#
# Static dielectric constant tensor:
#      x y z
#    x 2.226910 0.000000 0.000000 
#    y 0.000000 1.962440 0.000000 
#    z 0.000000 0.000000 2.122170 
# 
# From -- ./inp_files/1665.got.cif
#   From: 2010.05.17/outbox.cif.g08.bks.cpg/sg64_1_cif.got.tgz:1665.got - 2010.06.03 16:29:19.
