data_PCOD9478421
_publ_section_title
;
Structure prediction by ZEFSAII (Michael W. Deem and Ramdas Pophale) SiO2 
 PCOD9478421
Probable space group: C M C A
;
_chemical_formula_sum "Si O2"
_cell_formula_units_Z 112
_cell_length_a 7.388784
_cell_length_b 25.716600
_cell_length_c 26.170300
_cell_angle_alpha 90.000000
_cell_angle_beta 90.000000
_cell_angle_gamma 90.000000
_cell_volume 4972.733921
_symmetry_space_group_name_H-M "C M C A"
_symmetry_group_IT_number 64
_symmetry_cell_setting 'orthorhombic'
loop_
_space_group_symop_operation_xyz
x,y,z
-x,1/2-y,1/2+z
x,-y,-z
-x,1/2+y,1/2-z
-x,-y,-z
x,1/2+y,1/2-z
-x,y,z
x,1/2-y,1/2+z
1/2+x,1/2+y,z
1/2-x,-y,1/2+z
1/2+x,1/2-y,-z
1/2-x,y,1/2-z
1/2-x,1/2-y,-z
1/2+x,y,1/2-z
1/2-x,1/2+y,z
1/2+x,-y,1/2+z
loop_
_atom_site_type_symbol
_atom_site_label
_atom_site_fract_x
_atom_site_fract_y
_atom_site_fract_z
Si Si1 0.279119 0.154313 0.511144
Si Si2 0.220130 0.038773 0.955593
Si Si3 0.715680 0.634349 0.807597
Si Si4 0.211456 0.834609 0.895886
Si Si5 0.783639 0.909178 0.807010
Si Si6 0.718832 0.283748 0.107957
Si Si7 0.220824 0.478793 0.339471
O O1 0.500000 0.155865 0.510572
O O2 0.226306 0.097835 0.532641
O O3 0.213088 0.160617 0.453275
O O4 0.220419 0.197873 0.551645
O O5 0.273958 0.021434 0.899062
O O6 0.000000 0.038146 0.956069
O O7 0.281388 0.000000 0.000000
O O8 0.500000 0.631687 0.815151
O O9 0.750000 0.652026 0.750000
O O10 0.783103 0.674416 0.850263
O O11 0.784361 0.575471 0.815256
O O12 0.287213 0.872519 0.852395
O O13 0.224521 0.774634 0.880132
O O14 0.000000 0.848536 0.900865
O O15 0.750000 0.889277 0.750000
O O16 0.000000 0.911318 0.812750
O O17 0.715721 0.968335 0.813044
O O18 0.500000 0.284503 0.108124
O O19 0.000000 0.478634 0.337539
#
# Coordination Sequence:
#
# PCOD9478421 Si02
#       7
#    16  16  16  16  16  16  16
#     4   9  16  30  50  76 107 134 166 211 260 308
#     4   9  14  22  44  76 107 135 163 203 257 310
#     4  10  20  34  53  77 104 134 171 214 258 307
#     4  10  21  35  53  78 106 135 173 217 257 302
#     4  10  21  36  54  77 105 137 174 215 258 306
#     4  10  20  35  54  76 104 139 174 211 258 311
#     4   9  16  30  50  75 105 133 166 209 258 310
#
# _framework density 22.522821
#
# number of rings (size 3 to 8) (size 9 to 14) (size 15 to 20)
#    0.000    2.429    1.429    1.714    0.000    5.143 
#    0.000    2.857    0.000    0.000    0.000    0.000 
#    0.000    4.571    0.000    0.000    0.000    0.000 
#
# Total GULP energy -312988.444251 kJ/mol
# GULP energy per Si atom -5589.079362 kJ/mol
# Density = 2.247156 g / cm^3
# Si number density = 22.522821 Si / 1000 Ang^3
#
#
#
# Elastic Constant Matrix: (Units=GPa)
#
#
# Indices 1 2 3 4 5 6 
#
# 1 76.8874 -7.5764 -1.6907 0.0000 0.0000 0.0000
# 2 -7.5764 91.4251 54.0047 0.0000 0.0000 0.0000
# 3 -1.6907 54.0047 164.0921 0.0000 0.0000 0.0000
# 4 0.0000 0.0000 0.0000 8.1094 0.0000 0.0000
# 5 0.0000 0.0000 0.0000 0.0000 9.0216 0.0000
# 6 0.0000 0.0000 0.0000 0.0000 0.0000 8.9356
#
#
#
# Elastic Compliance Matrix: (Units=1/GPa)
#
#
# Indices 1 2 3 4 5 6 
#
# 1 0.013123 0.001251 -0.000276 0.000000 0.000000 0.000000
# 2 0.001251 0.013697 -0.004495 0.000000 0.000000 0.000000
# 3 -0.000276 -0.004495 0.007571 0.000000 0.000000 0.000000
# 4 0.000000 0.000000 0.000000 0.123313 0.000000 0.000000
# 5 0.000000 0.000000 0.000000 0.000000 0.110846 0.000000
# 6 0.000000 0.000000 0.000000 0.000000 0.000000 0.111912
#
#
# Mechanical properties :
#
#
# Convention : Reuss Voigt Hill
#
# Bulk Modulus (GPa) = 36.56371 46.87553 41.71962
# Shear Modulus (GPa) = 12.60657 24.39113 18.49885
#
# Velocity S-wave (km/s) = 2.36842 3.29439 2.86901
# Velocity P-wave (km/s) = 4.87324 5.94377 5.43493
#
# Compressibility (1/GPa) = 0.02734952
#
# Stress axis : x y z
#
# Youngs Moduli (GPa) = 76.20091 73.01043 132.08998
#
# Poissons Ratio (x) = -0.09132 0.03652
# Poissons Ratio (y) = -0.09531 0.59372
# Poissons Ratio (z) = 0.02107 0.32817
#
# Static dielectric constant tensor:
#      x y z
#    x 1.915260 0.000000 0.000000 
#    y 0.000000 1.789700 0.000000 
#    z 0.000000 0.000000 1.803280 
# 
# From -- ./inp_files/38450.got.cif
#   From: 2010.05.17/outbox.cif.g08.bks.cpg/sg64_20_cif.got.tgz:38450.got - 2010.06.03 16:29:19.
