data_PCOD9478020
_publ_section_title
;
Structure prediction by ZEFSAII (Michael W. Deem and Ramdas Pophale) SiO2 
 PCOD9478020
Probable space group: C M C A
;
_chemical_formula_sum "Si O2"
_cell_formula_units_Z 104
_cell_length_a 18.941683
_cell_length_b 17.447345
_cell_length_c 13.622133
_cell_angle_alpha 90.000000
_cell_angle_beta 90.000000
_cell_angle_gamma 90.000000
_cell_volume 4501.870823
_symmetry_space_group_name_H-M "C M C A"
_symmetry_group_IT_number 64
_symmetry_cell_setting 'orthorhombic'
loop_
_space_group_symop_operation_xyz
x,y,z
-x,1/2-y,1/2+z
x,-y,-z
-x,1/2+y,1/2-z
-x,-y,-z
x,1/2+y,1/2-z
-x,y,z
x,1/2-y,1/2+z
1/2+x,1/2+y,z
1/2-x,-y,1/2+z
1/2+x,1/2-y,-z
1/2-x,y,1/2-z
1/2-x,1/2-y,-z
1/2+x,y,1/2-z
1/2-x,1/2+y,z
1/2+x,-y,1/2+z
loop_
_atom_site_type_symbol
_atom_site_label
_atom_site_fract_x
_atom_site_fract_y
_atom_site_fract_z
Si Si1 0.578214 0.117400 0.575371
Si Si2 0.085155 0.373768 0.080014
Si Si3 0.918229 0.205979 0.382176
Si Si4 0.308740 0.000000 0.500000
Si Si5 0.676417 0.248741 0.800356
Si Si6 0.920052 0.011405 0.739210
Si Si7 0.302867 0.093372 0.336752
O O1 0.500000 0.097412 0.536173
O O2 0.585774 0.208300 0.571922
O O3 0.639026 0.070537 0.522132
O O4 0.580868 0.085340 0.687140
O O5 0.132872 0.315593 0.143244
O O6 0.097744 0.456059 0.131403
O O7 0.000000 0.358863 0.091708
O O8 0.100875 0.355977 0.965717
O O9 0.869645 0.213604 0.287226
O O10 0.000000 0.193947 0.354023
O O11 0.267524 0.968381 0.591268
O O12 0.750000 0.221451 0.750000
O O13 0.687375 0.320217 0.874250
O O14 0.000000 0.982336 0.736858
O O15 0.870813 0.949634 0.791866
O O16 0.250000 0.106182 0.250000
#
# Coordination Sequence:
#
# PCOD9478020 Si02
#       7
#    16  16  16   8  16  16  16
#     4   9  16  30  55  86 116 144 181 240 294 345
#     4  10  20  37  61  88 117 152 195 245 295 355
#     4  10  20  36  59  87 118 155 198 241 296 359
#     4  10  19  36  60  82 115 150 200 242 296 350
#     4  11  23  39  57  85 124 157 197 251 298 354
#     4   9  18  35  57  82 113 146 189 240 289 346
#     4  10  23  41  56  84 118 157 197 243 295 351
#
# _framework density 23.101506000000001
#
# number of rings (size 3 to 8) (size 9 to 14) (size 15 to 20)
#    0.000    2.154    1.538    1.615    0.000    3.077 
#    5.538    0.000    0.000    2.769    0.000    0.000 
#    0.000    0.000    0.000    0.000    0.000    0.000 
#
# Total GULP energy -290236.040946 kJ/mol
# GULP energy per Si atom -5581.462326 kJ/mol
# Density = 2.304893 g / cm^3
# Si number density = 23.101506 Si / 1000 Ang^3
#
#
#
# Elastic Constant Matrix: (Units=GPa)
#
#
# Indices 1 2 3 4 5 6 
#
# 1 49.6334 -0.1131 9.6721 0.0000 0.0000 0.0000
# 2 -0.1131 60.7838 -17.8936 0.0000 0.0000 0.0000
# 3 9.6721 -17.8936 29.5819 0.0000 0.0000 0.0000
# 4 0.0000 0.0000 0.0000 19.8991 0.0000 0.0000
# 5 0.0000 0.0000 0.0000 0.0000 4.7623 0.0000
# 6 0.0000 0.0000 0.0000 0.0000 0.0000 15.9828
#
#
#
# Elastic Compliance Matrix: (Units=1/GPa)
#
#
# Indices 1 2 3 4 5 6 
#
# 1 0.021828 -0.002507 -0.008653 0.000000 0.000000 0.000000
# 2 -0.002507 0.020304 0.013101 0.000000 0.000000 0.000000
# 3 -0.008653 0.013101 0.044558 0.000000 0.000000 0.000000
# 4 0.000000 0.000000 0.000000 0.050254 0.000000 0.000000
# 5 0.000000 0.000000 0.000000 0.000000 0.209983 0.000000
# 6 0.000000 0.000000 0.000000 0.000000 0.000000 0.062567
#
#
# Mechanical properties :
#
#
# Convention : Reuss Voigt Hill
#
# Bulk Modulus (GPa) = 11.04091 13.70333 12.37212
# Shear Modulus (GPa) = 11.47307 18.01775 14.74541
#
# Velocity S-wave (km/s) = 2.23095 2.79577 2.52918
# Velocity P-wave (km/s) = 3.38022 4.04554 3.72775
#
# Compressibility (1/GPa) = 0.09057223
#
# Stress axis : x y z
#
# Youngs Moduli (GPa) = 45.81213 49.25200 22.44257
#
# Poissons Ratio (x) = 0.12346 0.19420
# Poissons Ratio (y) = 0.11484 -0.29402
# Poissons Ratio (z) = 0.39642 -0.64525
#
# Static dielectric constant tensor:
#      x y z
#    x 1.871680 0.000000 0.000000 
#    y 0.000000 1.913680 0.000000 
#    z 0.000000 0.000000 1.983880 
# 
# From -- ./inp_files/25637.got.cif
#   From: 2010.05.17/outbox.cif.g08.bks.cpg/sg64_13_cif.got.tgz:25637.got - 2010.06.03 16:29:19.
