data_PCOD9478960
_publ_section_title
;
Structure prediction by ZEFSAII (Michael W. Deem and Ramdas Pophale) SiO2 
 PCOD9478960
Probable space group: C M C A
;
_chemical_formula_sum "Si O2"
_cell_formula_units_Z 64
_cell_length_a 19.438544
_cell_length_b 20.359897
_cell_length_c 8.831461
_cell_angle_alpha 90.000000
_cell_angle_beta 90.000000
_cell_angle_gamma 90.000000
_cell_volume 3495.198650
_symmetry_space_group_name_H-M "C M C A"
_symmetry_group_IT_number 64
_symmetry_cell_setting 'orthorhombic'
loop_
_space_group_symop_operation_xyz
x,y,z
-x,1/2-y,1/2+z
x,-y,-z
-x,1/2+y,1/2-z
-x,-y,-z
x,1/2+y,1/2-z
-x,y,z
x,1/2-y,1/2+z
1/2+x,1/2+y,z
1/2-x,-y,1/2+z
1/2+x,1/2-y,-z
1/2-x,y,1/2-z
1/2-x,1/2-y,-z
1/2+x,y,1/2-z
1/2-x,1/2+y,z
1/2+x,-y,1/2+z
loop_
_atom_site_type_symbol
_atom_site_label
_atom_site_fract_x
_atom_site_fract_y
_atom_site_fract_z
Si Si1 0.078850 0.782475 0.524894
Si Si2 0.421681 0.653787 0.147038
Si Si3 0.722890 0.316748 0.420190
Si Si4 0.293055 0.564486 0.099955
O O1 0.086846 0.704978 0.491331
O O2 0.087612 0.803274 0.699534
O O3 0.140167 0.816403 0.432780
O O4 0.000000 0.799150 0.479929
O O5 0.500000 0.629300 0.146717
O O6 0.365845 0.597168 0.141847
O O7 0.750000 0.316822 0.250000
O O8 0.750000 0.250000 0.500000
O O9 0.752300 0.379013 0.509156
O O10 0.250000 0.548820 0.250000
O O11 0.301557 0.500000 0.000000
#
# Coordination Sequence:
#
# PCOD9478960 Si02
#       4
#    16  16  16  16
#     4  10  20  36  61  95 129 158 198 249 309 371
#     4  10  21  38  63  94 128 162 200 254 315 375
#     4  12  22  37  64  94 122 163 208 260 312 370
#     4  12  25  43  61  87 124 167 215 264 315 372
#
# _framework density 18.310834
#
# number of rings (size 3 to 8) (size 9 to 14) (size 15 to 20)
#    0.000    1.000    5.000    3.000    0.000    0.500 
#    0.000    0.000    0.000    6.000    0.000    0.000 
#    0.000    0.000    0.000    0.000    0.000    0.000 
#
# Total GULP energy -178798.590947 kJ/mol
# GULP energy per Si atom -5587.455967 kJ/mol
# Density = 1.826916 g / cm^3
# Si number density = 18.310834 Si / 1000 Ang^3
#
#
#
# Elastic Constant Matrix: (Units=GPa)
#
#
# Indices 1 2 3 4 5 6 
#
# 1 164.1153 69.7190 61.4792 0.0000 0.0000 0.0000
# 2 69.7190 95.6766 56.1173 0.0000 0.0000 0.0000
# 3 61.4792 56.1173 117.8217 0.0000 0.0000 0.0000
# 4 0.0000 0.0000 0.0000 27.8762 0.0000 0.0000
# 5 0.0000 0.0000 0.0000 0.0000 28.7879 0.0000
# 6 0.0000 0.0000 0.0000 0.0000 0.0000 14.8665
#
#
#
# Elastic Compliance Matrix: (Units=1/GPa)
#
#
# Indices 1 2 3 4 5 6 
#
# 1 0.009232 -0.005414 -0.002238 0.000000 0.000000 0.000000
# 2 -0.005414 0.017679 -0.005595 0.000000 0.000000 0.000000
# 3 -0.002238 -0.005595 0.012320 0.000000 0.000000 0.000000
# 4 0.000000 0.000000 0.000000 0.035873 0.000000 0.000000
# 5 0.000000 0.000000 0.000000 0.000000 0.034737 0.000000
# 6 0.000000 0.000000 0.000000 0.000000 0.000000 0.067265
#
#
# Mechanical properties :
#
#
# Convention : Reuss Voigt Hill
#
# Bulk Modulus (GPa) = 78.52095 83.58273 81.05184
# Shear Modulus (GPa) = 24.05612 26.99265 25.52438
#
# Velocity S-wave (km/s) = 3.62852 3.84361 3.73761
# Velocity P-wave (km/s) = 7.78012 8.08972 7.93643
#
# Compressibility (1/GPa) = 0.01273545
#
# Stress axis : x y z
#
# Youngs Moduli (GPa) = 108.31984 56.56426 81.16684
#
# Poissons Ratio (x) = 0.30626 0.18168
# Poissons Ratio (y) = 0.58648 0.45414
# Poissons Ratio (z) = 0.24246 0.31648
#
# Static dielectric constant tensor:
#      x y z
#    x 1.662550 0.000000 0.000000 
#    y 0.000000 1.582660 0.000000 
#    z 0.000000 0.000000 1.633210 
# 
# From -- ./inp_files/6572.got.cif
#   From: 2010.05.17/outbox.cif.g08.bks.cpg/sg64_4_cif.got.tgz:6572.got - 2010.06.03 16:29:19.
