data_PCOD9478951
_publ_section_title
;
Structure prediction by ZEFSAII (Michael W. Deem and Ramdas Pophale) SiO2 
 PCOD9478951
Probable space group: C M C A
;
_chemical_formula_sum "Si O2"
_cell_formula_units_Z 104
_cell_length_a 16.226565
_cell_length_b 15.856406
_cell_length_c 18.996052
_cell_angle_alpha 90.000000
_cell_angle_beta 90.000000
_cell_angle_gamma 90.000000
_cell_volume 4887.589249
_symmetry_space_group_name_H-M "C M C A"
_symmetry_group_IT_number 64
_symmetry_cell_setting 'orthorhombic'
loop_
_space_group_symop_operation_xyz
x,y,z
-x,1/2-y,1/2+z
x,-y,-z
-x,1/2+y,1/2-z
-x,-y,-z
x,1/2+y,1/2-z
-x,y,z
x,1/2-y,1/2+z
1/2+x,1/2+y,z
1/2-x,-y,1/2+z
1/2+x,1/2-y,-z
1/2-x,y,1/2-z
1/2-x,1/2-y,-z
1/2+x,y,1/2-z
1/2-x,1/2+y,z
1/2+x,-y,1/2+z
loop_
_atom_site_type_symbol
_atom_site_label
_atom_site_fract_x
_atom_site_fract_y
_atom_site_fract_z
Si Si1 0.400813 0.826030 0.182492
Si Si2 0.680682 0.500000 0.500000
Si Si3 0.828754 0.008331 0.345401
Si Si4 0.094037 0.662135 0.660873
Si Si5 0.591554 0.672970 0.089948
Si Si6 0.364046 0.969930 0.692556
Si Si7 0.211546 0.335653 0.468627
O O1 0.500000 0.840870 0.174997
O O2 0.350767 0.910679 0.168528
O O3 0.388405 0.797182 0.262887
O O4 0.373050 0.756291 0.126928
O O5 0.641535 0.470493 0.575162
O O6 0.729989 0.582555 0.527335
O O7 0.731120 0.025109 0.334784
O O8 0.867935 0.050434 0.275747
O O9 0.098440 0.561688 0.676931
O O10 0.165091 0.680463 0.604722
O O11 0.000000 0.683046 0.638708
O O12 0.500000 0.694627 0.067329
O O13 0.592267 0.601316 0.148335
O O14 0.640649 0.640919 0.023877
O O15 0.250000 0.250000 0.500000
#
# Coordination Sequence:
#
# PCOD9478951 Si02
#       7
#    16   8  16  16  16  16  16
#     4   9  21  40  63  84 115 161 206 251 301 366
#     4  12  22  40  56  88 128 156 200 252 298 368
#     4  10  20  38  58  85 122 154 206 240 302 364
#     4  10  20  39  62  87 117 157 204 253 308 364
#     4  11  22  39  60  91 124 154 197 255 316 366
#     4  10  20  36  61  91 116 158 198 254 302 368
#     4  12  24  38  59  93 124 165 200 251 308 369
#
# _framework density 21.278383999999999
#
# number of rings (size 3 to 8) (size 9 to 14) (size 15 to 20)
#    0.000    1.538    3.077    1.846    0.000    1.846 
#    0.000    2.692    0.000    1.846    0.000    0.000 
#    0.000    0.000    0.000    0.000    0.000    0.000 
#
# Total GULP energy -290121.976287 kJ/mol
# GULP energy per Si atom -5579.268775 kJ/mol
# Density = 2.122995 g / cm^3
# Si number density = 21.278384 Si / 1000 Ang^3
#
#
#
# Elastic Constant Matrix: (Units=GPa)
#
#
# Indices 1 2 3 4 5 6 
#
# 1 38.8062 -0.8118 23.6556 0.0000 0.0000 0.0000
# 2 -0.8118 26.5094 -13.3058 0.0000 0.0000 0.0000
# 3 23.6556 -13.3058 127.5620 0.0000 0.0000 0.0000
# 4 0.0000 0.0000 0.0000 24.7880 0.0000 0.0000
# 5 0.0000 0.0000 0.0000 0.0000 10.7619 0.0000
# 6 0.0000 0.0000 0.0000 0.0000 0.0000 17.1744
#
#
#
# Elastic Compliance Matrix: (Units=1/GPa)
#
#
# Indices 1 2 3 4 5 6 
#
# 1 0.029146 -0.001921 -0.005605 0.000000 0.000000 0.000000
# 2 -0.001921 0.039933 0.004522 0.000000 0.000000 0.000000
# 3 -0.005605 0.004522 0.009350 0.000000 0.000000 0.000000
# 4 0.000000 0.000000 0.000000 0.040342 0.000000 0.000000
# 5 0.000000 0.000000 0.000000 0.000000 0.092920 0.000000
# 6 0.000000 0.000000 0.000000 0.000000 0.000000 0.058226
#
#
# Mechanical properties :
#
#
# Convention : Reuss Voigt Hill
#
# Bulk Modulus (GPa) = 13.80833 23.55041 18.67937
# Shear Modulus (GPa) = 16.66294 22.76751 19.71522
#
# Velocity S-wave (km/s) = 2.80141 3.27461 3.04721
# Velocity P-wave (km/s) = 4.11915 5.03877 4.60199
#
# Compressibility (1/GPa) = 0.07242006
#
# Stress axis : x y z
#
# Youngs Moduli (GPa) = 34.31028 25.04188 106.94686
#
# Poissons Ratio (x) = 0.04810 0.59947
# Poissons Ratio (y) = 0.06591 -0.48357
# Poissons Ratio (z) = 0.19232 -0.11323
#
# Static dielectric constant tensor:
#      x y z
#    x 1.766940 0.000000 0.000000 
#    y 0.000000 1.747450 0.000000 
#    z 0.000000 0.000000 1.808820 
# 
# From -- ./inp_files/40244.got.cif
#   From: 2010.05.17/outbox.cif.g08.bks.cpg/sg64_21_cif.got.tgz:40244.got - 2010.06.03 16:29:19.
