data_PCOD9478560
_publ_section_title
;
Structure prediction by ZEFSAII (Michael W. Deem and Ramdas Pophale) SiO2 
 PCOD9478560
Probable space group: C M C A
;
_chemical_formula_sum "Si O2"
_cell_formula_units_Z 72
_cell_length_a 14.636029
_cell_length_b 8.755863
_cell_length_c 23.718038
_cell_angle_alpha 90.000000
_cell_angle_beta 90.000000
_cell_angle_gamma 90.000000
_cell_volume 3039.491824
_symmetry_space_group_name_H-M "C M C A"
_symmetry_group_IT_number 64
_symmetry_cell_setting 'orthorhombic'
loop_
_space_group_symop_operation_xyz
x,y,z
-x,1/2-y,1/2+z
x,-y,-z
-x,1/2+y,1/2-z
-x,-y,-z
x,1/2+y,1/2-z
-x,y,z
x,1/2-y,1/2+z
1/2+x,1/2+y,z
1/2-x,-y,1/2+z
1/2+x,1/2-y,-z
1/2-x,y,1/2-z
1/2-x,1/2-y,-z
1/2+x,y,1/2-z
1/2-x,1/2+y,z
1/2+x,-y,1/2+z
loop_
_atom_site_type_symbol
_atom_site_label
_atom_site_fract_x
_atom_site_fract_y
_atom_site_fract_z
Si Si1 0.500000 0.255189 0.501900
Si Si2 0.500000 0.007476 0.592798
Si Si3 0.500000 0.776370 0.240592
Si Si4 0.345626 0.365886 0.834573
Si Si5 0.189329 0.966465 0.378140
Si Si6 0.000000 0.425111 0.835471
Si Si7 0.160706 0.500000 0.000000
O O1 0.500000 0.166502 0.560858
O O2 0.409102 0.357266 0.496508
O O3 0.500000 0.128385 0.453393
O O4 0.588396 0.975436 0.630166
O O5 0.408084 0.696650 0.216128
O O6 0.500000 0.739618 0.306372
O O7 0.500000 0.946504 0.215159
O O8 0.253002 0.460992 0.829821
O O9 0.318990 0.213286 0.868505
O O10 0.089238 0.038502 0.371094
O O11 0.218396 0.002041 0.442324
#
# Coordination Sequence:
#
# PCOD9478560 Si02
#       7
#     8   8   8  16  16   8   8
#     4  10  20  34  62  84 118 171 215 253 297 367
#     4  10  20  40  58  83 123 165 212 253 307 355
#     4   9  22  44  69  88 125 160 207 264 328 370
#     4  10  23  42  61  93 127 165 207 265 311 374
#     4  11  24  41  64  92 134 166 212 255 314 373
#     4  10  22  45  67  92 121 166 205 268 319 377
#     4  11  22  38  60  95 130 174 210 253 312 371
#
# _framework density 23.688171000000001
#
# number of rings (size 3 to 8) (size 9 to 14) (size 15 to 20)
#    0.000    1.778    2.222    2.000    3.111    5.333 
#    4.000    4.444    0.000    0.000    0.000    0.000 
#    0.000    0.000    0.000    0.000    0.000    0.000 
#
# Total GULP energy -201458.073421 kJ/mol
# GULP energy per Si atom -5596.057595 kJ/mol
# Density = 2.363426 g / cm^3
# Si number density = 23.688171 Si / 1000 Ang^3
#
#
#
# Elastic Constant Matrix: (Units=GPa)
#
#
# Indices 1 2 3 4 5 6 
#
# 1 87.6508 23.0341 -12.2383 0.0000 0.0000 0.0000
# 2 23.0341 87.2749 22.3916 0.0000 0.0000 0.0000
# 3 -12.2383 22.3916 52.4485 0.0000 0.0000 0.0000
# 4 0.0000 0.0000 0.0000 40.2284 0.0000 0.0000
# 5 0.0000 0.0000 0.0000 0.0000 5.4430 0.0000
# 6 0.0000 0.0000 0.0000 0.0000 0.0000 15.9287
#
#
#
# Elastic Compliance Matrix: (Units=1/GPa)
#
#
# Indices 1 2 3 4 5 6 
#
# 1 0.013419 -0.004880 0.005214 0.000000 0.000000 0.000000
# 2 -0.004880 0.014642 -0.007390 0.000000 0.000000 0.000000
# 3 0.005214 -0.007390 0.023438 0.000000 0.000000 0.000000
# 4 0.000000 0.000000 0.000000 0.024858 0.000000 0.000000
# 5 0.000000 0.000000 0.000000 0.000000 0.183723 0.000000
# 6 0.000000 0.000000 0.000000 0.000000 0.000000 0.062780
#
#
# Mechanical properties :
#
#
# Convention : Reuss Voigt Hill
#
# Bulk Modulus (GPa) = 26.74536 32.63879 29.69208
# Shear Modulus (GPa) = 14.30891 25.26579 19.78735
#
# Velocity S-wave (km/s) = 2.46041 3.26943 2.89334
# Velocity P-wave (km/s) = 4.40303 5.29723 4.87069
#
# Compressibility (1/GPa) = 0.03738966
#
# Stress axis : x y z
#
# Youngs Moduli (GPa) = 74.51958 68.29768 42.66599
#
# Poissons Ratio (x) = 0.33326 -0.22248
# Poissons Ratio (y) = 0.36362 0.31528
# Poissons Ratio (z) = -0.38858 0.50469
#
# Static dielectric constant tensor:
#      x y z
#    x 1.890550 0.000000 0.000000 
#    y 0.000000 1.864360 0.000000 
#    z 0.000000 0.000000 1.896000 
# 
# From -- ./inp_files/45671.got.cif
#   From: 2010.05.17/outbox.cif.g08.bks.cpg/sg64_23_cif.got.tgz:45671.got - 2010.06.03 16:29:19.
