data_PCOD9478783
_publ_section_title
;
Structure prediction by ZEFSAII (Michael W. Deem and Ramdas Pophale) SiO2 
 PCOD9478783
Probable space group: C M C A
;
_chemical_formula_sum "Si O2"
_cell_formula_units_Z 112
_cell_length_a 28.749085
_cell_length_b 16.672893
_cell_length_c 11.195118
_cell_angle_alpha 90.000000
_cell_angle_beta 90.000000
_cell_angle_gamma 90.000000
_cell_volume 5366.160591
_symmetry_space_group_name_H-M "C M C A"
_symmetry_group_IT_number 64
_symmetry_cell_setting 'orthorhombic'
loop_
_space_group_symop_operation_xyz
x,y,z
-x,1/2-y,1/2+z
x,-y,-z
-x,1/2+y,1/2-z
-x,-y,-z
x,1/2+y,1/2-z
-x,y,z
x,1/2-y,1/2+z
1/2+x,1/2+y,z
1/2-x,-y,1/2+z
1/2+x,1/2-y,-z
1/2-x,y,1/2-z
1/2-x,1/2-y,-z
1/2+x,y,1/2-z
1/2-x,1/2+y,z
1/2+x,-y,1/2+z
loop_
_atom_site_type_symbol
_atom_site_label
_atom_site_fract_x
_atom_site_fract_y
_atom_site_fract_z
Si Si1 0.051041 0.285879 0.138464
Si Si2 0.116791 0.552783 0.277923
Si Si3 0.777955 0.109613 0.870614
Si Si4 0.051642 0.584360 0.070152
Si Si5 0.718173 0.085729 0.360508
Si Si6 0.880090 0.628977 0.696760
Si Si7 0.447063 0.610697 0.026624
O O1 0.095474 0.309022 0.215814
O O2 0.052550 0.195343 0.095794
O O3 0.000000 0.299842 0.198620
O O4 0.052172 0.344478 0.024643
O O5 0.092351 0.593301 0.165378
O O6 0.163480 0.594463 0.327121
O O7 0.125441 0.459660 0.244735
O O8 0.078997 0.551623 0.383382
O O9 0.750000 0.134034 0.750000
O O10 0.829067 0.146199 0.851722
O O11 0.777771 0.011759 0.868085
O O12 0.766814 0.123697 0.011855
O O13 0.000000 0.583349 0.128788
O O14 0.056273 0.500000 0.000000
O O15 0.750000 0.112936 0.250000
O O16 0.915701 0.622029 0.588375
O O17 0.500000 0.589620 0.998797
#
# Coordination Sequence:
#
# PCOD9478783 Si02
#       7
#    16  16  16  16  16  16  16
#     4  10  23  39  55  82 119 162 202 240 292 360
#     4  11  21  36  60  89 118 151 197 250 300 349
#     4   9  18  34  58  85 116 152 191 244 303 359
#     4  10  20  36  55  82 119 154 198 247 289 351
#     4   9  18  34  54  86 123 148 187 249 303 357
#     4  11  21  38  61  85 118 150 196 249 298 353
#     4  11  24  37  57  85 119 160 198 240 300 360
#
# _framework density 20.871534
#
# number of rings (size 3 to 8) (size 9 to 14) (size 15 to 20)
#    0.000    1.857    2.857    1.286    2.000    3.429 
#    2.571    0.000    0.000    1.714    0.000    0.000 
#    0.000    0.000    0.000    0.000    0.000    0.000 
#
# Total GULP energy -312413.500787 kJ/mol
# GULP energy per Si atom -5578.812514 kJ/mol
# Density = 2.082403 g / cm^3
# Si number density = 20.871534 Si / 1000 Ang^3
#
#
#
# Elastic Constant Matrix: (Units=GPa)
#
#
# Indices 1 2 3 4 5 6 
#
# 1 129.1851 0.7578 76.3625 0.0000 0.0000 0.0000
# 2 0.7578 40.9255 9.9742 0.0000 0.0000 0.0000
# 3 76.3625 9.9742 122.0762 0.0000 0.0000 0.0000
# 4 0.0000 0.0000 0.0000 15.5874 0.0000 0.0000
# 5 0.0000 0.0000 0.0000 0.0000 45.6156 0.0000
# 6 0.0000 0.0000 0.0000 0.0000 0.0000 6.3375
#
#
#
# Elastic Compliance Matrix: (Units=1/GPa)
#
#
# Indices 1 2 3 4 5 6 
#
# 1 0.012396 0.001694 -0.007893 0.000000 0.000000 0.000000
# 2 0.001694 0.025163 -0.003116 0.000000 0.000000 0.000000
# 3 -0.007893 -0.003116 0.013383 0.000000 0.000000 0.000000
# 4 0.000000 0.000000 0.000000 0.064155 0.000000 0.000000
# 5 0.000000 0.000000 0.000000 0.000000 0.021922 0.000000
# 6 0.000000 0.000000 0.000000 0.000000 0.000000 0.157791
#
#
# Mechanical properties :
#
#
# Convention : Reuss Voigt Hill
#
# Bulk Modulus (GPa) = 30.94658 51.81952 41.38305
# Shear Modulus (GPa) = 15.42211 27.18091 21.30151
#
# Velocity S-wave (km/s) = 2.72123 3.61265 3.19815
# Velocity P-wave (km/s) = 4.97321 6.50257 5.78862
#
# Compressibility (1/GPa) = 0.03231375
#
# Stress axis : x y z
#
# Youngs Moduli (GPa) = 80.66898 39.74154 74.72001
#
# Poissons Ratio (x) = -0.06732 0.58974
# Poissons Ratio (y) = -0.13666 0.23280
# Poissons Ratio (z) = 0.63670 0.12382
#
# Static dielectric constant tensor:
#      x y z
#    x 1.751730 0.000000 0.000000 
#    y 0.000000 1.802690 0.000000 
#    z 0.000000 0.000000 1.764580 
# 
# From -- ./inp_files/18553.got.cif
#   From: 2010.05.17/outbox.cif.g08.bks.cpg/sg64_10_cif.got.tgz:18553.got - 2010.06.03 16:29:19.
