data_PCOD9478741
_publ_section_title
;
Structure prediction by ZEFSAII (Michael W. Deem and Ramdas Pophale) SiO2 
 PCOD9478741
Probable space group: C M C A
;
_chemical_formula_sum "Si O2"
_cell_formula_units_Z 116
_cell_length_a 15.900783
_cell_length_b 16.205953
_cell_length_c 23.358970
_cell_angle_alpha 90.000000
_cell_angle_beta 90.000000
_cell_angle_gamma 90.000000
_cell_volume 6019.310890
_symmetry_space_group_name_H-M "C M C A"
_symmetry_group_IT_number 64
_symmetry_cell_setting 'orthorhombic'
loop_
_space_group_symop_operation_xyz
x,y,z
-x,1/2-y,1/2+z
x,-y,-z
-x,1/2+y,1/2-z
-x,-y,-z
x,1/2+y,1/2-z
-x,y,z
x,1/2-y,1/2+z
1/2+x,1/2+y,z
1/2-x,-y,1/2+z
1/2+x,1/2-y,-z
1/2-x,y,1/2-z
1/2-x,1/2-y,-z
1/2+x,y,1/2-z
1/2-x,1/2+y,z
1/2+x,-y,1/2+z
loop_
_atom_site_type_symbol
_atom_site_label
_atom_site_fract_x
_atom_site_fract_y
_atom_site_fract_z
Si Si1 0.247254 0.219057 0.185420
Si Si2 0.141143 0.515917 0.092878
Si Si3 0.094585 0.053975 0.887475
Si Si4 0.406461 0.803673 0.883570
Si Si5 0.000000 0.000000 0.500000
Si Si6 0.596622 0.807605 0.485460
Si Si7 0.738533 0.091610 0.815919
Si Si8 0.812335 0.105752 0.082955
O O1 0.250000 0.187668 0.250000
O O2 0.341957 0.228254 0.162469
O O3 0.212105 0.311981 0.184321
O O4 0.205466 0.154940 0.141699
O O5 0.096159 0.598147 0.116582
O O6 0.172910 0.458324 0.144608
O O7 0.228452 0.553817 0.067209
O O8 0.075465 0.479322 0.047666
O O9 0.099007 0.115903 0.941272
O O10 0.170341 0.078531 0.845450
O O11 0.000000 0.058850 0.863587
O O12 0.114881 0.961618 0.908626
O O13 0.500000 0.771931 0.874015
O O14 0.381188 0.771476 0.946676
O O15 0.500000 0.797714 0.505729
O O16 0.659811 0.828593 0.535805
O O17 0.750000 0.064624 0.750000
#
# Coordination Sequence:
#
# PCOD9478741 Si02
#       8
#    16  16  16  16   4  16  16  16
#     4  10  22  41  63  86 118 158 205 255 301 364
#     4  10  24  38  60  87 123 168 200 250 305 370
#     4  10  20  37  62  91 120 158 201 261 317 360
#     4  10  20  39  60  86 116 160 199 238 302 365
#     4  12  24  40  56  88 138 164 206 246 308 388
#     4  10  20  35  60  92 125 156 195 253 310 370
#     4  10  22  43  65  88 119 162 214 256 309 371
#     4  10  22  36  61  93 120 156 205 247 311 364
#
# _framework density 19.271308999999999
#
# number of rings (size 3 to 8) (size 9 to 14) (size 15 to 20)
#    0.000    1.931    2.069    0.828    3.862    9.379 
#    1.241    2.759    3.034    0.000    0.000    0.000 
#    0.000    0.000    0.000    0.000    0.000    0.000 
#
# Total GULP energy -322950.963325 kJ/mol
# GULP energy per Si atom -5568.120057 kJ/mol
# Density = 1.922745 g / cm^3
# Si number density = 19.271309 Si / 1000 Ang^3
#
#
#
# Elastic Constant Matrix: (Units=GPa)
#
#
# Indices 1 2 3 4 5 6 
#
# 1 72.2821 9.1110 35.7037 0.0000 0.0000 0.0000
# 2 9.1110 56.7954 7.7661 0.0000 0.0000 0.0000
# 3 35.7037 7.7661 84.5422 0.0000 0.0000 0.0000
# 4 0.0000 0.0000 0.0000 118.8805 0.0000 0.0000
# 5 0.0000 0.0000 0.0000 0.0000 5.3564 0.0000
# 6 0.0000 0.0000 0.0000 0.0000 0.0000 8.0432
#
#
#
# Elastic Compliance Matrix: (Units=1/GPa)
#
#
# Indices 1 2 3 4 5 6 
#
# 1 0.017669 -0.001837 -0.007293 0.000000 0.000000 0.000000
# 2 -0.001837 0.018022 -0.000880 0.000000 0.000000 0.000000
# 3 -0.007293 -0.000880 0.014989 0.000000 0.000000 0.000000
# 4 0.000000 0.000000 0.000000 0.008412 0.000000 0.000000
# 5 0.000000 0.000000 0.000000 0.000000 0.186694 0.000000
# 6 0.000000 0.000000 0.000000 0.000000 0.000000 0.124329
#
#
# Mechanical properties :
#
#
# Convention : Reuss Voigt Hill
#
# Bulk Modulus (GPa) = 32.61554 35.42015 34.01784
# Shear Modulus (GPa) = 12.48893 37.19193 24.84043
#
# Velocity S-wave (km/s) = 2.54846 4.39784 3.59414
# Velocity P-wave (km/s) = 5.06169 6.64888 5.90882
#
# Compressibility (1/GPa) = 0.03066024
#
# Stress axis : x y z
#
# Youngs Moduli (GPa) = 56.59747 55.48762 66.71475
#
# Poissons Ratio (x) = 0.10194 0.48655
# Poissons Ratio (y) = 0.10398 0.05869
# Poissons Ratio (z) = 0.41277 0.04881
#
# Static dielectric constant tensor:
#      x y z
#    x 1.682620 0.000000 0.000000 
#    y 0.000000 1.704360 0.000000 
#    z 0.000000 0.000000 1.663950 
# 
# From -- ./inp_files/45442.got.cif
#   From: 2010.05.17/outbox.cif.g08.bks.cpg/sg64_23_cif.got.tgz:45442.got - 2010.06.03 16:29:19.
