data_PCOD9478073
_publ_section_title
;
Structure prediction by ZEFSAII (Michael W. Deem and Ramdas Pophale) SiO2 
 PCOD9478073
Probable space group: C M C A
;
_chemical_formula_sum "Si O2"
_cell_formula_units_Z 116
_cell_length_a 28.624722
_cell_length_b 22.120884
_cell_length_c 7.935954
_cell_angle_alpha 90.000000
_cell_angle_beta 90.000000
_cell_angle_gamma 90.000000
_cell_volume 5025.079046
_symmetry_space_group_name_H-M "C M C A"
_symmetry_group_IT_number 64
_symmetry_cell_setting 'orthorhombic'
loop_
_space_group_symop_operation_xyz
x,y,z
-x,1/2-y,1/2+z
x,-y,-z
-x,1/2+y,1/2-z
-x,-y,-z
x,1/2+y,1/2-z
-x,y,z
x,1/2-y,1/2+z
1/2+x,1/2+y,z
1/2-x,-y,1/2+z
1/2+x,1/2-y,-z
1/2-x,y,1/2-z
1/2-x,1/2-y,-z
1/2+x,y,1/2-z
1/2-x,1/2+y,z
1/2+x,-y,1/2+z
loop_
_atom_site_type_symbol
_atom_site_label
_atom_site_fract_x
_atom_site_fract_y
_atom_site_fract_z
Si Si1 0.819482 0.568120 0.951556
Si Si2 0.199286 0.342020 0.734347
Si Si3 0.000000 0.500000 0.500000
Si Si4 0.814038 0.065366 0.936354
Si Si5 0.576810 0.588559 0.948569
Si Si6 0.931610 0.063864 0.570064
Si Si7 0.899047 0.288551 0.622847
Si Si8 0.449291 0.808079 0.953391
O O1 0.803190 0.579841 0.759045
O O2 0.875592 0.565531 0.940992
O O3 0.804537 0.500000 0.000000
O O4 0.808113 0.616193 0.098975
O O5 0.250000 0.310246 0.750000
O O6 0.202909 0.385631 0.571033
O O7 0.152503 0.303087 0.695822
O O8 0.041600 0.548913 0.440941
O O9 0.870403 0.064575 0.952236
O O10 0.797681 0.000000 0.000000
O O11 0.555622 0.577077 0.763327
O O12 0.584915 0.658972 0.992705
O O13 0.948726 0.120510 0.466857
O O14 0.947587 0.000000 0.500000
O O15 0.905795 0.221832 0.550952
O O16 0.937934 0.291777 0.764817
O O17 0.500000 0.785261 0.007988
#
# Coordination Sequence:
#
# PCOD9478073 Si02
#       8
#    16  16   4  16  16  16  16  16
#     4  10  19  37  66  99 142 192 237 294 368 437
#     4  11  24  43  69 101 137 188 246 305 376 439
#     4  12  24  32  66  96 148 188 240 284 360 444
#     4  10  19  37  59  92 143 189 237 303 371 430
#     4  10  24  37  61  97 140 188 234 288 359 423
#     4  10  23  41  68 102 144 182 232 287 358 429
#     4  11  26  49  70  99 146 183 243 307 354 435
#     4  12  26  44  74 102 136 191 237 288 360 436
#
# _framework density 23.084213999999999
#
# number of rings (size 3 to 8) (size 9 to 14) (size 15 to 20)
#    0.000    1.379    3.448    1.241    4.828    1.379 
#    0.000    0.690    0.000    0.000    0.000    0.000 
#    0.000    0.000    0.000    0.000    0.000    0.000 
#
# Total GULP energy -323444.926296 kJ/mol
# GULP energy per Si atom -5576.636660 kJ/mol
# Density = 2.303167 g / cm^3
# Si number density = 23.084214 Si / 1000 Ang^3
#
#
#
# Elastic Constant Matrix: (Units=GPa)
#
#
# Indices 1 2 3 4 5 6 
#
# 1 174.6374 38.8709 18.6748 0.0000 0.0000 0.0000
# 2 38.8709 81.8936 20.9719 0.0000 0.0000 0.0000
# 3 18.6748 20.9719 113.8564 0.0000 0.0000 0.0000
# 4 0.0000 0.0000 0.0000 28.2469 0.0000 0.0000
# 5 0.0000 0.0000 0.0000 0.0000 26.8280 0.0000
# 6 0.0000 0.0000 0.0000 0.0000 0.0000 -22.8002
#
#
#
# Elastic Compliance Matrix: (Units=1/GPa)
#
#
# Indices 1 2 3 4 5 6 
#
# 1 0.006431 -0.002920 -0.000517 0.000000 0.000000 0.000000
# 2 -0.002920 0.014141 -0.002126 0.000000 0.000000 0.000000
# 3 -0.000517 -0.002126 0.009259 0.000000 0.000000 0.000000
# 4 0.000000 0.000000 0.000000 0.035402 0.000000 0.000000
# 5 0.000000 0.000000 0.000000 0.000000 0.037274 0.000000
# 6 0.000000 0.000000 0.000000 0.000000 0.000000 -0.043859
#
#
# Mechanical properties :
#
#
# Convention : Reuss Voigt Hill
#
# Bulk Modulus (GPa) = 53.45855 58.60253 56.03054
# Shear Modulus (GPa) = 65.77971 25.91291 45.84631
#
# Velocity S-wave (km/s) = 5.34391 3.35406 4.46134
# Velocity P-wave (km/s) = 7.82846 6.35934 7.13183
#
# Compressibility (1/GPa) = 0.01870608
#
# Stress axis : x y z
#
# Youngs Moduli (GPa) = 155.48630 70.71393 107.99887
#
# Poissons Ratio (x) = 0.20651 0.05583
# Poissons Ratio (y) = 0.45407 0.22959
# Poissons Ratio (z) = 0.08038 0.15033
#
# Static dielectric constant tensor:
#      x y z
#    x 1.875120 0.000000 0.000000 
#    y 0.000000 1.818980 0.000000 
#    z 0.000000 0.000000 1.962730 
# 
# From -- ./inp_files/11309.got.cif
#   From: 2010.05.17/outbox.cif.g08.bks.cpg/sg64_6_cif.got.tgz:11309.got - 2010.06.03 16:29:19.
