data_PCOD9478606
_publ_section_title
;
Structure prediction by ZEFSAII (Michael W. Deem and Ramdas Pophale) SiO2 
 PCOD9478606
Probable space group: C M C A
;
_chemical_formula_sum "Si O2"
_cell_formula_units_Z 88
_cell_length_a 21.289212
_cell_length_b 21.629803
_cell_length_c 10.206541
_cell_angle_alpha 90.000000
_cell_angle_beta 90.000000
_cell_angle_gamma 90.000000
_cell_volume 4699.922917
_symmetry_space_group_name_H-M "C M C A"
_symmetry_group_IT_number 64
_symmetry_cell_setting 'orthorhombic'
loop_
_space_group_symop_operation_xyz
x,y,z
-x,1/2-y,1/2+z
x,-y,-z
-x,1/2+y,1/2-z
-x,-y,-z
x,1/2+y,1/2-z
-x,y,z
x,1/2-y,1/2+z
1/2+x,1/2+y,z
1/2-x,-y,1/2+z
1/2+x,1/2-y,-z
1/2-x,y,1/2-z
1/2-x,1/2-y,-z
1/2+x,y,1/2-z
1/2-x,1/2+y,z
1/2+x,-y,1/2+z
loop_
_atom_site_type_symbol
_atom_site_label
_atom_site_fract_x
_atom_site_fract_y
_atom_site_fract_z
Si Si1 0.308206 0.268252 0.149374
Si Si2 0.500000 0.531082 0.293647
Si Si3 0.500000 0.100811 0.946126
Si Si4 0.377916 0.865118 0.198453
Si Si5 0.278671 0.147833 0.015730
Si Si6 0.750000 0.945224 0.750000
Si Si7 0.124005 0.008371 0.845055
O O1 0.250000 0.258742 0.250000
O O2 0.363406 0.301084 0.228445
O O3 0.319495 0.202786 0.081822
O O4 0.282140 0.316891 0.041989
O O5 0.500000 0.466455 0.374792
O O6 0.500000 0.585632 0.400213
O O7 0.563448 0.528780 0.208852
O O8 0.438287 0.134709 0.894101
O O9 0.384758 0.920416 0.302389
O O10 0.317744 0.878565 0.105960
O O11 0.261848 0.097682 0.123367
O O12 0.812221 0.984534 0.778067
O O13 0.128929 0.000000 0.000000
#
# Coordination Sequence:
#
# PCOD9478606 Si02
#       7
#    16   8   8  16  16   8  16
#     4   9  18  35  57  79 107 151 193 236 286 345
#     4   9  19  40  60  80 116 163 196 224 291 378
#     4   9  18  36  60  86 107 152 194 232 282 356
#     4  10  21  37  59  81 117 150 193 240 295 354
#     4  10  20  35  55  81 114 152 193 236 295 352
#     4  12  24  32  54  92 122 144 198 252 300 356
#     4  11  24  37  57  87 123 156 194 247 308 364
#
# _framework density 18.723711000000002
#
# number of rings (size 3 to 8) (size 9 to 14) (size 15 to 20)
#    0.000    2.000    0.909    2.455    6.364    1.455 
#    0.000    0.909    0.000    0.000    0.000    0.000 
#    0.000    0.000    0.000    0.000    0.000    0.000 
#
# Total GULP energy -245638.136796 kJ/mol
# GULP energy per Si atom -5582.684927 kJ/mol
# Density = 1.868110 g / cm^3
# Si number density = 18.723711 Si / 1000 Ang^3
#
#
#
# Elastic Constant Matrix: (Units=GPa)
#
#
# Indices 1 2 3 4 5 6 
#
# 1 95.4206 25.8737 17.6761 0.0000 0.0000 0.0000
# 2 25.8737 44.5644 22.5076 0.0000 0.0000 0.0000
# 3 17.6761 22.5076 80.0515 0.0000 0.0000 0.0000
# 4 0.0000 0.0000 0.0000 35.9810 0.0000 0.0000
# 5 0.0000 0.0000 0.0000 0.0000 17.9852 0.0000
# 6 0.0000 0.0000 0.0000 0.0000 0.0000 18.8475
#
#
#
# Elastic Compliance Matrix: (Units=1/GPa)
#
#
# Indices 1 2 3 4 5 6 
#
# 1 0.012486 -0.006826 -0.000838 0.000000 0.000000 0.000000
# 2 -0.006826 0.029885 -0.006895 0.000000 0.000000 0.000000
# 3 -0.000838 -0.006895 0.014616 0.000000 0.000000 0.000000
# 4 0.000000 0.000000 0.000000 0.027792 0.000000 0.000000
# 5 0.000000 0.000000 0.000000 0.000000 0.055601 0.000000
# 6 0.000000 0.000000 0.000000 0.000000 0.000000 0.053057
#
#
# Mechanical properties :
#
#
# Convention : Reuss Voigt Hill
#
# Bulk Modulus (GPa) = 35.88303 39.12793 37.50548
# Shear Modulus (GPa) = 21.56600 24.82800 23.19700
#
# Velocity S-wave (km/s) = 3.39750 3.64540 3.52363
# Velocity P-wave (km/s) = 5.88190 6.21784 6.05220
#
# Compressibility (1/GPa) = 0.02786833
#
# Stress axis : x y z
#
# Youngs Moduli (GPa) = 80.08928 33.46132 68.41964
#
# Poissons Ratio (x) = 0.22841 0.05732
# Poissons Ratio (y) = 0.54671 0.47178
# Poissons Ratio (z) = 0.06709 0.23073
#
# Static dielectric constant tensor:
#      x y z
#    x 1.644260 0.000000 0.000000 
#    y 0.000000 1.636650 0.000000 
#    z 0.000000 0.000000 1.659670 
# 
# From -- ./inp_files/9369.got.cif
#   From: 2010.05.17/outbox.cif.g08.bks.cpg/sg64_5_cif.got.tgz:9369.got - 2010.06.03 16:29:19.
