data_PCOD9478034
_publ_section_title
;
Structure prediction by ZEFSAII (Michael W. Deem and Ramdas Pophale) SiO2 
 PCOD9478034
Probable space group: C M C A
;
_chemical_formula_sum "Si O2"
_cell_formula_units_Z 72
_cell_length_a 8.029577
_cell_length_b 15.310679
_cell_length_c 25.579336
_cell_angle_alpha 90.000000
_cell_angle_beta 90.000000
_cell_angle_gamma 90.000000
_cell_volume 3144.679468
_symmetry_space_group_name_H-M "C M C A"
_symmetry_group_IT_number 64
_symmetry_cell_setting 'orthorhombic'
loop_
_space_group_symop_operation_xyz
x,y,z
-x,1/2-y,1/2+z
x,-y,-z
-x,1/2+y,1/2-z
-x,-y,-z
x,1/2+y,1/2-z
-x,y,z
x,1/2-y,1/2+z
1/2+x,1/2+y,z
1/2-x,-y,1/2+z
1/2+x,1/2-y,-z
1/2-x,y,1/2-z
1/2-x,1/2-y,-z
1/2+x,y,1/2-z
1/2-x,1/2+y,z
1/2+x,-y,1/2+z
loop_
_atom_site_type_symbol
_atom_site_label
_atom_site_fract_x
_atom_site_fract_y
_atom_site_fract_z
Si Si1 0.690464 0.865903 0.848763
Si Si2 0.197731 0.454330 0.389522
Si Si3 0.816474 0.187078 0.044433
Si Si4 0.200522 0.689507 0.693391
Si Si5 0.753957 0.000000 0.000000
O O1 0.500000 0.885448 0.834199
O O2 0.696396 0.821325 0.906278
O O3 0.763223 0.789039 0.813004
O O4 0.786298 0.956539 0.856038
O O5 0.253040 0.373937 0.353670
O O6 0.305942 0.466471 0.442442
O O7 0.000000 0.443818 0.404013
O O8 0.829876 0.090395 0.020248
O O9 0.000000 0.214461 0.062198
O O10 0.750000 0.250000 0.000000
O O11 0.250000 0.654513 0.750000
O O12 0.000000 0.693553 0.690288
#
# Coordination Sequence:
#
# PCOD9478034 Si02
#       5
#    16  16  16  16   8
#     4  10  21  38  57  82 113 147 188 238 289 343
#     4  10  20  37  60  87 116 153 194 236 288 351
#     4  11  21  35  56  83 115 154 193 233 280 339
#     4  10  23  41  61  83 114 153 196 243 296 353
#     4  10  19  36  61  84 117 158 191 226 285 356
#
# _framework density 22.895814999999999
#
# number of rings (size 3 to 8) (size 9 to 14) (size 15 to 20)
#    0.000    1.778    0.000    6.000    0.000    5.333 
#    0.000   22.778    0.000    0.000    0.000    0.000 
#    0.000    0.000    0.000    0.000    0.000    0.000 
#
# Total GULP energy -200624.811966 kJ/mol
# GULP energy per Si atom -5572.911443 kJ/mol
# Density = 2.284370 g / cm^3
# Si number density = 22.895815 Si / 1000 Ang^3
#
#
#
# Elastic Constant Matrix: (Units=GPa)
#
#
# Indices 1 2 3 4 5 6 
#
# 1 54.9406 4.9412 2.6674 0.0000 0.0000 0.0000
# 2 4.9412 86.9279 42.1185 0.0000 0.0000 0.0000
# 3 2.6674 42.1185 98.8843 0.0000 0.0000 0.0000
# 4 0.0000 0.0000 0.0000 39.7349 0.0000 0.0000
# 5 0.0000 0.0000 0.0000 0.0000 12.1442 0.0000
# 6 0.0000 0.0000 0.0000 0.0000 0.0000 7.2984
#
#
#
# Elastic Compliance Matrix: (Units=1/GPa)
#
#
# Indices 1 2 3 4 5 6 
#
# 1 0.018295 -0.001009 -0.000064 0.000000 0.000000 0.000000
# 2 -0.001009 0.014551 -0.006171 0.000000 0.000000 0.000000
# 3 -0.000064 -0.006171 0.012743 0.000000 0.000000 0.000000
# 4 0.000000 0.000000 0.000000 0.025167 0.000000 0.000000
# 5 0.000000 0.000000 0.000000 0.000000 0.082344 0.000000
# 6 0.000000 0.000000 0.000000 0.000000 0.000000 0.137017
#
#
# Mechanical properties :
#
#
# Convention : Reuss Voigt Hill
#
# Bulk Modulus (GPa) = 32.15191 37.80079 34.97635
# Shear Modulus (GPa) = 15.87447 24.57052 20.22250
#
# Velocity S-wave (km/s) = 2.63598 3.27944 2.97516
# Velocity P-wave (km/s) = 4.83091 5.55746 5.20688
#
# Compressibility (1/GPa) = 0.03110235
#
# Stress axis : x y z
#
# Youngs Moduli (GPa) = 54.65876 68.72414 78.47553
#
# Poissons Ratio (x) = 0.06935 0.00500
# Poissons Ratio (y) = 0.05516 0.48424
# Poissons Ratio (z) = 0.00348 0.42407
#
# Static dielectric constant tensor:
#      x y z
#    x 1.880860 0.000000 0.000000 
#    y 0.000000 1.863420 0.000000 
#    z 0.000000 0.000000 1.875690 
# 
# From -- ./inp_files/47595.got.cif
#   From: 2010.05.17/outbox.cif.g08.bks.cpg/sg64_24_cif.got.tgz:47595.got - 2010.06.03 16:29:19.
