data_PCOD9478636
_publ_section_title
;
Structure prediction by ZEFSAII (Michael W. Deem and Ramdas Pophale) SiO2 
 PCOD9478636
Probable space group: C M C A
;
_chemical_formula_sum "Si O2"
_cell_formula_units_Z 80
_cell_length_a 9.464123
_cell_length_b 14.262962
_cell_length_c 30.256435
_cell_angle_alpha 90.000000
_cell_angle_beta 90.000000
_cell_angle_gamma 90.000000
_cell_volume 4084.208046
_symmetry_space_group_name_H-M "C M C A"
_symmetry_group_IT_number 64
_symmetry_cell_setting 'orthorhombic'
loop_
_space_group_symop_operation_xyz
x,y,z
-x,1/2-y,1/2+z
x,-y,-z
-x,1/2+y,1/2-z
-x,-y,-z
x,1/2+y,1/2-z
-x,y,z
x,1/2-y,1/2+z
1/2+x,1/2+y,z
1/2-x,-y,1/2+z
1/2+x,1/2-y,-z
1/2-x,y,1/2-z
1/2-x,1/2-y,-z
1/2+x,y,1/2-z
1/2-x,1/2+y,z
1/2+x,-y,1/2+z
loop_
_atom_site_type_symbol
_atom_site_label
_atom_site_fract_x
_atom_site_fract_y
_atom_site_fract_z
Si Si1 0.340435 0.361438 0.207685
Si Si2 0.337791 0.632788 0.293226
Si Si3 0.661060 0.140649 0.876756
Si Si4 0.666310 0.514292 0.448822
Si Si5 0.834503 0.364154 0.618672
O O1 0.500000 0.395935 0.210458
O O2 0.250000 0.390004 0.250000
O O3 0.343189 0.247095 0.207909
O O4 0.266604 0.388192 0.161990
O O5 0.500000 0.599268 0.293265
O O6 0.250000 0.604214 0.250000
O O7 0.254252 0.607852 0.337795
O O8 0.500000 0.124274 0.861233
O O9 0.682785 0.081337 0.920926
O O10 0.675606 0.251428 0.884918
O O11 0.701979 0.500000 0.500000
O O12 0.500000 0.541556 0.446105
O O13 0.763466 0.588573 0.423682
O O14 0.000000 0.388510 0.623216
#
# Coordination Sequence:
#
# PCOD9478636 Si02
#       5
#    16  16  16  16  16
#     4   9  16  27  48  78 110 144 180 217 260 313
#     4   9  16  28  49  78 111 146 181 217 261 315
#     4   9  19  36  56  79 110 145 179 219 269 323
#     4  10  22  40  59  79 106 141 181 227 279 331
#     4  10  20  35  56  82 111 143 180 223 270 320
#
# _framework density 19.58764
#
# number of rings (size 3 to 8) (size 9 to 14) (size 15 to 20)
#    0.000    2.600    0.000    1.800    0.000    7.600 
#    0.000    1.000    0.000    4.800    0.000    0.000 
#    0.000    0.000    0.000    0.000    0.000    0.000 
#
# Total GULP energy -223503.524500 kJ/mol
# GULP energy per Si atom -5587.588113 kJ/mol
# Density = 1.954306 g / cm^3
# Si number density = 19.587640 Si / 1000 Ang^3
#
#
#
# Elastic Constant Matrix: (Units=GPa)
#
#
# Indices 1 2 3 4 5 6 
#
# 1 177.5001 47.7250 124.5496 0.0000 0.0000 0.0000
# 2 47.7250 58.2396 32.5728 0.0000 0.0000 0.0000
# 3 124.5496 32.5728 179.0474 0.0000 0.0000 0.0000
# 4 0.0000 0.0000 0.0000 32.1669 0.0000 0.0000
# 5 0.0000 0.0000 0.0000 0.0000 37.5446 0.0000
# 6 0.0000 0.0000 0.0000 0.0000 0.0000 18.8407
#
#
#
# Elastic Compliance Matrix: (Units=1/GPa)
#
#
# Indices 1 2 3 4 5 6 
#
# 1 0.012682 -0.006077 -0.007717 0.000000 0.000000 0.000000
# 2 -0.006077 0.022027 0.000220 0.000000 0.000000 0.000000
# 3 -0.007717 0.000220 0.010913 0.000000 0.000000 0.000000
# 4 0.000000 0.000000 0.000000 0.031088 0.000000 0.000000
# 5 0.000000 0.000000 0.000000 0.000000 0.026635 0.000000
# 6 0.000000 0.000000 0.000000 0.000000 0.000000 0.053077
#
#
# Mechanical properties :
#
#
# Convention : Reuss Voigt Hill
#
# Bulk Modulus (GPa) = 54.12591 91.60908 72.86750
# Shear Modulus (GPa) = 26.35360 31.70642 29.03001
#
# Velocity S-wave (km/s) = 3.67198 4.02767 3.85393
# Velocity P-wave (km/s) = 6.75800 8.27646 7.55547
#
# Compressibility (1/GPa) = 0.01847544
#
# Stress axis : x y z
#
# Youngs Moduli (GPa) = 78.84967 45.39850 91.63408
#
# Poissons Ratio (x) = 0.27588 0.70711
# Poissons Ratio (y) = 0.47916 -0.02015
# Poissons Ratio (z) = 0.60845 -0.00999
#
# Static dielectric constant tensor:
#      x y z
#    x 1.672130 0.000000 0.000000 
#    y 0.000000 1.723940 0.000000 
#    z 0.000000 0.000000 1.630330 
# 
# From -- ./inp_files/47835.got.cif
#   From: 2010.05.17/outbox.cif.g08.bks.cpg/sg64_24_cif.got.tgz:47835.got - 2010.06.03 16:29:19.
