data_PCOD9478209
_publ_section_title
;
Structure prediction by ZEFSAII (Michael W. Deem and Ramdas Pophale) SiO2 
 PCOD9478209
Probable space group: C M C A
;
_chemical_formula_sum "Si O2"
_cell_formula_units_Z 96
_cell_length_a 16.779092
_cell_length_b 12.221532
_cell_length_c 18.220893
_cell_angle_alpha 90.000000
_cell_angle_beta 90.000000
_cell_angle_gamma 90.000000
_cell_volume 3736.489467
_symmetry_space_group_name_H-M "C M C A"
_symmetry_group_IT_number 64
_symmetry_cell_setting 'orthorhombic'
loop_
_space_group_symop_operation_xyz
x,y,z
-x,1/2-y,1/2+z
x,-y,-z
-x,1/2+y,1/2-z
-x,-y,-z
x,1/2+y,1/2-z
-x,y,z
x,1/2-y,1/2+z
1/2+x,1/2+y,z
1/2-x,-y,1/2+z
1/2+x,1/2-y,-z
1/2-x,y,1/2-z
1/2-x,1/2-y,-z
1/2+x,y,1/2-z
1/2-x,1/2+y,z
1/2+x,-y,1/2+z
loop_
_atom_site_type_symbol
_atom_site_label
_atom_site_fract_x
_atom_site_fract_y
_atom_site_fract_z
Si Si1 0.685650 0.711324 0.691803
Si Si2 0.907945 0.628046 0.150157
Si Si3 0.341814 0.237874 0.526036
Si Si4 0.905263 0.971697 0.221899
Si Si5 0.095351 0.891736 0.906551
Si Si6 0.663015 0.432591 0.435557
O O1 0.750000 0.751845 0.750000
O O2 0.628306 0.637265 0.742220
O O3 0.641896 0.801112 0.642534
O O4 0.713539 0.621819 0.629905
O O5 0.881847 0.577962 0.228291
O O6 0.896073 0.518801 0.101172
O O7 0.000000 0.662189 0.153924
O O8 0.858169 0.722312 0.108564
O O9 0.250000 0.250000 0.500000
O O10 0.377643 0.129800 0.489815
O O11 0.382261 0.336027 0.477981
O O12 0.884648 0.997936 0.137914
O O13 0.000000 0.965833 0.227674
O O14 0.000000 0.877280 0.902071
O O15 0.707370 0.500000 0.500000
#
# Coordination Sequence:
#
# PCOD9478209 Si02
#       6
#    16  16  16  16  16  16
#     4  10  20  32  52  80 107 139 178 224 274 318
#     4   9  17  32  54  75  98 134 181 227 267 310
#     4  10  20  31  48  77 108 134 163 211 272 325
#     4   9  19  34  52  75 103 138 179 222 267 319
#     4  10  21  37  56  77 107 147 185 220 263 320
#     4   8  17  31  47  70  99 129 168 212 260 308
#
# _framework density 25.692567
#
# number of rings (size 3 to 8) (size 9 to 14) (size 15 to 20)
#    0.000    2.667    0.000    1.000    0.000   14.333 
#    0.000    0.000    0.000    0.000    0.000    0.000 
#    0.000   30.667    0.000    0.000    0.000    0.000 
#
# Total GULP energy -267902.812486 kJ/mol
# GULP energy per Si atom -5581.308593 kJ/mol
# Density = 2.563409 g / cm^3
# Si number density = 25.692567 Si / 1000 Ang^3
#
#
#
# Elastic Constant Matrix: (Units=GPa)
#
#
# Indices 1 2 3 4 5 6 
#
# 1 69.5276 6.7017 11.6944 0.0000 0.0000 0.0000
# 2 6.7017 50.8727 24.1306 0.0000 0.0000 0.0000
# 3 11.6944 24.1306 143.6276 0.0000 0.0000 0.0000
# 4 0.0000 0.0000 0.0000 57.4753 0.0000 0.0000
# 5 0.0000 0.0000 0.0000 0.0000 24.7872 0.0000
# 6 0.0000 0.0000 0.0000 0.0000 0.0000 27.7809
#
#
#
# Elastic Compliance Matrix: (Units=1/GPa)
#
#
# Indices 1 2 3 4 5 6 
#
# 1 0.014685 -0.001486 -0.000946 0.000000 0.000000 0.000000
# 2 -0.001486 0.021509 -0.003493 0.000000 0.000000 0.000000
# 3 -0.000946 -0.003493 0.007626 0.000000 0.000000 0.000000
# 4 0.000000 0.000000 0.000000 0.017399 0.000000 0.000000
# 5 0.000000 0.000000 0.000000 0.000000 0.040343 0.000000
# 6 0.000000 0.000000 0.000000 0.000000 0.000000 0.035996
#
#
# Mechanical properties :
#
#
# Convention : Reuss Voigt Hill
#
# Bulk Modulus (GPa) = 31.27781 38.78679 35.03230
# Shear Modulus (GPa) = 31.23724 36.77542 34.00633
#
# Velocity S-wave (km/s) = 3.49063 3.78744 3.64206
# Velocity P-wave (km/s) = 5.33350 5.85283 5.59919
#
# Compressibility (1/GPa) = 0.03197155
#
# Stress axis : x y z
#
# Youngs Moduli (GPa) = 68.09614 46.49142 131.12529
#
# Poissons Ratio (x) = 0.06908 0.12405
# Poissons Ratio (y) = 0.10118 0.45799
# Poissons Ratio (z) = 0.06442 0.16238
#
# Static dielectric constant tensor:
#      x y z
#    x 2.025470 0.000000 0.000000 
#    y 0.000000 2.120550 0.000000 
#    z 0.000000 0.000000 2.100050 
# 
# From -- ./inp_files/39202.got.cif
#   From: 2010.05.17/outbox.cif.g08.bks.cpg/sg64_20_cif.got.tgz:39202.got - 2010.06.03 16:29:19.
