data_PCOD9478658
_publ_section_title
;
Structure prediction by ZEFSAII (Michael W. Deem and Ramdas Pophale) SiO2 
 PCOD9478658
Probable space group: C M C A
;
_chemical_formula_sum "Si O2"
_cell_formula_units_Z 96
_cell_length_a 15.372669
_cell_length_b 14.831526
_cell_length_c 23.267624
_cell_angle_alpha 90.000000
_cell_angle_beta 90.000000
_cell_angle_gamma 90.000000
_cell_volume 5305.021529
_symmetry_space_group_name_H-M "C M C A"
_symmetry_group_IT_number 64
_symmetry_cell_setting 'orthorhombic'
loop_
_space_group_symop_operation_xyz
x,y,z
-x,1/2-y,1/2+z
x,-y,-z
-x,1/2+y,1/2-z
-x,-y,-z
x,1/2+y,1/2-z
-x,y,z
x,1/2-y,1/2+z
1/2+x,1/2+y,z
1/2-x,-y,1/2+z
1/2+x,1/2-y,-z
1/2-x,y,1/2-z
1/2-x,1/2-y,-z
1/2+x,y,1/2-z
1/2-x,1/2+y,z
1/2+x,-y,1/2+z
loop_
_atom_site_type_symbol
_atom_site_label
_atom_site_fract_x
_atom_site_fract_y
_atom_site_fract_z
Si Si1 0.000000 0.428799 0.123097
Si Si2 0.500000 0.197166 0.991644
Si Si3 0.308793 0.420914 0.889776
Si Si4 0.695307 0.658348 0.491554
Si Si5 0.000000 0.630039 0.415835
Si Si6 0.500000 0.257080 0.302701
Si Si7 0.189599 0.423318 0.118540
Si Si8 0.314806 0.755399 0.698047
O O1 0.000000 0.359944 0.176410
O O2 0.095294 0.472974 0.124240
O O3 0.000000 0.367364 0.065084
O O4 0.500000 0.300460 0.969165
O O5 0.407012 0.177670 0.021272
O O6 0.245171 0.395644 0.942337
O O7 0.408998 0.423255 0.911466
O O8 0.270023 0.513458 0.865529
O O9 0.301751 0.341422 0.842962
O O10 0.750000 0.750000 0.500000
O O11 0.698070 0.607147 0.552408
O O12 0.000000 0.696439 0.360540
O O13 0.410004 0.236876 0.273397
O O14 0.186994 0.332709 0.156966
O O15 0.250000 0.748370 0.750000
#
# Coordination Sequence:
#
# PCOD9478658 Si02
#       8
#     8   8  16  16   8   8  16  16
#     4   7  14  31  53  74 101 139 180 211 256 314
#     4   9  16  29  54  77 107 145 177 217 261 317
#     4  11  21  35  58  81 108 142 183 222 267 321
#     4  11  18  34  56  80 110 141 179 219 266 317
#     4   9  16  32  52  76 104 147 185 205 254 333
#     4   7  14  32  56  76  93 138 182 217 252 319
#     4  10  20  35  57  81 108 139 179 224 267 318
#     4  10  20  37  59  79 105 139 182 222 270 317
#
# _framework density 18.096062
#
# number of rings (size 3 to 8) (size 9 to 14) (size 15 to 20)
#    0.000    2.333    3.333    2.500    0.000    1.333 
#    0.000    7.500    0.000    6.000    0.000    0.000 
#    0.000    0.000    0.000    0.000    0.000    0.000 
#
# Total GULP energy -267305.712995 kJ/mol
# GULP energy per Si atom -5568.869021 kJ/mol
# Density = 1.805487 g / cm^3
# Si number density = 18.096062 Si / 1000 Ang^3
#
#
#
# Elastic Constant Matrix: (Units=GPa)
#
#
# Indices 1 2 3 4 5 6 
#
# 1 165.7584 32.9878 25.8281 0.0000 0.0000 0.0000
# 2 32.9878 61.5844 -6.0224 0.0000 0.0000 0.0000
# 3 25.8281 -6.0224 39.6835 0.0000 0.0000 0.0000
# 4 0.0000 0.0000 0.0000 -5.5384 0.0000 0.0000
# 5 0.0000 0.0000 0.0000 0.0000 29.1740 0.0000
# 6 0.0000 0.0000 0.0000 0.0000 0.0000 28.3842
#
#
#
# Elastic Compliance Matrix: (Units=1/GPa)
#
#
# Indices 1 2 3 4 5 6 
#
# 1 0.007905 -0.004809 -0.005875 0.000000 0.000000 0.000000
# 2 -0.004809 0.019408 0.006075 0.000000 0.000000 0.000000
# 3 -0.005875 0.006075 0.029945 0.000000 0.000000 0.000000
# 4 0.000000 0.000000 0.000000 -0.180558 0.000000 0.000000
# 5 0.000000 0.000000 0.000000 0.000000 0.034277 0.000000
# 6 0.000000 0.000000 0.000000 0.000000 0.000000 0.035231
#
#
# Mechanical properties :
#
#
# Convention : Reuss Voigt Hill
#
# Bulk Modulus (GPa) = 20.81553 41.40149 31.10851
# Shear Modulus (GPa) = -175.07053 24.68614 -75.19220
#
# Velocity S-wave (km/s) = -9.84658 3.69748 -6.45305
# Velocity P-wave (km/s) = 10.85107 6.41536 6.18825
#
# Compressibility (1/GPa) = 0.04804105
#
# Stress axis : x y z
#
# Youngs Moduli (GPa) = 126.49619 51.52518 33.39430
#
# Poissons Ratio (x) = 0.24779 0.19619
# Poissons Ratio (y) = 0.60833 -0.20288
# Poissons Ratio (z) = 0.74317 -0.31303
#
# Static dielectric constant tensor:
#      x y z
#    x 1.664970 0.000000 0.000000 
#    y 0.000000 1.656070 0.000000 
#    z 0.000000 0.000000 1.592010 
# 
# From -- ./inp_files/39288.got.cif
#   From: 2010.05.17/outbox.cif.g08.bks.cpg/sg64_20_cif.got.tgz:39288.got - 2010.06.03 16:29:19.
