data_PCOD9478557
_publ_section_title
;
Structure prediction by ZEFSAII (Michael W. Deem and Ramdas Pophale) SiO2 
 PCOD9478557
Probable space group: C M C A
;
_chemical_formula_sum "Si O2"
_cell_formula_units_Z 96
_cell_length_a 30.693651
_cell_length_b 13.724976
_cell_length_c 12.044441
_cell_angle_alpha 90.000000
_cell_angle_beta 90.000000
_cell_angle_gamma 90.000000
_cell_volume 5073.957123
_symmetry_space_group_name_H-M "C M C A"
_symmetry_group_IT_number 64
_symmetry_cell_setting 'orthorhombic'
loop_
_space_group_symop_operation_xyz
x,y,z
-x,1/2-y,1/2+z
x,-y,-z
-x,1/2+y,1/2-z
-x,-y,-z
x,1/2+y,1/2-z
-x,y,z
x,1/2-y,1/2+z
1/2+x,1/2+y,z
1/2-x,-y,1/2+z
1/2+x,1/2-y,-z
1/2-x,y,1/2-z
1/2-x,1/2-y,-z
1/2+x,y,1/2-z
1/2-x,1/2+y,z
1/2+x,-y,1/2+z
loop_
_atom_site_type_symbol
_atom_site_label
_atom_site_fract_x
_atom_site_fract_y
_atom_site_fract_z
Si Si1 0.000000 0.100384 0.149109
Si Si2 0.929606 0.776516 0.714576
Si Si3 0.857389 0.130977 0.715694
Si Si4 0.379281 0.552357 0.390335
Si Si5 0.500000 0.371197 0.115883
Si Si6 0.277930 0.168176 0.637920
Si Si7 0.201340 0.364063 0.996462
O O1 0.040992 0.155088 0.206383
O O2 0.000000 0.982309 0.163617
O O3 0.000000 0.119405 0.017289
O O4 0.891457 0.717506 0.774370
O O5 0.905068 0.849772 0.631467
O O6 0.959275 0.694465 0.656171
O O7 0.823097 0.126534 0.816274
O O8 0.830889 0.149205 0.601396
O O9 0.881402 0.027450 0.705702
O O10 0.396973 0.500000 0.500000
O O11 0.327642 0.571718 0.412661
O O12 0.250000 0.188817 0.750000
O O13 0.246860 0.106473 0.555247
O O14 0.288815 0.266227 0.571313
#
# Coordination Sequence:
#
# PCOD9478557 Si02
#       7
#     8  16  16  16   8  16  16
#     4  10  24  42  61  93 125 157 198 246 306 380
#     4  11  22  40  65  90 123 161 199 249 314 364
#     4  10  20  34  61  87 120 158 203 250 299 356
#     4  10  21  36  58  93 118 157 202 259 292 361
#     4  10  24  44  63  89 123 163 192 248 310 380
#     4   9  17  33  57  81 115 163 198 243 301 355
#     4   9  18  34  55  84 119 154 201 246 299 349
#
# _framework density 18.920142999999999
#
# number of rings (size 3 to 8) (size 9 to 14) (size 15 to 20)
#    0.000    2.167    1.667    1.000    4.667    0.000 
#    0.000    6.667    3.667    0.000    0.000    0.000 
#    0.000    0.000    0.000    0.000    0.000    0.000 
#
# Total GULP energy -267324.756844 kJ/mol
# GULP energy per Si atom -5569.265768 kJ/mol
# Density = 1.887708 g / cm^3
# Si number density = 18.920143 Si / 1000 Ang^3
#
#
#
# Elastic Constant Matrix: (Units=GPa)
#
#
# Indices 1 2 3 4 5 6 
#
# 1 96.1501 65.2417 30.5457 0.0000 0.0000 0.0000
# 2 65.2417 144.1874 50.4339 0.0000 0.0000 0.0000
# 3 30.5457 50.4339 60.4917 0.0000 0.0000 0.0000
# 4 0.0000 0.0000 0.0000 36.4610 0.0000 0.0000
# 5 0.0000 0.0000 0.0000 0.0000 13.1856 0.0000
# 6 0.0000 0.0000 0.0000 0.0000 0.0000 -11.3148
#
#
#
# Elastic Compliance Matrix: (Units=1/GPa)
#
#
# Indices 1 2 3 4 5 6 
#
# 1 0.015329 -0.005969 -0.002764 0.000000 0.000000 0.000000
# 2 -0.005969 0.012115 -0.007087 0.000000 0.000000 0.000000
# 3 -0.002764 -0.007087 0.023835 0.000000 0.000000 0.000000
# 4 0.000000 0.000000 0.000000 0.027427 0.000000 0.000000
# 5 0.000000 0.000000 0.000000 0.000000 0.075840 0.000000
# 6 0.000000 0.000000 0.000000 0.000000 0.000000 -0.088380
#
#
# Mechanical properties :
#
#
# Convention : Reuss Voigt Hill
#
# Bulk Modulus (GPa) = 50.91640 65.91909 58.41775
# Shear Modulus (GPa) = 47.91511 17.97356 32.94434
#
# Velocity S-wave (km/s) = 5.03785 3.08550 4.17733
# Velocity P-wave (km/s) = 7.79804 6.90001 7.36273
#
# Compressibility (1/GPa) = 0.01964004
#
# Stress axis : x y z
#
# Youngs Moduli (GPa) = 65.23682 82.54153 41.95522
#
# Poissons Ratio (x) = 0.49271 0.11595
# Poissons Ratio (y) = 0.38942 0.29732
# Poissons Ratio (z) = 0.18029 0.58493
#
# Static dielectric constant tensor:
#      x y z
#    x 1.690990 0.000000 0.000000 
#    y 0.000000 1.665560 0.000000 
#    z 0.000000 0.000000 1.653440 
# 
# From -- ./inp_files/19807.got.cif
#   From: 2010.05.17/outbox.cif.g08.bks.cpg/sg64_10_cif.got.tgz:19807.got - 2010.06.03 16:29:19.
