data_PCOD9478396
_publ_section_title
;
Structure prediction by ZEFSAII (Michael W. Deem and Ramdas Pophale) SiO2 
 PCOD9478396
Probable space group: C M C A
;
_chemical_formula_sum "Si O2"
_cell_formula_units_Z 96
_cell_length_a 24.268567
_cell_length_b 24.843430
_cell_length_c 8.269787
_cell_angle_alpha 90.000000
_cell_angle_beta 90.000000
_cell_angle_gamma 90.000000
_cell_volume 4985.974043
_symmetry_space_group_name_H-M "C M C A"
_symmetry_group_IT_number 64
_symmetry_cell_setting 'orthorhombic'
loop_
_space_group_symop_operation_xyz
x,y,z
-x,1/2-y,1/2+z
x,-y,-z
-x,1/2+y,1/2-z
-x,-y,-z
x,1/2+y,1/2-z
-x,y,z
x,1/2-y,1/2+z
1/2+x,1/2+y,z
1/2-x,-y,1/2+z
1/2+x,1/2-y,-z
1/2-x,y,1/2-z
1/2-x,1/2-y,-z
1/2+x,y,1/2-z
1/2-x,1/2+y,z
1/2+x,-y,1/2+z
loop_
_atom_site_type_symbol
_atom_site_label
_atom_site_fract_x
_atom_site_fract_y
_atom_site_fract_z
Si Si1 0.904066 0.898212 0.655670
Si Si2 0.188413 0.169816 0.206175
Si Si3 0.809772 0.215327 0.839664
Si Si4 0.589727 0.346521 0.318807
Si Si5 0.000000 0.822702 0.770755
Si Si6 0.500000 0.911642 0.377025
Si Si7 0.500000 0.233528 0.965977
Si Si8 0.000000 0.533591 0.268406
O O1 0.850335 0.881416 0.757299
O O2 0.895909 0.886562 0.466760
O O3 0.946699 0.853989 0.721746
O O4 0.942278 0.950540 0.682052
O O5 0.250000 0.153608 0.250000
O O6 0.174212 0.221400 0.321185
O O7 0.189696 0.194689 0.024899
O O8 0.750000 0.210167 0.750000
O O9 0.855750 0.179904 0.751764
O O10 0.553174 0.378850 0.187335
O O11 0.552278 0.299062 0.396919
O O12 0.000000 0.770969 0.657783
O O13 0.000000 0.797121 0.942757
O O14 0.500000 0.929810 0.565688
O O15 0.500000 0.970414 0.295304
#
# Coordination Sequence:
#
# PCOD9478396 Si02
#       8
#    16  16  16  16   8   8   8   8
#     4  10  20  34  51  74 103 136 174 214 260 311
#     4  11  21  34  52  76 108 145 182 217 255 303
#     4  11  21  34  52  76 108 145 182 217 255 303
#     4  10  20  34  51  74 103 136 174 214 260 311
#     4   9  18  28  42  66  97 130 162 200 245 298
#     4  10  21  37  57  81 106 134 171 216 267 319
#     4   9  18  28  42  66  97 130 162 200 245 298
#     4  10  21  37  57  81 106 134 171 216 267 319
#
# _framework density 19.254013
#
# number of rings (size 3 to 8) (size 9 to 14) (size 15 to 20)
#    0.000    1.833    0.000    7.500    0.000    8.000 
#    0.000    0.000    0.000    1.000    0.000    0.000 
#    0.000    0.000    0.000    0.000    0.000    0.000 
#
# Total GULP energy -267657.762483 kJ/mol
# GULP energy per Si atom -5576.203385 kJ/mol
# Density = 1.921019 g / cm^3
# Si number density = 19.254013 Si / 1000 Ang^3
#
#
#
# Elastic Constant Matrix: (Units=GPa)
#
#
# Indices 1 2 3 4 5 6 
#
# 1 111.1771 29.8824 31.9895 0.0000 0.0000 0.0000
# 2 29.8824 38.6802 12.2042 0.0000 0.0000 0.0000
# 3 31.9895 12.2042 68.6246 0.0000 0.0000 0.0000
# 4 0.0000 0.0000 0.0000 25.5424 0.0000 0.0000
# 5 0.0000 0.0000 0.0000 0.0000 24.0887 0.0000
# 6 0.0000 0.0000 0.0000 0.0000 0.0000 5.6922
#
#
#
# Elastic Compliance Matrix: (Units=1/GPa)
#
#
# Indices 1 2 3 4 5 6 
#
# 1 0.012464 -0.008259 -0.004341 0.000000 0.000000 0.000000
# 2 -0.008259 0.032863 -0.001994 0.000000 0.000000 0.000000
# 3 -0.004341 -0.001994 0.016950 0.000000 0.000000 0.000000
# 4 0.000000 0.000000 0.000000 0.039151 0.000000 0.000000
# 5 0.000000 0.000000 0.000000 0.000000 0.041513 0.000000
# 6 0.000000 0.000000 0.000000 0.000000 0.000000 0.175679
#
#
# Mechanical properties :
#
#
# Convention : Reuss Voigt Hill
#
# Bulk Modulus (GPa) = 30.22275 40.73713 35.47994
# Shear Modulus (GPa) = 13.93388 20.69172 17.31280
#
# Velocity S-wave (km/s) = 2.69306 3.28177 3.00188
# Velocity P-wave (km/s) = 5.03994 5.96353 5.52109
#
# Compressibility (1/GPa) = 0.03308765
#
# Stress axis : x y z
#
# Youngs Moduli (GPa) = 80.23330 30.42949 58.99583
#
# Poissons Ratio (x) = 0.25132 0.25611
# Poissons Ratio (y) = 0.66265 0.11766
# Poissons Ratio (z) = 0.34831 0.06069
#
# Static dielectric constant tensor:
#      x y z
#    x 1.651740 0.000000 0.000000 
#    y 0.000000 1.704670 0.000000 
#    z 0.000000 0.000000 1.741600 
# 
# From -- ./inp_files/9579.got.cif
#   From: 2010.05.17/outbox.cif.g08.bks.cpg/sg64_5_cif.got.tgz:9579.got - 2010.06.03 16:29:19.
