data_PCOD9478159
_publ_section_title
;
Structure prediction by ZEFSAII (Michael W. Deem and Ramdas Pophale) SiO2 
 PCOD9478159
Probable space group: C M C A
;
_chemical_formula_sum "Si O2"
_cell_formula_units_Z 64
_cell_length_a 10.130301
_cell_length_b 16.915915
_cell_length_c 19.042876
_cell_angle_alpha 90.000000
_cell_angle_beta 90.000000
_cell_angle_gamma 90.000000
_cell_volume 3263.250275
_symmetry_space_group_name_H-M "C M C A"
_symmetry_group_IT_number 64
_symmetry_cell_setting 'orthorhombic'
loop_
_space_group_symop_operation_xyz
x,y,z
-x,1/2-y,1/2+z
x,-y,-z
-x,1/2+y,1/2-z
-x,-y,-z
x,1/2+y,1/2-z
-x,y,z
x,1/2-y,1/2+z
1/2+x,1/2+y,z
1/2-x,-y,1/2+z
1/2+x,1/2-y,-z
1/2-x,y,1/2-z
1/2-x,1/2-y,-z
1/2+x,y,1/2-z
1/2-x,1/2+y,z
1/2+x,-y,1/2+z
loop_
_atom_site_type_symbol
_atom_site_label
_atom_site_fract_x
_atom_site_fract_y
_atom_site_fract_z
Si Si1 0.000000 0.662023 0.906808
Si Si2 0.205240 0.939514 0.320093
Si Si3 0.000000 0.105284 0.436681
Si Si4 0.500000 0.422900 0.715863
Si Si5 0.203818 0.540995 0.429817
Si Si6 0.000000 0.156182 0.131488
O O1 0.122477 0.614705 0.872812
O O2 0.000000 0.750593 0.878700
O O3 0.000000 0.656751 0.991893
O O4 0.250000 0.895595 0.250000
O O5 0.121028 0.015198 0.292122
O O6 0.317316 0.979044 0.366940
O O7 0.861252 0.057450 0.439317
O O8 0.000000 0.132186 0.354516
O O9 0.500000 0.374034 0.787680
O O10 0.155742 0.500000 0.500000
O O11 0.127120 0.619161 0.407664
#
# Coordination Sequence:
#
# PCOD9478159 Si02
#       6
#     8  16   8   8  16   8
#     4  11  24  42  62  96 132 167 207 272 325 386
#     4  10  19  39  66  87 120 166 221 255 308 383
#     4  10  21  40  68  90 123 171 225 253 312 389
#     4   9  20  36  64  91 117 169 218 262 304 386
#     4  11  21  40  68  93 121 171 225 261 304 388
#     4  12  25  40  60  99 141 157 209 277 337 356
#
# _framework density 19.612348999999998
#
# number of rings (size 3 to 8) (size 9 to 14) (size 15 to 20)
#    0.000    1.500    5.000    1.500    0.000    1.000 
#    9.000    0.000    0.000    0.000    0.000    0.000 
#    0.000    0.000    0.000    0.000    0.000    0.000 
#
# Total GULP energy -178238.009359 kJ/mol
# GULP energy per Si atom -5569.937792 kJ/mol
# Density = 1.956771 g / cm^3
# Si number density = 19.612349 Si / 1000 Ang^3
#
#
#
# Elastic Constant Matrix: (Units=GPa)
#
#
# Indices 1 2 3 4 5 6 
#
# 1 65.4904 19.0095 23.0245 0.0000 0.0000 0.0000
# 2 19.0095 114.9856 56.9661 0.0000 0.0000 0.0000
# 3 23.0245 56.9661 183.8074 0.0000 0.0000 0.0000
# 4 0.0000 0.0000 0.0000 22.3600 0.0000 0.0000
# 5 0.0000 0.0000 0.0000 0.0000 25.8183 0.0000
# 6 0.0000 0.0000 0.0000 0.0000 0.0000 12.4204
#
#
#
# Elastic Compliance Matrix: (Units=1/GPa)
#
#
# Indices 1 2 3 4 5 6 
#
# 1 0.016351 -0.001995 -0.001430 0.000000 0.000000 0.000000
# 2 -0.001995 0.010518 -0.003010 0.000000 0.000000 0.000000
# 3 -0.001430 -0.003010 0.006552 0.000000 0.000000 0.000000
# 4 0.000000 0.000000 0.000000 0.044723 0.000000 0.000000
# 5 0.000000 0.000000 0.000000 0.000000 0.038732 0.000000
# 6 0.000000 0.000000 0.000000 0.000000 0.000000 0.080513
#
#
# Mechanical properties :
#
#
# Convention : Reuss Voigt Hill
#
# Bulk Modulus (GPa) = 48.65672 62.47595 55.56633
# Shear Modulus (GPa) = 23.02992 29.80528 26.41760
#
# Velocity S-wave (km/s) = 3.43046 3.90259 3.67412
# Velocity P-wave (km/s) = 6.36819 7.22714 6.81122
#
# Compressibility (1/GPa) = 0.02055215
#
# Stress axis : x y z
#
# Youngs Moduli (GPa) = 61.15778 95.07855 152.61571
#
# Poissons Ratio (x) = 0.18966 0.21824
# Poissons Ratio (y) = 0.12199 0.45934
# Poissons Ratio (z) = 0.08746 0.28617
#
# Static dielectric constant tensor:
#      x y z
#    x 1.750880 0.000000 0.000000 
#    y 0.000000 1.627650 0.000000 
#    z 0.000000 0.000000 1.757380 
# 
# From -- ./inp_files/30498.got.cif
#   From: 2010.05.17/outbox.cif.g08.bks.cpg/sg64_16_cif.got.tgz:30498.got - 2010.06.03 16:29:19.
