data_PCOD9478512
_publ_section_title
;
Structure prediction by ZEFSAII (Michael W. Deem and Ramdas Pophale) SiO2 
 PCOD9478512
Probable space group: C M C A
;
_chemical_formula_sum "Si O2"
_cell_formula_units_Z 96
_cell_length_a 17.717644
_cell_length_b 15.148368
_cell_length_c 19.277258
_cell_angle_alpha 90.000000
_cell_angle_beta 90.000000
_cell_angle_gamma 90.000000
_cell_volume 5173.888652
_symmetry_space_group_name_H-M "C M C A"
_symmetry_group_IT_number 64
_symmetry_cell_setting 'orthorhombic'
loop_
_space_group_symop_operation_xyz
x,y,z
-x,1/2-y,1/2+z
x,-y,-z
-x,1/2+y,1/2-z
-x,-y,-z
x,1/2+y,1/2-z
-x,y,z
x,1/2-y,1/2+z
1/2+x,1/2+y,z
1/2-x,-y,1/2+z
1/2+x,1/2-y,-z
1/2-x,y,1/2-z
1/2-x,1/2-y,-z
1/2+x,y,1/2-z
1/2-x,1/2+y,z
1/2+x,-y,1/2+z
loop_
_atom_site_type_symbol
_atom_site_label
_atom_site_fract_x
_atom_site_fract_y
_atom_site_fract_z
Si Si1 0.304947 0.175045 0.929021
Si Si2 0.838208 0.795176 0.730270
Si Si3 0.589488 0.368771 0.301672
Si Si4 0.290748 0.346797 0.583997
Si Si5 0.910107 0.967549 0.794331
Si Si6 0.191254 0.517751 0.578756
O O1 0.366575 0.147886 0.873027
O O2 0.277595 0.275448 0.919184
O O3 0.231777 0.112491 0.917936
O O4 0.329129 0.160130 0.008633
O O5 0.750000 0.785286 0.750000
O O6 0.880937 0.705758 0.748811
O O7 0.840888 0.820865 0.649492
O O8 0.873378 0.874336 0.774881
O O9 0.500000 0.360961 0.311018
O O10 0.606448 0.463356 0.267507
O O11 0.255383 0.443556 0.592666
O O12 0.000000 0.959435 0.801501
O O13 0.872478 0.004784 0.864102
O O14 0.164633 0.500000 0.500000
#
# Coordination Sequence:
#
# PCOD9478512 Si02
#       6
#    16  16  16  16  16  16
#     4  10  20  36  58  82 115 145 191 240 273 341
#     4  12  21  36  63  87 112 154 193 238 282 336
#     4  11  24  39  57  86 120 154 189 235 292 344
#     4  10  20  34  56  90 108 141 198 234 279 324
#     4  11  24  38  56  86 121 152 188 237 289 345
#     4  10  20  35  58  85 113 148 192 237 281 339
#
# _framework density 18.55471
#
# number of rings (size 3 to 8) (size 9 to 14) (size 15 to 20)
#    0.000    1.333    3.333    2.500    0.000    0.333 
#    0.000    1.667    0.000   14.500    0.000    0.000 
#    0.000    0.000    0.000    0.000    0.000    0.000 
#
# Total GULP energy -268222.610985 kJ/mol
# GULP energy per Si atom -5587.971062 kJ/mol
# Density = 1.851248 g / cm^3
# Si number density = 18.554710 Si / 1000 Ang^3
#
#
#
# Elastic Constant Matrix: (Units=GPa)
#
#
# Indices 1 2 3 4 5 6 
#
# 1 35.4852 -1.5154 21.9080 0.0000 0.0000 0.0000
# 2 -1.5154 53.1105 -24.2967 0.0000 0.0000 0.0000
# 3 21.9080 -24.2967 93.3690 0.0000 0.0000 0.0000
# 4 0.0000 0.0000 0.0000 24.5522 0.0000 0.0000
# 5 0.0000 0.0000 0.0000 0.0000 20.6439 0.0000
# 6 0.0000 0.0000 0.0000 0.0000 0.0000 21.1998
#
#
#
# Elastic Compliance Matrix: (Units=1/GPa)
#
#
# Indices 1 2 3 4 5 6 
#
# 1 0.033366 -0.002985 -0.008606 0.000000 0.000000 0.000000
# 2 -0.002985 0.021640 0.006332 0.000000 0.000000 0.000000
# 3 -0.008606 0.006332 0.014377 0.000000 0.000000 0.000000
# 4 0.000000 0.000000 0.000000 0.040730 0.000000 0.000000
# 5 0.000000 0.000000 0.000000 0.000000 0.048440 0.000000
# 6 0.000000 0.000000 0.000000 0.000000 0.000000 0.047170
#
#
# Mechanical properties :
#
#
# Convention : Reuss Voigt Hill
#
# Bulk Modulus (GPa) = 16.98791 19.35071 18.16931
# Shear Modulus (GPa) = 21.19867 25.67042 23.43455
#
# Velocity S-wave (km/s) = 3.38375 3.72358 3.55772
# Velocity P-wave (km/s) = 4.94386 5.37944 5.16624
#
# Compressibility (1/GPa) = 0.05886539
#
# Stress axis : x y z
#
# Youngs Moduli (GPa) = 29.97024 46.21058 69.55511
#
# Poissons Ratio (x) = 0.13793 0.59858
# Poissons Ratio (y) = 0.08946 -0.44040
# Poissons Ratio (z) = 0.25792 -0.29259
#
# Static dielectric constant tensor:
#      x y z
#    x 1.589120 0.000000 0.000000 
#    y 0.000000 1.630950 0.000000 
#    z 0.000000 0.000000 1.662010 
# 
# From -- ./inp_files/39230.got.cif
#   From: 2010.05.17/outbox.cif.g08.bks.cpg/sg64_20_cif.got.tgz:39230.got - 2010.06.03 16:29:19.
