data_PCOD9478172
_publ_section_title
;
Structure prediction by ZEFSAII (Michael W. Deem and Ramdas Pophale) SiO2 
 PCOD9478172
Probable space group: C M C A
;
_chemical_formula_sum "Si O2"
_cell_formula_units_Z 104
_cell_length_a 19.057226
_cell_length_b 9.027680
_cell_length_c 26.846284
_cell_angle_alpha 90.000000
_cell_angle_beta 90.000000
_cell_angle_gamma 90.000000
_cell_volume 4618.702836
_symmetry_space_group_name_H-M "C M C A"
_symmetry_group_IT_number 64
_symmetry_cell_setting 'orthorhombic'
loop_
_space_group_symop_operation_xyz
x,y,z
-x,1/2-y,1/2+z
x,-y,-z
-x,1/2+y,1/2-z
-x,-y,-z
x,1/2+y,1/2-z
-x,y,z
x,1/2-y,1/2+z
1/2+x,1/2+y,z
1/2-x,-y,1/2+z
1/2+x,1/2-y,-z
1/2-x,y,1/2-z
1/2-x,1/2-y,-z
1/2+x,y,1/2-z
1/2-x,1/2+y,z
1/2+x,-y,1/2+z
loop_
_atom_site_type_symbol
_atom_site_label
_atom_site_fract_x
_atom_site_fract_y
_atom_site_fract_z
Si Si1 0.887038 0.618763 0.180997
Si Si2 0.654467 0.056988 0.363273
Si Si3 0.730714 0.238804 0.617184
Si Si4 0.500000 0.380490 0.590091
Si Si5 0.917788 0.073562 0.767673
Si Si6 0.357595 0.345646 0.523769
Si Si7 0.075854 0.378375 0.543039
O O1 0.813568 0.671570 0.158698
O O2 0.939491 0.606641 0.134588
O O3 0.886752 0.472577 0.214514
O O4 0.910563 0.755470 0.216487
O O5 0.689985 0.215050 0.372133
O O6 0.621627 0.020554 0.310313
O O7 0.595623 0.041986 0.405809
O O8 0.712394 0.932523 0.375597
O O9 0.697932 0.287985 0.564300
O O10 0.435548 0.359495 0.548740
O O11 0.000000 0.036100 0.767197
O O12 0.335328 0.500000 0.500000
O O13 0.367369 0.234157 0.477760
O O14 0.070906 0.500000 0.500000
O O15 0.000000 0.303822 0.550120
#
# Coordination Sequence:
#
# PCOD9478172 Si02
#       7
#    16  16  16   8  16  16  16
#     4  10  22  40  68  93 129 167 209 268 321 393
#     4  11  25  43  64  94 131 172 221 267 319 391
#     4  10  25  44  63  90 130 181 214 263 328 380
#     4  10  19  40  63  90 131 166 206 251 332 371
#     4  11  21  41  67  99 127 164 212 268 332 377
#     4  11  23  40  63  93 130 171 216 266 321 387
#     4  11  23  40  66  96 126 168 218 270 327 378
#
# _framework density 22.517144999999999
#
# number of rings (size 3 to 8) (size 9 to 14) (size 15 to 20)
#    0.000    1.385    3.846    0.692    2.154    3.077 
#    2.769    3.077    0.000    0.000    0.000    0.000 
#    0.000    0.000    0.000    0.000    0.000    0.000 
#
# Total GULP energy -289719.270013 kJ/mol
# GULP energy per Si atom -5571.524423 kJ/mol
# Density = 2.246590 g / cm^3
# Si number density = 22.517145 Si / 1000 Ang^3
#
#
#
# Elastic Constant Matrix: (Units=GPa)
#
#
# Indices 1 2 3 4 5 6 
#
# 1 31.1929 -2.3968 5.5184 0.0000 0.0000 0.0000
# 2 -2.3968 44.2169 16.4314 0.0000 0.0000 0.0000
# 3 5.5184 16.4314 84.4492 0.0000 0.0000 0.0000
# 4 0.0000 0.0000 0.0000 26.4054 0.0000 0.0000
# 5 0.0000 0.0000 0.0000 0.0000 12.3032 0.0000
# 6 0.0000 0.0000 0.0000 0.0000 0.0000 27.7569
#
#
#
# Elastic Compliance Matrix: (Units=1/GPa)
#
#
# Indices 1 2 3 4 5 6 
#
# 1 0.032745 0.002770 -0.002679 0.000000 0.000000 0.000000
# 2 0.002770 0.024613 -0.004970 0.000000 0.000000 0.000000
# 3 -0.002679 -0.004970 0.012984 0.000000 0.000000 0.000000
# 4 0.000000 0.000000 0.000000 0.037871 0.000000 0.000000
# 5 0.000000 0.000000 0.000000 0.000000 0.081279 0.000000
# 6 0.000000 0.000000 0.000000 0.000000 0.000000 0.036027
#
#
# Mechanical properties :
#
#
# Convention : Reuss Voigt Hill
#
# Bulk Modulus (GPa) = 16.50574 22.10722 19.30648
# Shear Modulus (GPa) = 19.57171 22.64686 21.10929
#
# Velocity S-wave (km/s) = 2.95140 3.17481 3.06515
# Velocity P-wave (km/s) = 4.35438 4.82478 4.59560
#
# Compressibility (1/GPa) = 0.06058499
#
# Stress axis : x y z
#
# Youngs Moduli (GPa) = 30.53871 40.62921 77.02082
#
# Poissons Ratio (x) = -0.11256 0.20632
# Poissons Ratio (y) = -0.08461 0.38279
# Poissons Ratio (z) = 0.08181 0.20193
#
# Static dielectric constant tensor:
#      x y z
#    x 1.833530 0.000000 0.000000 
#    y 0.000000 1.827930 0.000000 
#    z 0.000000 0.000000 1.776310 
# 
# From -- ./inp_files/50744.got.cif
#   From: 2010.05.17/outbox.cif.g08.bks.cpg/sg64_26_cif.got.tgz:50744.got - 2010.06.03 16:29:19.
