data_PCOD9478206
_publ_section_title
;
Structure prediction by ZEFSAII (Michael W. Deem and Ramdas Pophale) SiO2 
 PCOD9478206
Probable space group: C M C A
;
_chemical_formula_sum "Si O2"
_cell_formula_units_Z 80
_cell_length_a 10.469392
_cell_length_b 18.373047
_cell_length_c 18.671312
_cell_angle_alpha 90.000000
_cell_angle_beta 90.000000
_cell_angle_gamma 90.000000
_cell_volume 3591.513335
_symmetry_space_group_name_H-M "C M C A"
_symmetry_group_IT_number 64
_symmetry_cell_setting 'orthorhombic'
loop_
_space_group_symop_operation_xyz
x,y,z
-x,1/2-y,1/2+z
x,-y,-z
-x,1/2+y,1/2-z
-x,-y,-z
x,1/2+y,1/2-z
-x,y,z
x,1/2-y,1/2+z
1/2+x,1/2+y,z
1/2-x,-y,1/2+z
1/2+x,1/2-y,-z
1/2-x,y,1/2-z
1/2-x,1/2-y,-z
1/2+x,y,1/2-z
1/2-x,1/2+y,z
1/2+x,-y,1/2+z
loop_
_atom_site_type_symbol
_atom_site_label
_atom_site_fract_x
_atom_site_fract_y
_atom_site_fract_z
Si Si1 0.647729 0.055140 0.890537
Si Si2 0.000000 0.394874 0.745921
Si Si3 0.750000 0.498095 0.750000
Si Si4 0.500000 0.248197 0.831303
Si Si5 0.352707 0.105551 0.042189
Si Si6 0.751248 0.255605 0.914448
Si Si7 0.000000 0.252678 0.329280
O O1 0.500000 0.074593 0.873728
O O2 0.731805 0.048587 0.819904
O O3 0.642911 0.973345 0.922817
O O4 0.694597 0.099857 0.959866
O O5 0.124739 0.446030 0.746677
O O6 0.000000 0.336189 0.681519
O O7 0.000000 0.335356 0.811198
O O8 0.625809 0.229583 0.874860
O O9 0.500000 0.216066 0.751201
O O10 0.500000 0.132793 0.036524
O O11 0.267335 0.156805 0.090984
O O12 0.875782 0.226604 0.874151
O O13 0.750000 0.250000 0.000000
#
# Coordination Sequence:
#
# PCOD9478206 Si02
#       7
#    16   8   8   8  16  16   8
#     4   9  18  32  55  82 112 147 186 234 277 355
#     4  10  20  30  56  80 118 144 184 248 300 332
#     4  12  18  30  52  88 112 148 188 232 296 352
#     4  10  23  35  55  89 116 139 190 252 305 334
#     4   9  18  35  56  80 112 149 191 229 286 342
#     4  12  22  37  61  86 116 156 200 243 289 352
#     4  10  21  39  57  83 116 149 194 248 293 346
#
# _framework density 22.274733999999999
#
# number of rings (size 3 to 8) (size 9 to 14) (size 15 to 20)
#    0.600    1.200    2.000    6.000    0.000    0.000 
#    0.000    1.000    4.400    3.600    0.000    0.000 
#    0.000    0.000    0.000    0.000    0.000    0.000 
#
# Total GULP energy -223366.136346 kJ/mol
# GULP energy per Si atom -5584.153409 kJ/mol
# Density = 2.222404 g / cm^3
# Si number density = 22.274734 Si / 1000 Ang^3
#
#
#
# Elastic Constant Matrix: (Units=GPa)
#
#
# Indices 1 2 3 4 5 6 
#
# 1 165.9655 7.9125 86.0631 0.0000 0.0000 0.0000
# 2 7.9125 35.0254 2.4060 0.0000 0.0000 0.0000
# 3 86.0631 2.4060 193.8431 0.0000 0.0000 0.0000
# 4 0.0000 0.0000 0.0000 43.5682 0.0000 0.0000
# 5 0.0000 0.0000 0.0000 0.0000 45.9142 0.0000
# 6 0.0000 0.0000 0.0000 0.0000 0.0000 17.1702
#
#
#
# Elastic Compliance Matrix: (Units=1/GPa)
#
#
# Indices 1 2 3 4 5 6 
#
# 1 0.007910 -0.001547 -0.003493 0.000000 0.000000 0.000000
# 2 -0.001547 0.028878 0.000328 0.000000 0.000000 0.000000
# 3 -0.003493 0.000328 0.006706 0.000000 0.000000 0.000000
# 4 0.000000 0.000000 0.000000 0.022953 0.000000 0.000000
# 5 0.000000 0.000000 0.000000 0.000000 0.021780 0.000000
# 6 0.000000 0.000000 0.000000 0.000000 0.000000 0.058240
#
#
# Mechanical properties :
#
#
# Convention : Reuss Voigt Hill
#
# Bulk Modulus (GPa) = 29.35091 65.28858 47.31975
# Shear Modulus (GPa) = 29.89610 41.22735 35.56172
#
# Velocity S-wave (km/s) = 3.66751 4.30683 3.99996
# Velocity P-wave (km/s) = 5.58029 7.35567 6.52861
#
# Compressibility (1/GPa) = 0.03407049
#
# Stress axis : x y z
#
# Youngs Moduli (GPa) = 126.41631 34.62891 149.13101
#
# Poissons Ratio (x) = 0.05357 0.52090
# Poissons Ratio (y) = 0.19558 -0.04898
# Poissons Ratio (z) = 0.44156 -0.01137
#
# Static dielectric constant tensor:
#      x y z
#    x 1.777540 0.000000 0.000000 
#    y 0.000000 1.908640 0.000000 
#    z 0.000000 0.000000 1.842390 
# 
# From -- ./inp_files/29889.got.cif
#   From: 2010.05.17/outbox.cif.g08.bks.cpg/sg64_15_cif.got.tgz:29889.got - 2010.06.03 16:29:19.
