data_PCOD9478791
_publ_section_title
;
Structure prediction by ZEFSAII (Michael W. Deem and Ramdas Pophale) SiO2 
 PCOD9478791
Probable space group: C M C A
;
_chemical_formula_sum "Si O2"
_cell_formula_units_Z 56
_cell_length_a 34.974433
_cell_length_b 4.895400
_cell_length_c 13.268660
_cell_angle_alpha 90.000000
_cell_angle_beta 90.000000
_cell_angle_gamma 90.000000
_cell_volume 2271.778221
_symmetry_space_group_name_H-M "C M C A"
_symmetry_group_IT_number 64
_symmetry_cell_setting 'orthorhombic'
loop_
_space_group_symop_operation_xyz
x,y,z
-x,1/2-y,1/2+z
x,-y,-z
-x,1/2+y,1/2-z
-x,-y,-z
x,1/2+y,1/2-z
-x,y,z
x,1/2-y,1/2+z
1/2+x,1/2+y,z
1/2-x,-y,1/2+z
1/2+x,1/2-y,-z
1/2-x,y,1/2-z
1/2-x,1/2-y,-z
1/2+x,y,1/2-z
1/2-x,1/2+y,z
1/2+x,-y,1/2+z
loop_
_atom_site_type_symbol
_atom_site_label
_atom_site_fract_x
_atom_site_fract_y
_atom_site_fract_z
Si Si1 0.654323 0.757778 0.568850
Si Si2 0.773185 0.505998 0.877465
Si Si3 0.000000 0.152835 0.179321
Si Si4 0.581259 0.515168 0.181256
O O1 0.642716 0.500000 0.500000
O O2 0.685793 0.637412 0.646181
O O3 0.617745 0.895193 0.618767
O O4 0.672022 0.000000 0.500000
O O5 0.738254 0.702949 0.847926
O O6 0.774625 0.500000 0.000000
O O7 0.959484 0.083004 0.129658
O O8 0.000000 0.460567 0.220119
O O9 0.582321 0.204266 0.218022
#
# Coordination Sequence:
#
# PCOD9478791 Si02
#       4
#    16  16   8  16
#     4  11  21  33  52  80 107 130 167 217 260 295
#     4   9  16  28  47  70  96 130 170 206 241 292
#     4   8  16  32  54  74  94 132 178 204 230 300
#     4  10  20  36  56  76 102 137 173 206 249 306
#
# _framework density 24.650293000000001
#
# number of rings (size 3 to 8) (size 9 to 14) (size 15 to 20)
#    0.000    2.286    0.000    6.000    0.000    0.000 
#    0.000    1.429    0.000    5.143    0.000    0.000 
#    0.000    0.000    0.000    0.000    0.000    0.000 
#
# Total GULP energy -156526.532695 kJ/mol
# GULP energy per Si atom -5590.233311 kJ/mol
# Density = 2.459419 g / cm^3
# Si number density = 24.650293 Si / 1000 Ang^3
#
#
#
# Elastic Constant Matrix: (Units=GPa)
#
#
# Indices 1 2 3 4 5 6 
#
# 1 153.7973 -7.4459 18.8043 0.0000 0.0000 0.0000
# 2 -7.4459 96.7581 -5.9497 0.0000 0.0000 0.0000
# 3 18.8043 -5.9497 45.7928 0.0000 0.0000 0.0000
# 4 0.0000 0.0000 0.0000 11.7140 0.0000 0.0000
# 5 0.0000 0.0000 0.0000 0.0000 22.0871 0.0000
# 6 0.0000 0.0000 0.0000 0.0000 0.0000 39.8456
#
#
#
# Elastic Compliance Matrix: (Units=1/GPa)
#
#
# Indices 1 2 3 4 5 6 
#
# 1 0.006858 0.000357 -0.002770 0.000000 0.000000 0.000000
# 2 0.000357 0.010437 0.001209 0.000000 0.000000 0.000000
# 3 -0.002770 0.001209 0.023132 0.000000 0.000000 0.000000
# 4 0.000000 0.000000 0.000000 0.085368 0.000000 0.000000
# 5 0.000000 0.000000 0.000000 0.000000 0.045275 0.000000
# 6 0.000000 0.000000 0.000000 0.000000 0.000000 0.025097
#
#
# Mechanical properties :
#
#
# Convention : Reuss Voigt Hill
#
# Bulk Modulus (GPa) = 26.30137 34.12951 30.21544
# Shear Modulus (GPa) = 23.66899 34.12530 28.89715
#
# Velocity S-wave (km/s) = 3.10206 3.72476 3.42758
# Velocity P-wave (km/s) = 4.85008 5.68981 5.28665
#
# Compressibility (1/GPa) = 0.03802084
#
# Stress axis : x y z
#
# Youngs Moduli (GPa) = 145.81475 95.81378 43.23021
#
# Poissons Ratio (x) = -0.03425 0.11974
# Poissons Ratio (y) = -0.05212 -0.05228
# Poissons Ratio (z) = 0.40387 -0.11586
#
# Static dielectric constant tensor:
#      x y z
#    x 2.031740 0.000000 0.000000 
#    y 0.000000 1.892440 0.000000 
#    z 0.000000 0.000000 2.023610 
# 
# From -- ./inp_files/28201.got.cif
#   From: 2010.05.17/outbox.cif.g08.bks.cpg/sg64_15_cif.got.tgz:28201.got - 2010.06.03 16:29:19.
