data_PCOD9478401
_publ_section_title
;
Structure prediction by ZEFSAII (Michael W. Deem and Ramdas Pophale) SiO2 
 PCOD9478401
Probable space group: C M C A
;
_chemical_formula_sum "Si O2"
_cell_formula_units_Z 56
_cell_length_a 23.447990
_cell_length_b 12.621978
_cell_length_c 8.073389
_cell_angle_alpha 90.000000
_cell_angle_beta 90.000000
_cell_angle_gamma 90.000000
_cell_volume 2389.400321
_symmetry_space_group_name_H-M "C M C A"
_symmetry_group_IT_number 64
_symmetry_cell_setting 'orthorhombic'
loop_
_space_group_symop_operation_xyz
x,y,z
-x,1/2-y,1/2+z
x,-y,-z
-x,1/2+y,1/2-z
-x,-y,-z
x,1/2+y,1/2-z
-x,y,z
x,1/2-y,1/2+z
1/2+x,1/2+y,z
1/2-x,-y,1/2+z
1/2+x,1/2-y,-z
1/2-x,y,1/2-z
1/2-x,1/2-y,-z
1/2+x,y,1/2-z
1/2-x,1/2+y,z
1/2+x,-y,1/2+z
loop_
_atom_site_type_symbol
_atom_site_label
_atom_site_fract_x
_atom_site_fract_y
_atom_site_fract_z
Si Si1 0.339153 0.201331 0.031329
Si Si2 0.936091 0.061407 0.323627
Si Si3 0.250000 0.581408 0.250000
Si Si4 0.152641 0.084694 0.821219
O O1 0.343025 0.327432 0.037683
O O2 0.393030 0.156783 0.135962
O O3 0.282770 0.155177 0.119100
O O4 0.341086 0.151833 0.849267
O O5 0.905768 0.980837 0.197005
O O6 0.000000 0.092724 0.275275
O O7 0.938930 0.000000 0.500000
O O8 0.202690 0.500904 0.319760
#
# Coordination Sequence:
#
# PCOD9478401 Si02
#       4
#    16  16   8  16
#     4  10  21  35  54  80 106 137 176 217 264 314
#     4   8  16  34  56  76 103 139 176 213 256 311
#     4  10  20  34  52  72 102 138 178 214 250 304
#     4  10  21  35  54  80 106 137 176 217 264 314
#
# _framework density 23.436843
#
# number of rings (size 3 to 8) (size 9 to 14) (size 15 to 20)
#    0.000    2.571    0.000    3.429    0.000    8.000 
#    0.000    4.286    0.000    1.714    0.000    0.000 
#    0.000    0.000    0.000    0.000    0.000    0.000 
#
# Total GULP energy -156817.406907 kJ/mol
# GULP energy per Si atom -5600.621675 kJ/mol
# Density = 2.338350 g / cm^3
# Si number density = 23.436843 Si / 1000 Ang^3
#
#
#
# Elastic Constant Matrix: (Units=GPa)
#
#
# Indices 1 2 3 4 5 6 
#
# 1 169.1000 54.2835 27.6690 0.0000 0.0000 0.0000
# 2 54.2835 141.7275 40.6899 0.0000 0.0000 0.0000
# 3 27.6690 40.6899 93.0230 0.0000 0.0000 0.0000
# 4 0.0000 0.0000 0.0000 48.0949 0.0000 0.0000
# 5 0.0000 0.0000 0.0000 0.0000 14.2290 0.0000
# 6 0.0000 0.0000 0.0000 0.0000 0.0000 10.1111
#
#
#
# Elastic Compliance Matrix: (Units=1/GPa)
#
#
# Indices 1 2 3 4 5 6 
#
# 1 0.006825 -0.002323 -0.001014 0.000000 0.000000 0.000000
# 2 -0.002323 0.008860 -0.003184 0.000000 0.000000 0.000000
# 3 -0.001014 -0.003184 0.012445 0.000000 0.000000 0.000000
# 4 0.000000 0.000000 0.000000 0.020792 0.000000 0.000000
# 5 0.000000 0.000000 0.000000 0.000000 0.070279 0.000000
# 6 0.000000 0.000000 0.000000 0.000000 0.000000 0.098901
#
#
# Mechanical properties :
#
#
# Convention : Reuss Voigt Hill
#
# Bulk Modulus (GPa) = 66.28366 72.12612 69.20489
# Shear Modulus (GPa) = 21.17088 33.23422 27.20255
#
# Velocity S-wave (km/s) = 3.00878 3.76976 3.41056
# Velocity P-wave (km/s) = 6.35717 7.05618 6.71577
#
# Compressibility (1/GPa) = 0.01508668
#
# Stress axis : x y z
#
# Youngs Moduli (GPa) = 146.51349 112.86918 80.35632
#
# Poissons Ratio (x) = 0.26220 0.08148
# Poissons Ratio (y) = 0.34036 0.25589
# Poissons Ratio (z) = 0.14856 0.35943
#
# Static dielectric constant tensor:
#      x y z
#    x 1.867530 0.000000 0.000000 
#    y 0.000000 1.827180 0.000000 
#    z 0.000000 0.000000 1.951510 
# 
# From -- ./inp_files/7638.got.cif
#   From: 2010.05.17/outbox.cif.g08.bks.cpg/sg64_4_cif.got.tgz:7638.got - 2010.06.03 16:29:19.
