data_PCOD9478110
_publ_section_title
;
Structure prediction by ZEFSAII (Michael W. Deem and Ramdas Pophale) SiO2 
 PCOD9478110
Probable space group: C M C A
;
_chemical_formula_sum "Si O2"
_cell_formula_units_Z 120
_cell_length_a 13.682463
_cell_length_b 13.836933
_cell_length_c 28.954828
_cell_angle_alpha 90.000000
_cell_angle_beta 90.000000
_cell_angle_gamma 90.000000
_cell_volume 5481.824277
_symmetry_space_group_name_H-M "C M C A"
_symmetry_group_IT_number 64
_symmetry_cell_setting 'orthorhombic'
loop_
_space_group_symop_operation_xyz
x,y,z
-x,1/2-y,1/2+z
x,-y,-z
-x,1/2+y,1/2-z
-x,-y,-z
x,1/2+y,1/2-z
-x,y,z
x,1/2-y,1/2+z
1/2+x,1/2+y,z
1/2-x,-y,1/2+z
1/2+x,1/2-y,-z
1/2-x,y,1/2-z
1/2-x,1/2-y,-z
1/2+x,y,1/2-z
1/2-x,1/2+y,z
1/2+x,-y,1/2+z
loop_
_atom_site_type_symbol
_atom_site_label
_atom_site_fract_x
_atom_site_fract_y
_atom_site_fract_z
Si Si1 0.616079 0.340024 0.734615
Si Si2 0.889235 0.890805 0.933587
Si Si3 0.384071 0.992596 0.180749
Si Si4 0.300493 0.694158 0.541896
Si Si5 0.736669 0.000000 0.000000
Si Si6 0.254081 0.646601 0.638756
Si Si7 0.117106 0.668365 0.334391
Si Si8 0.884400 0.884356 0.222524
O O1 0.500000 0.352304 0.732221
O O2 0.649745 0.398196 0.690004
O O3 0.643227 0.378530 0.785146
O O4 0.634972 0.227578 0.734812
O O5 0.879073 0.774210 0.941947
O O6 0.872251 0.899442 0.878696
O O7 0.000000 0.920680 0.944880
O O8 0.809316 0.949262 0.962686
O O9 0.500000 0.984429 0.174482
O O10 0.331258 0.940564 0.139264
O O11 0.359283 0.941424 0.230271
O O12 0.250000 0.750000 0.500000
O O13 0.324413 0.587437 0.522887
O O14 0.230453 0.675893 0.586397
O O15 0.315383 0.737601 0.659030
O O16 0.171620 0.609820 0.673938
O O17 0.000000 0.695372 0.332201
O O18 0.000000 0.900745 0.215246
#
# Coordination Sequence:
#
# PCOD9478110 Si02
#       8
#    16  16  16  16   8  16  16  16
#     4   9  18  34  53  75 111 152 180 223 277 322
#     4   9  18  34  60  89 111 145 196 243 291 350
#     4  10  20  35  55  82 115 148 188 232 277 333
#     4   9  21  40  59  84 116 147 187 244 302 350
#     4  10  19  38  59  80 114 152 182 242 305 352
#     4  11  20  36  57  85 107 151 195 229 282 347
#     4   9  17  32  56  82 111 146 188 236 279 327
#     4  10  21  38  53  76 118 153 183 230 280 328
#
# _framework density 21.890523999999999
#
# number of rings (size 3 to 8) (size 9 to 14) (size 15 to 20)
#    0.000    2.400    1.333    1.000    0.000    1.600 
#   12.000    5.000    0.000    0.000    0.000    0.000 
#    0.000    0.000    0.000    0.000    0.000    0.000 
#
# Total GULP energy -334593.210574 kJ/mol
# GULP energy per Si atom -5576.553510 kJ/mol
# Density = 2.184070 g / cm^3
# Si number density = 21.890524 Si / 1000 Ang^3
#
#
#
# Elastic Constant Matrix: (Units=GPa)
#
#
# Indices 1 2 3 4 5 6 
#
# 1 58.8470 -4.3379 3.7603 0.0000 0.0000 0.0000
# 2 -4.3379 69.6965 7.8471 0.0000 0.0000 0.0000
# 3 3.7603 7.8471 83.4645 0.0000 0.0000 0.0000
# 4 0.0000 0.0000 0.0000 38.6085 0.0000 0.0000
# 5 0.0000 0.0000 0.0000 0.0000 13.5604 0.0000
# 6 0.0000 0.0000 0.0000 0.0000 0.0000 11.7751
#
#
#
# Elastic Compliance Matrix: (Units=1/GPa)
#
#
# Indices 1 2 3 4 5 6 
#
# 1 0.017135 0.001166 -0.000882 0.000000 0.000000 0.000000
# 2 0.001166 0.014581 -0.001423 0.000000 0.000000 0.000000
# 3 -0.000882 -0.001423 0.012155 0.000000 0.000000 0.000000
# 4 0.000000 0.000000 0.000000 0.025901 0.000000 0.000000
# 5 0.000000 0.000000 0.000000 0.000000 0.073744 0.000000
# 6 0.000000 0.000000 0.000000 0.000000 0.000000 0.084925
#
#
# Mechanical properties :
#
#
# Convention : Reuss Voigt Hill
#
# Bulk Modulus (GPa) = 24.04279 25.17190 24.60735
# Shear Modulus (GPa) = 20.44293 26.43804 23.44049
#
# Velocity S-wave (km/s) = 3.05925 3.47902 3.27587
# Velocity P-wave (km/s) = 4.84620 5.25948 5.05706
#
# Compressibility (1/GPa) = 0.04159250
#
# Stress axis : x y z
#
# Youngs Moduli (GPa) = 58.35840 68.58369 82.27288
#
# Poissons Ratio (x) = -0.07995 0.07253
# Poissons Ratio (y) = -0.06803 0.11710
# Poissons Ratio (z) = 0.05145 0.09762
#
# Static dielectric constant tensor:
#      x y z
#    x 1.817470 0.000000 0.000000 
#    y 0.000000 1.882020 0.000000 
#    z 0.000000 0.000000 1.832130 
# 
# From -- ./inp_files/53432.got.cif
#   From: 2010.05.17/outbox.cif.g08.bks.cpg/sg64_27_cif.got.tgz:53432.got - 2010.06.03 16:29:19.
