data_PCOD9478430
_publ_section_title
;
Structure prediction by ZEFSAII (Michael W. Deem and Ramdas Pophale) SiO2 
 PCOD9478430
Probable space group: C M C A
;
_chemical_formula_sum "Si O2"
_cell_formula_units_Z 96
_cell_length_a 7.868269
_cell_length_b 19.690929
_cell_length_c 24.660862
_cell_angle_alpha 90.000000
_cell_angle_beta 90.000000
_cell_angle_gamma 90.000000
_cell_volume 3820.794310
_symmetry_space_group_name_H-M "C M C A"
_symmetry_group_IT_number 64
_symmetry_cell_setting 'orthorhombic'
loop_
_space_group_symop_operation_xyz
x,y,z
-x,1/2-y,1/2+z
x,-y,-z
-x,1/2+y,1/2-z
-x,-y,-z
x,1/2+y,1/2-z
-x,y,z
x,1/2-y,1/2+z
1/2+x,1/2+y,z
1/2-x,-y,1/2+z
1/2+x,1/2-y,-z
1/2-x,y,1/2-z
1/2-x,1/2-y,-z
1/2+x,y,1/2-z
1/2-x,1/2+y,z
1/2+x,-y,1/2+z
loop_
_atom_site_type_symbol
_atom_site_label
_atom_site_fract_x
_atom_site_fract_y
_atom_site_fract_z
Si Si1 0.798525 0.435794 0.691818
Si Si2 0.297227 0.511766 0.079486
Si Si3 0.800995 0.712475 0.157568
Si Si4 0.190200 0.649649 0.809511
Si Si5 0.697961 0.634005 0.570820
Si Si6 0.295363 0.836300 0.957290
O O1 0.750000 0.462935 0.750000
O O2 0.748831 0.484592 0.642984
O O3 0.716068 0.362335 0.682438
O O4 0.000000 0.426010 0.688087
O O5 0.500000 0.503388 0.073078
O O6 0.209407 0.445719 0.055604
O O7 0.248594 0.585900 0.058227
O O8 0.697097 0.768181 0.190095
O O9 0.737200 0.706720 0.095005
O O10 0.000000 0.730877 0.158217
O O11 0.250000 0.627380 0.750000
O O12 0.277574 0.637753 0.868755
O O13 0.000000 0.623343 0.814639
O O14 0.500000 0.653700 0.575267
O O15 0.772626 0.673549 0.518540
O O16 0.500000 0.830407 0.958633
#
# Coordination Sequence:
#
# PCOD9478430 Si02
#       6
#    16  16  16  16  16  16
#     4  10  20  34  53  79 110 143 183 230 278 326
#     4  10  21  35  54  83 115 146 182 227 276 324
#     4  10  20  36  59  84 110 141 179 225 277 329
#     4  11  24  41  59  80 110 148 188 227 271 323
#     4  10  22  39  58  80 110 149 186 222 268 325
#     4   9  19  37  60  85 112 143 180 222 273 330
#
# _framework density 25.125665999999999
#
# number of rings (size 3 to 8) (size 9 to 14) (size 15 to 20)
#    0.000    2.000    0.000    3.000    0.000    8.000 
#    0.000    3.333    0.000    0.000    0.000    0.000 
#    0.000    0.000    0.000    0.000    0.000    0.000 
#
# Total GULP energy -268287.935017 kJ/mol
# GULP energy per Si atom -5589.331980 kJ/mol
# Density = 2.506848 g / cm^3
# Si number density = 25.125666 Si / 1000 Ang^3
#
#
#
# Elastic Constant Matrix: (Units=GPa)
#
#
# Indices 1 2 3 4 5 6 
#
# 1 59.2880 2.0475 3.9794 0.0000 0.0000 0.0000
# 2 2.0475 60.5333 2.7903 0.0000 0.0000 0.0000
# 3 3.9794 2.7903 204.6725 0.0000 0.0000 0.0000
# 4 0.0000 0.0000 0.0000 24.1700 0.0000 0.0000
# 5 0.0000 0.0000 0.0000 0.0000 15.4143 0.0000
# 6 0.0000 0.0000 0.0000 0.0000 0.0000 11.3273
#
#
#
# Elastic Compliance Matrix: (Units=1/GPa)
#
#
# Indices 1 2 3 4 5 6 
#
# 1 0.016908 -0.000557 -0.000321 0.000000 0.000000 0.000000
# 2 -0.000557 0.016549 -0.000215 0.000000 0.000000 0.000000
# 3 -0.000321 -0.000215 0.004895 0.000000 0.000000 0.000000
# 4 0.000000 0.000000 0.000000 0.041374 0.000000 0.000000
# 5 0.000000 0.000000 0.000000 0.000000 0.064875 0.000000
# 6 0.000000 0.000000 0.000000 0.000000 0.000000 0.088282
#
#
# Mechanical properties :
#
#
# Convention : Reuss Voigt Hill
#
# Bulk Modulus (GPa) = 27.65086 38.01424 32.83255
# Shear Modulus (GPa) = 20.23285 31.22743 25.73014
#
# Velocity S-wave (km/s) = 2.84080 3.52923 3.20356
# Velocity P-wave (km/s) = 4.66788 5.63647 5.17489
#
# Compressibility (1/GPa) = 0.03616524
#
# Stress axis : x y z
#
# Youngs Moduli (GPa) = 59.14492 60.42816 204.28903
#
# Poissons Ratio (x) = 0.03366 0.06561
# Poissons Ratio (y) = 0.03295 0.04388
# Poissons Ratio (z) = 0.01899 0.01298
#
# Static dielectric constant tensor:
#      x y z
#    x 1.905450 0.000000 0.000000 
#    y 0.000000 1.959960 0.000000 
#    z 0.000000 0.000000 2.139120 
# 
# From -- ./inp_files/42984.got.cif
#   From: 2010.05.17/outbox.cif.g08.bks.cpg/sg64_22_cif.got.tgz:42984.got - 2010.06.03 16:29:19.
