data_PCOD9478425
_publ_section_title
;
Structure prediction by ZEFSAII (Michael W. Deem and Ramdas Pophale) SiO2 
 PCOD9478425
Probable space group: C M C A
;
_chemical_formula_sum "Si O2"
_cell_formula_units_Z 80
_cell_length_a 9.144280
_cell_length_b 26.504351
_cell_length_c 18.363096
_cell_angle_alpha 90.000000
_cell_angle_beta 90.000000
_cell_angle_gamma 90.000000
_cell_volume 4450.538833
_symmetry_space_group_name_H-M "C M C A"
_symmetry_group_IT_number 64
_symmetry_cell_setting 'orthorhombic'
loop_
_space_group_symop_operation_xyz
x,y,z
-x,1/2-y,1/2+z
x,-y,-z
-x,1/2+y,1/2-z
-x,-y,-z
x,1/2+y,1/2-z
-x,y,z
x,1/2-y,1/2+z
1/2+x,1/2+y,z
1/2-x,-y,1/2+z
1/2+x,1/2-y,-z
1/2-x,y,1/2-z
1/2-x,1/2-y,-z
1/2+x,y,1/2-z
1/2-x,1/2+y,z
1/2+x,-y,1/2+z
loop_
_atom_site_type_symbol
_atom_site_label
_atom_site_fract_x
_atom_site_fract_y
_atom_site_fract_z
Si Si1 0.667445 0.198778 0.088039
Si Si2 0.167736 0.201821 0.589499
Si Si3 0.828096 0.401666 0.575489
Si Si4 0.672994 0.498805 0.172437
Si Si5 0.176263 0.089048 0.580298
O O1 0.500000 0.191964 0.110555
O O2 0.732355 0.251964 0.114066
O O3 0.764065 0.150307 0.107562
O O4 0.669980 0.200966 0.999254
O O5 0.211790 0.145129 0.610876
O O6 0.000000 0.210836 0.611434
O O7 0.811017 0.448665 0.629207
O O8 0.740608 0.413095 0.501254
O O9 0.000000 0.395217 0.558571
O O10 0.500000 0.488368 0.179833
O O11 0.750000 0.502579 0.250000
O O12 0.750482 0.454555 0.127086
O O13 0.000000 0.084672 0.578088
#
# Coordination Sequence:
#
# PCOD9478425 Si02
#       5
#    16  16  16  16  16
#     4   9  16  26  45  74 104 135 169 207 253 302
#     4   8  15  27  44  71 105 136 165 202 251 303
#     4  10  20  34  53  78 107 138 173 214 259 308
#     4  11  24  39  55  75 102 138 176 216 263 311
#     4  10  20  34  55  81 107 137 173 214 258 306
#
# _framework density 17.975352000000001
#
# number of rings (size 3 to 8) (size 9 to 14) (size 15 to 20)
#    0.000    2.400    0.000    4.200    0.000   11.200 
#    0.000    0.000    0.000    1.200    0.000    5.600 
#    0.000    0.000    0.000    0.000    0.000    0.000 
#
# Total GULP energy -223135.341774 kJ/mol
# GULP energy per Si atom -5578.383544 kJ/mol
# Density = 1.793444 g / cm^3
# Si number density = 17.975352 Si / 1000 Ang^3
#
#
#
# Elastic Constant Matrix: (Units=GPa)
#
#
# Indices 1 2 3 4 5 6 
#
# 1 136.7992 107.3481 47.4379 0.0000 0.0000 0.0000
# 2 107.3481 155.5965 45.0374 0.0000 0.0000 0.0000
# 3 47.4379 45.0374 45.3864 0.0000 0.0000 0.0000
# 4 0.0000 0.0000 0.0000 -6.6825 0.0000 0.0000
# 5 0.0000 0.0000 0.0000 0.0000 19.8215 0.0000
# 6 0.0000 0.0000 0.0000 0.0000 0.0000 36.7888
#
#
#
# Elastic Compliance Matrix: (Units=1/GPa)
#
#
# Indices 1 2 3 4 5 6 
#
# 1 0.018363 -0.009980 -0.009290 0.000000 0.000000 0.000000
# 2 -0.009980 0.014440 -0.003899 0.000000 0.000000 0.000000
# 3 -0.009290 -0.003899 0.035611 0.000000 0.000000 0.000000
# 4 0.000000 0.000000 0.000000 -0.149645 0.000000 0.000000
# 5 0.000000 0.000000 0.000000 0.000000 0.050450 0.000000
# 6 0.000000 0.000000 0.000000 0.000000 0.000000 0.027182
#
#
# Mechanical properties :
#
#
# Convention : Reuss Voigt Hill
#
# Bulk Modulus (GPa) = 45.29328 81.93657 63.61492
# Shear Modulus (GPa) = 99.80533 19.18279 59.49406
#
# Velocity S-wave (km/s) = 7.45949 3.27030 5.75929
# Velocity P-wave (km/s) = 9.97217 7.74219 8.92708
#
# Compressibility (1/GPa) = 0.02207833
#
# Stress axis : x y z
#
# Youngs Moduli (GPa) = 54.45872 69.24986 28.08107
#
# Poissons Ratio (x) = 0.69109 0.26086
# Poissons Ratio (y) = 0.54348 0.10948
# Poissons Ratio (z) = 0.50590 0.26998
#
# Static dielectric constant tensor:
#      x y z
#    x 1.604410 0.000000 0.000000 
#    y 0.000000 1.624810 0.000000 
#    z 0.000000 0.000000 1.584060 
# 
# From -- ./inp_files/29716.got.cif
#   From: 2010.05.17/outbox.cif.g08.bks.cpg/sg64_15_cif.got.tgz:29716.got - 2010.06.03 16:29:19.
