data_PCOD9478639
_publ_section_title
;
Structure prediction by ZEFSAII (Michael W. Deem and Ramdas Pophale) SiO2 
 PCOD9478639
Probable space group: C M C A
;
_chemical_formula_sum "Si O2"
_cell_formula_units_Z 112
_cell_length_a 11.538871
_cell_length_b 14.160971
_cell_length_c 31.539996
_cell_angle_alpha 90.000000
_cell_angle_beta 90.000000
_cell_angle_gamma 90.000000
_cell_volume 5153.686366
_symmetry_space_group_name_H-M "C M C A"
_symmetry_group_IT_number 64
_symmetry_cell_setting 'orthorhombic'
loop_
_space_group_symop_operation_xyz
x,y,z
-x,1/2-y,1/2+z
x,-y,-z
-x,1/2+y,1/2-z
-x,-y,-z
x,1/2+y,1/2-z
-x,y,z
x,1/2-y,1/2+z
1/2+x,1/2+y,z
1/2-x,-y,1/2+z
1/2+x,1/2-y,-z
1/2-x,y,1/2-z
1/2-x,1/2-y,-z
1/2+x,y,1/2-z
1/2-x,1/2+y,z
1/2+x,-y,1/2+z
loop_
_atom_site_type_symbol
_atom_site_label
_atom_site_fract_x
_atom_site_fract_y
_atom_site_fract_z
Si Si1 0.864997 0.395384 0.088614
Si Si2 0.865823 0.139727 0.778158
Si Si3 0.294939 0.894385 0.494629
Si Si4 0.867617 0.936299 0.652097
Si Si5 0.126426 0.434737 0.752287
Si Si6 0.787561 0.759207 0.136909
Si Si7 0.621767 0.712693 0.452536
O O1 0.793624 0.397410 0.045205
O O2 0.839469 0.487047 0.117090
O O3 0.826648 0.308694 0.118701
O O4 0.000000 0.391321 0.079222
O O5 0.750000 0.163659 0.750000
O O6 0.842325 0.182912 0.824448
O O7 0.000000 0.166493 0.764848
O O8 0.868416 0.025452 0.777946
O O9 0.372808 0.804178 0.482978
O O10 0.223371 0.859048 0.535442
O O11 0.343686 0.000000 0.500000
O O12 0.873185 0.975424 0.699688
O O13 0.780491 0.848928 0.651375
O O14 0.000000 0.901748 0.644026
O O15 0.250000 0.381593 0.750000
O O16 0.000000 0.387030 0.746796
O O17 0.865214 0.752485 0.094594
O O18 0.500000 0.662119 0.457898
#
# Coordination Sequence:
#
# PCOD9478639 Si02
#       7
#    16  16  16  16  16  16  16
#     4  10  21  37  59  86 118 157 200 249 301 353
#     4  10  20  35  56  82 113 151 193 240 297 359
#     4  10  21  36  57  86 118 155 199 246 295 349
#     4  10  20  36  58  82 110 148 193 239 292 355
#     4   9  18  33  52  75 107 144 184 233 288 348
#     4  11  22  37  60  86 116 153 197 243 298 362
#     4  10  21  37  57  84 117 151 193 243 294 354
#
# _framework density 21.732018
#
# number of rings (size 3 to 8) (size 9 to 14) (size 15 to 20)
#    0.000    2.000    0.000    4.286    0.000    4.857 
#    0.000    0.714    0.000   10.286    0.000    0.000 
#    0.000    0.000    0.000    0.000    0.000    0.000 
#
# Total GULP energy -312124.734156 kJ/mol
# GULP energy per Si atom -5573.655967 kJ/mol
# Density = 2.168256 g / cm^3
# Si number density = 21.732018 Si / 1000 Ang^3
#
#
#
# Elastic Constant Matrix: (Units=GPa)
#
#
# Indices 1 2 3 4 5 6 
#
# 1 111.8521 -5.3093 15.8482 0.0000 0.0000 0.0000
# 2 -5.3093 71.9246 -3.1942 0.0000 0.0000 0.0000
# 3 15.8482 -3.1942 55.4806 0.0000 0.0000 0.0000
# 4 0.0000 0.0000 0.0000 27.8466 0.0000 0.0000
# 5 0.0000 0.0000 0.0000 0.0000 10.9196 0.0000
# 6 0.0000 0.0000 0.0000 0.0000 0.0000 5.6760
#
#
#
# Elastic Compliance Matrix: (Units=1/GPa)
#
#
# Indices 1 2 3 4 5 6 
#
# 1 0.009341 0.000572 -0.002635 0.000000 0.000000 0.000000
# 2 0.000572 0.013974 0.000641 0.000000 0.000000 0.000000
# 3 -0.002635 0.000641 0.018814 0.000000 0.000000 0.000000
# 4 0.000000 0.000000 0.000000 0.035911 0.000000 0.000000
# 5 0.000000 0.000000 0.000000 0.000000 0.091579 0.000000
# 6 0.000000 0.000000 0.000000 0.000000 0.000000 0.176181
#
#
# Mechanical properties :
#
#
# Convention : Reuss Voigt Hill
#
# Bulk Modulus (GPa) = 25.45467 28.21628 26.83548
# Shear Modulus (GPa) = 13.82213 24.34928 19.08571
#
# Velocity S-wave (km/s) = 2.52469 3.35092 2.96671
# Velocity P-wave (km/s) = 4.49857 5.28994 4.91023
#
# Compressibility (1/GPa) = 0.03928552
#
# Stress axis : x y z
#
# Youngs Moduli (GPa) = 107.05558 71.56056 53.15194
#
# Poissons Ratio (x) = -0.04097 0.14007
# Poissons Ratio (y) = -0.06129 -0.03407
# Poissons Ratio (z) = 0.28212 -0.04587
#
# Static dielectric constant tensor:
#      x y z
#    x 1.829530 0.000000 0.000000 
#    y 0.000000 1.803180 0.000000 
#    z 0.000000 0.000000 1.806180 
# 
# From -- ./inp_files/52844.got.cif
#   From: 2010.05.17/outbox.cif.g08.bks.cpg/sg64_27_cif.got.tgz:52844.got - 2010.06.03 16:29:19.
