data_PCOD9478531
_publ_section_title
;
Structure prediction by ZEFSAII (Michael W. Deem and Ramdas Pophale) SiO2 
 PCOD9478531
Probable space group: C M C A
;
_chemical_formula_sum "Si O2"
_cell_formula_units_Z 96
_cell_length_a 14.536406
_cell_length_b 22.545574
_cell_length_c 13.917687
_cell_angle_alpha 90.000000
_cell_angle_beta 90.000000
_cell_angle_gamma 90.000000
_cell_volume 4561.266068
_symmetry_space_group_name_H-M "C M C A"
_symmetry_group_IT_number 64
_symmetry_cell_setting 'orthorhombic'
loop_
_space_group_symop_operation_xyz
x,y,z
-x,1/2-y,1/2+z
x,-y,-z
-x,1/2+y,1/2-z
-x,-y,-z
x,1/2+y,1/2-z
-x,y,z
x,1/2-y,1/2+z
1/2+x,1/2+y,z
1/2-x,-y,1/2+z
1/2+x,1/2-y,-z
1/2-x,y,1/2-z
1/2-x,1/2-y,-z
1/2+x,y,1/2-z
1/2-x,1/2+y,z
1/2+x,-y,1/2+z
loop_
_atom_site_type_symbol
_atom_site_label
_atom_site_fract_x
_atom_site_fract_y
_atom_site_fract_z
Si Si1 0.144735 0.234020 0.220416
Si Si2 0.145365 0.130555 0.712922
Si Si3 0.896329 0.902987 0.086385
Si Si4 0.197865 0.433245 0.018249
Si Si5 0.390506 0.219877 0.491684
Si Si6 0.605845 0.336231 0.592015
O O1 0.250000 0.238944 0.250000
O O2 0.108101 0.301773 0.210532
O O3 0.137723 0.205519 0.115813
O O4 0.102398 0.192680 0.302329
O O5 0.250000 0.134686 0.750000
O O6 0.100418 0.092826 0.798419
O O7 0.149138 0.098512 0.610091
O O8 0.807496 0.934783 0.041700
O O9 0.000000 0.915639 0.048370
O O10 0.872832 0.833867 0.063432
O O11 0.166286 0.500000 0.000000
O O12 0.170113 0.392305 0.927835
O O13 0.500000 0.227845 0.492322
O O14 0.352764 0.282528 0.527448
O O15 0.500000 0.350468 0.564592
#
# Coordination Sequence:
#
# PCOD9478531 Si02
#       6
#    16  16  16  16  16  16
#     4  11  20  33  59  92 129 165 207 269 332 381
#     4   9  19  35  59  90 121 162 214 264 316 376
#     4  10  21  39  65  96 125 163 215 272 327 381
#     4  11  24  43  64  91 133 179 221 259 312 387
#     4  10  20  34  57  91 127 155 198 266 333 383
#     4  11  23  38  61  93 130 169 210 262 324 386
#
# _framework density 21.046787999999999
#
# number of rings (size 3 to 8) (size 9 to 14) (size 15 to 20)
#    0.000    1.667    3.333    1.500    0.000    3.333 
#    0.000    7.500    0.000    0.000    0.000    0.000 
#    0.000    0.000    0.000    0.000    0.000    0.000 
#
# Total GULP energy -267890.154617 kJ/mol
# GULP energy per Si atom -5581.044888 kJ/mol
# Density = 2.099888 g / cm^3
# Si number density = 21.046788 Si / 1000 Ang^3
#
#
#
# Elastic Constant Matrix: (Units=GPa)
#
#
# Indices 1 2 3 4 5 6 
#
# 1 65.6967 23.8890 17.1807 0.0000 0.0000 0.0000
# 2 23.8890 108.8068 47.9940 0.0000 0.0000 0.0000
# 3 17.1807 47.9940 104.4838 0.0000 0.0000 0.0000
# 4 0.0000 0.0000 0.0000 15.6655 0.0000 0.0000
# 5 0.0000 0.0000 0.0000 0.0000 23.0842 0.0000
# 6 0.0000 0.0000 0.0000 0.0000 0.0000 10.4535
#
#
#
# Elastic Compliance Matrix: (Units=1/GPa)
#
#
# Indices 1 2 3 4 5 6 
#
# 1 0.016688 -0.003077 -0.001331 0.000000 0.000000 0.000000
# 2 -0.003077 0.012093 -0.005049 0.000000 0.000000 0.000000
# 3 -0.001331 -0.005049 0.012109 0.000000 0.000000 0.000000
# 4 0.000000 0.000000 0.000000 0.063835 0.000000 0.000000
# 5 0.000000 0.000000 0.000000 0.000000 0.043320 0.000000
# 6 0.000000 0.000000 0.000000 0.000000 0.000000 0.095662
#
#
# Mechanical properties :
#
#
# Convention : Reuss Voigt Hill
#
# Bulk Modulus (GPa) = 45.50205 50.79052 48.14629
# Shear Modulus (GPa) = 18.52222 22.50219 20.51221
#
# Velocity S-wave (km/s) = 2.96978 3.27333 3.12525
# Velocity P-wave (km/s) = 5.78151 6.20249 5.99570
#
# Compressibility (1/GPa) = 0.02197703
#
# Stress axis : x y z
#
# Youngs Moduli (GPa) = 59.92196 82.69078 82.58392
#
# Poissons Ratio (x) = 0.25444 0.10990
# Poissons Ratio (y) = 0.18438 0.41696
# Poissons Ratio (z) = 0.07974 0.41750
#
# Static dielectric constant tensor:
#      x y z
#    x 1.801130 0.000000 0.000000 
#    y 0.000000 1.731160 0.000000 
#    z 0.000000 0.000000 3.058180 
# 
# From -- ./inp_files/23851.got.cif
#   From: 2010.05.17/outbox.cif.g08.bks.cpg/sg64_12_cif.got.tgz:23851.got - 2010.06.03 16:29:19.
