data_PCOD9478403
_publ_section_title
;
Structure prediction by ZEFSAII (Michael W. Deem and Ramdas Pophale) SiO2 
 PCOD9478403
Probable space group: C M C A
;
_chemical_formula_sum "Si O2"
_cell_formula_units_Z 96
_cell_length_a 8.905476
_cell_length_b 20.121223
_cell_length_c 31.096059
_cell_angle_alpha 90.000000
_cell_angle_beta 90.000000
_cell_angle_gamma 90.000000
_cell_volume 5572.073847
_symmetry_space_group_name_H-M "C M C A"
_symmetry_group_IT_number 64
_symmetry_cell_setting 'orthorhombic'
loop_
_space_group_symop_operation_xyz
x,y,z
-x,1/2-y,1/2+z
x,-y,-z
-x,1/2+y,1/2-z
-x,-y,-z
x,1/2+y,1/2-z
-x,y,z
x,1/2-y,1/2+z
1/2+x,1/2+y,z
1/2-x,-y,1/2+z
1/2+x,1/2-y,-z
1/2-x,y,1/2-z
1/2-x,1/2-y,-z
1/2+x,y,1/2-z
1/2-x,1/2+y,z
1/2+x,-y,1/2+z
loop_
_atom_site_type_symbol
_atom_site_label
_atom_site_fract_x
_atom_site_fract_y
_atom_site_fract_z
Si Si1 0.179310 0.544603 0.204194
Si Si2 0.820830 0.799435 0.465340
Si Si3 0.319731 0.056609 0.534376
Si Si4 0.819388 0.198780 0.295717
Si Si5 0.680777 0.796281 0.372549
Si Si6 0.321201 0.549031 0.866798
O O1 0.250000 0.525027 0.250000
O O2 0.222696 0.621783 0.196129
O O3 0.236707 0.497712 0.166347
O O4 0.000000 0.541404 0.207235
O O5 0.750000 0.750000 0.500000
O O6 0.763973 0.874393 0.474191
O O7 0.760935 0.782066 0.417640
O O8 0.000000 0.796318 0.466670
O O9 0.500000 0.068910 0.532853
O O10 0.284439 0.034681 0.583236
O O11 0.282895 0.000000 0.500000
O O12 0.750000 0.218802 0.250000
O O13 0.773609 0.246339 0.334763
O O14 0.000000 0.201967 0.292406
O O15 0.500000 0.791460 0.378860
O O16 0.713199 0.872840 0.360200
O O17 0.500000 0.540173 0.861151
#
# Coordination Sequence:
#
# PCOD9478403 Si02
#       6
#    16  16  16  16  16  16
#     4  10  20  34  52  74 102 134 170 211 255 306
#     4  11  22  36  55  79 108 142 180 220 263 313
#     4   9  19  37  58  80 108 140 174 215 265 317
#     4   9  19  35  54  76 103 135 171 214 260 307
#     4   9  19  37  56  76 104 136 173 217 264 310
#     4   9  18  33  53  76 104 135 166 207 256 306
#
# _framework density 17.228774000000001
#
# number of rings (size 3 to 8) (size 9 to 14) (size 15 to 20)
#    0.000    2.500    0.000    3.000    0.000    6.333 
#    0.000    5.000    0.000    0.000    0.000    0.000 
#    0.000    0.000    0.000    0.000    0.000    0.000 
#
# Total GULP energy -267838.435757 kJ/mol
# GULP energy per Si atom -5579.967412 kJ/mol
# Density = 1.718956 g / cm^3
# Si number density = 17.228774 Si / 1000 Ang^3
#
#
#
# Elastic Constant Matrix: (Units=GPa)
#
#
# Indices 1 2 3 4 5 6 
#
# 1 57.5219 60.0919 74.1517 0.0000 0.0000 0.0000
# 2 60.0919 105.6685 124.1068 0.0000 0.0000 0.0000
# 3 74.1517 124.1068 172.2923 0.0000 0.0000 0.0000
# 4 0.0000 0.0000 0.0000 41.0430 0.0000 0.0000
# 5 0.0000 0.0000 0.0000 0.0000 32.3841 0.0000
# 6 0.0000 0.0000 0.0000 0.0000 0.0000 25.5521
#
#
#
# Elastic Compliance Matrix: (Units=1/GPa)
#
#
# Indices 1 2 3 4 5 6 
#
# 1 0.043731 -0.017950 -0.005892 0.000000 0.000000 0.000000
# 2 -0.017950 0.068827 -0.041853 0.000000 0.000000 0.000000
# 3 -0.005892 -0.041853 0.038487 0.000000 0.000000 0.000000
# 4 0.000000 0.000000 0.000000 0.024365 0.000000 0.000000
# 5 0.000000 0.000000 0.000000 0.000000 0.030879 0.000000
# 6 0.000000 0.000000 0.000000 0.000000 0.000000 0.039136
#
#
# Mechanical properties :
#
#
# Convention : Reuss Voigt Hill
#
# Bulk Modulus (GPa) = 50.87078 94.68707 72.77892
# Shear Modulus (GPa) = 13.04242 24.93801 18.99022
#
# Velocity S-wave (km/s) = 2.75437 3.80868 3.32360
# Velocity P-wave (km/s) = 6.30128 8.62667 7.55399
#
# Compressibility (1/GPa) = 0.01965765
#
# Stress axis : x y z
#
# Youngs Moduli (GPa) = 22.86708 14.52925 25.98265
#
# Poissons Ratio (x) = 0.26079 0.15308
# Poissons Ratio (y) = 0.41045 1.08744
# Poissons Ratio (z) = 0.13472 0.60809
#
# Static dielectric constant tensor:
#      x y z
#    x 1.574530 0.000000 0.000000 
#    y 0.000000 1.568740 0.000000 
#    z 0.000000 0.000000 1.558310 
# 
# From -- ./inp_files/48060.got.cif
#   From: 2010.05.17/outbox.cif.g08.bks.cpg/sg64_25_cif.got.tgz:48060.got - 2010.06.03 16:29:19.
