data_PCOD9478496
_publ_section_title
;
Structure prediction by ZEFSAII (Michael W. Deem and Ramdas Pophale) SiO2 
 PCOD9478496
Probable space group: C M C A
;
_chemical_formula_sum "Si O2"
_cell_formula_units_Z 80
_cell_length_a 29.077391
_cell_length_b 14.372286
_cell_length_c 8.009035
_cell_angle_alpha 90.000000
_cell_angle_beta 90.000000
_cell_angle_gamma 90.000000
_cell_volume 3347.044441
_symmetry_space_group_name_H-M "C M C A"
_symmetry_group_IT_number 64
_symmetry_cell_setting 'orthorhombic'
loop_
_space_group_symop_operation_xyz
x,y,z
-x,1/2-y,1/2+z
x,-y,-z
-x,1/2+y,1/2-z
-x,-y,-z
x,1/2+y,1/2-z
-x,y,z
x,1/2-y,1/2+z
1/2+x,1/2+y,z
1/2-x,-y,1/2+z
1/2+x,1/2-y,-z
1/2-x,y,1/2-z
1/2-x,1/2-y,-z
1/2+x,y,1/2-z
1/2-x,1/2+y,z
1/2+x,-y,1/2+z
loop_
_atom_site_type_symbol
_atom_site_label
_atom_site_fract_x
_atom_site_fract_y
_atom_site_fract_z
Si Si1 0.893978 0.104646 0.488171
Si Si2 0.903987 0.102204 0.861442
Si Si3 0.206226 0.859593 0.484561
Si Si4 0.053835 0.894350 0.818414
Si Si5 0.302360 0.143578 0.584220
O O1 0.899509 0.144305 0.674947
O O2 0.839827 0.095283 0.443806
O O3 0.920062 0.152223 0.336307
O O4 0.913103 0.000000 0.500000
O O5 0.853154 0.105120 0.944550
O O6 0.923647 0.997921 0.834219
O O7 0.936527 0.148367 0.999613
O O8 0.258184 0.893906 0.519426
O O9 0.203491 0.866393 0.283682
O O10 0.200262 0.752954 0.541369
O O11 0.000000 0.901470 0.786812
#
# Coordination Sequence:
#
# PCOD9478496 Si02
#       5
#    16  16  16  16  16
#     4   9  19  34  52  79 108 138 176 220 270 316
#     4   9  18  33  51  78 106 135 173 222 264 315
#     4   9  18  33  52  78 108 143 177 217 263 325
#     4  10  20  34  56  80 104 137 183 223 269 321
#     4   9  18  32  53  76 108 142 179 212 266 323
#
# _framework density 23.901682999999998
#
# number of rings (size 3 to 8) (size 9 to 14) (size 15 to 20)
#    0.000    2.800    0.000    1.200    2.800    4.400 
#    3.600    0.000    0.000    2.400    0.000    0.000 
#    0.000    0.000    0.000    0.000    0.000    0.000 
#
# Total GULP energy -222900.361189 kJ/mol
# GULP energy per Si atom -5572.509030 kJ/mol
# Density = 2.384728 g / cm^3
# Si number density = 23.901683 Si / 1000 Ang^3
#
#
#
# Elastic Constant Matrix: (Units=GPa)
#
#
# Indices 1 2 3 4 5 6 
#
# 1 196.5519 11.5216 57.8935 0.0000 0.0000 0.0000
# 2 11.5216 64.1664 -1.3671 0.0000 0.0000 0.0000
# 3 57.8935 -1.3671 110.5407 0.0000 0.0000 0.0000
# 4 0.0000 0.0000 0.0000 17.2165 0.0000 0.0000
# 5 0.0000 0.0000 0.0000 0.0000 36.4704 0.0000
# 6 0.0000 0.0000 0.0000 0.0000 0.0000 32.3440
#
#
#
# Elastic Compliance Matrix: (Units=1/GPa)
#
#
# Indices 1 2 3 4 5 6 
#
# 1 0.006101 -0.001164 -0.003210 0.000000 0.000000 0.000000
# 2 -0.001164 0.015811 0.000805 0.000000 0.000000 0.000000
# 3 -0.003210 0.000805 0.010738 0.000000 0.000000 0.000000
# 4 0.000000 0.000000 0.000000 0.058084 0.000000 0.000000
# 5 0.000000 0.000000 0.000000 0.000000 0.027419 0.000000
# 6 0.000000 0.000000 0.000000 0.000000 0.000000 0.030918
#
#
# Mechanical properties :
#
#
# Convention : Reuss Voigt Hill
#
# Bulk Modulus (GPa) = 39.19698 56.37277 47.78487
# Shear Modulus (GPa) = 30.35605 37.42026 33.88815
#
# Velocity S-wave (km/s) = 3.56763 3.96105 3.76947
# Velocity P-wave (km/s) = 5.77975 6.67505 6.24347
#
# Compressibility (1/GPa) = 0.02551217
#
# Stress axis : x y z
#
# Youngs Moduli (GPa) = 163.89681 63.24854 93.13144
#
# Poissons Ratio (x) = 0.07362 0.29894
# Poissons Ratio (y) = 0.19077 -0.07498
# Poissons Ratio (z) = 0.52609 -0.05092
#
# Static dielectric constant tensor:
#      x y z
#    x 1.930680 0.000000 0.000000 
#    y 0.000000 1.990050 0.000000 
#    z 0.000000 0.000000 2.012680 
# 
# From -- ./inp_files/11018.got.cif
#   From: 2010.05.17/outbox.cif.g08.bks.cpg/sg64_6_cif.got.tgz:11018.got - 2010.06.03 16:29:19.
