data_PCOD9478508
_publ_section_title
;
Structure prediction by ZEFSAII (Michael W. Deem and Ramdas Pophale) SiO2 
 PCOD9478508
Probable space group: C M C A
;
_chemical_formula_sum "Si O2"
_cell_formula_units_Z 48
_cell_length_a 18.507215
_cell_length_b 5.017885
_cell_length_c 18.761179
_cell_angle_alpha 90.000000
_cell_angle_beta 90.000000
_cell_angle_gamma 90.000000
_cell_volume 1742.295846
_symmetry_space_group_name_H-M "C M C A"
_symmetry_group_IT_number 64
_symmetry_cell_setting 'orthorhombic'
loop_
_space_group_symop_operation_xyz
x,y,z
-x,1/2-y,1/2+z
x,-y,-z
-x,1/2+y,1/2-z
-x,-y,-z
x,1/2+y,1/2-z
-x,y,z
x,1/2-y,1/2+z
1/2+x,1/2+y,z
1/2-x,-y,1/2+z
1/2+x,1/2-y,-z
1/2-x,y,1/2-z
1/2-x,1/2-y,-z
1/2+x,y,1/2-z
1/2-x,1/2+y,z
1/2+x,-y,1/2+z
loop_
_atom_site_type_symbol
_atom_site_label
_atom_site_fract_x
_atom_site_fract_y
_atom_site_fract_z
Si Si1 0.208978 0.115436 0.153782
Si Si2 0.171930 0.000000 0.000000
Si Si3 0.418091 0.727297 0.884073
Si Si4 0.000000 0.599628 0.801970
O O1 0.227796 0.411427 0.177542
O O2 0.134665 0.952421 0.165014
O O3 0.212179 0.130138 0.066740
O O4 0.120108 0.211501 0.959933
O O5 0.500000 0.616781 0.890476
O O6 0.432152 0.020195 0.852190
O O7 0.000000 0.361137 0.743819
#
# Coordination Sequence:
#
# PCOD9478508 Si02
#       4
#    16   8  16   8
#     4  10  20  34  56  86 122 151 178 222 289 351
#     4   8  17  34  56  90 121 142 194 210 315 310
#     4   8  19  36  59  88 111 153 185 245 272 346
#     4  10  22  41  60  81 108 152 198 238 284 324
#
# _framework density 27.549855999999998
#
# number of rings (size 3 to 8) (size 9 to 14) (size 15 to 20)
#    3.000    0.000    0.000    1.500    0.000    2.667 
#    0.000    0.000    0.000   12.000    0.000    0.000 
#    0.000    0.000    0.000    0.000    0.000    0.000 
#
# Total GULP energy -133932.163265 kJ/mol
# GULP energy per Si atom -5580.506803 kJ/mol
# Density = 2.748715 g / cm^3
# Si number density = 27.549856 Si / 1000 Ang^3
#
#
#
# Elastic Constant Matrix: (Units=GPa)
#
#
# Indices 1 2 3 4 5 6 
#
# 1 149.4798 17.5160 -9.9484 0.0000 0.0000 0.0000
# 2 17.5160 120.5377 -1.7701 0.0000 0.0000 0.0000
# 3 -9.9484 -1.7701 122.7151 0.0000 0.0000 0.0000
# 4 0.0000 0.0000 0.0000 19.9602 0.0000 0.0000
# 5 0.0000 0.0000 0.0000 0.0000 23.5297 0.0000
# 6 0.0000 0.0000 0.0000 0.0000 0.0000 32.8902
#
#
#
# Elastic Compliance Matrix: (Units=1/GPa)
#
#
# Indices 1 2 3 4 5 6 
#
# 1 0.006841 -0.000986 0.000540 0.000000 0.000000 0.000000
# 2 -0.000986 0.008440 0.000042 0.000000 0.000000 0.000000
# 3 0.000540 0.000042 0.008193 0.000000 0.000000 0.000000
# 4 0.000000 0.000000 0.000000 0.050100 0.000000 0.000000
# 5 0.000000 0.000000 0.000000 0.000000 0.042499 0.000000
# 6 0.000000 0.000000 0.000000 0.000000 0.000000 0.030404
#
#
# Mechanical properties :
#
#
# Convention : Reuss Voigt Hill
#
# Bulk Modulus (GPa) = 44.11742 44.92530 44.52136
# Shear Modulus (GPa) = 32.29102 41.07170 36.68136
#
# Velocity S-wave (km/s) = 3.42730 3.86529 3.65287
# Velocity P-wave (km/s) = 5.63119 6.02187 5.82981
#
# Compressibility (1/GPa) = 0.02266678
#
# Stress axis : x y z
#
# Youngs Moduli (GPa) = 146.16896 118.48223 122.04994
#
# Poissons Ratio (x) = 0.11685 -0.06596
# Poissons Ratio (y) = 0.14416 -0.00510
# Poissons Ratio (z) = -0.07899 -0.00495
#
# Static dielectric constant tensor:
#      x y z
#    x 2.239650 0.000000 0.000000 
#    y 0.000000 2.188630 0.000000 
#    z 0.000000 0.000000 2.156520 
# 
# From -- ./inp_files/46069.got.cif
#   From: 2010.05.17/outbox.cif.g08.bks.cpg/sg64_24_cif.got.tgz:46069.got - 2010.06.03 16:29:19.
