data_PCOD9478761
_publ_section_title
;
Structure prediction by ZEFSAII (Michael W. Deem and Ramdas Pophale) SiO2 
 PCOD9478761
Probable space group: C M C A
;
_chemical_formula_sum "Si O2"
_cell_formula_units_Z 72
_cell_length_a 19.598282
_cell_length_b 7.278273
_cell_length_c 18.833704
_cell_angle_alpha 90.000000
_cell_angle_beta 90.000000
_cell_angle_gamma 90.000000
_cell_volume 2686.470553
_symmetry_space_group_name_H-M "C M C A"
_symmetry_group_IT_number 64
_symmetry_cell_setting 'orthorhombic'
loop_
_space_group_symop_operation_xyz
x,y,z
-x,1/2-y,1/2+z
x,-y,-z
-x,1/2+y,1/2-z
-x,-y,-z
x,1/2+y,1/2-z
-x,y,z
x,1/2-y,1/2+z
1/2+x,1/2+y,z
1/2-x,-y,1/2+z
1/2+x,1/2-y,-z
1/2-x,y,1/2-z
1/2-x,1/2-y,-z
1/2+x,y,1/2-z
1/2-x,1/2+y,z
1/2+x,-y,1/2+z
loop_
_atom_site_type_symbol
_atom_site_label
_atom_site_fract_x
_atom_site_fract_y
_atom_site_fract_z
Si Si1 0.500000 0.844987 0.875103
Si Si2 0.500000 0.503918 0.761910
Si Si3 0.287313 0.519303 0.341441
Si Si4 0.866370 0.803904 0.084562
Si Si5 0.361213 0.137928 0.323627
Si Si6 0.270583 0.000000 0.500000
O O1 0.500000 0.675300 0.816969
O O2 0.500000 0.022502 0.824107
O O3 0.433838 0.814328 0.922524
O O4 0.571619 0.398379 0.777479
O O5 0.329322 0.708227 0.347477
O O6 0.337291 0.349008 0.327104
O O7 0.213179 0.549220 0.305053
O O8 0.267492 0.503058 0.425354
O O9 0.880279 0.015179 0.107250
O O10 0.819759 0.824294 0.015505
#
# Coordination Sequence:
#
# PCOD9478761 Si02
#       6
#     8   8  16  16  16   8
#     4  10  24  45  64  90 125 171 213 261 327 375
#     4  10  24  44  68  86 126 167 209 268 322 366
#     4  11  20  36  66  94 127 164 209 256 307 377
#     4  10  22  37  62  94 125 166 211 254 314 385
#     4  10  21  38  63  94 123 163 209 262 306 379
#     4  10  20  35  64  93 128 168 202 260 318 367
#
# _framework density 26.800965000000001
#
# number of rings (size 3 to 8) (size 9 to 14) (size 15 to 20)
#    0.000    1.778    4.444    0.667    6.222    0.444 
#    0.000    2.222    4.889    1.333    0.000    0.000 
#    0.000    0.000    0.000    0.000    0.000    0.000 
#
# Total GULP energy -200761.827678 kJ/mol
# GULP energy per Si atom -5576.717435 kJ/mol
# Density = 2.673996 g / cm^3
# Si number density = 26.800965 Si / 1000 Ang^3
#
#
#
# Elastic Constant Matrix: (Units=GPa)
#
#
# Indices 1 2 3 4 5 6 
#
# 1 138.6934 9.0678 34.7008 0.0000 0.0000 0.0000
# 2 9.0678 121.9497 9.8462 0.0000 0.0000 0.0000
# 3 34.7008 9.8462 46.8900 0.0000 0.0000 0.0000
# 4 0.0000 0.0000 0.0000 32.9117 0.0000 0.0000
# 5 0.0000 0.0000 0.0000 0.0000 50.3785 0.0000
# 6 0.0000 0.0000 0.0000 0.0000 0.0000 36.1873
#
#
#
# Elastic Compliance Matrix: (Units=1/GPa)
#
#
# Indices 1 2 3 4 5 6 
#
# 1 0.008851 -0.000131 -0.006522 0.000000 0.000000 0.000000
# 2 -0.000131 0.008343 -0.001655 0.000000 0.000000 0.000000
# 3 -0.006522 -0.001655 0.026501 0.000000 0.000000 0.000000
# 4 0.000000 0.000000 0.000000 0.030384 0.000000 0.000000
# 5 0.000000 0.000000 0.000000 0.000000 0.019850 0.000000
# 6 0.000000 0.000000 0.000000 0.000000 0.000000 0.027634
#
#
# Mechanical properties :
#
#
# Convention : Reuss Voigt Hill
#
# Bulk Modulus (GPa) = 36.93042 46.08476 41.50759
# Shear Modulus (GPa) = 33.96604 40.82338 37.39471
#
# Velocity S-wave (km/s) = 3.56384 3.90706 3.73939
# Velocity P-wave (km/s) = 5.54473 6.13074 5.84509
#
# Compressibility (1/GPa) = 0.02707795
#
# Stress axis : x y z
#
# Youngs Moduli (GPa) = 112.98662 119.85409 37.73473
#
# Poissons Ratio (x) = 0.01576 0.24612
# Poissons Ratio (y) = 0.01486 0.06244
# Poissons Ratio (z) = 0.73693 0.19832
#
# Static dielectric constant tensor:
#      x y z
#    x 2.215170 0.000000 0.000000 
#    y 0.000000 2.181270 0.000000 
#    z 0.000000 0.000000 2.114420 
# 
# From -- ./inp_files/50259.got.cif
#   From: 2010.05.17/outbox.cif.g08.bks.cpg/sg64_26_cif.got.tgz:50259.got - 2010.06.03 16:29:19.
