data_PCOD9478612
_publ_section_title
;
Structure prediction by ZEFSAII (Michael W. Deem and Ramdas Pophale) SiO2 
 PCOD9478612
Probable space group: C M C A
;
_chemical_formula_sum "Si O2"
_cell_formula_units_Z 116
_cell_length_a 7.531884
_cell_length_b 25.189994
_cell_length_c 29.688624
_cell_angle_alpha 90.000000
_cell_angle_beta 90.000000
_cell_angle_gamma 90.000000
_cell_volume 5632.766602
_symmetry_space_group_name_H-M "C M C A"
_symmetry_group_IT_number 64
_symmetry_cell_setting 'orthorhombic'
loop_
_space_group_symop_operation_xyz
x,y,z
-x,1/2-y,1/2+z
x,-y,-z
-x,1/2+y,1/2-z
-x,-y,-z
x,1/2+y,1/2-z
-x,y,z
x,1/2-y,1/2+z
1/2+x,1/2+y,z
1/2-x,-y,1/2+z
1/2+x,1/2-y,-z
1/2-x,y,1/2-z
1/2-x,1/2-y,-z
1/2+x,y,1/2-z
1/2-x,1/2+y,z
1/2+x,-y,1/2+z
loop_
_atom_site_type_symbol
_atom_site_label
_atom_site_fract_x
_atom_site_fract_y
_atom_site_fract_z
Si Si1 0.705584 0.410862 0.974415
Si Si2 0.212195 0.956422 0.196596
Si Si3 0.205207 0.356841 0.884850
Si Si4 0.211658 0.195465 0.973778
Si Si5 0.000000 0.000000 0.500000
Si Si6 0.288211 0.572307 0.196876
Si Si7 0.213105 0.841029 0.197087
Si Si8 0.717825 0.236377 0.620888
O O1 0.500000 0.422966 0.987464
O O2 0.704839 0.393854 0.921936
O O3 0.842910 0.457502 0.984046
O O4 0.769952 0.357649 0.000929
O O5 0.250000 0.956036 0.250000
O O6 0.280492 0.899127 0.180804
O O7 0.000000 0.956864 0.189601
O O8 0.280284 0.013875 0.181330
O O9 0.215395 0.382768 0.835631
O O10 0.278038 0.297050 0.883614
O O11 0.000000 0.353290 0.898632
O O12 0.275905 0.203437 0.922857
O O13 0.000000 0.190962 0.971689
O O14 0.250000 0.250000 0.000000
O O15 0.500000 0.572419 0.192085
O O16 0.250000 0.579223 0.250000
O O17 0.250000 0.834277 0.250000
O O18 0.277722 0.793492 0.165886
O O19 0.000000 0.842808 0.192779
O O20 0.500000 0.237692 0.621537
#
# Coordination Sequence:
#
# PCOD9478612 Si02
#       8
#    16  16  16  16   4  16  16  16
#     4  11  24  44  70 100 131 177 223 270 334 407
#     4   8  15  29  51  73 101 142 191 247 304 365
#     4  11  21  38  61  87 125 169 212 261 330 394
#     4  10  20  37  66  94 122 161 215 272 324 388
#     4  12  26  48  72  94 144 176 210 270 340 402
#     4  10  20  35  55  83 116 158 215 271 321 387
#     4   9  17  33  54  78 112 151 192 241 308 373
#     4   9  19  35  58  87 119 160 205 254 319 390
#
# _framework density 20.593788
#
# number of rings (size 3 to 8) (size 9 to 14) (size 15 to 20)
#    0.000    2.207    2.069    1.034    0.966    1.103 
#    2.483    3.448    0.000    0.000    0.000    0.000 
#    0.000    0.000    0.000    0.000    0.000    0.000 
#
# Total GULP energy -323007.831257 kJ/mol
# GULP energy per Si atom -5569.100539 kJ/mol
# Density = 2.054692 g / cm^3
# Si number density = 20.593788 Si / 1000 Ang^3
#
#
#
# Elastic Constant Matrix: (Units=GPa)
#
#
# Indices 1 2 3 4 5 6 
#
# 1 85.6329 23.1818 8.0855 0.0000 0.0000 0.0000
# 2 23.1818 96.9411 59.5221 0.0000 0.0000 0.0000
# 3 8.0855 59.5221 94.1921 0.0000 0.0000 0.0000
# 4 0.0000 0.0000 0.0000 23.8454 0.0000 0.0000
# 5 0.0000 0.0000 0.0000 0.0000 17.4101 0.0000
# 6 0.0000 0.0000 0.0000 0.0000 0.0000 10.0760
#
#
#
# Elastic Compliance Matrix: (Units=1/GPa)
#
#
# Indices 1 2 3 4 5 6 
#
# 1 0.012589 -0.003835 0.001343 0.000000 0.000000 0.000000
# 2 -0.003835 0.018024 -0.011060 0.000000 0.000000 0.000000
# 3 0.001343 -0.011060 0.017491 0.000000 0.000000 0.000000
# 4 0.000000 0.000000 0.000000 0.041937 0.000000 0.000000
# 5 0.000000 0.000000 0.000000 0.000000 0.057438 0.000000
# 6 0.000000 0.000000 0.000000 0.000000 0.000000 0.099246
#
#
# Mechanical properties :
#
#
# Convention : Reuss Voigt Hill
#
# Bulk Modulus (GPa) = 47.62291 50.92722 49.27506
# Shear Modulus (GPa) = 17.80445 22.66474 20.23460
#
# Velocity S-wave (km/s) = 2.94352 3.32107 3.13798
# Velocity P-wave (km/s) = 5.89301 6.28404 6.09166
#
# Compressibility (1/GPa) = 0.02099830
#
# Stress axis : x y z
#
# Youngs Moduli (GPa) = 79.43368 55.48252 57.17343
#
# Poissons Ratio (x) = 0.21277 -0.07677
# Poissons Ratio (y) = 0.30462 0.63236
# Poissons Ratio (z) = -0.10665 0.61366
#
# Static dielectric constant tensor:
#      x y z
#    x 1.780050 0.000000 0.000000 
#    y 0.000000 1.755710 0.000000 
#    z 0.000000 0.000000 1.680160 
# 
# From -- ./inp_files/52284.got.cif
#   From: 2010.05.17/outbox.cif.g08.bks.cpg/sg64_27_cif.got.tgz:52284.got - 2010.06.03 16:29:19.
