data_PCOD9478204
_publ_section_title
;
Structure prediction by ZEFSAII (Michael W. Deem and Ramdas Pophale) SiO2 
 PCOD9478204
Probable space group: C M C A
;
_chemical_formula_sum "Si O2"
_cell_formula_units_Z 104
_cell_length_a 19.723639
_cell_length_b 11.274648
_cell_length_c 17.953211
_cell_angle_alpha 90.000000
_cell_angle_beta 90.000000
_cell_angle_gamma 90.000000
_cell_volume 3992.382765
_symmetry_space_group_name_H-M "C M C A"
_symmetry_group_IT_number 64
_symmetry_cell_setting 'orthorhombic'
loop_
_space_group_symop_operation_xyz
x,y,z
-x,1/2-y,1/2+z
x,-y,-z
-x,1/2+y,1/2-z
-x,-y,-z
x,1/2+y,1/2-z
-x,y,z
x,1/2-y,1/2+z
1/2+x,1/2+y,z
1/2-x,-y,1/2+z
1/2+x,1/2-y,-z
1/2-x,y,1/2-z
1/2-x,1/2-y,-z
1/2+x,y,1/2-z
1/2-x,1/2+y,z
1/2+x,-y,1/2+z
loop_
_atom_site_type_symbol
_atom_site_label
_atom_site_fract_x
_atom_site_fract_y
_atom_site_fract_z
Si Si1 0.000000 0.767551 0.274499
Si Si2 0.824174 0.017096 0.287739
Si Si3 0.731312 0.743555 0.331734
Si Si4 0.602298 0.747275 0.017525
Si Si5 0.000000 0.927663 0.401735
Si Si6 0.621758 0.882898 0.654975
Si Si7 0.719131 0.098473 0.938905
Si Si8 0.000000 0.285521 0.896578
O O1 0.000000 0.894702 0.314607
O O2 0.933032 0.702247 0.305867
O O3 0.000000 0.756269 0.187193
O O4 0.750000 0.018469 0.250000
O O5 0.828826 0.151600 0.319612
O O6 0.871964 0.009353 0.214904
O O7 0.823113 0.944260 0.364450
O O8 0.750000 0.792298 0.250000
O O9 0.801674 0.672968 0.350718
O O10 0.719691 0.841846 0.393783
O O11 0.561193 0.856147 0.058645
O O12 0.599616 0.629384 0.068834
O O13 0.676504 0.803780 0.017046
O O14 0.564735 0.735445 0.940440
O O15 0.000000 0.069679 0.406146
O O16 0.735634 0.000000 0.000000
#
# Coordination Sequence:
#
# PCOD9478204 Si02
#       8
#     8  16  16  16   8  16  16   8
#     4  10  20  30  52  82 110 144 184 221 280 335
#     4   9  19  35  54  73 105 147 188 218 273 333
#     4   8  17  36  53  69 103 145 180 229 264 323
#     4   9  18  32  48  78 112 140 171 230 283 323
#     4   9  18  33  45  73 115 139 185 220 266 340
#     4   8  17  33  51  74 108 141 187 216 260 340
#     4  11  20  28  51  82 108 134 178 229 285 328
#     4  11  20  31  55  77 121 147 174 234 292 319
#
# _framework density 26.049607999999999
#
# number of rings (size 3 to 8) (size 9 to 14) (size 15 to 20)
#    0.000    3.077    0.000    2.769    4.308    0.615 
#    0.000    0.000    0.000    0.000    0.000    8.615 
#    0.000    0.000    0.000    0.000    0.000    0.000 
#
# Total GULP energy -289859.931037 kJ/mol
# GULP energy per Si atom -5574.229443 kJ/mol
# Density = 2.599032 g / cm^3
# Si number density = 26.049608 Si / 1000 Ang^3
#
#
#
# Elastic Constant Matrix: (Units=GPa)
#
#
# Indices 1 2 3 4 5 6 
#
# 1 63.8693 -6.1066 16.6300 0.0000 0.0000 0.0000
# 2 -6.1066 35.3659 31.9380 0.0000 0.0000 0.0000
# 3 16.6300 31.9380 160.8232 0.0000 0.0000 0.0000
# 4 0.0000 0.0000 0.0000 67.1302 0.0000 0.0000
# 5 0.0000 0.0000 0.0000 0.0000 35.7428 0.0000
# 6 0.0000 0.0000 0.0000 0.0000 0.0000 2.5151
#
#
#
# Elastic Compliance Matrix: (Units=1/GPa)
#
#
# Indices 1 2 3 4 5 6 
#
# 1 0.016921 0.005486 -0.002839 0.000000 0.000000 0.000000
# 2 0.005486 0.036233 -0.007763 0.000000 0.000000 0.000000
# 3 -0.002839 -0.007763 0.008053 0.000000 0.000000 0.000000
# 4 0.000000 0.000000 0.000000 0.014896 0.000000 0.000000
# 5 0.000000 0.000000 0.000000 0.000000 0.027978 0.000000
# 6 0.000000 0.000000 0.000000 0.000000 0.000000 0.397604
#
#
# Mechanical properties :
#
#
# Convention : Reuss Voigt Hill
#
# Bulk Modulus (GPa) = 19.61760 38.33123 28.97442
# Shear Modulus (GPa) = 9.45341 35.58409 22.51875
#
# Velocity S-wave (km/s) = 1.90706 3.69997 2.94335
# Velocity P-wave (km/s) = 3.52085 5.74454 4.76425
#
# Compressibility (1/GPa) = 0.05097462
#
# Stress axis : x y z
#
# Youngs Moduli (GPa) = 59.09933 27.59880 124.17409
#
# Poissons Ratio (x) = -0.15140 0.35254
# Poissons Ratio (y) = -0.32419 0.96395
# Poissons Ratio (z) = 0.16779 0.21425
#
# Static dielectric constant tensor:
#      x y z
#    x 2.158120 0.000000 0.000000 
#    y 0.000000 2.144220 0.000000 
#    z 0.000000 0.000000 2.115810 
# 
# From -- ./inp_files/35084.got.cif
#   From: 2010.05.17/outbox.cif.g08.bks.cpg/sg64_18_cif.got.tgz:35084.got - 2010.06.03 16:29:19.
