data_PCOD9478565
_publ_section_title
;
Structure prediction by ZEFSAII (Michael W. Deem and Ramdas Pophale) SiO2 
 PCOD9478565
Probable space group: C M C A
;
_chemical_formula_sum "Si O2"
_cell_formula_units_Z 96
_cell_length_a 26.491153
_cell_length_b 23.411112
_cell_length_c 9.186300
_cell_angle_alpha 90.000000
_cell_angle_beta 90.000000
_cell_angle_gamma 90.000000
_cell_volume 5697.227052
_symmetry_space_group_name_H-M "C M C A"
_symmetry_group_IT_number 64
_symmetry_cell_setting 'orthorhombic'
loop_
_space_group_symop_operation_xyz
x,y,z
-x,1/2-y,1/2+z
x,-y,-z
-x,1/2+y,1/2-z
-x,-y,-z
x,1/2+y,1/2-z
-x,y,z
x,1/2-y,1/2+z
1/2+x,1/2+y,z
1/2-x,-y,1/2+z
1/2+x,1/2-y,-z
1/2-x,y,1/2-z
1/2-x,1/2-y,-z
1/2+x,y,1/2-z
1/2-x,1/2+y,z
1/2+x,-y,1/2+z
loop_
_atom_site_type_symbol
_atom_site_label
_atom_site_fract_x
_atom_site_fract_y
_atom_site_fract_z
Si Si1 0.354614 0.636723 0.533367
Si Si2 0.788473 0.261976 0.130062
Si Si3 0.623385 0.961329 0.641598
Si Si4 0.192671 0.867494 0.784090
Si Si5 0.559831 0.061095 0.078387
Si Si6 0.300108 0.469436 0.343642
O O1 0.336191 0.698446 0.590240
O O2 0.334148 0.630749 0.370450
O O3 0.410785 0.610802 0.511932
O O4 0.322941 0.592385 0.628116
O O5 0.750000 0.287600 0.250000
O O6 0.805748 0.198689 0.173999
O O7 0.750000 0.250000 0.000000
O O8 0.659647 0.906635 0.607462
O O9 0.578539 0.942717 0.752473
O O10 0.610587 0.000000 0.500000
O O11 0.659340 0.996976 0.748515
O O12 0.250000 0.887636 0.750000
O O13 0.500000 0.069605 0.073511
O O14 0.571619 0.000000 0.000000
O O15 0.292494 0.500000 0.500000
O O16 0.250000 0.467001 0.250000
#
# Coordination Sequence:
#
# PCOD9478565 Si02
#       6
#    16  16  16  16  16  16
#     4  11  20  37  55  82 112 147 203 230 286 351
#     4  11  21  35  53  80 114 158 192 229 279 347
#     4  11  22  35  56  88 118 153 192 241 300 349
#     4  10  20  35  51  76 120 157 185 230 286 350
#     4  10  20  41  64  83 113 152 197 248 297 347
#     4  12  22  33  52  83 118 158 186 233 288 356
#
# _framework density 16.850303
#
# number of rings (size 3 to 8) (size 9 to 14) (size 15 to 20)
#    0.000    1.167    8.333    1.500    2.333    1.667 
#    0.000    0.000    0.000    4.000    0.000    0.000 
#    0.000    0.000    0.000    0.000    0.000    0.000 
#
# Total GULP energy -267330.031392 kJ/mol
# GULP energy per Si atom -5569.375654 kJ/mol
# Density = 1.681195 g / cm^3
# Si number density = 16.850303 Si / 1000 Ang^3
#
#
#
# Elastic Constant Matrix: (Units=GPa)
#
#
# Indices 1 2 3 4 5 6 
#
# 1 103.8531 40.4235 33.1862 0.0000 0.0000 0.0000
# 2 40.4235 88.7456 14.3381 0.0000 0.0000 0.0000
# 3 33.1862 14.3381 67.3289 0.0000 0.0000 0.0000
# 4 0.0000 0.0000 0.0000 28.9646 0.0000 0.0000
# 5 0.0000 0.0000 0.0000 0.0000 24.9057 0.0000
# 6 0.0000 0.0000 0.0000 0.0000 0.0000 21.4804
#
#
#
# Elastic Compliance Matrix: (Units=1/GPa)
#
#
# Indices 1 2 3 4 5 6 
#
# 1 0.013421 -0.005224 -0.005503 0.000000 0.000000 0.000000
# 2 -0.005224 0.013703 -0.000343 0.000000 0.000000 0.000000
# 3 -0.005503 -0.000343 0.017638 0.000000 0.000000 0.000000
# 4 0.000000 0.000000 0.000000 0.034525 0.000000 0.000000
# 5 0.000000 0.000000 0.000000 0.000000 0.040151 0.000000
# 6 0.000000 0.000000 0.000000 0.000000 0.000000 0.046554
#
#
# Mechanical properties :
#
#
# Convention : Reuss Voigt Hill
#
# Bulk Modulus (GPa) = 44.20493 48.42481 46.31487
# Shear Modulus (GPa) = 25.55291 26.53546 26.04419
#
# Velocity S-wave (km/s) = 3.89841 3.97265 3.93570
# Velocity P-wave (km/s) = 6.82307 7.05997 6.94253
#
# Compressibility (1/GPa) = 0.02262191
#
# Stress axis : x y z
#
# Youngs Moduli (GPa) = 74.51154 72.97571 56.69662
#
# Poissons Ratio (x) = 0.38123 0.31197
# Poissons Ratio (y) = 0.38926 0.01946
# Poissons Ratio (z) = 0.41000 0.02505
#
# Static dielectric constant tensor:
#      x y z
#    x 1.586010 0.000000 0.000000 
#    y 0.000000 1.557270 0.000000 
#    z 0.000000 0.000000 1.542650 
# 
# From -- ./inp_files/9616.got.cif
#   From: 2010.05.17/outbox.cif.g08.bks.cpg/sg64_5_cif.got.tgz:9616.got - 2010.06.03 16:29:19.
