data_PCOD9478752
_publ_section_title
;
Structure prediction by ZEFSAII (Michael W. Deem and Ramdas Pophale) SiO2 
 PCOD9478752
Probable space group: C M C A
;
_chemical_formula_sum "Si O2"
_cell_formula_units_Z 96
_cell_length_a 16.918469
_cell_length_b 19.749763
_cell_length_c 12.670581
_cell_angle_alpha 90.000000
_cell_angle_beta 90.000000
_cell_angle_gamma 90.000000
_cell_volume 4233.694124
_symmetry_space_group_name_H-M "C M C A"
_symmetry_group_IT_number 64
_symmetry_cell_setting 'orthorhombic'
loop_
_space_group_symop_operation_xyz
x,y,z
-x,1/2-y,1/2+z
x,-y,-z
-x,1/2+y,1/2-z
-x,-y,-z
x,1/2+y,1/2-z
-x,y,z
x,1/2-y,1/2+z
1/2+x,1/2+y,z
1/2-x,-y,1/2+z
1/2+x,1/2-y,-z
1/2-x,y,1/2-z
1/2-x,1/2-y,-z
1/2+x,y,1/2-z
1/2-x,1/2+y,z
1/2+x,-y,1/2+z
loop_
_atom_site_type_symbol
_atom_site_label
_atom_site_fract_x
_atom_site_fract_y
_atom_site_fract_z
Si Si1 0.812961 0.333610 0.668101
Si Si2 0.911138 0.442649 0.909715
Si Si3 0.908207 0.535142 0.339898
Si Si4 0.905903 0.205550 0.693874
Si Si5 0.185063 0.906234 0.168284
Si Si6 0.299483 0.167626 0.995381
O O1 0.750000 0.361740 0.750000
O O2 0.864821 0.395735 0.626931
O O3 0.869467 0.278560 0.723114
O O4 0.757625 0.296588 0.580994
O O5 0.903974 0.468365 0.789370
O O6 0.000000 0.412863 0.917777
O O7 0.906140 0.500000 0.000000
O O8 0.843560 0.390040 0.936880
O O9 0.865174 0.467533 0.378125
O O10 0.000000 0.536832 0.369228
O O11 0.869833 0.146955 0.768010
O O12 0.871157 0.195372 0.576006
O O13 0.000000 0.204697 0.696690
O O14 0.250000 0.935083 0.250000
O O15 0.236921 0.865934 0.084310
#
# Coordination Sequence:
#
# PCOD9478752 Si02
#       6
#    16  16  16  16  16  16
#     4  12  24  42  65  96 134 173 217 270 327 388
#     4  10  20  35  61  96 129 163 213 268 318 373
#     4  11  23  41  63  95 132 173 213 267 329 386
#     4  11  24  45  67  94 128 171 220 275 325 386
#     4  10  22  41  67  93 129 169 216 267 323 386
#     4  11  23  40  66  94 128 170 222 260 324 384
#
# _framework density 22.675232999999999
#
# number of rings (size 3 to 8) (size 9 to 14) (size 15 to 20)
#    0.000    1.167    1.667    6.000    2.333    1.333 
#    0.000    5.833    0.000    0.000    0.000    0.000 
#    0.000    0.000    0.000    0.000    0.000    0.000 
#
# Total GULP energy -268292.032098 kJ/mol
# GULP energy per Si atom -5589.417335 kJ/mol
# Density = 2.262362 g / cm^3
# Si number density = 22.675233 Si / 1000 Ang^3
#
#
#
# Elastic Constant Matrix: (Units=GPa)
#
#
# Indices 1 2 3 4 5 6 
#
# 1 193.7780 58.2505 21.5394 0.0000 0.0000 0.0000
# 2 58.2505 89.3716 -15.8089 0.0000 0.0000 0.0000
# 3 21.5394 -15.8089 42.5977 0.0000 0.0000 0.0000
# 4 0.0000 0.0000 0.0000 24.6957 0.0000 0.0000
# 5 0.0000 0.0000 0.0000 0.0000 31.2430 0.0000
# 6 0.0000 0.0000 0.0000 0.0000 0.0000 37.6203
#
#
#
# Elastic Compliance Matrix: (Units=1/GPa)
#
#
# Indices 1 2 3 4 5 6 
#
# 1 0.007673 -0.006087 -0.006138 0.000000 0.000000 0.000000
# 2 -0.006087 0.016804 0.009314 0.000000 0.000000 0.000000
# 3 -0.006138 0.009314 0.030036 0.000000 0.000000 0.000000
# 4 0.000000 0.000000 0.000000 0.040493 0.000000 0.000000
# 5 0.000000 0.000000 0.000000 0.000000 0.032007 0.000000
# 6 0.000000 0.000000 0.000000 0.000000 0.000000 0.026581
#
#
# Mechanical properties :
#
#
# Convention : Reuss Voigt Hill
#
# Bulk Modulus (GPa) = 20.53804 50.41215 35.47510
# Shear Modulus (GPa) = 28.46634 36.16289 32.31462
#
# Velocity S-wave (km/s) = 3.54700 3.99785 3.77915
# Velocity P-wave (km/s) = 5.08449 6.60234 5.89249
#
# Compressibility (1/GPa) = 0.04869013
#
# Stress axis : x y z
#
# Youngs Moduli (GPa) = 130.33508 59.50999 33.29344
#
# Poissons Ratio (x) = 0.36221 0.20437
# Poissons Ratio (y) = 0.79330 -0.31009
# Poissons Ratio (z) = 0.80006 -0.55427
#
# Static dielectric constant tensor:
#      x y z
#    x 1.781860 0.000000 0.000000 
#    y 0.000000 1.849640 0.000000 
#    z 0.000000 0.000000 1.928730 
# 
# From -- ./inp_files/23878.got.cif
#   From: 2010.05.17/outbox.cif.g08.bks.cpg/sg64_12_cif.got.tgz:23878.got - 2010.06.03 16:29:19.
