data_PCOD9478378
_publ_section_title
;
Structure prediction by ZEFSAII (Michael W. Deem and Ramdas Pophale) SiO2 
 PCOD9478378
Probable space group: C M C A
;
_chemical_formula_sum "Si O2"
_cell_formula_units_Z 96
_cell_length_a 16.337947
_cell_length_b 10.273495
_cell_length_c 24.253119
_cell_angle_alpha 90.000000
_cell_angle_beta 90.000000
_cell_angle_gamma 90.000000
_cell_volume 4070.833075
_symmetry_space_group_name_H-M "C M C A"
_symmetry_group_IT_number 64
_symmetry_cell_setting 'orthorhombic'
loop_
_space_group_symop_operation_xyz
x,y,z
-x,1/2-y,1/2+z
x,-y,-z
-x,1/2+y,1/2-z
-x,-y,-z
x,1/2+y,1/2-z
-x,y,z
x,1/2-y,1/2+z
1/2+x,1/2+y,z
1/2-x,-y,1/2+z
1/2+x,1/2-y,-z
1/2-x,y,1/2-z
1/2-x,1/2-y,-z
1/2+x,y,1/2-z
1/2-x,1/2+y,z
1/2+x,-y,1/2+z
loop_
_atom_site_type_symbol
_atom_site_label
_atom_site_fract_x
_atom_site_fract_y
_atom_site_fract_z
Si Si1 0.309216 0.572502 0.857787
Si Si2 0.092129 0.779247 0.427564
Si Si3 0.296828 0.530572 0.441729
Si Si4 0.650799 0.054017 0.252742
Si Si5 0.354126 0.308342 0.311277
Si Si6 0.597065 0.287432 0.044118
O O1 0.258779 0.455957 0.887915
O O2 0.366546 0.519285 0.810119
O O3 0.241281 0.668525 0.829669
O O4 0.357903 0.631630 0.908895
O O5 0.100355 0.745979 0.363632
O O6 0.109413 0.682103 0.478508
O O7 0.000000 0.825258 0.438068
O O8 0.153723 0.898505 0.431851
O O9 0.253933 0.500000 0.500000
O O10 0.360090 0.646788 0.449226
O O11 0.750000 0.049803 0.250000
O O12 0.632032 0.205974 0.261499
O O13 0.618801 0.955703 0.205638
O O14 0.500000 0.286643 0.054028
#
# Coordination Sequence:
#
# PCOD9478378 Si02
#       6
#    16  16  16  16  16  16
#     4  10  20  33  57  88 119 153 198 252 308 365
#     4   9  19  36  56  81 118 160 199 249 311 366
#     4   9  18  31  54  83 115 155 202 244 285 355
#     4  10  20  36  57  82 114 151 199 257 313 362
#     4  10  21  37  59  85 116 157 207 258 309 365
#     4  10  20  36  58  88 126 163 199 245 307 375
#
# _framework density 23.582395000000002
#
# number of rings (size 3 to 8) (size 9 to 14) (size 15 to 20)
#    0.000    2.333    0.000    3.000    0.000   12.000 
#    0.000    2.500    0.000    2.500    0.000    4.667 
#    0.000    0.000    0.000    0.000    0.000    0.000 
#
# Total GULP energy -267555.666449 kJ/mol
# GULP energy per Si atom -5574.076384 kJ/mol
# Density = 2.352872 g / cm^3
# Si number density = 23.582395 Si / 1000 Ang^3
#
#
#
# Elastic Constant Matrix: (Units=GPa)
#
#
# Indices 1 2 3 4 5 6 
#
# 1 41.5873 15.5443 16.4797 0.0000 0.0000 0.0000
# 2 15.5443 72.3867 30.0041 0.0000 0.0000 0.0000
# 3 16.4797 30.0041 110.8043 0.0000 0.0000 0.0000
# 4 0.0000 0.0000 0.0000 40.6147 0.0000 0.0000
# 5 0.0000 0.0000 0.0000 0.0000 23.5988 0.0000
# 6 0.0000 0.0000 0.0000 0.0000 0.0000 28.0245
#
#
#
# Elastic Compliance Matrix: (Units=1/GPa)
#
#
# Indices 1 2 3 4 5 6 
#
# 1 0.026863 -0.004633 -0.002741 0.000000 0.000000 0.000000
# 2 -0.004633 0.016360 -0.003741 0.000000 0.000000 0.000000
# 3 -0.002741 -0.003741 0.010446 0.000000 0.000000 0.000000
# 4 0.000000 0.000000 0.000000 0.024622 0.000000 0.000000
# 5 0.000000 0.000000 0.000000 0.000000 0.042375 0.000000
# 6 0.000000 0.000000 0.000000 0.000000 0.000000 0.035683
#
#
# Mechanical properties :
#
#
# Convention : Reuss Voigt Hill
#
# Bulk Modulus (GPa) = 31.80650 38.75938 35.28294
# Shear Modulus (GPa) = 26.44692 29.29764 27.87228
#
# Velocity S-wave (km/s) = 3.35247 3.52853 3.44162
# Velocity P-wave (km/s) = 5.33873 5.75083 5.54861
#
# Compressibility (1/GPa) = 0.03144011
#
# Stress axis : x y z
#
# Youngs Moduli (GPa) = 37.22529 61.12415 95.73409
#
# Poissons Ratio (x) = 0.28316 0.26240
# Poissons Ratio (y) = 0.17245 0.35815
# Poissons Ratio (z) = 0.10203 0.22867
#
# Static dielectric constant tensor:
#      x y z
#    x 1.887230 0.000000 0.000000 
#    y 0.000000 1.929620 0.000000 
#    z 0.000000 0.000000 2.024320 
# 
# From -- ./inp_files/45722.got.cif
#   From: 2010.05.17/outbox.cif.g08.bks.cpg/sg64_23_cif.got.tgz:45722.got - 2010.06.03 16:29:19.
