data_PCOD9478554
_publ_section_title
;
Structure prediction by ZEFSAII (Michael W. Deem and Ramdas Pophale) SiO2 
 PCOD9478554
Probable space group: C M C A
;
_chemical_formula_sum "Si O2"
_cell_formula_units_Z 72
_cell_length_a 21.456387
_cell_length_b 8.389408
_cell_length_c 20.390874
_cell_angle_alpha 90.000000
_cell_angle_beta 90.000000
_cell_angle_gamma 90.000000
_cell_volume 3670.487511
_symmetry_space_group_name_H-M "C M C A"
_symmetry_group_IT_number 64
_symmetry_cell_setting 'orthorhombic'
loop_
_space_group_symop_operation_xyz
x,y,z
-x,1/2-y,1/2+z
x,-y,-z
-x,1/2+y,1/2-z
-x,-y,-z
x,1/2+y,1/2-z
-x,y,z
x,1/2-y,1/2+z
1/2+x,1/2+y,z
1/2-x,-y,1/2+z
1/2+x,1/2-y,-z
1/2-x,y,1/2-z
1/2-x,1/2-y,-z
1/2+x,y,1/2-z
1/2-x,1/2+y,z
1/2+x,-y,1/2+z
loop_
_atom_site_type_symbol
_atom_site_label
_atom_site_fract_x
_atom_site_fract_y
_atom_site_fract_z
Si Si1 0.074032 0.263214 0.683122
Si Si2 0.425120 0.383158 0.674931
Si Si3 0.761013 0.000000 0.000000
Si Si4 0.428000 0.162037 0.457276
Si Si5 0.160268 0.218717 0.443560
O O1 0.096630 0.322126 0.753595
O O2 0.095364 0.353885 0.617394
O O3 0.000000 0.293319 0.686989
O O4 0.082970 0.074452 0.673059
O O5 0.500000 0.349205 0.665805
O O6 0.382820 0.301824 0.619577
O O7 0.715410 0.907379 0.950826
O O8 0.803988 0.115789 0.957064
O O9 0.500000 0.214382 0.454751
O O10 0.386348 0.290399 0.494426
O O11 0.426998 0.000000 0.500000
#
# Coordination Sequence:
#
# PCOD9478554 Si02
#       5
#    16  16   8  16  16
#     4   9  20  35  55  92 130 157 187 238 312 378
#     4  10  21  37  62  91 124 157 192 247 312 370
#     4  10  24  38  60  82 118 156 212 250 296 336
#     4  10  20  34  60  95 124 152 197 251 306 369
#     4  11  21  40  60  86 113 160 202 249 294 357
#
# _framework density 19.615922999999999
#
# number of rings (size 3 to 8) (size 9 to 14) (size 15 to 20)
#    0.000    2.000    1.111    2.000    3.111    0.000 
#    0.000    4.444    0.000   22.667    0.000    0.000 
#    0.000    0.000    0.000    0.000    0.000    0.000 
#
# Total GULP energy -200769.868363 kJ/mol
# GULP energy per Si atom -5576.940788 kJ/mol
# Density = 1.957128 g / cm^3
# Si number density = 19.615923 Si / 1000 Ang^3
#
#
#
# Elastic Constant Matrix: (Units=GPa)
#
#
# Indices 1 2 3 4 5 6 
#
# 1 96.1183 40.1257 62.5186 0.0000 0.0000 0.0000
# 2 40.1257 59.5699 60.8038 0.0000 0.0000 0.0000
# 3 62.5186 60.8038 195.0903 0.0000 0.0000 0.0000
# 4 0.0000 0.0000 0.0000 27.6141 0.0000 0.0000
# 5 0.0000 0.0000 0.0000 0.0000 13.7667 0.0000
# 6 0.0000 0.0000 0.0000 0.0000 0.0000 7.2623
#
#
#
# Elastic Compliance Matrix: (Units=1/GPa)
#
#
# Indices 1 2 3 4 5 6 
#
# 1 0.015245 -0.007747 -0.002471 0.000000 0.000000 0.000000
# 2 -0.007747 0.028555 -0.006417 0.000000 0.000000 0.000000
# 3 -0.002471 -0.006417 0.007918 0.000000 0.000000 0.000000
# 4 0.000000 0.000000 0.000000 0.036213 0.000000 0.000000
# 5 0.000000 0.000000 0.000000 0.000000 0.072639 0.000000
# 6 0.000000 0.000000 0.000000 0.000000 0.000000 0.137698
#
#
# Mechanical properties :
#
#
# Convention : Reuss Voigt Hill
#
# Bulk Modulus (GPa) = 54.20620 75.29719 64.75169
# Shear Modulus (GPa) = 14.80658 22.21731 18.51195
#
# Velocity S-wave (km/s) = 2.75039 3.36909 3.07534
# Velocity P-wave (km/s) = 6.14654 7.32144 6.75956
#
# Compressibility (1/GPa) = 0.01844808
#
# Stress axis : x y z
#
# Youngs Moduli (GPa) = 65.59519 35.01969 126.29794
#
# Poissons Ratio (x) = 0.27129 0.31208
# Poissons Ratio (y) = 0.50815 0.81050
# Poissons Ratio (z) = 0.16209 0.22473
#
# Static dielectric constant tensor:
#      x y z
#    x 1.679770 0.000000 0.000000 
#    y 0.000000 1.741520 0.000000 
#    z 0.000000 0.000000 1.699000 
# 
# From -- ./inp_files/34843.got.cif
#   From: 2010.05.17/outbox.cif.g08.bks.cpg/sg64_18_cif.got.tgz:34843.got - 2010.06.03 16:29:19.
