data_PCOD9478555
_publ_section_title
;
Structure prediction by ZEFSAII (Michael W. Deem and Ramdas Pophale) SiO2 
 PCOD9478555
Probable space group: C M C A
;
_chemical_formula_sum "Si O2"
_cell_formula_units_Z 88
_cell_length_a 16.282184
_cell_length_b 19.256340
_cell_length_c 9.404550
_cell_angle_alpha 90.000000
_cell_angle_beta 90.000000
_cell_angle_gamma 90.000000
_cell_volume 2948.658133
_symmetry_space_group_name_H-M "C M C A"
_symmetry_group_IT_number 64
_symmetry_cell_setting 'orthorhombic'
loop_
_space_group_symop_operation_xyz
x,y,z
-x,1/2-y,1/2+z
x,-y,-z
-x,1/2+y,1/2-z
-x,-y,-z
x,1/2+y,1/2-z
-x,y,z
x,1/2-y,1/2+z
1/2+x,1/2+y,z
1/2-x,-y,1/2+z
1/2+x,1/2-y,-z
1/2-x,y,1/2-z
1/2-x,1/2-y,-z
1/2+x,y,1/2-z
1/2-x,1/2+y,z
1/2+x,-y,1/2+z
loop_
_atom_site_type_symbol
_atom_site_label
_atom_site_fract_x
_atom_site_fract_y
_atom_site_fract_z
Si Si1 0.908820 0.843055 0.259434
Si Si2 0.594521 0.296087 0.561476
Si Si3 0.677041 0.066495 0.537686
Si Si4 0.595764 0.433027 0.779152
Si Si5 0.339527 0.698280 0.173126
Si Si6 0.155763 0.000000 0.500000
O O1 0.909077 0.852344 0.426608
O O2 0.844543 0.885797 0.172193
O O3 0.000000 0.861006 0.204771
O O4 0.890682 0.759927 0.230788
O O5 0.500000 0.269210 0.546329
O O6 0.656327 0.244831 0.472091
O O7 0.647879 0.989502 0.613012
O O8 0.643659 0.122095 0.410270
O O9 0.774819 0.060431 0.520296
O O10 0.500000 0.433610 0.827312
O O11 0.607768 0.353837 0.693160
O O12 0.605390 0.480638 0.638032
O O13 0.250000 0.695964 0.250000
#
# Coordination Sequence:
#
# PCOD9478555 Si02
#       6
#    16  16  16  16  16   8
#     4   9  18  33  60  98 136 172 228 285 339 410
#     4   9  16  29  51  90 139 173 209 277 350 403
#     4  10  24  44  68  92 142 190 235 279 353 424
#     4  12  23  42  73 102 133 179 242 296 349 418
#     4  10  20  34  61 102 142 176 225 298 361 406
#     4  10  27  48  65  92 138 186 232 290 357 418
#
# _framework density 29.844083999999999
#
# number of rings (size 3 to 8) (size 9 to 14) (size 15 to 20)
#    1.636    0.364    0.000    5.182    0.000    2.909 
#    0.000    2.727    0.000    0.000    0.000    0.000 
#    0.000    0.000    0.000    0.000    0.000    0.000 
#
# Total GULP energy -245933.753817 kJ/mol
# GULP energy per Si atom -5589.403496 kJ/mol
# Density = 2.977616 g / cm^3
# Si number density = 29.844084 Si / 1000 Ang^3
#
#
#
# Elastic Constant Matrix: (Units=GPa)
#
#
# Indices 1 2 3 4 5 6 
#
# 1 203.8341 22.0136 17.3866 0.0000 0.0000 0.0000
# 2 22.0136 142.1251 43.1899 0.0000 0.0000 0.0000
# 3 17.3866 43.1899 264.6832 0.0000 0.0000 0.0000
# 4 0.0000 0.0000 0.0000 55.8500 0.0000 0.0000
# 5 0.0000 0.0000 0.0000 0.0000 -26.2584 0.0000
# 6 0.0000 0.0000 0.0000 0.0000 0.0000 76.7844
#
#
#
# Elastic Compliance Matrix: (Units=1/GPa)
#
#
# Indices 1 2 3 4 5 6 
#
# 1 0.005001 -0.000710 -0.000213 0.000000 0.000000 0.000000
# 2 -0.000710 0.007504 -0.001178 0.000000 0.000000 0.000000
# 3 -0.000213 -0.001178 0.003984 0.000000 0.000000 0.000000
# 4 0.000000 0.000000 0.000000 0.017905 0.000000 0.000000
# 5 0.000000 0.000000 0.000000 0.000000 -0.038083 0.000000
# 6 0.000000 0.000000 0.000000 0.000000 0.000000 0.013023
#
#
# Mechanical properties :
#
#
# Convention : Reuss Voigt Hill
#
# Bulk Modulus (GPa) = 81.37931 86.20251 83.79091
# Shear Modulus (GPa) = 283.58628 56.47869 170.03249
#
# Velocity S-wave (km/s) = 9.75853 4.35496 7.55627
# Velocity P-wave (km/s) = 12.42172 7.36441 10.21112
#
# Compressibility (1/GPa) = 0.01228814
#
# Stress axis : x y z
#
# Youngs Moduli (GPa) = 199.96961 133.26330 250.98752
#
# Poissons Ratio (x) = 0.09461 0.05337
# Poissons Ratio (y) = 0.14197 0.29562
# Poissons Ratio (z) = 0.04252 0.15696
#
# Static dielectric constant tensor:
#      x y z
#    x 2.102890 0.000000 0.000000 
#    y 0.000000 2.485670 0.000000 
#    z 0.000000 0.000000 2.707370 
# 
# From -- ./inp_files/16025.got.cif
#   From: 2010.05.17/outbox.cif.g08.bks.cpg/sg64_9_cif.got.tgz:16025.got - 2010.06.03 16:29:19.
