data_PCOD9478973
_publ_section_title
;
Structure prediction by ZEFSAII (Michael W. Deem and Ramdas Pophale) SiO2 
 PCOD9478973
Probable space group: C M C A
;
_chemical_formula_sum "Si O2"
_cell_formula_units_Z 104
_cell_length_a 7.733952
_cell_length_b 29.468229
_cell_length_c 19.807283
_cell_angle_alpha 90.000000
_cell_angle_beta 90.000000
_cell_angle_gamma 90.000000
_cell_volume 4514.196037
_symmetry_space_group_name_H-M "C M C A"
_symmetry_group_IT_number 64
_symmetry_cell_setting 'orthorhombic'
loop_
_space_group_symop_operation_xyz
x,y,z
-x,1/2-y,1/2+z
x,-y,-z
-x,1/2+y,1/2-z
-x,-y,-z
x,1/2+y,1/2-z
-x,y,z
x,1/2-y,1/2+z
1/2+x,1/2+y,z
1/2-x,-y,1/2+z
1/2+x,1/2-y,-z
1/2-x,y,1/2-z
1/2-x,1/2-y,-z
1/2+x,y,1/2-z
1/2-x,1/2+y,z
1/2+x,-y,1/2+z
loop_
_atom_site_type_symbol
_atom_site_label
_atom_site_fract_x
_atom_site_fract_y
_atom_site_fract_z
Si Si1 0.211254 0.003582 0.077350
Si Si2 0.296450 0.407151 0.133026
Si Si3 0.299680 0.776854 0.148741
Si Si4 0.292362 0.834311 0.024231
Si Si5 0.205955 0.582008 0.324426
Si Si6 0.250000 0.346437 0.250000
Si Si7 0.701844 0.179224 0.127079
O O1 0.270425 0.048152 0.117261
O O2 0.000000 0.004438 0.076121
O O3 0.259630 0.958045 0.117282
O O4 0.270029 0.000000 0.000000
O O5 0.500000 0.406725 0.153165
O O6 0.278954 0.377482 0.064891
O O7 0.192635 0.382242 0.192451
O O8 0.500000 0.790730 0.160992
O O9 0.256726 0.790862 0.071863
O O10 0.184125 0.808327 0.196580
O O11 0.284821 0.723627 0.159428
O O12 0.500000 0.839881 0.020736
O O13 0.226019 0.828778 0.948539
O O14 0.250000 0.564285 0.250000
O O15 0.278146 0.632481 0.333409
O O16 0.000000 0.585098 0.330527
O O17 0.500000 0.190339 0.120981
#
# Coordination Sequence:
#
# PCOD9478973 Si02
#       7
#    16  16  16  16  16   8  16
#     4   9  19  37  63  94 123 155 200 250 300 360
#     4  10  20  36  62  90 119 159 201 244 299 359
#     4  10  21  37  57  83 118 157 201 249 301 356
#     4   9  20  38  58  88 123 155 196 251 304 357
#     4  11  24  42  63  89 124 163 206 253 302 361
#     4  10  22  36  56  86 122 154 202 250 298 356
#     4  11  23  39  61  86 118 158 204 252 304 360
#
# _framework density 23.038433999999999
#
# number of rings (size 3 to 8) (size 9 to 14) (size 15 to 20)
#    0.000    2.000    0.000    2.769    2.154    6.154 
#    0.000    1.538    0.000    4.154    0.000    0.000 
#    0.000    0.000    0.000    0.000    0.000    0.000 
#
# Total GULP energy -290188.762908 kJ/mol
# GULP energy per Si atom -5580.553133 kJ/mol
# Density = 2.298600 g / cm^3
# Si number density = 23.038434 Si / 1000 Ang^3
#
#
#
# Elastic Constant Matrix: (Units=GPa)
#
#
# Indices 1 2 3 4 5 6 
#
# 1 70.4281 10.4594 9.3162 0.0000 0.0000 0.0000
# 2 10.4594 142.4313 29.1799 0.0000 0.0000 0.0000
# 3 9.3162 29.1799 118.7677 0.0000 0.0000 0.0000
# 4 0.0000 0.0000 0.0000 11.2630 0.0000 0.0000
# 5 0.0000 0.0000 0.0000 0.0000 -1.7744 0.0000
# 6 0.0000 0.0000 0.0000 0.0000 0.0000 -14.0376
#
#
#
# Elastic Compliance Matrix: (Units=1/GPa)
#
#
# Indices 1 2 3 4 5 6 
#
# 1 0.014450 -0.000873 -0.000919 0.000000 0.000000 0.000000
# 2 -0.000873 0.007446 -0.001761 0.000000 0.000000 0.000000
# 3 -0.000919 -0.001761 0.008925 0.000000 0.000000 0.000000
# 4 0.000000 0.000000 0.000000 0.088787 0.000000 0.000000
# 5 0.000000 0.000000 0.000000 0.000000 -0.563581 0.000000
# 6 0.000000 0.000000 0.000000 0.000000 0.000000 -0.071237
#
#
# Mechanical properties :
#
#
# Convention : Reuss Voigt Hill
#
# Bulk Modulus (GPa) = 42.16768 47.72647 44.94708
# Shear Modulus (GPa) = -9.99599 17.93497 3.96949
#
# Velocity S-wave (km/s) = -2.08525 2.79315 1.31405
# Velocity P-wave (km/s) = 3.54193 5.58241 4.67485
#
# Compressibility (1/GPa) = 0.02371484
#
# Stress axis : x y z
#
# Youngs Moduli (GPa) = 69.20382 134.30428 112.05095
#
# Poissons Ratio (x) = 0.11723 0.10298
# Poissons Ratio (y) = 0.06040 0.19731
# Poissons Ratio (z) = 0.06360 0.23649
#
# Static dielectric constant tensor:
#      x y z
#    x 1.954640 0.000000 0.000000 
#    y 0.000000 1.812230 0.000000 
#    z 0.000000 0.000000 1.965640 
# 
# From -- ./inp_files/37254.got.cif
#   From: 2010.05.17/outbox.cif.g08.bks.cpg/sg64_19_cif.got.tgz:37254.got - 2010.06.03 16:29:19.
