data_PCOD9478397
_publ_section_title
;
Structure prediction by ZEFSAII (Michael W. Deem and Ramdas Pophale) SiO2 
 PCOD9478397
Probable space group: C M C A
;
_chemical_formula_sum "Si O2"
_cell_formula_units_Z 96
_cell_length_a 7.497158
_cell_length_b 20.338832
_cell_length_c 28.458449
_cell_angle_alpha 90.000000
_cell_angle_beta 90.000000
_cell_angle_gamma 90.000000
_cell_volume 4339.442116
_symmetry_space_group_name_H-M "C M C A"
_symmetry_group_IT_number 64
_symmetry_cell_setting 'orthorhombic'
loop_
_space_group_symop_operation_xyz
x,y,z
-x,1/2-y,1/2+z
x,-y,-z
-x,1/2+y,1/2-z
-x,-y,-z
x,1/2+y,1/2-z
-x,y,z
x,1/2-y,1/2+z
1/2+x,1/2+y,z
1/2-x,-y,1/2+z
1/2+x,1/2-y,-z
1/2-x,y,1/2-z
1/2-x,1/2-y,-z
1/2+x,y,1/2-z
1/2-x,1/2+y,z
1/2+x,-y,1/2+z
loop_
_atom_site_type_symbol
_atom_site_label
_atom_site_fract_x
_atom_site_fract_y
_atom_site_fract_z
Si Si1 0.212035 0.809496 0.196837
Si Si2 0.218128 0.665628 0.167191
Si Si3 0.295367 0.421156 0.375494
Si Si4 0.787769 0.310143 0.937263
Si Si5 0.786122 0.475119 0.802167
Si Si6 0.715692 0.658864 0.539086
O O1 0.250000 0.830211 0.250000
O O2 0.275500 0.734528 0.189711
O O3 0.295498 0.858282 0.159076
O O4 0.000000 0.811185 0.188652
O O5 0.278145 0.665122 0.112866
O O6 0.279084 0.599683 0.192816
O O7 0.000000 0.665957 0.167940
O O8 0.500000 0.440217 0.385811
O O9 0.214420 0.479286 0.344121
O O10 0.215872 0.395609 0.424508
O O11 0.757981 0.231827 0.941681
O O12 0.000000 0.320854 0.937046
O O13 0.717966 0.342474 0.985368
O O14 0.750000 0.501005 0.750000
O O15 0.000000 0.474382 0.807016
O O16 0.500000 0.654246 0.538222
#
# Coordination Sequence:
#
# PCOD9478397 Si02
#       6
#    16  16  16  16  16  16
#     4  11  21  33  51  74  99 128 167 213 256 297
#     4   9  18  33  52  74  99 131 168 207 250 298
#     4  10  20  34  51  75 104 133 166 207 252 298
#     4   9  16  30  51  75 102 132 164 201 250 302
#     4  10  21  37  53  70  99 136 172 208 251 302
#     4   9  17  29  49  77 105 130 162 204 249 297
#
# _framework density 22.12266
#
# number of rings (size 3 to 8) (size 9 to 14) (size 15 to 20)
#    0.000    2.333    1.667    1.500    0.000    2.000 
#    0.000    2.500    0.000    5.000    0.000    0.000 
#    0.000    8.000    0.000    0.000    0.000    0.000 
#
# Total GULP energy -268036.787954 kJ/mol
# GULP energy per Si atom -5584.099749 kJ/mol
# Density = 2.207231 g / cm^3
# Si number density = 22.122660 Si / 1000 Ang^3
#
#
#
# Elastic Constant Matrix: (Units=GPa)
#
#
# Indices 1 2 3 4 5 6 
#
# 1 62.0224 -6.3031 -4.8000 0.0000 0.0000 0.0000
# 2 -6.3031 56.1446 -5.1902 0.0000 0.0000 0.0000
# 3 -4.8000 -5.1902 91.4931 0.0000 0.0000 0.0000
# 4 0.0000 0.0000 0.0000 28.0382 0.0000 0.0000
# 5 0.0000 0.0000 0.0000 0.0000 5.0099 0.0000
# 6 0.0000 0.0000 0.0000 0.0000 0.0000 6.8776
#
#
#
# Elastic Compliance Matrix: (Units=1/GPa)
#
#
# Indices 1 2 3 4 5 6 
#
# 1 0.016394 0.001930 0.000970 0.000000 0.000000 0.000000
# 2 0.001930 0.018132 0.001130 0.000000 0.000000 0.000000
# 3 0.000970 0.001130 0.011045 0.000000 0.000000 0.000000
# 4 0.000000 0.000000 0.000000 0.035666 0.000000 0.000000
# 5 0.000000 0.000000 0.000000 0.000000 0.199606 0.000000
# 6 0.000000 0.000000 0.000000 0.000000 0.000000 0.145399
#
#
# Mechanical properties :
#
#
# Convention : Reuss Voigt Hill
#
# Bulk Modulus (GPa) = 18.64602 19.67481 19.16041
# Shear Modulus (GPa) = 11.46633 23.04870 17.25752
#
# Velocity S-wave (km/s) = 2.27911 3.23129 2.79603
# Velocity P-wave (km/s) = 3.92078 4.77854 4.37075
#
# Compressibility (1/GPa) = 0.05363075
#
# Stress axis : x y z
#
# Youngs Moduli (GPa) = 60.99640 55.15018 90.54072
#
# Poissons Ratio (x) = -0.10645 -0.08779
# Poissons Ratio (y) = -0.11773 -0.10230
# Poissons Ratio (z) = -0.05914 -0.06231
#
# Static dielectric constant tensor:
#      x y z
#    x 1.840120 0.000000 0.000000 
#    y 0.000000 1.791790 0.000000 
#    z 0.000000 0.000000 1.814700 
# 
# From -- ./inp_files/48097.got.cif
#   From: 2010.05.17/outbox.cif.g08.bks.cpg/sg64_25_cif.got.tgz:48097.got - 2010.06.03 16:29:19.
