data_PCOD9478592
_publ_section_title
;
Structure prediction by ZEFSAII (Michael W. Deem and Ramdas Pophale) SiO2 
 PCOD9478592
Probable space group: C M C A
;
_chemical_formula_sum "Si O2"
_cell_formula_units_Z 112
_cell_length_a 15.661848
_cell_length_b 30.113881
_cell_length_c 11.831143
_cell_angle_alpha 90.000000
_cell_angle_beta 90.000000
_cell_angle_gamma 90.000000
_cell_volume 5580.028772
_symmetry_space_group_name_H-M "C M C A"
_symmetry_group_IT_number 64
_symmetry_cell_setting 'orthorhombic'
loop_
_space_group_symop_operation_xyz
x,y,z
-x,1/2-y,1/2+z
x,-y,-z
-x,1/2+y,1/2-z
-x,-y,-z
x,1/2+y,1/2-z
-x,y,z
x,1/2-y,1/2+z
1/2+x,1/2+y,z
1/2-x,-y,1/2+z
1/2+x,1/2-y,-z
1/2-x,y,1/2-z
1/2-x,1/2-y,-z
1/2+x,y,1/2-z
1/2-x,1/2+y,z
1/2+x,-y,1/2+z
loop_
_atom_site_type_symbol
_atom_site_label
_atom_site_fract_x
_atom_site_fract_y
_atom_site_fract_z
Si Si1 0.652682 0.857241 0.518930
Si Si2 0.903575 0.663782 0.838659
Si Si3 0.147254 0.393542 0.755527
Si Si4 0.094394 0.551409 0.036111
Si Si5 0.904790 0.276329 0.372527
Si Si6 0.334854 0.314643 0.580198
Si Si7 0.768444 0.910753 0.363628
O O1 0.617054 0.883478 0.627726
O O2 0.601349 0.817998 0.458000
O O3 0.739414 0.832216 0.558535
O O4 0.684730 0.892528 0.425855
O O5 0.892646 0.703896 0.751916
O O6 0.828465 0.628927 0.817389
O O7 0.000000 0.646669 0.821079
O O8 0.889181 0.678565 0.966853
O O9 0.250000 0.400652 0.750000
O O10 0.110425 0.433142 0.834116
O O11 0.130640 0.347754 0.823830
O O12 0.000000 0.569607 0.006149
O O13 0.092474 0.500000 0.000000
O O14 0.171813 0.570015 0.961846
O O15 0.838509 0.237013 0.391666
O O16 0.000000 0.256907 0.381463
O O17 0.750000 0.938712 0.250000
#
# Coordination Sequence:
#
# PCOD9478592 Si02
#       7
#    16  16  16  16  16  16  16
#     4  10  21  39  59  84 116 161 208 256 305 365
#     4  10  20  35  55  78 115 157 201 255 298 352
#     4  10  20  40  64  87 120 161 201 253 313 373
#     4  11  24  42  68  98 123 153 199 256 316 385
#     4  11  23  35  50  83 122 160 213 264 308 356
#     4  10  21  35  56  80 113 161 211 249 303 354
#     4  11  20  39  63  89 117 160 203 244 308 367
#
# _framework density 20.071580999999998
#
# number of rings (size 3 to 8) (size 9 to 14) (size 15 to 20)
#    0.000    1.571    5.714    1.286    2.000    1.714 
#    7.714    0.000    0.000    0.000    0.000    2.000 
#    0.000    0.000    0.000    0.000    0.000    0.000 
#
# Total GULP energy -312203.996323 kJ/mol
# GULP energy per Si atom -5575.071363 kJ/mol
# Density = 2.002590 g / cm^3
# Si number density = 20.071581 Si / 1000 Ang^3
#
#
#
# Elastic Constant Matrix: (Units=GPa)
#
#
# Indices 1 2 3 4 5 6 
#
# 1 29.2843 7.0595 13.5515 0.0000 0.0000 0.0000
# 2 7.0595 59.1432 32.8286 0.0000 0.0000 0.0000
# 3 13.5515 32.8286 143.9120 0.0000 0.0000 0.0000
# 4 0.0000 0.0000 0.0000 7.2479 0.0000 0.0000
# 5 0.0000 0.0000 0.0000 0.0000 18.9777 0.0000
# 6 0.0000 0.0000 0.0000 0.0000 0.0000 6.0997
#
#
#
# Elastic Compliance Matrix: (Units=1/GPa)
#
#
# Indices 1 2 3 4 5 6 
#
# 1 0.036097 -0.002773 -0.002766 0.000000 0.000000 0.000000
# 2 -0.002773 0.019572 -0.004204 0.000000 0.000000 0.000000
# 3 -0.002766 -0.004204 0.008168 0.000000 0.000000 0.000000
# 4 0.000000 0.000000 0.000000 0.137970 0.000000 0.000000
# 5 0.000000 0.000000 0.000000 0.000000 0.052693 0.000000
# 6 0.000000 0.000000 0.000000 0.000000 0.000000 0.163942
#
#
# Mechanical properties :
#
#
# Convention : Reuss Voigt Hill
#
# Bulk Modulus (GPa) = 22.54742 37.69094 30.11918
# Shear Modulus (GPa) = 11.04454 18.39174 14.71814
#
# Velocity S-wave (km/s) = 2.34830 3.03034 2.71086
# Velocity P-wave (km/s) = 4.31400 5.57342 4.98365
#
# Compressibility (1/GPa) = 0.04435098
#
# Stress axis : x y z
#
# Youngs Moduli (GPa) = 27.70336 51.09230 122.42726
#
# Poissons Ratio (x) = 0.14168 0.33869
# Poissons Ratio (y) = 0.07682 0.51464
# Poissons Ratio (z) = 0.07664 0.21477
#
# Static dielectric constant tensor:
#      x y z
#    x 1.732140 0.000000 0.000000 
#    y 0.000000 1.715190 0.000000 
#    z 0.000000 0.000000 1.745970 
# 
# From -- ./inp_files/15016.got.cif
#   From: 2010.05.17/outbox.cif.g08.bks.cpg/sg64_8_cif.got.tgz:15016.got - 2010.06.03 16:29:19.
