data_PCOD9478104
_publ_section_title
;
Structure prediction by ZEFSAII (Michael W. Deem and Ramdas Pophale) SiO2 
 PCOD9478104
Probable space group: C M C A
;
_chemical_formula_sum "Si O2"
_cell_formula_units_Z 88
_cell_length_a 28.247389
_cell_length_b 17.219205
_cell_length_c 9.160770
_cell_angle_alpha 90.000000
_cell_angle_beta 90.000000
_cell_angle_gamma 90.000000
_cell_volume 4455.776376
_symmetry_space_group_name_H-M "C M C A"
_symmetry_group_IT_number 64
_symmetry_cell_setting 'orthorhombic'
loop_
_space_group_symop_operation_xyz
x,y,z
-x,1/2-y,1/2+z
x,-y,-z
-x,1/2+y,1/2-z
-x,-y,-z
x,1/2+y,1/2-z
-x,y,z
x,1/2-y,1/2+z
1/2+x,1/2+y,z
1/2-x,-y,1/2+z
1/2+x,1/2-y,-z
1/2-x,y,1/2-z
1/2-x,1/2-y,-z
1/2+x,y,1/2-z
1/2-x,1/2+y,z
1/2+x,-y,1/2+z
loop_
_atom_site_type_symbol
_atom_site_label
_atom_site_fract_x
_atom_site_fract_y
_atom_site_fract_z
Si Si1 0.170778 0.342358 0.361821
Si Si2 0.835156 0.542911 0.146682
Si Si3 0.406640 0.970418 0.353522
Si Si4 0.552428 0.412024 0.435420
Si Si5 0.352486 0.815710 0.019830
Si Si6 0.250000 0.566021 0.750000
O O1 0.134314 0.410499 0.399532
O O2 0.157098 0.269920 0.461106
O O3 0.223595 0.378440 0.366920
O O4 0.163116 0.323869 0.188611
O O5 0.876805 0.535843 0.264924
O O6 0.824170 0.628574 0.092362
O O7 0.790763 0.491195 0.193490
O O8 0.852388 0.500000 0.000000
O O9 0.439035 0.927228 0.236519
O O10 0.430627 0.000000 0.500000
O O11 0.552708 0.500000 0.500000
O O12 0.500000 0.379928 0.464857
O O13 0.594136 0.352927 0.485890
#
# Coordination Sequence:
#
# PCOD9478104 Si02
#       6
#    16  16  16  16  16   8
#     4  10  24  38  58  86 124 161 210 251 300 372
#     4  11  19  41  62  80 119 164 206 251 305 365
#     4  10  20  37  60  91 125 160 207 251 309 355
#     4  10  19  37  67  92 116 158 207 245 300 379
#     4  11  21  42  59  86 125 162 196 253 320 357
#     4  10  22  38  56  92 110 160 222 256 290 356
#
# _framework density 19.749644
#
# number of rings (size 3 to 8) (size 9 to 14) (size 15 to 20)
#    0.000    1.636    7.273    0.000    2.545    4.727 
#    0.000    3.636    0.000    0.000    0.000    0.000 
#    0.000    0.000    0.000    0.000    0.000    0.000 
#
# Total GULP energy -245104.104092 kJ/mol
# GULP energy per Si atom -5570.547820 kJ/mol
# Density = 1.970469 g / cm^3
# Si number density = 19.749644 Si / 1000 Ang^3
#
#
#
# Elastic Constant Matrix: (Units=GPa)
#
#
# Indices 1 2 3 4 5 6 
#
# 1 102.5635 2.2699 8.8958 0.0000 0.0000 0.0000
# 2 2.2699 31.3586 17.3144 0.0000 0.0000 0.0000
# 3 8.8958 17.3144 74.2156 0.0000 0.0000 0.0000
# 4 0.0000 0.0000 0.0000 31.1703 0.0000 0.0000
# 5 0.0000 0.0000 0.0000 0.0000 6.4060 0.0000
# 6 0.0000 0.0000 0.0000 0.0000 0.0000 11.8323
#
#
#
# Elastic Compliance Matrix: (Units=1/GPa)
#
#
# Indices 1 2 3 4 5 6 
#
# 1 0.009853 -0.000070 -0.001165 0.000000 0.000000 0.000000
# 2 -0.000070 0.036605 -0.008531 0.000000 0.000000 0.000000
# 3 -0.001165 -0.008531 0.015604 0.000000 0.000000 0.000000
# 4 0.000000 0.000000 0.000000 0.032082 0.000000 0.000000
# 5 0.000000 0.000000 0.000000 0.000000 0.156104 0.000000
# 6 0.000000 0.000000 0.000000 0.000000 0.000000 0.084515
#
#
# Mechanical properties :
#
#
# Convention : Reuss Voigt Hill
#
# Bulk Modulus (GPa) = 23.51323 29.45533 26.48428
# Shear Modulus (GPa) = 13.56960 21.85889 17.71425
#
# Velocity S-wave (km/s) = 2.62407 3.33047 2.99814
# Velocity P-wave (km/s) = 4.59483 5.45308 5.04225
#
# Compressibility (1/GPa) = 0.04252925
#
# Stress axis : x y z
#
# Youngs Moduli (GPa) = 101.49578 27.31876 64.08518
#
# Poissons Ratio (x) = 0.00192 0.07463
# Poissons Ratio (y) = 0.00712 0.54674
# Poissons Ratio (z) = 0.11820 0.23307
#
# Static dielectric constant tensor:
#      x y z
#    x 1.758620 0.000000 0.000000 
#    y 0.000000 1.736150 0.000000 
#    z 0.000000 0.000000 1.738210 
# 
# From -- ./inp_files/11072.got.cif
#   From: 2010.05.17/outbox.cif.g08.bks.cpg/sg64_6_cif.got.tgz:11072.got - 2010.06.03 16:29:19.
