data_PCOD9478071
_publ_section_title
;
Structure prediction by ZEFSAII (Michael W. Deem and Ramdas Pophale) SiO2 
 PCOD9478071
Probable space group: C M C A
;
_chemical_formula_sum "Si O2"
_cell_formula_units_Z 112
_cell_length_a 22.353496
_cell_length_b 16.630499
_cell_length_c 16.037084
_cell_angle_alpha 90.000000
_cell_angle_beta 90.000000
_cell_angle_gamma 90.000000
_cell_volume 5961.782655
_symmetry_space_group_name_H-M "C M C A"
_symmetry_group_IT_number 64
_symmetry_cell_setting 'orthorhombic'
loop_
_space_group_symop_operation_xyz
x,y,z
-x,1/2-y,1/2+z
x,-y,-z
-x,1/2+y,1/2-z
-x,-y,-z
x,1/2+y,1/2-z
-x,y,z
x,1/2-y,1/2+z
1/2+x,1/2+y,z
1/2-x,-y,1/2+z
1/2+x,1/2-y,-z
1/2-x,y,1/2-z
1/2-x,1/2-y,-z
1/2+x,y,1/2-z
1/2-x,1/2+y,z
1/2+x,-y,1/2+z
loop_
_atom_site_type_symbol
_atom_site_label
_atom_site_fract_x
_atom_site_fract_y
_atom_site_fract_z
Si Si1 0.734281 0.410467 0.463522
Si Si2 0.072085 0.749234 0.928206
Si Si3 0.155219 0.845594 0.142037
Si Si4 0.428625 0.409657 0.011317
Si Si5 0.646651 0.174185 0.081005
Si Si6 0.868050 0.617573 0.826981
Si Si7 0.068739 0.474453 0.902793
O O1 0.740824 0.500000 0.500000
O O2 0.793899 0.377778 0.420540
O O3 0.707671 0.353737 0.536209
O O4 0.683759 0.406285 0.391951
O O5 0.087800 0.843261 0.941215
O O6 0.103228 0.703429 0.851926
O O7 0.000000 0.740261 0.926492
O O8 0.100750 0.705049 0.008928
O O9 0.157490 0.749067 0.140869
O O10 0.157591 0.879576 0.234534
O O11 0.094285 0.874354 0.098326
O O12 0.500000 0.413082 0.011362
O O13 0.405010 0.500000 0.000000
O O14 0.614375 0.096550 0.118720
O O15 0.918430 0.550722 0.844670
O O16 0.000000 0.448405 0.896570
O O17 0.079261 0.500000 0.000000
#
# Coordination Sequence:
#
# PCOD9478071 Si02
#       7
#    16  16  16  16  16  16  16
#     4  11  20  40  66  86 113 160 209 252 288 357
#     4   9  17  32  58  83 109 151 199 242 290 351
#     4  11  24  36  59  85 124 156 193 246 318 357
#     4   9  19  38  57  77 110 157 206 242 281 358
#     4  10  19  37  59  89 115 153 205 247 288 362
#     4  11  21  37  56  89 127 151 191 255 313 356
#     4  11  19  35  66  93 118 157 204 251 300 357
#
# _framework density 18.786328000000001
#
# number of rings (size 3 to 8) (size 9 to 14) (size 15 to 20)
#    0.000    1.714    4.286    2.143    0.000    1.714 
#    2.571    0.000    3.143    0.000    0.000    0.000 
#    0.000    0.000    0.000    0.000    0.000    0.000 
#
# Total GULP energy -312391.763316 kJ/mol
# GULP energy per Si atom -5578.424345 kJ/mol
# Density = 1.874357 g / cm^3
# Si number density = 18.786328 Si / 1000 Ang^3
#
#
#
# Elastic Constant Matrix: (Units=GPa)
#
#
# Indices 1 2 3 4 5 6 
#
# 1 46.5646 32.8136 18.8713 0.0000 0.0000 0.0000
# 2 32.8136 135.7059 40.0418 0.0000 0.0000 0.0000
# 3 18.8713 40.0418 61.0712 0.0000 0.0000 0.0000
# 4 0.0000 0.0000 0.0000 19.2245 0.0000 0.0000
# 5 0.0000 0.0000 0.0000 0.0000 7.8225 0.0000
# 6 0.0000 0.0000 0.0000 0.0000 0.0000 21.6457
#
#
#
# Elastic Compliance Matrix: (Units=1/GPa)
#
#
# Indices 1 2 3 4 5 6 
#
# 1 0.027089 -0.005059 -0.005054 0.000000 0.000000 0.000000
# 2 -0.005059 0.010081 -0.005047 0.000000 0.000000 0.000000
# 3 -0.005054 -0.005047 0.021245 0.000000 0.000000 0.000000
# 4 0.000000 0.000000 0.000000 0.052017 0.000000 0.000000
# 5 0.000000 0.000000 0.000000 0.000000 0.127837 0.000000
# 6 0.000000 0.000000 0.000000 0.000000 0.000000 0.046199
#
#
# Mechanical properties :
#
#
# Convention : Reuss Voigt Hill
#
# Bulk Modulus (GPa) = 35.59180 47.42168 41.50674
# Shear Modulus (GPa) = 15.42493 19.84621 17.63557
#
# Velocity S-wave (km/s) = 2.86854 3.25378 3.06722
# Velocity P-wave (km/s) = 5.47340 6.27803 5.88947
#
# Compressibility (1/GPa) = 0.02809636
#
# Stress axis : x y z
#
# Youngs Moduli (GPa) = 36.91594 99.19498 47.07050
#
# Poissons Ratio (x) = 0.50181 0.23788
# Poissons Ratio (y) = 0.18675 0.23754
# Poissons Ratio (z) = 0.18656 0.50059
#
# Static dielectric constant tensor:
#      x y z
#    x 1.676450 0.000000 0.000000 
#    y 0.000000 1.685000 0.000000 
#    z 0.000000 0.000000 1.627640 
# 
# From -- ./inp_files/27410.got.cif
#   From: 2010.05.17/outbox.cif.g08.bks.cpg/sg64_14_cif.got.tgz:27410.got - 2010.06.03 16:29:19.
