data_PCOD9478766
_publ_section_title
;
Structure prediction by ZEFSAII (Michael W. Deem and Ramdas Pophale) SiO2 
 PCOD9478766
Probable space group: C M C A
;
_chemical_formula_sum "Si O2"
_cell_formula_units_Z 80
_cell_length_a 32.290661
_cell_length_b 5.022746
_cell_length_c 24.709985
_cell_angle_alpha 90.000000
_cell_angle_beta 90.000000
_cell_angle_gamma 90.000000
_cell_volume 4007.657818
_symmetry_space_group_name_H-M "C M C A"
_symmetry_group_IT_number 64
_symmetry_cell_setting 'orthorhombic'
loop_
_space_group_symop_operation_xyz
x,y,z
-x,1/2-y,1/2+z
x,-y,-z
-x,1/2+y,1/2-z
-x,-y,-z
x,1/2+y,1/2-z
-x,y,z
x,1/2-y,1/2+z
1/2+x,1/2+y,z
1/2-x,-y,1/2+z
1/2+x,1/2-y,-z
1/2-x,y,1/2-z
1/2-x,1/2-y,-z
1/2+x,y,1/2-z
1/2-x,1/2+y,z
1/2+x,-y,1/2+z
loop_
_atom_site_type_symbol
_atom_site_label
_atom_site_fract_x
_atom_site_fract_y
_atom_site_fract_z
Si Si1 0.775803 0.004421 0.064972
Si Si2 0.909942 0.873572 0.559957
Si Si3 0.500000 0.245656 0.040390
Si Si4 0.000000 0.969747 0.213642
Si Si5 0.589529 0.420593 0.787924
Si Si6 0.134692 0.618853 0.394561
O O1 0.738360 0.206069 0.078260
O O2 0.816810 0.112613 0.093414
O O3 0.782649 0.000000 0.000000
O O4 0.884477 0.602844 0.565603
O O5 0.957344 0.791019 0.572870
O O6 0.909055 0.000000 0.500000
O O7 0.888288 0.099951 0.596052
O O8 0.500000 0.500000 0.000000
O O9 0.500000 0.000000 0.000000
O O10 0.043512 0.040625 0.186516
O O11 0.000000 0.164744 0.266671
O O12 0.592441 0.634016 0.739779
O O13 0.623201 0.464857 0.833804
#
# Coordination Sequence:
#
# PCOD9478766 Si02
#       6
#    16  16   8   8  16  16
#     4  10  21  38  60  86 117 148 184 240 305 367
#     4  11  22  36  55  84 120 154 194 238 283 349
#     4  10  20  36  52  76 122 168 192 225 280 341
#     4   8  16  32  54  76 105 144 187 239 290 325
#     4  10  21  38  57  82 116 152 196 249 294 341
#     4  12  23  37  62  88 112 154 201 244 299 357
#
# _framework density 19.961781999999999
#
# number of rings (size 3 to 8) (size 9 to 14) (size 15 to 20)
#    0.000    1.600    0.000    6.600    0.000    3.200 
#    0.000    2.000    0.000    3.600    0.000    0.000 
#    0.000    0.000    0.000    0.000    0.000    0.000 
#
# Total GULP energy -223336.433444 kJ/mol
# GULP energy per Si atom -5583.410836 kJ/mol
# Density = 1.991635 g / cm^3
# Si number density = 19.961782 Si / 1000 Ang^3
#
#
#
# Elastic Constant Matrix: (Units=GPa)
#
#
# Indices 1 2 3 4 5 6 
#
# 1 124.0302 21.9583 31.7305 0.0000 0.0000 0.0000
# 2 21.9583 105.6358 4.1504 0.0000 0.0000 0.0000
# 3 31.7305 4.1504 47.0184 0.0000 0.0000 0.0000
# 4 0.0000 0.0000 0.0000 20.4775 0.0000 0.0000
# 5 0.0000 0.0000 0.0000 0.0000 140.3521 0.0000
# 6 0.0000 0.0000 0.0000 0.0000 0.0000 24.2988
#
#
#
# Elastic Compliance Matrix: (Units=1/GPa)
#
#
# Indices 1 2 3 4 5 6 
#
# 1 0.010088 -0.001836 -0.006646 0.000000 0.000000 0.000000
# 2 -0.001836 0.009834 0.000371 0.000000 0.000000 0.000000
# 3 -0.006646 0.000371 0.025720 0.000000 0.000000 0.000000
# 4 0.000000 0.000000 0.000000 0.048834 0.000000 0.000000
# 5 0.000000 0.000000 0.000000 0.000000 0.007125 0.000000
# 6 0.000000 0.000000 0.000000 0.000000 0.000000 0.041154
#
#
# Mechanical properties :
#
#
# Convention : Reuss Voigt Hill
#
# Bulk Modulus (GPa) = 33.99001 43.59587 38.79294
# Shear Modulus (GPa) = 29.62384 51.61535 40.61959
#
# Velocity S-wave (km/s) = 3.85649 5.09050 4.51584
# Velocity P-wave (km/s) = 6.07408 7.51253 6.83127
#
# Compressibility (1/GPa) = 0.02942041
#
# Stress axis : x y z
#
# Youngs Moduli (GPa) = 99.13035 101.69291 38.87967
#
# Poissons Ratio (x) = 0.18669 0.25838
# Poissons Ratio (y) = 0.18198 -0.01442
# Poissons Ratio (z) = 0.65879 -0.03772
#
# Static dielectric constant tensor:
#      x y z
#    x 1.756740 0.000000 0.000000 
#    y 0.000000 1.708490 0.000000 
#    z 0.000000 0.000000 1.729230 
# 
# From -- ./inp_files/47057.got.cif
#   From: 2010.05.17/outbox.cif.g08.bks.cpg/sg64_24_cif.got.tgz:47057.got - 2010.06.03 16:29:19.
