data_PCOD9478063
_publ_section_title
;
Structure prediction by ZEFSAII (Michael W. Deem and Ramdas Pophale) SiO2 
 PCOD9478063
Probable space group: C M C A
;
_chemical_formula_sum "Si O2"
_cell_formula_units_Z 104
_cell_length_a 24.999872
_cell_length_b 18.907599
_cell_length_c 8.822171
_cell_angle_alpha 90.000000
_cell_angle_beta 90.000000
_cell_angle_gamma 90.000000
_cell_volume 4170.130438
_symmetry_space_group_name_H-M "C M C A"
_symmetry_group_IT_number 64
_symmetry_cell_setting 'orthorhombic'
loop_
_space_group_symop_operation_xyz
x,y,z
-x,1/2-y,1/2+z
x,-y,-z
-x,1/2+y,1/2-z
-x,-y,-z
x,1/2+y,1/2-z
-x,y,z
x,1/2-y,1/2+z
1/2+x,1/2+y,z
1/2-x,-y,1/2+z
1/2+x,1/2-y,-z
1/2-x,y,1/2-z
1/2-x,1/2-y,-z
1/2+x,y,1/2-z
1/2-x,1/2+y,z
1/2+x,-y,1/2+z
loop_
_atom_site_type_symbol
_atom_site_label
_atom_site_fract_x
_atom_site_fract_y
_atom_site_fract_z
Si Si1 0.061775 0.390460 0.033371
Si Si2 0.768431 0.080362 0.527644
Si Si3 0.849170 0.380806 0.776104
Si Si4 0.162250 0.338994 0.449228
Si Si5 0.000000 0.703285 0.428928
Si Si6 0.922349 0.231786 0.785810
Si Si7 0.366540 0.039465 0.751331
O O1 0.067241 0.326134 0.153430
O O2 0.083012 0.455165 0.135985
O O3 0.000000 0.396832 0.989511
O O4 0.103599 0.374661 0.900286
O O5 0.795999 0.111390 0.377465
O O6 0.723027 0.135238 0.575503
O O7 0.816161 0.066451 0.647295
O O8 0.746640 0.000000 0.500000
O O9 0.844488 0.331715 0.629069
O O10 0.857106 0.459571 0.707774
O O11 0.138543 0.274913 0.349200
O O12 0.128629 0.406047 0.385034
O O13 0.953313 0.704247 0.295846
O O14 0.954594 0.709969 0.563847
#
# Coordination Sequence:
#
# PCOD9478063 Si02
#       7
#    16  16  16  16   8  16  16
#     4  10  19  37  55  82 119 150 208 255 292 344
#     4   9  17  32  55  84 127 181 223 243 267 316
#     4  10  20  31  51  89 130 179 213 233 275 330
#     4  11  20  33  53  90 126 151 201 259 281 334
#     4  10  20  46  66  80 104 132 178 248 326 392
#     4  10  23  39  67  90 104 137 186 254 317 381
#     4   9  19  32  53  83 126 181 222 234 267 325
#
# _framework density 24.939267999999998
#
# number of rings (size 3 to 8) (size 9 to 14) (size 15 to 20)
#    0.000    2.154    1.538    3.692    0.000    6.154 
#    2.769    0.000    0.000    2.769    0.000   56.000 
#    0.000    0.000    0.000    0.000    0.000    0.000 
#
# Total GULP energy -289486.147372 kJ/mol
# GULP energy per Si atom -5567.041296 kJ/mol
# Density = 2.488250 g / cm^3
# Si number density = 24.939268 Si / 1000 Ang^3
#
#
#
# Elastic Constant Matrix: (Units=GPa)
#
#
# Indices 1 2 3 4 5 6 
#
# 1 152.2481 24.2247 61.1960 0.0000 0.0000 0.0000
# 2 24.2247 31.8456 44.4940 0.0000 0.0000 0.0000
# 3 61.1960 44.4940 175.2835 0.0000 0.0000 0.0000
# 4 0.0000 0.0000 0.0000 45.7960 0.0000 0.0000
# 5 0.0000 0.0000 0.0000 0.0000 47.7779 0.0000
# 6 0.0000 0.0000 0.0000 0.0000 0.0000 -14.1002
#
#
#
# Elastic Compliance Matrix: (Units=1/GPa)
#
#
# Indices 1 2 3 4 5 6 
#
# 1 0.007861 -0.003324 -0.001901 0.000000 0.000000 0.000000
# 2 -0.003324 0.050065 -0.011548 0.000000 0.000000 0.000000
# 3 -0.001901 -0.011548 0.009300 0.000000 0.000000 0.000000
# 4 0.000000 0.000000 0.000000 0.021836 0.000000 0.000000
# 5 0.000000 0.000000 0.000000 0.000000 0.020930 0.000000
# 6 0.000000 0.000000 0.000000 0.000000 0.000000 -0.070921
#
#
# Mechanical properties :
#
#
# Convention : Reuss Voigt Hill
#
# Bulk Modulus (GPa) = 29.69111 68.80073 49.24592
# Shear Modulus (GPa) = 59.63485 31.19223 45.41354
#
# Velocity S-wave (km/s) = 4.89530 3.54040 4.27191
# Velocity P-wave (km/s) = 6.62443 6.66031 6.64240
#
# Compressibility (1/GPa) = 0.03368011
#
# Stress axis : x y z
#
# Youngs Moduli (GPa) = 127.20787 19.97414 107.52772
#
# Poissons Ratio (x) = 0.06640 0.20438
# Poissons Ratio (y) = 0.42288 1.24171
# Poissons Ratio (z) = 0.24178 0.23066
#
# Static dielectric constant tensor:
#      x y z
#    x 2.034240 0.000000 0.000000 
#    y 0.000000 2.131360 0.000000 
#    z 0.000000 0.000000 1.949620 
# 
# From -- ./inp_files/9777.got.cif
#   From: 2010.05.17/outbox.cif.g08.bks.cpg/sg64_5_cif.got.tgz:9777.got - 2010.06.03 16:29:19.
