data_PCOD9478757
_publ_section_title
;
Structure prediction by ZEFSAII (Michael W. Deem and Ramdas Pophale) SiO2 
 PCOD9478757
Probable space group: C M C A
;
_chemical_formula_sum "Si O2"
_cell_formula_units_Z 80
_cell_length_a 29.962282
_cell_length_b 8.929269
_cell_length_c 17.644183
_cell_angle_alpha 90.000000
_cell_angle_beta 90.000000
_cell_angle_gamma 90.000000
_cell_volume 4720.547231
_symmetry_space_group_name_H-M "C M C A"
_symmetry_group_IT_number 64
_symmetry_cell_setting 'orthorhombic'
loop_
_space_group_symop_operation_xyz
x,y,z
-x,1/2-y,1/2+z
x,-y,-z
-x,1/2+y,1/2-z
-x,-y,-z
x,1/2+y,1/2-z
-x,y,z
x,1/2-y,1/2+z
1/2+x,1/2+y,z
1/2-x,-y,1/2+z
1/2+x,1/2-y,-z
1/2-x,y,1/2-z
1/2-x,1/2-y,-z
1/2+x,y,1/2-z
1/2-x,1/2+y,z
1/2+x,-y,1/2+z
loop_
_atom_site_type_symbol
_atom_site_label
_atom_site_fract_x
_atom_site_fract_y
_atom_site_fract_z
Si Si1 0.113642 0.320914 0.008377
Si Si2 0.702794 0.176262 0.516695
Si Si3 0.552923 0.212808 0.848807
Si Si4 0.639484 0.719214 0.853461
Si Si5 0.399646 0.462813 0.750844
O O1 0.077276 0.278979 0.070175
O O2 0.116152 0.500000 0.000000
O O3 0.162530 0.255596 0.030150
O O4 0.106385 0.249349 0.925121
O O5 0.750000 0.250000 0.500000
O O6 0.686501 0.204332 0.603276
O O7 0.703227 0.000000 0.500000
O O8 0.500000 0.206074 0.856158
O O9 0.568432 0.353024 0.798040
O O10 0.572108 0.066743 0.805888
O O11 0.633727 0.859144 0.797709
O O12 0.626197 0.571901 0.808043
#
# Coordination Sequence:
#
# PCOD9478757 Si02
#       5
#    16  16  16  16  16
#     4  10  20  38  56  88 112 150 198 237 292 336
#     4  10  20  35  62  91 112 145 193 231 291 341
#     4  11  21  35  56  81 116 156 196 242 286 347
#     4   9  21  37  62  85 113 157 187 245 286 345
#     4  10  20  38  56  82 119 153 194 232 297 345
#
# _framework density 16.947188000000001
#
# number of rings (size 3 to 8) (size 9 to 14) (size 15 to 20)
#    1.200    0.800    2.000    2.400    0.000    0.400 
#    0.000    3.000    0.000   20.400    0.000    0.000 
#    0.000    0.000    0.000    0.000    0.000    0.000 
#
# Total GULP energy -222774.518974 kJ/mol
# GULP energy per Si atom -5569.362974 kJ/mol
# Density = 1.690862 g / cm^3
# Si number density = 16.947188 Si / 1000 Ang^3
#
#
#
# Elastic Constant Matrix: (Units=GPa)
#
#
# Indices 1 2 3 4 5 6 
#
# 1 126.4517 57.0365 62.7317 0.0000 0.0000 0.0000
# 2 57.0365 111.2997 65.5569 0.0000 0.0000 0.0000
# 3 62.7317 65.5569 117.1532 0.0000 0.0000 0.0000
# 4 0.0000 0.0000 0.0000 24.1586 0.0000 0.0000
# 5 0.0000 0.0000 0.0000 0.0000 23.6668 0.0000
# 6 0.0000 0.0000 0.0000 0.0000 0.0000 7.0113
#
#
#
# Elastic Compliance Matrix: (Units=1/GPa)
#
#
# Indices 1 2 3 4 5 6 
#
# 1 0.011572 -0.003402 -0.004293 0.000000 0.000000 0.000000
# 2 -0.003402 0.014402 -0.006238 0.000000 0.000000 0.000000
# 3 -0.004293 -0.006238 0.014325 0.000000 0.000000 0.000000
# 4 0.000000 0.000000 0.000000 0.041393 0.000000 0.000000
# 5 0.000000 0.000000 0.000000 0.000000 0.042253 0.000000
# 6 0.000000 0.000000 0.000000 0.000000 0.000000 0.142628
#
#
# Mechanical properties :
#
#
# Convention : Reuss Voigt Hill
#
# Bulk Modulus (GPa) = 80.42034 80.61719 80.51876
# Shear Modulus (GPa) = 16.74576 22.27264 19.50920
#
# Velocity S-wave (km/s) = 3.14684 3.62918 3.39658
# Velocity P-wave (km/s) = 7.79487 8.07677 7.93707
#
# Compressibility (1/GPa) = 0.01243466
#
# Stress axis : x y z
#
# Youngs Moduli (GPa) = 86.41386 69.43490 69.80759
#
# Poissons Ratio (x) = 0.23619 0.29969
# Poissons Ratio (y) = 0.29395 0.43543
# Poissons Ratio (z) = 0.37098 0.43311
#
# Static dielectric constant tensor:
#      x y z
#    x 1.540040 0.000000 0.000000 
#    y 0.000000 1.567690 0.000000 
#    z 0.000000 0.000000 1.584270 
# 
# From -- ./inp_files/35346.got.cif
#   From: 2010.05.17/outbox.cif.g08.bks.cpg/sg64_18_cif.got.tgz:35346.got - 2010.06.03 16:29:19.
