data_PCOD9478394
_publ_section_title
;
Structure prediction by ZEFSAII (Michael W. Deem and Ramdas Pophale) SiO2 
 PCOD9478394
Probable space group: C M C A
;
_chemical_formula_sum "Si O2"
_cell_formula_units_Z 80
_cell_length_a 8.999144
_cell_length_b 28.752546
_cell_length_c 18.027713
_cell_angle_alpha 90.000000
_cell_angle_beta 90.000000
_cell_angle_gamma 90.000000
_cell_volume 4664.640124
_symmetry_space_group_name_H-M "C M C A"
_symmetry_group_IT_number 64
_symmetry_cell_setting 'orthorhombic'
loop_
_space_group_symop_operation_xyz
x,y,z
-x,1/2-y,1/2+z
x,-y,-z
-x,1/2+y,1/2-z
-x,-y,-z
x,1/2+y,1/2-z
-x,y,z
x,1/2-y,1/2+z
1/2+x,1/2+y,z
1/2-x,-y,1/2+z
1/2+x,1/2-y,-z
1/2-x,y,1/2-z
1/2-x,1/2-y,-z
1/2+x,y,1/2-z
1/2-x,1/2+y,z
1/2+x,-y,1/2+z
loop_
_atom_site_type_symbol
_atom_site_label
_atom_site_fract_x
_atom_site_fract_y
_atom_site_fract_z
Si Si1 0.668502 0.571322 0.870212
Si Si2 0.330308 0.482712 0.586351
Si Si3 0.668933 0.105877 0.458221
Si Si4 0.176674 0.662500 0.825781
Si Si5 0.320249 0.701606 0.975340
O O1 0.500000 0.575816 0.841537
O O2 0.728212 0.518940 0.869372
O O3 0.778527 0.608131 0.833261
O O4 0.664555 0.586721 0.956941
O O5 0.327280 0.500000 0.500000
O O6 0.500000 0.485490 0.611446
O O7 0.270445 0.430176 0.585823
O O8 0.500000 0.104252 0.429870
O O9 0.717340 0.159291 0.467940
O O10 0.250000 0.680073 0.750000
O O11 0.251764 0.687226 0.896251
O O12 0.000000 0.668072 0.826373
O O13 0.500000 0.703484 0.970690
O O14 0.250000 0.750000 0.000000
#
# Coordination Sequence:
#
# PCOD9478394 Si02
#       5
#    16  16  16  16  16
#     4   9  16  27  42  62  90 122 154 189 232 282
#     4   9  15  22  36  60  88 118 151 184 221 268
#     4   8  15  26  40  60  89 122 154 191 236 284
#     4  11  21  34  51  72  99 130 165 205 251 305
#     4  10  20  34  51  73 100 131 168 212 262 308
#
# _framework density 17.150306
#
# number of rings (size 3 to 8) (size 9 to 14) (size 15 to 20)
#    0.000    2.600    0.000    4.800    0.000    8.000 
#    0.000    0.000    0.000    0.000    0.000    1.400 
#    0.000    9.600    0.000    0.000    0.000    0.000 
#
# Total GULP energy -222914.421739 kJ/mol
# GULP energy per Si atom -5572.860543 kJ/mol
# Density = 1.711127 g / cm^3
# Si number density = 17.150306 Si / 1000 Ang^3
#
#
#
# Elastic Constant Matrix: (Units=GPa)
#
#
# Indices 1 2 3 4 5 6 
#
# 1 105.0479 56.9009 19.8336 0.0000 0.0000 0.0000
# 2 56.9009 142.0316 23.1813 0.0000 0.0000 0.0000
# 3 19.8336 23.1813 31.1972 0.0000 0.0000 0.0000
# 4 0.0000 0.0000 0.0000 7.3391 0.0000 0.0000
# 5 0.0000 0.0000 0.0000 0.0000 16.9011 0.0000
# 6 0.0000 0.0000 0.0000 0.0000 0.0000 30.4923
#
#
#
# Elastic Compliance Matrix: (Units=1/GPa)
#
#
# Indices 1 2 3 4 5 6 
#
# 1 0.012789 -0.004320 -0.004920 0.000000 0.000000 0.000000
# 2 -0.004320 0.009472 -0.004292 0.000000 0.000000 0.000000
# 3 -0.004920 -0.004292 0.038371 0.000000 0.000000 0.000000
# 4 0.000000 0.000000 0.000000 0.136257 0.000000 0.000000
# 5 0.000000 0.000000 0.000000 0.000000 0.059168 0.000000
# 6 0.000000 0.000000 0.000000 0.000000 0.000000 0.032795
#
#
# Mechanical properties :
#
#
# Convention : Reuss Voigt Hill
#
# Bulk Modulus (GPa) = 29.79066 53.12314 41.45690
# Shear Modulus (GPa) = 15.28561 22.83720 19.06141
#
# Velocity S-wave (km/s) = 2.98866 3.65306 3.33743
# Velocity P-wave (km/s) = 5.41456 6.98823 6.25111
#
# Compressibility (1/GPa) = 0.03356757
#
# Stress axis : x y z
#
# Youngs Moduli (GPa) = 78.19460 105.57482 26.06138
#
# Poissons Ratio (x) = 0.45612 0.12822
# Poissons Ratio (y) = 0.33783 0.11184
# Poissons Ratio (z) = 0.38472 0.45308
#
# Static dielectric constant tensor:
#      x y z
#    x 1.576200 0.000000 0.000000 
#    y 0.000000 1.590530 0.000000 
#    z 0.000000 0.000000 1.589890 
# 
# From -- ./inp_files/29723.got.cif
#   From: 2010.05.17/outbox.cif.g08.bks.cpg/sg64_15_cif.got.tgz:29723.got - 2010.06.03 16:29:19.
