data_PCOD9478789
_publ_section_title
;
Structure prediction by ZEFSAII (Michael W. Deem and Ramdas Pophale) SiO2 
 PCOD9478789
Probable space group: C M C A
;
_chemical_formula_sum "Si O2"
_cell_formula_units_Z 112
_cell_length_a 28.933551
_cell_length_b 14.364808
_cell_length_c 14.458308
_cell_angle_alpha 90.000000
_cell_angle_beta 90.000000
_cell_angle_gamma 90.000000
_cell_volume 6009.232887
_symmetry_space_group_name_H-M "C M C A"
_symmetry_group_IT_number 64
_symmetry_cell_setting 'orthorhombic'
loop_
_space_group_symop_operation_xyz
x,y,z
-x,1/2-y,1/2+z
x,-y,-z
-x,1/2+y,1/2-z
-x,-y,-z
x,1/2+y,1/2-z
-x,y,z
x,1/2-y,1/2+z
1/2+x,1/2+y,z
1/2-x,-y,1/2+z
1/2+x,1/2-y,-z
1/2-x,y,1/2-z
1/2-x,1/2-y,-z
1/2+x,y,1/2-z
1/2-x,1/2+y,z
1/2+x,-y,1/2+z
loop_
_atom_site_type_symbol
_atom_site_label
_atom_site_fract_x
_atom_site_fract_y
_atom_site_fract_z
Si Si1 0.355286 0.235850 0.619005
Si Si2 0.947268 0.140273 0.930938
Si Si3 0.354220 0.111448 0.260333
Si Si4 0.238566 0.906245 0.472705
Si Si5 0.804290 0.277617 0.577255
Si Si6 0.447088 0.572259 0.138586
Si Si7 0.297677 0.571176 0.805065
O O1 0.408437 0.205464 0.611718
O O2 0.349767 0.337380 0.662529
O O3 0.334077 0.224698 0.516898
O O4 0.327890 0.164022 0.685116
O O5 0.000000 0.171399 0.915848
O O6 0.942530 0.036906 0.887656
O O7 0.940220 0.126431 0.041257
O O8 0.331177 0.177903 0.338079
O O9 0.407419 0.098363 0.289889
O O10 0.327721 0.013695 0.266939
O O11 0.211954 0.828945 0.412310
O O12 0.259970 0.843558 0.555078
O O13 0.280673 0.945764 0.410603
O O14 0.211923 0.000000 0.500000
O O15 0.500000 0.588472 0.169101
O O16 0.250000 0.578668 0.750000
#
# Coordination Sequence:
#
# PCOD9478789 Si02
#       7
#    16  16  16  16  16  16  16
#     4  11  23  36  58  85 114 153 189 239 286 349
#     4   9  17  34  61  90 114 141 182 240 299 348
#     4  12  22  36  59  82 114 150 192 236 289 346
#     4  10  20  36  56  74 105 155 185 239 282 321
#     4  10  22  37  55  84 108 141 206 233 279 346
#     4   9  18  34  62  89 111 141 186 240 299 351
#     4  11  24  37  55  79 115 150 195 239 289 328
#
# _framework density 18.637986999999999
#
# number of rings (size 3 to 8) (size 9 to 14) (size 15 to 20)
#    0.000    1.714    4.286    1.714    2.000    2.286 
#    0.000    0.000    0.000    0.000    0.000    0.000 
#    0.000    5.714    0.000    0.000    0.000    0.000 
#
# Total GULP energy -312497.366029 kJ/mol
# GULP energy per Si atom -5580.310108 kJ/mol
# Density = 1.859557 g / cm^3
# Si number density = 18.637987 Si / 1000 Ang^3
#
#
#
# Elastic Constant Matrix: (Units=GPa)
#
#
# Indices 1 2 3 4 5 6 
#
# 1 92.9599 24.8689 13.6083 0.0000 0.0000 0.0000
# 2 24.8689 88.6856 5.5071 0.0000 0.0000 0.0000
# 3 13.6083 5.5071 39.1729 0.0000 0.0000 0.0000
# 4 0.0000 0.0000 0.0000 26.3230 0.0000 0.0000
# 5 0.0000 0.0000 0.0000 0.0000 25.5342 0.0000
# 6 0.0000 0.0000 0.0000 0.0000 0.0000 26.3860
#
#
#
# Elastic Compliance Matrix: (Units=1/GPa)
#
#
# Indices 1 2 3 4 5 6 
#
# 1 0.012160 -0.003175 -0.003778 0.000000 0.000000 0.000000
# 2 -0.003175 0.012204 -0.000613 0.000000 0.000000 0.000000
# 3 -0.003778 -0.000613 0.026926 0.000000 0.000000 0.000000
# 4 0.000000 0.000000 0.000000 0.037990 0.000000 0.000000
# 5 0.000000 0.000000 0.000000 0.000000 0.039163 0.000000
# 6 0.000000 0.000000 0.000000 0.000000 0.000000 0.037899
#
#
# Mechanical properties :
#
#
# Convention : Reuss Voigt Hill
#
# Bulk Modulus (GPa) = 27.65568 34.30966 30.98267
# Shear Modulus (GPa) = 25.83627 27.43758 26.63692
#
# Velocity S-wave (km/s) = 3.72723 3.84100 3.78454
# Velocity P-wave (km/s) = 5.77872 6.17410 5.97967
#
# Compressibility (1/GPa) = 0.03615894
#
# Stress axis : x y z
#
# Youngs Moduli (GPa) = 82.23816 81.93888 37.13837
#
# Poissons Ratio (x) = 0.26017 0.14030
# Poissons Ratio (y) = 0.26112 0.02275
# Poissons Ratio (z) = 0.31068 0.05020
#
# Static dielectric constant tensor:
#      x y z
#    x 1.647940 0.000000 0.000000 
#    y 0.000000 1.659420 0.000000 
#    z 0.000000 0.000000 1.676180 
# 
# From -- ./inp_files/28049.got.cif
#   From: 2010.05.17/outbox.cif.g08.bks.cpg/sg64_15_cif.got.tgz:28049.got - 2010.06.03 16:29:19.
