data_PCOD9478731
_publ_section_title
;
Structure prediction by ZEFSAII (Michael W. Deem and Ramdas Pophale) SiO2 
 PCOD9478731
Probable space group: C M C A
;
_chemical_formula_sum "Si O2"
_cell_formula_units_Z 96
_cell_length_a 11.181172
_cell_length_b 23.234490
_cell_length_c 18.504054
_cell_angle_alpha 90.000000
_cell_angle_beta 90.000000
_cell_angle_gamma 90.000000
_cell_volume 4807.146521
_symmetry_space_group_name_H-M "C M C A"
_symmetry_group_IT_number 64
_symmetry_cell_setting 'orthorhombic'
loop_
_space_group_symop_operation_xyz
x,y,z
-x,1/2-y,1/2+z
x,-y,-z
-x,1/2+y,1/2-z
-x,-y,-z
x,1/2+y,1/2-z
-x,y,z
x,1/2-y,1/2+z
1/2+x,1/2+y,z
1/2-x,-y,1/2+z
1/2+x,1/2-y,-z
1/2-x,y,1/2-z
1/2-x,1/2-y,-z
1/2+x,y,1/2-z
1/2-x,1/2+y,z
1/2+x,-y,1/2+z
loop_
_atom_site_type_symbol
_atom_site_label
_atom_site_fract_x
_atom_site_fract_y
_atom_site_fract_z
Si Si1 0.130787 0.140497 0.705004
Si Si2 0.860968 0.335166 0.806861
Si Si3 0.634272 0.330513 0.994837
Si Si4 0.211699 0.575523 0.070590
Si Si5 0.226344 0.237002 0.614304
Si Si6 0.369034 0.542134 0.585400
O O1 0.250000 0.131326 0.750000
O O2 0.145097 0.203782 0.671065
O O3 0.136642 0.093193 0.641949
O O4 0.000000 0.135362 0.740956
O O5 0.750000 0.343545 0.750000
O O6 0.847853 0.384853 0.868145
O O7 0.828280 0.274845 0.846406
O O8 0.000000 0.335145 0.780288
O O9 0.500000 0.333160 0.020615
O O10 0.673088 0.389429 0.956432
O O11 0.652299 0.281026 0.934842
O O12 0.717228 0.310485 0.060924
O O13 0.224685 0.509630 0.096263
O O14 0.140935 0.567695 0.995040
O O15 0.500000 0.514455 0.594169
#
# Coordination Sequence:
#
# PCOD9478731 Si02
#       6
#    16  16  16  16  16  16
#     4  11  24  41  62  90 123 163 206 251 304 363
#     4  11  24  39  61  89 122 162 203 247 302 361
#     4  10  20  35  59  92 126 155 195 257 313 359
#     4  10  20  39  64  90 115 152 204 252 304 355
#     4  10  21  38  59  87 120 164 205 245 298 371
#     4  10  20  39  65  88 115 152 207 255 296 359
#
# _framework density 19.970265999999999
#
# number of rings (size 3 to 8) (size 9 to 14) (size 15 to 20)
#    0.000    1.667    1.667    3.500    0.000    6.667 
#    0.000    2.500    0.000    0.000    0.000    0.000 
#    0.000    0.000    0.000    0.000    0.000    0.000 
#
# Total GULP energy -267594.605215 kJ/mol
# GULP energy per Si atom -5574.887609 kJ/mol
# Density = 1.992481 g / cm^3
# Si number density = 19.970266 Si / 1000 Ang^3
#
#
#
# Elastic Constant Matrix: (Units=GPa)
#
#
# Indices 1 2 3 4 5 6 
#
# 1 106.2540 38.6858 34.0787 0.0000 0.0000 0.0000
# 2 38.6858 86.9994 20.6195 0.0000 0.0000 0.0000
# 3 34.0787 20.6195 59.9658 0.0000 0.0000 0.0000
# 4 0.0000 0.0000 0.0000 15.2869 0.0000 0.0000
# 5 0.0000 0.0000 0.0000 0.0000 1.1188 0.0000
# 6 0.0000 0.0000 0.0000 0.0000 0.0000 6.2970
#
#
#
# Elastic Compliance Matrix: (Units=1/GPa)
#
#
# Indices 1 2 3 4 5 6 
#
# 1 0.012856 -0.004339 -0.005814 0.000000 0.000000 0.000000
# 2 -0.004339 0.013978 -0.002341 0.000000 0.000000 0.000000
# 3 -0.005814 -0.002341 0.020785 0.000000 0.000000 0.000000
# 4 0.000000 0.000000 0.000000 0.065415 0.000000 0.000000
# 5 0.000000 0.000000 0.000000 0.000000 0.893854 0.000000
# 6 0.000000 0.000000 0.000000 0.000000 0.000000 0.158807
#
#
# Mechanical properties :
#
#
# Convention : Reuss Voigt Hill
#
# Bulk Modulus (GPa) = 44.18475 48.88746 46.53611
# Shear Modulus (GPa) = 4.17283 15.19621 9.68452
#
# Velocity S-wave (km/s) = 1.44709 2.76151 2.20454
# Velocity P-wave (km/s) = 4.99654 5.89077 5.46199
#
# Compressibility (1/GPa) = 0.02263224
#
# Stress axis : x y z
#
# Youngs Moduli (GPa) = 77.78591 71.53912 48.11092
#
# Poissons Ratio (x) = 0.31038 0.27972
# Poissons Ratio (y) = 0.33748 0.11262
# Poissons Ratio (z) = 0.45226 0.16747
#
# Static dielectric constant tensor:
#      x y z
#    x 1.734360 0.000000 0.000000 
#    y 0.000000 1.708580 0.000000 
#    z 0.000000 0.000000 1.716430 
# 
# From -- ./inp_files/31083.got.cif
#   From: 2010.05.17/outbox.cif.g08.bks.cpg/sg64_16_cif.got.tgz:31083.got - 2010.06.03 16:29:19.
