data_PCOD9478130
_publ_section_title
;
Structure prediction by ZEFSAII (Michael W. Deem and Ramdas Pophale) SiO2 
 PCOD9478130
Probable space group: C M C A
;
_chemical_formula_sum "Si O2"
_cell_formula_units_Z 96
_cell_length_a 14.414072
_cell_length_b 13.892773
_cell_length_c 21.749189
_cell_angle_alpha 90.000000
_cell_angle_beta 90.000000
_cell_angle_gamma 90.000000
_cell_volume 4355.306205
_symmetry_space_group_name_H-M "C M C A"
_symmetry_group_IT_number 64
_symmetry_cell_setting 'orthorhombic'
loop_
_space_group_symop_operation_xyz
x,y,z
-x,1/2-y,1/2+z
x,-y,-z
-x,1/2+y,1/2-z
-x,-y,-z
x,1/2+y,1/2-z
-x,y,z
x,1/2-y,1/2+z
1/2+x,1/2+y,z
1/2-x,-y,1/2+z
1/2+x,1/2-y,-z
1/2-x,y,1/2-z
1/2-x,1/2-y,-z
1/2+x,y,1/2-z
1/2-x,1/2+y,z
1/2+x,-y,1/2+z
loop_
_atom_site_type_symbol
_atom_site_label
_atom_site_fract_x
_atom_site_fract_y
_atom_site_fract_z
Si Si1 0.304545 0.763247 0.186277
Si Si2 0.735971 0.541057 0.846636
Si Si3 0.155917 0.362896 0.871532
Si Si4 0.299344 0.395878 0.030576
Si Si5 0.100443 0.591250 0.268230
Si Si6 0.895888 0.797615 0.498753
O O1 0.250000 0.748659 0.250000
O O2 0.305628 0.877096 0.178130
O O3 0.238279 0.714497 0.136211
O O4 0.390473 0.692252 0.194735
O O5 0.795034 0.463811 0.884163
O O6 0.672594 0.591750 0.897724
O O7 0.677274 0.480985 0.796499
O O8 0.112430 0.381744 0.803927
O O9 0.098914 0.330192 0.929798
O O10 0.361111 0.313095 0.998841
O O11 0.310849 0.500000 0.000000
O O12 0.191398 0.358876 0.027831
O O13 0.000000 0.547161 0.277050
O O14 0.000000 0.809126 0.471641
#
# Coordination Sequence:
#
# PCOD9478130 Si02
#       6
#    16  16  16  16  16  16
#     4   9  18  35  59  85 120 165 202 243 319 387
#     4  11  20  39  64  89 121 172 211 253 319 388
#     4  10  19  38  62  89 128 167 202 254 320 385
#     4  11  24  44  67  90 129 170 218 271 319 372
#     4  10  22  37  60  95 129 157 204 265 315 378
#     4  11  24  42  67  95 124 166 218 270 323 380
#
# _framework density 22.042078
#
# number of rings (size 3 to 8) (size 9 to 14) (size 15 to 20)
#    0.000    1.667    3.333    3.000    0.000    1.333 
#    0.000    8.333    0.000    0.000    0.000    0.000 
#    0.000    0.000    0.000    0.000    0.000    0.000 
#
# Total GULP energy -267492.534558 kJ/mol
# GULP energy per Si atom -5572.761137 kJ/mol
# Density = 2.199191 g / cm^3
# Si number density = 22.042078 Si / 1000 Ang^3
#
#
#
# Elastic Constant Matrix: (Units=GPa)
#
#
# Indices 1 2 3 4 5 6 
#
# 1 71.8372 15.5775 21.9798 0.0000 0.0000 0.0000
# 2 15.5775 143.4100 20.4467 0.0000 0.0000 0.0000
# 3 21.9798 20.4467 76.3851 0.0000 0.0000 0.0000
# 4 0.0000 0.0000 0.0000 31.4399 0.0000 0.0000
# 5 0.0000 0.0000 0.0000 0.0000 13.8218 0.0000
# 6 0.0000 0.0000 0.0000 0.0000 0.0000 9.5832
#
#
#
# Elastic Compliance Matrix: (Units=1/GPa)
#
#
# Indices 1 2 3 4 5 6 
#
# 1 0.015425 -0.001084 -0.004148 0.000000 0.000000 0.000000
# 2 -0.001084 0.007326 -0.001649 0.000000 0.000000 0.000000
# 3 -0.004148 -0.001649 0.014727 0.000000 0.000000 0.000000
# 4 0.000000 0.000000 0.000000 0.031807 0.000000 0.000000
# 5 0.000000 0.000000 0.000000 0.000000 0.072349 0.000000
# 6 0.000000 0.000000 0.000000 0.000000 0.000000 0.104350
#
#
# Mechanical properties :
#
#
# Convention : Reuss Voigt Hill
#
# Bulk Modulus (GPa) = 42.16837 45.29339 43.73088
# Shear Modulus (GPa) = 18.68109 26.54421 22.61265
#
# Velocity S-wave (km/s) = 2.91438 3.47400 3.20642
# Velocity P-wave (km/s) = 5.52242 6.05679 5.79577
#
# Compressibility (1/GPa) = 0.02371446
#
# Stress axis : x y z
#
# Youngs Moduli (GPa) = 64.83126 136.50244 67.90413
#
# Poissons Ratio (x) = 0.14797 0.28169
# Poissons Ratio (y) = 0.07028 0.11198
# Poissons Ratio (z) = 0.26894 0.22510
#
# Static dielectric constant tensor:
#      x y z
#    x 1.804230 0.000000 0.000000 
#    y 0.000000 1.849330 0.000000 
#    z 0.000000 0.000000 1.942790 
# 
# From -- ./inp_files/39189.got.cif
#   From: 2010.05.17/outbox.cif.g08.bks.cpg/sg64_20_cif.got.tgz:39189.got - 2010.06.03 16:29:19.
