data_PCOD9478457
_publ_section_title
;
Structure prediction by ZEFSAII (Michael W. Deem and Ramdas Pophale) SiO2 
 PCOD9478457
Probable space group: C M C A
;
_chemical_formula_sum "Si O2"
_cell_formula_units_Z 72
_cell_length_a 10.587399
_cell_length_b 14.881222
_cell_length_c 23.195856
_cell_angle_alpha 90.000000
_cell_angle_beta 90.000000
_cell_angle_gamma 90.000000
_cell_volume 3654.586789
_symmetry_space_group_name_H-M "C M C A"
_symmetry_group_IT_number 64
_symmetry_cell_setting 'orthorhombic'
loop_
_space_group_symop_operation_xyz
x,y,z
-x,1/2-y,1/2+z
x,-y,-z
-x,1/2+y,1/2-z
-x,-y,-z
x,1/2+y,1/2-z
-x,y,z
x,1/2-y,1/2+z
1/2+x,1/2+y,z
1/2-x,-y,1/2+z
1/2+x,1/2-y,-z
1/2-x,y,1/2-z
1/2-x,1/2-y,-z
1/2+x,y,1/2-z
1/2-x,1/2+y,z
1/2+x,-y,1/2+z
loop_
_atom_site_type_symbol
_atom_site_label
_atom_site_fract_x
_atom_site_fract_y
_atom_site_fract_z
Si Si1 0.858320 0.855473 0.846274
Si Si2 0.356511 0.509611 0.373254
Si Si3 0.637861 0.314567 0.982385
Si Si4 0.355306 0.658998 0.704259
Si Si5 0.749014 0.000000 0.000000
O O1 0.861258 0.828017 0.913674
O O2 0.835557 0.762885 0.812692
O O3 0.000000 0.889549 0.831545
O O4 0.747529 0.928342 0.841871
O O5 0.500000 0.539751 0.361314
O O6 0.344555 0.407791 0.350220
O O7 0.330812 0.513100 0.441771
O O8 0.500000 0.280034 0.999994
O O9 0.750000 0.250000 0.000000
O O10 0.664976 0.412452 0.008371
O O11 0.500000 0.650000 0.725751
O O12 0.250000 0.632265 0.750000
#
# Coordination Sequence:
#
# PCOD9478457 Si02
#       5
#    16  16  16  16   8
#     4   9  20  38  56  77 109 145 181 225 276 328
#     4  10  21  37  59  87 116 148 189 234 281 335
#     4  10  20  34  54  80 111 147 184 224 271 325
#     4  10  22  40  59  81 111 147 188 235 285 337
#     4  10  20  36  58  84 118 154 186 226 280 342
#
# _framework density 19.701270000000001
#
# number of rings (size 3 to 8) (size 9 to 14) (size 15 to 20)
#    0.000    2.222    0.000    2.000    0.000    9.778 
#    0.000    6.667    0.000    0.000    0.000    0.000 
#    0.000    0.000    0.000    0.000    0.000    0.000 
#
# Total GULP energy -200900.312122 kJ/mol
# GULP energy per Si atom -5580.564226 kJ/mol
# Density = 1.965643 g / cm^3
# Si number density = 19.701270 Si / 1000 Ang^3
#
#
#
# Elastic Constant Matrix: (Units=GPa)
#
#
# Indices 1 2 3 4 5 6 
#
# 1 160.3621 68.1731 34.1457 0.0000 0.0000 0.0000
# 2 68.1731 78.8181 12.0282 0.0000 0.0000 0.0000
# 3 34.1457 12.0282 23.6663 0.0000 0.0000 0.0000
# 4 0.0000 0.0000 0.0000 21.9332 0.0000 0.0000
# 5 0.0000 0.0000 0.0000 0.0000 22.1381 0.0000
# 6 0.0000 0.0000 0.0000 0.0000 0.0000 24.6656
#
#
#
# Elastic Compliance Matrix: (Units=1/GPa)
#
#
# Indices 1 2 3 4 5 6 
#
# 1 0.013232 -0.009249 -0.014390 0.000000 0.000000 0.000000
# 2 -0.009249 0.020219 0.003068 0.000000 0.000000 0.000000
# 3 -0.014390 0.003068 0.061457 0.000000 0.000000 0.000000
# 4 0.000000 0.000000 0.000000 0.045593 0.000000 0.000000
# 5 0.000000 0.000000 0.000000 0.000000 0.045171 0.000000
# 6 0.000000 0.000000 0.000000 0.000000 0.000000 0.040542
#
#
# Mechanical properties :
#
#
# Convention : Reuss Voigt Hill
#
# Bulk Modulus (GPa) = 18.59919 54.61561 36.60740
# Shear Modulus (GPa) = 17.52677 23.64735 20.58706
#
# Velocity S-wave (km/s) = 2.98590 3.46829 3.23609
# Velocity P-wave (km/s) = 4.62045 6.61972 5.70830
#
# Compressibility (1/GPa) = 0.05376579
#
# Stress axis : x y z
#
# Youngs Moduli (GPa) = 75.57563 49.45892 16.27150
#
# Poissons Ratio (x) = 0.45743 0.23415
# Poissons Ratio (y) = 0.69897 -0.04992
# Poissons Ratio (z) = 1.08755 -0.15174
#
# Static dielectric constant tensor:
#      x y z
#    x 1.702320 0.000000 0.000000 
#    y 0.000000 1.683160 0.000000 
#    z 0.000000 0.000000 1.669940 
# 
# From -- ./inp_files/47596.got.cif
#   From: 2010.05.17/outbox.cif.g08.bks.cpg/sg64_24_cif.got.tgz:47596.got - 2010.06.03 16:29:19.
