data_PCOD9478825
_publ_section_title
;
Structure prediction by ZEFSAII (Michael W. Deem and Ramdas Pophale) SiO2 
 PCOD9478825
Probable space group: C M C A
;
_chemical_formula_sum "Si O2"
_cell_formula_units_Z 88
_cell_length_a 34.673555
_cell_length_b 14.898996
_cell_length_c 7.123030
_cell_angle_alpha 90.000000
_cell_angle_beta 90.000000
_cell_angle_gamma 90.000000
_cell_volume 3679.765541
_symmetry_space_group_name_H-M "C M C A"
_symmetry_group_IT_number 64
_symmetry_cell_setting 'orthorhombic'
loop_
_space_group_symop_operation_xyz
x,y,z
-x,1/2-y,1/2+z
x,-y,-z
-x,1/2+y,1/2-z
-x,-y,-z
x,1/2+y,1/2-z
-x,y,z
x,1/2-y,1/2+z
1/2+x,1/2+y,z
1/2-x,-y,1/2+z
1/2+x,1/2-y,-z
1/2-x,y,1/2-z
1/2-x,1/2-y,-z
1/2+x,y,1/2-z
1/2-x,1/2+y,z
1/2+x,-y,1/2+z
loop_
_atom_site_type_symbol
_atom_site_label
_atom_site_fract_x
_atom_site_fract_y
_atom_site_fract_z
Si Si1 0.500000 0.288208 0.852409
Si Si2 0.149288 0.620377 0.300812
Si Si3 0.563298 0.429103 0.775729
Si Si4 0.795009 0.529482 0.783101
Si Si5 0.938157 0.871414 0.333561
Si Si6 0.852432 0.823439 0.367866
O O1 0.533767 0.364104 0.878214
O O2 0.532929 0.210510 0.806127
O O3 0.106995 0.582442 0.347544
O O4 0.184040 0.551145 0.327913
O O5 0.155902 0.718595 0.382592
O O6 0.146395 0.637423 0.077056
O O7 0.553182 0.534236 0.767097
O O8 0.560556 0.395125 0.557266
O O9 0.750000 0.542412 0.750000
O O10 0.820363 0.619050 0.760511
O O11 0.797807 0.500000 0.000000
O O12 0.894947 0.839658 0.284959
#
# Coordination Sequence:
#
# PCOD9478825 Si02
#       6
#     8  16  16  16  16  16
#     4  12  20  30  56  86 110 142 196 246 286 320
#     4  10  20  38  62  87 116 155 195 239 291 349
#     4  10  20  36  57  81 111 151 198 239 285 345
#     4  10  22  40  64  89 119 152 194 241 289 352
#     4  10  20  36  57  81 111 151 198 239 285 345
#     4  10  20  38  62  87 116 155 195 239 291 349
#
# _framework density 23.914569
#
# number of rings (size 3 to 8) (size 9 to 14) (size 15 to 20)
#    0.000    1.818    3.636    1.091    0.000    3.636 
#    0.000    3.636    0.000   13.091    0.000    0.000 
#    0.000    0.000    0.000    0.000    0.000    0.000 
#
# Total GULP energy -245396.556770 kJ/mol
# GULP energy per Si atom -5577.194472 kJ/mol
# Density = 2.386014 g / cm^3
# Si number density = 23.914569 Si / 1000 Ang^3
#
#
#
# Elastic Constant Matrix: (Units=GPa)
#
#
# Indices 1 2 3 4 5 6 
#
# 1 240.1484 122.6923 18.8371 0.0000 0.0000 0.0000
# 2 122.6923 212.5004 36.8311 0.0000 0.0000 0.0000
# 3 18.8371 36.8311 55.5975 0.0000 0.0000 0.0000
# 4 0.0000 0.0000 0.0000 -15.2494 0.0000 0.0000
# 5 0.0000 0.0000 0.0000 0.0000 6.9802 0.0000
# 6 0.0000 0.0000 0.0000 0.0000 0.0000 60.5113
#
#
#
# Elastic Compliance Matrix: (Units=1/GPa)
#
#
# Indices 1 2 3 4 5 6 
#
# 1 0.005911 -0.003463 0.000292 0.000000 0.000000 0.000000
# 2 -0.003463 0.007345 -0.003693 0.000000 0.000000 0.000000
# 3 0.000292 -0.003693 0.020334 0.000000 0.000000 0.000000
# 4 0.000000 0.000000 0.000000 -0.065576 0.000000 0.000000
# 5 0.000000 0.000000 0.000000 0.000000 0.143263 0.000000
# 6 0.000000 0.000000 0.000000 0.000000 0.000000 0.016526
#
#
# Mechanical properties :
#
#
# Convention : Reuss Voigt Hill
#
# Bulk Modulus (GPa) = 50.34887 96.10748 73.22817
# Shear Modulus (GPa) = 33.74940 32.44080 33.09510
#
# Velocity S-wave (km/s) = 3.76073 3.68710 3.72410
# Velocity P-wave (km/s) = 6.32114 7.64208 7.01278
#
# Compressibility (1/GPa) = 0.01986142
#
# Stress axis : x y z
#
# Youngs Moduli (GPa) = 169.18911 136.13896 49.17905
#
# Poissons Ratio (x) = 0.47147 -0.01434
# Poissons Ratio (y) = 0.58593 0.18160
# Poissons Ratio (z) = -0.04934 0.50272
#
# Static dielectric constant tensor:
#      x y z
#    x 1.835730 0.000000 0.000000 
#    y 0.000000 1.845180 0.000000 
#    z 0.000000 0.000000 2.100400 
# 
# From -- ./inp_files/19685.got.cif
#   From: 2010.05.17/outbox.cif.g08.bks.cpg/sg64_10_cif.got.tgz:19685.got - 2010.06.03 16:29:19.
