data_PCOD9478329
_publ_section_title
;
Structure prediction by ZEFSAII (Michael W. Deem and Ramdas Pophale) SiO2 
 PCOD9478329
Probable space group: C M C A
;
_chemical_formula_sum "Si O2"
_cell_formula_units_Z 80
_cell_length_a 8.810274
_cell_length_b 18.632569
_cell_length_c 27.190728
_cell_angle_alpha 90.000000
_cell_angle_beta 90.000000
_cell_angle_gamma 90.000000
_cell_volume 4463.576566
_symmetry_space_group_name_H-M "C M C A"
_symmetry_group_IT_number 64
_symmetry_cell_setting 'orthorhombic'
loop_
_space_group_symop_operation_xyz
x,y,z
-x,1/2-y,1/2+z
x,-y,-z
-x,1/2+y,1/2-z
-x,-y,-z
x,1/2+y,1/2-z
-x,y,z
x,1/2-y,1/2+z
1/2+x,1/2+y,z
1/2-x,-y,1/2+z
1/2+x,1/2-y,-z
1/2-x,y,1/2-z
1/2-x,1/2-y,-z
1/2+x,y,1/2-z
1/2-x,1/2+y,z
1/2+x,-y,1/2+z
loop_
_atom_site_type_symbol
_atom_site_label
_atom_site_fract_x
_atom_site_fract_y
_atom_site_fract_z
Si Si1 0.682715 0.576637 0.592442
Si Si2 0.681052 0.918653 0.200873
Si Si3 0.818606 0.417004 0.591536
Si Si4 0.318505 0.920379 0.700976
Si Si5 0.681866 0.670988 0.498270
O O1 0.500000 0.565559 0.590836
O O2 0.717705 0.610007 0.646297
O O3 0.760889 0.499069 0.588023
O O4 0.726680 0.626782 0.547185
O O5 0.500000 0.921526 0.206237
O O6 0.750000 0.883658 0.250000
O O7 0.747373 0.999617 0.199458
O O8 0.783740 0.389385 0.647012
O O9 0.741143 0.370676 0.549480
O O10 0.000000 0.415829 0.585602
O O11 0.500000 0.925720 0.705934
O O12 0.250000 0.884850 0.750000
O O13 0.500000 0.674456 0.497233
O O14 0.750000 0.750000 0.500000
#
# Coordination Sequence:
#
# PCOD9478329 Si02
#       5
#    16  16  16  16  16
#     4   9  19  34  52  75 103 134 166 204 249 296
#     4   9  15  25  43  69 100 129 158 195 241 290
#     4  10  20  33  52  79 106 132 166 208 250 295
#     4   9  16  26  43  70 102 131 160 197 241 289
#     4  11  23  38  54  72  98 133 172 212 257 305
#
# _framework density 17.922846
#
# number of rings (size 3 to 8) (size 9 to 14) (size 15 to 20)
#    0.000    2.400    0.000    4.200    0.000    7.200 
#    0.000    0.000    0.000    1.200    0.000    2.800 
#    0.000    0.000    0.000    0.000    0.000    0.000 
#
# Total GULP energy -222920.678831 kJ/mol
# GULP energy per Si atom -5573.016971 kJ/mol
# Density = 1.788205 g / cm^3
# Si number density = 17.922846 Si / 1000 Ang^3
#
#
#
# Elastic Constant Matrix: (Units=GPa)
#
#
# Indices 1 2 3 4 5 6 
#
# 1 59.9993 27.8414 71.5002 0.0000 0.0000 0.0000
# 2 27.8414 56.8369 68.0136 0.0000 0.0000 0.0000
# 3 71.5002 68.0136 224.7941 0.0000 0.0000 0.0000
# 4 0.0000 0.0000 0.0000 -5.0889 0.0000 0.0000
# 5 0.0000 0.0000 0.0000 0.0000 34.1813 0.0000
# 6 0.0000 0.0000 0.0000 0.0000 0.0000 17.5843
#
#
#
# Elastic Compliance Matrix: (Units=1/GPa)
#
#
# Indices 1 2 3 4 5 6 
#
# 1 0.027629 -0.004731 -0.007357 0.000000 0.000000 0.000000
# 2 -0.004731 0.028390 -0.007085 0.000000 0.000000 0.000000
# 3 -0.007357 -0.007085 0.008932 0.000000 0.000000 0.000000
# 4 0.000000 0.000000 0.000000 -0.196507 0.000000 0.000000
# 5 0.000000 0.000000 0.000000 0.000000 0.029256 0.000000
# 6 0.000000 0.000000 0.000000 0.000000 0.000000 0.056869
#
#
# Mechanical properties :
#
#
# Convention : Reuss Voigt Hill
#
# Bulk Modulus (GPa) = 37.58535 75.14897 56.36716
# Shear Modulus (GPa) = 2807.22180 20.95369 1414.08774
#
# Velocity S-wave (km/s) = 39.61921 3.42293 28.11937
# Velocity P-wave (km/s) = 45.97744 7.59224 32.95123
#
# Compressibility (1/GPa) = 0.02660611
#
# Stress axis : x y z
#
# Youngs Moduli (GPa) = 36.19429 35.22423 111.95717
#
# Poissons Ratio (x) = 0.16663 0.82362
# Poissons Ratio (y) = 0.17122 0.79320
# Poissons Ratio (z) = 0.26626 0.24956
#
# Static dielectric constant tensor:
#      x y z
#    x 1.598590 0.000000 0.000000 
#    y 0.000000 1.558240 0.000000 
#    z 0.000000 0.000000 1.688660 
# 
# From -- ./inp_files/47844.got.cif
#   From: 2010.05.17/outbox.cif.g08.bks.cpg/sg64_24_cif.got.tgz:47844.got - 2010.06.03 16:29:19.
