data_PCOD9478346
_publ_section_title
;
Structure prediction by ZEFSAII (Michael W. Deem and Ramdas Pophale) SiO2 
 PCOD9478346
Probable space group: C M C A
;
_chemical_formula_sum "Si O2"
_cell_formula_units_Z 96
_cell_length_a 21.800589
_cell_length_b 27.470376
_cell_length_c 8.343106
_cell_angle_alpha 90.000000
_cell_angle_beta 90.000000
_cell_angle_gamma 90.000000
_cell_volume 4996.439034
_symmetry_space_group_name_H-M "C M C A"
_symmetry_group_IT_number 64
_symmetry_cell_setting 'orthorhombic'
loop_
_space_group_symop_operation_xyz
x,y,z
-x,1/2-y,1/2+z
x,-y,-z
-x,1/2+y,1/2-z
-x,-y,-z
x,1/2+y,1/2-z
-x,y,z
x,1/2-y,1/2+z
1/2+x,1/2+y,z
1/2-x,-y,1/2+z
1/2+x,1/2-y,-z
1/2-x,y,1/2-z
1/2-x,1/2-y,-z
1/2+x,y,1/2-z
1/2-x,1/2+y,z
1/2+x,-y,1/2+z
loop_
_atom_site_type_symbol
_atom_site_label
_atom_site_fract_x
_atom_site_fract_y
_atom_site_fract_z
Si Si1 0.326603 0.447545 0.570615
Si Si2 0.685432 0.081591 0.413876
Si Si3 0.890607 0.233140 0.452111
Si Si4 0.324134 0.108323 0.749390
Si Si5 0.185644 0.303913 0.668786
Si Si6 0.434467 0.179967 0.744962
O O1 0.342569 0.500000 0.500000
O O2 0.348502 0.436591 0.752360
O O3 0.252943 0.441846 0.585562
O O4 0.341570 0.410869 0.425654
O O5 0.663824 0.072879 0.596755
O O6 0.690466 0.140659 0.395132
O O7 0.863475 0.199786 0.312055
O O8 0.836108 0.263072 0.542636
O O9 0.931705 0.274803 0.374890
O O10 0.927338 0.201882 0.578856
O O11 0.250000 0.118797 0.750000
O O12 0.371417 0.151440 0.717722
O O13 0.250000 0.291206 0.750000
O O14 0.500000 0.153824 0.726461
#
# Coordination Sequence:
#
# PCOD9478346 Si02
#       6
#    16  16  16  16  16  16
#     4  10  21  34  56  84 118 149 186 235 297 362
#     4  10  20  33  53  80 122 149 184 235 296 340
#     4  10  23  33  54  78 113 156 208 234 280 339
#     4  10  22  37  59  85 118 149 190 243 297 348
#     4  11  19  35  51  83 117 158 187 240 292 341
#     4  11  22  39  57  80 115 158 200 242 288 340
#
# _framework density 19.213683
#
# number of rings (size 3 to 8) (size 9 to 14) (size 15 to 20)
#    0.000    1.667    3.333    2.000    9.333    2.667 
#    0.000    0.000    0.000    0.500    0.000    1.167 
#    0.000    0.000    0.000    0.000    0.000    0.000 
#
# Total GULP energy -267278.518646 kJ/mol
# GULP energy per Si atom -5568.302472 kJ/mol
# Density = 1.916995 g / cm^3
# Si number density = 19.213683 Si / 1000 Ang^3
#
#
#
# Elastic Constant Matrix: (Units=GPa)
#
#
# Indices 1 2 3 4 5 6 
#
# 1 67.3515 21.9907 15.2617 0.0000 0.0000 0.0000
# 2 21.9907 20.8419 -1.4618 0.0000 0.0000 0.0000
# 3 15.2617 -1.4618 123.7602 0.0000 0.0000 0.0000
# 4 0.0000 0.0000 0.0000 21.8073 0.0000 0.0000
# 5 0.0000 0.0000 0.0000 0.0000 -18.3507 0.0000
# 6 0.0000 0.0000 0.0000 0.0000 0.0000 17.1824
#
#
#
# Elastic Compliance Matrix: (Units=1/GPa)
#
#
# Indices 1 2 3 4 5 6 
#
# 1 0.023886 -0.025431 -0.003246 0.000000 0.000000 0.000000
# 2 -0.025431 0.075095 0.004023 0.000000 0.000000 0.000000
# 3 -0.003246 0.004023 0.008528 0.000000 0.000000 0.000000
# 4 0.000000 0.000000 0.000000 0.045856 0.000000 0.000000
# 5 0.000000 0.000000 0.000000 0.000000 -0.054494 0.000000
# 6 0.000000 0.000000 0.000000 0.000000 0.000000 0.058199
#
#
# Mechanical properties :
#
#
# Convention : Reuss Voigt Hill
#
# Bulk Modulus (GPa) = 17.18156 31.50388 24.34272
# Shear Modulus (GPa) = 22.14564 15.87200 19.00882
#
# Velocity S-wave (km/s) = 3.39868 2.87728 3.14879
# Velocity P-wave (km/s) = 4.93590 5.24123 5.09085
#
# Compressibility (1/GPa) = 0.05820193
#
# Stress axis : x y z
#
# Youngs Moduli (GPa) = 41.86507 13.31651 117.26162
#
# Poissons Ratio (x) = 0.33865 0.38063
# Poissons Ratio (y) = 1.06465 -0.47174
# Poissons Ratio (z) = 0.13589 -0.05357
#
# Static dielectric constant tensor:
#      x y z
#    x 1.704740 0.000000 0.000000 
#    y 0.000000 1.693560 0.000000 
#    z 0.000000 0.000000 1.833230 
# 
# From -- ./inp_files/8363.got.cif
#   From: 2010.05.17/outbox.cif.g08.bks.cpg/sg64_5_cif.got.tgz:8363.got - 2010.06.03 16:29:19.
