data_PCOD9478247
_publ_section_title
;
Structure prediction by ZEFSAII (Michael W. Deem and Ramdas Pophale) SiO2 
 PCOD9478247
Probable space group: C M C A
;
_chemical_formula_sum "Si O2"
_cell_formula_units_Z 120
_cell_length_a 9.362398
_cell_length_b 26.811947
_cell_length_c 22.372857
_cell_angle_alpha 90.000000
_cell_angle_beta 90.000000
_cell_angle_gamma 90.000000
_cell_volume 5616.126717
_symmetry_space_group_name_H-M "C M C A"
_symmetry_group_IT_number 64
_symmetry_cell_setting 'orthorhombic'
loop_
_space_group_symop_operation_xyz
x,y,z
-x,1/2-y,1/2+z
x,-y,-z
-x,1/2+y,1/2-z
-x,-y,-z
x,1/2+y,1/2-z
-x,y,z
x,1/2-y,1/2+z
1/2+x,1/2+y,z
1/2-x,-y,1/2+z
1/2+x,1/2-y,-z
1/2-x,y,1/2-z
1/2-x,1/2-y,-z
1/2+x,y,1/2-z
1/2-x,1/2+y,z
1/2+x,-y,1/2+z
loop_
_atom_site_type_symbol
_atom_site_label
_atom_site_fract_x
_atom_site_fract_y
_atom_site_fract_z
Si Si1 0.000000 0.231459 0.015965
Si Si2 0.172615 0.228982 0.684994
Si Si3 0.166164 0.027399 0.879999
Si Si4 0.329627 0.132623 0.686581
Si Si5 0.209300 0.182902 0.510219
Si Si6 0.162047 0.570186 0.984467
Si Si7 0.332047 0.567411 0.372801
Si Si8 0.163270 0.320038 0.868311
O O1 0.877326 0.271704 0.038145
O O2 0.875086 0.194538 0.990785
O O3 0.250000 0.231671 0.750000
O O4 0.248259 0.179814 0.656978
O O5 0.223990 0.279757 0.653817
O O6 0.000000 0.225103 0.688242
O O7 0.185054 0.079678 0.845776
O O8 0.232698 0.038038 0.944852
O O9 0.000000 0.015973 0.884264
O O10 0.245079 0.980154 0.850618
O O11 0.500000 0.143364 0.692628
O O12 0.250000 0.127109 0.750000
O O13 0.175101 0.128134 0.533376
O O14 0.158718 0.182600 0.440354
O O15 0.000000 0.553514 0.972768
O O16 0.189056 0.568743 0.055258
O O17 0.500000 0.560434 0.361695
O O18 0.295179 0.623291 0.351127
O O19 0.000000 0.309561 0.847356
#
# Coordination Sequence:
#
# PCOD9478247 Si02
#       8
#     8  16  16  16  16  16  16  16
#     4  10  20  32  50  74 112 154 194 234 288 340
#     4  11  23  40  64  92 119 152 194 242 296 355
#     4  11  24  38  57  90 118 152 197 252 301 348
#     4  10  22  42  63  86 119 152 190 240 298 353
#     4  10  20  36  51  78 116 158 195 243 287 347
#     4  10  20  37  56  80 116 158 202 241 286 348
#     4   9  20  39  62  83 116 159 201 240 289 343
#     4  10  20  39  61  84 115 157 195 237 294 350
#
# _framework density 21.367039999999999
#
# number of rings (size 3 to 8) (size 9 to 14) (size 15 to 20)
#    0.000    1.867    1.333    4.000    1.867    6.933 
#    4.800    0.667    0.000    1.600    0.000    0.000 
#    0.000    0.000    0.000    0.000    0.000    0.000 
#
# Total GULP energy -334203.978077 kJ/mol
# GULP energy per Si atom -5570.066301 kJ/mol
# Density = 2.131841 g / cm^3
# Si number density = 21.367040 Si / 1000 Ang^3
#
#
#
# Elastic Constant Matrix: (Units=GPa)
#
#
# Indices 1 2 3 4 5 6 
#
# 1 176.5796 98.2853 23.9472 0.0000 0.0000 0.0000
# 2 98.2853 171.3710 21.1479 0.0000 0.0000 0.0000
# 3 23.9472 21.1479 26.1318 0.0000 0.0000 0.0000
# 4 0.0000 0.0000 0.0000 21.2986 0.0000 0.0000
# 5 0.0000 0.0000 0.0000 0.0000 16.2073 0.0000
# 6 0.0000 0.0000 0.0000 0.0000 0.0000 36.6308
#
#
#
# Elastic Compliance Matrix: (Units=1/GPa)
#
#
# Indices 1 2 3 4 5 6 
#
# 1 0.008751 -0.004476 -0.004397 0.000000 0.000000 0.000000
# 2 -0.004476 0.008772 -0.002997 0.000000 0.000000 0.000000
# 3 -0.004397 -0.002997 0.044722 0.000000 0.000000 0.000000
# 4 0.000000 0.000000 0.000000 0.046952 0.000000 0.000000
# 5 0.000000 0.000000 0.000000 0.000000 0.061700 0.000000
# 6 0.000000 0.000000 0.000000 0.000000 0.000000 0.027299
#
#
# Mechanical properties :
#
#
# Convention : Reuss Voigt Hill
#
# Bulk Modulus (GPa) = 25.97059 73.42702 49.69880
# Shear Modulus (GPa) = 21.29716 30.20748 25.75232
#
# Velocity S-wave (km/s) = 3.16053 3.76406 3.47542
# Velocity P-wave (km/s) = 5.04970 7.30274 6.27812
#
# Compressibility (1/GPa) = 0.03850509
#
# Stress axis : x y z
#
# Youngs Moduli (GPa) = 114.27266 113.99349 22.36012
#
# Poissons Ratio (x) = 0.51027 0.09831
# Poissons Ratio (y) = 0.51152 0.06702
# Poissons Ratio (z) = 0.50244 0.34167
#
# Static dielectric constant tensor:
#      x y z
#    x 1.734600 0.000000 0.000000 
#    y 0.000000 1.821220 0.000000 
#    z 0.000000 0.000000 1.849860 
# 
# From -- ./inp_files/48740.got.cif
#   From: 2010.05.17/outbox.cif.g08.bks.cpg/sg64_25_cif.got.tgz:48740.got - 2010.06.03 16:29:19.
