data_PCOD9478977
_publ_section_title
;
Structure prediction by ZEFSAII (Michael W. Deem and Ramdas Pophale) SiO2 
 PCOD9478977
Probable space group: C M C A
;
_chemical_formula_sum "Si O2"
_cell_formula_units_Z 112
_cell_length_a 20.435022
_cell_length_b 18.231368
_cell_length_c 12.057554
_cell_angle_alpha 90.000000
_cell_angle_beta 90.000000
_cell_angle_gamma 90.000000
_cell_volume 4492.143101
_symmetry_space_group_name_H-M "C M C A"
_symmetry_group_IT_number 64
_symmetry_cell_setting 'orthorhombic'
loop_
_space_group_symop_operation_xyz
x,y,z
-x,1/2-y,1/2+z
x,-y,-z
-x,1/2+y,1/2-z
-x,-y,-z
x,1/2+y,1/2-z
-x,y,z
x,1/2-y,1/2+z
1/2+x,1/2+y,z
1/2-x,-y,1/2+z
1/2+x,1/2-y,-z
1/2-x,y,1/2-z
1/2-x,1/2-y,-z
1/2+x,y,1/2-z
1/2-x,1/2+y,z
1/2+x,-y,1/2+z
loop_
_atom_site_type_symbol
_atom_site_label
_atom_site_fract_x
_atom_site_fract_y
_atom_site_fract_z
Si Si1 0.828992 0.628450 0.503203
Si Si2 0.427146 0.042552 0.656775
Si Si3 0.574262 0.398297 0.578752
Si Si4 0.570077 0.632652 0.178865
Si Si5 0.287669 0.086380 0.140242
Si Si6 0.315909 0.742584 0.806457
Si Si7 0.575328 0.836763 0.162977
O O1 0.873212 0.572115 0.572911
O O2 0.869423 0.654003 0.395873
O O3 0.763156 0.590625 0.460415
O O4 0.820652 0.699321 0.578607
O O5 0.500000 0.060365 0.612453
O O6 0.419491 0.086317 0.771210
O O7 0.425265 0.956292 0.676082
O O8 0.500000 0.431454 0.568888
O O9 0.568846 0.350221 0.690925
O O10 0.641120 0.443806 0.603570
O O11 0.586437 0.352246 0.466911
O O12 0.500000 0.653593 0.128987
O O13 0.250000 0.055083 0.250000
O O14 0.303055 0.171743 0.170086
O O15 0.250000 0.713708 0.750000
O O16 0.375189 0.716171 0.727487
O O17 0.500000 0.812312 0.176159
#
# Coordination Sequence:
#
# PCOD9478977 Si02
#       7
#    16  16  16  16  16  16  16
#     4  11  20  35  61  86 121 153 196 249 300 362
#     4   9  19  36  62  93 122 158 203 248 304 368
#     4  10  21  39  62  86 121 161 200 251 307 366
#     4  10  20  36  62  92 123 159 197 245 308 371
#     4  11  22  39  60  84 121 158 202 250 302 366
#     4  10  22  38  61  85 112 158 204 246 303 363
#     4   9  19  37  61  89 121 157 203 255 298 354
#
# _framework density 24.93242
#
# number of rings (size 3 to 8) (size 9 to 14) (size 15 to 20)
#    0.000    2.000    1.429    2.143    0.000    4.000 
#    0.000    2.857   28.286    0.000    0.000    0.000 
#    0.000    0.000    0.000    0.000    0.000    0.000 
#
# Total GULP energy -313176.296286 kJ/mol
# GULP energy per Si atom -5592.433862 kJ/mol
# Density = 2.487567 g / cm^3
# Si number density = 24.932420 Si / 1000 Ang^3
#
#
#
# Elastic Constant Matrix: (Units=GPa)
#
#
# Indices 1 2 3 4 5 6 
#
# 1 200.5338 12.1315 64.4514 0.0000 0.0000 0.0000
# 2 12.1315 84.2595 37.1056 0.0000 0.0000 0.0000
# 3 64.4514 37.1056 158.2996 0.0000 0.0000 0.0000
# 4 0.0000 0.0000 0.0000 24.2153 0.0000 0.0000
# 5 0.0000 0.0000 0.0000 0.0000 47.1329 0.0000
# 6 0.0000 0.0000 0.0000 0.0000 0.0000 7.2655
#
#
#
# Elastic Compliance Matrix: (Units=1/GPa)
#
#
# Indices 1 2 3 4 5 6 
#
# 1 0.005741 0.000226 -0.002391 0.000000 0.000000 0.000000
# 2 0.000226 0.013243 -0.003196 0.000000 0.000000 0.000000
# 3 -0.002391 -0.003196 0.008040 0.000000 0.000000 0.000000
# 4 0.000000 0.000000 0.000000 0.041296 0.000000 0.000000
# 5 0.000000 0.000000 0.000000 0.000000 0.021217 0.000000
# 6 0.000000 0.000000 0.000000 0.000000 0.000000 0.137637
#
#
# Mechanical properties :
#
#
# Convention : Reuss Voigt Hill
#
# Bulk Modulus (GPa) = 61.33969 74.49665 67.91817
# Shear Modulus (GPa) = 20.54829 37.68304 29.11567
#
# Velocity S-wave (km/s) = 2.87393 3.89190 3.42099
# Velocity P-wave (km/s) = 5.97231 7.08097 6.55014
#
# Compressibility (1/GPa) = 0.01630266
#
# Stress axis : x y z
#
# Youngs Moduli (GPa) = 174.17535 75.51108 124.38339
#
# Poissons Ratio (x) = -0.01707 0.29735
# Poissons Ratio (y) = -0.03938 0.39756
# Poissons Ratio (z) = 0.41638 0.24135
#
# Static dielectric constant tensor:
#      x y z
#    x 2.055640 0.000000 0.000000 
#    y 0.000000 1.972270 0.000000 
#    z 0.000000 0.000000 1.999650 
# 
# From -- ./inp_files/17562.got.cif
#   From: 2010.05.17/outbox.cif.g08.bks.cpg/sg64_9_cif.got.tgz:17562.got - 2010.06.03 16:29:19.
