data_PCOD9478559
_publ_section_title
;
Structure prediction by ZEFSAII (Michael W. Deem and Ramdas Pophale) SiO2 
 PCOD9478559
Probable space group: C M C A
;
_chemical_formula_sum "Si O2"
_cell_formula_units_Z 88
_cell_length_a 26.040239
_cell_length_b 17.962197
_cell_length_c 8.532067
_cell_angle_alpha 90.000000
_cell_angle_beta 90.000000
_cell_angle_gamma 90.000000
_cell_volume 3990.788190
_symmetry_space_group_name_H-M "C M C A"
_symmetry_group_IT_number 64
_symmetry_cell_setting 'orthorhombic'
loop_
_space_group_symop_operation_xyz
x,y,z
-x,1/2-y,1/2+z
x,-y,-z
-x,1/2+y,1/2-z
-x,-y,-z
x,1/2+y,1/2-z
-x,y,z
x,1/2-y,1/2+z
1/2+x,1/2+y,z
1/2-x,-y,1/2+z
1/2+x,1/2-y,-z
1/2-x,y,1/2-z
1/2-x,1/2-y,-z
1/2+x,y,1/2-z
1/2-x,1/2+y,z
1/2+x,-y,1/2+z
loop_
_atom_site_type_symbol
_atom_site_label
_atom_site_fract_x
_atom_site_fract_y
_atom_site_fract_z
Si Si1 0.000000 0.769237 0.543361
Si Si2 0.250000 0.200396 0.750000
Si Si3 0.311234 0.568733 0.920236
Si Si4 0.000000 0.373088 0.266719
Si Si5 0.390191 0.195345 0.043385
Si Si6 0.895774 0.053457 0.657090
Si Si7 0.664827 0.310465 0.857123
O O1 0.000000 0.807566 0.369071
O O2 0.052610 0.802597 0.611494
O O3 0.000000 0.680198 0.578684
O O4 0.282538 0.140782 0.649883
O O5 0.286205 0.254786 0.853100
O O6 0.352390 0.540569 0.790611
O O7 0.280468 0.500000 0.000000
O O8 0.333726 0.607990 0.073463
O O9 0.950547 0.426398 0.238869
O O10 0.349692 0.185723 0.177710
O O11 0.381428 0.132321 0.917525
O O12 0.380036 0.271667 0.955445
O O13 0.899229 0.000000 0.500000
#
# Coordination Sequence:
#
# PCOD9478559 Si02
#       7
#     8   8  16   8  16  16  16
#     4  10  20  34  62 101 127 169 217 278 318 398
#     4  12  26  46  70  96 132 178 240 280 360 396
#     4  12  27  46  68 100 136 174 230 288 348 406
#     4  10  21  38  65  99 136 175 224 272 339 406
#     4  11  21  39  68  97 136 174 225 277 337 399
#     4  11  23  43  65  97 139 183 223 276 345 411
#     4  12  23  43  69 100 133 178 225 286 339 413
#
# _framework density 22.050781000000001
#
# number of rings (size 3 to 8) (size 9 to 14) (size 15 to 20)
#    0.000    0.727    3.636    5.182    0.000    1.455 
#    0.000    0.455    0.000    0.000    0.000    0.000 
#    0.000    0.000    0.000    0.000    0.000    0.000 
#
# Total GULP energy -245012.989032 kJ/mol
# GULP energy per Si atom -5568.477023 kJ/mol
# Density = 2.200059 g / cm^3
# Si number density = 22.050781 Si / 1000 Ang^3
#
#
#
# Elastic Constant Matrix: (Units=GPa)
#
#
# Indices 1 2 3 4 5 6 
#
# 1 81.7399 20.3376 39.4739 0.0000 0.0000 0.0000
# 2 20.3376 89.3213 22.8503 0.0000 0.0000 0.0000
# 3 39.4739 22.8503 61.0401 0.0000 0.0000 0.0000
# 4 0.0000 0.0000 0.0000 53.2313 0.0000 0.0000
# 5 0.0000 0.0000 0.0000 0.0000 7.9025 0.0000
# 6 0.0000 0.0000 0.0000 0.0000 0.0000 13.3504
#
#
#
# Elastic Compliance Matrix: (Units=1/GPa)
#
#
# Indices 1 2 3 4 5 6 
#
# 1 0.017912 -0.001233 -0.011122 0.000000 0.000000 0.000000
# 2 -0.001233 0.012466 -0.003869 0.000000 0.000000 0.000000
# 3 -0.011122 -0.003869 0.025023 0.000000 0.000000 0.000000
# 4 0.000000 0.000000 0.000000 0.018786 0.000000 0.000000
# 5 0.000000 0.000000 0.000000 0.000000 0.126542 0.000000
# 6 0.000000 0.000000 0.000000 0.000000 0.000000 0.074904
#
#
# Mechanical properties :
#
#
# Convention : Reuss Voigt Hill
#
# Bulk Modulus (GPa) = 43.56706 44.15833 43.86270
# Shear Modulus (GPa) = 15.83620 24.85946 20.34783
#
# Velocity S-wave (km/s) = 2.68278 3.36128 3.04101
# Velocity P-wave (km/s) = 5.42189 5.92735 5.68025
#
# Compressibility (1/GPa) = 0.02295312
#
# Stress axis : x y z
#
# Youngs Moduli (GPa) = 55.82981 80.21721 39.96279
#
# Poissons Ratio (x) = 0.09892 0.44445
# Poissons Ratio (y) = 0.06885 0.15463
# Poissons Ratio (z) = 0.62091 0.31038
#
# Static dielectric constant tensor:
#      x y z
#    x 1.901790 0.000000 0.000000 
#    y 0.000000 1.789870 0.000000 
#    z 0.000000 0.000000 1.930370 
# 
# From -- ./inp_files/11120.got.cif
#   From: 2010.05.17/outbox.cif.g08.bks.cpg/sg64_6_cif.got.tgz:11120.got - 2010.06.03 16:29:19.
