data_PCOD9478577
_publ_section_title
;
Structure prediction by ZEFSAII (Michael W. Deem and Ramdas Pophale) SiO2 
 PCOD9478577
Probable space group: C M C A
;
_chemical_formula_sum "Si O2"
_cell_formula_units_Z 88
_cell_length_a 29.917450
_cell_length_b 27.382822
_cell_length_c 4.909012
_cell_angle_alpha 90.000000
_cell_angle_beta 90.000000
_cell_angle_gamma 90.000000
_cell_volume 4021.581468
_symmetry_space_group_name_H-M "C M C A"
_symmetry_group_IT_number 64
_symmetry_cell_setting 'orthorhombic'
loop_
_space_group_symop_operation_xyz
x,y,z
-x,1/2-y,1/2+z
x,-y,-z
-x,1/2+y,1/2-z
-x,-y,-z
x,1/2+y,1/2-z
-x,y,z
x,1/2-y,1/2+z
1/2+x,1/2+y,z
1/2-x,-y,1/2+z
1/2+x,1/2-y,-z
1/2-x,y,1/2-z
1/2-x,1/2-y,-z
1/2+x,y,1/2-z
1/2-x,1/2+y,z
1/2+x,-y,1/2+z
loop_
_atom_site_type_symbol
_atom_site_label
_atom_site_fract_x
_atom_site_fract_y
_atom_site_fract_z
Si Si1 0.578029 0.356061 0.077949
Si Si2 0.952950 0.953456 0.803382
Si Si3 0.641735 0.138289 0.085665
Si Si4 0.000000 0.717253 0.739863
Si Si5 0.647959 0.033066 0.230175
Si Si6 0.803367 0.220262 0.714778
O O1 0.551822 0.403590 0.972517
O O2 0.610478 0.340976 0.828224
O O3 0.608213 0.371806 0.333220
O O4 0.543665 0.314458 0.168143
O O5 0.904953 0.958982 0.664816
O O6 0.000000 0.950756 0.643839
O O7 0.955223 0.000000 0.000000
O O8 0.676974 0.173839 0.940196
O O9 0.663734 0.089148 0.213529
O O10 0.000000 0.765435 0.551220
O O11 0.650835 0.000000 0.500000
O O12 0.669581 0.000000 0.000000
O O13 0.817422 0.265260 0.518503
O O14 0.750000 0.216086 0.750000
#
# Coordination Sequence:
#
# PCOD9478577 Si02
#       6
#    16  16  16   8  16  16
#     4  11  23  39  55  84 114 154 210 252 295 370
#     4   9  17  32  53  75 106 145 188 244 300 341
#     4  11  22  37  63  87 117 160 200 246 310 374
#     4  12  26  42  55  74 112 160 207 262 308 344
#     4  10  20  35  53  84 120 154 199 247 298 358
#     4  10  22  40  63  94 126 151 191 255 319 378
#
# _framework density 21.881938999999999
#
# number of rings (size 3 to 8) (size 9 to 14) (size 15 to 20)
#    0.000    1.636    0.909    5.455    0.000    4.727 
#    1.636    0.000    0.000    0.000    0.000   11.455 
#    0.000    0.000    0.000    0.000    0.000    0.000 
#
# Total GULP energy -245406.899048 kJ/mol
# GULP energy per Si atom -5577.429524 kJ/mol
# Density = 2.183213 g / cm^3
# Si number density = 21.881939 Si / 1000 Ang^3
#
#
#
# Elastic Constant Matrix: (Units=GPa)
#
#
# Indices 1 2 3 4 5 6 
#
# 1 39.1990 47.5185 36.4036 0.0000 0.0000 0.0000
# 2 47.5185 112.1684 20.0078 0.0000 0.0000 0.0000
# 3 36.4036 20.0078 111.4698 0.0000 0.0000 0.0000
# 4 0.0000 0.0000 0.0000 43.1409 0.0000 0.0000
# 5 0.0000 0.0000 0.0000 0.0000 46.1238 0.0000
# 6 0.0000 0.0000 0.0000 0.0000 0.0000 -113.0491
#
#
#
# Elastic Compliance Matrix: (Units=1/GPa)
#
#
# Indices 1 2 3 4 5 6 
#
# 1 0.084459 -0.031881 -0.021860 0.000000 0.000000 0.000000
# 2 -0.031881 0.021244 0.006598 0.000000 0.000000 0.000000
# 3 -0.021860 0.006598 0.014926 0.000000 0.000000 0.000000
# 4 0.000000 0.000000 0.000000 0.023180 0.000000 0.000000
# 5 0.000000 0.000000 0.000000 0.000000 0.021681 0.000000
# 6 0.000000 0.000000 0.000000 0.000000 0.000000 -0.008846
#
#
# Mechanical properties :
#
#
# Convention : Reuss Voigt Hill
#
# Bulk Modulus (GPa) = 37.95933 52.29968 45.12950
# Shear Modulus (GPa) = 19.25226 5.83693 12.54460
#
# Velocity S-wave (km/s) = 2.96940 1.63501 2.39694
# Velocity P-wave (km/s) = 5.39828 5.24567 5.32252
#
# Compressibility (1/GPa) = 0.02634399
#
# Stress axis : x y z
#
# Youngs Moduli (GPa) = 11.84005 47.07230 66.99827
#
# Poissons Ratio (x) = 1.50069 1.46460
# Poissons Ratio (y) = 0.37747 -0.44208
# Poissons Ratio (z) = 0.25883 -0.31060
#
# Static dielectric constant tensor:
#      x y z
#    x 1.815820 0.000000 0.000000 
#    y 0.000000 1.871360 0.000000 
#    z 0.000000 0.000000 1.800700 
# 
# From -- ./inp_files/3304.got.cif
#   From: 2010.05.17/outbox.cif.g08.bks.cpg/sg64_2_cif.got.tgz:3304.got - 2010.06.03 16:29:19.
