data_PCOD9478410
_publ_section_title
;
Structure prediction by ZEFSAII (Michael W. Deem and Ramdas Pophale) SiO2 
 PCOD9478410
Probable space group: C M C A
;
_chemical_formula_sum "Si O2"
_cell_formula_units_Z 72
_cell_length_a 15.630588
_cell_length_b 8.701032
_cell_length_c 24.880895
_cell_angle_alpha 90.000000
_cell_angle_beta 90.000000
_cell_angle_gamma 90.000000
_cell_volume 3383.857612
_symmetry_space_group_name_H-M "C M C A"
_symmetry_group_IT_number 64
_symmetry_cell_setting 'orthorhombic'
loop_
_space_group_symop_operation_xyz
x,y,z
-x,1/2-y,1/2+z
x,-y,-z
-x,1/2+y,1/2-z
-x,-y,-z
x,1/2+y,1/2-z
-x,y,z
x,1/2-y,1/2+z
1/2+x,1/2+y,z
1/2-x,-y,1/2+z
1/2+x,1/2-y,-z
1/2-x,y,1/2-z
1/2-x,1/2-y,-z
1/2+x,y,1/2-z
1/2-x,1/2+y,z
1/2+x,-y,1/2+z
loop_
_atom_site_type_symbol
_atom_site_label
_atom_site_fract_x
_atom_site_fract_y
_atom_site_fract_z
Si Si1 0.785397 0.877864 0.460024
Si Si2 0.000000 0.016056 0.179589
Si Si3 0.000000 0.147400 0.302933
Si Si4 0.750000 0.311084 0.250000
Si Si5 0.666756 0.892918 0.607351
Si Si6 0.323514 0.924323 0.818312
O O1 0.750000 0.750000 0.500000
O O2 0.844220 0.773277 0.421233
O O3 0.829295 0.000000 0.500000
O O4 0.705563 0.968842 0.430852
O O5 0.914484 0.059124 0.144275
O O6 0.000000 0.093286 0.239612
O O7 0.000000 0.832041 0.190246
O O8 0.080185 0.074821 0.334409
O O9 0.711461 0.418988 0.294939
O O10 0.676580 0.200135 0.229563
O O11 0.752355 0.865722 0.641930
#
# Coordination Sequence:
#
# PCOD9478410 Si02
#       6
#    16   8   8   8  16  16
#     4   9  20  41  67  90 115 152 197 258 323 375
#     4  12  26  40  60  91 129 171 211 254 298 362
#     4  12  24  38  56  87 129 169 207 248 294 342
#     4  10  20  34  52  78 116 160 204 242 290 336
#     4  11  22  40  64  91 122 162 210 253 310 377
#     4  11  21  36  57  82 118 164 204 246 290 353
#
# _framework density 21.277491000000001
#
# number of rings (size 3 to 8) (size 9 to 14) (size 15 to 20)
#    0.000    1.333    0.000    8.000    0.000    1.778 
#    0.000    5.556    0.000    5.333    0.000    0.000 
#    0.000    0.000    0.000    0.000    0.000    0.000 
#
# Total GULP energy -200541.609988 kJ/mol
# GULP energy per Si atom -5570.600277 kJ/mol
# Density = 2.122906 g / cm^3
# Si number density = 21.277491 Si / 1000 Ang^3
#
#
#
# Elastic Constant Matrix: (Units=GPa)
#
#
# Indices 1 2 3 4 5 6 
#
# 1 135.4682 27.8120 30.7781 0.0000 0.0000 0.0000
# 2 27.8120 133.1760 47.5114 0.0000 0.0000 0.0000
# 3 30.7781 47.5114 77.6757 0.0000 0.0000 0.0000
# 4 0.0000 0.0000 0.0000 47.9454 0.0000 0.0000
# 5 0.0000 0.0000 0.0000 0.0000 22.2732 0.0000
# 6 0.0000 0.0000 0.0000 0.0000 0.0000 -19.2445
#
#
#
# Elastic Compliance Matrix: (Units=1/GPa)
#
#
# Indices 1 2 3 4 5 6 
#
# 1 0.008163 -0.000705 -0.002804 0.000000 0.000000 0.000000
# 2 -0.000705 0.009666 -0.005633 0.000000 0.000000 0.000000
# 3 -0.002804 -0.005633 0.017430 0.000000 0.000000 0.000000
# 4 0.000000 0.000000 0.000000 0.020857 0.000000 0.000000
# 5 0.000000 0.000000 0.000000 0.000000 0.044897 0.000000
# 6 0.000000 0.000000 0.000000 0.000000 0.000000 -0.051963
#
#
# Mechanical properties :
#
#
# Convention : Reuss Voigt Hill
#
# Bulk Modulus (GPa) = 58.90302 62.05814 60.48058
# Shear Modulus (GPa) = 68.50056 26.20937 47.35496
#
# Velocity S-wave (km/s) = 5.68012 3.51349 4.72273
# Velocity P-wave (km/s) = 8.41200 6.75936 7.63055
#
# Compressibility (1/GPa) = 0.01697706
#
# Stress axis : x y z
#
# Youngs Moduli (GPa) = 122.49714 103.45994 57.37098
#
# Poissons Ratio (x) = 0.07290 0.16085
# Poissons Ratio (y) = 0.08631 0.32317
# Poissons Ratio (z) = 0.34345 0.58278
#
# Static dielectric constant tensor:
#      x y z
#    x 2.280590 0.000000 0.000000 
#    y 0.000000 1.811980 0.000000 
#    z 0.000000 0.000000 1.962340 
# 
# From -- ./inp_files/49842.got.cif
#   From: 2010.05.17/outbox.cif.g08.bks.cpg/sg64_25_cif.got.tgz:49842.got - 2010.06.03 16:29:19.
