data_PCOD9478882
_publ_section_title
;
Structure prediction by ZEFSAII (Michael W. Deem and Ramdas Pophale) SiO2 
 PCOD9478882
Probable space group: C M C A
;
_chemical_formula_sum "Si O2"
_cell_formula_units_Z 112
_cell_length_a 16.622071
_cell_length_b 25.610341
_cell_length_c 14.535757
_cell_angle_alpha 90.000000
_cell_angle_beta 90.000000
_cell_angle_gamma 90.000000
_cell_volume 6187.826788
_symmetry_space_group_name_H-M "C M C A"
_symmetry_group_IT_number 64
_symmetry_cell_setting 'orthorhombic'
loop_
_space_group_symop_operation_xyz
x,y,z
-x,1/2-y,1/2+z
x,-y,-z
-x,1/2+y,1/2-z
-x,-y,-z
x,1/2+y,1/2-z
-x,y,z
x,1/2-y,1/2+z
1/2+x,1/2+y,z
1/2-x,-y,1/2+z
1/2+x,1/2-y,-z
1/2-x,y,1/2-z
1/2-x,1/2-y,-z
1/2+x,y,1/2-z
1/2-x,1/2+y,z
1/2+x,-y,1/2+z
loop_
_atom_site_type_symbol
_atom_site_label
_atom_site_fract_x
_atom_site_fract_y
_atom_site_fract_z
Si Si1 0.592889 0.395630 0.174856
Si Si2 0.906560 0.687495 0.126236
Si Si3 0.800643 0.414641 0.842737
Si Si4 0.761062 0.095662 0.959179
Si Si5 0.170254 0.471356 0.185520
Si Si6 0.596416 0.217783 0.763930
Si Si7 0.687746 0.789428 0.048048
O O1 0.500000 0.395129 0.146240
O O2 0.653142 0.408669 0.091324
O O3 0.607382 0.437711 0.255967
O O4 0.613056 0.338524 0.217186
O O5 0.855302 0.636165 0.146957
O O6 0.886150 0.735691 0.192947
O O7 0.000000 0.676033 0.136934
O O8 0.885686 0.704307 0.022856
O O9 0.750000 0.409544 0.750000
O O10 0.849718 0.468842 0.836241
O O11 0.743522 0.417214 0.932891
O O12 0.698027 0.058813 0.905708
O O13 0.731362 0.154807 0.945072
O O14 0.250000 0.472531 0.250000
O O15 0.500000 0.218739 0.785397
O O16 0.651522 0.225239 0.853424
O O17 0.750000 0.750000 0.000000
#
# Coordination Sequence:
#
# PCOD9478882 Si02
#       7
#    16  16  16  16  16  16  16
#     4  10  20  36  61  92 119 148 193 248 301 349
#     4  10  23  39  55  81 121 154 189 241 291 349
#     4  10  22  38  59  82 116 159 202 238 292 353
#     4  10  20  36  58  87 116 150 196 249 289 338
#     4   9  18  36  60  85 114 149 192 246 287 339
#     4  10  21  38  58  84 121 155 189 244 302 345
#     4  11  22  34  60  86 112 154 196 238 285 354
#
# _framework density 18.100052999999999
#
# number of rings (size 3 to 8) (size 9 to 14) (size 15 to 20)
#    0.000    2.000    1.429    1.714    4.000    1.714 
#    0.000    1.429    0.000   13.714    0.000    0.000 
#    0.000    0.000    0.000    0.000    0.000    0.000 
#
# Total GULP energy -312525.010547 kJ/mol
# GULP energy per Si atom -5580.803760 kJ/mol
# Density = 1.805886 g / cm^3
# Si number density = 18.100053 Si / 1000 Ang^3
#
#
#
# Elastic Constant Matrix: (Units=GPa)
#
#
# Indices 1 2 3 4 5 6 
#
# 1 54.6642 34.8502 53.5893 0.0000 0.0000 0.0000
# 2 34.8502 106.5463 31.8547 0.0000 0.0000 0.0000
# 3 53.5893 31.8547 132.2832 0.0000 0.0000 0.0000
# 4 0.0000 0.0000 0.0000 24.7247 0.0000 0.0000
# 5 0.0000 0.0000 0.0000 0.0000 28.0900 0.0000
# 6 0.0000 0.0000 0.0000 0.0000 0.0000 17.5788
#
#
#
# Elastic Compliance Matrix: (Units=1/GPa)
#
#
# Indices 1 2 3 4 5 6 
#
# 1 0.035608 -0.007903 -0.012522 0.000000 0.000000 0.000000
# 2 -0.007903 0.011868 0.000344 0.000000 0.000000 0.000000
# 3 -0.012522 0.000344 0.012550 0.000000 0.000000 0.000000
# 4 0.000000 0.000000 0.000000 0.040445 0.000000 0.000000
# 5 0.000000 0.000000 0.000000 0.000000 0.035600 0.000000
# 6 0.000000 0.000000 0.000000 0.000000 0.000000 0.056887
#
#
# Mechanical properties :
#
#
# Convention : Reuss Voigt Hill
#
# Bulk Modulus (GPa) = 50.34616 59.34244 54.84430
# Shear Modulus (GPa) = 20.85588 25.62533 23.24061
#
# Velocity S-wave (km/s) = 3.39817 3.76674 3.58719
# Velocity P-wave (km/s) = 6.57819 7.19547 6.89374
#
# Compressibility (1/GPa) = 0.01986249
#
# Stress axis : x y z
#
# Youngs Moduli (GPa) = 28.08380 84.26125 79.68437
#
# Poissons Ratio (x) = 0.66593 0.99780
# Poissons Ratio (y) = 0.22195 -0.02740
# Poissons Ratio (z) = 0.35166 -0.02897
#
# Static dielectric constant tensor:
#      x y z
#    x 1.606780 0.000000 0.000000 
#    y 0.000000 1.625950 0.000000 
#    z 0.000000 0.000000 1.607600 
# 
# From -- ./inp_files/24211.got.cif
#   From: 2010.05.17/outbox.cif.g08.bks.cpg/sg64_13_cif.got.tgz:24211.got - 2010.06.03 16:29:19.
