data_PCOD9478278
_publ_section_title
;
Structure prediction by ZEFSAII (Michael W. Deem and Ramdas Pophale) SiO2 
 PCOD9478278
Probable space group: C M C A
;
_chemical_formula_sum "Si O2"
_cell_formula_units_Z 104
_cell_length_a 20.308309
_cell_length_b 27.258501
_cell_length_c 9.188613
_cell_angle_alpha 90.000000
_cell_angle_beta 90.000000
_cell_angle_gamma 90.000000
_cell_volume 5086.577815
_symmetry_space_group_name_H-M "C M C A"
_symmetry_group_IT_number 64
_symmetry_cell_setting 'orthorhombic'
loop_
_space_group_symop_operation_xyz
x,y,z
-x,1/2-y,1/2+z
x,-y,-z
-x,1/2+y,1/2-z
-x,-y,-z
x,1/2+y,1/2-z
-x,y,z
x,1/2-y,1/2+z
1/2+x,1/2+y,z
1/2-x,-y,1/2+z
1/2+x,1/2-y,-z
1/2-x,y,1/2-z
1/2-x,1/2-y,-z
1/2+x,y,1/2-z
1/2-x,1/2+y,z
1/2+x,-y,1/2+z
loop_
_atom_site_type_symbol
_atom_site_label
_atom_site_fract_x
_atom_site_fract_y
_atom_site_fract_z
Si Si1 0.750000 0.408068 0.250000
Si Si2 0.427911 0.041330 0.794370
Si Si3 0.644983 0.419338 0.030488
Si Si4 0.826547 0.957357 0.718338
Si Si5 0.834191 0.789401 0.614864
Si Si6 0.179861 0.308710 0.552818
Si Si7 0.639302 0.618820 0.531399
O O1 0.790379 0.435513 0.376315
O O2 0.694009 0.379112 0.339402
O O3 0.500000 0.018835 0.804632
O O4 0.413785 0.063359 0.633991
O O5 0.419248 0.086880 0.902837
O O6 0.369455 0.003569 0.832464
O O7 0.642395 0.443030 0.873356
O O8 0.655547 0.361338 0.003209
O O9 0.750000 0.966242 0.750000
O O10 0.832451 0.912602 0.604553
O O11 0.846128 0.796032 0.785850
O O12 0.838516 0.733997 0.559822
O O13 0.759161 0.806967 0.576334
O O14 0.877762 0.827464 0.524154
#
# Coordination Sequence:
#
# PCOD9478278 Si02
#       7
#     8  16  16  16  16  16  16
#     4  10  20  32  58  92 124 170 202 244 308 366
#     4  11  29  46  63  90 126 173 220 267 322 387
#     4  11  22  39  63  89 134 167 212 258 315 376
#     4  12  23  39  67  98 128 166 216 269 321 380
#     4  10  20  32  57  96 136 167 199 252 317 380
#     4  10  20  32  57  96 136 167 199 252 317 380
#     4  11  22  39  63  89 134 167 212 258 315 376
#
# _framework density 20.445965000000001
#
# number of rings (size 3 to 8) (size 9 to 14) (size 15 to 20)
#    0.000    1.231    4.615    0.923    8.615    3.692 
#    0.000    0.000    0.000    0.923    0.000    0.000 
#    0.000    0.000    0.000    0.000    0.000    0.000 
#
# Total GULP energy -290427.355780 kJ/mol
# GULP energy per Si atom -5585.141457 kJ/mol
# Density = 2.039943 g / cm^3
# Si number density = 20.445965 Si / 1000 Ang^3
#
#
#
# Elastic Constant Matrix: (Units=GPa)
#
#
# Indices 1 2 3 4 5 6 
#
# 1 59.7260 6.5765 2.6560 0.0000 0.0000 0.0000
# 2 6.5765 100.1491 22.7119 0.0000 0.0000 0.0000
# 3 2.6560 22.7119 118.0130 0.0000 0.0000 0.0000
# 4 0.0000 0.0000 0.0000 36.4026 0.0000 0.0000
# 5 0.0000 0.0000 0.0000 0.0000 8.0964 0.0000
# 6 0.0000 0.0000 0.0000 0.0000 0.0000 4.1231
#
#
#
# Elastic Compliance Matrix: (Units=1/GPa)
#
#
# Indices 1 2 3 4 5 6 
#
# 1 0.016868 -0.001068 -0.000174 0.000000 0.000000 0.000000
# 2 -0.001068 0.010508 -0.001998 0.000000 0.000000 0.000000
# 3 -0.000174 -0.001998 0.008862 0.000000 0.000000 0.000000
# 4 0.000000 0.000000 0.000000 0.027471 0.000000 0.000000
# 5 0.000000 0.000000 0.000000 0.000000 0.123511 0.000000
# 6 0.000000 0.000000 0.000000 0.000000 0.000000 0.242534
#
#
# Mechanical properties :
#
#
# Convention : Reuss Voigt Hill
#
# Bulk Modulus (GPa) = 33.60461 37.97522 35.78992
# Shear Modulus (GPa) = 11.20684 26.12068 18.66376
#
# Velocity S-wave (km/s) = 2.34374 3.57816 3.02459
# Velocity P-wave (km/s) = 4.87808 5.97367 5.45346
#
# Compressibility (1/GPa) = 0.02975782
#
# Stress axis : x y z
#
# Youngs Moduli (GPa) = 59.28217 95.16159 112.83953
#
# Poissons Ratio (x) = 0.10165 0.01964
# Poissons Ratio (y) = 0.06333 0.22549
# Poissons Ratio (z) = 0.01032 0.19016
#
# Static dielectric constant tensor:
#      x y z
#    x 1.729910 0.000000 0.000000 
#    y 0.000000 1.753440 0.000000 
#    z 0.000000 0.000000 1.748610 
# 
# From -- ./inp_files/8532.got.cif
#   From: 2010.05.17/outbox.cif.g08.bks.cpg/sg64_5_cif.got.tgz:8532.got - 2010.06.03 16:29:19.
