data_PCOD9478022
_publ_section_title
;
Structure prediction by ZEFSAII (Michael W. Deem and Ramdas Pophale) SiO2 
 PCOD9478022
Probable space group: C M C A
;
_chemical_formula_sum "Si O2"
_cell_formula_units_Z 80
_cell_length_a 16.210142
_cell_length_b 8.749944
_cell_length_c 25.389483
_cell_angle_alpha 90.000000
_cell_angle_beta 90.000000
_cell_angle_gamma 90.000000
_cell_volume 3601.189294
_symmetry_space_group_name_H-M "C M C A"
_symmetry_group_IT_number 64
_symmetry_cell_setting 'orthorhombic'
loop_
_space_group_symop_operation_xyz
x,y,z
-x,1/2-y,1/2+z
x,-y,-z
-x,1/2+y,1/2-z
-x,-y,-z
x,1/2+y,1/2-z
-x,y,z
x,1/2-y,1/2+z
1/2+x,1/2+y,z
1/2-x,-y,1/2+z
1/2+x,1/2-y,-z
1/2-x,y,1/2-z
1/2-x,1/2-y,-z
1/2+x,y,1/2-z
1/2-x,1/2+y,z
1/2+x,-y,1/2+z
loop_
_atom_site_type_symbol
_atom_site_label
_atom_site_fract_x
_atom_site_fract_y
_atom_site_fract_z
Si Si1 0.500000 0.071013 0.259821
Si Si2 0.861276 0.939743 0.169033
Si Si3 0.000000 0.240846 0.514252
Si Si4 0.000000 0.371126 0.171167
Si Si5 0.500000 0.446336 0.081270
Si Si6 0.273759 0.663641 0.373020
Si Si7 0.638356 0.616566 0.583865
O O1 0.581413 0.987840 0.282810
O O2 0.500000 0.037618 0.198055
O O3 0.500000 0.239834 0.284326
O O4 0.785714 0.054304 0.160584
O O5 0.825582 0.769685 0.166427
O O6 0.920390 0.952373 0.118163
O O7 0.000000 0.401056 0.546413
O O8 0.000000 0.294735 0.454261
O O9 0.918780 0.152596 0.533982
O O10 0.920974 0.351677 0.134077
O O11 0.329706 0.555206 0.409175
O O12 0.216653 0.772334 0.409270
#
# Coordination Sequence:
#
# PCOD9478022 Si02
#       7
#     8  16   8   8   8  16  16
#     4  11  23  39  59  82 112 149 191 228 274 333
#     4  10  20  40  59  82 114 149 184 230 280 327
#     4  10  19  36  60  84 111 151 190 225 273 334
#     4  11  23  39  59  82 112 149 191 228 274 333
#     4  10  19  36  60  84 111 151 190 225 273 334
#     4  10  20  36  62  82 114 150 180 230 286 328
#     4  10  20  40  59  82 114 149 184 230 280 327
#
# _framework density 22.214884000000001
#
# number of rings (size 3 to 8) (size 9 to 14) (size 15 to 20)
#    0.000    1.800    4.000    1.200    2.800    2.400 
#    0.000   14.000    0.000    0.000    0.000    0.000 
#    0.000    0.000    0.000    0.000    0.000    0.000 
#
# Total GULP energy -223783.988786 kJ/mol
# GULP energy per Si atom -5594.599720 kJ/mol
# Density = 2.216432 g / cm^3
# Si number density = 22.214884 Si / 1000 Ang^3
#
#
#
# Elastic Constant Matrix: (Units=GPa)
#
#
# Indices 1 2 3 4 5 6 
#
# 1 80.5248 41.3178 -3.2267 0.0000 0.0000 0.0000
# 2 41.3178 107.1205 5.4810 0.0000 0.0000 0.0000
# 3 -3.2267 5.4810 41.3874 0.0000 0.0000 0.0000
# 4 0.0000 0.0000 0.0000 27.4579 0.0000 0.0000
# 5 0.0000 0.0000 0.0000 0.0000 -6.2302 0.0000
# 6 0.0000 0.0000 0.0000 0.0000 0.0000 436.1375
#
#
#
# Elastic Compliance Matrix: (Units=1/GPa)
#
#
# Indices 1 2 3 4 5 6 
#
# 1 0.015651 -0.006141 0.002033 0.000000 0.000000 0.000000
# 2 -0.006141 0.011808 -0.002043 0.000000 0.000000 0.000000
# 3 0.002033 -0.002043 0.024591 0.000000 0.000000 0.000000
# 4 0.000000 0.000000 0.000000 0.036419 0.000000 0.000000
# 5 0.000000 0.000000 0.000000 0.000000 -0.160509 0.000000
# 6 0.000000 0.000000 0.000000 0.000000 0.000000 0.002293
#
#
# Mechanical properties :
#
#
# Convention : Reuss Voigt Hill
#
# Bulk Modulus (GPa) = 25.15699 35.13075 30.14387
# Shear Modulus (GPa) = -113.13003 103.83708 -4.64648
#
# Velocity S-wave (km/s) = -7.14394 6.84424 -1.44781
# Velocity P-wave (km/s) = 7.52987 8.84910 3.28692
#
# Compressibility (1/GPa) = 0.03975038
#
# Stress axis : x y z
#
# Youngs Moduli (GPa) = 63.89408 84.68561 40.66536
#
# Poissons Ratio (x) = 0.52004 -0.08269
# Poissons Ratio (y) = 0.39236 0.08306
# Poissons Ratio (z) = -0.12992 0.17297
#
# Static dielectric constant tensor:
#      x y z
#    x 1.824470 0.000000 0.000000 
#    y 0.000000 1.846860 0.000000 
#    z 0.000000 0.000000 1.790610 
# 
# From -- ./inp_files/47914.got.cif
#   From: 2010.05.17/outbox.cif.g08.bks.cpg/sg64_24_cif.got.tgz:47914.got - 2010.06.03 16:29:19.
