data_PCOD9478779
_publ_section_title
;
Structure prediction by ZEFSAII (Michael W. Deem and Ramdas Pophale) SiO2 
 PCOD9478779
Probable space group: C M C A
;
_chemical_formula_sum "Si O2"
_cell_formula_units_Z 80
_cell_length_a 19.125296
_cell_length_b 21.089862
_cell_length_c 9.271558
_cell_angle_alpha 90.000000
_cell_angle_beta 90.000000
_cell_angle_gamma 90.000000
_cell_volume 3739.681560
_symmetry_space_group_name_H-M "C M C A"
_symmetry_group_IT_number 64
_symmetry_cell_setting 'orthorhombic'
loop_
_space_group_symop_operation_xyz
x,y,z
-x,1/2-y,1/2+z
x,-y,-z
-x,1/2+y,1/2-z
-x,-y,-z
x,1/2+y,1/2-z
-x,y,z
x,1/2-y,1/2+z
1/2+x,1/2+y,z
1/2-x,-y,1/2+z
1/2+x,1/2-y,-z
1/2-x,y,1/2-z
1/2-x,1/2-y,-z
1/2+x,y,1/2-z
1/2-x,1/2+y,z
1/2+x,-y,1/2+z
loop_
_atom_site_type_symbol
_atom_site_label
_atom_site_fract_x
_atom_site_fract_y
_atom_site_fract_z
Si Si1 0.652694 0.817349 0.956508
Si Si2 0.699116 0.814341 0.417377
Si Si3 0.728981 0.000000 0.500000
Si Si4 0.149538 0.891407 0.824713
Si Si5 0.750000 0.081689 0.750000
Si Si6 0.000000 0.284554 0.967672
Si Si7 0.500000 0.660390 0.149464
O O1 0.662193 0.749927 0.872944
O O2 0.665131 0.874084 0.842047
O O3 0.573799 0.816018 0.015892
O O4 0.716504 0.810826 0.068590
O O5 0.677248 0.833422 0.577731
O O6 0.688605 0.875300 0.317374
O O7 0.682884 0.953868 0.603625
O O8 0.772987 0.959480 0.386321
O O9 0.067067 0.884537 0.845450
O O10 0.000000 0.296753 0.795137
O O11 0.000000 0.211540 0.019911
#
# Coordination Sequence:
#
# PCOD9478779 Si02
#       7
#    16  16   8  16   8   8   8
#     4  10  21  34  59  88 124 151 187 245 300 361
#     4  10  21  34  57  90 119 145 196 239 306 350
#     4  10  24  43  56  82 120 155 210 236 292 345
#     4  10  21  38  59  83 118 160 196 242 293 348
#     4  10  24  38  60  86 114 158 194 254 292 350
#     4  10  20  36  54  85 128 154 186 231 303 367
#     4  10  20  37  58  87 116 160 191 238 306 355
#
# _framework density 21.392195000000001
#
# number of rings (size 3 to 8) (size 9 to 14) (size 15 to 20)
#    0.000    2.000    2.000    0.600   11.200    0.400 
#    0.000    0.000    0.000    1.200    0.000    4.200 
#    0.000    0.000    0.000    0.000    0.000    0.000 
#
# Total GULP energy -222909.943467 kJ/mol
# GULP energy per Si atom -5572.748587 kJ/mol
# Density = 2.134351 g / cm^3
# Si number density = 21.392195 Si / 1000 Ang^3
#
#
#
# Elastic Constant Matrix: (Units=GPa)
#
#
# Indices 1 2 3 4 5 6 
#
# 1 120.6283 7.5615 11.3483 0.0000 0.0000 0.0000
# 2 7.5615 74.5557 16.8249 0.0000 0.0000 0.0000
# 3 11.3483 16.8249 39.7832 0.0000 0.0000 0.0000
# 4 0.0000 0.0000 0.0000 46.6862 0.0000 0.0000
# 5 0.0000 0.0000 0.0000 0.0000 18.2951 0.0000
# 6 0.0000 0.0000 0.0000 0.0000 0.0000 15.7495
#
#
#
# Elastic Compliance Matrix: (Units=1/GPa)
#
#
# Indices 1 2 3 4 5 6 
#
# 1 0.008527 -0.000349 -0.002285 0.000000 0.000000 0.000000
# 2 -0.000349 0.014842 -0.006177 0.000000 0.000000 0.000000
# 3 -0.002285 -0.006177 0.028400 0.000000 0.000000 0.000000
# 4 0.000000 0.000000 0.000000 0.021420 0.000000 0.000000
# 5 0.000000 0.000000 0.000000 0.000000 0.054660 0.000000
# 6 0.000000 0.000000 0.000000 0.000000 0.000000 0.063494
#
#
# Mechanical properties :
#
#
# Convention : Reuss Voigt Hill
#
# Bulk Modulus (GPa) = 29.28514 34.04851 31.66682
# Shear Modulus (GPa) = 22.69143 29.42832 26.05987
#
# Velocity S-wave (km/s) = 3.26042 3.71301 3.49405
# Velocity P-wave (km/s) = 5.28140 5.85942 5.57790
#
# Compressibility (1/GPa) = 0.03414702
#
# Stress axis : x y z
#
# Youngs Moduli (GPa) = 117.27798 67.37520 35.21074
#
# Poissons Ratio (x) = 0.02353 0.08044
# Poissons Ratio (y) = 0.04096 0.21751
# Poissons Ratio (z) = 0.26793 0.41620
#
# Static dielectric constant tensor:
#      x y z
#    x 1.809050 0.000000 0.000000 
#    y 0.000000 1.904110 0.000000 
#    z 0.000000 0.000000 1.850460 
# 
# From -- ./inp_files/8159.got.cif
#   From: 2010.05.17/outbox.cif.g08.bks.cpg/sg64_5_cif.got.tgz:8159.got - 2010.06.03 16:29:19.
