data_PCOD9478780
_publ_section_title
;
Structure prediction by ZEFSAII (Michael W. Deem and Ramdas Pophale) SiO2 
 PCOD9478780
Probable space group: C M C A
;
_chemical_formula_sum "Si O2"
_cell_formula_units_Z 80
_cell_length_a 8.775967
_cell_length_b 26.872857
_cell_length_c 19.257121
_cell_angle_alpha 90.000000
_cell_angle_beta 90.000000
_cell_angle_gamma 90.000000
_cell_volume 4541.509028
_symmetry_space_group_name_H-M "C M C A"
_symmetry_group_IT_number 64
_symmetry_cell_setting 'orthorhombic'
loop_
_space_group_symop_operation_xyz
x,y,z
-x,1/2-y,1/2+z
x,-y,-z
-x,1/2+y,1/2-z
-x,-y,-z
x,1/2+y,1/2-z
-x,y,z
x,1/2-y,1/2+z
1/2+x,1/2+y,z
1/2-x,-y,1/2+z
1/2+x,1/2-y,-z
1/2-x,y,1/2-z
1/2-x,1/2-y,-z
1/2+x,y,1/2-z
1/2-x,1/2+y,z
1/2+x,-y,1/2+z
loop_
_atom_site_type_symbol
_atom_site_label
_atom_site_fract_x
_atom_site_fract_y
_atom_site_fract_z
Si Si1 0.318332 0.946395 0.672950
Si Si2 0.682041 0.748478 0.922373
Si Si3 0.816715 0.858430 0.582600
Si Si4 0.316577 0.551395 0.672941
Si Si5 0.817310 0.646233 0.919164
O O1 0.500000 0.949732 0.677196
O O2 0.250000 0.938992 0.750000
O O3 0.266549 0.901169 0.624724
O O4 0.250250 0.998942 0.646929
O O5 0.500000 0.746071 0.926571
O O6 0.721853 0.802502 0.891144
O O7 0.744974 0.697397 0.891050
O O8 0.750000 0.750000 0.000000
O O9 0.776974 0.860453 0.500547
O O10 0.000000 0.864867 0.588297
O O11 0.500000 0.547981 0.676175
O O12 0.250000 0.558915 0.750000
O O13 0.274018 0.597775 0.624511
O O14 0.000000 0.651690 0.916448
#
# Coordination Sequence:
#
# PCOD9478780 Si02
#       5
#    16  16  16  16  16
#     4  11  22  36  54  75 100 134 171 211 257 305
#     4   9  17  30  51  76 105 137 168 205 252 301
#     4   9  18  34  53  76 104 135 170 208 251 300
#     4  10  20  36  55  75 102 137 172 209 254 305
#     4   9  19  34  54  78 105 137 171 207 252 301
#
# _framework density 17.615290999999999
#
# number of rings (size 3 to 8) (size 9 to 14) (size 15 to 20)
#    0.000    2.400    0.000    5.400    0.000    6.400 
#    0.000    5.000    0.000    2.400    0.000    0.000 
#    0.000    0.000    0.000    0.000    0.000    0.000 
#
# Total GULP energy -223041.196872 kJ/mol
# GULP energy per Si atom -5576.029922 kJ/mol
# Density = 1.757520 g / cm^3
# Si number density = 17.615291 Si / 1000 Ang^3
#
#
#
# Elastic Constant Matrix: (Units=GPa)
#
#
# Indices 1 2 3 4 5 6 
#
# 1 67.6737 74.4348 30.6470 0.0000 0.0000 0.0000
# 2 74.4348 215.8606 72.3713 0.0000 0.0000 0.0000
# 3 30.6470 72.3713 40.8671 0.0000 0.0000 0.0000
# 4 0.0000 0.0000 0.0000 -103.0619 0.0000 0.0000
# 5 0.0000 0.0000 0.0000 0.0000 24.3723 0.0000
# 6 0.0000 0.0000 0.0000 0.0000 0.0000 36.5109
#
#
#
# Elastic Compliance Matrix: (Units=1/GPa)
#
#
# Indices 1 2 3 4 5 6 
#
# 1 0.024965 -0.005740 -0.008558 0.000000 0.000000 0.000000
# 2 -0.005740 0.012722 -0.018225 0.000000 0.000000 0.000000
# 3 -0.008558 -0.018225 0.063163 0.000000 0.000000 0.000000
# 4 0.000000 0.000000 0.000000 -0.009703 0.000000 0.000000
# 5 0.000000 0.000000 0.000000 0.000000 0.041030 0.000000
# 6 0.000000 0.000000 0.000000 0.000000 0.000000 0.027389
#
#
# Mechanical properties :
#
#
# Convention : Reuss Voigt Hill
#
# Bulk Modulus (GPa) = 27.92947 75.47861 51.70404
# Shear Modulus (GPa) = 21.13746 1.36081 11.24914
#
# Velocity S-wave (km/s) = 3.46779 0.87988 2.52980
# Velocity P-wave (km/s) = 5.65011 6.63126 6.16025
#
# Compressibility (1/GPa) = 0.03580448
#
# Stress axis : x y z
#
# Youngs Moduli (GPa) = 40.05557 78.60256 15.83217
#
# Poissons Ratio (x) = 0.45115 0.13549
# Poissons Ratio (y) = 0.22990 0.28855
# Poissons Ratio (z) = 0.34278 1.43257
#
# Static dielectric constant tensor:
#      x y z
#    x 1.590240 0.000000 0.000000 
#    y 0.000000 1.629960 0.000000 
#    z 0.000000 0.000000 1.580700 
# 
# From -- ./inp_files/29755.got.cif
#   From: 2010.05.17/outbox.cif.g08.bks.cpg/sg64_15_cif.got.tgz:29755.got - 2010.06.03 16:29:19.
