data_PCOD9478070
_publ_section_title
;
Structure prediction by ZEFSAII (Michael W. Deem and Ramdas Pophale) SiO2 
 PCOD9478070
Probable space group: C M C A
;
_chemical_formula_sum "Si O2"
_cell_formula_units_Z 88
_cell_length_a 19.536533
_cell_length_b 14.482661
_cell_length_c 13.892749
_cell_angle_alpha 90.000000
_cell_angle_beta 90.000000
_cell_angle_gamma 90.000000
_cell_volume 3930.828080
_symmetry_space_group_name_H-M "C M C A"
_symmetry_group_IT_number 64
_symmetry_cell_setting 'orthorhombic'
loop_
_space_group_symop_operation_xyz
x,y,z
-x,1/2-y,1/2+z
x,-y,-z
-x,1/2+y,1/2-z
-x,-y,-z
x,1/2+y,1/2-z
-x,y,z
x,1/2-y,1/2+z
1/2+x,1/2+y,z
1/2-x,-y,1/2+z
1/2+x,1/2-y,-z
1/2-x,y,1/2-z
1/2-x,1/2-y,-z
1/2+x,y,1/2-z
1/2-x,1/2+y,z
1/2+x,-y,1/2+z
loop_
_atom_site_type_symbol
_atom_site_label
_atom_site_fract_x
_atom_site_fract_y
_atom_site_fract_z
Si Si1 0.500000 0.942775 0.901865
Si Si2 0.637698 0.089378 0.705346
Si Si3 0.362302 0.089378 0.205346
Si Si4 0.000000 0.057225 0.901864
Si Si5 0.500000 0.250000 0.502074
Si Si6 0.724395 0.250000 0.637066
Si Si7 0.626623 0.750000 0.639603
O O1 0.429796 0.953136 0.843796
O O2 0.500000 0.836947 0.930646
O O3 0.500000 0.000000 0.000000
O O4 0.570204 0.046863 0.656204
O O5 0.680448 0.155758 0.632521
O O6 0.619876 0.160571 0.791489
O O7 0.674637 1.000000 0.750000
O O8 0.319552 0.155758 0.132521
O O9 0.380124 0.160571 0.291488
O O10 0.000000 0.163053 0.930646
O O11 0.000000 0.000000 0.000000
O O12 0.566529 0.250000 0.436066
O O13 0.750000 0.250000 0.750000
O O14 0.798732 0.250000 0.587865
#
# Coordination Sequence:
#
# PCOD9478070 Si02
#       7
#     8  16  16   8   8  16  16
#     4  12  24  36  54  86 116 150 190 226 272 332
#     4  10  19  37  59  81 111 147 187 233 273 323
#     4  10  19  37  59  81 111 147 187 233 273 323
#     4  12  24  36  54  86 116 150 190 226 272 332
#     4  12  22  38  58  82 120 148 176 236 282 320
#     4   8  19  34  58  88 106 136 192 234 274 328
#     4  10  21  37  61  87 104 145 192 226 279 338
#
# _framework density 22.387141
#
# number of rings (size 3 to 8) (size 9 to 14) (size 15 to 20)
#    0.000    2.182    0.000    6.000    0.000    6.545 
#    0.000    3.636    0.000    2.182    0.000    0.000 
#    0.000    0.000    0.000    0.000    0.000    0.000 
#
# Total GULP energy -245713.083243 kJ/mol
# GULP energy per Si atom -5584.388256 kJ/mol
# Density = 2.233619 g / cm^3
# Si number density = 22.387141 Si / 1000 Ang^3
#
#
#
# Elastic Constant Matrix: (Units=GPa)
#
#
# Indices 1 2 3 4 5 6 
#
# 1 179.4205 24.0625 37.4878 0.0000 0.0000 0.0000
# 2 24.0625 161.4489 29.8678 0.0000 0.0000 0.0000
# 3 37.4878 29.8678 48.6269 0.0000 0.0000 0.0000
# 4 0.0000 0.0000 0.0000 39.8479 0.0000 0.0000
# 5 0.0000 0.0000 0.0000 0.0000 18.3789 0.0000
# 6 0.0000 0.0000 0.0000 0.0000 0.0000 70.6640
#
#
#
# Elastic Compliance Matrix: (Units=1/GPa)
#
#
# Indices 1 2 3 4 5 6 
#
# 1 0.006644 -0.000048 -0.005092 0.000000 0.000000 0.000000
# 2 -0.000048 0.006988 -0.004255 0.000000 0.000000 0.000000
# 3 -0.005092 -0.004255 0.027104 0.000000 0.000000 0.000000
# 4 0.000000 0.000000 0.000000 0.025095 0.000000 0.000000
# 5 0.000000 0.000000 0.000000 0.000000 0.054410 0.000000
# 6 0.000000 0.000000 0.000000 0.000000 0.000000 0.014151
#
#
# Mechanical properties :
#
#
# Convention : Reuss Voigt Hill
#
# Bulk Modulus (GPa) = 45.56867 63.59251 54.58059
# Shear Modulus (GPa) = 31.15256 45.65004 38.40130
#
# Velocity S-wave (km/s) = 3.73438 4.52056 4.14615
# Velocity P-wave (km/s) = 6.24445 7.46423 6.88142
#
# Compressibility (1/GPa) = 0.02194490
#
# Stress axis : x y z
#
# Youngs Moduli (GPa) = 150.51262 143.09621 36.89442
#
# Poissons Ratio (x) = 0.00689 0.18788
# Poissons Ratio (y) = 0.00724 0.15700
# Poissons Ratio (z) = 0.76648 0.60892
#
# Static dielectric constant tensor:
#      x y z
#    x 2.076880 0.000000 0.000000 
#    y 0.000000 1.798320 0.000000 
#    z 0.000000 0.000000 1.895210 
# 
# From -- ./inp_files/26265.got.cif
#   From: 2010.05.17/outbox.cif.g08.bks.cpg/sg64_14_cif.got.tgz:26265.got - 2010.06.03 16:29:19.
