data_PCOD9478729
_publ_section_title
;
Structure prediction by ZEFSAII (Michael W. Deem and Ramdas Pophale) SiO2 
 PCOD9478729
Probable space group: C M C A
;
_chemical_formula_sum "Si O2"
_cell_formula_units_Z 112
_cell_length_a 24.814892
_cell_length_b 32.490321
_cell_length_c 6.089060
_cell_angle_alpha 90.000000
_cell_angle_beta 90.000000
_cell_angle_gamma 90.000000
_cell_volume 4909.266913
_symmetry_space_group_name_H-M "C M C A"
_symmetry_group_IT_number 64
_symmetry_cell_setting 'orthorhombic'
loop_
_space_group_symop_operation_xyz
x,y,z
-x,1/2-y,1/2+z
x,-y,-z
-x,1/2+y,1/2-z
-x,-y,-z
x,1/2+y,1/2-z
-x,y,z
x,1/2-y,1/2+z
1/2+x,1/2+y,z
1/2-x,-y,1/2+z
1/2+x,1/2-y,-z
1/2-x,y,1/2-z
1/2-x,1/2-y,-z
1/2+x,y,1/2-z
1/2-x,1/2+y,z
1/2+x,-y,1/2+z
loop_
_atom_site_type_symbol
_atom_site_label
_atom_site_fract_x
_atom_site_fract_y
_atom_site_fract_z
Si Si1 0.195514 0.373176 0.384320
Si Si2 0.943390 0.463577 0.176022
Si Si3 0.649777 0.955461 0.513996
Si Si4 0.916455 0.259924 0.159235
Si Si5 0.878427 0.843208 0.470417
Si Si6 0.060807 0.906967 0.711815
Si Si7 0.309454 0.705050 0.207148
O O1 0.250000 0.373869 0.250000
O O2 0.189148 0.416393 0.511076
O O3 0.193412 0.331447 0.526673
O O4 0.146325 0.372819 0.211448
O O5 0.889304 0.463233 0.308026
O O6 0.000000 0.467881 0.303740
O O7 0.943269 0.500000 0.000000
O O8 0.945822 0.422268 0.036460
O O9 0.602810 0.939164 0.681789
O O10 0.679208 0.000000 0.500000
O O11 0.938107 0.249735 0.407874
O O12 0.857512 0.237036 0.156492
O O13 0.913350 0.309107 0.151255
O O14 0.909600 0.863576 0.675636
O O15 0.828261 0.818692 0.574309
O O16 0.000000 0.904885 0.807508
O O17 0.250000 0.723273 0.250000
#
# Coordination Sequence:
#
# PCOD9478729 Si02
#       7
#    16  16  16  16  16  16  16
#     4  12  24  41  61  91 126 176 220 268 331 407
#     4  10  20  35  59  91 122 154 202 272 343 398
#     4  12  24  40  63  91 126 170 219 277 340 402
#     4  10  22  37  63  99 135 174 217 278 341 401
#     4  11  22  40  62  90 133 170 210 268 334 406
#     4  11  23  39  64  95 126 166 216 273 337 404
#     4  11  22  38  64  96 128 170 222 277 335 398
#
# _framework density 22.813997000000001
#
# number of rings (size 3 to 8) (size 9 to 14) (size 15 to 20)
#    0.000    1.000    7.143    0.429    0.000    3.429 
#    0.000    2.857    0.000    3.429    0.000    0.000 
#    0.000    0.000    0.000    0.000    0.000    0.000 
#
# Total GULP energy -311775.709401 kJ/mol
# GULP energy per Si atom -5567.423382 kJ/mol
# Density = 2.276207 g / cm^3
# Si number density = 22.813997 Si / 1000 Ang^3
#
#
#
# Elastic Constant Matrix: (Units=GPa)
#
#
# Indices 1 2 3 4 5 6 
#
# 1 54.8108 24.8368 11.7265 0.0000 0.0000 0.0000
# 2 24.8368 97.6462 7.0568 0.0000 0.0000 0.0000
# 3 11.7265 7.0568 72.6255 0.0000 0.0000 0.0000
# 4 0.0000 0.0000 0.0000 34.7457 0.0000 0.0000
# 5 0.0000 0.0000 0.0000 0.0000 18.9371 0.0000
# 6 0.0000 0.0000 0.0000 0.0000 0.0000 -4.3632
#
#
#
# Elastic Compliance Matrix: (Units=1/GPa)
#
#
# Indices 1 2 3 4 5 6 
#
# 1 0.021220 -0.005186 -0.002922 0.000000 0.000000 0.000000
# 2 -0.005186 0.011581 -0.000288 0.000000 0.000000 0.000000
# 3 -0.002922 -0.000288 0.014269 0.000000 0.000000 0.000000
# 4 0.000000 0.000000 0.000000 0.028781 0.000000 0.000000
# 5 0.000000 0.000000 0.000000 0.000000 0.052806 0.000000
# 6 0.000000 0.000000 0.000000 0.000000 0.000000 -0.229189
#
#
# Mechanical properties :
#
#
# Convention : Reuss Voigt Hill
#
# Bulk Modulus (GPa) = 33.02828 34.70253 33.86540
# Shear Modulus (GPa) = -67.89146 21.96141 -22.96503
#
# Velocity S-wave (km/s) = -5.46107 3.10599 -3.17617
# Velocity P-wave (km/s) = 5.02551 5.30160 1.19399
#
# Compressibility (1/GPa) = 0.03027708
#
# Stress axis : x y z
#
# Youngs Moduli (GPa) = 47.12565 86.34843 70.08150
#
# Poissons Ratio (x) = 0.44782 0.20480
# Poissons Ratio (y) = 0.24440 0.02018
# Poissons Ratio (z) = 0.13772 0.02486
#
# Static dielectric constant tensor:
#      x y z
#    x 1.898400 0.000000 0.000000 
#    y 0.000000 1.954950 0.000000 
#    z 0.000000 0.000000 1.924600 
# 
# From -- ./inp_files/3498.got.cif
#   From: 2010.05.17/outbox.cif.g08.bks.cpg/sg64_2_cif.got.tgz:3498.got - 2010.06.03 16:29:19.
