data_PCOD9478904
_publ_section_title
;
Structure prediction by ZEFSAII (Michael W. Deem and Ramdas Pophale) SiO2 
 PCOD9478904
Probable space group: C M C A
;
_chemical_formula_sum "Si O2"
_cell_formula_units_Z 48
_cell_length_a 9.166590
_cell_length_b 25.876856
_cell_length_c 8.224135
_cell_angle_alpha 90.000000
_cell_angle_beta 90.000000
_cell_angle_gamma 90.000000
_cell_volume 1950.785624
_symmetry_space_group_name_H-M "C M C A"
_symmetry_group_IT_number 64
_symmetry_cell_setting 'orthorhombic'
loop_
_space_group_symop_operation_xyz
x,y,z
-x,1/2-y,1/2+z
x,-y,-z
-x,1/2+y,1/2-z
-x,-y,-z
x,1/2+y,1/2-z
-x,y,z
x,1/2-y,1/2+z
1/2+x,1/2+y,z
1/2-x,-y,1/2+z
1/2+x,1/2-y,-z
1/2-x,y,1/2-z
1/2-x,1/2-y,-z
1/2+x,y,1/2-z
1/2-x,1/2+y,z
1/2+x,-y,1/2+z
loop_
_atom_site_type_symbol
_atom_site_label
_atom_site_fract_x
_atom_site_fract_y
_atom_site_fract_z
Si Si1 0.500000 0.205136 0.059773
Si Si2 0.250000 0.892390 0.250000
Si Si3 0.000000 0.461609 0.240131
Si Si4 0.500000 0.929018 0.622545
Si Si5 0.000000 0.180767 0.821019
Si Si6 0.750000 0.355893 0.750000
O O1 0.500000 0.266688 0.081263
O O2 0.356953 0.180271 0.143112
O O3 0.500000 0.193163 0.870171
O O4 0.360870 0.932453 0.164015
O O5 0.356372 0.853575 0.344681
O O6 0.000000 0.447979 0.434991
O O7 0.000000 0.522965 0.249733
O O8 0.359736 0.894284 0.658197
#
# Coordination Sequence:
#
# PCOD9478904 Si02
#       6
#     8   8   8   8   8   8
#     4  11  24  40  60  86 117 154 196 242 291 344
#     4  10  22  38  58  84 118 150 190 238 288 340
#     4  10  20  36  59  85 114 150 190 232 282 341
#     4  10  20  36  59  85 114 150 190 232 282 341
#     4  11  24  40  60  86 117 154 196 242 291 344
#     4  10  22  38  58  84 118 150 190 238 288 340
#
# _framework density 24.605471999999999
#
# number of rings (size 3 to 8) (size 9 to 14) (size 15 to 20)
#    0.000    1.667    0.000    4.000    0.000   10.667 
#    0.000    0.000    0.000   16.000    0.000    0.000 
#    0.000    0.000    0.000    0.000    0.000    0.000 
#
# Total GULP energy -134299.785166 kJ/mol
# GULP energy per Si atom -5595.824382 kJ/mol
# Density = 2.454947 g / cm^3
# Si number density = 24.605472 Si / 1000 Ang^3
#
#
#
# Elastic Constant Matrix: (Units=GPa)
#
#
# Indices 1 2 3 4 5 6 
#
# 1 195.6628 73.9920 33.5444 0.0000 0.0000 0.0000
# 2 73.9920 207.5245 40.8863 0.0000 0.0000 0.0000
# 3 33.5444 40.8863 90.5347 0.0000 0.0000 0.0000
# 4 0.0000 0.0000 0.0000 38.0327 0.0000 0.0000
# 5 0.0000 0.0000 0.0000 0.0000 11.3824 0.0000
# 6 0.0000 0.0000 0.0000 0.0000 0.0000 33.3130
#
#
#
# Elastic Compliance Matrix: (Units=1/GPa)
#
#
# Indices 1 2 3 4 5 6 
#
# 1 0.006064 -0.001887 -0.001394 0.000000 0.000000 0.000000
# 2 -0.001887 0.005877 -0.001955 0.000000 0.000000 0.000000
# 3 -0.001394 -0.001955 0.012445 0.000000 0.000000 0.000000
# 4 0.000000 0.000000 0.000000 0.026293 0.000000 0.000000
# 5 0.000000 0.000000 0.000000 0.000000 0.087855 0.000000
# 6 0.000000 0.000000 0.000000 0.000000 0.000000 0.030018
#
#
# Mechanical properties :
#
#
# Convention : Reuss Voigt Hill
#
# Bulk Modulus (GPa) = 71.87758 87.84083 79.85920
# Shear Modulus (GPa) = 27.22400 39.56556 33.39478
#
# Velocity S-wave (km/s) = 3.32990 4.01434 3.68803
# Velocity P-wave (km/s) = 6.63775 7.56728 7.11771
#
# Compressibility (1/GPa) = 0.01391254
#
# Stress axis : x y z
#
# Youngs Moduli (GPa) = 164.91978 170.16321 80.35428
#
# Poissons Ratio (x) = 0.32114 0.11204
# Poissons Ratio (y) = 0.31124 0.15707
# Poissons Ratio (z) = 0.22996 0.33262
#
# Static dielectric constant tensor:
#      x y z
#    x 2.109080 0.000000 0.000000 
#    y 0.000000 1.927140 0.000000 
#    z 0.000000 0.000000 1.990940 
# 
# From -- ./inp_files/3987.got.cif
#   From: 2010.05.17/outbox.cif.g08.bks.cpg/sg64_2_cif.got.tgz:3987.got - 2010.06.03 16:29:19.
