data_PCOD9478391
_publ_section_title
;
Structure prediction by ZEFSAII (Michael W. Deem and Ramdas Pophale) SiO2 
 PCOD9478391
Probable space group: C M C A
;
_chemical_formula_sum "Si O2"
_cell_formula_units_Z 88
_cell_length_a 35.391690
_cell_length_b 27.908835
_cell_length_c 5.267527
_cell_angle_alpha 90.000000
_cell_angle_beta 90.000000
_cell_angle_gamma 90.000000
_cell_volume 5202.951526
_symmetry_space_group_name_H-M "C M C A"
_symmetry_group_IT_number 64
_symmetry_cell_setting 'orthorhombic'
loop_
_space_group_symop_operation_xyz
x,y,z
-x,1/2-y,1/2+z
x,-y,-z
-x,1/2+y,1/2-z
-x,-y,-z
x,1/2+y,1/2-z
-x,y,z
x,1/2-y,1/2+z
1/2+x,1/2+y,z
1/2-x,-y,1/2+z
1/2+x,1/2-y,-z
1/2-x,y,1/2-z
1/2-x,1/2-y,-z
1/2+x,y,1/2-z
1/2-x,1/2+y,z
1/2+x,-y,1/2+z
loop_
_atom_site_type_symbol
_atom_site_label
_atom_site_fract_x
_atom_site_fract_y
_atom_site_fract_z
Si Si1 0.044867 0.719295 0.777502
Si Si2 0.357516 0.554496 0.608250
Si Si3 0.772252 0.441696 0.001196
Si Si4 0.930577 0.384789 0.109814
Si Si5 0.457377 0.434579 0.868249
Si Si6 0.105387 0.500000 0.500000
O O1 0.052249 0.743878 0.507064
O O2 0.067811 0.670781 0.822155
O O3 0.000000 0.706979 0.786336
O O4 0.361886 0.500000 0.500000
O O5 0.316160 0.571374 0.530568
O O6 0.389341 0.593393 0.550401
O O7 0.366835 0.541484 0.901731
O O8 0.750000 0.425979 0.750000
O O9 0.771930 0.500000 0.000000
O O10 0.750000 0.425609 0.250000
O O11 0.947467 0.412855 0.354949
O O12 0.953844 0.395694 0.854576
O O13 0.500000 0.453030 0.865745
O O14 0.425538 0.474923 0.816062
#
# Coordination Sequence:
#
# PCOD9478391 Si02
#       6
#    16  16  16  16  16   8
#     4  10  20  35  54  73  97 128 168 219 265 302
#     4  10  20  34  51  71 108 136 168 206 250 302
#     4   9  19  30  48  70  94 130 168 202 236 289
#     4  11  22  35  53  76  98 135 172 214 264 303
#     4  11  21  33  48  68  99 134 176 213 243 296
#     4  10  21  32  46  70 100 144 174 204 248 288
#
# _framework density 16.913475999999999
#
# number of rings (size 3 to 8) (size 9 to 14) (size 15 to 20)
#    0.000    1.818    1.818    3.000    6.364    1.455 
#    0.000    2.727    0.000    0.000    0.000    0.000 
#    0.000    4.364    0.000    0.000    0.000    0.000 
#
# Total GULP energy -245118.555524 kJ/mol
# GULP energy per Si atom -5570.876262 kJ/mol
# Density = 1.687498 g / cm^3
# Si number density = 16.913476 Si / 1000 Ang^3
#
#
#
# Elastic Constant Matrix: (Units=GPa)
#
#
# Indices 1 2 3 4 5 6 
#
# 1 134.7082 22.4791 39.5669 0.0000 0.0000 0.0000
# 2 22.4791 44.4280 -5.6747 0.0000 0.0000 0.0000
# 3 39.5669 -5.6747 75.2326 0.0000 0.0000 0.0000
# 4 0.0000 0.0000 0.0000 17.0883 0.0000 0.0000
# 5 0.0000 0.0000 0.0000 0.0000 12.2127 0.0000
# 6 0.0000 0.0000 0.0000 0.0000 0.0000 11.4008
#
#
#
# Elastic Compliance Matrix: (Units=1/GPa)
#
#
# Indices 1 2 3 4 5 6 
#
# 1 0.010084 -0.005836 -0.005744 0.000000 0.000000 0.000000
# 2 -0.005836 0.026105 0.005038 0.000000 0.000000 0.000000
# 3 -0.005744 0.005038 0.016693 0.000000 0.000000 0.000000
# 4 0.000000 0.000000 0.000000 0.058519 0.000000 0.000000
# 5 0.000000 0.000000 0.000000 0.000000 0.081882 0.000000
# 6 0.000000 0.000000 0.000000 0.000000 0.000000 0.087713
#
#
# Mechanical properties :
#
#
# Convention : Reuss Voigt Hill
#
# Bulk Modulus (GPa) = 25.12618 40.79015 32.95817
# Shear Modulus (GPa) = 16.26830 21.34020 18.80425
#
# Velocity S-wave (km/s) = 3.10474 3.55593 3.33797
# Velocity P-wave (km/s) = 5.26693 6.40538 5.86385
#
# Compressibility (1/GPa) = 0.03979912
#
# Stress axis : x y z
#
# Youngs Moduli (GPa) = 99.16261 38.30721 59.90519
#
# Poissons Ratio (x) = 0.22356 0.34409
# Poissons Ratio (y) = 0.57872 -0.30183
# Poissons Ratio (z) = 0.56958 -0.19301
#
# Static dielectric constant tensor:
#      x y z
#    x 1.572480 0.000000 0.000000 
#    y 0.000000 1.566320 0.000000 
#    z 0.000000 0.000000 1.737510 
# 
# From -- ./inp_files/3392.got.cif
#   From: 2010.05.17/outbox.cif.g08.bks.cpg/sg64_2_cif.got.tgz:3392.got - 2010.06.03 16:29:19.
