data_PCOD9478127
_publ_section_title
;
Structure prediction by ZEFSAII (Michael W. Deem and Ramdas Pophale) SiO2 
 PCOD9478127
Probable space group: C M C A
;
_chemical_formula_sum "Si O2"
_cell_formula_units_Z 96
_cell_length_a 14.070350
_cell_length_b 23.626716
_cell_length_c 15.593006
_cell_angle_alpha 90.000000
_cell_angle_beta 90.000000
_cell_angle_gamma 90.000000
_cell_volume 5183.679092
_symmetry_space_group_name_H-M "C M C A"
_symmetry_group_IT_number 64
_symmetry_cell_setting 'orthorhombic'
loop_
_space_group_symop_operation_xyz
x,y,z
-x,1/2-y,1/2+z
x,-y,-z
-x,1/2+y,1/2-z
-x,-y,-z
x,1/2+y,1/2-z
-x,y,z
x,1/2-y,1/2+z
1/2+x,1/2+y,z
1/2-x,-y,1/2+z
1/2+x,1/2-y,-z
1/2-x,y,1/2-z
1/2-x,1/2-y,-z
1/2+x,y,1/2-z
1/2-x,1/2+y,z
1/2+x,-y,1/2+z
loop_
_atom_site_type_symbol
_atom_site_label
_atom_site_fract_x
_atom_site_fract_y
_atom_site_fract_z
Si Si1 0.704471 0.748639 0.906151
Si Si2 0.292810 0.434900 0.511110
Si Si3 0.704372 0.637903 0.161548
Si Si4 0.500000 0.179539 0.870517
Si Si5 0.295359 0.136277 0.835902
Si Si6 0.500000 0.695419 0.174373
Si Si7 0.500000 0.394578 0.544074
Si Si8 0.000000 0.281450 0.868662
O O1 0.740385 0.803520 0.855955
O O2 0.736266 0.692483 0.858464
O O3 0.592385 0.754756 0.910199
O O4 0.750000 0.750000 0.000000
O O5 0.266389 0.500000 0.500000
O O6 0.229038 0.402640 0.581623
O O7 0.288886 0.403634 0.419158
O O8 0.402861 0.429506 0.541975
O O9 0.750000 0.614740 0.250000
O O10 0.594268 0.657027 0.165933
O O11 0.403856 0.157761 0.825325
O O12 0.500000 0.247540 0.883807
O O13 0.500000 0.147091 0.961584
O O14 0.250000 0.110814 0.750000
O O15 0.500000 0.725852 0.267077
O O16 0.500000 0.349417 0.620352
#
# Coordination Sequence:
#
# PCOD9478127 Si02
#       8
#    16  16  16   8  16   8   8   8
#     4  12  21  37  61  94 131 162 192 254 313 375
#     4  11  24  42  63  87 118 162 217 266 309 364
#     4  12  23  40  62  91 127 165 210 254 318 377
#     4  10  20  33  58  88 119 155 193 237 308 380
#     4  11  22  39  59  89 126 157 199 252 311 374
#     4  12  22  34  59  91 128 169 193 245 310 390
#     4  10  19  38  62  86 113 152 203 266 311 355
#     4  12  22  35  60  95 128 162 207 242 307 391
#
# _framework density 18.519663999999999
#
# number of rings (size 3 to 8) (size 9 to 14) (size 15 to 20)
#    0.000    0.667    6.667    2.750    0.000    0.667 
#    0.000    1.250    0.000    2.000    0.000    0.000 
#    0.000    0.000    0.000    0.000    0.000    0.000 
#
# Total GULP energy -268207.111571 kJ/mol
# GULP energy per Si atom -5587.648158 kJ/mol
# Density = 1.847751 g / cm^3
# Si number density = 18.519664 Si / 1000 Ang^3
#
#
#
# Elastic Constant Matrix: (Units=GPa)
#
#
# Indices 1 2 3 4 5 6 
#
# 1 175.4486 36.4644 49.6631 0.0000 0.0000 0.0000
# 2 36.4644 99.2949 29.1356 0.0000 0.0000 0.0000
# 3 49.6631 29.1356 102.6441 0.0000 0.0000 0.0000
# 4 0.0000 0.0000 0.0000 3.6187 0.0000 0.0000
# 5 0.0000 0.0000 0.0000 0.0000 16.1960 0.0000
# 6 0.0000 0.0000 0.0000 0.0000 0.0000 -7.5600
#
#
#
# Elastic Compliance Matrix: (Units=1/GPa)
#
#
# Indices 1 2 3 4 5 6 
#
# 1 0.006853 -0.001684 -0.002838 0.000000 0.000000 0.000000
# 2 -0.001684 0.011400 -0.002421 0.000000 0.000000 0.000000
# 3 -0.002838 -0.002421 0.011803 0.000000 0.000000 0.000000
# 4 0.000000 0.000000 0.000000 0.276344 0.000000 0.000000
# 5 0.000000 0.000000 0.000000 0.000000 0.061744 0.000000
# 6 0.000000 0.000000 0.000000 0.000000 0.000000 -0.132276
#
#
# Mechanical properties :
#
#
# Convention : Reuss Voigt Hill
#
# Bulk Modulus (GPa) = 61.84350 67.54599 64.69475
# Shear Modulus (GPa) = 19.59691 19.92591 19.76141
#
# Velocity S-wave (km/s) = 3.25648 3.28370 3.27012
# Velocity P-wave (km/s) = 6.89967 7.13643 7.01905
#
# Compressibility (1/GPa) = 0.01616985
#
# Stress axis : x y z
#
# Youngs Moduli (GPa) = 145.92331 87.72064 84.72694
#
# Poissons Ratio (x) = 0.14772 0.24043
# Poissons Ratio (y) = 0.24573 0.20513
# Poissons Ratio (z) = 0.41409 0.21238
#
# Static dielectric constant tensor:
#      x y z
#    x 1.677000 0.000000 0.000000 
#    y 0.000000 1.615660 0.000000 
#    z 0.000000 0.000000 1.711100 
# 
# From -- ./inp_files/24003.got.cif
#   From: 2010.05.17/outbox.cif.g08.bks.cpg/sg64_13_cif.got.tgz:24003.got - 2010.06.03 16:29:19.
