data_PCOD9478932
_publ_section_title
;
Structure prediction by ZEFSAII (Michael W. Deem and Ramdas Pophale) SiO2 
 PCOD9478932
Probable space group: C M C A
;
_chemical_formula_sum "Si O2"
_cell_formula_units_Z 80
_cell_length_a 19.078416
_cell_length_b 13.500285
_cell_length_c 16.890619
_cell_angle_alpha 90.000000
_cell_angle_beta 90.000000
_cell_angle_gamma 90.000000
_cell_volume 4350.416293
_symmetry_space_group_name_H-M "C M C A"
_symmetry_group_IT_number 64
_symmetry_cell_setting 'orthorhombic'
loop_
_space_group_symop_operation_xyz
x,y,z
-x,1/2-y,1/2+z
x,-y,-z
-x,1/2+y,1/2-z
-x,-y,-z
x,1/2+y,1/2-z
-x,y,z
x,1/2-y,1/2+z
1/2+x,1/2+y,z
1/2-x,-y,1/2+z
1/2+x,1/2-y,-z
1/2-x,y,1/2-z
1/2-x,1/2-y,-z
1/2+x,y,1/2-z
1/2-x,1/2+y,z
1/2+x,-y,1/2+z
loop_
_atom_site_type_symbol
_atom_site_label
_atom_site_fract_x
_atom_site_fract_y
_atom_site_fract_z
Si Si1 0.920649 0.648864 0.857600
Si Si2 0.792456 0.887354 0.979420
Si Si3 0.179723 0.317184 0.699380
Si Si4 0.138429 0.192060 0.476204
Si Si5 0.082212 0.082172 0.322446
O O1 0.863231 0.716010 0.814186
O O2 0.908147 0.532710 0.844896
O O3 0.000000 0.672249 0.831198
O O4 0.912941 0.673290 0.950584
O O5 0.802666 0.861808 0.886725
O O6 0.710993 0.864621 0.996991
O O7 0.839330 0.807304 0.026498
O O8 0.809274 0.000000 0.000000
O O9 0.250000 0.301843 0.750000
O O10 0.129135 0.389940 0.747624
O O11 0.107650 0.149544 0.395608
O O12 0.000000 0.098839 0.307519
#
# Coordination Sequence:
#
# PCOD9478932 Si02
#       5
#    16  16  16  16  16
#     4  10  22  39  60  85 119 158 197 248 298 353
#     4  10  21  38  60  87 125 156 196 246 299 356
#     4  11  23  39  57  90 121 157 197 242 307 353
#     4  10  20  36  60  89 114 152 201 246 292 351
#     4  11  22  38  61  88 118 155 201 249 299 352
#
# _framework density 18.389044999999999
#
# number of rings (size 3 to 8) (size 9 to 14) (size 15 to 20)
#    0.000    1.600    2.000    3.000    0.000    4.000 
#    0.000    0.000    0.000   20.400    0.000    0.000 
#    0.000    0.000    0.000    0.000    0.000    0.000 
#
# Total GULP energy -223463.089427 kJ/mol
# GULP energy per Si atom -5586.577236 kJ/mol
# Density = 1.834719 g / cm^3
# Si number density = 18.389045 Si / 1000 Ang^3
#
#
#
# Elastic Constant Matrix: (Units=GPa)
#
#
# Indices 1 2 3 4 5 6 
#
# 1 112.9787 64.5259 38.1293 0.0000 0.0000 0.0000
# 2 64.5259 135.8683 35.7287 0.0000 0.0000 0.0000
# 3 38.1293 35.7287 45.4598 0.0000 0.0000 0.0000
# 4 0.0000 0.0000 0.0000 16.5918 0.0000 0.0000
# 5 0.0000 0.0000 0.0000 0.0000 11.2180 0.0000
# 6 0.0000 0.0000 0.0000 0.0000 0.0000 19.8051
#
#
#
# Elastic Compliance Matrix: (Units=1/GPa)
#
#
# Indices 1 2 3 4 5 6 
#
# 1 0.014303 -0.004586 -0.008392 0.000000 0.000000 0.000000
# 2 -0.004586 0.010748 -0.004601 0.000000 0.000000 0.000000
# 3 -0.008392 -0.004601 0.032652 0.000000 0.000000 0.000000
# 4 0.000000 0.000000 0.000000 0.060271 0.000000 0.000000
# 5 0.000000 0.000000 0.000000 0.000000 0.089143 0.000000
# 6 0.000000 0.000000 0.000000 0.000000 0.000000 0.050492
#
#
# Mechanical properties :
#
#
# Convention : Reuss Voigt Hill
#
# Bulk Modulus (GPa) = 44.35519 63.45274 53.90396
# Shear Modulus (GPa) = 16.65109 19.91784 18.28447
#
# Velocity S-wave (km/s) = 3.01240 3.29467 3.15669
# Velocity P-wave (km/s) = 6.02264 7.00384 6.53169
#
# Compressibility (1/GPa) = 0.02254528
#
# Stress axis : x y z
#
# Youngs Moduli (GPa) = 69.91770 93.04296 30.62555
#
# Poissons Ratio (x) = 0.42666 0.25702
# Poissons Ratio (y) = 0.32062 0.14090
# Poissons Ratio (z) = 0.58676 0.42808
#
# Static dielectric constant tensor:
#      x y z
#    x 1.628540 0.000000 0.000000 
#    y 0.000000 1.610820 0.000000 
#    z 0.000000 0.000000 1.611950 
# 
# From -- ./inp_files/33026.got.cif
#   From: 2010.05.17/outbox.cif.g08.bks.cpg/sg64_17_cif.got.tgz:33026.got - 2010.06.03 16:29:19.
