data_PCOD9478562
_publ_section_title
;
Structure prediction by ZEFSAII (Michael W. Deem and Ramdas Pophale) SiO2 
 PCOD9478562
Probable space group: C M C A
;
_chemical_formula_sum "Si O2"
_cell_formula_units_Z 72
_cell_length_a 21.673714
_cell_length_b 16.795404
_cell_length_c 7.503780
_cell_angle_alpha 90.000000
_cell_angle_beta 90.000000
_cell_angle_gamma 90.000000
_cell_volume 2731.516862
_symmetry_space_group_name_H-M "C M C A"
_symmetry_group_IT_number 64
_symmetry_cell_setting 'orthorhombic'
loop_
_space_group_symop_operation_xyz
x,y,z
-x,1/2-y,1/2+z
x,-y,-z
-x,1/2+y,1/2-z
-x,-y,-z
x,1/2+y,1/2-z
-x,y,z
x,1/2-y,1/2+z
1/2+x,1/2+y,z
1/2-x,-y,1/2+z
1/2+x,1/2-y,-z
1/2-x,y,1/2-z
1/2-x,1/2-y,-z
1/2+x,y,1/2-z
1/2-x,1/2+y,z
1/2+x,-y,1/2+z
loop_
_atom_site_type_symbol
_atom_site_label
_atom_site_fract_x
_atom_site_fract_y
_atom_site_fract_z
Si Si1 0.882898 0.445597 0.154651
Si Si2 0.500000 0.622202 0.796773
Si Si3 0.632710 0.687871 0.373565
Si Si4 0.750000 0.450564 0.250000
Si Si5 0.500000 0.204775 0.095252
Si Si6 0.298340 0.821963 0.520339
O O1 0.817614 0.486552 0.208650
O O2 0.936315 0.428243 0.297681
O O3 0.911496 0.500000 0.000000
O O4 0.863267 0.363947 0.053431
O O5 0.500000 0.699625 0.920219
O O6 0.500000 0.662789 0.597842
O O7 0.562814 0.679379 0.310063
O O8 0.644335 0.780284 0.420364
O O9 0.680096 0.664148 0.220329
O O10 0.729464 0.396230 0.081811
O O11 0.250000 0.750000 0.500000
#
# Coordination Sequence:
#
# PCOD9478562 Si02
#       6
#    16   8  16   8   8  16
#     4  11  25  42  61  87 126 175 213 246 299 375
#     4  10  21  42  66  92 125 158 204 256 322 376
#     4  11  21  37  60  90 123 154 199 254 321 373
#     4  12  24  38  60  94 120 160 214 262 312 362
#     4  10  20  34  62  94 116 144 192 262 310 366
#     4  12  20  35  61  89 118 151 194 261 325 360
#
# _framework density 26.358979000000001
#
# number of rings (size 3 to 8) (size 9 to 14) (size 15 to 20)
#    0.000    0.889    4.444    4.333    0.000    1.778 
#    0.000    0.000    0.000    0.000    0.000   11.667 
#    0.000    0.000    0.000    0.000    0.000    0.000 
#
# Total GULP energy -201371.882864 kJ/mol
# GULP energy per Si atom -5593.663413 kJ/mol
# Density = 2.629898 g / cm^3
# Si number density = 26.358979 Si / 1000 Ang^3
#
#
#
# Elastic Constant Matrix: (Units=GPa)
#
#
# Indices 1 2 3 4 5 6 
#
# 1 177.5578 14.2546 18.6338 0.0000 0.0000 0.0000
# 2 14.2546 58.5922 2.2576 0.0000 0.0000 0.0000
# 3 18.6338 2.2576 75.1683 0.0000 0.0000 0.0000
# 4 0.0000 0.0000 0.0000 38.2195 0.0000 0.0000
# 5 0.0000 0.0000 0.0000 0.0000 37.6452 0.0000
# 6 0.0000 0.0000 0.0000 0.0000 0.0000 8.9839
#
#
#
# Elastic Compliance Matrix: (Units=1/GPa)
#
#
# Indices 1 2 3 4 5 6 
#
# 1 0.005892 -0.001379 -0.001419 0.000000 0.000000 0.000000
# 2 -0.001379 0.017409 -0.000181 0.000000 0.000000 0.000000
# 3 -0.001419 -0.000181 0.013661 0.000000 0.000000 0.000000
# 4 0.000000 0.000000 0.000000 0.026165 0.000000 0.000000
# 5 0.000000 0.000000 0.000000 0.000000 0.026564 0.000000
# 6 0.000000 0.000000 0.000000 0.000000 0.000000 0.111310
#
#
# Mechanical properties :
#
#
# Convention : Reuss Voigt Hill
#
# Bulk Modulus (GPa) = 32.25381 42.40113 37.32747
# Shear Modulus (GPa) = 23.01040 35.38120 29.19580
#
# Velocity S-wave (km/s) = 2.95780 3.66769 3.33171
# Velocity P-wave (km/s) = 4.89159 5.83583 5.38445
#
# Compressibility (1/GPa) = 0.03100409
#
# Stress axis : x y z
#
# Youngs Moduli (GPa) = 169.73393 57.43993 73.20266
#
# Poissons Ratio (x) = 0.07919 0.10388
# Poissons Ratio (y) = 0.23400 0.01326
# Poissons Ratio (z) = 0.24087 0.01040
#
# Static dielectric constant tensor:
#      x y z
#    x 2.234060 0.000000 0.000000 
#    y 0.000000 2.069480 0.000000 
#    z 0.000000 0.000000 2.138620 
# 
# From -- ./inp_files/8074.got.cif
#   From: 2010.05.17/outbox.cif.g08.bks.cpg/sg64_5_cif.got.tgz:8074.got - 2010.06.03 16:29:19.
