data_PCOD9478566
_publ_section_title
;
Structure prediction by ZEFSAII (Michael W. Deem and Ramdas Pophale) SiO2 
 PCOD9478566
Probable space group: C M C A
;
_chemical_formula_sum "Si O2"
_cell_formula_units_Z 104
_cell_length_a 9.408194
_cell_length_b 13.725499
_cell_length_c 33.188692
_cell_angle_alpha 90.000000
_cell_angle_beta 90.000000
_cell_angle_gamma 90.000000
_cell_volume 4285.727397
_symmetry_space_group_name_H-M "C M C A"
_symmetry_group_IT_number 64
_symmetry_cell_setting 'orthorhombic'
loop_
_space_group_symop_operation_xyz
x,y,z
-x,1/2-y,1/2+z
x,-y,-z
-x,1/2+y,1/2-z
-x,-y,-z
x,1/2+y,1/2-z
-x,y,z
x,1/2-y,1/2+z
1/2+x,1/2+y,z
1/2-x,-y,1/2+z
1/2+x,1/2-y,-z
1/2-x,y,1/2-z
1/2-x,1/2-y,-z
1/2+x,y,1/2-z
1/2-x,1/2+y,z
1/2+x,-y,1/2+z
loop_
_atom_site_type_symbol
_atom_site_label
_atom_site_fract_x
_atom_site_fract_y
_atom_site_fract_z
Si Si1 0.661888 0.913471 0.710832
Si Si2 0.661076 0.941754 0.869670
Si Si3 0.500000 0.630053 0.747378
Si Si4 0.835067 0.138034 0.965251
Si Si5 0.235609 0.193549 0.697515
Si Si6 0.161072 0.170116 0.610835
Si Si7 0.834538 0.905172 0.946197
O O1 0.500000 0.953449 0.714833
O O2 0.750000 0.942073 0.750000
O O3 0.737348 0.938795 0.669209
O O4 0.663361 0.795745 0.711029
O O5 0.500000 0.906378 0.861298
O O6 0.738332 0.888784 0.907060
O O7 0.651596 0.053673 0.883413
O O8 0.623038 0.665758 0.779572
O O9 0.621511 0.615180 0.711852
O O10 0.733507 0.185928 0.932178
O O11 0.000000 0.170664 0.962326
O O12 0.834995 0.022107 0.954680
O O13 0.786471 0.142615 0.011681
O O14 0.250640 0.202618 0.649677
O O15 0.000000 0.208508 0.614260
O O16 0.000000 0.880070 0.939324
#
# Coordination Sequence:
#
# PCOD9478566 Si02
#       7
#    16  16   8  16  16  16  16
#     4  12  22  39  58  77 102 140 180 221 256 311
#     4  10  22  35  52  79 114 140 173 216 266 312
#     4  10  20  36  58  78  98 134 182 222 254 308
#     4   8  15  27  50  76 104 136 176 212 257 310
#     4  11  20  38  58  79  99 137 178 222 257 311
#     4  10  20  35  51  81 113 138 170 220 266 312
#     4   8  14  30  50  73 103 141 175 212 254 312
#
# _framework density 24.266591999999999
#
# number of rings (size 3 to 8) (size 9 to 14) (size 15 to 20)
#    0.000    2.154    3.077    1.846    2.154    1.231 
#    2.769    3.077    0.000    0.923    0.000    0.000 
#    0.000    0.000    0.000    0.000    0.000    0.000 
#
# Total GULP energy -289999.437285 kJ/mol
# GULP energy per Si atom -5576.912255 kJ/mol
# Density = 2.421136 g / cm^3
# Si number density = 24.266592 Si / 1000 Ang^3
#
#
#
# Elastic Constant Matrix: (Units=GPa)
#
#
# Indices 1 2 3 4 5 6 
#
# 1 172.5080 -12.5706 93.3848 0.0000 0.0000 0.0000
# 2 -12.5706 60.8156 10.0002 0.0000 0.0000 0.0000
# 3 93.3848 10.0002 230.5572 0.0000 0.0000 0.0000
# 4 0.0000 0.0000 0.0000 28.9161 0.0000 0.0000
# 5 0.0000 0.0000 0.0000 0.0000 45.2258 0.0000
# 6 0.0000 0.0000 0.0000 0.0000 0.0000 -38.2705
#
#
#
# Elastic Compliance Matrix: (Units=1/GPa)
#
#
# Indices 1 2 3 4 5 6 
#
# 1 0.007686 0.002116 -0.003205 0.000000 0.000000 0.000000
# 2 0.002116 0.017144 -0.001601 0.000000 0.000000 0.000000
# 3 -0.003205 -0.001601 0.005705 0.000000 0.000000 0.000000
# 4 0.000000 0.000000 0.000000 0.034583 0.000000 0.000000
# 5 0.000000 0.000000 0.000000 0.000000 0.022111 0.000000
# 6 0.000000 0.000000 0.000000 0.000000 0.000000 -0.026130
#
#
# Mechanical properties :
#
#
# Convention : Reuss Voigt Hill
#
# Bulk Modulus (GPa) = 39.75360 71.72330 55.73845
# Shear Modulus (GPa) = 66.78862 32.04538 49.41700
#
# Velocity S-wave (km/s) = 5.25192 3.63789 4.51757
# Velocity P-wave (km/s) = 7.29345 6.87504 7.08733
#
# Compressibility (1/GPa) = 0.02515496
#
# Stress axis : x y z
#
# Youngs Moduli (GPa) = 130.10819 58.33067 175.28981
#
# Poissons Ratio (x) = -0.12341 0.56178
# Poissons Ratio (y) = -0.27527 0.28056
# Poissons Ratio (z) = 0.41698 0.09336
#
# Static dielectric constant tensor:
#      x y z
#    x 2.031150 0.000000 0.000000 
#    y 0.000000 2.192130 0.000000 
#    z 0.000000 0.000000 1.903250 
# 
# From -- ./inp_files/48251.got.cif
#   From: 2010.05.17/outbox.cif.g08.bks.cpg/sg64_25_cif.got.tgz:48251.got - 2010.06.03 16:29:19.
