data_PCOD9478947
_publ_section_title
;
Structure prediction by ZEFSAII (Michael W. Deem and Ramdas Pophale) SiO2 
 PCOD9478947
Probable space group: C M C A
;
_chemical_formula_sum "Si O2"
_cell_formula_units_Z 80
_cell_length_a 17.792892
_cell_length_b 15.636940
_cell_length_c 14.360766
_cell_angle_alpha 90.000000
_cell_angle_beta 90.000000
_cell_angle_gamma 90.000000
_cell_volume 3995.544005
_symmetry_space_group_name_H-M "C M C A"
_symmetry_group_IT_number 64
_symmetry_cell_setting 'orthorhombic'
loop_
_space_group_symop_operation_xyz
x,y,z
-x,1/2-y,1/2+z
x,-y,-z
-x,1/2+y,1/2-z
-x,-y,-z
x,1/2+y,1/2-z
-x,y,z
x,1/2-y,1/2+z
1/2+x,1/2+y,z
1/2-x,-y,1/2+z
1/2+x,1/2-y,-z
1/2-x,y,1/2-z
1/2-x,1/2-y,-z
1/2+x,y,1/2-z
1/2-x,1/2+y,z
1/2+x,-y,1/2+z
loop_
_atom_site_type_symbol
_atom_site_label
_atom_site_fract_x
_atom_site_fract_y
_atom_site_fract_z
Si Si1 0.216770 0.679273 0.356365
Si Si2 0.174144 0.463746 0.908400
Si Si3 0.414859 0.070034 0.581359
Si Si4 0.415624 0.420820 0.775617
Si Si5 0.739082 0.137088 0.638455
O O1 0.250000 0.676343 0.250000
O O2 0.267681 0.615204 0.417340
O O3 0.134591 0.640717 0.340106
O O4 0.220754 0.775496 0.392690
O O5 0.120357 0.435867 0.825113
O O6 0.225339 0.545464 0.883875
O O7 0.133520 0.500000 0.000000
O O8 0.500000 0.104575 0.565940
O O9 0.346239 0.134760 0.598714
O O10 0.400276 0.000000 0.500000
O O11 0.415892 0.012595 0.674338
O O12 0.500000 0.388164 0.768939
O O13 0.750000 0.141072 0.750000
#
# Coordination Sequence:
#
# PCOD9478947 Si02
#       5
#    16  16  16  16  16
#     4   9  20  36  57  89 116 156 205 250 303 361
#     4  11  21  37  58  85 121 159 202 249 303 365
#     4  10  20  36  61  89 117 153 199 254 314 361
#     4  10  20  39  60  81 119 158 198 250 298 357
#     4  11  19  36  60  88 121 157 203 251 309 373
#
# _framework density 20.022306
#
# number of rings (size 3 to 8) (size 9 to 14) (size 15 to 20)
#    0.000    1.800    4.000    1.200    0.000    1.200 
#    0.000   10.000    0.000    0.000    0.000    0.000 
#    0.000    0.000    0.000    0.000    0.000    0.000 
#
# Total GULP energy -223002.157080 kJ/mol
# GULP energy per Si atom -5575.053927 kJ/mol
# Density = 1.997673 g / cm^3
# Si number density = 20.022306 Si / 1000 Ang^3
#
#
#
# Elastic Constant Matrix: (Units=GPa)
#
#
# Indices 1 2 3 4 5 6 
#
# 1 119.5481 23.0664 14.7937 0.0000 0.0000 0.0000
# 2 23.0664 101.3494 -3.1837 0.0000 0.0000 0.0000
# 3 14.7937 -3.1837 69.6261 0.0000 0.0000 0.0000
# 4 0.0000 0.0000 0.0000 12.4315 0.0000 0.0000
# 5 0.0000 0.0000 0.0000 0.0000 18.3264 0.0000
# 6 0.0000 0.0000 0.0000 0.0000 0.0000 15.1486
#
#
#
# Elastic Compliance Matrix: (Units=1/GPa)
#
#
# Indices 1 2 3 4 5 6 
#
# 1 0.009022 -0.002117 -0.002014 0.000000 0.000000 0.000000
# 2 -0.002117 0.010378 0.000924 0.000000 0.000000 0.000000
# 3 -0.002014 0.000924 0.014833 0.000000 0.000000 0.000000
# 4 0.000000 0.000000 0.000000 0.080441 0.000000 0.000000
# 5 0.000000 0.000000 0.000000 0.000000 0.054566 0.000000
# 6 0.000000 0.000000 0.000000 0.000000 0.000000 0.066013
#
#
# Mechanical properties :
#
#
# Convention : Reuss Voigt Hill
#
# Bulk Modulus (GPa) = 35.94518 39.98627 37.96573
# Shear Modulus (GPa) = 19.92520 26.23777 23.08149
#
# Velocity S-wave (km/s) = 3.15802 3.62391 3.39896
# Velocity P-wave (km/s) = 5.59366 6.12572 5.86573
#
# Compressibility (1/GPa) = 0.02782014
#
# Stress axis : x y z
#
# Youngs Moduli (GPa) = 110.83461 96.36102 67.41921
#
# Poissons Ratio (x) = 0.20397 0.13577
# Poissons Ratio (y) = 0.23460 -0.06231
# Poissons Ratio (z) = 0.22320 -0.08906
#
# Static dielectric constant tensor:
#      x y z
#    x 1.738980 0.000000 0.000000 
#    y 0.000000 1.679770 0.000000 
#    z 0.000000 0.000000 4.284880 
# 
# From -- ./inp_files/25324.got.cif
#   From: 2010.05.17/outbox.cif.g08.bks.cpg/sg64_13_cif.got.tgz:25324.got - 2010.06.03 16:29:19.
