data_PCOD9478296
_publ_section_title
;
Structure prediction by ZEFSAII (Michael W. Deem and Ramdas Pophale) SiO2 
 PCOD9478296
Probable space group: C M C A
;
_chemical_formula_sum "Si O2"
_cell_formula_units_Z 116
_cell_length_a 9.721455
_cell_length_b 22.913556
_cell_length_c 28.299214
_cell_angle_alpha 90.000000
_cell_angle_beta 90.000000
_cell_angle_gamma 90.000000
_cell_volume 6303.737746
_symmetry_space_group_name_H-M "C M C A"
_symmetry_group_IT_number 64
_symmetry_cell_setting 'orthorhombic'
loop_
_space_group_symop_operation_xyz
x,y,z
-x,1/2-y,1/2+z
x,-y,-z
-x,1/2+y,1/2-z
-x,-y,-z
x,1/2+y,1/2-z
-x,y,z
x,1/2-y,1/2+z
1/2+x,1/2+y,z
1/2-x,-y,1/2+z
1/2+x,1/2-y,-z
1/2-x,y,1/2-z
1/2-x,1/2-y,-z
1/2+x,y,1/2-z
1/2-x,1/2+y,z
1/2+x,-y,1/2+z
loop_
_atom_site_type_symbol
_atom_site_label
_atom_site_fract_x
_atom_site_fract_y
_atom_site_fract_z
Si Si1 0.655380 0.590714 0.904343
Si Si2 0.151320 0.131528 0.351060
Si Si3 0.652767 0.133823 0.487935
Si Si4 0.160788 0.192713 0.618660
Si Si5 0.339029 0.215316 0.295700
Si Si6 0.843979 0.221169 0.439123
Si Si7 0.000000 0.000000 0.500000
Si Si8 0.234316 0.034591 0.421859
O O1 0.500000 0.603491 0.888120
O O2 0.766490 0.630034 0.877135
O O3 0.687315 0.522407 0.903974
O O4 0.663811 0.608797 0.959588
O O5 0.269719 0.156983 0.317643
O O6 0.146724 0.177446 0.394464
O O7 0.177766 0.070269 0.376823
O O8 0.000000 0.131962 0.328097
O O9 0.500000 0.158018 0.479878
O O10 0.766998 0.182618 0.478054
O O11 0.674832 0.081050 0.451156
O O12 0.170672 0.233096 0.665259
O O13 0.249156 0.226698 0.579092
O O14 0.000000 0.187226 0.605981
O O15 0.500000 0.206812 0.285238
O O16 0.250000 0.231060 0.250000
O O17 0.000000 0.238439 0.451450
O O18 0.881062 0.985106 0.540351
#
# Coordination Sequence:
#
# PCOD9478296 Si02
#       8
#    16  16  16  16  16  16   4  16
#     4  11  23  35  50  73 108 150 193 232 273 320
#     4   9  18  32  54  84 112 143 179 230 284 330
#     4  10  20  33  50  72 104 144 192 239 279 319
#     4  10  22  37  55  79 108 140 179 223 277 336
#     4  10  21  39  64  91 112 137 173 224 289 359
#     4   9  18  32  52  74 103 139 182 229 279 327
#     4  12  20  32  54  84 116 156 214 244 276 322
#     4  11  21  33  55  79 116 154 202 241 280 325
#
# _framework density 18.401782000000001
#
# number of rings (size 3 to 8) (size 9 to 14) (size 15 to 20)
#    0.000    1.931    2.069    1.655    1.931    7.724 
#    0.000    0.000    0.000    0.828    0.000    1.931 
#    0.000    0.000    0.000    0.000    0.000    0.000 
#
# Total GULP energy -323158.617903 kJ/mol
# GULP energy per Si atom -5571.700309 kJ/mol
# Density = 1.835990 g / cm^3
# Si number density = 18.401782 Si / 1000 Ang^3
#
#
#
# Elastic Constant Matrix: (Units=GPa)
#
#
# Indices 1 2 3 4 5 6 
#
# 1 172.6168 54.6500 47.3831 0.0000 0.0000 0.0000
# 2 54.6500 98.1098 25.3016 0.0000 0.0000 0.0000
# 3 47.3831 25.3016 45.1748 0.0000 0.0000 0.0000
# 4 0.0000 0.0000 0.0000 16.4621 0.0000 0.0000
# 5 0.0000 0.0000 0.0000 0.0000 27.0050 0.0000
# 6 0.0000 0.0000 0.0000 0.0000 0.0000 10.3751
#
#
#
# Elastic Compliance Matrix: (Units=1/GPa)
#
#
# Indices 1 2 3 4 5 6 
#
# 1 0.008810 -0.002951 -0.007588 0.000000 0.000000 0.000000
# 2 -0.002951 0.012902 -0.004131 0.000000 0.000000 0.000000
# 3 -0.007588 -0.004131 0.032409 0.000000 0.000000 0.000000
# 4 0.000000 0.000000 0.000000 0.060746 0.000000 0.000000
# 5 0.000000 0.000000 0.000000 0.000000 0.037030 0.000000
# 6 0.000000 0.000000 0.000000 0.000000 0.000000 0.096385
#
#
# Mechanical properties :
#
#
# Convention : Reuss Voigt Hill
#
# Bulk Modulus (GPa) = 40.35350 63.39677 51.87513
# Shear Modulus (GPa) = 17.48970 23.33955 20.41462
#
# Velocity S-wave (km/s) = 3.08626 3.56523 3.33435
# Velocity P-wave (km/s) = 5.88869 7.17454 6.56318
#
# Compressibility (1/GPa) = 0.02478100
#
# Stress axis : x y z
#
# Youngs Moduli (GPa) = 113.50272 77.50965 30.85530
#
# Poissons Ratio (x) = 0.22870 0.23414
# Poissons Ratio (y) = 0.33491 0.12747
# Poissons Ratio (z) = 0.86131 0.32020
#
# Static dielectric constant tensor:
#      x y z
#    x 1.655830 0.000000 0.000000 
#    y 0.000000 1.656360 0.000000 
#    z 0.000000 0.000000 1.618940 
# 
# From -- ./inp_files/48583.got.cif
#   From: 2010.05.17/outbox.cif.g08.bks.cpg/sg64_25_cif.got.tgz:48583.got - 2010.06.03 16:29:19.
