data_PCOD9478961
_publ_section_title
;
Structure prediction by ZEFSAII (Michael W. Deem and Ramdas Pophale) SiO2 
 PCOD9478961
Probable space group: C M C A
;
_chemical_formula_sum "Si O2"
_cell_formula_units_Z 112
_cell_length_a 15.647748
_cell_length_b 30.200002
_cell_length_c 10.359322
_cell_angle_alpha 90.000000
_cell_angle_beta 90.000000
_cell_angle_gamma 90.000000
_cell_volume 4895.422139
_symmetry_space_group_name_H-M "C M C A"
_symmetry_group_IT_number 64
_symmetry_cell_setting 'orthorhombic'
loop_
_space_group_symop_operation_xyz
x,y,z
-x,1/2-y,1/2+z
x,-y,-z
-x,1/2+y,1/2-z
-x,-y,-z
x,1/2+y,1/2-z
-x,y,z
x,1/2-y,1/2+z
1/2+x,1/2+y,z
1/2-x,-y,1/2+z
1/2+x,1/2-y,-z
1/2-x,y,1/2-z
1/2-x,1/2-y,-z
1/2+x,y,1/2-z
1/2-x,1/2+y,z
1/2+x,-y,1/2+z
loop_
_atom_site_type_symbol
_atom_site_label
_atom_site_fract_x
_atom_site_fract_y
_atom_site_fract_z
Si Si1 0.192765 0.248885 0.370222
Si Si2 0.343991 0.917320 0.307298
Si Si3 0.099081 0.332148 0.736390
Si Si4 0.729783 0.046687 0.449840
Si Si5 0.591660 0.007701 0.258158
Si Si6 0.906669 0.085340 0.424632
Si Si7 0.900901 0.166568 0.942618
O O1 0.250000 0.264697 0.250000
O O2 0.250000 0.250000 0.500000
O O3 0.153392 0.202297 0.322335
O O4 0.118480 0.284019 0.396869
O O5 0.250000 0.918535 0.250000
O O6 0.342168 0.937112 0.451219
O O7 0.395237 0.955539 0.232936
O O8 0.370493 0.867269 0.331959
O O9 0.096766 0.378977 0.808471
O O10 0.134678 0.337442 0.590094
O O11 0.000000 0.316181 0.728076
O O12 0.806150 0.082635 0.465034
O O13 0.764755 0.000000 0.500000
O O14 0.673309 0.031060 0.326967
O O15 0.500000 0.013278 0.328211
O O16 0.584797 0.036264 0.130450
O O17 0.000000 0.095605 0.491847
O O18 0.000000 0.157244 0.957196
#
# Coordination Sequence:
#
# PCOD9478961 Si02
#       7
#    16  16  16  16  16  16  16
#     4  12  25  45  73 105 138 175 225 286 355 424
#     4  11  23  39  60  89 133 176 229 286 346 422
#     4  10  23  44  69 100 135 176 227 283 349 427
#     4  10  21  35  57  85 123 172 220 281 337 403
#     4  10  20  36  61  95 129 171 226 287 350 415
#     4  10  21  38  63  92 127 170 221 274 338 412
#     4  11  24  44  68  97 135 179 223 284 352 424
#
# _framework density 22.878516000000001
#
# number of rings (size 3 to 8) (size 9 to 14) (size 15 to 20)
#    0.000    1.429    1.429    4.286    2.000    5.714 
#    0.000    1.429    0.000    0.000    0.000    0.000 
#    0.000    0.000    0.000    0.000    0.000    0.000 
#
# Total GULP energy -311858.554337 kJ/mol
# GULP energy per Si atom -5568.902756 kJ/mol
# Density = 2.282644 g / cm^3
# Si number density = 22.878516 Si / 1000 Ang^3
#
#
#
# Elastic Constant Matrix: (Units=GPa)
#
#
# Indices 1 2 3 4 5 6 
#
# 1 91.9117 6.4055 12.3193 0.0000 0.0000 0.0000
# 2 6.4055 96.1400 7.0520 0.0000 0.0000 0.0000
# 3 12.3193 7.0520 51.2538 0.0000 0.0000 0.0000
# 4 0.0000 0.0000 0.0000 35.2874 0.0000 0.0000
# 5 0.0000 0.0000 0.0000 0.0000 2.9508 0.0000
# 6 0.0000 0.0000 0.0000 0.0000 0.0000 27.0257
#
#
#
# Elastic Compliance Matrix: (Units=1/GPa)
#
#
# Indices 1 2 3 4 5 6 
#
# 1 0.011272 -0.000558 -0.002632 0.000000 0.000000 0.000000
# 2 -0.000558 0.010535 -0.001315 0.000000 0.000000 0.000000
# 3 -0.002632 -0.001315 0.020324 0.000000 0.000000 0.000000
# 4 0.000000 0.000000 0.000000 0.028339 0.000000 0.000000
# 5 0.000000 0.000000 0.000000 0.000000 0.338886 0.000000
# 6 0.000000 0.000000 0.000000 0.000000 0.000000 0.037002
#
#
# Mechanical properties :
#
#
# Convention : Reuss Voigt Hill
#
# Bulk Modulus (GPa) = 30.19352 32.31768 31.25560
# Shear Modulus (GPa) = 10.72020 27.28803 19.00411
#
# Velocity S-wave (km/s) = 2.16700 3.45735 2.88523
# Velocity P-wave (km/s) = 4.41442 5.48581 4.97902
#
# Compressibility (1/GPa) = 0.03311969
#
# Stress axis : x y z
#
# Youngs Moduli (GPa) = 88.71752 94.92025 49.20178
#
# Poissons Ratio (x) = 0.05296 0.12952
# Poissons Ratio (y) = 0.04950 0.06472
# Poissons Ratio (z) = 0.23355 0.12486
#
# Static dielectric constant tensor:
#      x y z
#    x 1.984990 0.000000 0.000000 
#    y 0.000000 1.863670 0.000000 
#    z 0.000000 0.000000 1.964050 
# 
# From -- ./inp_files/14993.got.cif
#   From: 2010.05.17/outbox.cif.g08.bks.cpg/sg64_8_cif.got.tgz:14993.got - 2010.06.03 16:29:19.
