data_PCOD9478215
_publ_section_title
;
Structure prediction by ZEFSAII (Michael W. Deem and Ramdas Pophale) SiO2 
 PCOD9478215
Probable space group: C M C A
;
_chemical_formula_sum "Si O2"
_cell_formula_units_Z 56
_cell_length_a 18.872694
_cell_length_b 27.227381
_cell_length_c 5.255084
_cell_angle_alpha 90.000000
_cell_angle_beta 90.000000
_cell_angle_gamma 90.000000
_cell_volume 2700.346092
_symmetry_space_group_name_H-M "C M C A"
_symmetry_group_IT_number 64
_symmetry_cell_setting 'orthorhombic'
loop_
_space_group_symop_operation_xyz
x,y,z
-x,1/2-y,1/2+z
x,-y,-z
-x,1/2+y,1/2-z
-x,-y,-z
x,1/2+y,1/2-z
-x,y,z
x,1/2-y,1/2+z
1/2+x,1/2+y,z
1/2-x,-y,1/2+z
1/2+x,1/2-y,-z
1/2-x,y,1/2-z
1/2-x,1/2-y,-z
1/2+x,y,1/2-z
1/2-x,1/2+y,z
1/2+x,-y,1/2+z
loop_
_atom_site_type_symbol
_atom_site_label
_atom_site_fract_x
_atom_site_fract_y
_atom_site_fract_z
Si Si1 0.916492 0.226868 0.374173
Si Si2 0.109867 0.944312 0.012110
Si Si3 0.886327 0.884579 0.496998
Si Si4 0.250000 0.584959 0.750000
O O1 0.885388 0.260692 0.598187
O O2 0.910179 0.170530 0.455082
O O3 0.000000 0.238519 0.348715
O O4 0.099362 0.916935 0.746277
O O5 0.081875 0.911463 0.247585
O O6 0.194090 0.945301 0.081967
O O7 0.083939 0.000000 0.000000
O O8 0.802133 0.884648 0.432657
#
# Coordination Sequence:
#
# PCOD9478215 Si02
#       4
#    16  16  16   8
#     4  10  21  39  61  78  96 134 183 224 265 310
#     4  10  20  31  53  79 110 144 175 204 250 312
#     4  10  20  33  52  80 110 132 179 219 256 304
#     4   8  22  28  54  78 110 144 172 208 256 304
#
# _framework density 20.738083
#
# number of rings (size 3 to 8) (size 9 to 14) (size 15 to 20)
#    1.714    0.571    0.000    3.429    4.000    0.000 
#    0.000    1.429    0.000    5.143    0.000    0.000 
#    0.000    0.000    0.000    0.000    0.000    0.000 
#
# Total GULP energy -155926.425572 kJ/mol
# GULP energy per Si atom -5568.800913 kJ/mol
# Density = 2.069088 g / cm^3
# Si number density = 20.738083 Si / 1000 Ang^3
#
#
#
# Elastic Constant Matrix: (Units=GPa)
#
#
# Indices 1 2 3 4 5 6 
#
# 1 43.1827 -23.4363 8.2305 0.0000 0.0000 0.0000
# 2 -23.4363 32.0056 10.9014 0.0000 0.0000 0.0000
# 3 8.2305 10.9014 117.7591 0.0000 0.0000 0.0000
# 4 0.0000 0.0000 0.0000 26.6345 0.0000 0.0000
# 5 0.0000 0.0000 0.0000 0.0000 -15.2351 0.0000
# 6 0.0000 0.0000 0.0000 0.0000 0.0000 212.0466
#
#
#
# Elastic Compliance Matrix: (Units=1/GPa)
#
#
# Indices 1 2 3 4 5 6 
#
# 1 0.042165 0.032917 -0.005994 0.000000 0.000000 0.000000
# 2 0.032917 0.057959 -0.007666 0.000000 0.000000 0.000000
# 3 -0.005994 -0.007666 0.009621 0.000000 0.000000 0.000000
# 4 0.000000 0.000000 0.000000 0.037545 0.000000 0.000000
# 5 0.000000 0.000000 0.000000 0.000000 -0.065638 0.000000
# 6 0.000000 0.000000 0.000000 0.000000 0.000000 0.004716
#
#
# Mechanical properties :
#
#
# Convention : Reuss Voigt Hill
#
# Bulk Modulus (GPa) = 6.74499 20.48207 13.61353
# Shear Modulus (GPa) = 51.40110 57.83933 54.62021
#
# Velocity S-wave (km/s) = 4.98394 5.28686 5.13764
# Velocity P-wave (km/s) = 6.03151 6.86774 6.46316
#
# Compressibility (1/GPa) = 0.14825814
#
# Stress axis : x y z
#
# Youngs Moduli (GPa) = 23.71648 17.25344 103.94413
#
# Poissons Ratio (x) = -0.56793 0.62307
# Poissons Ratio (y) = -0.78068 0.79685
# Poissons Ratio (z) = 0.14216 0.13227
#
# Static dielectric constant tensor:
#      x y z
#    x 1.740420 0.000000 0.000000 
#    y 0.000000 1.687460 0.000000 
#    z 0.000000 0.000000 1.755380 
# 
# From -- ./inp_files/2170.got.cif
#   From: 2010.05.17/outbox.cif.g08.bks.cpg/sg64_2_cif.got.tgz:2170.got - 2010.06.03 16:29:19.
