data_PCOD9478556
_publ_section_title
;
Structure prediction by ZEFSAII (Michael W. Deem and Ramdas Pophale) SiO2 
 PCOD9478556
Probable space group: C M C A
;
_chemical_formula_sum "Si O2"
_cell_formula_units_Z 96
_cell_length_a 21.472626
_cell_length_b 22.006663
_cell_length_c 11.089169
_cell_angle_alpha 90.000000
_cell_angle_beta 90.000000
_cell_angle_gamma 90.000000
_cell_volume 5240.085280
_symmetry_space_group_name_H-M "C M C A"
_symmetry_group_IT_number 64
_symmetry_cell_setting 'orthorhombic'
loop_
_space_group_symop_operation_xyz
x,y,z
-x,1/2-y,1/2+z
x,-y,-z
-x,1/2+y,1/2-z
-x,-y,-z
x,1/2+y,1/2-z
-x,y,z
x,1/2-y,1/2+z
1/2+x,1/2+y,z
1/2-x,-y,1/2+z
1/2+x,1/2-y,-z
1/2-x,y,1/2-z
1/2-x,1/2-y,-z
1/2+x,y,1/2-z
1/2-x,1/2+y,z
1/2+x,-y,1/2+z
loop_
_atom_site_type_symbol
_atom_site_label
_atom_site_fract_x
_atom_site_fract_y
_atom_site_fract_z
Si Si1 0.364080 0.613259 0.917019
Si Si2 0.500000 0.151138 0.866876
Si Si3 0.362849 0.349920 0.361571
Si Si4 0.264154 0.068775 0.000598
Si Si5 0.500000 0.614633 0.912164
Si Si6 0.500000 0.793420 0.632948
Si Si7 0.750000 0.638024 0.250000
Si Si8 0.863931 0.794165 0.859948
O O1 0.359196 0.638941 0.782014
O O2 0.432845 0.583072 0.927972
O O3 0.305281 0.571225 0.944573
O O4 0.360682 0.667886 0.015029
O O5 0.568198 0.128427 0.905789
O O6 0.500000 0.142702 0.721751
O O7 0.500000 0.222334 0.896240
O O8 0.308954 0.387441 0.425056
O O9 0.356561 0.277618 0.382393
O O10 0.260454 0.096006 0.134271
O O11 0.287259 0.000000 0.000000
O O12 0.500000 0.667928 0.010793
O O13 0.566663 0.805198 0.694387
O O14 0.809769 0.680005 0.276034
#
# Coordination Sequence:
#
# PCOD9478556 Si02
#       8
#    16   8  16  16   8   8   8  16
#     4   9  19  34  57  83 109 146 183 229 275 332
#     4   8  16  32  49  86 110 138 180 216 267 334
#     4  10  20  34  61  83 113 147 180 223 279 330
#     4  11  25  40  56  78 109 155 191 227 269 324
#     4   8  14  30  53  77 109 136 180 228 271 318
#     4   8  14  30  50  79 114 148 169 210 276 339
#     4  10  24  38  54  84 118 138 186 238 268 326
#     4   9  19  33  56  87 117 140 178 227 281 328
#
# _framework density 18.320312999999999
#
# number of rings (size 3 to 8) (size 9 to 14) (size 15 to 20)
#    0.000    2.667    0.000    0.500    7.000    1.333 
#    3.000    0.833    0.000    0.000    0.000    0.000 
#    0.000    0.000    0.000    0.000    0.000    0.000 
#
# Total GULP energy -267336.629281 kJ/mol
# GULP energy per Si atom -5569.513110 kJ/mol
# Density = 1.827862 g / cm^3
# Si number density = 18.320313 Si / 1000 Ang^3
#
#
#
# Elastic Constant Matrix: (Units=GPa)
#
#
# Indices 1 2 3 4 5 6 
#
# 1 156.7778 36.3679 39.2413 0.0000 0.0000 0.0000
# 2 36.3679 55.4815 6.6781 0.0000 0.0000 0.0000
# 3 39.2413 6.6781 36.6763 0.0000 0.0000 0.0000
# 4 0.0000 0.0000 0.0000 17.1885 0.0000 0.0000
# 5 0.0000 0.0000 0.0000 0.0000 13.4827 0.0000
# 6 0.0000 0.0000 0.0000 0.0000 0.0000 19.0104
#
#
#
# Elastic Compliance Matrix: (Units=1/GPa)
#
#
# Indices 1 2 3 4 5 6 
#
# 1 0.010095 -0.005437 -0.009812 0.000000 0.000000 0.000000
# 2 -0.005437 0.021356 0.001928 0.000000 0.000000 0.000000
# 3 -0.009812 0.001928 0.037412 0.000000 0.000000 0.000000
# 4 0.000000 0.000000 0.000000 0.058178 0.000000 0.000000
# 5 0.000000 0.000000 0.000000 0.000000 0.074169 0.000000
# 6 0.000000 0.000000 0.000000 0.000000 0.000000 0.052603
#
#
# Mechanical properties :
#
#
# Convention : Reuss Voigt Hill
#
# Bulk Modulus (GPa) = 23.68346 45.94556 34.81451
# Shear Modulus (GPa) = 16.97635 21.04621 19.01128
#
# Velocity S-wave (km/s) = 3.04738 3.39306 3.22485
# Velocity P-wave (km/s) = 5.03364 6.36270 5.73679
#
# Compressibility (1/GPa) = 0.04222356
#
# Stress axis : x y z
#
# Youngs Moduli (GPa) = 99.05519 46.82624 26.72927
#
# Poissons Ratio (x) = 0.25457 0.26225
# Poissons Ratio (y) = 0.53851 -0.05154
# Poissons Ratio (z) = 0.97188 -0.09029
#
# Static dielectric constant tensor:
#      x y z
#    x 1.707430 0.000000 0.000000 
#    y 0.000000 1.582780 0.000000 
#    z 0.000000 0.000000 1.607870 
# 
# From -- ./inp_files/17420.got.cif
#   From: 2010.05.17/outbox.cif.g08.bks.cpg/sg64_9_cif.got.tgz:17420.got - 2010.06.03 16:29:19.
