data_PCOD9478354
_publ_section_title
;
Structure prediction by ZEFSAII (Michael W. Deem and Ramdas Pophale) SiO2 
 PCOD9478354
Probable space group: C M C A
;
_chemical_formula_sum "Si O2"
_cell_formula_units_Z 80
_cell_length_a 9.278402
_cell_length_b 14.802212
_cell_length_c 30.174386
_cell_angle_alpha 90.000000
_cell_angle_beta 90.000000
_cell_angle_gamma 90.000000
_cell_volume 4144.176528
_symmetry_space_group_name_H-M "C M C A"
_symmetry_group_IT_number 64
_symmetry_cell_setting 'orthorhombic'
loop_
_space_group_symop_operation_xyz
x,y,z
-x,1/2-y,1/2+z
x,-y,-z
-x,1/2+y,1/2-z
-x,-y,-z
x,1/2+y,1/2-z
-x,y,z
x,1/2-y,1/2+z
1/2+x,1/2+y,z
1/2-x,-y,1/2+z
1/2+x,1/2-y,-z
1/2-x,y,1/2-z
1/2-x,1/2-y,-z
1/2+x,y,1/2-z
1/2-x,1/2+y,z
1/2+x,-y,1/2+z
loop_
_atom_site_type_symbol
_atom_site_label
_atom_site_fract_x
_atom_site_fract_y
_atom_site_fract_z
Si Si1 0.831453 0.257599 0.368980
Si Si2 0.329206 0.472478 0.137409
Si Si3 0.172441 0.106013 0.297060
Si Si4 0.339088 0.237395 0.955347
Si Si5 0.663479 0.021621 0.950544
O O1 0.807223 0.363941 0.359545
O O2 0.801186 0.195304 0.326788
O O3 0.739735 0.227715 0.411494
O O4 0.000000 0.247550 0.380406
O O5 0.500000 0.490296 0.140360
O O6 0.241710 0.523764 0.175387
O O7 0.265399 0.504191 0.090012
O O8 0.250000 0.113386 0.250000
O O9 0.000000 0.094615 0.292222
O O10 0.500000 0.274734 0.959945
O O11 0.348086 0.129689 0.948643
O O12 0.250000 0.250000 0.000000
O O13 0.500000 0.983518 0.945849
O O14 0.716759 0.000000 0.000000
#
# Coordination Sequence:
#
# PCOD9478354 Si02
#       5
#    16  16  16  16  16
#     4   9  21  41  61  83 118 158 195 241 294 350
#     4  10  21  39  61  88 120 153 195 245 296 349
#     4  11  24  42  64  89 117 153 197 244 299 356
#     4  10  20  33  53  82 116 154 194 238 289 347
#     4   9  19  35  54  79 113 156 197 234 287 348
#
# _framework density 19.304196999999998
#
# number of rings (size 3 to 8) (size 9 to 14) (size 15 to 20)
#    0.000    2.200    0.000    1.800    2.800    4.400 
#    0.000    2.000    0.000    0.000    0.000    0.000 
#    0.000    0.000    0.000    0.000    0.000    0.000 
#
# Total GULP energy -223361.484014 kJ/mol
# GULP energy per Si atom -5584.037100 kJ/mol
# Density = 1.926026 g / cm^3
# Si number density = 19.304197 Si / 1000 Ang^3
#
#
#
# Elastic Constant Matrix: (Units=GPa)
#
#
# Indices 1 2 3 4 5 6 
#
# 1 141.0312 57.3079 128.8312 0.0000 0.0000 0.0000
# 2 57.3079 58.5151 51.1560 0.0000 0.0000 0.0000
# 3 128.8312 51.1560 197.7718 0.0000 0.0000 0.0000
# 4 0.0000 0.0000 0.0000 27.4730 0.0000 0.0000
# 5 0.0000 0.0000 0.0000 0.0000 40.9148 0.0000
# 6 0.0000 0.0000 0.0000 0.0000 0.0000 21.4723
#
#
#
# Elastic Compliance Matrix: (Units=1/GPa)
#
#
# Indices 1 2 3 4 5 6 
#
# 1 0.022520 -0.011928 -0.011584 0.000000 0.000000 0.000000
# 2 -0.011928 0.028401 0.000424 0.000000 0.000000 0.000000
# 3 -0.011584 0.000424 0.012493 0.000000 0.000000 0.000000
# 4 0.000000 0.000000 0.000000 0.036399 0.000000 0.000000
# 5 0.000000 0.000000 0.000000 0.000000 0.024441 0.000000
# 6 0.000000 0.000000 0.000000 0.000000 0.000000 0.046572
#
#
# Mechanical properties :
#
#
# Convention : Reuss Voigt Hill
#
# Bulk Modulus (GPa) = 58.01584 96.87871 77.44728
# Shear Modulus (GPa) = 22.44689 28.64023 25.54356
#
# Velocity S-wave (km/s) = 3.41368 3.85597 3.64155
# Velocity P-wave (km/s) = 6.75695 8.37370 7.60839
#
# Compressibility (1/GPa) = 0.01723667
#
# Stress axis : x y z
#
# Youngs Moduli (GPa) = 44.40551 35.21029 80.04467
#
# Poissons Ratio (x) = 0.41997 0.92727
# Poissons Ratio (y) = 0.52965 -0.03391
# Poissons Ratio (z) = 0.51441 -0.01492
#
# Static dielectric constant tensor:
#      x y z
#    x 1.681840 0.000000 0.000000 
#    y 0.000000 1.693880 0.000000 
#    z 0.000000 0.000000 1.634880 
# 
# From -- ./inp_files/47811.got.cif
#   From: 2010.05.17/outbox.cif.g08.bks.cpg/sg64_24_cif.got.tgz:47811.got - 2010.06.03 16:29:19.
