data_PCOD9478892
_publ_section_title
;
Structure prediction by ZEFSAII (Michael W. Deem and Ramdas Pophale) SiO2 
 PCOD9478892
Probable space group: C M C A
;
_chemical_formula_sum "Si O2"
_cell_formula_units_Z 72
_cell_length_a 11.939978
_cell_length_b 27.692325
_cell_length_c 11.506266
_cell_angle_alpha 90.000000
_cell_angle_beta 90.000000
_cell_angle_gamma 90.000000
_cell_volume 3804.497966
_symmetry_space_group_name_H-M "C M C A"
_symmetry_group_IT_number 64
_symmetry_cell_setting 'orthorhombic'
loop_
_space_group_symop_operation_xyz
x,y,z
-x,1/2-y,1/2+z
x,-y,-z
-x,1/2+y,1/2-z
-x,-y,-z
x,1/2+y,1/2-z
-x,y,z
x,1/2-y,1/2+z
1/2+x,1/2+y,z
1/2-x,-y,1/2+z
1/2+x,1/2-y,-z
1/2-x,y,1/2-z
1/2-x,1/2-y,-z
1/2+x,y,1/2-z
1/2-x,1/2+y,z
1/2+x,-y,1/2+z
loop_
_atom_site_type_symbol
_atom_site_label
_atom_site_fract_x
_atom_site_fract_y
_atom_site_fract_z
Si Si1 0.125990 0.263843 0.189431
Si Si2 0.750000 0.392751 0.750000
Si Si3 0.197327 0.867420 0.371614
Si Si4 0.629110 0.448845 0.543933
Si Si5 0.873507 0.831768 0.939588
O O1 0.250000 0.257884 0.250000
O O2 0.125421 0.319653 0.153240
O O3 0.131430 0.225360 0.084900
O O4 0.000000 0.254165 0.245396
O O5 0.691340 0.425831 0.653703
O O6 0.834211 0.358156 0.678850
O O7 0.250000 0.884004 0.250000
O O8 0.137354 0.910187 0.439828
O O9 0.294562 0.848408 0.457151
O O10 0.676413 0.500000 0.500000
O O11 0.500000 0.456499 0.576160
O O12 0.000000 0.845504 0.966349
#
# Coordination Sequence:
#
# PCOD9478892 Si02
#       5
#    16   8  16  16  16
#     4  10  20  36  58  88 123 159 198 239 293 353
#     4  10  20  38  62  84 118 146 196 236 296 344
#     4  10  22  37  57  84 118 155 192 241 294 348
#     4  10  22  39  61  84 110 148 194 244 294 346
#     4  10  20  36  59  87 120 157 195 238 288 352
#
# _framework density 18.924966999999999
#
# number of rings (size 3 to 8) (size 9 to 14) (size 15 to 20)
#    0.000    2.000    1.111    2.000    1.556    4.444 
#    0.000    1.111    0.000    3.333    0.000    0.000 
#    0.000    0.000    0.000    0.000    0.000    0.000 
#
# Total GULP energy -200627.467124 kJ/mol
# GULP energy per Si atom -5572.985198 kJ/mol
# Density = 1.888189 g / cm^3
# Si number density = 18.924967 Si / 1000 Ang^3
#
#
#
# Elastic Constant Matrix: (Units=GPa)
#
#
# Indices 1 2 3 4 5 6 
#
# 1 109.3665 -1.6733 12.1614 0.0000 0.0000 0.0000
# 2 -1.6733 63.9690 13.9450 0.0000 0.0000 0.0000
# 3 12.1614 13.9450 74.9873 0.0000 0.0000 0.0000
# 4 0.0000 0.0000 0.0000 23.1566 0.0000 0.0000
# 5 0.0000 0.0000 0.0000 0.0000 10.9470 0.0000
# 6 0.0000 0.0000 0.0000 0.0000 0.0000 24.8102
#
#
#
# Elastic Compliance Matrix: (Units=1/GPa)
#
#
# Indices 1 2 3 4 5 6 
#
# 1 0.009333 0.000598 -0.001625 0.000000 0.000000 0.000000
# 2 0.000598 0.016331 -0.003134 0.000000 0.000000 0.000000
# 3 -0.001625 -0.003134 0.014182 0.000000 0.000000 0.000000
# 4 0.000000 0.000000 0.000000 0.043184 0.000000 0.000000
# 5 0.000000 0.000000 0.000000 0.000000 0.091349 0.000000
# 6 0.000000 0.000000 0.000000 0.000000 0.000000 0.040306
#
#
# Mechanical properties :
#
#
# Convention : Reuss Voigt Hill
#
# Bulk Modulus (GPa) = 31.72044 33.02101 32.37072
# Shear Modulus (GPa) = 21.41181 26.70874 24.06027
#
# Velocity S-wave (km/s) = 3.36729 3.76080 3.56947
# Velocity P-wave (km/s) = 5.64940 6.02863 5.84209
#
# Compressibility (1/GPa) = 0.03152541
#
# Stress axis : x y z
#
# Youngs Moduli (GPa) = 107.14187 61.23152 70.51207
#
# Poissons Ratio (x) = -0.03664 0.11458
# Poissons Ratio (y) = -0.06411 0.22099
# Poissons Ratio (z) = 0.17410 0.19191
#
# Static dielectric constant tensor:
#      x y z
#    x 1.692020 0.000000 0.000000 
#    y 0.000000 1.651620 0.000000 
#    z 0.000000 0.000000 1.652100 
# 
# From -- ./inp_files/13059.got.cif
#   From: 2010.05.17/outbox.cif.g08.bks.cpg/sg64_7_cif.got.tgz:13059.got - 2010.06.03 16:29:19.
