data_PCOD9478799
_publ_section_title
;
Structure prediction by ZEFSAII (Michael W. Deem and Ramdas Pophale) SiO2 
 PCOD9478799
Probable space group: C M C A
;
_chemical_formula_sum "Si O2"
_cell_formula_units_Z 80
_cell_length_a 8.670714
_cell_length_b 28.083868
_cell_length_c 18.520685
_cell_angle_alpha 90.000000
_cell_angle_beta 90.000000
_cell_angle_gamma 90.000000
_cell_volume 4509.919914
_symmetry_space_group_name_H-M "C M C A"
_symmetry_group_IT_number 64
_symmetry_cell_setting 'orthorhombic'
loop_
_space_group_symop_operation_xyz
x,y,z
-x,1/2-y,1/2+z
x,-y,-z
-x,1/2+y,1/2-z
-x,-y,-z
x,1/2+y,1/2-z
-x,y,z
x,1/2-y,1/2+z
1/2+x,1/2+y,z
1/2-x,-y,1/2+z
1/2+x,1/2-y,-z
1/2-x,y,1/2-z
1/2-x,1/2-y,-z
1/2+x,y,1/2-z
1/2-x,1/2+y,z
1/2+x,-y,1/2+z
loop_
_atom_site_type_symbol
_atom_site_label
_atom_site_fract_x
_atom_site_fract_y
_atom_site_fract_z
Si Si1 0.685699 0.196141 0.596360
Si Si2 0.313295 0.446899 0.023416
Si Si3 0.315700 0.791324 0.669177
Si Si4 0.815860 0.147644 0.454551
Si Si5 0.815747 0.597706 0.672394
O O1 0.500000 0.199906 0.592003
O O2 0.755782 0.243712 0.629296
O O3 0.750934 0.182081 0.517958
O O4 0.726058 0.151405 0.648038
O O5 0.500000 0.441896 0.018732
O O6 0.267278 0.435955 0.106156
O O7 0.271588 0.500000 0.000000
O O8 0.238848 0.405315 0.975603
O O9 0.500000 0.791284 0.670981
O O10 0.250000 0.792592 0.750000
O O11 0.253722 0.834700 0.620732
O O12 0.000000 0.150629 0.453396
O O13 0.750000 0.585622 0.750000
O O14 0.000000 0.595946 0.676528
#
# Coordination Sequence:
#
# PCOD9478799 Si02
#       5
#    16  16  16  16  16
#     4  10  20  36  56  80 110 146 185 222 268 325
#     4   9  19  38  60  79 104 142 184 226 277 333
#     4  12  24  38  55  79 112 149 187 226 270 321
#     4  11  22  37  57  82 110 142 182 228 276 325
#     4   9  18  31  51  79 108 137 171 216 269 322
#
# _framework density 17.738674
#
# number of rings (size 3 to 8) (size 9 to 14) (size 15 to 20)
#    0.000    1.800    0.000    6.600    0.000    6.000 
#    0.000    1.000    0.000    2.400    0.000    0.000 
#    0.000    0.000    0.000    0.000    0.000    0.000 
#
# Total GULP energy -223471.083617 kJ/mol
# GULP energy per Si atom -5586.777090 kJ/mol
# Density = 1.769830 g / cm^3
# Si number density = 17.738674 Si / 1000 Ang^3
#
#
#
# Elastic Constant Matrix: (Units=GPa)
#
#
# Indices 1 2 3 4 5 6 
#
# 1 99.6361 55.1885 55.6899 0.0000 0.0000 0.0000
# 2 55.1885 118.1729 86.1953 0.0000 0.0000 0.0000
# 3 55.6899 86.1953 117.0733 0.0000 0.0000 0.0000
# 4 0.0000 0.0000 0.0000 12.8229 0.0000 0.0000
# 5 0.0000 0.0000 0.0000 0.0000 34.9998 0.0000
# 6 0.0000 0.0000 0.0000 0.0000 0.0000 24.8736
#
#
#
# Elastic Compliance Matrix: (Units=1/GPa)
#
#
# Indices 1 2 3 4 5 6 
#
# 1 0.014395 -0.003733 -0.004099 0.000000 0.000000 0.000000
# 2 -0.003733 0.019246 -0.012394 0.000000 0.000000 0.000000
# 3 -0.004099 -0.012394 0.019617 0.000000 0.000000 0.000000
# 4 0.000000 0.000000 0.000000 0.077985 0.000000 0.000000
# 5 0.000000 0.000000 0.000000 0.000000 0.028572 0.000000
# 6 0.000000 0.000000 0.000000 0.000000 0.000000 0.040203
#
#
# Mechanical properties :
#
#
# Convention : Reuss Voigt Hill
#
# Bulk Modulus (GPa) = 78.09169 81.00331 79.54750
# Shear Modulus (GPa) = 20.42996 23.72651 22.07824
#
# Velocity S-wave (km/s) = 3.39738 3.66123 3.53177
# Velocity P-wave (km/s) = 7.71418 7.97727 7.84683
#
# Compressibility (1/GPa) = 0.01280546
#
# Stress axis : x y z
#
# Youngs Moduli (GPa) = 69.46670 51.95990 50.97682
#
# Poissons Ratio (x) = 0.19395 0.20897
# Poissons Ratio (y) = 0.25930 0.63181
# Poissons Ratio (z) = 0.28477 0.64399
#
# Static dielectric constant tensor:
#      x y z
#    x 1.561990 0.000000 0.000000 
#    y 0.000000 1.590540 0.000000 
#    z 0.000000 0.000000 1.596500 
# 
# From -- ./inp_files/29729.got.cif
#   From: 2010.05.17/outbox.cif.g08.bks.cpg/sg64_15_cif.got.tgz:29729.got - 2010.06.03 16:29:19.
