data_PCOD9478481
_publ_section_title
;
Structure prediction by ZEFSAII (Michael W. Deem and Ramdas Pophale) SiO2 
 PCOD9478481
Probable space group: C M C A
;
_chemical_formula_sum "Si O2"
_cell_formula_units_Z 48
_cell_length_a 18.220935
_cell_length_b 28.746256
_cell_length_c 4.989312
_cell_angle_alpha 90.000000
_cell_angle_beta 90.000000
_cell_angle_gamma 90.000000
_cell_volume 2613.320111
_symmetry_space_group_name_H-M "C M C A"
_symmetry_group_IT_number 64
_symmetry_cell_setting 'orthorhombic'
loop_
_space_group_symop_operation_xyz
x,y,z
-x,1/2-y,1/2+z
x,-y,-z
-x,1/2+y,1/2-z
-x,-y,-z
x,1/2+y,1/2-z
-x,y,z
x,1/2-y,1/2+z
1/2+x,1/2+y,z
1/2-x,-y,1/2+z
1/2+x,1/2-y,-z
1/2-x,y,1/2-z
1/2-x,1/2-y,-z
1/2+x,y,1/2-z
1/2-x,1/2+y,z
1/2+x,-y,1/2+z
loop_
_atom_site_type_symbol
_atom_site_label
_atom_site_fract_x
_atom_site_fract_y
_atom_site_fract_z
Si Si1 0.083063 0.365286 0.780047
Si Si2 0.302100 0.000000 0.500000
Si Si3 0.337046 0.402908 0.210525
Si Si4 0.500000 0.280189 0.531164
O O1 0.129942 0.368660 0.511946
O O2 0.068551 0.313287 0.892235
O O3 0.000000 0.382674 0.724496
O O4 0.121926 0.394630 0.011481
O O5 0.346404 0.044725 0.598586
O O6 0.250000 0.014147 0.250000
O O7 0.250000 0.396563 0.250000
O O8 0.500000 0.264308 0.225172
#
# Coordination Sequence:
#
# PCOD9478481 Si02
#       4
#    16   8  16   8
#     4  10  22  36  59  86 113 142 198 230 288 334
#     4  10  20  34  55  82 115 160 198 218 266 344
#     4  11  20  37  58  84 116 154 191 233 272 329
#     4  10  20  38  64  81 106 149 192 224 280 368
#
# _framework density 18.367439000000001
#
# number of rings (size 3 to 8) (size 9 to 14) (size 15 to 20)
#    1.000    0.667    0.000    8.000    0.000    0.000 
#    0.000    5.000    0.000   20.000    0.000    0.000 
#    0.000    0.000    0.000    0.000    0.000    0.000 
#
# Total GULP energy -133833.039429 kJ/mol
# GULP energy per Si atom -5576.376643 kJ/mol
# Density = 1.832563 g / cm^3
# Si number density = 18.367439 Si / 1000 Ang^3
#
#
#
# Elastic Constant Matrix: (Units=GPa)
#
#
# Indices 1 2 3 4 5 6 
#
# 1 82.8032 23.5659 26.1116 0.0000 0.0000 0.0000
# 2 23.5659 39.3394 -8.6375 0.0000 0.0000 0.0000
# 3 26.1116 -8.6375 87.5643 0.0000 0.0000 0.0000
# 4 0.0000 0.0000 0.0000 39.5877 0.0000 0.0000
# 5 0.0000 0.0000 0.0000 0.0000 -190.3695 0.0000
# 6 0.0000 0.0000 0.0000 0.0000 0.0000 14.3126
#
#
#
# Elastic Compliance Matrix: (Units=1/GPa)
#
#
# Indices 1 2 3 4 5 6 
#
# 1 0.017464 -0.011862 -0.006378 0.000000 0.000000 0.000000
# 2 -0.011862 0.034039 0.006895 0.000000 0.000000 0.000000
# 3 -0.006378 0.006895 0.014002 0.000000 0.000000 0.000000
# 4 0.000000 0.000000 0.000000 0.025260 0.000000 0.000000
# 5 0.000000 0.000000 0.000000 0.000000 -0.005253 0.000000
# 6 0.000000 0.000000 0.000000 0.000000 0.000000 0.069869
#
#
# Mechanical properties :
#
#
# Convention : Reuss Voigt Hill
#
# Bulk Modulus (GPa) = 23.35581 32.42075 27.88828
# Shear Modulus (GPa) = 25.99521 -16.04937 4.97292
#
# Velocity S-wave (km/s) = 3.76611 -2.95921 1.64722
# Velocity P-wave (km/s) = 5.62627 2.45227 4.33985
#
# Compressibility (1/GPa) = 0.04281590
#
# Stress axis : x y z
#
# Youngs Moduli (GPa) = 57.26081 29.37771 71.41753
#
# Poissons Ratio (x) = 0.34848 0.45549
# Poissons Ratio (y) = 0.67922 -0.49242
# Poissons Ratio (z) = 0.36520 -0.20256
#
# Static dielectric constant tensor:
#      x y z
#    x 1.612190 0.000000 0.000000 
#    y 0.000000 1.657580 0.000000 
#    z 0.000000 0.000000 1.637030 
# 
# From -- ./inp_files/820.got.cif
#   From: 2010.05.17/outbox.cif.g08.bks.cpg/sg64_1_cif.got.tgz:820.got - 2010.06.03 16:29:19.
