data_PCOD9478371
_publ_section_title
;
Structure prediction by ZEFSAII (Michael W. Deem and Ramdas Pophale) SiO2 
 PCOD9478371
Probable space group: C M C A
;
_chemical_formula_sum "Si O2"
_cell_formula_units_Z 112
_cell_length_a 14.483876
_cell_length_b 13.932092
_cell_length_c 27.046868
_cell_angle_alpha 90.000000
_cell_angle_beta 90.000000
_cell_angle_gamma 90.000000
_cell_volume 5457.806236
_symmetry_space_group_name_H-M "C M C A"
_symmetry_group_IT_number 64
_symmetry_cell_setting 'orthorhombic'
loop_
_space_group_symop_operation_xyz
x,y,z
-x,1/2-y,1/2+z
x,-y,-z
-x,1/2+y,1/2-z
-x,-y,-z
x,1/2+y,1/2-z
-x,y,z
x,1/2-y,1/2+z
1/2+x,1/2+y,z
1/2-x,-y,1/2+z
1/2+x,1/2-y,-z
1/2-x,y,1/2-z
1/2-x,1/2-y,-z
1/2+x,y,1/2-z
1/2-x,1/2+y,z
1/2+x,-y,1/2+z
loop_
_atom_site_type_symbol
_atom_site_label
_atom_site_fract_x
_atom_site_fract_y
_atom_site_fract_z
Si Si1 0.391379 0.717610 0.998803
Si Si2 0.705683 0.881606 0.863632
Si Si3 0.755494 0.702853 0.920163
Si Si4 0.397408 0.153419 0.842497
Si Si5 0.104962 0.564833 0.041898
Si Si6 0.098922 0.120990 0.171196
Si Si7 0.148710 0.484803 0.769491
O O1 0.500000 0.685956 0.004029
O O2 0.322095 0.666090 0.959009
O O3 0.396309 0.826514 0.977923
O O4 0.329673 0.731842 0.048442
O O5 0.703404 0.771987 0.881380
O O6 0.654932 0.937069 0.906585
O O7 0.812178 0.911840 0.858894
O O8 0.660259 0.903124 0.811250
O O9 0.819882 0.639475 0.884594
O O10 0.500000 0.146185 0.864850
O O11 0.388725 0.263497 0.822661
O O12 0.390222 0.076762 0.798347
O O13 0.000000 0.531711 0.048869
O O14 0.150178 0.500000 0.000000
O O15 0.100208 0.063376 0.222642
O O16 0.000000 0.106076 0.146395
O O17 0.250000 0.512227 0.750000
#
# Coordination Sequence:
#
# PCOD9478371 Si02
#       7
#    16  16  16  16  16  16  16
#     4   9  17  31  51  76 107 147 191 228 280 334
#     4   9  19  34  51  77 108 144 181 223 282 330
#     4   9  18  32  51  77 110 148 182 235 276 333
#     4  10  20  33  56  86 110 141 189 232 281 342
#     4   9  18  30  48  78 113 142 173 229 286 329
#     4   9  19  37  57  79 111 146 183 229 279 334
#     4  10  21  35  55  82 111 150 185 235 286 337
#
# _framework density 20.521066000000001
#
# number of rings (size 3 to 8) (size 9 to 14) (size 15 to 20)
#    0.000    2.714    0.000    0.857    2.000    4.571 
#    0.000    0.000    0.000    4.714    0.000    0.000 
#    0.000    0.000    0.000    0.000    0.000    0.000 
#
# Total GULP energy -311918.272612 kJ/mol
# GULP energy per Si atom -5569.969154 kJ/mol
# Density = 2.047436 g / cm^3
# Si number density = 20.521066 Si / 1000 Ang^3
#
#
#
# Elastic Constant Matrix: (Units=GPa)
#
#
# Indices 1 2 3 4 5 6 
#
# 1 94.1494 12.6428 23.8918 0.0000 0.0000 0.0000
# 2 12.6428 45.5360 7.3939 0.0000 0.0000 0.0000
# 3 23.8918 7.3939 73.5749 0.0000 0.0000 0.0000
# 4 0.0000 0.0000 0.0000 30.9539 0.0000 0.0000
# 5 0.0000 0.0000 0.0000 0.0000 24.7339 0.0000
# 6 0.0000 0.0000 0.0000 0.0000 0.0000 57.6038
#
#
#
# Elastic Compliance Matrix: (Units=1/GPa)
#
#
# Indices 1 2 3 4 5 6 
#
# 1 0.011898 -0.002720 -0.003590 0.000000 0.000000 0.000000
# 2 -0.002720 0.022947 -0.001423 0.000000 0.000000 0.000000
# 3 -0.003590 -0.001423 0.014900 0.000000 0.000000 0.000000
# 4 0.000000 0.000000 0.000000 0.032306 0.000000 0.000000
# 5 0.000000 0.000000 0.000000 0.000000 0.040430 0.000000
# 6 0.000000 0.000000 0.000000 0.000000 0.000000 0.017360
#
#
# Mechanical properties :
#
#
# Convention : Reuss Voigt Hill
#
# Bulk Modulus (GPa) = 29.17264 33.45748 31.31506
# Shear Modulus (GPa) = 29.98787 33.94712 31.96749
#
# Velocity S-wave (km/s) = 3.82687 4.07167 3.95117
# Velocity P-wave (km/s) = 5.81149 6.20032 6.00905
#
# Compressibility (1/GPa) = 0.03427869
#
# Stress axis : x y z
#
# Youngs Moduli (GPa) = 84.04926 43.57879 67.11238
#
# Poissons Ratio (x) = 0.11855 0.24094
# Poissons Ratio (y) = 0.22865 0.09548
# Poissons Ratio (z) = 0.30175 0.06200
#
# Static dielectric constant tensor:
#      x y z
#    x 1.785000 0.000000 0.000000 
#    y 0.000000 1.750810 0.000000 
#    z 0.000000 0.000000 1.617810 
# 
# From -- ./inp_files/50076.got.cif
#   From: 2010.05.17/outbox.cif.g08.bks.cpg/sg64_26_cif.got.tgz:50076.got - 2010.06.03 16:29:19.
