data_PCOD9478497
_publ_section_title
;
Structure prediction by ZEFSAII (Michael W. Deem and Ramdas Pophale) SiO2 
 PCOD9478497
Probable space group: C M C A
;
_chemical_formula_sum "Si O2"
_cell_formula_units_Z 80
_cell_length_a 13.017987
_cell_length_b 12.322558
_cell_length_c 26.046671
_cell_angle_alpha 90.000000
_cell_angle_beta 90.000000
_cell_angle_gamma 90.000000
_cell_volume 4178.274120
_symmetry_space_group_name_H-M "C M C A"
_symmetry_group_IT_number 64
_symmetry_cell_setting 'orthorhombic'
loop_
_space_group_symop_operation_xyz
x,y,z
-x,1/2-y,1/2+z
x,-y,-z
-x,1/2+y,1/2-z
-x,-y,-z
x,1/2+y,1/2-z
-x,y,z
x,1/2-y,1/2+z
1/2+x,1/2+y,z
1/2-x,-y,1/2+z
1/2+x,1/2-y,-z
1/2-x,y,1/2-z
1/2-x,1/2-y,-z
1/2+x,y,1/2-z
1/2-x,1/2+y,z
1/2+x,-y,1/2+z
loop_
_atom_site_type_symbol
_atom_site_label
_atom_site_fract_x
_atom_site_fract_y
_atom_site_fract_z
Si Si1 0.886740 0.669138 0.288421
Si Si2 0.118937 0.373190 0.512982
Si Si3 0.614491 0.122564 0.857297
Si Si4 0.172137 0.615323 0.174812
Si Si5 0.221157 0.253724 0.419549
O O1 0.876616 0.790636 0.310879
O O2 0.872702 0.664013 0.227354
O O3 0.794176 0.603440 0.314053
O O4 0.000000 0.628579 0.302192
O O5 0.131837 0.500000 0.500000
O O6 0.147707 0.302929 0.462681
O O7 0.200298 0.333307 0.555351
O O8 0.000000 0.355516 0.528115
O O9 0.500000 0.136776 0.879778
O O10 0.704262 0.153534 0.896595
O O11 0.626063 0.001179 0.837311
O O12 0.162022 0.695881 0.126910
#
# Coordination Sequence:
#
# PCOD9478497 Si02
#       5
#    16  16  16  16  16
#     4   9  20  36  53  77 110 145 179 217 262 311
#     4  10  21  38  58  79 106 139 175 220 273 326
#     4  10  20  36  57  80 110 146 179 218 268 314
#     4  10  20  34  56  81 108 140 182 223 259 311
#     4  10  21  37  56  81 108 137 178 223 269 321
#
# _framework density 19.146661000000002
#
# number of rings (size 3 to 8) (size 9 to 14) (size 15 to 20)
#    0.000    2.200    0.000    2.400    0.000    8.800 
#    0.000    1.000    0.000   10.200    0.000    0.000 
#    0.000    0.000    0.000    0.000    0.000    0.000 
#
# Total GULP energy -223242.229491 kJ/mol
# GULP energy per Si atom -5581.055737 kJ/mol
# Density = 1.910308 g / cm^3
# Si number density = 19.146661 Si / 1000 Ang^3
#
#
#
# Elastic Constant Matrix: (Units=GPa)
#
#
# Indices 1 2 3 4 5 6 
#
# 1 60.5462 14.4506 -19.2007 0.0000 0.0000 0.0000
# 2 14.4506 38.9330 -5.7720 0.0000 0.0000 0.0000
# 3 -19.2007 -5.7720 40.7981 0.0000 0.0000 0.0000
# 4 0.0000 0.0000 0.0000 13.5719 0.0000 0.0000
# 5 0.0000 0.0000 0.0000 0.0000 8.1875 0.0000
# 6 0.0000 0.0000 0.0000 0.0000 0.0000 18.9979
#
#
#
# Elastic Compliance Matrix: (Units=1/GPa)
#
#
# Indices 1 2 3 4 5 6 
#
# 1 0.020878 -0.006427 0.008916 0.000000 0.000000 0.000000
# 2 -0.006427 0.028214 0.000967 0.000000 0.000000 0.000000
# 3 0.008916 0.000967 0.028844 0.000000 0.000000 0.000000
# 4 0.000000 0.000000 0.000000 0.073682 0.000000 0.000000
# 5 0.000000 0.000000 0.000000 0.000000 0.122137 0.000000
# 6 0.000000 0.000000 0.000000 0.000000 0.000000 0.052637
#
#
# Mechanical properties :
#
#
# Convention : Reuss Voigt Hill
#
# Bulk Modulus (GPa) = 11.78580 13.24812 12.51696
# Shear Modulus (GPa) = 14.37763 18.20477 16.29120
#
# Velocity S-wave (km/s) = 2.74327 3.08686 2.92012
# Velocity P-wave (km/s) = 4.02528 4.43162 4.23333
#
# Compressibility (1/GPa) = 0.08484789
#
# Stress axis : x y z
#
# Youngs Moduli (GPa) = 47.89750 35.44335 34.66924
#
# Poissons Ratio (x) = 0.22780 -0.30913
# Poissons Ratio (y) = 0.30785 -0.03352
# Poissons Ratio (z) = -0.42707 -0.03427
#
# Static dielectric constant tensor:
#      x y z
#    x 1.689290 0.000000 0.000000 
#    y 0.000000 1.622390 0.000000 
#    z 0.000000 0.000000 1.658100 
# 
# From -- ./inp_files/44971.got.cif
#   From: 2010.05.17/outbox.cif.g08.bks.cpg/sg64_23_cif.got.tgz:44971.got - 2010.06.03 16:29:19.
