data_PCOD9478377
_publ_section_title
;
Structure prediction by ZEFSAII (Michael W. Deem and Ramdas Pophale) SiO2 
 PCOD9478377
Probable space group: C M C A
;
_chemical_formula_sum "Si O2"
_cell_formula_units_Z 96
_cell_length_a 22.562888
_cell_length_b 18.255382
_cell_length_c 12.125253
_cell_angle_alpha 90.000000
_cell_angle_beta 90.000000
_cell_angle_gamma 90.000000
_cell_volume 4994.320650
_symmetry_space_group_name_H-M "C M C A"
_symmetry_group_IT_number 64
_symmetry_cell_setting 'orthorhombic'
loop_
_space_group_symop_operation_xyz
x,y,z
-x,1/2-y,1/2+z
x,-y,-z
-x,1/2+y,1/2-z
-x,-y,-z
x,1/2+y,1/2-z
-x,y,z
x,1/2-y,1/2+z
1/2+x,1/2+y,z
1/2-x,-y,1/2+z
1/2+x,1/2-y,-z
1/2-x,y,1/2-z
1/2-x,1/2-y,-z
1/2+x,y,1/2-z
1/2-x,1/2+y,z
1/2+x,-y,1/2+z
loop_
_atom_site_type_symbol
_atom_site_label
_atom_site_fract_x
_atom_site_fract_y
_atom_site_fract_z
Si Si1 0.153175 0.627963 0.334013
Si Si2 0.430260 0.235313 0.472719
Si Si3 0.840491 0.242370 0.338497
Si Si4 0.684556 0.466697 0.198072
Si Si5 0.355373 0.648991 0.639137
Si Si6 0.234389 0.847816 0.026911
O O1 0.101653 0.671161 0.401148
O O2 0.157018 0.661464 0.211538
O O3 0.151396 0.540658 0.333756
O O4 0.212291 0.645852 0.403155
O O5 0.500000 0.225515 0.476924
O O6 0.399727 0.238297 0.593005
O O7 0.411755 0.312856 0.416059
O O8 0.834251 0.291242 0.228888
O O9 0.789480 0.272850 0.418057
O O10 0.750000 0.482649 0.250000
O O11 0.645081 0.424378 0.289223
O O12 0.699606 0.411678 0.096951
O O13 0.303339 0.641199 0.549788
#
# Coordination Sequence:
#
# PCOD9478377 Si02
#       6
#    16  16  16  16  16  16
#     4  10  20  33  57  84 110 141 179 223 273 328
#     4  10  22  38  54  75 106 147 195 239 270 303
#     4   9  19  32  52  78 107 141 181 226 275 325
#     4   9  18  33  54  85 120 144 167 210 276 343
#     4   9  19  35  55  78 109 146 177 217 275 331
#     4   9  18  33  53  82 116 139 168 218 275 336
#
# _framework density 19.221831999999999
#
# number of rings (size 3 to 8) (size 9 to 14) (size 15 to 20)
#    0.000    2.667    0.000    2.000    0.000   14.000 
#    0.000    3.333    0.000   14.000    0.000    0.000 
#    0.000    0.000    0.000    0.000    0.000    0.000 
#
# Total GULP energy -267715.800054 kJ/mol
# GULP energy per Si atom -5577.412501 kJ/mol
# Density = 1.917808 g / cm^3
# Si number density = 19.221832 Si / 1000 Ang^3
#
#
#
# Elastic Constant Matrix: (Units=GPa)
#
#
# Indices 1 2 3 4 5 6 
#
# 1 103.3295 43.3635 32.4610 0.0000 0.0000 0.0000
# 2 43.3635 121.4049 31.9725 0.0000 0.0000 0.0000
# 3 32.4610 31.9725 72.1887 0.0000 0.0000 0.0000
# 4 0.0000 0.0000 0.0000 23.5464 0.0000 0.0000
# 5 0.0000 0.0000 0.0000 0.0000 16.8069 0.0000
# 6 0.0000 0.0000 0.0000 0.0000 0.0000 16.8813
#
#
#
# Elastic Compliance Matrix: (Units=1/GPa)
#
#
# Indices 1 2 3 4 5 6 
#
# 1 0.012361 -0.003341 -0.004079 0.000000 0.000000 0.000000
# 2 -0.003341 0.010228 -0.003027 0.000000 0.000000 0.000000
# 3 -0.004079 -0.003027 0.017027 0.000000 0.000000 0.000000
# 4 0.000000 0.000000 0.000000 0.042469 0.000000 0.000000
# 5 0.000000 0.000000 0.000000 0.000000 0.059499 0.000000
# 6 0.000000 0.000000 0.000000 0.000000 0.000000 0.059237
#
#
# Mechanical properties :
#
#
# Convention : Reuss Voigt Hill
#
# Bulk Modulus (GPa) = 53.41336 56.94636 55.17986
# Shear Modulus (GPa) = 21.93396 24.05533 22.99465
#
# Velocity S-wave (km/s) = 3.38168 3.54143 3.46248
# Velocity P-wave (km/s) = 6.56474 6.81267 6.68986
#
# Compressibility (1/GPa) = 0.01872191
#
# Stress axis : x y z
#
# Youngs Moduli (GPa) = 80.89825 97.77518 58.72856
#
# Poissons Ratio (x) = 0.32667 0.23954
# Poissons Ratio (y) = 0.27028 0.17780
# Poissons Ratio (z) = 0.32996 0.29601
#
# Static dielectric constant tensor:
#      x y z
#    x 1.642610 0.000000 0.000000 
#    y 0.000000 1.731210 0.000000 
#    z 0.000000 0.000000 1.726980 
# 
# From -- ./inp_files/18366.got.cif
#   From: 2010.05.17/outbox.cif.g08.bks.cpg/sg64_10_cif.got.tgz:18366.got - 2010.06.03 16:29:19.
