data_PCOD9478402
_publ_section_title
;
Structure prediction by ZEFSAII (Michael W. Deem and Ramdas Pophale) SiO2 
 PCOD9478402
Probable space group: C M C A
;
_chemical_formula_sum "Si O2"
_cell_formula_units_Z 48
_cell_length_a 23.641350
_cell_length_b 23.341491
_cell_length_c 4.993081
_cell_angle_alpha 90.000000
_cell_angle_beta 90.000000
_cell_angle_gamma 90.000000
_cell_volume 2755.303719
_symmetry_space_group_name_H-M "C M C A"
_symmetry_group_IT_number 64
_symmetry_cell_setting 'orthorhombic'
loop_
_space_group_symop_operation_xyz
x,y,z
-x,1/2-y,1/2+z
x,-y,-z
-x,1/2+y,1/2-z
-x,-y,-z
x,1/2+y,1/2-z
-x,y,z
x,1/2-y,1/2+z
1/2+x,1/2+y,z
1/2-x,-y,1/2+z
1/2+x,1/2-y,-z
1/2-x,y,1/2-z
1/2-x,1/2-y,-z
1/2+x,y,1/2-z
1/2-x,1/2+y,z
1/2+x,-y,1/2+z
loop_
_atom_site_type_symbol
_atom_site_label
_atom_site_fract_x
_atom_site_fract_y
_atom_site_fract_z
Si Si1 0.628079 0.435205 0.389051
Si Si2 0.500000 0.287104 0.070838
Si Si3 0.563859 0.892123 0.617570
Si Si4 0.250000 0.958979 0.250000
O O1 0.624526 0.500000 0.500000
O O2 0.601059 0.395718 0.617501
O O3 0.694157 0.424456 0.330456
O O4 0.593115 0.427664 0.117650
O O5 0.500000 0.232349 0.876749
O O6 0.447428 0.328088 0.993906
O O7 0.500000 0.913921 0.677352
O O8 0.265512 0.000000 0.500000
#
# Coordination Sequence:
#
# PCOD9478402 Si02
#       4
#    16   8  16   8
#     4  11  20  34  51  77 114 144 171 212 242 306
#     4  10  20  38  55  74 103 132 174 224 264 318
#     4  10  22  33  52  82 104 133 185 200 274 317
#     4  10  20  34  52  72 102 154 190 198 236 292
#
# _framework density 17.420947999999999
#
# number of rings (size 3 to 8) (size 9 to 14) (size 15 to 20)
#    1.000    0.667    0.000    8.000    0.000    4.000 
#    0.000    0.000    0.000    0.000    0.000   23.333 
#    0.000    0.000    0.000    0.000    0.000    0.000 
#
# Total GULP energy -133832.521726 kJ/mol
# GULP energy per Si atom -5576.355072 kJ/mol
# Density = 1.738130 g / cm^3
# Si number density = 17.420948 Si / 1000 Ang^3
#
#
#
# Elastic Constant Matrix: (Units=GPa)
#
#
# Indices 1 2 3 4 5 6 
#
# 1 136.8011 21.1564 43.3614 0.0000 0.0000 0.0000
# 2 21.1564 28.2196 -4.5555 0.0000 0.0000 0.0000
# 3 43.3614 -4.5555 96.6781 0.0000 0.0000 0.0000
# 4 0.0000 0.0000 0.0000 34.8475 0.0000 0.0000
# 5 0.0000 0.0000 0.0000 0.0000 209.3183 0.0000
# 6 0.0000 0.0000 0.0000 0.0000 0.0000 -25.7008
#
#
#
# Elastic Compliance Matrix: (Units=1/GPa)
#
#
# Indices 1 2 3 4 5 6 
#
# 1 0.010190 -0.008442 -0.004968 0.000000 0.000000 0.000000
# 2 -0.008442 0.042701 0.005798 0.000000 0.000000 0.000000
# 3 -0.004968 0.005798 0.012845 0.000000 0.000000 0.000000
# 4 0.000000 0.000000 0.000000 0.028696 0.000000 0.000000
# 5 0.000000 0.000000 0.000000 0.000000 0.004777 0.000000
# 6 0.000000 0.000000 0.000000 0.000000 0.000000 -0.038909
#
#
# Mechanical properties :
#
#
# Convention : Reuss Voigt Hill
#
# Bulk Modulus (GPa) = 19.79680 42.40263 31.09971
# Shear Modulus (GPa) = 54.13498 57.14210 55.63854
#
# Velocity S-wave (km/s) = 5.58051 5.73341 5.65748
# Velocity P-wave (km/s) = 7.27401 8.25967 7.78246
#
# Compressibility (1/GPa) = 0.05051322
#
# Stress axis : x y z
#
# Youngs Moduli (GPa) = 98.13413 23.41862 77.85064
#
# Poissons Ratio (x) = 0.19769 0.38678
# Poissons Ratio (y) = 0.82841 -0.45140
# Poissons Ratio (z) = 0.48755 -0.13579
#
# Static dielectric constant tensor:
#      x y z
#    x 1.602990 0.000000 0.000000 
#    y 0.000000 1.592620 0.000000 
#    z 0.000000 0.000000 1.598150 
# 
# From -- ./inp_files/2160.got.cif
#   From: 2010.05.17/outbox.cif.g08.bks.cpg/sg64_2_cif.got.tgz:2160.got - 2010.06.03 16:29:19.
