data_PCOD9478010
_publ_section_title
;
Structure prediction by ZEFSAII (Michael W. Deem and Ramdas Pophale) SiO2 
 PCOD9478010
Probable space group: C M C A
;
_chemical_formula_sum "Si O2"
_cell_formula_units_Z 96
_cell_length_a 15.632079
_cell_length_b 14.996487
_cell_length_c 20.503953
_cell_angle_alpha 90.000000
_cell_angle_beta 90.000000
_cell_angle_gamma 90.000000
_cell_volume 4806.665212
_symmetry_space_group_name_H-M "C M C A"
_symmetry_group_IT_number 64
_symmetry_cell_setting 'orthorhombic'
loop_
_space_group_symop_operation_xyz
x,y,z
-x,1/2-y,1/2+z
x,-y,-z
-x,1/2+y,1/2-z
-x,-y,-z
x,1/2+y,1/2-z
-x,y,z
x,1/2-y,1/2+z
1/2+x,1/2+y,z
1/2-x,-y,1/2+z
1/2+x,1/2-y,-z
1/2-x,y,1/2-z
1/2-x,1/2-y,-z
1/2+x,y,1/2-z
1/2-x,1/2+y,z
1/2+x,-y,1/2+z
loop_
_atom_site_type_symbol
_atom_site_label
_atom_site_fract_x
_atom_site_fract_y
_atom_site_fract_z
Si Si1 0.794495 0.811036 0.445851
Si Si2 0.404839 0.561855 0.166275
Si Si3 0.268108 0.504208 0.396061
Si Si4 0.328182 0.253076 0.800462
Si Si5 0.409287 0.901775 0.968551
Si Si6 0.904335 0.564049 0.790980
O O1 0.750000 0.750000 0.500000
O O2 0.759237 0.912876 0.438141
O O3 0.796167 0.767880 0.374373
O O4 0.888930 0.831638 0.474618
O O5 0.500000 0.562445 0.136808
O O6 0.325538 0.538275 0.120307
O O7 0.383367 0.657630 0.197056
O O8 0.403315 0.489153 0.223768
O O9 0.325938 0.584475 0.424509
O O10 0.327073 0.472505 0.335366
O O11 0.250000 0.262489 0.750000
O O12 0.384231 0.167665 0.780613
O O13 0.500000 0.881483 0.935802
O O14 0.415851 0.000000 0.000000
O O15 0.000000 0.553234 0.820761
#
# Coordination Sequence:
#
# PCOD9478010 Si02
#       6
#    16  16  16  16  16  16
#     4  10  21  36  58  87 120 158 198 245 303 366
#     4  11  23  38  59  87 121 164 213 262 315 377
#     4  10  19  36  59  82 119 161 203 255 311 368
#     4  11  22  38  62  88 120 160 203 253 312 377
#     4   9  18  33  56  85 114 149 196 248 299 354
#     4  10  20  35  58  89 121 156 202 257 318 381
#
# _framework density 19.972268
#
# number of rings (size 3 to 8) (size 9 to 14) (size 15 to 20)
#    0.000    1.833    0.000    5.500    0.000    4.667 
#    0.000    0.833    0.000   12.500    0.000    0.000 
#    0.000    0.000    0.000    0.000    0.000    0.000 
#
# Total GULP energy -267630.131515 kJ/mol
# GULP energy per Si atom -5575.627740 kJ/mol
# Density = 1.992681 g / cm^3
# Si number density = 19.972268 Si / 1000 Ang^3
#
#
#
# Elastic Constant Matrix: (Units=GPa)
#
#
# Indices 1 2 3 4 5 6 
#
# 1 183.2101 45.1399 52.5956 0.0000 0.0000 0.0000
# 2 45.1399 93.9180 31.7270 0.0000 0.0000 0.0000
# 3 52.5956 31.7270 64.3274 0.0000 0.0000 0.0000
# 4 0.0000 0.0000 0.0000 19.7501 0.0000 0.0000
# 5 0.0000 0.0000 0.0000 0.0000 17.9987 0.0000
# 6 0.0000 0.0000 0.0000 0.0000 0.0000 -99.6000
#
#
#
# Elastic Compliance Matrix: (Units=1/GPa)
#
#
# Indices 1 2 3 4 5 6 
#
# 1 0.007380 -0.001810 -0.005141 0.000000 0.000000 0.000000
# 2 -0.001810 0.013220 -0.005040 0.000000 0.000000 0.000000
# 3 -0.005141 -0.005040 0.022235 0.000000 0.000000 0.000000
# 4 0.000000 0.000000 0.000000 0.050633 0.000000 0.000000
# 5 0.000000 0.000000 0.000000 0.000000 0.055560 0.000000
# 6 0.000000 0.000000 0.000000 0.000000 0.000000 -0.010040
#
#
# Mechanical properties :
#
#
# Convention : Reuss Voigt Hill
#
# Bulk Modulus (GPa) = 53.04548 66.70896 59.87722
# Shear Modulus (GPa) = 29.54113 1.76264 15.65188
#
# Velocity S-wave (km/s) = 3.85009 0.94046 2.80247
# Velocity P-wave (km/s) = 6.81039 5.88664 6.36530
#
# Compressibility (1/GPa) = 0.01885175
#
# Stress axis : x y z
#
# Youngs Moduli (GPa) = 135.49725 75.64085 44.97396
#
# Poissons Ratio (x) = 0.13693 0.23123
# Poissons Ratio (y) = 0.24529 0.22668
# Poissons Ratio (z) = 0.69664 0.38125
#
# Static dielectric constant tensor:
#      x y z
#    x 1.754830 0.000000 0.000000 
#    y 0.000000 1.710570 0.000000 
#    z 0.000000 0.000000 1.759360 
# 
# From -- ./inp_files/39179.got.cif
#   From: 2010.05.17/outbox.cif.g08.bks.cpg/sg64_20_cif.got.tgz:39179.got - 2010.06.03 16:29:19.
