data_PCOD9478183
_publ_section_title
;
Structure prediction by ZEFSAII (Michael W. Deem and Ramdas Pophale) SiO2 
 PCOD9478183
Probable space group: C M C A
;
_chemical_formula_sum "Si O2"
_cell_formula_units_Z 116
_cell_length_a 21.171337
_cell_length_b 13.188046
_cell_length_c 18.248524
_cell_angle_alpha 90.000000
_cell_angle_beta 90.000000
_cell_angle_gamma 90.000000
_cell_volume 5095.144222
_symmetry_space_group_name_H-M "C M C A"
_symmetry_group_IT_number 64
_symmetry_cell_setting 'orthorhombic'
loop_
_space_group_symop_operation_xyz
x,y,z
-x,1/2-y,1/2+z
x,-y,-z
-x,1/2+y,1/2-z
-x,-y,-z
x,1/2+y,1/2-z
-x,y,z
x,1/2-y,1/2+z
1/2+x,1/2+y,z
1/2-x,-y,1/2+z
1/2+x,1/2-y,-z
1/2-x,y,1/2-z
1/2-x,1/2-y,-z
1/2+x,y,1/2-z
1/2-x,1/2+y,z
1/2+x,-y,1/2+z
loop_
_atom_site_type_symbol
_atom_site_label
_atom_site_fract_x
_atom_site_fract_y
_atom_site_fract_z
Si Si1 0.573745 0.213244 0.956849
Si Si2 0.930088 0.817759 0.694364
Si Si3 0.213509 0.004991 0.912917
Si Si4 0.101076 0.350109 0.416726
Si Si5 0.571903 0.466779 0.356737
Si Si6 0.152126 0.313261 0.665224
Si Si7 0.000000 0.000000 0.000000
Si Si8 0.802240 0.402613 0.189469
O O1 0.500000 0.227417 0.975027
O O2 0.593687 0.279029 0.886110
O O3 0.583383 0.098324 0.930296
O O4 0.612635 0.262895 0.022237
O O5 0.925335 0.712211 0.651897
O O6 0.925310 0.912324 0.638206
O O7 0.876562 0.832791 0.754990
O O8 0.000000 0.825627 0.728615
O O9 0.186915 0.905314 0.873675
O O10 0.281060 0.033071 0.880612
O O11 0.164978 0.905065 0.106154
O O12 0.214214 0.000000 0.000000
O O13 0.055333 0.433467 0.454926
O O14 0.500000 0.440272 0.333891
O O15 0.624617 0.431098 0.298461
O O16 0.197587 0.216286 0.671816
O O17 0.750000 0.426573 0.250000
#
# Coordination Sequence:
#
# PCOD9478183 Si02
#       8
#    16  16  16  16  16  16   4  16
#     4  10  19  40  68  99 141 191 235 300 363 436
#     4  11  23  42  69 110 149 194 241 307 369 452
#     4  12  26  46  72 106 143 189 255 311 374 455
#     4  12  23  42  71 108 145 190 253 300 374 438
#     4   9  22  44  71 103 145 188 248 298 373 439
#     4  11  24  45  68 102 149 190 246 306 368 442
#     4  12  20  40  68 102 148 188 236 306 360 428
#     4  11  25  47  73 105 146 199 241 305 380 451
#
# _framework density 22.766776
#
# number of rings (size 3 to 8) (size 9 to 14) (size 15 to 20)
#    0.000    1.103    3.448    2.069    0.000    5.517 
#    6.207    4.828    0.000    0.000    0.000    0.000 
#    0.000    0.000    0.000    0.000    0.000    0.000 
#
# Total GULP energy -323646.979181 kJ/mol
# GULP energy per Si atom -5580.120331 kJ/mol
# Density = 2.271496 g / cm^3
# Si number density = 22.766776 Si / 1000 Ang^3
#
#
#
# Elastic Constant Matrix: (Units=GPa)
#
#
# Indices 1 2 3 4 5 6 
#
# 1 90.9983 40.7721 22.7501 0.0000 0.0000 0.0000
# 2 40.7721 117.4229 41.8242 0.0000 0.0000 0.0000
# 3 22.7501 41.8242 63.7556 0.0000 0.0000 0.0000
# 4 0.0000 0.0000 0.0000 13.0257 0.0000 0.0000
# 5 0.0000 0.0000 0.0000 0.0000 20.0110 0.0000
# 6 0.0000 0.0000 0.0000 0.0000 0.0000 25.2885
#
#
#
# Elastic Compliance Matrix: (Units=1/GPa)
#
#
# Indices 1 2 3 4 5 6 
#
# 1 0.013253 -0.003807 -0.002232 0.000000 0.000000 0.000000
# 2 -0.003807 0.012206 -0.006649 0.000000 0.000000 0.000000
# 3 -0.002232 -0.006649 0.020843 0.000000 0.000000 0.000000
# 4 0.000000 0.000000 0.000000 0.076771 0.000000 0.000000
# 5 0.000000 0.000000 0.000000 0.000000 0.049972 0.000000
# 6 0.000000 0.000000 0.000000 0.000000 0.000000 0.039544
#
#
# Mechanical properties :
#
#
# Convention : Reuss Voigt Hill
#
# Bulk Modulus (GPa) = 47.78509 53.65217 50.71863
# Shear Modulus (GPa) = 20.41314 22.78708 21.60011
#
# Velocity S-wave (km/s) = 2.99761 3.16712 3.08353
# Velocity P-wave (km/s) = 5.74590 6.08205 5.91637
#
# Compressibility (1/GPa) = 0.02092703
#
# Stress axis : x y z
#
# Youngs Moduli (GPa) = 75.45572 81.92470 47.97754
#
# Poissons Ratio (x) = 0.31187 0.10707
# Poissons Ratio (y) = 0.28724 0.31901
# Poissons Ratio (z) = 0.16840 0.54472
#
# Static dielectric constant tensor:
#      x y z
#    x 1.848770 0.000000 0.000000 
#    y 0.000000 1.860200 0.000000 
#    z 0.000000 0.000000 1.857700 
# 
# From -- ./inp_files/35103.got.cif
#   From: 2010.05.17/outbox.cif.g08.bks.cpg/sg64_18_cif.got.tgz:35103.got - 2010.06.03 16:29:19.
