data_PCOD9478077
_publ_section_title
;
Structure prediction by ZEFSAII (Michael W. Deem and Ramdas Pophale) SiO2 
 PCOD9478077
Probable space group: C M C A
;
_chemical_formula_sum "Si O2"
_cell_formula_units_Z 112
_cell_length_a 27.577308
_cell_length_b 11.838135
_cell_length_c 14.731285
_cell_angle_alpha 90.000000
_cell_angle_beta 90.000000
_cell_angle_gamma 90.000000
_cell_volume 4809.232680
_symmetry_space_group_name_H-M "C M C A"
_symmetry_group_IT_number 64
_symmetry_cell_setting 'orthorhombic'
loop_
_space_group_symop_operation_xyz
x,y,z
-x,1/2-y,1/2+z
x,-y,-z
-x,1/2+y,1/2-z
-x,-y,-z
x,1/2+y,1/2-z
-x,y,z
x,1/2-y,1/2+z
1/2+x,1/2+y,z
1/2-x,-y,1/2+z
1/2+x,1/2-y,-z
1/2-x,y,1/2-z
1/2-x,1/2-y,-z
1/2+x,y,1/2-z
1/2-x,1/2+y,z
1/2+x,-y,1/2+z
loop_
_atom_site_type_symbol
_atom_site_label
_atom_site_fract_x
_atom_site_fract_y
_atom_site_fract_z
Si Si1 0.555763 0.616044 0.396368
Si Si2 0.139434 0.756991 0.034577
Si Si3 0.606977 0.097672 0.835877
Si Si4 0.698002 0.087816 0.415700
Si Si5 0.555118 0.183561 0.317752
Si Si6 0.194142 0.450261 0.896946
Si Si7 0.605151 0.474265 0.137657
O O1 0.500000 0.629388 0.420101
O O2 0.590858 0.681654 0.464499
O O3 0.572544 0.486708 0.391130
O O4 0.561992 0.657705 0.290431
O O5 0.169388 0.673826 0.102277
O O6 0.117969 0.877397 0.066618
O O7 0.179783 0.793720 0.959517
O O8 0.660521 0.043815 0.847892
O O9 0.593116 0.085904 0.730894
O O10 0.594867 0.227528 0.851841
O O11 0.750408 0.074167 0.370550
O O12 0.654815 0.045284 0.352237
O O13 0.700534 0.000000 0.500000
O O14 0.500000 0.224384 0.329389
O O15 0.564037 0.068183 0.373789
O O16 0.193599 0.500000 0.000000
#
# Coordination Sequence:
#
# PCOD9478077 Si02
#       7
#    16  16  16  16  16  16  16
#     4   9  18  33  57  86 114 155 199 243 304 361
#     4  10  19  37  60  85 124 158 197 257 299 365
#     4  10  20  36  60  84 121 152 203 257 297 360
#     4   9  20  38  60  83 118 158 200 248 307 365
#     4  10  20  35  59  88 119 157 198 244 301 367
#     4  10  22  38  61  88 113 164 211 244 309 371
#     4  10  21  37  58  89 118 153 197 253 308 360
#
# _framework density 23.288537999999999
#
# number of rings (size 3 to 8) (size 9 to 14) (size 15 to 20)
#    0.000    2.286    1.429    0.857    2.000    1.714 
#    0.000    0.714    0.000    4.714    0.000    0.000 
#    0.000    0.000    0.000    0.000    0.000    0.000 
#
# Total GULP energy -312123.033914 kJ/mol
# GULP energy per Si atom -5573.625606 kJ/mol
# Density = 2.323553 g / cm^3
# Si number density = 23.288538 Si / 1000 Ang^3
#
#
#
# Elastic Constant Matrix: (Units=GPa)
#
#
# Indices 1 2 3 4 5 6 
#
# 1 121.2328 32.1000 -9.9736 0.0000 0.0000 0.0000
# 2 32.1000 120.9054 7.7884 0.0000 0.0000 0.0000
# 3 -9.9736 7.7884 33.2197 0.0000 0.0000 0.0000
# 4 0.0000 0.0000 0.0000 20.4125 0.0000 0.0000
# 5 0.0000 0.0000 0.0000 0.0000 137.5711 0.0000
# 6 0.0000 0.0000 0.0000 0.0000 0.0000 -14.4377
#
#
#
# Elastic Compliance Matrix: (Units=1/GPa)
#
#
# Indices 1 2 3 4 5 6 
#
# 1 0.009235 -0.002671 0.003399 0.000000 0.000000 0.000000
# 2 -0.002671 0.009170 -0.002952 0.000000 0.000000 0.000000
# 3 0.003399 -0.002952 0.031815 0.000000 0.000000 0.000000
# 4 0.000000 0.000000 0.000000 0.048990 0.000000 0.000000
# 5 0.000000 0.000000 0.000000 0.000000 0.007269 0.000000
# 6 0.000000 0.000000 0.000000 0.000000 0.000000 -0.069263
#
#
# Mechanical properties :
#
#
# Convention : Reuss Voigt Hill
#
# Bulk Modulus (GPa) = 21.84688 37.24306 29.54497
# Shear Modulus (GPa) = 87.84016 45.07204 66.45610
#
# Velocity S-wave (km/s) = 6.14818 4.40406 5.34770
# Velocity P-wave (km/s) = 7.73314 6.47207 7.13054
#
# Compressibility (1/GPa) = 0.04577312
#
# Stress axis : x y z
#
# Youngs Moduli (GPa) = 108.27866 109.04881 31.43157
#
# Poissons Ratio (x) = 0.29126 -0.10684
# Poissons Ratio (y) = 0.28920 0.09278
# Poissons Ratio (z) = -0.36804 0.32190
#
# Static dielectric constant tensor:
#      x y z
#    x 1.866110 0.000000 0.000000 
#    y 0.000000 1.906230 0.000000 
#    z 0.000000 0.000000 1.932200 
# 
# From -- ./inp_files/28404.got.cif
#   From: 2010.05.17/outbox.cif.g08.bks.cpg/sg64_15_cif.got.tgz:28404.got - 2010.06.03 16:29:19.
