data_PCOD9478533
_publ_section_title
;
Structure prediction by ZEFSAII (Michael W. Deem and Ramdas Pophale) SiO2 
 PCOD9478533
Probable space group: C M C A
;
_chemical_formula_sum "Si O2"
_cell_formula_units_Z 112
_cell_length_a 14.649518
_cell_length_b 14.489242
_cell_length_c 29.393611
_cell_angle_alpha 90.000000
_cell_angle_beta 90.000000
_cell_angle_gamma 90.000000
_cell_volume 6239.099966
_symmetry_space_group_name_H-M "C M C A"
_symmetry_group_IT_number 64
_symmetry_cell_setting 'orthorhombic'
loop_
_space_group_symop_operation_xyz
x,y,z
-x,1/2-y,1/2+z
x,-y,-z
-x,1/2+y,1/2-z
-x,-y,-z
x,1/2+y,1/2-z
-x,y,z
x,1/2-y,1/2+z
1/2+x,1/2+y,z
1/2-x,-y,1/2+z
1/2+x,1/2-y,-z
1/2-x,y,1/2-z
1/2-x,1/2-y,-z
1/2+x,y,1/2-z
1/2-x,1/2+y,z
1/2+x,-y,1/2+z
loop_
_atom_site_type_symbol
_atom_site_label
_atom_site_fract_x
_atom_site_fract_y
_atom_site_fract_z
Si Si1 0.108219 0.715823 0.415525
Si Si2 0.393702 0.392089 0.010856
Si Si3 0.771089 0.144713 0.904285
Si Si4 0.099019 0.908473 0.684865
Si Si5 0.599564 0.704179 0.823786
Si Si6 0.650729 0.531816 0.768682
Si Si7 0.712876 0.943877 0.638866
O O1 0.112827 0.670974 0.465906
O O2 0.172414 0.806715 0.410525
O O3 0.155392 0.636917 0.384401
O O4 0.000000 0.730460 0.405008
O O5 0.500000 0.393178 0.025932
O O6 0.329202 0.349952 0.049526
O O7 0.370211 0.500000 0.000000
O O8 0.822995 0.192728 0.861819
O O9 0.777432 0.036660 0.890875
O O10 0.105946 0.802548 0.700433
O O11 0.000000 0.921653 0.662757
O O12 0.106225 0.976334 0.727594
O O13 0.183300 0.919889 0.651303
O O14 0.500000 0.698693 0.846814
O O15 0.604660 0.623450 0.787094
O O16 0.750000 0.558698 0.750000
O O17 0.664916 0.469082 0.813254
#
# Coordination Sequence:
#
# PCOD9478533 Si02
#       7
#    16  16  16  16  16  16  16
#     4  11  23  39  60  90 122 154 197 241 292 353
#     4  10  20  36  62  92 118 153 197 243 293 348
#     4  11  21  38  62  86 120 153 192 244 296 349
#     4  10  20  37  56  80 115 150 191 240 291 349
#     4  10  20  34  58  86 111 147 195 238 287 348
#     4   9  20  35  55  80 112 152 190 238 289 344
#     4  10  21  38  58  84 115 154 192 240 294 349
#
# _framework density 17.951308000000001
#
# number of rings (size 3 to 8) (size 9 to 14) (size 15 to 20)
#    0.000    1.857    2.857    1.286    0.000    5.143 
#    2.571    0.000    0.000    0.429    0.000    0.000 
#    0.000    0.000    0.000    0.000    0.000    0.000 
#
# Total GULP energy -312061.425513 kJ/mol
# GULP energy per Si atom -5572.525456 kJ/mol
# Density = 1.791045 g / cm^3
# Si number density = 17.951308 Si / 1000 Ang^3
#
#
#
# Elastic Constant Matrix: (Units=GPa)
#
#
# Indices 1 2 3 4 5 6 
#
# 1 124.6508 37.6226 42.6882 0.0000 0.0000 0.0000
# 2 37.6226 41.1458 14.6644 0.0000 0.0000 0.0000
# 3 42.6882 14.6644 65.0929 0.0000 0.0000 0.0000
# 4 0.0000 0.0000 0.0000 13.3717 0.0000 0.0000
# 5 0.0000 0.0000 0.0000 0.0000 57.9186 0.0000
# 6 0.0000 0.0000 0.0000 0.0000 0.0000 19.4921
#
#
#
# Elastic Compliance Matrix: (Units=1/GPa)
#
#
# Indices 1 2 3 4 5 6 
#
# 1 0.013170 -0.009747 -0.006441 0.000000 0.000000 0.000000
# 2 -0.009747 0.033639 -0.001186 0.000000 0.000000 0.000000
# 3 -0.006441 -0.001186 0.019854 0.000000 0.000000 0.000000
# 4 0.000000 0.000000 0.000000 0.074785 0.000000 0.000000
# 5 0.000000 0.000000 0.000000 0.000000 0.017266 0.000000
# 6 0.000000 0.000000 0.000000 0.000000 0.000000 0.051303
#
#
# Mechanical properties :
#
#
# Convention : Reuss Voigt Hill
#
# Bulk Modulus (GPa) = 31.33382 46.76001 39.04692
# Shear Modulus (GPa) = 19.57692 27.21742 23.39717
#
# Velocity S-wave (km/s) = 3.30594 3.89804 3.61414
# Velocity P-wave (km/s) = 5.66261 6.80914 6.26217
#
# Compressibility (1/GPa) = 0.03191439
#
# Stress axis : x y z
#
# Youngs Moduli (GPa) = 75.92961 29.72762 50.36739
#
# Poissons Ratio (x) = 0.28975 0.32443
# Poissons Ratio (y) = 0.74006 0.05975
# Poissons Ratio (z) = 0.48908 0.03527
#
# Static dielectric constant tensor:
#      x y z
#    x 1.627160 0.000000 0.000000 
#    y 0.000000 1.630120 0.000000 
#    z 0.000000 0.000000 1.595700 
# 
# From -- ./inp_files/50042.got.cif
#   From: 2010.05.17/outbox.cif.g08.bks.cpg/sg64_26_cif.got.tgz:50042.got - 2010.06.03 16:29:19.
