data_PCOD9478137
_publ_section_title
;
Structure prediction by ZEFSAII (Michael W. Deem and Ramdas Pophale) SiO2 
 PCOD9478137
Probable space group: C M C A
;
_chemical_formula_sum "Si O2"
_cell_formula_units_Z 120
_cell_length_a 30.457764
_cell_length_b 15.850235
_cell_length_c 13.436721
_cell_angle_alpha 90.000000
_cell_angle_beta 90.000000
_cell_angle_gamma 90.000000
_cell_volume 6486.747937
_symmetry_space_group_name_H-M "C M C A"
_symmetry_group_IT_number 64
_symmetry_cell_setting 'orthorhombic'
loop_
_space_group_symop_operation_xyz
x,y,z
-x,1/2-y,1/2+z
x,-y,-z
-x,1/2+y,1/2-z
-x,-y,-z
x,1/2+y,1/2-z
-x,y,z
x,1/2-y,1/2+z
1/2+x,1/2+y,z
1/2-x,-y,1/2+z
1/2+x,1/2-y,-z
1/2-x,y,1/2-z
1/2-x,1/2-y,-z
1/2+x,y,1/2-z
1/2-x,1/2+y,z
1/2+x,-y,1/2+z
loop_
_atom_site_type_symbol
_atom_site_label
_atom_site_fract_x
_atom_site_fract_y
_atom_site_fract_z
Si Si1 0.095739 0.376596 0.991943
Si Si2 0.748385 0.500000 0.000000
Si Si3 0.802011 0.763524 0.754656
Si Si4 0.381849 0.958244 0.303950
Si Si5 0.948225 0.982950 0.353582
Si Si6 0.865879 0.289552 0.416431
Si Si7 0.678577 0.406798 0.376380
Si Si8 0.670308 0.601557 0.096421
O O1 0.076941 0.442247 0.911959
O O2 0.100294 0.283925 0.946126
O O3 0.065682 0.396556 0.088758
O O4 0.144542 0.397260 0.032367
O O5 0.778839 0.546981 0.919321
O O6 0.716087 0.435322 0.944146
O O7 0.750000 0.773580 0.750000
O O8 0.825556 0.746536 0.649445
O O9 0.810683 0.683742 0.827680
O O10 0.822702 0.846319 0.803163
O O11 0.384935 0.865384 0.350169
O O12 0.346879 0.955061 0.212264
O O13 0.428084 0.982027 0.255883
O O14 0.362399 0.024362 0.381902
O O15 0.000000 0.994728 0.358751
O O16 0.848121 0.333883 0.515339
#
# Coordination Sequence:
#
# PCOD9478137 Si02
#       8
#    16   8  16  16  16  16  16  16
#     4  10  19  38  65  90 119 159 199 250 309 359
#     4  12  24  34  58  84 118 168 220 260 296 350
#     4  11  25  36  55  83 123 167 218 269 297 340
#     4  10  22  40  60  88 122 165 196 246 309 370
#     4  10  21  41  69  97 121 147 193 250 310 374
#     4  11  22  41  61  87 122 166 207 249 305 364
#     4  10  22  37  56  84 124 159 211 262 304 345
#     4  12  24  40  58  86 121 173 213 252 304 362
#
# _framework density 18.499255000000002
#
# number of rings (size 3 to 8) (size 9 to 14) (size 15 to 20)
#    0.000    1.333    2.667    4.000    5.600    1.067 
#    0.000    1.333    0.000    2.400    0.000    0.000 
#    0.000    0.000    0.000    0.000    0.000    0.000 
#
# Total GULP energy -335034.998569 kJ/mol
# GULP energy per Si atom -5583.916643 kJ/mol
# Density = 1.845715 g / cm^3
# Si number density = 18.499255 Si / 1000 Ang^3
#
#
#
# Elastic Constant Matrix: (Units=GPa)
#
#
# Indices 1 2 3 4 5 6 
#
# 1 83.3143 44.9762 42.2585 0.0000 0.0000 0.0000
# 2 44.9762 107.9345 48.4065 0.0000 0.0000 0.0000
# 3 42.2585 48.4065 82.7173 0.0000 0.0000 0.0000
# 4 0.0000 0.0000 0.0000 31.6139 0.0000 0.0000
# 5 0.0000 0.0000 0.0000 0.0000 5.7638 0.0000
# 6 0.0000 0.0000 0.0000 0.0000 0.0000 10.4401
#
#
#
# Elastic Compliance Matrix: (Units=1/GPa)
#
#
# Indices 1 2 3 4 5 6 
#
# 1 0.017675 -0.004495 -0.006399 0.000000 0.000000 0.000000
# 2 -0.004495 0.013705 -0.005724 0.000000 0.000000 0.000000
# 3 -0.006399 -0.005724 0.018708 0.000000 0.000000 0.000000
# 4 0.000000 0.000000 0.000000 0.031632 0.000000 0.000000
# 5 0.000000 0.000000 0.000000 0.000000 0.173498 0.000000
# 6 0.000000 0.000000 0.000000 0.000000 0.000000 0.095785
#
#
# Mechanical properties :
#
#
# Convention : Reuss Voigt Hill
#
# Bulk Modulus (GPa) = 59.34032 60.58318 59.96175
# Shear Modulus (GPa) = 12.82523 18.78521 15.80522
#
# Velocity S-wave (km/s) = 2.63588 3.19008 2.92613
# Velocity P-wave (km/s) = 6.43511 6.81094 6.62569
#
# Compressibility (1/GPa) = 0.01685195
#
# Stress axis : x y z
#
# Youngs Moduli (GPa) = 56.57612 72.96591 53.45266
#
# Poissons Ratio (x) = 0.32801 0.34206
# Poissons Ratio (y) = 0.25433 0.30595
# Poissons Ratio (z) = 0.36205 0.41763
#
# Static dielectric constant tensor:
#      x y z
#    x 1.603000 0.000000 0.000000 
#    y 0.000000 1.654630 0.000000 
#    z 0.000000 0.000000 1.662610 
# 
# From -- ./inp_files/28503.got.cif
#   From: 2010.05.17/outbox.cif.g08.bks.cpg/sg64_15_cif.got.tgz:28503.got - 2010.06.03 16:29:19.
