data_PCOD9478164
_publ_section_title
;
Structure prediction by ZEFSAII (Michael W. Deem and Ramdas Pophale) SiO2 
 PCOD9478164
Probable space group: C M C A
;
_chemical_formula_sum "Si O2"
_cell_formula_units_Z 80
_cell_length_a 23.911286
_cell_length_b 14.020883
_cell_length_c 10.520500
_cell_angle_alpha 90.000000
_cell_angle_beta 90.000000
_cell_angle_gamma 90.000000
_cell_volume 3527.074881
_symmetry_space_group_name_H-M "C M C A"
_symmetry_group_IT_number 64
_symmetry_cell_setting 'orthorhombic'
loop_
_space_group_symop_operation_xyz
x,y,z
-x,1/2-y,1/2+z
x,-y,-z
-x,1/2+y,1/2-z
-x,-y,-z
x,1/2+y,1/2-z
-x,y,z
x,1/2-y,1/2+z
1/2+x,1/2+y,z
1/2-x,-y,1/2+z
1/2+x,1/2-y,-z
1/2-x,y,1/2-z
1/2-x,1/2-y,-z
1/2+x,y,1/2-z
1/2-x,1/2+y,z
1/2+x,-y,1/2+z
loop_
_atom_site_type_symbol
_atom_site_label
_atom_site_fract_x
_atom_site_fract_y
_atom_site_fract_z
Si Si1 0.378844 0.411971 0.099025
Si Si2 0.880115 0.571937 0.222567
Si Si3 0.189521 0.202893 0.092641
Si Si4 0.201551 0.393224 0.985589
Si Si5 0.500000 0.680239 0.936864
Si Si6 0.500000 0.148993 0.264449
O O1 0.363584 0.466629 0.228662
O O2 0.442294 0.374000 0.096728
O O3 0.376108 0.500000 0.000000
O O4 0.337584 0.331551 0.043096
O O5 0.850033 0.653437 0.305946
O O6 0.857431 0.591354 0.083282
O O7 0.945159 0.585691 0.245910
O O8 0.251332 0.159551 0.098341
O O9 0.192997 0.316594 0.096712
O O10 0.224585 0.500000 0.000000
O O11 0.500000 0.772921 0.847408
O O12 0.500000 0.691687 0.091367
#
# Coordination Sequence:
#
# PCOD9478164 Si02
#       6
#    16  16  16  16   8   8
#     4  10  19  39  68  89 122 176 236 265 324 411
#     4  11  23  41  65  95 127 175 227 277 326 411
#     4  10  22  41  66  90 129 177 218 268 337 410
#     4  11  24  41  62  98 134 164 217 284 341 388
#     4  12  22  41  66  99 135 181 224 282 330 405
#     4  12  25  40  68  99 135 179 232 270 342 401
#
# _framework density 22.681685000000002
#
# number of rings (size 3 to 8) (size 9 to 14) (size 15 to 20)
#    0.000    1.200    4.000    4.500    0.000    3.200 
#    0.000    4.500    0.000    0.000    0.000    0.000 
#    0.000    0.000    0.000    0.000    0.000    0.000 
#
# Total GULP energy -223430.702388 kJ/mol
# GULP energy per Si atom -5585.767560 kJ/mol
# Density = 2.263006 g / cm^3
# Si number density = 22.681685 Si / 1000 Ang^3
#
#
#
# Elastic Constant Matrix: (Units=GPa)
#
#
# Indices 1 2 3 4 5 6 
#
# 1 104.7118 27.7313 8.3919 0.0000 0.0000 0.0000
# 2 27.7313 143.8756 38.3173 0.0000 0.0000 0.0000
# 3 8.3919 38.3173 40.6112 0.0000 0.0000 0.0000
# 4 0.0000 0.0000 0.0000 22.2982 0.0000 0.0000
# 5 0.0000 0.0000 0.0000 0.0000 11.5281 0.0000
# 6 0.0000 0.0000 0.0000 0.0000 0.0000 22.8089
#
#
#
# Elastic Compliance Matrix: (Units=1/GPa)
#
#
# Indices 1 2 3 4 5 6 
#
# 1 0.010067 -0.001852 -0.000333 0.000000 0.000000 0.000000
# 2 -0.001852 0.009624 -0.008697 0.000000 0.000000 0.000000
# 3 -0.000333 -0.008697 0.032899 0.000000 0.000000 0.000000
# 4 0.000000 0.000000 0.000000 0.044847 0.000000 0.000000
# 5 0.000000 0.000000 0.000000 0.000000 0.086745 0.000000
# 6 0.000000 0.000000 0.000000 0.000000 0.000000 0.043842
#
#
# Mechanical properties :
#
#
# Convention : Reuss Voigt Hill
#
# Bulk Modulus (GPa) = 32.44126 48.67551 40.55839
# Shear Modulus (GPa) = 19.22612 25.64426 22.43519
#
# Velocity S-wave (km/s) = 2.91460 3.36611 3.14846
# Velocity P-wave (km/s) = 5.06561 6.05099 5.58009
#
# Compressibility (1/GPa) = 0.03082495
#
# Stress axis : x y z
#
# Youngs Moduli (GPa) = 99.33342 103.91048 30.39627
#
# Poissons Ratio (x) = 0.19241 0.01013
# Poissons Ratio (y) = 0.18393 0.26437
# Poissons Ratio (z) = 0.03310 0.90376
#
# Static dielectric constant tensor:
#      x y z
#    x 1.802770 0.000000 0.000000 
#    y 0.000000 1.854060 0.000000 
#    z 0.000000 0.000000 1.905530 
# 
# From -- ./inp_files/18116.got.cif
#   From: 2010.05.17/outbox.cif.g08.bks.cpg/sg64_10_cif.got.tgz:18116.got - 2010.06.03 16:29:19.
