data_PCOD9478723
_publ_section_title
;
Structure prediction by ZEFSAII (Michael W. Deem and Ramdas Pophale) SiO2 
 PCOD9478723
Probable space group: C M C A
;
_chemical_formula_sum "Si O2"
_cell_formula_units_Z 96
_cell_length_a 14.706636
_cell_length_b 13.792302
_cell_length_c 22.556385
_cell_angle_alpha 90.000000
_cell_angle_beta 90.000000
_cell_angle_gamma 90.000000
_cell_volume 4575.300256
_symmetry_space_group_name_H-M "C M C A"
_symmetry_group_IT_number 64
_symmetry_cell_setting 'orthorhombic'
loop_
_space_group_symop_operation_xyz
x,y,z
-x,1/2-y,1/2+z
x,-y,-z
-x,1/2+y,1/2-z
-x,-y,-z
x,1/2+y,1/2-z
-x,y,z
x,1/2-y,1/2+z
1/2+x,1/2+y,z
1/2-x,-y,1/2+z
1/2+x,1/2-y,-z
1/2-x,y,1/2-z
1/2-x,1/2-y,-z
1/2+x,y,1/2-z
1/2-x,1/2+y,z
1/2+x,-y,1/2+z
loop_
_atom_site_type_symbol
_atom_site_label
_atom_site_fract_x
_atom_site_fract_y
_atom_site_fract_z
Si Si1 0.850985 0.524888 0.229850
Si Si2 0.396484 0.128045 0.350084
Si Si3 0.599229 0.794930 0.837228
Si Si4 0.890609 0.728745 0.032459
Si Si5 0.352751 0.686785 0.724344
Si Si6 0.785318 0.899193 0.965600
O O1 0.750000 0.504612 0.250000
O O2 0.897758 0.564881 0.289453
O O3 0.844785 0.612314 0.183497
O O4 0.883544 0.420963 0.207150
O O5 0.500000 0.130006 0.373544
O O6 0.367657 0.235334 0.327421
O O7 0.325102 0.091285 0.398907
O O8 0.500000 0.839239 0.846681
O O9 0.623052 0.743748 0.898133
O O10 0.595455 0.722310 0.782725
O O11 0.819392 0.638597 0.027697
O O12 0.000000 0.713252 0.021878
O O13 0.849460 0.814929 0.993317
O O14 0.250000 0.693182 0.750000
O O15 0.795410 0.000000 0.000000
#
# Coordination Sequence:
#
# PCOD9478723 Si02
#       6
#    16  16  16  16  16  16
#     4  10  20  35  59  90 124 164 210 260 321 381
#     4  11  23  39  61  91 131 168 211 267 319 383
#     4  10  20  36  58  86 122 158 205 260 311 380
#     4  10  23  45  69  95 129 171 218 270 326 387
#     4  10  20  35  59  88 124 164 206 262 321 376
#     4  11  25  45  69  96 131 171 219 274 325 385
#
# _framework density 20.982230000000001
#
# number of rings (size 3 to 8) (size 9 to 14) (size 15 to 20)
#    0.000    1.667    0.000    6.500    2.333    4.333 
#    9.000    0.000    0.000    0.000    0.000    0.000 
#    0.000    0.000    0.000    0.000    0.000    0.000 
#
# Total GULP energy -267519.172115 kJ/mol
# GULP energy per Si atom -5573.316086 kJ/mol
# Density = 2.093447 g / cm^3
# Si number density = 20.982230 Si / 1000 Ang^3
#
#
#
# Elastic Constant Matrix: (Units=GPa)
#
#
# Indices 1 2 3 4 5 6 
#
# 1 134.4749 22.5056 21.8418 0.0000 0.0000 0.0000
# 2 22.5056 47.8625 -7.1137 0.0000 0.0000 0.0000
# 3 21.8418 -7.1137 66.0844 0.0000 0.0000 0.0000
# 4 0.0000 0.0000 0.0000 21.1574 0.0000 0.0000
# 5 0.0000 0.0000 0.0000 0.0000 21.6916 0.0000
# 6 0.0000 0.0000 0.0000 0.0000 0.0000 1386.2091
#
#
#
# Elastic Compliance Matrix: (Units=1/GPa)
#
#
# Indices 1 2 3 4 5 6 
#
# 1 0.008761 -0.004624 -0.003394 0.000000 0.000000 0.000000
# 2 -0.004624 0.023673 0.004077 0.000000 0.000000 0.000000
# 3 -0.003394 0.004077 0.016693 0.000000 0.000000 0.000000
# 4 0.000000 0.000000 0.000000 0.047265 0.000000 0.000000
# 5 0.000000 0.000000 0.000000 0.000000 0.046101 0.000000
# 6 0.000000 0.000000 0.000000 0.000000 0.000000 0.000721
#
#
# Mechanical properties :
#
#
# Convention : Reuss Voigt Hill
#
# Bulk Modulus (GPa) = 24.24506 35.87658 30.06082
# Shear Modulus (GPa) = 30.33153 299.89082 165.11118
#
# Velocity S-wave (km/s) = 3.80621 11.96814 8.88042
# Velocity P-wave (km/s) = 5.55845 14.42628 10.93192
#
# Compressibility (1/GPa) = 0.04124552
#
# Stress axis : x y z
#
# Youngs Moduli (GPa) = 114.13689 42.24149 59.90668
#
# Poissons Ratio (x) = 0.19533 0.20330
# Poissons Ratio (y) = 0.52778 -0.24422
# Poissons Ratio (z) = 0.38733 -0.17221
#
# Static dielectric constant tensor:
#      x y z
#    x 1.854040 0.000000 0.000000 
#    y 0.000000 1.751530 0.000000 
#    z 0.000000 0.000000 1.779240 
# 
# From -- ./inp_files/39246.got.cif
#   From: 2010.05.17/outbox.cif.g08.bks.cpg/sg64_20_cif.got.tgz:39246.got - 2010.06.03 16:29:19.
