data_PCOD9478770
_publ_section_title
;
Structure prediction by ZEFSAII (Michael W. Deem and Ramdas Pophale) SiO2 
 PCOD9478770
Probable space group: C M C A
;
_chemical_formula_sum "Si O2"
_cell_formula_units_Z 112
_cell_length_a 22.805745
_cell_length_b 11.050675
_cell_length_c 23.956940
_cell_angle_alpha 90.000000
_cell_angle_beta 90.000000
_cell_angle_gamma 90.000000
_cell_volume 6037.601094
_symmetry_space_group_name_H-M "C M C A"
_symmetry_group_IT_number 64
_symmetry_cell_setting 'orthorhombic'
loop_
_space_group_symop_operation_xyz
x,y,z
-x,1/2-y,1/2+z
x,-y,-z
-x,1/2+y,1/2-z
-x,-y,-z
x,1/2+y,1/2-z
-x,y,z
x,1/2-y,1/2+z
1/2+x,1/2+y,z
1/2-x,-y,1/2+z
1/2+x,1/2-y,-z
1/2-x,y,1/2-z
1/2-x,1/2-y,-z
1/2+x,y,1/2-z
1/2-x,1/2+y,z
1/2+x,-y,1/2+z
loop_
_atom_site_type_symbol
_atom_site_label
_atom_site_fract_x
_atom_site_fract_y
_atom_site_fract_z
Si Si1 0.836315 0.984120 0.696505
Si Si2 0.277862 0.184300 0.871905
Si Si3 0.706590 0.135619 0.992412
Si Si4 0.649259 0.885837 0.684128
Si Si5 0.652751 0.719134 0.397867
Si Si6 0.432433 0.598033 0.853407
Si Si7 0.567015 0.830935 0.224012
O O1 0.823743 0.940299 0.759165
O O2 0.842898 0.877126 0.652234
O O3 0.790311 0.083021 0.674174
O O4 0.898258 0.054375 0.700196
O O5 0.312397 0.146527 0.928121
O O6 0.302332 0.313051 0.850874
O O7 0.209808 0.196090 0.887075
O O8 0.750000 0.250000 0.000000
O O9 0.660492 0.155023 0.042307
O O10 0.732319 0.000000 0.000000
O O11 0.602418 0.786470 0.705264
O O12 0.612236 0.985210 0.650376
O O13 0.595318 0.800928 0.393216
O O14 0.500000 0.565756 0.866027
O O15 0.431545 0.654255 0.790880
O O16 0.500000 0.825961 0.205796
#
# Coordination Sequence:
#
# PCOD9478770 Si02
#       7
#    16  16  16  16  16  16  16
#     4  10  20  36  52  86 117 149 190 240 303 357
#     4  10  23  38  58  87 120 159 196 245 309 369
#     4  10  21  39  65  88 118 159 208 256 298 364
#     4  10  20  37  56  85 122 159 196 241 305 367
#     4  11  22  37  59  86 117 153 200 246 308 359
#     4  10  21  36  56  84 119 160 204 251 296 359
#     4   9  18  34  55  80 113 156 201 238 289 356
#
# _framework density 18.550415000000001
#
# number of rings (size 3 to 8) (size 9 to 14) (size 15 to 20)
#    0.000    2.000    2.857    0.429    2.000    2.857 
#    2.571    0.000    0.000    5.571    0.000    0.000 
#    0.000    0.000    0.000    0.000    0.000    0.000 
#
# Total GULP energy -312421.993162 kJ/mol
# GULP energy per Si atom -5578.964164 kJ/mol
# Density = 1.850819 g / cm^3
# Si number density = 18.550415 Si / 1000 Ang^3
#
#
#
# Elastic Constant Matrix: (Units=GPa)
#
#
# Indices 1 2 3 4 5 6 
#
# 1 59.4099 17.4041 29.3914 0.0000 0.0000 0.0000
# 2 17.4041 92.2214 34.6821 0.0000 0.0000 0.0000
# 3 29.3914 34.6821 79.1705 0.0000 0.0000 0.0000
# 4 0.0000 0.0000 0.0000 23.3350 0.0000 0.0000
# 5 0.0000 0.0000 0.0000 0.0000 17.0222 0.0000
# 6 0.0000 0.0000 0.0000 0.0000 0.0000 14.0228
#
#
#
# Elastic Compliance Matrix: (Units=1/GPa)
#
#
# Indices 1 2 3 4 5 6 
#
# 1 0.020733 -0.001219 -0.007163 0.000000 0.000000 0.000000
# 2 -0.001219 0.013054 -0.005266 0.000000 0.000000 0.000000
# 3 -0.007163 -0.005266 0.017597 0.000000 0.000000 0.000000
# 4 0.000000 0.000000 0.000000 0.042854 0.000000 0.000000
# 5 0.000000 0.000000 0.000000 0.000000 0.058747 0.000000
# 6 0.000000 0.000000 0.000000 0.000000 0.000000 0.071312
#
#
# Mechanical properties :
#
#
# Convention : Reuss Voigt Hill
#
# Bulk Modulus (GPa) = 41.51424 43.75079 42.63251
# Shear Modulus (GPa) = 19.25875 20.83095 20.04485
#
# Velocity S-wave (km/s) = 3.22558 3.35466 3.29075
# Velocity P-wave (km/s) = 6.02497 6.21619 6.12133
#
# Compressibility (1/GPa) = 0.02408812
#
# Stress axis : x y z
#
# Youngs Moduli (GPa) = 48.23230 76.60540 56.82776
#
# Poissons Ratio (x) = 0.09338 0.40706
# Poissons Ratio (y) = 0.05879 0.29925
# Poissons Ratio (z) = 0.34549 0.40340
#
# Static dielectric constant tensor:
#      x y z
#    x 1.632770 0.000000 0.000000 
#    y 0.000000 1.675630 0.000000 
#    z 0.000000 0.000000 1.657720 
# 
# From -- ./inp_files/41547.got.cif
#   From: 2010.05.17/outbox.cif.g08.bks.cpg/sg64_21_cif.got.tgz:41547.got - 2010.06.03 16:29:19.
