data_PCOD9478207
_publ_section_title
;
Structure prediction by ZEFSAII (Michael W. Deem and Ramdas Pophale) SiO2 
 PCOD9478207
Probable space group: C M C A
;
_chemical_formula_sum "Si O2"
_cell_formula_units_Z 68
_cell_length_a 20.354905
_cell_length_b 20.927452
_cell_length_c 8.137448
_cell_angle_alpha 90.000000
_cell_angle_beta 90.000000
_cell_angle_gamma 90.000000
_cell_volume 3466.359969
_symmetry_space_group_name_H-M "C M C A"
_symmetry_group_IT_number 64
_symmetry_cell_setting 'orthorhombic'
loop_
_space_group_symop_operation_xyz
x,y,z
-x,1/2-y,1/2+z
x,-y,-z
-x,1/2+y,1/2-z
-x,-y,-z
x,1/2+y,1/2-z
-x,y,z
x,1/2-y,1/2+z
1/2+x,1/2+y,z
1/2-x,-y,1/2+z
1/2+x,1/2-y,-z
1/2-x,y,1/2-z
1/2-x,1/2-y,-z
1/2+x,y,1/2-z
1/2-x,1/2+y,z
1/2+x,-y,1/2+z
loop_
_atom_site_type_symbol
_atom_site_label
_atom_site_fract_x
_atom_site_fract_y
_atom_site_fract_z
Si Si1 0.500000 0.344248 0.039067
Si Si2 0.761863 0.573386 0.943840
Si Si3 0.119450 0.426291 0.553679
Si Si4 0.899260 0.891881 0.567226
Si Si5 0.500000 0.500000 0.500000
Si Si6 0.000000 0.208355 0.333133
O O1 0.500000 0.284083 0.157486
O O2 0.434871 0.387296 0.047677
O O3 0.500000 0.314499 0.855134
O O4 0.750000 0.573888 0.750000
O O5 0.772847 0.500000 0.000000
O O6 0.694021 0.596101 0.025909
O O7 0.826529 0.611366 0.995535
O O8 0.116267 0.500000 0.500000
O O9 0.102968 0.418660 0.745358
O O10 0.937127 0.824725 0.580516
O O11 0.942993 0.944409 0.475055
#
# Coordination Sequence:
#
# PCOD9478207 Si02
#       6
#     8  16  16  16   4   8
#     4  10  21  41  57  84 116 148 197 235 288 342
#     4  11  21  34  54  86 119 150 189 236 291 343
#     4  10  21  37  60  86 116 150 189 243 291 334
#     4  10  20  38  56  84 120 147 193 228 292 337
#     4  10  20  30  58  78 112 150 178 224 278 330
#     4   9  22  39  59  81 113 155 187 240 282 343
#
# _framework density 19.617121000000001
#
# number of rings (size 3 to 8) (size 9 to 14) (size 15 to 20)
#    0.000    1.882    1.176    4.588    0.000    1.882 
#    4.235    1.176    0.000    0.000    0.000    0.000 
#    0.000    0.000    0.000    0.000    0.000    0.000 
#
# Total GULP energy -189424.434245 kJ/mol
# GULP energy per Si atom -5571.306890 kJ/mol
# Density = 1.957247 g / cm^3
# Si number density = 19.617121 Si / 1000 Ang^3
#
#
#
# Elastic Constant Matrix: (Units=GPa)
#
#
# Indices 1 2 3 4 5 6 
#
# 1 168.3491 50.3462 11.6160 0.0000 0.0000 0.0000
# 2 50.3462 59.4239 15.4369 0.0000 0.0000 0.0000
# 3 11.6160 15.4369 43.3648 0.0000 0.0000 0.0000
# 4 0.0000 0.0000 0.0000 23.7655 0.0000 0.0000
# 5 0.0000 0.0000 0.0000 0.0000 343.6623 0.0000
# 6 0.0000 0.0000 0.0000 0.0000 0.0000 16.9343
#
#
#
# Elastic Compliance Matrix: (Units=1/GPa)
#
#
# Indices 1 2 3 4 5 6 
#
# 1 0.007959 -0.006820 0.000296 0.000000 0.000000 0.000000
# 2 -0.006820 0.024387 -0.006854 0.000000 0.000000 0.000000
# 3 0.000296 -0.006854 0.025421 0.000000 0.000000 0.000000
# 4 0.000000 0.000000 0.000000 0.042078 0.000000 0.000000
# 5 0.000000 0.000000 0.000000 0.000000 0.002910 0.000000
# 6 0.000000 0.000000 0.000000 0.000000 0.000000 0.059052
#
#
# Mechanical properties :
#
#
# Convention : Reuss Voigt Hill
#
# Bulk Modulus (GPa) = 32.24786 47.32623 39.78705
# Shear Modulus (GPa) = 25.13811 89.78833 57.46322
#
# Velocity S-wave (km/s) = 3.58360 6.77272 5.41812
# Velocity P-wave (km/s) = 5.79631 9.23780 7.71149
#
# Compressibility (1/GPa) = 0.03100981
#
# Stress axis : x y z
#
# Youngs Moduli (GPa) = 125.63947 41.00503 39.33764
#
# Poissons Ratio (x) = 0.27967 -0.01164
# Poissons Ratio (y) = 0.85689 0.26964
# Poissons Ratio (z) = -0.03717 0.28107
#
# Static dielectric constant tensor:
#      x y z
#    x 1.699280 0.000000 0.000000 
#    y 0.000000 1.652460 0.000000 
#    z 0.000000 0.000000 1.823730 
# 
# From -- ./inp_files/6734.got.cif
#   From: 2010.05.17/outbox.cif.g08.bks.cpg/sg64_4_cif.got.tgz:6734.got - 2010.06.03 16:29:19.
