data_PCOD9478642
_publ_section_title
;
Structure prediction by ZEFSAII (Michael W. Deem and Ramdas Pophale) SiO2 
 PCOD9478642
Probable space group: C M C A
;
_chemical_formula_sum "Si O2"
_cell_formula_units_Z 64
_cell_length_a 21.287480
_cell_length_b 16.080553
_cell_length_c 7.382181
_cell_angle_alpha 90.000000
_cell_angle_beta 90.000000
_cell_angle_gamma 90.000000
_cell_volume 2527.027232
_symmetry_space_group_name_H-M "C M C A"
_symmetry_group_IT_number 64
_symmetry_cell_setting 'orthorhombic'
loop_
_space_group_symop_operation_xyz
x,y,z
-x,1/2-y,1/2+z
x,-y,-z
-x,1/2+y,1/2-z
-x,-y,-z
x,1/2+y,1/2-z
-x,y,z
x,1/2-y,1/2+z
1/2+x,1/2+y,z
1/2-x,-y,1/2+z
1/2+x,1/2-y,-z
1/2-x,y,1/2-z
1/2-x,1/2-y,-z
1/2+x,y,1/2-z
1/2-x,1/2+y,z
1/2+x,-y,1/2+z
loop_
_atom_site_type_symbol
_atom_site_label
_atom_site_fract_x
_atom_site_fract_y
_atom_site_fract_z
Si Si1 0.250000 0.134699 0.750000
Si Si2 0.132251 0.109826 0.232323
Si Si3 0.630573 0.223910 0.909704
Si Si4 0.000000 0.359131 0.138235
Si Si5 0.500000 0.542173 0.245903
Si Si6 0.286094 0.500000 0.500000
O O1 0.310890 0.186601 0.800428
O O2 0.255349 0.073639 0.577718
O O3 0.144954 0.178370 0.078605
O O4 0.128994 0.175325 0.399988
O O5 0.066618 0.070696 0.173011
O O6 0.172730 0.037239 0.332429
O O7 0.561580 0.197755 0.835218
O O8 0.000000 0.442305 0.257207
O O9 0.000000 0.407649 0.941968
#
# Coordination Sequence:
#
# PCOD9478642 Si02
#       6
#     8  16  16   8   8   8
#     4  10  22  38  56  82 108 144 184 226 276 330
#     4  10  20  35  56  83 109 144 183 224 273 327
#     4  10  21  35  55  81 111 142 183 225 273 324
#     4   9  17  34  55  80 108 140 180 224 264 319
#     4   9  15  30  57  79 106 141 178 218 264 319
#     4  10  22  37  56  79 106 142 186 224 276 330
#
# _framework density 25.326201999999999
#
# number of rings (size 3 to 8) (size 9 to 14) (size 15 to 20)
#    0.000    2.250    0.000    5.250    0.000    7.000 
#    0.000    0.000    0.000    2.250    0.000    0.000 
#    0.000    0.000    0.000    0.000    0.000    0.000 
#
# Total GULP energy -178527.752402 kJ/mol
# GULP energy per Si atom -5578.992263 kJ/mol
# Density = 2.526856 g / cm^3
# Si number density = 25.326202 Si / 1000 Ang^3
#
#
#
# Elastic Constant Matrix: (Units=GPa)
#
#
# Indices 1 2 3 4 5 6 
#
# 1 140.6139 76.2438 29.3408 0.0000 0.0000 0.0000
# 2 76.2438 152.4170 10.9958 0.0000 0.0000 0.0000
# 3 29.3408 10.9958 45.5629 0.0000 0.0000 0.0000
# 4 0.0000 0.0000 0.0000 41.8161 0.0000 0.0000
# 5 0.0000 0.0000 0.0000 0.0000 -32.8844 0.0000
# 6 0.0000 0.0000 0.0000 0.0000 0.0000 33.3490
#
#
#
# Elastic Compliance Matrix: (Units=1/GPa)
#
#
# Indices 1 2 3 4 5 6 
#
# 1 0.011138 -0.005144 -0.005931 0.000000 0.000000 0.000000
# 2 -0.005144 0.009053 0.001128 0.000000 0.000000 0.000000
# 3 -0.005931 0.001128 0.025495 0.000000 0.000000 0.000000
# 4 0.000000 0.000000 0.000000 0.023914 0.000000 0.000000
# 5 0.000000 0.000000 0.000000 0.000000 -0.030410 0.000000
# 6 0.000000 0.000000 0.000000 0.000000 0.000000 0.029986
#
#
# Mechanical properties :
#
#
# Convention : Reuss Voigt Hill
#
# Bulk Modulus (GPa) = 38.77279 63.52828 51.15054
# Shear Modulus (GPa) = 51.19337 23.25704 37.22520
#
# Velocity S-wave (km/s) = 4.50083 3.03363 3.83799
# Velocity P-wave (km/s) = 6.50788 6.11629 6.31513
#
# Compressibility (1/GPa) = 0.02579128
#
# Stress axis : x y z
#
# Youngs Moduli (GPa) = 89.77906 110.46391 39.22327
#
# Poissons Ratio (x) = 0.56822 0.23265
# Poissons Ratio (y) = 0.46181 -0.04423
# Poissons Ratio (z) = 0.53251 -0.12458
#
# Static dielectric constant tensor:
#      x y z
#    x 1.944400 0.000000 0.000000 
#    y 0.000000 1.986980 0.000000 
#    z 0.000000 0.000000 2.287890 
# 
# From -- ./inp_files/7839.got.cif
#   From: 2010.05.17/outbox.cif.g08.bks.cpg/sg64_4_cif.got.tgz:7839.got - 2010.06.03 16:29:19.
