data_PCOD9478213
_publ_section_title
;
Structure prediction by ZEFSAII (Michael W. Deem and Ramdas Pophale) SiO2 
 PCOD9478213
Probable space group: C M C A
;
_chemical_formula_sum "Si O2"
_cell_formula_units_Z 96
_cell_length_a 21.329378
_cell_length_b 8.552001
_cell_length_c 29.732777
_cell_angle_alpha 90.000000
_cell_angle_beta 90.000000
_cell_angle_gamma 90.000000
_cell_volume 5423.522016
_symmetry_space_group_name_H-M "C M C A"
_symmetry_group_IT_number 64
_symmetry_cell_setting 'orthorhombic'
loop_
_space_group_symop_operation_xyz
x,y,z
-x,1/2-y,1/2+z
x,-y,-z
-x,1/2+y,1/2-z
-x,-y,-z
x,1/2+y,1/2-z
-x,y,z
x,1/2-y,1/2+z
1/2+x,1/2+y,z
1/2-x,-y,1/2+z
1/2+x,1/2-y,-z
1/2-x,y,1/2-z
1/2-x,1/2-y,-z
1/2+x,y,1/2-z
1/2-x,1/2+y,z
1/2+x,-y,1/2+z
loop_
_atom_site_type_symbol
_atom_site_label
_atom_site_fract_x
_atom_site_fract_y
_atom_site_fract_z
Si Si1 0.931801 0.260647 0.375753
Si Si2 0.133890 0.467864 0.305193
Si Si3 0.316220 0.639766 0.273796
Si Si4 0.315101 0.967950 0.872932
Si Si5 0.182264 0.333212 0.609883
Si Si6 0.929722 0.532482 0.447318
O O1 0.920469 0.374883 0.332492
O O2 0.930665 0.372296 0.418980
O O3 0.000000 0.185494 0.371310
O O4 0.876462 0.136681 0.381450
O O5 0.130556 0.575833 0.260596
O O6 0.174218 0.318881 0.288775
O O7 0.162433 0.578368 0.343943
O O8 0.250000 0.627201 0.250000
O O9 0.311134 0.539346 0.318850
O O10 0.318829 0.147597 0.885929
O O11 0.253877 0.890933 0.895975
O O12 0.130221 0.378330 0.572894
O O13 0.922673 0.500000 0.500000
O O14 0.000000 0.604616 0.440239
#
# Coordination Sequence:
#
# PCOD9478213 Si02
#       6
#    16  16  16  16  16  16
#     4   9  20  39  58  80 114 152 191 237 292 346
#     4  10  20  31  51  80 108 146 188 235 280 328
#     4  11  19  29  50  81 110 147 191 234 271 327
#     4  11  22  35  56  84 119 155 193 239 287 342
#     4  11  21  36  54  86 119 147 190 238 290 342
#     4   9  19  39  66  89 113 149 189 232 288 357
#
# _framework density 17.700675
#
# number of rings (size 3 to 8) (size 9 to 14) (size 15 to 20)
#    0.000    1.833    1.667    4.500    0.000    0.667 
#    0.000    7.500    0.000    7.000    0.000    0.000 
#    0.000    0.000    0.000    0.000    0.000    0.000 
#
# Total GULP energy -267283.712014 kJ/mol
# GULP energy per Si atom -5568.410667 kJ/mol
# Density = 1.766039 g / cm^3
# Si number density = 17.700675 Si / 1000 Ang^3
#
#
#
# Elastic Constant Matrix: (Units=GPa)
#
#
# Indices 1 2 3 4 5 6 
#
# 1 144.9240 54.8567 50.7403 0.0000 0.0000 0.0000
# 2 54.8567 92.1772 30.1143 0.0000 0.0000 0.0000
# 3 50.7403 30.1143 98.1802 0.0000 0.0000 0.0000
# 4 0.0000 0.0000 0.0000 11.3454 0.0000 0.0000
# 5 0.0000 0.0000 0.0000 0.0000 6.0513 0.0000
# 6 0.0000 0.0000 0.0000 0.0000 0.0000 22.5203
#
#
#
# Elastic Compliance Matrix: (Units=1/GPa)
#
#
# Indices 1 2 3 4 5 6 
#
# 1 0.009991 -0.004734 -0.003712 0.000000 0.000000 0.000000
# 2 -0.004734 0.014299 -0.001940 0.000000 0.000000 0.000000
# 3 -0.003712 -0.001940 0.012699 0.000000 0.000000 0.000000
# 4 0.000000 0.000000 0.000000 0.088142 0.000000 0.000000
# 5 0.000000 0.000000 0.000000 0.000000 0.165254 0.000000
# 6 0.000000 0.000000 0.000000 0.000000 0.000000 0.044404
#
#
# Mechanical properties :
#
#
# Convention : Reuss Voigt Hill
#
# Bulk Modulus (GPa) = 61.65413 67.41156 64.53285
# Shear Modulus (GPa) = 13.85172 21.28806 17.56989
#
# Velocity S-wave (km/s) = 2.80045 3.47171 3.15399
# Velocity P-wave (km/s) = 6.73527 7.36459 7.05695
#
# Compressibility (1/GPa) = 0.01621951
#
# Stress axis : x y z
#
# Youngs Moduli (GPa) = 100.08558 69.93311 78.74899
#
# Poissons Ratio (x) = 0.33103 0.29230
# Poissons Ratio (y) = 0.47376 0.15275
# Poissons Ratio (z) = 0.37150 0.13565
#
# Static dielectric constant tensor:
#      x y z
#    x 1.648760 0.000000 0.000000 
#    y 0.000000 1.598610 0.000000 
#    z 0.000000 0.000000 1.610350 
# 
# From -- ./inp_files/50651.got.cif
#   From: 2010.05.17/outbox.cif.g08.bks.cpg/sg64_26_cif.got.tgz:50651.got - 2010.06.03 16:29:19.
