data_PCOD9478047
_publ_section_title
;
Structure prediction by ZEFSAII (Michael W. Deem and Ramdas Pophale) SiO2 
 PCOD9478047
Probable space group: C M C A
;
_chemical_formula_sum "Si O2"
_cell_formula_units_Z 72
_cell_length_a 25.567628
_cell_length_b 13.687128
_cell_length_c 9.096119
_cell_angle_alpha 90.000000
_cell_angle_beta 90.000000
_cell_angle_gamma 90.000000
_cell_volume 3183.163168
_symmetry_space_group_name_H-M "C M C A"
_symmetry_group_IT_number 64
_symmetry_cell_setting 'orthorhombic'
loop_
_space_group_symop_operation_xyz
x,y,z
-x,1/2-y,1/2+z
x,-y,-z
-x,1/2+y,1/2-z
-x,-y,-z
x,1/2+y,1/2-z
-x,y,z
x,1/2-y,1/2+z
1/2+x,1/2+y,z
1/2-x,-y,1/2+z
1/2+x,1/2-y,-z
1/2-x,y,1/2-z
1/2-x,1/2-y,-z
1/2+x,y,1/2-z
1/2-x,1/2+y,z
1/2+x,-y,1/2+z
loop_
_atom_site_type_symbol
_atom_site_label
_atom_site_fract_x
_atom_site_fract_y
_atom_site_fract_z
Si Si1 0.604069 0.765481 0.368506
Si Si2 0.441543 0.619148 0.141396
Si Si3 0.668404 0.945795 0.651429
Si Si4 0.750000 0.080930 0.750000
Si Si5 0.178402 0.713651 0.885904
O O1 0.573037 0.831996 0.484274
O O2 0.566050 0.702093 0.266362
O O3 0.643518 0.818780 0.255846
O O4 0.643115 0.700382 0.469787
O O5 0.500000 0.580175 0.142395
O O6 0.393826 0.546638 0.172963
O O7 0.681483 0.831074 0.637344
O O8 0.681960 0.000000 0.500000
O O9 0.702810 0.004263 0.764728
O O10 0.766589 0.158582 0.622865
#
# Coordination Sequence:
#
# PCOD9478047 Si02
#       5
#    16  16  16   8  16
#     4   8  18  36  57  87 120 152 197 245 295 352
#     4  10  19  36  62  90 121 157 200 247 297 357
#     4  10  23  38  56  90 122 153 202 246 296 360
#     4  12  22  36  62  86 120 164 200 248 298 346
#     4  10  21  38  59  86 123 159 198 245 295 356
#
# _framework density 22.619011
#
# number of rings (size 3 to 8) (size 9 to 14) (size 15 to 20)
#    0.000    2.667    0.000    4.000    0.000    7.556 
#    0.000    0.000    0.000    8.000    0.000    0.000 
#    0.000    0.000    0.000    0.000    0.000    0.222 
#
# Total GULP energy -200715.659887 kJ/mol
# GULP energy per Si atom -5575.434997 kJ/mol
# Density = 2.256753 g / cm^3
# Si number density = 22.619011 Si / 1000 Ang^3
#
#
#
# Elastic Constant Matrix: (Units=GPa)
#
#
# Indices 1 2 3 4 5 6 
#
# 1 130.0803 54.6422 21.2609 0.0000 0.0000 0.0000
# 2 54.6422 112.7750 7.8935 0.0000 0.0000 0.0000
# 3 21.2609 7.8935 87.8151 0.0000 0.0000 0.0000
# 4 0.0000 0.0000 0.0000 10.6281 0.0000 0.0000
# 5 0.0000 0.0000 0.0000 0.0000 9.8331 0.0000
# 6 0.0000 0.0000 0.0000 0.0000 0.0000 27.2946
#
#
#
# Elastic Compliance Matrix: (Units=1/GPa)
#
#
# Indices 1 2 3 4 5 6 
#
# 1 0.009988 -0.004700 -0.001996 0.000000 0.000000 0.000000
# 2 -0.004700 0.011135 0.000137 0.000000 0.000000 0.000000
# 3 -0.001996 0.000137 0.011858 0.000000 0.000000 0.000000
# 4 0.000000 0.000000 0.000000 0.094090 0.000000 0.000000
# 5 0.000000 0.000000 0.000000 0.000000 0.101698 0.000000
# 6 0.000000 0.000000 0.000000 0.000000 0.000000 0.036637
#
#
# Mechanical properties :
#
#
# Convention : Reuss Voigt Hill
#
# Bulk Modulus (GPa) = 50.34188 55.36261 52.85224
# Shear Modulus (GPa) = 17.53499 26.00942 21.77220
#
# Velocity S-wave (km/s) = 2.78732 3.39468 3.10588
# Velocity P-wave (km/s) = 5.71521 6.31621 6.02321
#
# Compressibility (1/GPa) = 0.01986418
#
# Stress axis : x y z
#
# Youngs Moduli (GPa) = 100.12084 89.80901 84.32818
#
# Poissons Ratio (x) = 0.42208 0.16830
# Poissons Ratio (y) = 0.47054 -0.01155
# Poissons Ratio (z) = 0.19981 -0.01230
#
# Static dielectric constant tensor:
#      x y z
#    x 1.902140 0.000000 0.000000 
#    y 0.000000 1.838300 0.000000 
#    z 0.000000 0.000000 1.904160 
# 
# From -- ./inp_files/10022.got.cif
#   From: 2010.05.17/outbox.cif.g08.bks.cpg/sg64_6_cif.got.tgz:10022.got - 2010.06.03 16:29:19.
