data_PCOD9478066
_publ_section_title
;
Structure prediction by ZEFSAII (Michael W. Deem and Ramdas Pophale) SiO2 
 PCOD9478066
Probable space group: C M C A
;
_chemical_formula_sum "Si O2"
_cell_formula_units_Z 96
_cell_length_a 13.841338
_cell_length_b 16.304661
_cell_length_c 22.552553
_cell_angle_alpha 90.000000
_cell_angle_beta 90.000000
_cell_angle_gamma 90.000000
_cell_volume 5089.622360
_symmetry_space_group_name_H-M "C M C A"
_symmetry_group_IT_number 64
_symmetry_cell_setting 'orthorhombic'
loop_
_space_group_symop_operation_xyz
x,y,z
-x,1/2-y,1/2+z
x,-y,-z
-x,1/2+y,1/2-z
-x,-y,-z
x,1/2+y,1/2-z
-x,y,z
x,1/2-y,1/2+z
1/2+x,1/2+y,z
1/2-x,-y,1/2+z
1/2+x,1/2-y,-z
1/2-x,y,1/2-z
1/2-x,1/2-y,-z
1/2+x,y,1/2-z
1/2-x,1/2+y,z
1/2+x,-y,1/2+z
loop_
_atom_site_type_symbol
_atom_site_label
_atom_site_fract_x
_atom_site_fract_y
_atom_site_fract_z
Si Si1 0.390487 0.736529 0.053959
Si Si2 0.781459 0.376116 0.993424
Si Si3 0.615822 0.577566 0.707899
Si Si4 0.234081 0.994607 0.401017
Si Si5 0.387414 0.241423 0.303921
Si Si6 0.115880 0.058064 0.191089
O O1 0.500000 0.708741 0.042599
O O2 0.307543 0.675793 0.032013
O O3 0.380794 0.748824 0.124609
O O4 0.366200 0.819760 0.019017
O O5 0.815290 0.434248 0.940044
O O6 0.741929 0.427482 0.049290
O O7 0.500000 0.580518 0.698751
O O8 0.666760 0.544405 0.649014
O O9 0.648888 0.671283 0.720751
O O10 0.634224 0.512072 0.760003
O O11 0.326621 0.031648 0.367468
O O12 0.500000 0.238540 0.286540
O O13 0.350366 0.149698 0.289580
O O14 0.000000 0.061971 0.180575
#
# Coordination Sequence:
#
# PCOD9478066 Si02
#       6
#    16  16  16  16  16  16
#     4  10  19  37  58  81 114 152 192 233 281 339
#     4  10  22  34  56  86 116 150 188 232 282 347
#     4  10  21  38  60  84 112 151 197 240 288 343
#     4  11  21  36  54  84 119 149 186 236 288 339
#     4   9  17  35  60  81 108 149 191 235 286 336
#     4  10  21  38  60  84 112 151 197 240 288 343
#
# _framework density 18.861910999999999
#
# number of rings (size 3 to 8) (size 9 to 14) (size 15 to 20)
#    0.000    2.000    3.333    0.500    0.000    1.333 
#    0.000   10.000    0.000    2.000    0.000    0.000 
#    0.000    0.000    0.000    0.000    0.000    0.000 
#
# Total GULP energy -267541.184924 kJ/mol
# GULP energy per Si atom -5573.774686 kJ/mol
# Density = 1.881898 g / cm^3
# Si number density = 18.861911 Si / 1000 Ang^3
#
#
#
# Elastic Constant Matrix: (Units=GPa)
#
#
# Indices 1 2 3 4 5 6 
#
# 1 52.1561 -0.3083 8.9380 0.0000 0.0000 0.0000
# 2 -0.3083 101.4810 26.3828 0.0000 0.0000 0.0000
# 3 8.9380 26.3828 58.6088 0.0000 0.0000 0.0000
# 4 0.0000 0.0000 0.0000 33.9892 0.0000 0.0000
# 5 0.0000 0.0000 0.0000 0.0000 24.0514 0.0000
# 6 0.0000 0.0000 0.0000 0.0000 0.0000 1.4787
#
#
#
# Elastic Compliance Matrix: (Units=1/GPa)
#
#
# Indices 1 2 3 4 5 6 
#
# 1 0.019769 0.000956 -0.003445 0.000000 0.000000 0.000000
# 2 0.000956 0.011206 -0.005190 0.000000 0.000000 0.000000
# 3 -0.003445 -0.005190 0.019924 0.000000 0.000000 0.000000
# 4 0.000000 0.000000 0.000000 0.029421 0.000000 0.000000
# 5 0.000000 0.000000 0.000000 0.000000 0.041578 0.000000
# 6 0.000000 0.000000 0.000000 0.000000 0.000000 0.676257
#
#
# Mechanical properties :
#
#
# Convention : Reuss Voigt Hill
#
# Bulk Modulus (GPa) = 28.13704 31.36344 29.75024
# Shear Modulus (GPa) = 6.05795 23.71941 14.88868
#
# Velocity S-wave (km/s) = 1.79408 3.55001 2.81259
# Velocity P-wave (km/s) = 4.38650 5.78511 5.13366
#
# Compressibility (1/GPa) = 0.03554034
#
# Stress axis : x y z
#
# Youngs Moduli (GPa) = 50.58359 89.23536 50.19048
#
# Poissons Ratio (x) = -0.08528 0.17291
# Poissons Ratio (y) = -0.04834 0.26050
# Poissons Ratio (z) = 0.17427 0.46316
#
# Static dielectric constant tensor:
#      x y z
#    x 1.628900 0.000000 0.000000 
#    y 0.000000 1.727140 0.000000 
#    z 0.000000 0.000000 1.620170 
# 
# From -- ./inp_files/39218.got.cif
#   From: 2010.05.17/outbox.cif.g08.bks.cpg/sg64_20_cif.got.tgz:39218.got - 2010.06.03 16:29:19.
