data_PCOD9478344
_publ_section_title
;
Structure prediction by ZEFSAII (Michael W. Deem and Ramdas Pophale) SiO2 
 PCOD9478344
Probable space group: C M C A
;
_chemical_formula_sum "Si O2"
_cell_formula_units_Z 88
_cell_length_a 12.739713
_cell_length_b 11.363660
_cell_length_c 29.691036
_cell_angle_alpha 90.000000
_cell_angle_beta 90.000000
_cell_angle_gamma 90.000000
_cell_volume 4298.364365
_symmetry_space_group_name_H-M "C M C A"
_symmetry_group_IT_number 64
_symmetry_cell_setting 'orthorhombic'
loop_
_space_group_symop_operation_xyz
x,y,z
-x,1/2-y,1/2+z
x,-y,-z
-x,1/2+y,1/2-z
-x,-y,-z
x,1/2+y,1/2-z
-x,y,z
x,1/2-y,1/2+z
1/2+x,1/2+y,z
1/2-x,-y,1/2+z
1/2+x,1/2-y,-z
1/2-x,y,1/2-z
1/2-x,1/2-y,-z
1/2+x,y,1/2-z
1/2-x,1/2+y,z
1/2+x,-y,1/2+z
loop_
_atom_site_type_symbol
_atom_site_label
_atom_site_fract_x
_atom_site_fract_y
_atom_site_fract_z
Si Si1 0.750000 0.120298 0.750000
Si Si2 0.615432 0.753601 0.679068
Si Si3 0.310067 0.406372 0.395815
Si Si4 0.373818 0.517541 0.834576
Si Si5 0.825445 0.594029 0.036730
Si Si6 0.879292 0.720436 0.470868
O O1 0.676350 0.048492 0.714667
O O2 0.684073 0.206703 0.780963
O O3 0.500000 0.774297 0.696905
O O4 0.618796 0.650072 0.642616
O O5 0.647405 0.878322 0.658016
O O6 0.194975 0.415872 0.372767
O O7 0.343808 0.533217 0.415377
O O8 0.326198 0.314548 0.436616
O O9 0.500000 0.539380 0.836263
O O10 0.699737 0.611563 0.031579
O O11 0.864557 0.500000 0.000000
O O12 0.873613 0.716808 0.019891
O O13 0.000000 0.697181 0.458840
#
# Coordination Sequence:
#
# PCOD9478344 Si02
#       6
#     8  16  16  16  16  16
#     4  10  20  36  58  82 110 138 176 222 266 320
#     4  10  20  34  55  80 106 141 179 216 266 322
#     4  10  20  33  53  79 108 140 180 222 263 316
#     4  10  21  37  57  81 111 144 177 220 270 319
#     4   9  20  36  54  80 110 140 182 230 270 315
#     4  10  20  36  57  79 107 144 182 223 274 325
#
# _framework density 20.472902999999999
#
# number of rings (size 3 to 8) (size 9 to 14) (size 15 to 20)
#    0.000    2.182    0.000    2.727    0.000    6.545 
#    0.000    7.273    0.000   34.909    0.000    0.000 
#    0.000    0.000    0.000    0.000    0.000    0.000 
#
# Total GULP energy -245023.114641 kJ/mol
# GULP energy per Si atom -5568.707151 kJ/mol
# Density = 2.042631 g / cm^3
# Si number density = 20.472903 Si / 1000 Ang^3
#
#
#
# Elastic Constant Matrix: (Units=GPa)
#
#
# Indices 1 2 3 4 5 6 
#
# 1 94.5248 24.5982 27.4432 0.0000 0.0000 0.0000
# 2 24.5982 43.3886 1.6741 0.0000 0.0000 0.0000
# 3 27.4432 1.6741 67.6160 0.0000 0.0000 0.0000
# 4 0.0000 0.0000 0.0000 25.8318 0.0000 0.0000
# 5 0.0000 0.0000 0.0000 0.0000 -4.6956 0.0000
# 6 0.0000 0.0000 0.0000 0.0000 0.0000 21.7511
#
#
#
# Elastic Compliance Matrix: (Units=1/GPa)
#
#
# Indices 1 2 3 4 5 6 
#
# 1 0.014247 -0.007862 -0.005588 0.000000 0.000000 0.000000
# 2 -0.007862 0.027408 0.002512 0.000000 0.000000 0.000000
# 3 -0.005588 0.002512 0.016995 0.000000 0.000000 0.000000
# 4 0.000000 0.000000 0.000000 0.038712 0.000000 0.000000
# 5 0.000000 0.000000 0.000000 0.000000 -0.212965 0.000000
# 6 0.000000 0.000000 0.000000 0.000000 0.000000 0.045975
#
#
# Mechanical properties :
#
#
# Convention : Reuss Voigt Hill
#
# Bulk Modulus (GPa) = 27.19205 34.77336 30.98271
# Shear Modulus (GPa) = -140.86391 18.69837 -61.08277
#
# Velocity S-wave (km/s) = -8.30388 3.02540 -5.46815
# Velocity P-wave (km/s) = 8.86727 5.40611 4.97003
#
# Compressibility (1/GPa) = 0.03677546
#
# Stress axis : x y z
#
# Youngs Moduli (GPa) = 70.18825 36.48627 58.84027
#
# Poissons Ratio (x) = 0.28684 0.32880
# Poissons Ratio (y) = 0.55179 -0.14782
# Poissons Ratio (z) = 0.39221 -0.09166
#
# Static dielectric constant tensor:
#      x y z
#    x 1.656860 0.000000 0.000000 
#    y 0.000000 1.768920 0.000000 
#    z 0.000000 0.000000 1.802680 
# 
# From -- ./inp_files/52669.got.cif
#   From: 2010.05.17/outbox.cif.g08.bks.cpg/sg64_27_cif.got.tgz:52669.got - 2010.06.03 16:29:19.
