data_PCOD9478295
_publ_section_title
;
Structure prediction by ZEFSAII (Michael W. Deem and Ramdas Pophale) SiO2 
 PCOD9478295
Probable space group: C M C A
;
_chemical_formula_sum "Si O2"
_cell_formula_units_Z 96
_cell_length_a 10.509003
_cell_length_b 14.366677
_cell_length_c 29.090808
_cell_angle_alpha 90.000000
_cell_angle_beta 90.000000
_cell_angle_gamma 90.000000
_cell_volume 4392.114241
_symmetry_space_group_name_H-M "C M C A"
_symmetry_group_IT_number 64
_symmetry_cell_setting 'orthorhombic'
loop_
_space_group_symop_operation_xyz
x,y,z
-x,1/2-y,1/2+z
x,-y,-z
-x,1/2+y,1/2-z
-x,-y,-z
x,1/2+y,1/2-z
-x,y,z
x,1/2-y,1/2+z
1/2+x,1/2+y,z
1/2-x,-y,1/2+z
1/2+x,1/2-y,-z
1/2-x,y,1/2-z
1/2-x,1/2-y,-z
1/2+x,y,1/2-z
1/2-x,1/2+y,z
1/2+x,-y,1/2+z
loop_
_atom_site_type_symbol
_atom_site_label
_atom_site_fract_x
_atom_site_fract_y
_atom_site_fract_z
Si Si1 0.738282 0.032392 0.645151
Si Si2 0.232875 0.240595 0.358409
Si Si3 0.355008 0.756168 0.459457
Si Si4 0.500000 0.964552 0.188622
Si Si5 0.500000 0.262423 0.814539
Si Si6 0.856418 0.977455 0.048531
Si Si7 0.000000 0.035747 0.793388
Si Si8 0.000000 0.262199 0.792527
O O1 0.736412 0.145662 0.642962
O O2 0.713365 0.994381 0.594521
O O3 0.624613 0.006196 0.679108
O O4 0.873369 0.003255 0.663944
O O5 0.194496 0.215732 0.410725
O O6 0.371920 0.209509 0.341388
O O7 0.125069 0.211750 0.321716
O O8 0.500000 0.722600 0.470587
O O9 0.250000 0.750000 0.500000
O O10 0.367438 0.866405 0.450448
O O11 0.500000 0.851223 0.187194
O O12 0.500000 0.994999 0.241151
O O13 0.500000 0.291800 0.760868
O O14 0.000000 0.018043 0.048539
O O15 0.792996 0.000000 0.000000
O O16 0.000000 0.148757 0.792113
#
# Coordination Sequence:
#
# PCOD9478295 Si02
#       8
#    16  16  16   8   8  16   8   8
#     4   9  15  25  39  59  87 119 149 183 229 272
#     4   9  16  26  39  59  89 120 149 185 230 276
#     4  10  20  33  50  70  95 126 159 198 239 279
#     4   9  16  22  33  58  91 119 145 179 224 281
#     4   9  16  22  37  60  85 121 151 179 222 281
#     4   9  17  32  52  70  91 123 163 198 230 275
#     4   9  14  22  37  56  83 121 153 177 218 277
#     4   9  14  24  37  56  87 119 151 181 224 279
#
# _framework density 21.857354000000001
#
# number of rings (size 3 to 8) (size 9 to 14) (size 15 to 20)
#    0.000    2.833    1.667    1.000    1.167    4.000 
#    1.500    0.417    0.000    0.000    0.000    0.000 
#    0.000    8.000    0.000    0.000    0.000    0.000 
#
# Total GULP energy -268026.621652 kJ/mol
# GULP energy per Si atom -5583.887951 kJ/mol
# Density = 2.180761 g / cm^3
# Si number density = 21.857354 Si / 1000 Ang^3
#
#
#
# Elastic Constant Matrix: (Units=GPa)
#
#
# Indices 1 2 3 4 5 6 
#
# 1 232.9843 -1.8440 145.0228 0.0000 0.0000 0.0000
# 2 -1.8440 63.4643 -6.3546 0.0000 0.0000 0.0000
# 3 145.0228 -6.3546 240.0282 0.0000 0.0000 0.0000
# 4 0.0000 0.0000 0.0000 10.6486 0.0000 0.0000
# 5 0.0000 0.0000 0.0000 0.0000 -48.0564 0.0000
# 6 0.0000 0.0000 0.0000 0.0000 0.0000 -5.6319
#
#
#
# Elastic Compliance Matrix: (Units=1/GPa)
#
#
# Indices 1 2 3 4 5 6 
#
# 1 0.006882 -0.000217 -0.004164 0.000000 0.000000 0.000000
# 2 -0.000217 0.015806 0.000550 0.000000 0.000000 0.000000
# 3 -0.004164 0.000550 0.006697 0.000000 0.000000 0.000000
# 4 0.000000 0.000000 0.000000 0.093909 0.000000 0.000000
# 5 0.000000 0.000000 0.000000 0.000000 -0.020809 0.000000
# 6 0.000000 0.000000 0.000000 0.000000 0.000000 -0.177561
#
#
# Mechanical properties :
#
#
# Convention : Reuss Voigt Hill
#
# Bulk Modulus (GPa) = 46.03699 90.01392 68.02545
# Shear Modulus (GPa) = -83.09368 18.03557 -32.52906
#
# Velocity S-wave (km/s) = -6.17243 2.87566 -3.86196
# Velocity P-wave (km/s) = 5.44888 7.23172 3.36210
#
# Compressibility (1/GPa) = 0.02172166
#
# Stress axis : x y z
#
# Youngs Moduli (GPa) = 145.30001 63.26871 149.33044
#
# Poissons Ratio (x) = 0.01373 0.62181
# Poissons Ratio (y) = 0.03152 -0.08206
# Poissons Ratio (z) = 0.60503 -0.03477
#
# Static dielectric constant tensor:
#      x y z
#    x 1.756700 0.000000 0.000000 
#    y 0.000000 1.889610 0.000000 
#    z 0.000000 0.000000 1.762200 
# 
# From -- ./inp_files/44373.got.cif
#   From: 2010.05.17/outbox.cif.g08.bks.cpg/sg64_23_cif.got.tgz:44373.got - 2010.06.03 16:29:19.
