data_PCOD9478056
_publ_section_title
;
Structure prediction by ZEFSAII (Michael W. Deem and Ramdas Pophale) SiO2 
 PCOD9478056
Probable space group: C M C A
;
_chemical_formula_sum "Si O2"
_cell_formula_units_Z 96
_cell_length_a 14.015004
_cell_length_b 15.733488
_cell_length_c 20.281459
_cell_angle_alpha 90.000000
_cell_angle_beta 90.000000
_cell_angle_gamma 90.000000
_cell_volume 4472.161033
_symmetry_space_group_name_H-M "C M C A"
_symmetry_group_IT_number 64
_symmetry_cell_setting 'orthorhombic'
loop_
_space_group_symop_operation_xyz
x,y,z
-x,1/2-y,1/2+z
x,-y,-z
-x,1/2+y,1/2-z
-x,-y,-z
x,1/2+y,1/2-z
-x,y,z
x,1/2-y,1/2+z
1/2+x,1/2+y,z
1/2-x,-y,1/2+z
1/2+x,1/2-y,-z
1/2-x,y,1/2-z
1/2-x,1/2-y,-z
1/2+x,y,1/2-z
1/2-x,1/2+y,z
1/2+x,-y,1/2+z
loop_
_atom_site_type_symbol
_atom_site_label
_atom_site_fract_x
_atom_site_fract_y
_atom_site_fract_z
Si Si1 0.614893 0.028922 0.799290
Si Si2 0.104092 0.559345 0.063199
Si Si3 0.391400 0.960225 0.427503
Si Si4 0.775678 0.337439 0.032203
Si Si5 0.884464 0.597727 0.315756
Si Si6 0.884881 0.291161 0.161962
O O1 0.500000 0.033178 0.792688
O O2 0.648030 0.127089 0.794515
O O3 0.633095 0.992530 0.872355
O O4 0.646609 0.958773 0.746710
O O5 0.000000 0.600416 0.077115
O O6 0.090726 0.500000 0.000000
O O7 0.185446 0.616142 0.032948
O O8 0.500000 0.930602 0.410066
O O9 0.311754 0.887183 0.433139
O O10 0.395779 0.000000 0.500000
O O11 0.364889 0.036366 0.377844
O O12 0.854028 0.317786 0.088217
O O13 0.750000 0.250000 0.000000
O O14 0.849101 0.695557 0.320982
O O15 0.000000 0.605069 0.312489
O O16 0.000000 0.288682 0.164976
#
# Coordination Sequence:
#
# PCOD9478056 Si02
#       6
#    16  16  16  16  16  16
#     4   9  18  36  65  97 126 163 205 258 325 380
#     4  10  19  36  64  94 124 159 202 259 323 380
#     4  10  22  41  64  87 122 169 218 266 320 378
#     4  12  24  37  61  91 131 166 214 265 318 377
#     4   9  19  39  66  93 126 170 213 260 320 387
#     4  10  20  38  66  96 127 165 211 258 321 390
#
# _framework density 21.466132999999999
#
# number of rings (size 3 to 8) (size 9 to 14) (size 15 to 20)
#    0.000    2.000    1.667    2.000    0.000    2.667 
#    3.000    0.833    0.000    0.000    0.000    0.000 
#    0.000    0.000    0.000    0.000    0.000    0.000 
#
# Total GULP energy -267565.138149 kJ/mol
# GULP energy per Si atom -5574.273711 kJ/mol
# Density = 2.141727 g / cm^3
# Si number density = 21.466133 Si / 1000 Ang^3
#
#
#
# Elastic Constant Matrix: (Units=GPa)
#
#
# Indices 1 2 3 4 5 6 
#
# 1 83.5270 57.8723 13.5337 0.0000 0.0000 0.0000
# 2 57.8723 200.6252 81.8546 0.0000 0.0000 0.0000
# 3 13.5337 81.8546 131.0534 0.0000 0.0000 0.0000
# 4 0.0000 0.0000 0.0000 26.2173 0.0000 0.0000
# 5 0.0000 0.0000 0.0000 0.0000 -31.2818 0.0000
# 6 0.0000 0.0000 0.0000 0.0000 0.0000 23.7913
#
#
#
# Elastic Compliance Matrix: (Units=1/GPa)
#
#
# Indices 1 2 3 4 5 6 
#
# 1 0.015199 -0.005024 0.001569 0.000000 0.000000 0.000000
# 2 -0.005024 0.008350 -0.004696 0.000000 0.000000 0.000000
# 3 0.001569 -0.004696 0.010402 0.000000 0.000000 0.000000
# 4 0.000000 0.000000 0.000000 0.038143 0.000000 0.000000
# 5 0.000000 0.000000 0.000000 0.000000 -0.031967 0.000000
# 6 0.000000 0.000000 0.000000 0.000000 0.000000 0.042032
#
#
# Mechanical properties :
#
#
# Convention : Reuss Voigt Hill
#
# Bulk Modulus (GPa) = 56.66841 80.19189 68.43015
# Shear Modulus (GPa) = 47.91808 21.20835 34.56322
#
# Velocity S-wave (km/s) = 4.72981 3.14664 4.01699
# Velocity P-wave (km/s) = 7.50230 7.11620 7.31180
#
# Compressibility (1/GPa) = 0.01764652
#
# Stress axis : x y z
#
# Youngs Moduli (GPa) = 65.79306 119.76272 96.13715
#
# Poissons Ratio (x) = 0.60173 -0.15079
# Poissons Ratio (y) = 0.33056 0.45150
# Poissons Ratio (z) = -0.10320 0.56245
#
# Static dielectric constant tensor:
#      x y z
#    x 1.765830 0.000000 0.000000 
#    y 0.000000 1.738740 0.000000 
#    z 0.000000 0.000000 1.708500 
# 
# From -- ./inp_files/39248.got.cif
#   From: 2010.05.17/outbox.cif.g08.bks.cpg/sg64_20_cif.got.tgz:39248.got - 2010.06.03 16:29:19.
