data_PCOD9478091
_publ_section_title
;
Structure prediction by ZEFSAII (Michael W. Deem and Ramdas Pophale) SiO2 
 PCOD9478091
Probable space group: C M C A
;
_chemical_formula_sum "Si O2"
_cell_formula_units_Z 64
_cell_length_a 15.847555
_cell_length_b 21.677575
_cell_length_c 8.630525
_cell_angle_alpha 90.000000
_cell_angle_beta 90.000000
_cell_angle_gamma 90.000000
_cell_volume 2964.900887
_symmetry_space_group_name_H-M "C M C A"
_symmetry_group_IT_number 64
_symmetry_cell_setting 'orthorhombic'
loop_
_space_group_symop_operation_xyz
x,y,z
-x,1/2-y,1/2+z
x,-y,-z
-x,1/2+y,1/2-z
-x,-y,-z
x,1/2+y,1/2-z
-x,y,z
x,1/2-y,1/2+z
1/2+x,1/2+y,z
1/2-x,-y,1/2+z
1/2+x,1/2-y,-z
1/2-x,y,1/2-z
1/2-x,1/2-y,-z
1/2+x,y,1/2-z
1/2-x,1/2+y,z
1/2+x,-y,1/2+z
loop_
_atom_site_type_symbol
_atom_site_label
_atom_site_fract_x
_atom_site_fract_y
_atom_site_fract_z
Si Si1 0.654472 0.931234 0.184520
Si Si2 0.343292 0.307165 0.822590
Si Si3 0.405911 0.689180 0.849361
Si Si4 0.345983 0.567264 0.313253
O O1 0.750000 0.928425 0.250000
O O2 0.605872 0.874385 0.258451
O O3 0.618164 0.999336 0.222810
O O4 0.655830 0.925545 0.998565
O O5 0.250000 0.304332 0.750000
O O6 0.390547 0.246843 0.762451
O O7 0.383718 0.371538 0.763639
O O8 0.341512 0.308143 0.007669
O O9 0.500000 0.692851 0.915479
O O10 0.250000 0.564691 0.250000
#
# Coordination Sequence:
#
# PCOD9478091 Si02
#       4
#    16  16  16  16
#     4  10  19  37  63  89 119 155 197 246 293 351
#     4  11  22  40  63  87 116 157 204 245 292 357
#     4  12  25  40  59  90 124 157 196 249 305 355
#     4   9  19  35  61  92 117 149 200 250 291 341
#
# _framework density 21.585881000000001
#
# number of rings (size 3 to 8) (size 9 to 14) (size 15 to 20)
#    0.000    1.500    0.000    6.750    0.000    3.000 
#    0.000    7.500    0.000    0.000    0.000    0.000 
#    0.000    0.000    0.000    0.000    0.000    0.000 
#
# Total GULP energy -178855.195127 kJ/mol
# GULP energy per Si atom -5589.224848 kJ/mol
# Density = 2.153675 g / cm^3
# Si number density = 21.585881 Si / 1000 Ang^3
#
#
#
# Elastic Constant Matrix: (Units=GPa)
#
#
# Indices 1 2 3 4 5 6 
#
# 1 42.1030 14.3870 -2.7183 0.0000 0.0000 0.0000
# 2 14.3870 209.1217 64.4918 0.0000 0.0000 0.0000
# 3 -2.7183 64.4918 106.6530 0.0000 0.0000 0.0000
# 4 0.0000 0.0000 0.0000 39.1155 0.0000 0.0000
# 5 0.0000 0.0000 0.0000 0.0000 12.1269 0.0000
# 6 0.0000 0.0000 0.0000 0.0000 0.0000 -19.4481
#
#
#
# Elastic Compliance Matrix: (Units=1/GPa)
#
#
# Indices 1 2 3 4 5 6 
#
# 1 0.024677 -0.002325 0.002035 0.000000 0.000000 0.000000
# 2 -0.002325 0.006097 -0.003746 0.000000 0.000000 0.000000
# 3 0.002035 -0.003746 0.011693 0.000000 0.000000 0.000000
# 4 0.000000 0.000000 0.000000 0.025565 0.000000 0.000000
# 5 0.000000 0.000000 0.000000 0.000000 0.082462 0.000000
# 6 0.000000 0.000000 0.000000 0.000000 0.000000 -0.051419
#
#
# Mechanical properties :
#
#
# Convention : Reuss Voigt Hill
#
# Bulk Modulus (GPa) = 29.07407 56.68875 42.88141
# Shear Modulus (GPa) = 42.15369 25.14000 33.64685
#
# Velocity S-wave (km/s) = 4.42388 3.41640 3.95238
# Velocity P-wave (km/s) = 6.29227 6.47158 6.38255
#
# Compressibility (1/GPa) = 0.03439491
#
# Stress axis : x y z
#
# Youngs Moduli (GPa) = 40.52311 164.01048 85.51887
#
# Poissons Ratio (x) = 0.38138 -0.17404
# Poissons Ratio (y) = 0.09423 0.32037
# Poissons Ratio (z) = -0.08247 0.61441
#
# Static dielectric constant tensor:
#      x y z
#    x 1.776700 0.000000 0.000000 
#    y 0.000000 1.814510 0.000000 
#    z 0.000000 0.000000 1.807530 
# 
# From -- ./inp_files/5584.got.cif
#   From: 2010.05.17/outbox.cif.g08.bks.cpg/sg64_3_cif.got.tgz:5584.got - 2010.06.03 16:29:19.
