data_PCOD9478989
_publ_section_title
;
Structure prediction by ZEFSAII (Michael W. Deem and Ramdas Pophale) SiO2 
 PCOD9478989
Probable space group: C M C A
;
_chemical_formula_sum "Si O2"
_cell_formula_units_Z 96
_cell_length_a 19.146193
_cell_length_b 19.183167
_cell_length_c 11.136290
_cell_angle_alpha 90.000000
_cell_angle_beta 90.000000
_cell_angle_gamma 90.000000
_cell_volume 4090.188016
_symmetry_space_group_name_H-M "C M C A"
_symmetry_group_IT_number 64
_symmetry_cell_setting 'orthorhombic'
loop_
_space_group_symop_operation_xyz
x,y,z
-x,1/2-y,1/2+z
x,-y,-z
-x,1/2+y,1/2-z
-x,-y,-z
x,1/2+y,1/2-z
-x,y,z
x,1/2-y,1/2+z
1/2+x,1/2+y,z
1/2-x,-y,1/2+z
1/2+x,1/2-y,-z
1/2-x,y,1/2-z
1/2-x,1/2-y,-z
1/2+x,y,1/2-z
1/2-x,1/2+y,z
1/2+x,-y,1/2+z
loop_
_atom_site_type_symbol
_atom_site_label
_atom_site_fract_x
_atom_site_fract_y
_atom_site_fract_z
Si Si1 0.000000 0.304014 0.483769
Si Si2 0.500000 0.719484 0.720510
Si Si3 0.802652 0.845723 0.536891
Si Si4 0.344422 0.807302 0.436511
Si Si5 0.770055 0.035225 0.131578
Si Si6 0.129046 0.615634 0.788446
Si Si7 0.077384 0.980109 0.858840
O O1 0.000000 0.275179 0.616831
O O2 0.921683 0.335824 0.471738
O O3 0.000000 0.258052 0.360188
O O4 0.434027 0.670493 0.699554
O O5 0.722209 0.821541 0.518823
O O6 0.846030 0.777052 0.572151
O O7 0.790160 0.906738 0.631169
O O8 0.834052 0.881643 0.417347
O O9 0.325787 0.846977 0.314418
O O10 0.750000 0.990182 0.250000
O O11 0.849728 0.060793 0.144085
O O12 0.767484 0.000000 0.000000
O O13 0.095968 0.545652 0.729661
O O14 0.000000 0.952498 0.825654
O O15 0.071969 0.000000 0.000000
#
# Coordination Sequence:
#
# PCOD9478989 Si02
#       7
#     8   8  16  16  16  16  16
#     4  10  20  40  58  90 130 174 217 262 311 394
#     4  10  20  36  63  92 128 176 219 262 327 391
#     4  11  23  39  62  94 129 174 220 267 331 391
#     4  10  22  36  61  94 132 170 214 261 320 396
#     4  11  24  44  67  93 129 171 221 278 331 387
#     4  11  20  39  65  93 130 172 220 269 335 391
#     4  10  21  38  65  95 126 165 219 276 327 387
#
# _framework density 23.470804999999999
#
# number of rings (size 3 to 8) (size 9 to 14) (size 15 to 20)
#    0.000    1.500    2.500    3.500    0.000    2.667 
#    1.500    0.000    3.667    1.500    0.000    0.000 
#    0.000    0.000    0.000    0.000    0.000    0.000 
#
# Total GULP energy -267341.660473 kJ/mol
# GULP energy per Si atom -5569.617927 kJ/mol
# Density = 2.341738 g / cm^3
# Si number density = 23.470805 Si / 1000 Ang^3
#
#
#
# Elastic Constant Matrix: (Units=GPa)
#
#
# Indices 1 2 3 4 5 6 
#
# 1 134.6382 18.6699 29.8091 0.0000 0.0000 0.0000
# 2 18.6699 71.2420 32.5375 0.0000 0.0000 0.0000
# 3 29.8091 32.5375 112.2374 0.0000 0.0000 0.0000
# 4 0.0000 0.0000 0.0000 34.3635 0.0000 0.0000
# 5 0.0000 0.0000 0.0000 0.0000 35.4900 0.0000
# 6 0.0000 0.0000 0.0000 0.0000 0.0000 28.8465
#
#
#
# Elastic Compliance Matrix: (Units=1/GPa)
#
#
# Indices 1 2 3 4 5 6 
#
# 1 0.007994 -0.001297 -0.001747 0.000000 0.000000 0.000000
# 2 -0.001297 0.016389 -0.004407 0.000000 0.000000 0.000000
# 3 -0.001747 -0.004407 0.010651 0.000000 0.000000 0.000000
# 4 0.000000 0.000000 0.000000 0.029101 0.000000 0.000000
# 5 0.000000 0.000000 0.000000 0.000000 0.028177 0.000000
# 6 0.000000 0.000000 0.000000 0.000000 0.000000 0.034666
#
#
# Mechanical properties :
#
#
# Convention : Reuss Voigt Hill
#
# Bulk Modulus (GPa) = 49.67047 53.35007 51.51027
# Shear Modulus (GPa) = 33.64945 35.54674 34.59810
#
# Velocity S-wave (km/s) = 3.79049 3.89589 3.84355
# Velocity P-wave (km/s) = 6.35340 6.55874 6.45689
#
# Compressibility (1/GPa) = 0.02013269
#
# Stress axis : x y z
#
# Youngs Moduli (GPa) = 125.09415 61.01577 93.88599
#
# Poissons Ratio (x) = 0.07914 0.16403
# Poissons Ratio (y) = 0.16225 0.41373
# Poissons Ratio (z) = 0.21856 0.26888
#
# Static dielectric constant tensor:
#      x y z
#    x 1.908120 0.000000 0.000000 
#    y 0.000000 1.962280 0.000000 
#    z 0.000000 0.000000 1.957030 
# 
# From -- ./inp_files/17412.got.cif
#   From: 2010.05.17/outbox.cif.g08.bks.cpg/sg64_9_cif.got.tgz:17412.got - 2010.06.03 16:29:19.
