data_PCOD9478499
_publ_section_title
;
Structure prediction by ZEFSAII (Michael W. Deem and Ramdas Pophale) SiO2 
 PCOD9478499
Probable space group: C M C A
;
_chemical_formula_sum "Si O2"
_cell_formula_units_Z 96
_cell_length_a 8.688915
_cell_length_b 21.026253
_cell_length_c 28.791550
_cell_angle_alpha 90.000000
_cell_angle_beta 90.000000
_cell_angle_gamma 90.000000
_cell_volume 5260.081587
_symmetry_space_group_name_H-M "C M C A"
_symmetry_group_IT_number 64
_symmetry_cell_setting 'orthorhombic'
loop_
_space_group_symop_operation_xyz
x,y,z
-x,1/2-y,1/2+z
x,-y,-z
-x,1/2+y,1/2-z
-x,-y,-z
x,1/2+y,1/2-z
-x,y,z
x,1/2-y,1/2+z
1/2+x,1/2+y,z
1/2-x,-y,1/2+z
1/2+x,1/2-y,-z
1/2-x,y,1/2-z
1/2-x,1/2-y,-z
1/2+x,y,1/2-z
1/2-x,1/2+y,z
1/2+x,-y,1/2+z
loop_
_atom_site_type_symbol
_atom_site_label
_atom_site_fract_x
_atom_site_fract_y
_atom_site_fract_z
Si Si1 0.184124 0.995496 0.945517
Si Si2 0.183532 0.624188 0.108340
Si Si3 0.816594 0.429163 0.200018
Si Si4 0.314763 0.625056 0.891074
Si Si5 0.185808 0.749838 0.052009
Si Si6 0.683500 0.570783 0.199919
O O1 0.270949 0.937499 0.921562
O O2 0.000000 0.984908 0.940297
O O3 0.221851 0.061908 0.920695
O O4 0.218785 0.000000 0.000000
O O5 0.232847 0.686929 0.080313
O O6 0.262457 0.615680 0.158273
O O7 0.000000 0.626354 0.114753
O O8 0.750000 0.409528 0.250000
O O9 0.763527 0.383421 0.158737
O O10 0.748382 0.499697 0.190309
O O11 0.000000 0.433775 0.202328
O O12 0.500000 0.627100 0.884899
O O13 0.267075 0.687333 0.919558
O O14 0.000000 0.750124 0.049194
O O15 0.250000 0.750000 0.000000
O O16 0.500000 0.567219 0.201943
O O17 0.750000 0.590101 0.250000
#
# Coordination Sequence:
#
# PCOD9478499 Si02
#       6
#    16  16  16  16  16  16
#     4  10  20  34  56  83 111 148 194 242 292 344
#     4  11  22  37  57  86 119 152 194 242 293 343
#     4  11  21  35  58  88 119 151 189 237 292 348
#     4  10  20  37  58  83 116 154 197 238 287 344
#     4  10  23  41  61  84 117 160 199 241 289 346
#     4  11  21  36  59  87 118 153 191 237 292 350
#
# _framework density 18.250668999999998
#
# number of rings (size 3 to 8) (size 9 to 14) (size 15 to 20)
#    0.000    1.500    1.667    5.500    0.000    3.667 
#    0.000    0.833    0.000    0.000    0.000    0.000 
#    0.000    0.000    0.000    0.000    0.000    0.000 
#
# Total GULP energy -268276.214807 kJ/mol
# GULP energy per Si atom -5589.087808 kJ/mol
# Density = 1.820913 g / cm^3
# Si number density = 18.250669 Si / 1000 Ang^3
#
#
#
# Elastic Constant Matrix: (Units=GPa)
#
#
# Indices 1 2 3 4 5 6 
#
# 1 85.0738 54.9518 67.7575 0.0000 0.0000 0.0000
# 2 54.9518 133.2493 91.7716 0.0000 0.0000 0.0000
# 3 67.7575 91.7716 182.1928 0.0000 0.0000 0.0000
# 4 0.0000 0.0000 0.0000 32.5347 0.0000 0.0000
# 5 0.0000 0.0000 0.0000 0.0000 35.6790 0.0000
# 6 0.0000 0.0000 0.0000 0.0000 0.0000 20.8146
#
#
#
# Elastic Compliance Matrix: (Units=1/GPa)
#
#
# Indices 1 2 3 4 5 6 
#
# 1 0.018217 -0.004359 -0.004579 0.000000 0.000000 0.000000
# 2 -0.004359 0.012534 -0.004692 0.000000 0.000000 0.000000
# 3 -0.004579 -0.004692 0.009555 0.000000 0.000000 0.000000
# 4 0.000000 0.000000 0.000000 0.030736 0.000000 0.000000
# 5 0.000000 0.000000 0.000000 0.000000 0.028028 0.000000
# 6 0.000000 0.000000 0.000000 0.000000 0.000000 0.048043
#
#
# Mechanical properties :
#
#
# Convention : Reuss Voigt Hill
#
# Bulk Modulus (GPa) = 76.65560 92.16418 84.40989
# Shear Modulus (GPa) = 27.97608 30.20799 29.09204
#
# Velocity S-wave (km/s) = 3.91945 4.07279 3.99686
# Velocity P-wave (km/s) = 7.91047 8.52793 8.22499
#
# Compressibility (1/GPa) = 0.01304536
#
# Stress axis : x y z
#
# Youngs Moduli (GPa) = 54.89271 79.78236 104.65288
#
# Poissons Ratio (x) = 0.34776 0.47925
# Poissons Ratio (y) = 0.23927 0.49108
# Poissons Ratio (z) = 0.25138 0.37437
#
# Static dielectric constant tensor:
#      x y z
#    x 1.618710 0.000000 0.000000 
#    y 0.000000 1.606890 0.000000 
#    z 0.000000 0.000000 1.616130 
# 
# From -- ./inp_files/48017.got.cif
#   From: 2010.05.17/outbox.cif.g08.bks.cpg/sg64_25_cif.got.tgz:48017.got - 2010.06.03 16:29:19.
