data_PCOD9478229
_publ_section_title
;
Structure prediction by ZEFSAII (Michael W. Deem and Ramdas Pophale) SiO2 
 PCOD9478229
Probable space group: C M C A
;
_chemical_formula_sum "Si O2"
_cell_formula_units_Z 64
_cell_length_a 14.827821
_cell_length_b 25.382674
_cell_length_c 6.800428
_cell_angle_alpha 90.000000
_cell_angle_beta 90.000000
_cell_angle_gamma 90.000000
_cell_volume 2559.475363
_symmetry_space_group_name_H-M "C M C A"
_symmetry_group_IT_number 64
_symmetry_cell_setting 'orthorhombic'
loop_
_space_group_symop_operation_xyz
x,y,z
-x,1/2-y,1/2+z
x,-y,-z
-x,1/2+y,1/2-z
-x,-y,-z
x,1/2+y,1/2-z
-x,y,z
x,1/2-y,1/2+z
1/2+x,1/2+y,z
1/2-x,-y,1/2+z
1/2+x,1/2-y,-z
1/2-x,y,1/2-z
1/2-x,1/2-y,-z
1/2+x,y,1/2-z
1/2-x,1/2+y,z
1/2+x,-y,1/2+z
loop_
_atom_site_type_symbol
_atom_site_label
_atom_site_fract_x
_atom_site_fract_y
_atom_site_fract_z
Si Si1 0.895848 0.600192 0.365931
Si Si2 0.609774 0.008636 0.774382
Si Si3 0.237063 0.187355 0.018808
Si Si4 0.602887 0.123055 0.890816
O O1 0.856739 0.539957 0.360471
O O2 0.849988 0.648125 0.486199
O O3 0.897200 0.610060 0.127597
O O4 0.000000 0.597672 0.425790
O O5 0.500000 0.004184 0.767260
O O6 0.626916 0.071092 0.763552
O O7 0.638840 0.000000 0.000000
O O8 0.250000 0.179060 0.250000
O O9 0.318866 0.165640 0.887633
O O10 0.250000 0.250000 0.000000
O O11 0.500000 0.139769 0.848836
#
# Coordination Sequence:
#
# PCOD9478229 Si02
#       4
#    16  16  16  16
#     4   8  14  26  46  73 102 132 169 215 264 311
#     4   7  10  20  42  69  93 117 155 212 267 310
#     4  10  20  32  48  72 106 143 178 216 260 319
#     4   8  14  26  46  72  99 130 172 218 262 311
#
# _framework density 25.005123000000001
#
# number of rings (size 3 to 8) (size 9 to 14) (size 15 to 20)
#    0.000    3.750    0.000    3.000    0.000    1.000 
#    0.000    0.000    0.000   13.500    0.000    1.750 
#    0.000   20.000    0.000    0.000    0.000    1.500 
#
# Total GULP energy -178182.229869 kJ/mol
# GULP energy per Si atom -5568.194683 kJ/mol
# Density = 2.494821 g / cm^3
# Si number density = 25.005123 Si / 1000 Ang^3
#
#
#
# Elastic Constant Matrix: (Units=GPa)
#
#
# Indices 1 2 3 4 5 6 
#
# 1 121.6686 129.0405 33.3871 0.0000 0.0000 0.0000
# 2 129.0405 221.9429 39.4314 0.0000 0.0000 0.0000
# 3 33.3871 39.4314 100.8713 0.0000 0.0000 0.0000
# 4 0.0000 0.0000 0.0000 58.7308 0.0000 0.0000
# 5 0.0000 0.0000 0.0000 0.0000 33.2907 0.0000
# 6 0.0000 0.0000 0.0000 0.0000 0.0000 39.2437
#
#
#
# Elastic Compliance Matrix: (Units=1/GPa)
#
#
# Indices 1 2 3 4 5 6 
#
# 1 0.021989 -0.012349 -0.002451 0.000000 0.000000 0.000000
# 2 -0.012349 0.011778 -0.000516 0.000000 0.000000 0.000000
# 3 -0.002451 -0.000516 0.010927 0.000000 0.000000 0.000000
# 4 0.000000 0.000000 0.000000 0.017027 0.000000 0.000000
# 5 0.000000 0.000000 0.000000 0.000000 0.030038 0.000000
# 6 0.000000 0.000000 0.000000 0.000000 0.000000 0.025482
#
#
# Mechanical properties :
#
#
# Convention : Reuss Voigt Hill
#
# Bulk Modulus (GPa) = 71.12195 94.24452 82.68324
# Shear Modulus (GPa) = 32.77392 42.42795 37.60093
#
# Velocity S-wave (km/s) = 3.62427 4.12366 3.88200
# Velocity P-wave (km/s) = 6.78369 7.77461 7.29600
#
# Compressibility (1/GPa) = 0.01406036
#
# Stress axis : x y z
#
# Youngs Moduli (GPa) = 45.47681 84.90741 91.51941
#
# Poissons Ratio (x) = 1.04856 0.22428
# Poissons Ratio (y) = 0.56161 0.04726
# Poissons Ratio (z) = 0.11145 0.04385
#
# Static dielectric constant tensor:
#      x y z
#    x 1.973670 0.000000 0.000000 
#    y 0.000000 1.186050 0.000000 
#    z 0.000000 0.000000 2.209570 
# 
# From -- ./inp_files/5548.got.cif
#   From: 2010.05.17/outbox.cif.g08.bks.cpg/sg64_3_cif.got.tgz:5548.got - 2010.06.03 16:29:19.
