data_PCOD9478511
_publ_section_title
;
Structure prediction by ZEFSAII (Michael W. Deem and Ramdas Pophale) SiO2 
 PCOD9478511
Probable space group: C M C A
;
_chemical_formula_sum "Si O2"
_cell_formula_units_Z 104
_cell_length_a 31.190925
_cell_length_b 20.756038
_cell_length_c 8.626765
_cell_angle_alpha 90.000000
_cell_angle_beta 90.000000
_cell_angle_gamma 90.000000
_cell_volume 5584.967873
_symmetry_space_group_name_H-M "C M C A"
_symmetry_group_IT_number 64
_symmetry_cell_setting 'orthorhombic'
loop_
_space_group_symop_operation_xyz
x,y,z
-x,1/2-y,1/2+z
x,-y,-z
-x,1/2+y,1/2-z
-x,-y,-z
x,1/2+y,1/2-z
-x,y,z
x,1/2-y,1/2+z
1/2+x,1/2+y,z
1/2-x,-y,1/2+z
1/2+x,1/2-y,-z
1/2-x,y,1/2-z
1/2-x,1/2-y,-z
1/2+x,y,1/2-z
1/2-x,1/2+y,z
1/2+x,-y,1/2+z
loop_
_atom_site_type_symbol
_atom_site_label
_atom_site_fract_x
_atom_site_fract_y
_atom_site_fract_z
Si Si1 0.706491 0.698548 0.838706
Si Si2 0.364613 0.377921 0.343462
Si Si3 0.371197 0.000000 0.000000
Si Si4 0.451464 0.661692 0.773864
Si Si5 0.705371 0.339287 0.801991
Si Si6 0.881482 0.121049 0.325121
Si Si7 0.951428 0.801817 0.866003
O O1 0.750000 0.678245 0.750000
O O2 0.666440 0.661546 0.764897
O O3 0.701751 0.774228 0.801195
O O4 0.708558 0.683342 0.020260
O O5 0.346953 0.448379 0.391957
O O6 0.411973 0.383765 0.270689
O O7 0.370958 0.344203 0.510956
O O8 0.395059 0.950052 0.885529
O O9 0.500000 0.636461 0.750733
O O10 0.446596 0.726364 0.671505
O O11 0.447226 0.683548 0.952235
O O12 0.750000 0.371384 0.750000
O O13 0.662906 0.380343 0.769426
O O14 0.916980 0.158022 0.229650
O O15 0.000000 0.819206 0.817969
#
# Coordination Sequence:
#
# PCOD9478511 Si02
#       7
#    16  16   8  16  16  16  16
#     4  11  21  35  59  91 119 147 182 236 294 351
#     4  10  20  39  58  78 111 154 196 234 280 327
#     4   8  24  40  61  76 110 160 198 244 259 340
#     4  10  20  34  56  89 121 148 183 232 290 346
#     4  11  21  35  59  91 119 147 182 236 294 351
#     4  10  20  39  58  78 111 154 196 234 280 327
#     4  10  20  34  56  89 121 148 183 232 290 346
#
# _framework density 18.621414999999999
#
# number of rings (size 3 to 8) (size 9 to 14) (size 15 to 20)
#    0.923    0.923    0.000    6.462    0.000    1.846 
#    0.000    5.385    0.000    1.846    0.000    0.000 
#    0.000    0.000    0.000    0.000    0.000    0.000 
#
# Total GULP energy -289624.560755 kJ/mol
# GULP energy per Si atom -5569.703091 kJ/mol
# Density = 1.857903 g / cm^3
# Si number density = 18.621415 Si / 1000 Ang^3
#
#
#
# Elastic Constant Matrix: (Units=GPa)
#
#
# Indices 1 2 3 4 5 6 
#
# 1 112.4006 29.6068 38.0756 0.0000 0.0000 0.0000
# 2 29.6068 32.6191 2.8130 0.0000 0.0000 0.0000
# 3 38.0756 2.8130 95.3840 0.0000 0.0000 0.0000
# 4 0.0000 0.0000 0.0000 17.5646 0.0000 0.0000
# 5 0.0000 0.0000 0.0000 0.0000 32.3440 0.0000
# 6 0.0000 0.0000 0.0000 0.0000 0.0000 0.7383
#
#
#
# Elastic Compliance Matrix: (Units=1/GPa)
#
#
# Indices 1 2 3 4 5 6 
#
# 1 0.013838 -0.012115 -0.005167 0.000000 0.000000 0.000000
# 2 -0.012115 0.041341 0.003617 0.000000 0.000000 0.000000
# 3 -0.005167 0.003617 0.012440 0.000000 0.000000 0.000000
# 4 0.000000 0.000000 0.000000 0.056933 0.000000 0.000000
# 5 0.000000 0.000000 0.000000 0.000000 0.030918 0.000000
# 6 0.000000 0.000000 0.000000 0.000000 0.000000 1.354417
#
#
# Mechanical properties :
#
#
# Convention : Reuss Voigt Hill
#
# Bulk Modulus (GPa) = 24.82027 42.37717 33.59872
# Shear Modulus (GPa) = 3.22447 21.45659 12.34053
#
# Velocity S-wave (km/s) = 1.31733 3.39817 2.57710
# Velocity P-wave (km/s) = 3.95874 6.18089 5.19013
#
# Compressibility (1/GPa) = 0.04028965
#
# Stress axis : x y z
#
# Youngs Moduli (GPa) = 72.26507 24.18919 80.38785
#
# Poissons Ratio (x) = 0.29304 0.41533
# Poissons Ratio (y) = 0.87546 -0.29074
# Poissons Ratio (z) = 0.37336 -0.08749
#
# Static dielectric constant tensor:
#      x y z
#    x 1.678050 0.000000 0.000000 
#    y 0.000000 1.642170 0.000000 
#    z 0.000000 0.000000 1.653110 
# 
# From -- ./inp_files/11264.got.cif
#   From: 2010.05.17/outbox.cif.g08.bks.cpg/sg64_6_cif.got.tgz:11264.got - 2010.06.03 16:29:19.
