data_PCOD9478850
_publ_section_title
;
Structure prediction by ZEFSAII (Michael W. Deem and Ramdas Pophale) SiO2 
 PCOD9478850
Probable space group: C M C A
;
_chemical_formula_sum "Si O2"
_cell_formula_units_Z 96
_cell_length_a 15.551425
_cell_length_b 26.805990
_cell_length_c 10.170366
_cell_angle_alpha 90.000000
_cell_angle_beta 90.000000
_cell_angle_gamma 90.000000
_cell_volume 4239.734134
_symmetry_space_group_name_H-M "C M C A"
_symmetry_group_IT_number 64
_symmetry_cell_setting 'orthorhombic'
loop_
_space_group_symop_operation_xyz
x,y,z
-x,1/2-y,1/2+z
x,-y,-z
-x,1/2+y,1/2-z
-x,-y,-z
x,1/2+y,1/2-z
-x,y,z
x,1/2-y,1/2+z
1/2+x,1/2+y,z
1/2-x,-y,1/2+z
1/2+x,1/2-y,-z
1/2-x,y,1/2-z
1/2-x,1/2-y,-z
1/2+x,y,1/2-z
1/2-x,1/2+y,z
1/2+x,-y,1/2+z
loop_
_atom_site_type_symbol
_atom_site_label
_atom_site_fract_x
_atom_site_fract_y
_atom_site_fract_z
Si Si1 0.600376 0.527876 0.371039
Si Si2 0.097577 0.361542 0.286906
Si Si3 0.899082 0.463113 0.390639
Si Si4 0.636449 0.802444 0.528023
Si Si5 0.351103 0.362695 0.723685
Si Si6 0.339829 0.809223 0.034737
O O1 0.637088 0.500000 0.500000
O O2 0.500000 0.538385 0.400250
O O3 0.605130 0.490396 0.248768
O O4 0.637340 0.580103 0.319155
O O5 0.137639 0.408185 0.366709
O O6 0.094872 0.316690 0.390107
O O7 0.146219 0.345910 0.156317
O O8 0.000000 0.375514 0.248122
O O9 0.860725 0.500000 0.500000
O O10 0.000000 0.455821 0.428916
O O11 0.609124 0.841392 0.641423
O O12 0.623307 0.745228 0.569020
O O13 0.738493 0.805738 0.496060
O O14 0.250000 0.354918 0.750000
O O15 0.380254 0.330203 0.599151
#
# Coordination Sequence:
#
# PCOD9478850 Si02
#       6
#    16  16  16  16  16  16
#     4  10  20  36  58  81 110 150 187 223 280 347
#     4  11  22  36  58  88 116 145 191 247 293 337
#     4   9  18  33  52  76 109 147 183 220 271 337
#     4  10  21  39  61  82 112 157 195 231 288 355
#     4  10  21  37  58  86 115 146 195 247 286 336
#     4  10  21  39  60  82 114 154 194 234 286 354
#
# _framework density 22.642928999999999
#
# number of rings (size 3 to 8) (size 9 to 14) (size 15 to 20)
#    0.000    2.000    0.000    3.500    0.000    7.333 
#    0.000    7.500    0.000    0.000    0.000    0.000 
#    0.000    0.000    0.000    0.000    0.000    0.000 
#
# Total GULP energy -268076.225480 kJ/mol
# GULP energy per Si atom -5584.921364 kJ/mol
# Density = 2.259139 g / cm^3
# Si number density = 22.642929 Si / 1000 Ang^3
#
#
#
# Elastic Constant Matrix: (Units=GPa)
#
#
# Indices 1 2 3 4 5 6 
#
# 1 22.4749 10.7511 14.6637 0.0000 0.0000 0.0000
# 2 10.7511 121.4840 49.8310 0.0000 0.0000 0.0000
# 3 14.6637 49.8310 134.7408 0.0000 0.0000 0.0000
# 4 0.0000 0.0000 0.0000 42.1055 0.0000 0.0000
# 5 0.0000 0.0000 0.0000 0.0000 2.0548 0.0000
# 6 0.0000 0.0000 0.0000 0.0000 0.0000 7.1213
#
#
#
# Elastic Compliance Matrix: (Units=1/GPa)
#
#
# Indices 1 2 3 4 5 6 
#
# 1 0.048535 -0.002509 -0.004354 0.000000 0.000000 0.000000
# 2 -0.002509 0.009833 -0.003364 0.000000 0.000000 0.000000
# 3 -0.004354 -0.003364 0.009139 0.000000 0.000000 0.000000
# 4 0.000000 0.000000 0.000000 0.023750 0.000000 0.000000
# 5 0.000000 0.000000 0.000000 0.000000 0.486667 0.000000
# 6 0.000000 0.000000 0.000000 0.000000 0.000000 0.140423
#
#
# Mechanical properties :
#
#
# Convention : Reuss Voigt Hill
#
# Bulk Modulus (GPa) = 21.25211 47.68792 34.47001
# Shear Modulus (GPa) = 6.62703 23.81992 15.22347
#
# Velocity S-wave (km/s) = 1.71263 3.24694 2.59574
# Velocity P-wave (km/s) = 3.64924 5.92988 4.92343
#
# Compressibility (1/GPa) = 0.04705416
#
# Stress axis : x y z
#
# Youngs Moduli (GPa) = 20.60361 101.69541 109.41602
#
# Poissons Ratio (x) = 0.25519 0.47640
# Poissons Ratio (y) = 0.05170 0.36803
# Poissons Ratio (z) = 0.08971 0.34206
#
# Static dielectric constant tensor:
#      x y z
#    x 1.883430 0.000000 0.000000 
#    y 0.000000 1.852850 0.000000 
#    z 0.000000 0.000000 1.802150 
# 
# From -- ./inp_files/8446.got.cif
#   From: 2010.05.17/outbox.cif.g08.bks.cpg/sg64_5_cif.got.tgz:8446.got - 2010.06.03 16:29:19.
