data_PCOD9478715
_publ_section_title
;
Structure prediction by ZEFSAII (Michael W. Deem and Ramdas Pophale) SiO2 
 PCOD9478715
Probable space group: C M C A
;
_chemical_formula_sum "Si O2"
_cell_formula_units_Z 112
_cell_length_a 13.459305
_cell_length_b 13.320574
_cell_length_c 27.987704
_cell_angle_alpha 90.000000
_cell_angle_beta 90.000000
_cell_angle_gamma 90.000000
_cell_volume 5017.794214
_symmetry_space_group_name_H-M "C M C A"
_symmetry_group_IT_number 64
_symmetry_cell_setting 'orthorhombic'
loop_
_space_group_symop_operation_xyz
x,y,z
-x,1/2-y,1/2+z
x,-y,-z
-x,1/2+y,1/2-z
-x,-y,-z
x,1/2+y,1/2-z
-x,y,z
x,1/2-y,1/2+z
1/2+x,1/2+y,z
1/2-x,-y,1/2+z
1/2+x,1/2-y,-z
1/2-x,y,1/2-z
1/2-x,1/2-y,-z
1/2+x,y,1/2-z
1/2-x,1/2+y,z
1/2+x,-y,1/2+z
loop_
_atom_site_type_symbol
_atom_site_label
_atom_site_fract_x
_atom_site_fract_y
_atom_site_fract_z
Si Si1 0.686265 0.333313 0.797692
Si Si2 0.390627 0.396959 0.528535
Si Si3 0.108764 0.868691 0.343101
Si Si4 0.116004 0.121184 0.889406
Si Si5 0.306476 0.210776 0.938962
Si Si6 0.774308 0.909625 0.898716
Si Si7 0.701091 0.442557 0.200591
O O1 0.750000 0.315596 0.750000
O O2 0.622562 0.234924 0.811925
O O3 0.740685 0.353503 0.848237
O O4 0.647811 0.449615 0.790963
O O5 0.399396 0.500000 0.500000
O O6 0.500000 0.356392 0.538969
O O7 0.331873 0.327013 0.491305
O O8 0.329686 0.424531 0.575476
O O9 0.124900 0.841228 0.398498
O O10 0.000000 0.909528 0.334010
O O11 0.196593 0.945048 0.330218
O O12 0.155122 0.006455 0.896436
O O13 0.135209 0.131662 0.831755
O O14 0.000000 0.133504 0.900145
O O15 0.193721 0.186038 0.920634
O O16 0.327263 0.327725 0.932348
O O17 0.750000 0.408834 0.250000
#
# Coordination Sequence:
#
# PCOD9478715 Si02
#       7
#    16  16  16  16  16  16  16
#     4   9  19  37  58  82 118 156 190 241 299 346
#     4  11  22  38  61  85 118 159 197 239 298 359
#     4  10  20  35  59  86 113 151 199 241 288 351
#     4  10  21  38  60  85 116 156 199 246 297 354
#     4  10  21  39  59  84 120 153 192 246 297 350
#     4  10  21  39  61  86 118 155 199 247 295 353
#     4   9  19  35  55  82 118 153 191 244 298 347
#
# _framework density 22.320564999999998
#
# number of rings (size 3 to 8) (size 9 to 14) (size 15 to 20)
#    0.000    2.143    1.429    1.286    0.000    6.857 
#    0.000    4.286    0.000    3.429    0.000    0.000 
#    0.000    0.000    0.000    0.000    0.000    0.000 
#
# Total GULP energy -311926.793233 kJ/mol
# GULP energy per Si atom -5570.121308 kJ/mol
# Density = 2.226976 g / cm^3
# Si number density = 22.320565 Si / 1000 Ang^3
#
#
#
# Elastic Constant Matrix: (Units=GPa)
#
#
# Indices 1 2 3 4 5 6 
#
# 1 110.3321 -0.6685 10.8670 0.0000 0.0000 0.0000
# 2 -0.6685 75.3968 -14.3796 0.0000 0.0000 0.0000
# 3 10.8670 -14.3796 101.2560 0.0000 0.0000 0.0000
# 4 0.0000 0.0000 0.0000 16.2354 0.0000 0.0000
# 5 0.0000 0.0000 0.0000 0.0000 12.5401 0.0000
# 6 0.0000 0.0000 0.0000 0.0000 0.0000 3.2777
#
#
#
# Elastic Compliance Matrix: (Units=1/GPa)
#
#
# Indices 1 2 3 4 5 6 
#
# 1 0.009161 -0.000109 -0.000999 0.000000 0.000000 0.000000
# 2 -0.000109 0.013634 0.001948 0.000000 0.000000 0.000000
# 3 -0.000999 0.001948 0.010260 0.000000 0.000000 0.000000
# 4 0.000000 0.000000 0.000000 0.061594 0.000000 0.000000
# 5 0.000000 0.000000 0.000000 0.000000 0.079744 0.000000
# 6 0.000000 0.000000 0.000000 0.000000 0.000000 0.305088
#
#
# Mechanical properties :
#
#
# Convention : Reuss Voigt Hill
#
# Bulk Modulus (GPa) = 28.78981 30.95808 29.87394
# Shear Modulus (GPa) = 10.21703 25.82171 18.01937
#
# Velocity S-wave (km/s) = 2.14181 3.40495 2.84438
# Velocity P-wave (km/s) = 4.36380 5.41831 4.91940
#
# Compressibility (1/GPa) = 0.03473452
#
# Stress axis : x y z
#
# Youngs Moduli (GPa) = 109.15540 73.34776 97.46812
#
# Poissons Ratio (x) = 0.00801 0.09734
# Poissons Ratio (y) = 0.01193 -0.18986
# Poissons Ratio (z) = 0.10902 -0.14287
#
# Static dielectric constant tensor:
#      x y z
#    x 1.817850 0.000000 0.000000 
#    y 0.000000 1.902430 0.000000 
#    z 0.000000 0.000000 1.980980 
# 
# From -- ./inp_files/52824.got.cif
#   From: 2010.05.17/outbox.cif.g08.bks.cpg/sg64_27_cif.got.tgz:52824.got - 2010.06.03 16:29:19.
