data_PCOD9478032
_publ_section_title
;
Structure prediction by ZEFSAII (Michael W. Deem and Ramdas Pophale) SiO2 
 PCOD9478032
Probable space group: C M C A
;
_chemical_formula_sum "Si O2"
_cell_formula_units_Z 96
_cell_length_a 8.830614
_cell_length_b 20.411459
_cell_length_c 28.517793
_cell_angle_alpha 90.000000
_cell_angle_beta 90.000000
_cell_angle_gamma 90.000000
_cell_volume 5140.210007
_symmetry_space_group_name_H-M "C M C A"
_symmetry_group_IT_number 64
_symmetry_cell_setting 'orthorhombic'
loop_
_space_group_symop_operation_xyz
x,y,z
-x,1/2-y,1/2+z
x,-y,-z
-x,1/2+y,1/2-z
-x,-y,-z
x,1/2+y,1/2-z
-x,y,z
x,1/2-y,1/2+z
1/2+x,1/2+y,z
1/2-x,-y,1/2+z
1/2+x,1/2-y,-z
1/2-x,y,1/2-z
1/2-x,1/2-y,-z
1/2+x,y,1/2-z
1/2-x,1/2+y,z
1/2+x,-y,1/2+z
loop_
_atom_site_type_symbol
_atom_site_label
_atom_site_fract_x
_atom_site_fract_y
_atom_site_fract_z
Si Si1 0.180068 0.266916 0.949485
Si Si2 0.181679 0.074277 0.300158
Si Si3 0.681458 0.353154 0.395860
Si Si4 0.176330 0.489797 0.055420
Si Si5 0.179011 0.388400 0.604218
Si Si6 0.681543 0.579594 0.700549
O O1 0.229551 0.209092 0.914414
O O2 0.246143 0.334174 0.929040
O O3 0.000000 0.271578 0.953519
O O4 0.250000 0.250000 0.000000
O O5 0.250000 0.094214 0.250000
O O6 0.250282 0.113181 0.343803
O O7 0.000000 0.079435 0.299657
O O8 0.222630 0.997013 0.306878
O O9 0.500000 0.339850 0.396220
O O10 0.708090 0.415420 0.429748
O O11 0.726826 0.377194 0.343996
O O12 0.279790 0.540949 0.082635
O O13 0.000000 0.502927 0.068800
O O14 0.191343 0.500000 0.000000
O O15 0.000000 0.378780 0.606291
O O16 0.500000 0.581696 0.703404
O O17 0.750000 0.600989 0.750000
#
# Coordination Sequence:
#
# PCOD9478032 Si02
#       6
#    16  16  16  16  16  16
#     4  12  26  44  64  87 119 161 204 251 305 367
#     4  10  19  36  60  91 125 161 200 246 305 359
#     4  10  20  38  60  88 122 158 199 247 303 361
#     4  10  20  36  60  87 118 156 197 249 307 359
#     4  12  24  39  61  90 122 160 205 252 300 359
#     4   9  18  33  57  87 122 158 194 240 296 355
#
# _framework density 18.676280999999999
#
# number of rings (size 3 to 8) (size 9 to 14) (size 15 to 20)
#    0.000    1.500    1.667    4.500    0.000    3.667 
#    0.000    0.833    0.000    2.000    0.000    0.000 
#    0.000    0.000    0.000    0.000    0.000    0.000 
#
# Total GULP energy -268316.044394 kJ/mol
# GULP energy per Si atom -5589.917592 kJ/mol
# Density = 1.863377 g / cm^3
# Si number density = 18.676281 Si / 1000 Ang^3
#
#
#
# Elastic Constant Matrix: (Units=GPa)
#
#
# Indices 1 2 3 4 5 6 
#
# 1 87.9400 16.9463 22.7237 0.0000 0.0000 0.0000
# 2 16.9463 23.5539 -10.5395 0.0000 0.0000 0.0000
# 3 22.7237 -10.5395 65.8846 0.0000 0.0000 0.0000
# 4 0.0000 0.0000 0.0000 31.1490 0.0000 0.0000
# 5 0.0000 0.0000 0.0000 0.0000 35.3948 0.0000
# 6 0.0000 0.0000 0.0000 0.0000 0.0000 27.4782
#
#
#
# Elastic Compliance Matrix: (Units=1/GPa)
#
#
# Indices 1 2 3 4 5 6 
#
# 1 0.016466 -0.015497 -0.008158 0.000000 0.000000 0.000000
# 2 -0.015497 0.060314 0.014993 0.000000 0.000000 0.000000
# 3 -0.008158 0.014993 0.020390 0.000000 0.000000 0.000000
# 4 0.000000 0.000000 0.000000 0.032104 0.000000 0.000000
# 5 0.000000 0.000000 0.000000 0.000000 0.028253 0.000000
# 6 0.000000 0.000000 0.000000 0.000000 0.000000 0.036392
#
#
# Mechanical properties :
#
#
# Convention : Reuss Voigt Hill
#
# Bulk Modulus (GPa) = 12.52399 26.18220 19.35309
# Shear Modulus (GPa) = 21.02091 28.68761 24.85426
#
# Velocity S-wave (km/s) = 3.35855 3.92349 3.65196
# Velocity P-wave (km/s) = 4.66478 5.88000 5.30729
#
# Compressibility (1/GPa) = 0.07984673
#
# Stress axis : x y z
#
# Youngs Moduli (GPa) = 60.73206 16.57982 49.04303
#
# Poissons Ratio (x) = 0.25694 0.40010
# Poissons Ratio (y) = 0.94117 -0.73532
# Poissons Ratio (z) = 0.49546 -0.24859
#
# Static dielectric constant tensor:
#      x y z
#    x 1.628130 0.000000 0.000000 
#    y 0.000000 1.625340 0.000000 
#    z 0.000000 0.000000 1.640440 
# 
# From -- ./inp_files/48053.got.cif
#   From: 2010.05.17/outbox.cif.g08.bks.cpg/sg64_25_cif.got.tgz:48053.got - 2010.06.03 16:29:19.
