data_PCOD9478252
_publ_section_title
;
Structure prediction by ZEFSAII (Michael W. Deem and Ramdas Pophale) SiO2 
 PCOD9478252
Probable space group: C M C A
;
_chemical_formula_sum "Si O2"
_cell_formula_units_Z 104
_cell_length_a 26.916712
_cell_length_b 22.626550
_cell_length_c 9.621010
_cell_angle_alpha 90.000000
_cell_angle_beta 90.000000
_cell_angle_gamma 90.000000
_cell_volume 5859.506136
_symmetry_space_group_name_H-M "C M C A"
_symmetry_group_IT_number 64
_symmetry_cell_setting 'orthorhombic'
loop_
_space_group_symop_operation_xyz
x,y,z
-x,1/2-y,1/2+z
x,-y,-z
-x,1/2+y,1/2-z
-x,-y,-z
x,1/2+y,1/2-z
-x,y,z
x,1/2-y,1/2+z
1/2+x,1/2+y,z
1/2-x,-y,1/2+z
1/2+x,1/2-y,-z
1/2-x,y,1/2-z
1/2-x,1/2-y,-z
1/2+x,y,1/2-z
1/2-x,1/2+y,z
1/2+x,-y,1/2+z
loop_
_atom_site_type_symbol
_atom_site_label
_atom_site_fract_x
_atom_site_fract_y
_atom_site_fract_z
Si Si1 0.500000 0.573329 0.868796
Si Si2 0.891857 0.568856 0.201716
Si Si3 0.891777 0.432978 0.305917
Si Si4 0.500000 0.568622 0.189331
Si Si5 0.748082 0.188048 0.579413
Si Si6 0.247737 0.000000 0.500000
Si Si7 0.171004 0.594516 0.933997
Si Si8 0.825560 0.404296 0.558445
O O1 0.552460 0.591138 0.805664
O O2 0.500000 0.502150 0.842088
O O3 0.500000 0.591451 0.030789
O O4 0.889197 0.500047 0.248766
O O5 0.949527 0.584714 0.229125
O O6 0.854497 0.606218 0.299105
O O7 0.869470 0.576168 0.048649
O O8 0.857295 0.394854 0.207609
O O9 0.868036 0.430374 0.457570
O O10 0.750000 0.191460 0.750000
O O11 0.750000 0.250000 0.500000
O O12 0.796145 0.150767 0.530632
O O13 0.701658 0.149708 0.519198
O O14 0.210974 0.958447 0.412557
O O15 0.283622 0.954836 0.580284
#
# Coordination Sequence:
#
# PCOD9478252 Si02
#       8
#     8  16  16   8  16   8  16  16
#     4   9  18  29  53  75 116 157 188 220 270 331
#     4  11  20  33  54  87 118 152 188 221 280 336
#     4  11  18  35  51  86 116 154 187 223 275 333
#     4   9  18  31  49  79 118 153 186 228 262 333
#     4  11  26  43  58  81 111 147 193 234 280 335
#     4  10  20  32  50  80 112 148 178 224 272 326
#     4  11  23  35  54  81 119 147 183 234 281 330
#     4  11  21  33  59  79 113 149 188 228 274 331
#
# _framework density 17.748936
#
# number of rings (size 3 to 8) (size 9 to 14) (size 15 to 20)
#    0.000    1.385    6.154    0.000    2.154    3.692 
#    0.000    2.308    0.000    0.000    0.000    6.462 
#    0.000    0.000    0.000    0.000    0.000    0.000 
#
# Total GULP energy -289854.990366 kJ/mol
# GULP energy per Si atom -5574.134430 kJ/mol
# Density = 1.770854 g / cm^3
# Si number density = 17.748936 Si / 1000 Ang^3
#
#
#
# Elastic Constant Matrix: (Units=GPa)
#
#
# Indices 1 2 3 4 5 6 
#
# 1 131.1354 25.6821 20.8714 0.0000 0.0000 0.0000
# 2 25.6821 70.9134 7.0076 0.0000 0.0000 0.0000
# 3 20.8714 7.0076 55.5034 0.0000 0.0000 0.0000
# 4 0.0000 0.0000 0.0000 20.7927 0.0000 0.0000
# 5 0.0000 0.0000 0.0000 0.0000 22.0030 0.0000
# 6 0.0000 0.0000 0.0000 0.0000 0.0000 9.2453
#
#
#
# Elastic Compliance Matrix: (Units=1/GPa)
#
#
# Indices 1 2 3 4 5 6 
#
# 1 0.008643 -0.002844 -0.002891 0.000000 0.000000 0.000000
# 2 -0.002844 0.015216 -0.000851 0.000000 0.000000 0.000000
# 3 -0.002891 -0.000851 0.019212 0.000000 0.000000 0.000000
# 4 0.000000 0.000000 0.000000 0.048094 0.000000 0.000000
# 5 0.000000 0.000000 0.000000 0.000000 0.045448 0.000000
# 6 0.000000 0.000000 0.000000 0.000000 0.000000 0.108163
#
#
# Mechanical properties :
#
#
# Convention : Reuss Voigt Hill
#
# Bulk Modulus (GPa) = 33.44854 40.51939 36.98396
# Shear Modulus (GPa) = 18.66266 24.00760 21.33513
#
# Velocity S-wave (km/s) = 3.24617 3.68179 3.47082
# Velocity P-wave (km/s) = 5.73903 6.39944 6.07821
#
# Compressibility (1/GPa) = 0.02989667
#
# Stress axis : x y z
#
# Youngs Moduli (GPa) = 115.70200 65.72036 52.05211
#
# Poissons Ratio (x) = 0.18694 0.15048
# Poissons Ratio (y) = 0.32911 0.04432
# Poissons Ratio (z) = 0.33449 0.05596
#
# Static dielectric constant tensor:
#      x y z
#    x 1.630450 0.000000 0.000000 
#    y 0.000000 1.599260 0.000000 
#    z 0.000000 0.000000 1.803270 
# 
# From -- ./inp_files/11225.got.cif
#   From: 2010.05.17/outbox.cif.g08.bks.cpg/sg64_6_cif.got.tgz:11225.got - 2010.06.03 16:29:19.
