data_PCOD9478754
_publ_section_title
;
Structure prediction by ZEFSAII (Michael W. Deem and Ramdas Pophale) SiO2 
 PCOD9478754
Probable space group: C M C A
;
_chemical_formula_sum "Si O2"
_cell_formula_units_Z 88
_cell_length_a 20.825042
_cell_length_b 17.350140
_cell_length_c 11.383641
_cell_angle_alpha 90.000000
_cell_angle_beta 90.000000
_cell_angle_gamma 90.000000
_cell_volume 4113.107503
_symmetry_space_group_name_H-M "C M C A"
_symmetry_group_IT_number 64
_symmetry_cell_setting 'orthorhombic'
loop_
_space_group_symop_operation_xyz
x,y,z
-x,1/2-y,1/2+z
x,-y,-z
-x,1/2+y,1/2-z
-x,-y,-z
x,1/2+y,1/2-z
-x,y,z
x,1/2-y,1/2+z
1/2+x,1/2+y,z
1/2-x,-y,1/2+z
1/2+x,1/2-y,-z
1/2-x,y,1/2-z
1/2-x,1/2-y,-z
1/2+x,y,1/2-z
1/2-x,1/2+y,z
1/2+x,-y,1/2+z
loop_
_atom_site_type_symbol
_atom_site_label
_atom_site_fract_x
_atom_site_fract_y
_atom_site_fract_z
Si Si1 0.119771 0.290822 0.355414
Si Si2 0.572503 0.027298 0.216376
Si Si3 0.612353 0.135724 0.010830
Si Si4 0.000000 0.681832 0.821745
Si Si5 0.184118 0.406376 0.204684
Si Si6 0.575227 0.413676 0.964006
O O1 0.129859 0.206351 0.405294
O O2 0.175253 0.327164 0.275707
O O3 0.111343 0.347601 0.467272
O O4 0.056200 0.296000 0.275539
O O5 0.500000 0.993072 0.220398
O O6 0.577771 0.087848 0.323030
O O7 0.624009 0.961009 0.236937
O O8 0.585614 0.068264 0.093899
O O9 0.556743 0.161947 0.920580
O O10 0.672897 0.108578 0.932852
O O11 0.250000 0.442399 0.250000
O O12 0.500000 0.407169 0.997128
O O13 0.595809 0.500000 0.000000
#
# Coordination Sequence:
#
# PCOD9478754 Si02
#       6
#    16  16  16   8  16  16
#     4  11  23  41  67  99 136 185 225 284 352 422
#     4  11  24  43  72 107 139 179 235 295 358 422
#     4  11  25  41  72 104 141 182 232 297 357 431
#     4  10  22  38  64 104 149 172 210 291 366 419
#     4  11  27  49  67  95 141 189 235 292 351 417
#     4  10  20  35  61  98 139 176 218 278 344 418
#
# _framework density 21.395015999999998
#
# number of rings (size 3 to 8) (size 9 to 14) (size 15 to 20)
#    0.000    1.273    3.636    1.091   10.182    1.455 
#    6.545    0.909    0.000    0.000    0.000    0.000 
#    0.000    0.000    0.000    0.000    0.000    0.000 
#
# Total GULP energy -244976.879314 kJ/mol
# GULP energy per Si atom -5567.656348 kJ/mol
# Density = 2.134632 g / cm^3
# Si number density = 21.395016 Si / 1000 Ang^3
#
#
#
# Elastic Constant Matrix: (Units=GPa)
#
#
# Indices 1 2 3 4 5 6 
#
# 1 99.5870 31.1727 38.2564 0.0000 0.0000 0.0000
# 2 31.1727 44.2893 22.3175 0.0000 0.0000 0.0000
# 3 38.2564 22.3175 128.7088 0.0000 0.0000 0.0000
# 4 0.0000 0.0000 0.0000 25.1886 0.0000 0.0000
# 5 0.0000 0.0000 0.0000 0.0000 27.7818 0.0000
# 6 0.0000 0.0000 0.0000 0.0000 0.0000 10.7320
#
#
#
# Elastic Compliance Matrix: (Units=1/GPa)
#
#
# Indices 1 2 3 4 5 6 
#
# 1 0.013639 -0.008281 -0.002618 0.000000 0.000000 0.000000
# 2 -0.008281 0.029768 -0.002700 0.000000 0.000000 0.000000
# 3 -0.002618 -0.002700 0.009016 0.000000 0.000000 0.000000
# 4 0.000000 0.000000 0.000000 0.039700 0.000000 0.000000
# 5 0.000000 0.000000 0.000000 0.000000 0.035995 0.000000
# 6 0.000000 0.000000 0.000000 0.000000 0.000000 0.093179
#
#
# Mechanical properties :
#
#
# Convention : Reuss Voigt Hill
#
# Bulk Modulus (GPa) = 39.64372 50.67537 45.15955
# Shear Modulus (GPa) = 19.46256 24.79639 22.12947
#
# Velocity S-wave (km/s) = 3.01936 3.40807 3.21959
# Velocity P-wave (km/s) = 5.54301 6.26288 5.91391
#
# Compressibility (1/GPa) = 0.02522467
#
# Stress axis : x y z
#
# Youngs Moduli (GPa) = 73.31798 33.59345 110.91494
#
# Poissons Ratio (x) = 0.27817 0.29040
# Poissons Ratio (y) = 0.60711 0.29951
# Poissons Ratio (z) = 0.19196 0.09071
#
# Static dielectric constant tensor:
#      x y z
#    x 1.761350 0.000000 0.000000 
#    y 0.000000 1.830550 0.000000 
#    z 0.000000 0.000000 1.810040 
# 
# From -- ./inp_files/17132.got.cif
#   From: 2010.05.17/outbox.cif.g08.bks.cpg/sg64_9_cif.got.tgz:17132.got - 2010.06.03 16:29:19.
