data_PCOD9478291
_publ_section_title
;
Structure prediction by ZEFSAII (Michael W. Deem and Ramdas Pophale) SiO2 
 PCOD9478291
Probable space group: C M C A
;
_chemical_formula_sum "Si O2"
_cell_formula_units_Z 96
_cell_length_a 8.097761
_cell_length_b 24.250804
_cell_length_c 27.125212
_cell_angle_alpha 90.000000
_cell_angle_beta 90.000000
_cell_angle_gamma 90.000000
_cell_volume 5326.773585
_symmetry_space_group_name_H-M "C M C A"
_symmetry_group_IT_number 64
_symmetry_cell_setting 'orthorhombic'
loop_
_space_group_symop_operation_xyz
x,y,z
-x,1/2-y,1/2+z
x,-y,-z
-x,1/2+y,1/2-z
-x,-y,-z
x,1/2+y,1/2-z
-x,y,z
x,1/2-y,1/2+z
1/2+x,1/2+y,z
1/2-x,-y,1/2+z
1/2+x,1/2-y,-z
1/2-x,y,1/2-z
1/2-x,1/2-y,-z
1/2+x,y,1/2-z
1/2-x,1/2+y,z
1/2+x,-y,1/2+z
loop_
_atom_site_type_symbol
_atom_site_label
_atom_site_fract_x
_atom_site_fract_y
_atom_site_fract_z
Si Si1 0.698973 0.092159 0.806020
Si Si2 0.308428 0.494864 0.628130
Si Si3 0.197660 0.226067 0.446798
Si Si4 0.697036 0.668564 0.604824
Si Si5 0.809447 0.569963 0.542133
Si Si6 0.799447 0.899723 0.564591
O O1 0.500000 0.089921 0.808009
O O2 0.750000 0.099845 0.750000
O O3 0.764383 0.034578 0.829661
O O4 0.748477 0.141532 0.843115
O O5 0.500000 0.485932 0.640880
O O6 0.296604 0.532301 0.578790
O O7 0.238661 0.436033 0.610969
O O8 0.250000 0.250000 0.500000
O O9 0.259418 0.268476 0.405379
O O10 0.257389 0.163585 0.437962
O O11 0.000000 0.224833 0.446128
O O12 0.500000 0.661423 0.599254
O O13 0.783973 0.631690 0.562990
O O14 0.755915 0.570687 0.485737
O O15 0.000000 0.553601 0.546779
O O16 0.000000 0.899931 0.565294
#
# Coordination Sequence:
#
# PCOD9478291 Si02
#       6
#    16  16  16  16  16  16
#     4   9  19  35  57  79  98 124 163 214 268 313
#     4   9  19  35  51  70  99 135 169 203 250 310
#     4  11  21  32  50  75 104 142 180 215 249 297
#     4  10  20  35  52  73 103 138 174 212 256 307
#     4  11  20  29  46  73 103 134 170 212 251 292
#     4  10  20  33  49  68 100 143 176 200 244 304
#
# _framework density 18.022167
#
# number of rings (size 3 to 8) (size 9 to 14) (size 15 to 20)
#    0.000    2.000    1.667    4.000    0.000    6.667 
#    0.000    0.000    0.000    1.000    0.000    4.667 
#    0.000    0.000    0.000    0.000    0.000    0.000 
#
# Total GULP energy -267723.794070 kJ/mol
# GULP energy per Si atom -5577.579043 kJ/mol
# Density = 1.798115 g / cm^3
# Si number density = 18.022167 Si / 1000 Ang^3
#
#
#
# Elastic Constant Matrix: (Units=GPa)
#
#
# Indices 1 2 3 4 5 6 
#
# 1 27.8195 -1.1483 4.9815 0.0000 0.0000 0.0000
# 2 -1.1483 89.5604 37.7527 0.0000 0.0000 0.0000
# 3 4.9815 37.7527 101.8589 0.0000 0.0000 0.0000
# 4 0.0000 0.0000 0.0000 17.6313 0.0000 0.0000
# 5 0.0000 0.0000 0.0000 0.0000 21.7652 0.0000
# 6 0.0000 0.0000 0.0000 0.0000 0.0000 11.0027
#
#
#
# Elastic Compliance Matrix: (Units=1/GPa)
#
#
# Indices 1 2 3 4 5 6 
#
# 1 0.036420 0.001443 -0.002316 0.000000 0.000000 0.000000
# 2 0.001443 0.013290 -0.004996 0.000000 0.000000 0.000000
# 3 -0.002316 -0.004996 0.011783 0.000000 0.000000 0.000000
# 4 0.000000 0.000000 0.000000 0.056717 0.000000 0.000000
# 5 0.000000 0.000000 0.000000 0.000000 0.045945 0.000000
# 6 0.000000 0.000000 0.000000 0.000000 0.000000 0.090887
#
#
# Mechanical properties :
#
#
# Convention : Reuss Voigt Hill
#
# Bulk Modulus (GPa) = 20.09860 33.60116 26.84988
# Shear Modulus (GPa) = 17.64504 21.92337 19.78421
#
# Velocity S-wave (km/s) = 3.13241 3.49157 3.31686
# Velocity P-wave (km/s) = 4.92535 5.91097 5.44053
#
# Compressibility (1/GPa) = 0.04975472
#
# Stress axis : x y z
#
# Youngs Moduli (GPa) = 27.45721 75.24259 84.87046
#
# Poissons Ratio (x) = -0.10860 0.19657
# Poissons Ratio (y) = -0.03963 0.42405
# Poissons Ratio (z) = 0.06359 0.37595
#
# Static dielectric constant tensor:
#      x y z
#    x 1.643230 0.000000 0.000000 
#    y 0.000000 1.670200 0.000000 
#    z 0.000000 0.000000 1.598670 
# 
# From -- ./inp_files/43198.got.cif
#   From: 2010.05.17/outbox.cif.g08.bks.cpg/sg64_22_cif.got.tgz:43198.got - 2010.06.03 16:29:19.
