data_PCOD9478452
_publ_section_title
;
Structure prediction by ZEFSAII (Michael W. Deem and Ramdas Pophale) SiO2 
 PCOD9478452
Probable space group: C M C A
;
_chemical_formula_sum "Si O2"
_cell_formula_units_Z 80
_cell_length_a 8.901479
_cell_length_b 26.449686
_cell_length_c 19.703828
_cell_angle_alpha 90.000000
_cell_angle_beta 90.000000
_cell_angle_gamma 90.000000
_cell_volume 4639.095362
_symmetry_space_group_name_H-M "C M C A"
_symmetry_group_IT_number 64
_symmetry_cell_setting 'orthorhombic'
loop_
_space_group_symop_operation_xyz
x,y,z
-x,1/2-y,1/2+z
x,-y,-z
-x,1/2+y,1/2-z
-x,-y,-z
x,1/2+y,1/2-z
-x,y,z
x,1/2-y,1/2+z
1/2+x,1/2+y,z
1/2-x,-y,1/2+z
1/2+x,1/2-y,-z
1/2-x,y,1/2-z
1/2-x,1/2-y,-z
1/2+x,y,1/2-z
1/2-x,1/2+y,z
1/2+x,-y,1/2+z
loop_
_atom_site_type_symbol
_atom_site_label
_atom_site_fract_x
_atom_site_fract_y
_atom_site_fract_z
Si Si1 0.680011 0.143711 0.581221
Si Si2 0.820501 0.640288 0.420560
Si Si3 0.178874 0.442129 0.823614
Si Si4 0.180229 0.441171 0.175778
Si Si5 0.819609 0.747492 0.924634
O O1 0.500000 0.145109 0.587460
O O2 0.716575 0.138110 0.500903
O O3 0.749171 0.097695 0.622881
O O4 0.748940 0.197035 0.606524
O O5 0.739411 0.597305 0.378201
O O6 0.784141 0.697171 0.394561
O O7 0.000000 0.633804 0.414793
O O8 0.250000 0.431928 0.750000
O O9 0.215841 0.500377 0.842102
O O10 0.000000 0.438269 0.818328
O O11 0.250000 0.431747 0.250000
O O12 0.000000 0.435660 0.178183
O O13 0.000000 0.742904 0.928549
O O14 0.750000 0.750000 0.000000
#
# Coordination Sequence:
#
# PCOD9478452 Si02
#       5
#    16  16  16  16  16
#     4  10  20  34  54  80 107 138 173 213 259 306
#     4   9  19  34  53  78 107 137 171 210 255 304
#     4  10  21  36  55  76 102 137 174 213 260 309
#     4  10  21  37  55  76 103 137 174 214 260 311
#     4   9  17  31  51  76 106 139 172 210 257 308
#
# _framework density 17.244741999999999
#
# number of rings (size 3 to 8) (size 9 to 14) (size 15 to 20)
#    0.000    2.400    0.000    3.600    0.000    8.000 
#    0.000    5.000    0.000    4.800    0.000    0.000 
#    0.000    0.000    0.000    0.000    0.000    0.000 
#
# Total GULP energy -223050.279014 kJ/mol
# GULP energy per Si atom -5576.256975 kJ/mol
# Density = 1.720549 g / cm^3
# Si number density = 17.244742 Si / 1000 Ang^3
#
#
#
# Elastic Constant Matrix: (Units=GPa)
#
#
# Indices 1 2 3 4 5 6 
#
# 1 71.0305 80.2619 50.0062 0.0000 0.0000 0.0000
# 2 80.2619 172.8914 91.8942 0.0000 0.0000 0.0000
# 3 50.0062 91.8942 68.5863 0.0000 0.0000 0.0000
# 4 0.0000 0.0000 0.0000 -55.3947 0.0000 0.0000
# 5 0.0000 0.0000 0.0000 0.0000 31.5997 0.0000
# 6 0.0000 0.0000 0.0000 0.0000 0.0000 36.0703
#
#
#
# Elastic Compliance Matrix: (Units=1/GPa)
#
#
# Indices 1 2 3 4 5 6 
#
# 1 0.032220 -0.008586 -0.011988 0.000000 0.000000 0.000000
# 2 -0.008586 0.022381 -0.023727 0.000000 0.000000 0.000000
# 3 -0.011988 -0.023727 0.055111 0.000000 0.000000 0.000000
# 4 0.000000 0.000000 0.000000 -0.018052 0.000000 0.000000
# 5 0.000000 0.000000 0.000000 0.000000 0.031646 0.000000
# 6 0.000000 0.000000 0.000000 0.000000 0.000000 0.027724
#
#
# Mechanical properties :
#
#
# Convention : Reuss Voigt Hill
#
# Bulk Modulus (GPa) = 47.37053 84.09253 65.73153
# Shear Modulus (GPa) = 20.27036 8.47812 14.37424
#
# Velocity S-wave (km/s) = 3.43221 2.21969 2.89025
# Velocity P-wave (km/s) = 6.57540 7.44576 7.02408
#
# Compressibility (1/GPa) = 0.02111017
#
# Stress axis : x y z
#
# Youngs Moduli (GPa) = 31.03708 44.68103 18.14536
#
# Poissons Ratio (x) = 0.38361 0.21752
# Poissons Ratio (y) = 0.26647 0.43053
# Poissons Ratio (z) = 0.37207 1.06014
#
# Static dielectric constant tensor:
#      x y z
#    x 1.571630 0.000000 0.000000 
#    y 0.000000 1.607500 0.000000 
#    z 0.000000 0.000000 1.577790 
# 
# From -- ./inp_files/29749.got.cif
#   From: 2010.05.17/outbox.cif.g08.bks.cpg/sg64_15_cif.got.tgz:29749.got - 2010.06.03 16:29:19.
