data_PCOD9478769
_publ_section_title
;
Structure prediction by ZEFSAII (Michael W. Deem and Ramdas Pophale) SiO2 
 PCOD9478769
Probable space group: C M C A
;
_chemical_formula_sum "Si O2"
_cell_formula_units_Z 72
_cell_length_a 11.811545
_cell_length_b 9.352682
_cell_length_c 30.209319
_cell_angle_alpha 90.000000
_cell_angle_beta 90.000000
_cell_angle_gamma 90.000000
_cell_volume 3337.212121
_symmetry_space_group_name_H-M "C M C A"
_symmetry_group_IT_number 64
_symmetry_cell_setting 'orthorhombic'
loop_
_space_group_symop_operation_xyz
x,y,z
-x,1/2-y,1/2+z
x,-y,-z
-x,1/2+y,1/2-z
-x,-y,-z
x,1/2+y,1/2-z
-x,y,z
x,1/2-y,1/2+z
1/2+x,1/2+y,z
1/2-x,-y,1/2+z
1/2+x,1/2-y,-z
1/2-x,y,1/2-z
1/2-x,1/2-y,-z
1/2+x,y,1/2-z
1/2-x,1/2+y,z
1/2+x,-y,1/2+z
loop_
_atom_site_type_symbol
_atom_site_label
_atom_site_fract_x
_atom_site_fract_y
_atom_site_fract_z
Si Si1 0.268829 0.732331 0.152666
Si Si2 0.500000 0.100886 0.306070
Si Si3 0.748249 0.500000 0.000000
Si Si4 0.135608 0.251080 0.055824
Si Si5 0.000000 0.162484 0.756355
Si Si6 0.193971 0.002311 0.294030
O O1 0.386834 0.659590 0.170528
O O2 0.291542 0.747831 0.101029
O O3 0.171316 0.628429 0.171531
O O4 0.246250 0.884046 0.175256
O O5 0.500000 0.929796 0.300999
O O6 0.500000 0.170529 0.255855
O O7 0.825622 0.606967 0.970741
O O8 0.671238 0.391369 0.971213
O O9 0.000000 0.253322 0.064061
O O10 0.895561 0.098855 0.729320
O O11 0.250000 0.069951 0.250000
#
# Coordination Sequence:
#
# PCOD9478769 Si02
#       6
#    16   8   8  16   8  16
#     4  11  22  37  58  85 115 154 195 246 294 348
#     4  10  20  36  52  80 108 154 194 236 286 338
#     4  10  24  42  68  98 120 158 204 254 324 388
#     4  11  22  43  68  93 126 160 203 257 318 381
#     4  10  22  34  54  76 114 157 204 237 290 340
#     4  11  22  36  56  82 119 160 202 244 287 347
#
# _framework density 21.574894
#
# number of rings (size 3 to 8) (size 9 to 14) (size 15 to 20)
#    0.000    1.333    3.333    2.667    3.111    0.000 
#    0.000    0.000    4.889    0.000    0.000    0.000 
#    0.000    0.000    0.000    0.000    0.000    0.000 
#
# Total GULP energy -200551.811672 kJ/mol
# GULP energy per Si atom -5570.883658 kJ/mol
# Density = 2.152579 g / cm^3
# Si number density = 21.574894 Si / 1000 Ang^3
#
#
#
# Elastic Constant Matrix: (Units=GPa)
#
#
# Indices 1 2 3 4 5 6 
#
# 1 34.2615 -15.1342 19.1985 0.0000 0.0000 0.0000
# 2 -15.1342 129.7704 45.5384 0.0000 0.0000 0.0000
# 3 19.1985 45.5384 131.9509 0.0000 0.0000 0.0000
# 4 0.0000 0.0000 0.0000 23.9137 0.0000 0.0000
# 5 0.0000 0.0000 0.0000 0.0000 22.0646 0.0000
# 6 0.0000 0.0000 0.0000 0.0000 0.0000 31.2002
#
#
#
# Elastic Compliance Matrix: (Units=1/GPa)
#
#
# Indices 1 2 3 4 5 6 
#
# 1 0.036608 0.006984 -0.007737 0.000000 0.000000 0.000000
# 2 0.006984 0.010100 -0.004502 0.000000 0.000000 0.000000
# 3 -0.007737 -0.004502 0.010258 0.000000 0.000000 0.000000
# 4 0.000000 0.000000 0.000000 0.041817 0.000000 0.000000
# 5 0.000000 0.000000 0.000000 0.000000 0.045321 0.000000
# 6 0.000000 0.000000 0.000000 0.000000 0.000000 0.032051
#
#
# Mechanical properties :
#
#
# Convention : Reuss Voigt Hill
#
# Bulk Modulus (GPa) = 21.52527 43.90981 32.71754
# Shear Modulus (GPa) = 24.73412 31.86104 28.29758
#
# Velocity S-wave (km/s) = 3.38957 3.84704 3.62553
# Velocity P-wave (km/s) = 5.03166 6.33478 5.72044
#
# Compressibility (1/GPa) = 0.04645701
#
# Stress axis : x y z
#
# Youngs Moduli (GPa) = 27.31667 99.00757 97.48539
#
# Poissons Ratio (x) = -0.69149 0.75422
# Poissons Ratio (y) = -0.19079 0.43887
# Poissons Ratio (z) = 0.21134 0.44573
#
# Static dielectric constant tensor:
#      x y z
#    x 1.929600 0.000000 0.000000 
#    y 0.000000 1.864490 0.000000 
#    z 0.000000 0.000000 1.775020 
# 
# From -- ./inp_files/49851.got.cif
#   From: 2010.05.17/outbox.cif.g08.bks.cpg/sg64_25_cif.got.tgz:49851.got - 2010.06.03 16:29:19.
