data_PCOD9478368
_publ_section_title
;
Structure prediction by ZEFSAII (Michael W. Deem and Ramdas Pophale) SiO2 
 PCOD9478368
Probable space group: C M C A
;
_chemical_formula_sum "Si O2"
_cell_formula_units_Z 96
_cell_length_a 14.476650
_cell_length_b 28.635820
_cell_length_c 9.729531
_cell_angle_alpha 90.000000
_cell_angle_beta 90.000000
_cell_angle_gamma 90.000000
_cell_volume 4033.384311
_symmetry_space_group_name_H-M "C M C A"
_symmetry_group_IT_number 64
_symmetry_cell_setting 'orthorhombic'
loop_
_space_group_symop_operation_xyz
x,y,z
-x,1/2-y,1/2+z
x,-y,-z
-x,1/2+y,1/2-z
-x,-y,-z
x,1/2+y,1/2-z
-x,y,z
x,1/2-y,1/2+z
1/2+x,1/2+y,z
1/2-x,-y,1/2+z
1/2+x,1/2-y,-z
1/2-x,y,1/2-z
1/2-x,1/2-y,-z
1/2+x,y,1/2-z
1/2-x,1/2+y,z
1/2+x,-y,1/2+z
loop_
_atom_site_type_symbol
_atom_site_label
_atom_site_fract_x
_atom_site_fract_y
_atom_site_fract_z
Si Si1 0.866720 0.283603 0.877470
Si Si2 0.849645 0.799129 0.931537
Si Si3 0.604276 0.370268 0.434342
Si Si4 0.393810 0.544002 0.398872
Si Si5 0.611332 0.876354 0.362120
Si Si6 0.887171 0.015733 0.851326
O O1 0.893659 0.291224 0.718799
O O2 0.756201 0.286844 0.898162
O O3 0.901476 0.326462 0.967425
O O4 0.891204 0.235239 0.952502
O O5 0.851150 0.849767 0.004148
O O6 0.500000 0.387935 0.401919
O O7 0.650032 0.412707 0.519089
O O8 0.640628 0.354617 0.285271
O O9 0.398233 0.500000 0.500000
O O10 0.500000 0.558769 0.364753
O O11 0.354327 0.521434 0.260954
O O12 0.500000 0.874155 0.380381
O O13 0.638986 0.930233 0.338532
O O14 0.000000 0.015056 0.845042
O O15 0.856072 0.000000 0.000000
#
# Coordination Sequence:
#
# PCOD9478368 Si02
#       6
#    16  16  16  16  16  16
#     4  10  22  40  60  81 104 142 187 230 278 339
#     4  10  22  40  60  80 106 141 187 231 278 338
#     4  10  20  33  55  86 115 145 183 227 278 329
#     4   9  15  28  48  74 110 147 181 216 257 317
#     4  10  20  34  54  85 117 145 182 228 278 329
#     4   9  17  28  46  76 112 146 180 218 264 318
#
# _framework density 23.801349999999999
#
# number of rings (size 3 to 8) (size 9 to 14) (size 15 to 20)
#    0.000    2.333    1.667    1.000    2.333    3.333 
#    0.000    0.000    0.000    1.000    0.000    0.000 
#    0.000    0.000    0.000    0.000    0.000    0.000 
#
# Total GULP energy -267920.676382 kJ/mol
# GULP energy per Si atom -5581.680758 kJ/mol
# Density = 2.374718 g / cm^3
# Si number density = 23.801350 Si / 1000 Ang^3
#
#
#
# Elastic Constant Matrix: (Units=GPa)
#
#
# Indices 1 2 3 4 5 6 
#
# 1 68.9801 6.7947 20.2203 0.0000 0.0000 0.0000
# 2 6.7947 70.3394 33.0497 0.0000 0.0000 0.0000
# 3 20.2203 33.0497 195.0548 0.0000 0.0000 0.0000
# 4 0.0000 0.0000 0.0000 45.6692 0.0000 0.0000
# 5 0.0000 0.0000 0.0000 0.0000 4.4329 0.0000
# 6 0.0000 0.0000 0.0000 0.0000 0.0000 -1.6378
#
#
#
# Elastic Compliance Matrix: (Units=1/GPa)
#
#
# Indices 1 2 3 4 5 6 
#
# 1 0.014991 -0.000780 -0.001422 0.000000 0.000000 0.000000
# 2 -0.000780 0.015487 -0.002543 0.000000 0.000000 0.000000
# 3 -0.001422 -0.002543 0.005705 0.000000 0.000000 0.000000
# 4 0.000000 0.000000 0.000000 0.021897 0.000000 0.000000
# 5 0.000000 0.000000 0.000000 0.000000 0.225585 0.000000
# 6 0.000000 0.000000 0.000000 0.000000 0.000000 -0.610593
#
#
# Mechanical properties :
#
#
# Convention : Reuss Voigt Hill
#
# Bulk Modulus (GPa) = 37.46362 50.50039 43.98200
# Shear Modulus (GPa) = -16.20531 27.98017 5.88743
#
# Velocity S-wave (km/s) = -2.61215 3.43238 1.57446
# Velocity P-wave (km/s) = 2.58389 6.08045 4.67163
#
# Compressibility (1/GPa) = 0.02669257
#
# Stress axis : x y z
#
# Youngs Moduli (GPa) = 66.70866 64.56987 175.28241
#
# Poissons Ratio (x) = 0.05037 0.24922
# Poissons Ratio (y) = 0.05203 0.44579
# Poissons Ratio (z) = 0.09485 0.16422
#
# Static dielectric constant tensor:
#      x y z
#    x 2.048800 0.000000 0.000000 
#    y 0.000000 1.830750 0.000000 
#    z 0.000000 0.000000 1.816520 
# 
# From -- ./inp_files/8401.got.cif
#   From: 2010.05.17/outbox.cif.g08.bks.cpg/sg64_5_cif.got.tgz:8401.got - 2010.06.03 16:29:19.
