data_PCOD9478507
_publ_section_title
;
Structure prediction by ZEFSAII (Michael W. Deem and Ramdas Pophale) SiO2 
 PCOD9478507
Probable space group: C M C A
;
_chemical_formula_sum "Si O2"
_cell_formula_units_Z 104
_cell_length_a 22.071960
_cell_length_b 10.610029
_cell_length_c 21.560537
_cell_angle_alpha 90.000000
_cell_angle_beta 90.000000
_cell_angle_gamma 90.000000
_cell_volume 5049.135722
_symmetry_space_group_name_H-M "C M C A"
_symmetry_group_IT_number 64
_symmetry_cell_setting 'orthorhombic'
loop_
_space_group_symop_operation_xyz
x,y,z
-x,1/2-y,1/2+z
x,-y,-z
-x,1/2+y,1/2-z
-x,-y,-z
x,1/2+y,1/2-z
-x,y,z
x,1/2-y,1/2+z
1/2+x,1/2+y,z
1/2-x,-y,1/2+z
1/2+x,1/2-y,-z
1/2-x,y,1/2-z
1/2-x,1/2-y,-z
1/2+x,y,1/2-z
1/2-x,1/2+y,z
1/2+x,-y,1/2+z
loop_
_atom_site_type_symbol
_atom_site_label
_atom_site_fract_x
_atom_site_fract_y
_atom_site_fract_z
Si Si1 0.250000 0.469923 0.750000
Si Si2 0.322601 0.766669 0.428540
Si Si3 0.656427 0.035718 0.155848
Si Si4 0.568336 0.699685 0.269062
Si Si5 0.191086 0.339365 0.063538
Si Si6 0.148594 0.349951 0.663520
Si Si7 0.930203 0.589890 0.624616
O O1 0.295280 0.533517 0.701031
O O2 0.204194 0.392785 0.706617
O O3 0.319329 0.669862 0.370768
O O4 0.263623 0.856690 0.427710
O O5 0.319517 0.686558 0.491579
O O6 0.385554 0.841641 0.424158
O O7 0.599091 0.079826 0.196098
O O8 0.652137 0.948946 0.095527
O O9 0.500000 0.668238 0.251337
O O10 0.607334 0.734226 0.208919
O O11 0.568147 0.814335 0.317243
O O12 0.172854 0.216114 0.102391
O O13 0.105265 0.465639 0.645402
O O14 0.000000 0.568754 0.604940
#
# Coordination Sequence:
#
# PCOD9478507 Si02
#       7
#     8  16  16  16  16  16  16
#     4  10  20  34  56  86 122 150 194 250 308 362
#     4  10  22  41  61  86 123 166 206 255 308 360
#     4  10  20  38  59  88 118 158 205 252 302 370
#     4   9  21  39  60  84 120 163 199 246 306 368
#     4  11  23  37  61  92 124 158 206 259 310 362
#     4  11  22  36  57  93 120 156 202 252 309 365
#     4  10  22  43  64  84 121 167 207 247 303 371
#
# _framework density 20.597584999999999
#
# number of rings (size 3 to 8) (size 9 to 14) (size 15 to 20)
#    0.000    1.846    1.538    1.846    4.308    1.231 
#    0.000    3.846    0.000    3.692    0.000    0.000 
#    0.000    0.000    0.000    0.000    0.000    0.000 
#
# Total GULP energy -290140.262842 kJ/mol
# GULP energy per Si atom -5579.620439 kJ/mol
# Density = 2.055070 g / cm^3
# Si number density = 20.597585 Si / 1000 Ang^3
#
#
#
# Elastic Constant Matrix: (Units=GPa)
#
#
# Indices 1 2 3 4 5 6 
#
# 1 145.0959 23.2428 29.7505 0.0000 0.0000 0.0000
# 2 23.2428 37.0308 -6.5268 0.0000 0.0000 0.0000
# 3 29.7505 -6.5268 59.7370 0.0000 0.0000 0.0000
# 4 0.0000 0.0000 0.0000 -10.1362 0.0000 0.0000
# 5 0.0000 0.0000 0.0000 0.0000 21.7902 0.0000
# 6 0.0000 0.0000 0.0000 0.0000 0.0000 6.0826
#
#
#
# Elastic Compliance Matrix: (Units=1/GPa)
#
#
# Indices 1 2 3 4 5 6 
#
# 1 0.009013 -0.006575 -0.005207 0.000000 0.000000 0.000000
# 2 -0.006575 0.032331 0.006807 0.000000 0.000000 0.000000
# 3 -0.005207 0.006807 0.020077 0.000000 0.000000 0.000000
# 4 0.000000 0.000000 0.000000 -0.098656 0.000000 0.000000
# 5 0.000000 0.000000 0.000000 0.000000 0.045892 0.000000
# 6 0.000000 0.000000 0.000000 0.000000 0.000000 0.164404
#
#
# Mechanical properties :
#
#
# Convention : Reuss Voigt Hill
#
# Bulk Modulus (GPa) = 19.42838 37.19961 28.31400
# Shear Modulus (GPa) = 24.97911 16.57379 20.77645
#
# Velocity S-wave (km/s) = 3.48619 2.83971 3.17942
# Velocity P-wave (km/s) = 5.06533 5.37134 5.22058
#
# Compressibility (1/GPa) = 0.05147109
#
# Stress axis : x y z
#
# Youngs Moduli (GPa) = 110.95286 30.93003 49.80835
#
# Poissons Ratio (x) = 0.20336 0.25935
# Poissons Ratio (y) = 0.72949 -0.33904
# Poissons Ratio (z) = 0.57773 -0.21054
#
# Static dielectric constant tensor:
#      x y z
#    x 1.740630 0.000000 0.000000 
#    y 0.000000 1.759190 0.000000 
#    z 0.000000 0.000000 1.713710 
# 
# From -- ./inp_files/46325.got.cif
#   From: 2010.05.17/outbox.cif.g08.bks.cpg/sg64_24_cif.got.tgz:46325.got - 2010.06.03 16:29:19.
