data_PCOD9478629
_publ_section_title
;
Structure prediction by ZEFSAII (Michael W. Deem and Ramdas Pophale) SiO2 
 PCOD9478629
Probable space group: C M C A
;
_chemical_formula_sum "Si O2"
_cell_formula_units_Z 112
_cell_length_a 27.314466
_cell_length_b 15.231436
_cell_length_c 14.204317
_cell_angle_alpha 90.000000
_cell_angle_beta 90.000000
_cell_angle_gamma 90.000000
_cell_volume 5909.543317
_symmetry_space_group_name_H-M "C M C A"
_symmetry_group_IT_number 64
_symmetry_cell_setting 'orthorhombic'
loop_
_space_group_symop_operation_xyz
x,y,z
-x,1/2-y,1/2+z
x,-y,-z
-x,1/2+y,1/2-z
-x,-y,-z
x,1/2+y,1/2-z
-x,y,z
x,1/2-y,1/2+z
1/2+x,1/2+y,z
1/2-x,-y,1/2+z
1/2+x,1/2-y,-z
1/2-x,y,1/2-z
1/2-x,1/2-y,-z
1/2+x,y,1/2-z
1/2-x,1/2+y,z
1/2+x,-y,1/2+z
loop_
_atom_site_type_symbol
_atom_site_label
_atom_site_fract_x
_atom_site_fract_y
_atom_site_fract_z
Si Si1 0.942062 0.666894 0.318957
Si Si2 0.709215 0.295112 0.169637
Si Si3 0.804754 0.521057 0.593143
Si Si4 0.721502 0.398294 0.648503
Si Si5 0.872516 0.522822 0.229022
Si Si6 0.557721 0.603977 0.975906
Si Si7 0.399029 0.662281 0.773171
O O1 0.911928 0.595390 0.258456
O O2 0.926591 0.655384 0.428817
O O3 0.931146 0.762551 0.275637
O O4 0.000000 0.647983 0.315045
O O5 0.750000 0.307698 0.250000
O O6 0.710379 0.378666 0.102704
O O7 0.717209 0.202563 0.119583
O O8 0.655649 0.297700 0.217400
O O9 0.834254 0.500000 0.500000
O O10 0.757521 0.459297 0.590886
O O11 0.837864 0.496813 0.681233
O O12 0.750000 0.395168 0.750000
O O13 0.667484 0.439848 0.656357
O O14 0.896479 0.427623 0.212372
O O15 0.500000 0.622339 0.960690
O O16 0.560860 0.500000 0.000000
O O17 0.584086 0.633881 0.879101
#
# Coordination Sequence:
#
# PCOD9478629 Si02
#       7
#    16  16  16  16  16  16  16
#     4  11  23  37  59  92 120 155 204 251 308 363
#     4  10  20  35  56  81 112 153 196 237 289 355
#     4  10  21  33  54  84 115 146 192 242 292 349
#     4   9  18  37  54  76 112 150 188 234 286 347
#     4  10  20  36  59  81 115 154 195 245 299 359
#     4  10  21  38  61  92 121 150 203 265 303 349
#     4  11  21  36  63  88 123 160 197 244 315 362
#
# _framework density 18.952394999999999
#
# number of rings (size 3 to 8) (size 9 to 14) (size 15 to 20)
#    0.000    1.857    2.857    2.571    4.000    1.143 
#    0.000    2.857    0.000    0.000    0.000    3.000 
#    0.000    0.000    0.000    0.000    0.000    0.000 
#
# Total GULP energy -312311.594955 kJ/mol
# GULP energy per Si atom -5576.992767 kJ/mol
# Density = 1.890926 g / cm^3
# Si number density = 18.952395 Si / 1000 Ang^3
#
#
#
# Elastic Constant Matrix: (Units=GPa)
#
#
# Indices 1 2 3 4 5 6 
#
# 1 89.0276 24.6930 5.2213 0.0000 0.0000 0.0000
# 2 24.6930 136.8194 18.9355 0.0000 0.0000 0.0000
# 3 5.2213 18.9355 40.0519 0.0000 0.0000 0.0000
# 4 0.0000 0.0000 0.0000 -11.9696 0.0000 0.0000
# 5 0.0000 0.0000 0.0000 0.0000 11.9532 0.0000
# 6 0.0000 0.0000 0.0000 0.0000 0.0000 -53.0754
#
#
#
# Elastic Compliance Matrix: (Units=1/GPa)
#
#
# Indices 1 2 3 4 5 6 
#
# 1 0.011837 -0.002057 -0.000570 0.000000 0.000000 0.000000
# 2 -0.002057 0.008178 -0.003598 0.000000 0.000000 0.000000
# 3 -0.000570 -0.003598 0.026743 0.000000 0.000000 0.000000
# 4 0.000000 0.000000 0.000000 -0.083545 0.000000 0.000000
# 5 0.000000 0.000000 0.000000 0.000000 0.083660 0.000000
# 6 0.000000 0.000000 0.000000 0.000000 0.000000 -0.018841
#
#
# Mechanical properties :
#
#
# Convention : Reuss Voigt Hill
#
# Bulk Modulus (GPa) = 29.14948 40.39983 34.77466
# Shear Modulus (GPa) = 96.30501 3.85160 50.07830
#
# Velocity S-wave (km/s) = 7.13614 1.42712 5.14593
# Velocity P-wave (km/s) = 9.12760 4.90696 7.32773
#
# Compressibility (1/GPa) = 0.03430593
#
# Stress axis : x y z
#
# Youngs Moduli (GPa) = 84.48412 122.27648 37.39285
#
# Poissons Ratio (x) = 0.25156 0.02133
# Poissons Ratio (y) = 0.17381 0.13455
# Poissons Ratio (z) = 0.04819 0.43998
#
# Static dielectric constant tensor:
#      x y z
#    x 1.668740 0.000000 0.000000 
#    y 0.000000 1.670890 0.000000 
#    z 0.000000 0.000000 1.630190 
# 
# From -- ./inp_files/28065.got.cif
#   From: 2010.05.17/outbox.cif.g08.bks.cpg/sg64_15_cif.got.tgz:28065.got - 2010.06.03 16:29:19.
