data_PCOD9478797
_publ_section_title
;
Structure prediction by ZEFSAII (Michael W. Deem and Ramdas Pophale) SiO2 
 PCOD9478797
Probable space group: C M C A
;
_chemical_formula_sum "Si O2"
_cell_formula_units_Z 96
_cell_length_a 7.684602
_cell_length_b 20.618055
_cell_length_c 29.607674
_cell_angle_alpha 90.000000
_cell_angle_beta 90.000000
_cell_angle_gamma 90.000000
_cell_volume 4691.085662
_symmetry_space_group_name_H-M "C M C A"
_symmetry_group_IT_number 64
_symmetry_cell_setting 'orthorhombic'
loop_
_space_group_symop_operation_xyz
x,y,z
-x,1/2-y,1/2+z
x,-y,-z
-x,1/2+y,1/2-z
-x,-y,-z
x,1/2+y,1/2-z
-x,y,z
x,1/2-y,1/2+z
1/2+x,1/2+y,z
1/2-x,-y,1/2+z
1/2+x,1/2-y,-z
1/2-x,y,1/2-z
1/2-x,1/2-y,-z
1/2+x,y,1/2-z
1/2-x,1/2+y,z
1/2+x,-y,1/2+z
loop_
_atom_site_type_symbol
_atom_site_label
_atom_site_fract_x
_atom_site_fract_y
_atom_site_fract_z
Si Si1 0.207158 0.352408 0.302295
Si Si2 0.209608 0.998219 0.197374
Si Si3 0.289055 0.566742 0.477260
Si Si4 0.291138 0.690369 0.532438
Si Si5 0.207473 0.102977 0.125280
Si Si6 0.795160 0.749569 0.376077
O O1 0.250000 0.341741 0.250000
O O2 0.273539 0.425143 0.313814
O O3 0.278338 0.294686 0.332656
O O4 0.000000 0.352582 0.308001
O O5 0.250000 0.011691 0.250000
O O6 0.276638 0.052684 0.162812
O O7 0.000000 0.996281 0.193642
O O8 0.230803 0.500000 0.500000
O O9 0.500000 0.567254 0.477350
O O10 0.224261 0.625838 0.508340
O O11 0.235426 0.577113 0.425437
O O12 0.500000 0.682352 0.535894
O O13 0.250000 0.750000 0.500000
O O14 0.221266 0.710291 0.581475
O O15 0.277915 0.176730 0.128544
O O16 0.000000 0.106469 0.133158
O O17 0.000000 0.740517 0.385815
#
# Coordination Sequence:
#
# PCOD9478797 Si02
#       6
#    16  16  16  16  16  16
#     4  10  21  38  59  83 110 141 180 224 271 327
#     4   9  20  38  58  81 108 140 179 223 271 325
#     4  10  22  37  54  81 113 146 187 230 271 324
#     4  10  20  36  56  79 111 148 185 224 271 323
#     4  10  21  38  57  81 112 144 183 227 273 325
#     4  10  21  36  56  82 112 146 181 226 276 324
#
# _framework density 20.464345999999999
#
# number of rings (size 3 to 8) (size 9 to 14) (size 15 to 20)
#    0.000    2.167    1.667    0.500    2.333    3.667 
#    0.000    1.667    0.000    0.000    0.000    0.000 
#    0.000    0.000    0.000    0.000    0.000    0.000 
#
# Total GULP energy -267941.999479 kJ/mol
# GULP energy per Si atom -5582.124989 kJ/mol
# Density = 2.041777 g / cm^3
# Si number density = 20.464346 Si / 1000 Ang^3
#
#
#
# Elastic Constant Matrix: (Units=GPa)
#
#
# Indices 1 2 3 4 5 6 
#
# 1 27.0713 -10.1919 -17.8263 0.0000 0.0000 0.0000
# 2 -10.1919 197.6133 110.5119 0.0000 0.0000 0.0000
# 3 -17.8263 110.5119 124.6350 0.0000 0.0000 0.0000
# 4 0.0000 0.0000 0.0000 42.4577 0.0000 0.0000
# 5 0.0000 0.0000 0.0000 0.0000 22.0146 0.0000
# 6 0.0000 0.0000 0.0000 0.0000 0.0000 6.2244
#
#
#
# Elastic Compliance Matrix: (Units=1/GPa)
#
#
# Indices 1 2 3 4 5 6 
#
# 1 0.041313 -0.002328 0.007973 0.000000 0.000000 0.000000
# 2 -0.002328 0.010169 -0.009350 0.000000 0.000000 0.000000
# 3 0.007973 -0.009350 0.017454 0.000000 0.000000 0.000000
# 4 0.000000 0.000000 0.000000 0.023553 0.000000 0.000000
# 5 0.000000 0.000000 0.000000 0.000000 0.045424 0.000000
# 6 0.000000 0.000000 0.000000 0.000000 0.000000 0.160657
#
#
# Mechanical properties :
#
#
# Convention : Reuss Voigt Hill
#
# Bulk Modulus (GPa) = 16.25295 57.14523 36.69909
# Shear Modulus (GPa) = 15.31445 31.92773 23.62109
#
# Velocity S-wave (km/s) = 2.73856 3.95418 3.40112
# Velocity P-wave (km/s) = 4.23780 6.98801 5.77889
#
# Compressibility (1/GPa) = 0.06152729
#
# Stress axis : x y z
#
# Youngs Moduli (GPa) = 24.20525 98.33864 57.29334
#
# Poissons Ratio (x) = 0.22896 -0.45682
# Poissons Ratio (y) = 0.05636 0.53567
# Poissons Ratio (z) = -0.19300 0.91943
#
# Static dielectric constant tensor:
#      x y z
#    x 1.772960 0.000000 0.000000 
#    y 0.000000 1.740700 0.000000 
#    z 0.000000 0.000000 1.661940 
# 
# From -- ./inp_files/48080.got.cif
#   From: 2010.05.17/outbox.cif.g08.bks.cpg/sg64_25_cif.got.tgz:48080.got - 2010.06.03 16:29:19.
