data_PCOD9478242
_publ_section_title
;
Structure prediction by ZEFSAII (Michael W. Deem and Ramdas Pophale) SiO2 
 PCOD9478242
Probable space group: C M C A
;
_chemical_formula_sum "Si O2"
_cell_formula_units_Z 112
_cell_length_a 7.407063
_cell_length_b 25.188059
_cell_length_c 24.557807
_cell_angle_alpha 90.000000
_cell_angle_beta 90.000000
_cell_angle_gamma 90.000000
_cell_volume 4581.738752
_symmetry_space_group_name_H-M "C M C A"
_symmetry_group_IT_number 64
_symmetry_cell_setting 'orthorhombic'
loop_
_space_group_symop_operation_xyz
x,y,z
-x,1/2-y,1/2+z
x,-y,-z
-x,1/2+y,1/2-z
-x,-y,-z
x,1/2+y,1/2-z
-x,y,z
x,1/2-y,1/2+z
1/2+x,1/2+y,z
1/2-x,-y,1/2+z
1/2+x,1/2-y,-z
1/2-x,y,1/2-z
1/2-x,1/2-y,-z
1/2+x,y,1/2-z
1/2-x,1/2+y,z
1/2+x,-y,1/2+z
loop_
_atom_site_type_symbol
_atom_site_label
_atom_site_fract_x
_atom_site_fract_y
_atom_site_fract_z
Si Si1 0.208342 0.952990 0.533426
Si Si2 0.717436 0.339084 0.492299
Si Si3 0.286907 0.223346 0.812055
Si Si4 0.791705 0.186871 0.396057
Si Si5 0.716995 0.898061 0.809694
Si Si6 0.779689 0.376622 0.126364
Si Si7 0.707863 0.004951 0.848589
O O1 0.273888 0.894739 0.521195
O O2 0.000000 0.948925 0.513791
O O3 0.297754 0.000000 0.500000
O O4 0.206087 0.972991 0.594497
O O5 0.500000 0.331835 0.486030
O O6 0.778253 0.300997 0.542572
O O7 0.781398 0.348878 0.430394
O O8 0.500000 0.225651 0.820611
O O9 0.250000 0.237980 0.750000
O O10 0.208941 0.262759 0.856857
O O11 0.228407 0.163472 0.825661
O O12 0.712177 0.139789 0.358074
O O13 0.000000 0.170541 0.405214
O O14 0.500000 0.901264 0.816384
O O15 0.750000 0.874538 0.750000
O O16 0.789833 0.958635 0.811176
O O17 0.715886 0.436619 0.138821
O O18 0.000000 0.380447 0.122527
O O19 0.500000 0.014050 0.830782
#
# Coordination Sequence:
#
# PCOD9478242 Si02
#       7
#    16  16  16  16  16  16  16
#     4   9  12  18  40  73 107 138 164 197 249 310
#     4   9  15  26  48  81 114 138 165 210 268 324
#     4  11  24  41  58  76 101 141 188 228 265 310
#     4  10  20  35  57  83 109 138 173 218 271 326
#     4  10  20  32  49  76 106 136 175 221 269 316
#     4   9  18  31  51  79 110 141 175 218 266 315
#     4   9  15  26  45  73 107 137 167 209 260 311
#
# _framework density 24.444869000000001
#
# number of rings (size 3 to 8) (size 9 to 14) (size 15 to 20)
#    0.000    2.429    2.857    0.857    0.000    2.857 
#    0.000    0.000    0.000    1.714    0.000    0.000 
#    0.000    3.429    0.000    0.000    0.000    0.000 
#
# Total GULP energy -312146.732722 kJ/mol
# GULP energy per Si atom -5574.048799 kJ/mol
# Density = 2.438923 g / cm^3
# Si number density = 24.444869 Si / 1000 Ang^3
#
#
#
# Elastic Constant Matrix: (Units=GPa)
#
#
# Indices 1 2 3 4 5 6 
#
# 1 81.0228 -2.3119 -0.4315 0.0000 0.0000 0.0000
# 2 -2.3119 80.7344 34.4023 0.0000 0.0000 0.0000
# 3 -0.4315 34.4023 79.6907 0.0000 0.0000 0.0000
# 4 0.0000 0.0000 0.0000 39.5415 0.0000 0.0000
# 5 0.0000 0.0000 0.0000 0.0000 -20.6730 0.0000
# 6 0.0000 0.0000 0.0000 0.0000 0.0000 1487.2709
#
#
#
# Elastic Compliance Matrix: (Units=1/GPa)
#
#
# Indices 1 2 3 4 5 6 
#
# 1 0.012353 0.000399 -0.000105 0.000000 0.000000 0.000000
# 2 0.000399 0.015191 -0.006556 0.000000 0.000000 0.000000
# 3 -0.000105 -0.006556 0.015378 0.000000 0.000000 0.000000
# 4 0.000000 0.000000 0.000000 0.025290 0.000000 0.000000
# 5 0.000000 0.000000 0.000000 0.000000 -0.048372 0.000000
# 6 0.000000 0.000000 0.000000 0.000000 0.000000 0.000672
#
#
# Mechanical properties :
#
#
# Convention : Reuss Voigt Hill
#
# Bulk Modulus (GPa) = 32.89752 33.86284 33.38018
# Shear Modulus (GPa) = 115.82181 315.21384 215.51782
#
# Velocity S-wave (km/s) = 6.89084 11.36789 9.39980
# Velocity P-wave (km/s) = 8.76348 13.64507 11.46705
#
# Compressibility (1/GPa) = 0.03039742
#
# Stress axis : x y z
#
# Youngs Moduli (GPa) = 80.95185 65.82719 65.02752
#
# Poissons Ratio (x) = -0.02624 0.00684
# Poissons Ratio (y) = -0.03226 0.42631
# Poissons Ratio (z) = 0.00851 0.43156
#
# Static dielectric constant tensor:
#      x y z
#    x 2.051060 0.000000 0.000000 
#    y 0.000000 1.995290 0.000000 
#    z 0.000000 0.000000 1.896700 
# 
# From -- ./inp_files/44514.got.cif
#   From: 2010.05.17/outbox.cif.g08.bks.cpg/sg64_23_cif.got.tgz:44514.got - 2010.06.03 16:29:19.
