data_PCOD9478597
_publ_section_title
;
Structure prediction by ZEFSAII (Michael W. Deem and Ramdas Pophale) SiO2 
 PCOD9478597
Probable space group: C M C A
;
_chemical_formula_sum "Si O2"
_cell_formula_units_Z 96
_cell_length_a 8.228872
_cell_length_b 18.692100
_cell_length_c 31.921038
_cell_angle_alpha 90.000000
_cell_angle_beta 90.000000
_cell_angle_gamma 90.000000
_cell_volume 4909.931214
_symmetry_space_group_name_H-M "C M C A"
_symmetry_group_IT_number 64
_symmetry_cell_setting 'orthorhombic'
loop_
_space_group_symop_operation_xyz
x,y,z
-x,1/2-y,1/2+z
x,-y,-z
-x,1/2+y,1/2-z
-x,-y,-z
x,1/2+y,1/2-z
-x,y,z
x,1/2-y,1/2+z
1/2+x,1/2+y,z
1/2-x,-y,1/2+z
1/2+x,1/2-y,-z
1/2-x,y,1/2-z
1/2-x,1/2-y,-z
1/2+x,y,1/2-z
1/2-x,1/2+y,z
1/2+x,-y,1/2+z
loop_
_atom_site_type_symbol
_atom_site_label
_atom_site_fract_x
_atom_site_fract_y
_atom_site_fract_z
Si Si1 0.805674 0.041368 0.296016
Si Si2 0.301016 0.207116 0.622846
Si Si3 0.195811 0.956906 0.122681
Si Si4 0.195925 0.706095 0.204064
Si Si5 0.803656 0.042875 0.041125
Si Si6 0.305512 0.706649 0.459290
O O1 0.750000 0.016977 0.250000
O O2 0.747542 0.123774 0.301404
O O3 0.000000 0.041885 0.297046
O O4 0.743288 0.993051 0.333690
O O5 0.500000 0.207065 0.622885
O O6 0.246956 0.125014 0.619995
O O7 0.247512 0.244800 0.665843
O O8 0.247835 0.252887 0.582703
O O9 0.000000 0.955375 0.120357
O O10 0.255322 0.003923 0.083397
O O11 0.250000 0.730882 0.250000
O O12 0.000000 0.705306 0.203311
O O13 0.753683 0.125262 0.039668
O O14 0.000000 0.040168 0.041199
O O15 0.747011 0.000000 0.000000
O O16 0.500000 0.706332 0.458363
O O17 0.250000 0.750000 0.500000
#
# Coordination Sequence:
#
# PCOD9478597 Si02
#       6
#    16  16  16  16  16  16
#     4  10  20  35  55  79 108 142 182 228 277 328
#     4   9  19  36  56  78 108 145 179 217 272 330
#     4  10  20  35  56  80 109 145 183 223 272 330
#     4   9  18  34  55  77 103 137 177 219 265 318
#     4  10  21  38  59  83 114 151 188 228 278 334
#     4  11  22  38  60  84 112 146 186 231 279 333
#
# _framework density 19.552209000000001
#
# number of rings (size 3 to 8) (size 9 to 14) (size 15 to 20)
#    0.000    2.167    0.000    3.000    0.000    6.333 
#    0.000    7.500    0.000    0.000    0.000    0.000 
#    0.000    0.000    0.000    0.000    0.000    0.000 
#
# Total GULP energy -268120.886226 kJ/mol
# GULP energy per Si atom -5585.851796 kJ/mol
# Density = 1.950771 g / cm^3
# Si number density = 19.552209 Si / 1000 Ang^3
#
#
#
# Elastic Constant Matrix: (Units=GPa)
#
#
# Indices 1 2 3 4 5 6 
#
# 1 11.1072 15.0123 16.4753 0.0000 0.0000 0.0000
# 2 15.0123 183.0210 139.8731 0.0000 0.0000 0.0000
# 3 16.4753 139.8731 218.6902 0.0000 0.0000 0.0000
# 4 0.0000 0.0000 0.0000 42.7305 0.0000 0.0000
# 5 0.0000 0.0000 0.0000 0.0000 25.3843 0.0000
# 6 0.0000 0.0000 0.0000 0.0000 0.0000 16.3434
#
#
#
# Elastic Compliance Matrix: (Units=1/GPa)
#
#
# Indices 1 2 3 4 5 6 
#
# 1 0.103605 -0.004955 -0.004636 0.000000 0.000000 0.000000
# 2 -0.004955 0.010925 -0.006615 0.000000 0.000000 0.000000
# 3 -0.004636 -0.006615 0.009153 0.000000 0.000000 0.000000
# 4 0.000000 0.000000 0.000000 0.023402 0.000000 0.000000
# 5 0.000000 0.000000 0.000000 0.000000 0.039394 0.000000
# 6 0.000000 0.000000 0.000000 0.000000 0.000000 0.061187
#
#
# Mechanical properties :
#
#
# Convention : Reuss Voigt Hill
#
# Bulk Modulus (GPa) = 10.95629 83.94888 47.45258
# Shear Modulus (GPa) = 16.10295 32.98883 24.54589
#
# Velocity S-wave (km/s) = 2.87293 4.11203 3.54701
# Velocity P-wave (km/s) = 4.07686 8.09778 6.41073
#
# Compressibility (1/GPa) = 0.09127176
#
# Stress axis : x y z
#
# Youngs Moduli (GPa) = 9.65203 91.52930 109.25914
#
# Poissons Ratio (x) = 0.45356 0.50650
# Poissons Ratio (y) = 0.04783 0.72270
# Poissons Ratio (z) = 0.04474 0.60543
#
# Static dielectric constant tensor:
#      x y z
#    x 1.691000 0.000000 0.000000 
#    y 0.000000 1.662830 0.000000 
#    z 0.000000 0.000000 1.664500 
# 
# From -- ./inp_files/48162.got.cif
#   From: 2010.05.17/outbox.cif.g08.bks.cpg/sg64_25_cif.got.tgz:48162.got - 2010.06.03 16:29:19.
