data_PCOD9478303
_publ_section_title
;
Structure prediction by ZEFSAII (Michael W. Deem and Ramdas Pophale) SiO2 
 PCOD9478303
Probable space group: C M C A
;
_chemical_formula_sum "Si O2"
_cell_formula_units_Z 96
_cell_length_a 24.827313
_cell_length_b 18.426928
_cell_length_c 10.319525
_cell_angle_alpha 90.000000
_cell_angle_beta 90.000000
_cell_angle_gamma 90.000000
_cell_volume 4721.090937
_symmetry_space_group_name_H-M "C M C A"
_symmetry_group_IT_number 64
_symmetry_cell_setting 'orthorhombic'
loop_
_space_group_symop_operation_xyz
x,y,z
-x,1/2-y,1/2+z
x,-y,-z
-x,1/2+y,1/2-z
-x,-y,-z
x,1/2+y,1/2-z
-x,y,z
x,1/2-y,1/2+z
1/2+x,1/2+y,z
1/2-x,-y,1/2+z
1/2+x,1/2-y,-z
1/2-x,y,1/2-z
1/2-x,1/2-y,-z
1/2+x,y,1/2-z
1/2-x,1/2+y,z
1/2+x,-y,1/2+z
loop_
_atom_site_type_symbol
_atom_site_label
_atom_site_fract_x
_atom_site_fract_y
_atom_site_fract_z
Si Si1 0.410136 0.598246 0.752294
Si Si2 0.645371 0.300809 0.918924
Si Si3 0.439853 0.318863 0.500660
Si Si4 0.690031 0.803057 0.298279
Si Si5 0.940210 0.585673 0.470150
Si Si6 0.434958 0.541123 0.369809
O O1 0.440204 0.632295 0.629599
O O2 0.351091 0.633006 0.757228
O O3 0.438724 0.619032 0.885108
O O4 0.411274 0.511243 0.738203
O O5 0.600391 0.244442 0.969076
O O6 0.670158 0.267470 0.786391
O O7 0.685509 0.300915 0.044206
O O8 0.611421 0.375623 0.904970
O O9 0.500000 0.293406 0.529286
O O10 0.421584 0.374668 0.612521
O O11 0.750000 0.817767 0.250000
O O12 0.935579 0.500000 0.500000
O O13 0.000000 0.598818 0.410699
O O14 0.416869 0.500000 0.500000
O O15 0.500000 0.536888 0.363685
#
# Coordination Sequence:
#
# PCOD9478303 Si02
#       6
#    16  16  16  16  16  16
#     4   9  17  30  50  72 102 144 181 214 259 320
#     4  10  21  36  57  81 106 138 181 226 268 323
#     4   9  16  28  50  81 112 139 171 214 262 316
#     4  10  21  38  58  77 101 139 184 232 277 310
#     4  10  20  33  50  75 110 147 175 207 264 337
#     4   8  13  23  43  72 103 131 159 196 246 304
#
# _framework density 20.334282999999999
#
# number of rings (size 3 to 8) (size 9 to 14) (size 15 to 20)
#    0.000    2.667    0.000    3.500    0.000    1.333 
#    0.000    4.167    0.000   29.000    0.000    0.000 
#    0.000    0.000    0.000    0.000    0.000    0.000 
#
# Total GULP energy -267367.969724 kJ/mol
# GULP energy per Si atom -5570.166036 kJ/mol
# Density = 2.028800 g / cm^3
# Si number density = 20.334283 Si / 1000 Ang^3
#
#
#
# Elastic Constant Matrix: (Units=GPa)
#
#
# Indices 1 2 3 4 5 6 
#
# 1 86.0266 18.5293 -0.6442 0.0000 0.0000 0.0000
# 2 18.5293 64.4927 -5.8403 0.0000 0.0000 0.0000
# 3 -0.6442 -5.8403 92.0440 0.0000 0.0000 0.0000
# 4 0.0000 0.0000 0.0000 23.1365 0.0000 0.0000
# 5 0.0000 0.0000 0.0000 0.0000 4.2131 0.0000
# 6 0.0000 0.0000 0.0000 0.0000 0.0000 7.4241
#
#
#
# Elastic Compliance Matrix: (Units=1/GPa)
#
#
# Indices 1 2 3 4 5 6 
#
# 1 0.012393 -0.003573 -0.000140 0.000000 0.000000 0.000000
# 2 -0.003573 0.016626 0.001030 0.000000 0.000000 0.000000
# 3 -0.000140 0.001030 0.010929 0.000000 0.000000 0.000000
# 4 0.000000 0.000000 0.000000 0.043222 0.000000 0.000000
# 5 0.000000 0.000000 0.000000 0.000000 0.237354 0.000000
# 6 0.000000 0.000000 0.000000 0.000000 0.000000 0.134697
#
#
# Mechanical properties :
#
#
# Convention : Reuss Voigt Hill
#
# Bulk Modulus (GPa) = 28.91806 29.62809 29.27307
# Shear Modulus (GPa) = 10.59067 22.32263 16.45665
#
# Velocity S-wave (km/s) = 2.28464 3.31688 2.84792
# Velocity P-wave (km/s) = 4.60561 5.41027 5.02408
#
# Compressibility (1/GPa) = 0.03458047
#
# Stress axis : x y z
#
# Youngs Moduli (GPa) = 80.69128 60.14845 91.50185
#
# Poissons Ratio (x) = 0.21493 0.01281
# Poissons Ratio (y) = 0.28833 -0.09424
# Poissons Ratio (z) = 0.01130 -0.06195
#
# Static dielectric constant tensor:
#      x y z
#    x 1.692690 0.000000 0.000000 
#    y 0.000000 1.780670 0.000000 
#    z 0.000000 0.000000 1.801720 
# 
# From -- ./inp_files/17365.got.cif
#   From: 2010.05.17/outbox.cif.g08.bks.cpg/sg64_9_cif.got.tgz:17365.got - 2010.06.03 16:29:19.
