data_PCOD9478038
_publ_section_title
;
Structure prediction by ZEFSAII (Michael W. Deem and Ramdas Pophale) SiO2 
 PCOD9478038
Probable space group: C M C A
;
_chemical_formula_sum "Si O2"
_cell_formula_units_Z 80
_cell_length_a 11.208776
_cell_length_b 13.248346
_cell_length_c 22.539386
_cell_angle_alpha 90.000000
_cell_angle_beta 90.000000
_cell_angle_gamma 90.000000
_cell_volume 3347.047942
_symmetry_space_group_name_H-M "C M C A"
_symmetry_group_IT_number 64
_symmetry_cell_setting 'orthorhombic'
loop_
_space_group_symop_operation_xyz
x,y,z
-x,1/2-y,1/2+z
x,-y,-z
-x,1/2+y,1/2-z
-x,-y,-z
x,1/2+y,1/2-z
-x,y,z
x,1/2-y,1/2+z
1/2+x,1/2+y,z
1/2-x,-y,1/2+z
1/2+x,1/2-y,-z
1/2-x,y,1/2-z
1/2-x,1/2-y,-z
1/2+x,y,1/2-z
1/2-x,1/2+y,z
1/2+x,-y,1/2+z
loop_
_atom_site_type_symbol
_atom_site_label
_atom_site_fract_x
_atom_site_fract_y
_atom_site_fract_z
Si Si1 0.779796 0.550340 0.891646
Si Si2 0.368830 0.346707 0.006321
Si Si3 0.819863 0.664267 0.084690
Si Si4 0.207695 0.769216 0.314509
Si Si5 0.367460 0.951545 0.708675
O O1 0.500000 0.481384 0.769812
O O2 0.723319 0.593632 0.951810
O O3 0.841323 0.639588 0.854262
O O4 0.670314 0.513453 0.849737
O O5 0.500000 0.389771 0.008242
O O6 0.374981 0.234395 0.034331
O O7 0.315539 0.343545 0.940712
O O8 0.181858 0.725866 0.145832
O O9 0.856437 0.549575 0.095326
O O10 0.250000 0.804833 0.250000
O O11 0.131482 0.668538 0.304478
O O12 0.250000 0.963627 0.750000
#
# Coordination Sequence:
#
# PCOD9478038 Si02
#       5
#    16  16  16  16  16
#     4  10  19  36  61  89 117 153 203 259 312 367
#     4  10  20  36  60  87 117 157 201 247 303 371
#     4   9  20  35  56  87 122 151 193 251 305 362
#     4   9  19  37  58  84 118 157 201 253 312 369
#     4  10  21  39  61  87 122 164 212 264 320 383
#
# _framework density 23.90166
#
# number of rings (size 3 to 8) (size 9 to 14) (size 15 to 20)
#    0.000    2.400    0.000    1.800    0.000    5.600 
#    0.000   35.000    0.000   20.400    0.000    0.000 
#    0.000    0.000    0.000    0.000    0.000    0.000 
#
# Total GULP energy -223168.956325 kJ/mol
# GULP energy per Si atom -5579.223908 kJ/mol
# Density = 2.384726 g / cm^3
# Si number density = 23.901660 Si / 1000 Ang^3
#
#
#
# Elastic Constant Matrix: (Units=GPa)
#
#
# Indices 1 2 3 4 5 6 
#
# 1 95.1675 11.4647 31.0947 0.0000 0.0000 0.0000
# 2 11.4647 151.9352 32.1354 0.0000 0.0000 0.0000
# 3 31.0947 32.1354 126.5282 0.0000 0.0000 0.0000
# 4 0.0000 0.0000 0.0000 50.1883 0.0000 0.0000
# 5 0.0000 0.0000 0.0000 0.0000 -1.1843 0.0000
# 6 0.0000 0.0000 0.0000 0.0000 0.0000 -1.7525
#
#
#
# Elastic Compliance Matrix: (Units=1/GPa)
#
#
# Indices 1 2 3 4 5 6 
#
# 1 0.011437 -0.000284 -0.002739 0.000000 0.000000 0.000000
# 2 -0.000284 0.006962 -0.001699 0.000000 0.000000 0.000000
# 3 -0.002739 -0.001699 0.009008 0.000000 0.000000 0.000000
# 4 0.000000 0.000000 0.000000 0.019925 0.000000 0.000000
# 5 0.000000 0.000000 0.000000 0.000000 -0.844357 0.000000
# 6 0.000000 0.000000 0.000000 0.000000 0.000000 -0.570614
#
#
# Mechanical properties :
#
#
# Convention : Reuss Voigt Hill
#
# Bulk Modulus (GPa) = 55.66317 58.11338 56.88827
# Shear Modulus (GPa) = -3.69766 29.37936 12.84085
#
# Velocity S-wave (km/s) = -1.24515 3.50976 2.32035
# Velocity P-wave (km/s) = 4.61213 6.38678 5.57058
#
# Compressibility (1/GPa) = 0.01796520
#
# Stress axis : x y z
#
# Youngs Moduli (GPa) = 87.43734 143.62816 111.01512
#
# Poissons Ratio (x) = 0.04076 0.30402
# Poissons Ratio (y) = 0.02481 0.18857
# Poissons Ratio (z) = 0.23945 0.24396
#
# Static dielectric constant tensor:
#      x y z
#    x 1.881900 0.000000 0.000000 
#    y 0.000000 1.970180 0.000000 
#    z 0.000000 0.000000 1.897620 
# 
# From -- ./inp_files/43933.got.cif
#   From: 2010.05.17/outbox.cif.g08.bks.cpg/sg64_22_cif.got.tgz:43933.got - 2010.06.03 16:29:19.
