data_PCOD9478680
_publ_section_title
;
Structure prediction by ZEFSAII (Michael W. Deem and Ramdas Pophale) SiO2 
 PCOD9478680
Probable space group: C M C A
;
_chemical_formula_sum "Si O2"
_cell_formula_units_Z 116
_cell_length_a 16.306992
_cell_length_b 29.691292
_cell_length_c 12.619930
_cell_angle_alpha 90.000000
_cell_angle_beta 90.000000
_cell_angle_gamma 90.000000
_cell_volume 6110.262951
_symmetry_space_group_name_H-M "C M C A"
_symmetry_group_IT_number 64
_symmetry_cell_setting 'orthorhombic'
loop_
_space_group_symop_operation_xyz
x,y,z
-x,1/2-y,1/2+z
x,-y,-z
-x,1/2+y,1/2-z
-x,-y,-z
x,1/2+y,1/2-z
-x,y,z
x,1/2-y,1/2+z
1/2+x,1/2+y,z
1/2-x,-y,1/2+z
1/2+x,1/2-y,-z
1/2-x,y,1/2-z
1/2-x,1/2-y,-z
1/2+x,y,1/2-z
1/2-x,1/2+y,z
1/2+x,-y,1/2+z
loop_
_atom_site_type_symbol
_atom_site_label
_atom_site_fract_x
_atom_site_fract_y
_atom_site_fract_z
Si Si1 0.670959 0.448237 0.007521
Si Si2 0.158409 0.839135 0.515542
Si Si3 0.402084 0.895927 0.294193
Si Si4 0.500000 0.000000 0.000000
Si Si5 0.596669 0.202199 0.231321
Si Si6 0.900588 0.301495 0.203384
Si Si7 0.141700 0.566786 0.928194
Si Si8 0.194112 0.372909 0.647141
O O1 0.626943 0.420438 0.100351
O O2 0.768337 0.448221 0.034128
O O3 0.643218 0.500000 0.000000
O O4 0.658699 0.418854 0.900987
O O5 0.119062 0.812607 0.612713
O O6 0.145289 0.813233 0.405960
O O7 0.119087 0.888393 0.495670
O O8 0.250083 0.850781 0.554715
O O9 0.500000 0.901367 0.281067
O O10 0.384720 0.842382 0.285212
O O11 0.357016 0.917989 0.193711
O O12 0.572155 0.969566 0.055978
O O13 0.500000 0.202415 0.242944
O O14 0.625981 0.252741 0.255569
O O15 0.633248 0.165126 0.310642
O O16 0.000000 0.301253 0.184061
O O17 0.250000 0.383638 0.750000
#
# Coordination Sequence:
#
# PCOD9478680 Si02
#       8
#    16  16  16   4  16  16  16  16
#     4  11  23  40  58  83 122 164 194 237 304 359
#     4   9  19  37  58  79 115 147 181 243 295 336
#     4  10  21  39  60  85 121 156 197 244 291 359
#     4  12  20  36  68  96 104 140 208 268 296 340
#     4  10  20  35  57  87 112 150 194 239 297 350
#     4   9  19  35  59  87 115 150 195 245 288 341
#     4  10  21  39  61  90 114 142 199 258 300 342
#     4   9  21  40  56  80 115 148 194 245 290 348
#
# _framework density 18.984452999999998
#
# number of rings (size 3 to 8) (size 9 to 14) (size 15 to 20)
#    0.000    2.207    1.379    0.828    1.931    3.586 
#    2.483   13.793    0.000    0.000    0.000    0.000 
#    0.000    0.000    0.000    0.000    0.000    0.000 
#
# Total GULP energy -323053.023974 kJ/mol
# GULP energy per Si atom -5569.879724 kJ/mol
# Density = 1.894124 g / cm^3
# Si number density = 18.984453 Si / 1000 Ang^3
#
#
#
# Elastic Constant Matrix: (Units=GPa)
#
#
# Indices 1 2 3 4 5 6 
#
# 1 15.8882 15.5912 10.8531 0.0000 0.0000 0.0000
# 2 15.5912 137.6030 68.0908 0.0000 0.0000 0.0000
# 3 10.8531 68.0908 80.4720 0.0000 0.0000 0.0000
# 4 0.0000 0.0000 0.0000 19.2691 0.0000 0.0000
# 5 0.0000 0.0000 0.0000 0.0000 208.0011 0.0000
# 6 0.0000 0.0000 0.0000 0.0000 0.0000 18.7915
#
#
#
# Elastic Compliance Matrix: (Units=1/GPa)
#
#
# Indices 1 2 3 4 5 6 
#
# 1 0.071885 -0.005759 -0.004822 0.000000 0.000000 0.000000
# 2 -0.005759 0.012963 -0.010192 0.000000 0.000000 0.000000
# 3 -0.004822 -0.010192 0.021701 0.000000 0.000000 0.000000
# 4 0.000000 0.000000 0.000000 0.051897 0.000000 0.000000
# 5 0.000000 0.000000 0.000000 0.000000 0.004808 0.000000
# 6 0.000000 0.000000 0.000000 0.000000 0.000000 0.053216
#
#
# Mechanical properties :
#
#
# Convention : Reuss Voigt Hill
#
# Bulk Modulus (GPa) = 15.38392 47.00372 31.19382
# Shear Modulus (GPa) = 17.87742 58.50754 38.19248
#
# Velocity S-wave (km/s) = 3.07202 5.55748 4.49015
# Velocity P-wave (km/s) = 4.55018 8.12364 6.58398
#
# Compressibility (1/GPa) = 0.06500292
#
# Stress axis : x y z
#
# Youngs Moduli (GPa) = 13.91114 77.14182 46.08097
#
# Poissons Ratio (x) = 0.44424 0.22222
# Poissons Ratio (y) = 0.08011 0.46966
# Poissons Ratio (z) = 0.06708 0.78623
#
# Static dielectric constant tensor:
#      x y z
#    x 1.663410 0.000000 0.000000 
#    y 0.000000 1.676750 0.000000 
#    z 0.000000 0.000000 1.642720 
# 
# From -- ./inp_files/16546.got.cif
#   From: 2010.05.17/outbox.cif.g08.bks.cpg/sg64_9_cif.got.tgz:16546.got - 2010.06.03 16:29:19.
