data_PCOD9478528
_publ_section_title
;
Structure prediction by ZEFSAII (Michael W. Deem and Ramdas Pophale) SiO2 
 PCOD9478528
Probable space group: C M C A
;
_chemical_formula_sum "Si O2"
_cell_formula_units_Z 116
_cell_length_a 8.389925
_cell_length_b 26.141438
_cell_length_c 29.461427
_cell_angle_alpha 90.000000
_cell_angle_beta 90.000000
_cell_angle_gamma 90.000000
_cell_volume 6461.618762
_symmetry_space_group_name_H-M "C M C A"
_symmetry_group_IT_number 64
_symmetry_cell_setting 'orthorhombic'
loop_
_space_group_symop_operation_xyz
x,y,z
-x,1/2-y,1/2+z
x,-y,-z
-x,1/2+y,1/2-z
-x,-y,-z
x,1/2+y,1/2-z
-x,y,z
x,1/2-y,1/2+z
1/2+x,1/2+y,z
1/2-x,-y,1/2+z
1/2+x,1/2-y,-z
1/2-x,y,1/2-z
1/2-x,1/2-y,-z
1/2+x,y,1/2-z
1/2-x,1/2+y,z
1/2+x,-y,1/2+z
loop_
_atom_site_type_symbol
_atom_site_label
_atom_site_fract_x
_atom_site_fract_y
_atom_site_fract_z
Si Si1 0.688398 0.289411 0.798388
Si Si2 0.814046 0.251468 0.890387
Si Si3 0.310456 0.453923 0.450497
Si Si4 0.686420 0.346799 0.946004
Si Si5 0.814099 0.660590 0.952064
Si Si6 0.191244 0.092871 0.200499
Si Si7 0.814929 0.056548 0.393750
Si Si8 0.500000 0.000000 0.500000
O O1 0.500000 0.293233 0.795735
O O2 0.750000 0.270509 0.750000
O O3 0.733400 0.255875 0.841390
O O4 0.749068 0.348027 0.805102
O O5 0.775796 0.303701 0.917161
O O6 0.757044 0.204151 0.920537
O O7 0.000000 0.247464 0.883082
O O8 0.500000 0.456116 0.469060
O O9 0.298950 0.396491 0.431940
O O10 0.298806 0.500110 0.414666
O O11 0.149262 0.462449 0.480816
O O12 0.500000 0.337036 0.941039
O O13 0.723989 0.402437 0.925122
O O14 0.736396 0.342004 0.998176
O O15 0.000000 0.672157 0.958682
O O16 0.250000 0.075407 0.250000
O O17 0.254142 0.061561 0.157556
O O18 0.000000 0.092288 0.199572
O O19 0.000000 0.070833 0.395289
#
# Coordination Sequence:
#
# PCOD9478528 Si02
#       8
#    16  16  16  16  16  16  16   4
#     4  10  20  36  58  86 118 150 189 239 295 354
#     4  12  24  39  60  86 117 158 200 242 298 359
#     4  10  25  41  59  89 120 159 204 253 305 351
#     4  12  24  37  56  86 118 156 201 245 295 355
#     4  11  24  43  60  80 119 161 204 253 297 351
#     4  10  20  34  57  87 120 154 190 237 301 365
#     4  11  22  38  59  86 122 155 197 250 300 354
#     4  12  22  36  68  82 120 152 206 252 296 348
#
# _framework density 17.952158000000001
#
# number of rings (size 3 to 8) (size 9 to 14) (size 15 to 20)
#    0.000    1.103    1.379    5.586    5.793    3.310 
#    0.000    0.000    0.000    0.828    0.000    3.862 
#    0.000    0.000    0.000    0.000    0.000    0.000 
#
# Total GULP energy -323300.080869 kJ/mol
# GULP energy per Si atom -5574.139325 kJ/mol
# Density = 1.791130 g / cm^3
# Si number density = 17.952158 Si / 1000 Ang^3
#
#
#
# Elastic Constant Matrix: (Units=GPa)
#
#
# Indices 1 2 3 4 5 6 
#
# 1 65.2229 -3.8063 8.3405 0.0000 0.0000 0.0000
# 2 -3.8063 61.7956 42.1782 0.0000 0.0000 0.0000
# 3 8.3405 42.1782 104.9863 0.0000 0.0000 0.0000
# 4 0.0000 0.0000 0.0000 8.3055 0.0000 0.0000
# 5 0.0000 0.0000 0.0000 0.0000 29.1565 0.0000
# 6 0.0000 0.0000 0.0000 0.0000 0.0000 16.4950
#
#
#
# Elastic Compliance Matrix: (Units=1/GPa)
#
#
# Indices 1 2 3 4 5 6 
#
# 1 0.015768 0.002516 -0.002264 0.000000 0.000000 0.000000
# 2 0.002516 0.022698 -0.009319 0.000000 0.000000 0.000000
# 3 -0.002264 -0.009319 0.013449 0.000000 0.000000 0.000000
# 4 0.000000 0.000000 0.000000 0.120402 0.000000 0.000000
# 5 0.000000 0.000000 0.000000 0.000000 0.034298 0.000000
# 6 0.000000 0.000000 0.000000 0.000000 0.000000 0.060624
#
#
# Mechanical properties :
#
#
# Convention : Reuss Voigt Hill
#
# Bulk Modulus (GPa) = 29.60098 36.15884 32.87991
# Shear Modulus (GPa) = 16.85592 23.14422 20.00007
#
# Velocity S-wave (km/s) = 3.06753 3.59446 3.34140
# Velocity P-wave (km/s) = 5.39175 6.11657 5.76556
#
# Compressibility (1/GPa) = 0.03378267
#
# Stress axis : x y z
#
# Youngs Moduli (GPa) = 63.41822 44.05712 74.35677
#
# Poissons Ratio (x) = -0.11086 0.16831
# Poissons Ratio (y) = -0.15958 0.69291
# Poissons Ratio (z) = 0.14355 0.41056
#
# Static dielectric constant tensor:
#      x y z
#    x 1.643020 0.000000 0.000000 
#    y 0.000000 1.598560 0.000000 
#    z 0.000000 0.000000 1.611660 
# 
# From -- ./inp_files/43411.got.cif
#   From: 2010.05.17/outbox.cif.g08.bks.cpg/sg64_22_cif.got.tgz:43411.got - 2010.06.03 16:29:19.
