data_PCOD9478465
_publ_section_title
;
Structure prediction by ZEFSAII (Michael W. Deem and Ramdas Pophale) SiO2 
 PCOD9478465
Probable space group: C M C A
;
_chemical_formula_sum "Si O2"
_cell_formula_units_Z 72
_cell_length_a 15.483037
_cell_length_b 15.416874
_cell_length_c 14.817838
_cell_angle_alpha 90.000000
_cell_angle_beta 90.000000
_cell_angle_gamma 90.000000
_cell_volume 3537.018384
_symmetry_space_group_name_H-M "C M C A"
_symmetry_group_IT_number 64
_symmetry_cell_setting 'orthorhombic'
loop_
_space_group_symop_operation_xyz
x,y,z
-x,1/2-y,1/2+z
x,-y,-z
-x,1/2+y,1/2-z
-x,-y,-z
x,1/2+y,1/2-z
-x,y,z
x,1/2-y,1/2+z
1/2+x,1/2+y,z
1/2-x,-y,1/2+z
1/2+x,1/2-y,-z
1/2-x,y,1/2-z
1/2-x,1/2-y,-z
1/2+x,y,1/2-z
1/2-x,1/2+y,z
1/2+x,-y,1/2+z
loop_
_atom_site_type_symbol
_atom_site_label
_atom_site_fract_x
_atom_site_fract_y
_atom_site_fract_z
Si Si1 0.596754 0.230659 0.181644
Si Si2 0.900444 0.607998 0.336094
Si Si3 0.776512 0.460347 0.411495
Si Si4 0.654353 0.290145 0.002042
Si Si5 0.750000 0.147065 0.750000
O O1 0.500000 0.259418 0.206663
O O2 0.611638 0.140646 0.233887
O O3 0.671291 0.293922 0.217263
O O4 0.603573 0.231302 0.073368
O O5 0.834109 0.533462 0.363591
O O6 0.882006 0.690015 0.402988
O O7 0.000000 0.581094 0.349306
O O8 0.731054 0.500000 0.500000
O O9 0.838691 0.385934 0.453273
O O10 0.722706 0.412477 0.334518
O O11 0.750000 0.250000 0.000000
#
# Coordination Sequence:
#
# PCOD9478465 Si02
#       5
#    16  16  16  16   8
#     4  10  21  37  58  85 116 152 194 238 287 345
#     4  10  20  34  54  82 116 151 191 240 292 349
#     4   9  20  33  51  80 109 145 188 232 287 338
#     4  10  20  35  57  80 109 148 191 239 285 338
#     4  10  20  36  58  80 112 154 194 244 292 346
#
# _framework density 20.356128999999999
#
# number of rings (size 3 to 8) (size 9 to 14) (size 15 to 20)
#    0.000    2.222    0.000    3.333    0.000   12.000 
#    0.000    0.000    0.000    0.667    0.000    0.000 
#    0.000    0.000    0.000    0.000    0.000    0.000 
#
# Total GULP energy -200682.344339 kJ/mol
# GULP energy per Si atom -5574.509565 kJ/mol
# Density = 2.030980 g / cm^3
# Si number density = 20.356129 Si / 1000 Ang^3
#
#
#
# Elastic Constant Matrix: (Units=GPa)
#
#
# Indices 1 2 3 4 5 6 
#
# 1 74.2071 22.4104 -9.1547 0.0000 0.0000 0.0000
# 2 22.4104 51.3984 13.8093 0.0000 0.0000 0.0000
# 3 -9.1547 13.8093 44.7858 0.0000 0.0000 0.0000
# 4 0.0000 0.0000 0.0000 35.2854 0.0000 0.0000
# 5 0.0000 0.0000 0.0000 0.0000 28.3490 0.0000
# 6 0.0000 0.0000 0.0000 0.0000 0.0000 4.1409
#
#
#
# Elastic Compliance Matrix: (Units=1/GPa)
#
#
# Indices 1 2 3 4 5 6 
#
# 1 0.016998 -0.009099 0.006280 0.000000 0.000000 0.000000
# 2 -0.009099 0.026084 -0.009903 0.000000 0.000000 0.000000
# 3 0.006280 -0.009903 0.026666 0.000000 0.000000 0.000000
# 4 0.000000 0.000000 0.000000 0.028340 0.000000 0.000000
# 5 0.000000 0.000000 0.000000 0.000000 0.035275 0.000000
# 6 0.000000 0.000000 0.000000 0.000000 0.000000 0.241493
#
#
# Mechanical properties :
#
#
# Convention : Reuss Voigt Hill
#
# Bulk Modulus (GPa) = 22.57068 24.94680 23.75874
# Shear Modulus (GPa) = 12.04627 23.11016 17.57822
#
# Velocity S-wave (km/s) = 2.43528 3.37307 2.94178
# Velocity P-wave (km/s) = 4.36113 5.23945 4.82034
#
# Compressibility (1/GPa) = 0.04430527
#
# Stress axis : x y z
#
# Youngs Moduli (GPa) = 58.82902 38.33827 37.50149
#
# Poissons Ratio (x) = 0.34883 -0.23552
# Poissons Ratio (y) = 0.53528 0.37136
# Poissons Ratio (z) = -0.36946 0.37965
#
# Static dielectric constant tensor:
#      x y z
#    x 1.475030 0.000000 0.000000 
#    y 0.000000 1.757400 0.000000 
#    z 0.000000 0.000000 1.831340 
# 
# From -- ./inp_files/37982.got.cif
#   From: 2010.05.17/outbox.cif.g08.bks.cpg/sg64_19_cif.got.tgz:37982.got - 2010.06.03 16:29:19.
