data_PCOD9478339
_publ_section_title
;
Structure prediction by ZEFSAII (Michael W. Deem and Ramdas Pophale) SiO2 
 PCOD9478339
Probable space group: C M C A
;
_chemical_formula_sum "Si O2"
_cell_formula_units_Z 96
_cell_length_a 22.331226
_cell_length_b 9.160759
_cell_length_c 18.208834
_cell_angle_alpha 90.000000
_cell_angle_beta 90.000000
_cell_angle_gamma 90.000000
_cell_volume 3724.999008
_symmetry_space_group_name_H-M "C M C A"
_symmetry_group_IT_number 64
_symmetry_cell_setting 'orthorhombic'
loop_
_space_group_symop_operation_xyz
x,y,z
-x,1/2-y,1/2+z
x,-y,-z
-x,1/2+y,1/2-z
-x,-y,-z
x,1/2+y,1/2-z
-x,y,z
x,1/2-y,1/2+z
1/2+x,1/2+y,z
1/2-x,-y,1/2+z
1/2+x,1/2-y,-z
1/2-x,y,1/2-z
1/2-x,1/2-y,-z
1/2+x,y,1/2-z
1/2-x,1/2+y,z
1/2+x,-y,1/2+z
loop_
_atom_site_type_symbol
_atom_site_label
_atom_site_fract_x
_atom_site_fract_y
_atom_site_fract_z
Si Si1 0.432730 0.949331 0.698053
Si Si2 0.434239 0.820054 0.430303
Si Si3 0.354606 0.184470 0.754372
Si Si4 0.193742 0.925537 0.391033
Si Si5 0.436807 0.012139 0.912108
Si Si6 0.190021 0.734657 0.586858
O O1 0.500000 0.896124 0.713133
O O2 0.379968 0.833611 0.711209
O O3 0.434239 0.035885 0.620557
O O4 0.412233 0.078129 0.752526
O O5 0.500000 0.819835 0.468849
O O6 0.433716 0.660043 0.388328
O O7 0.366967 0.814491 0.462558
O O8 0.304206 0.112010 0.804958
O O9 0.330318 0.198722 0.671307
O O10 0.247092 0.840291 0.428608
O O11 0.123236 0.896612 0.402845
O O12 0.198885 0.092958 0.412968
O O13 0.500000 0.075145 0.886389
O O14 0.440102 0.000000 0.000000
#
# Coordination Sequence:
#
# PCOD9478339 Si02
#       6
#    16  16  16  16  16  16
#     4  10  20  33  52  82 121 159 196 247 299 356
#     4   8  17  35  57  82 113 150 196 244 303 360
#     4  11  21  35  52  81 120 162 203 239 294 366
#     4  11  23  37  58  87 121 158 207 247 303 362
#     4   9  19  40  68  93 118 156 209 267 321 372
#     4  10  22  36  54  83 119 161 193 241 294 361
#
# _framework density 25.771819000000001
#
# number of rings (size 3 to 8) (size 9 to 14) (size 15 to 20)
#    0.000    2.167    1.667    1.000    4.667    3.333 
#    0.000    3.333    0.000    1.000    0.000    4.667 
#    0.000    0.000    0.000    0.000    0.000    0.000 
#
# Total GULP energy -267823.524226 kJ/mol
# GULP energy per Si atom -5579.656755 kJ/mol
# Density = 2.571316 g / cm^3
# Si number density = 25.771819 Si / 1000 Ang^3
#
#
#
# Elastic Constant Matrix: (Units=GPa)
#
#
# Indices 1 2 3 4 5 6 
#
# 1 227.9246 47.2429 21.9291 0.0000 0.0000 0.0000
# 2 47.2429 89.5770 22.6737 0.0000 0.0000 0.0000
# 3 21.9291 22.6737 58.9875 0.0000 0.0000 0.0000
# 4 0.0000 0.0000 0.0000 27.3153 0.0000 0.0000
# 5 0.0000 0.0000 0.0000 0.0000 13.3975 0.0000
# 6 0.0000 0.0000 0.0000 0.0000 0.0000 16.8083
#
#
#
# Elastic Compliance Matrix: (Units=1/GPa)
#
#
# Indices 1 2 3 4 5 6 
#
# 1 0.004972 -0.002386 -0.000931 0.000000 0.000000 0.000000
# 2 -0.002386 0.013512 -0.004307 0.000000 0.000000 0.000000
# 3 -0.000931 -0.004307 0.018954 0.000000 0.000000 0.000000
# 4 0.000000 0.000000 0.000000 0.036610 0.000000 0.000000
# 5 0.000000 0.000000 0.000000 0.000000 0.074641 0.000000
# 6 0.000000 0.000000 0.000000 0.000000 0.000000 0.059494
#
#
# Mechanical properties :
#
#
# Convention : Reuss Voigt Hill
#
# Bulk Modulus (GPa) = 45.06527 62.24228 53.65378
# Shear Modulus (GPa) = 21.66119 30.48045 26.07082
#
# Velocity S-wave (km/s) = 2.90228 3.44278 3.18402
# Velocity P-wave (km/s) = 5.36239 6.32514 5.86356
#
# Compressibility (1/GPa) = 0.02219003
#
# Stress axis : x y z
#
# Youngs Moduli (GPa) = 201.14166 74.00678 52.75858
#
# Poissons Ratio (x) = 0.17661 0.04912
# Poissons Ratio (y) = 0.48000 0.22722
# Poissons Ratio (z) = 0.18725 0.31873
#
# Static dielectric constant tensor:
#      x y z
#    x 2.061360 0.000000 0.000000 
#    y 0.000000 2.021690 0.000000 
#    z 0.000000 0.000000 2.183920 
# 
# From -- ./inp_files/46578.got.cif
#   From: 2010.05.17/outbox.cif.g08.bks.cpg/sg64_24_cif.got.tgz:46578.got - 2010.06.03 16:29:19.
