data_PCOD9478806
_publ_section_title
;
Structure prediction by ZEFSAII (Michael W. Deem and Ramdas Pophale) SiO2 
 PCOD9478806
Probable space group: C M C A
;
_chemical_formula_sum "Si O2"
_cell_formula_units_Z 64
_cell_length_a 9.914656
_cell_length_b 10.272053
_cell_length_c 29.884768
_cell_angle_alpha 90.000000
_cell_angle_beta 90.000000
_cell_angle_gamma 90.000000
_cell_volume 3043.580484
_symmetry_space_group_name_H-M "C M C A"
_symmetry_group_IT_number 64
_symmetry_cell_setting 'orthorhombic'
loop_
_space_group_symop_operation_xyz
x,y,z
-x,1/2-y,1/2+z
x,-y,-z
-x,1/2+y,1/2-z
-x,-y,-z
x,1/2+y,1/2-z
-x,y,z
x,1/2-y,1/2+z
1/2+x,1/2+y,z
1/2-x,-y,1/2+z
1/2+x,1/2-y,-z
1/2-x,y,1/2-z
1/2-x,1/2-y,-z
1/2+x,y,1/2-z
1/2-x,1/2+y,z
1/2+x,-y,1/2+z
loop_
_atom_site_type_symbol
_atom_site_label
_atom_site_fract_x
_atom_site_fract_y
_atom_site_fract_z
Si Si1 0.838630 0.430438 0.705140
Si Si2 0.848827 0.352605 0.161733
Si Si3 0.726269 0.389383 0.438235
Si Si4 0.143184 0.855229 0.538703
O O1 0.750000 0.413773 0.750000
O O2 0.826114 0.295592 0.677556
O O3 0.766604 0.551160 0.680115
O O4 0.000000 0.452480 0.712593
O O5 0.845082 0.362450 0.108195
O O6 0.000000 0.391431 0.177498
O O7 0.846399 0.286629 0.440895
O O8 0.652262 0.352474 0.484984
O O9 0.753644 0.543029 0.443478
O O10 0.000000 0.914516 0.551896
#
# Coordination Sequence:
#
# PCOD9478806 Si02
#       4
#    16  16  16  16
#     4  11  25  43  64  90 118 152 194 243 303 366
#     4  11  23  40  64  92 123 158 200 249 299 357
#     4  10  20  36  58  86 118 159 203 243 293 347
#     4  10  20  36  56  81 121 163 201 246 292 341
#
# _framework density 21.027864999999998
#
# number of rings (size 3 to 8) (size 9 to 14) (size 15 to 20)
#    0.000    1.500    0.000    6.000    0.000    5.000 
#    0.000   12.500    0.000    0.000    0.000    0.000 
#    0.000    0.000    0.000    0.000    0.000    0.000 
#
# Total GULP energy -178331.545809 kJ/mol
# GULP energy per Si atom -5572.860807 kJ/mol
# Density = 2.098001 g / cm^3
# Si number density = 21.027865 Si / 1000 Ang^3
#
#
#
# Elastic Constant Matrix: (Units=GPa)
#
#
# Indices 1 2 3 4 5 6 
#
# 1 122.7614 72.1063 30.5892 0.0000 0.0000 0.0000
# 2 72.1063 123.0054 29.5516 0.0000 0.0000 0.0000
# 3 30.5892 29.5516 64.2104 0.0000 0.0000 0.0000
# 4 0.0000 0.0000 0.0000 25.9579 0.0000 0.0000
# 5 0.0000 0.0000 0.0000 0.0000 12.2578 0.0000
# 6 0.0000 0.0000 0.0000 0.0000 0.0000 32.4507
#
#
#
# Elastic Compliance Matrix: (Units=1/GPa)
#
#
# Indices 1 2 3 4 5 6 
#
# 1 0.012918 -0.006852 -0.003001 0.000000 0.000000 0.000000
# 2 -0.006852 0.012775 -0.002615 0.000000 0.000000 0.000000
# 3 -0.003001 -0.002615 0.018207 0.000000 0.000000 0.000000
# 4 0.000000 0.000000 0.000000 0.038524 0.000000 0.000000
# 5 0.000000 0.000000 0.000000 0.000000 0.081581 0.000000
# 6 0.000000 0.000000 0.000000 0.000000 0.000000 0.030816
#
#
# Mechanical properties :
#
#
# Convention : Reuss Voigt Hill
#
# Bulk Modulus (GPa) = 52.73040 63.83014 58.28027
# Shear Modulus (GPa) = 22.11641 25.98196 24.04918
#
# Velocity S-wave (km/s) = 3.24661 3.51892 3.38551
# Velocity P-wave (km/s) = 6.25978 6.85064 6.56187
#
# Compressibility (1/GPa) = 0.01896439
#
# Stress axis : x y z
#
# Youngs Moduli (GPa) = 77.41099 78.28089 54.92443
#
# Poissons Ratio (x) = 0.53636 0.16481
# Poissons Ratio (y) = 0.53040 0.14363
# Poissons Ratio (z) = 0.23228 0.20471
#
# Static dielectric constant tensor:
#      x y z
#    x 1.787940 0.000000 0.000000 
#    y 0.000000 1.775060 0.000000 
#    z 0.000000 0.000000 1.731320 
# 
# From -- ./inp_files/51539.got.cif
#   From: 2010.05.17/outbox.cif.g08.bks.cpg/sg64_26_cif.got.tgz:51539.got - 2010.06.03 16:29:19.
