data_PCOD9478889
_publ_section_title
;
Structure prediction by ZEFSAII (Michael W. Deem and Ramdas Pophale) SiO2 
 PCOD9478889
Probable space group: C M C A
;
_chemical_formula_sum "Si O2"
_cell_formula_units_Z 80
_cell_length_a 26.113543
_cell_length_b 25.856020
_cell_length_c 5.040890
_cell_angle_alpha 90.000000
_cell_angle_beta 90.000000
_cell_angle_gamma 90.000000
_cell_volume 3403.570063
_symmetry_space_group_name_H-M "C M C A"
_symmetry_group_IT_number 64
_symmetry_cell_setting 'orthorhombic'
loop_
_space_group_symop_operation_xyz
x,y,z
-x,1/2-y,1/2+z
x,-y,-z
-x,1/2+y,1/2-z
-x,-y,-z
x,1/2+y,1/2-z
-x,y,z
x,1/2-y,1/2+z
1/2+x,1/2+y,z
1/2-x,-y,1/2+z
1/2+x,1/2-y,-z
1/2-x,y,1/2-z
1/2-x,1/2-y,-z
1/2+x,y,1/2-z
1/2-x,1/2+y,z
1/2+x,-y,1/2+z
loop_
_atom_site_type_symbol
_atom_site_label
_atom_site_fract_x
_atom_site_fract_y
_atom_site_fract_z
Si Si1 0.000000 0.715890 0.260211
Si Si2 0.390378 0.500000 0.000000
Si Si3 0.611262 0.715336 0.128909
Si Si4 0.340204 0.381577 0.638066
Si Si5 0.196411 0.564287 0.666490
Si Si6 0.442834 0.940682 0.885761
O O1 0.054257 0.691153 0.330900
O O2 0.000000 0.733443 0.954533
O O3 0.349692 0.523578 0.792346
O O4 0.427771 0.453767 0.918369
O O5 0.614871 0.736019 0.830516
O O6 0.651530 0.673616 0.228727
O O7 0.308479 0.387979 0.370302
O O8 0.396366 0.402838 0.548072
O O9 0.313690 0.416301 0.867541
O O10 0.250000 0.539546 0.750000
O O11 0.500000 0.920617 0.925626
O O12 0.441419 0.000000 0.000000
#
# Coordination Sequence:
#
# PCOD9478889 Si02
#       6
#     8   8  16  16  16  16
#     4   8  16  30  52  82 115 150 193 244 292 350
#     4  10  21  38  60  86 124 162 213 242 308 366
#     4  10  20  37  61  87 123 160 203 256 304 359
#     4  11  23  40  63  93 122 165 208 250 312 376
#     4  11  24  41  63  89 122 158 210 268 311 358
#     4  10  20  36  58  87 131 167 196 240 291 373
#
# _framework density 23.504731
#
# number of rings (size 3 to 8) (size 9 to 14) (size 15 to 20)
#    0.000    1.800    2.000    2.100    1.400    3.200 
#    0.000    0.000    0.000   12.000    0.000    0.000 
#    0.000    0.000    0.000    0.000    0.000    0.000 
#
# Total GULP energy -222963.581210 kJ/mol
# GULP energy per Si atom -5574.089530 kJ/mol
# Density = 2.345123 g / cm^3
# Si number density = 23.504731 Si / 1000 Ang^3
#
#
#
# Elastic Constant Matrix: (Units=GPa)
#
#
# Indices 1 2 3 4 5 6 
#
# 1 93.0725 7.1273 26.5458 0.0000 0.0000 0.0000
# 2 7.1273 32.4075 -6.1581 0.0000 0.0000 0.0000
# 3 26.5458 -6.1581 71.6134 0.0000 0.0000 0.0000
# 4 0.0000 0.0000 0.0000 21.1336 0.0000 0.0000
# 5 0.0000 0.0000 0.0000 0.0000 19.5094 0.0000
# 6 0.0000 0.0000 0.0000 0.0000 0.0000 15.8068
#
#
#
# Elastic Compliance Matrix: (Units=1/GPa)
#
#
# Indices 1 2 3 4 5 6 
#
# 1 0.012429 -0.003669 -0.004923 0.000000 0.000000 0.000000
# 2 -0.003669 0.032453 0.004151 0.000000 0.000000 0.000000
# 3 -0.004923 0.004151 0.016146 0.000000 0.000000 0.000000
# 4 0.000000 0.000000 0.000000 0.047318 0.000000 0.000000
# 5 0.000000 0.000000 0.000000 0.000000 0.051257 0.000000
# 6 0.000000 0.000000 0.000000 0.000000 0.000000 0.063264
#
#
# Mechanical properties :
#
#
# Convention : Reuss Voigt Hill
#
# Bulk Modulus (GPa) = 19.17717 28.01371 23.59544
# Shear Modulus (GPa) = 20.06976 22.59519 21.33248
#
# Velocity S-wave (km/s) = 2.92526 3.10385 3.01588
# Velocity P-wave (km/s) = 4.42562 4.97890 4.71039
#
# Compressibility (1/GPa) = 0.05214534
#
# Stress axis : x y z
#
# Youngs Moduli (GPa) = 80.45469 30.81406 61.93637
#
# Poissons Ratio (x) = 0.11306 0.30490
# Poissons Ratio (y) = 0.29519 -0.25708
# Poissons Ratio (z) = 0.39607 -0.12790
#
# Static dielectric constant tensor:
#      x y z
#    x 1.911260 0.000000 0.000000 
#    y 0.000000 1.931170 0.000000 
#    z 0.000000 0.000000 1.991060 
# 
# From -- ./inp_files/2398.got.cif
#   From: 2010.05.17/outbox.cif.g08.bks.cpg/sg64_2_cif.got.tgz:2398.got - 2010.06.03 16:29:19.
