data_PCOD9478019
_publ_section_title
;
Structure prediction by ZEFSAII (Michael W. Deem and Ramdas Pophale) SiO2 
 PCOD9478019
Probable space group: C M C A
;
_chemical_formula_sum "Si O2"
_cell_formula_units_Z 88
_cell_length_a 30.462286
_cell_length_b 9.103806
_cell_length_c 12.451221
_cell_angle_alpha 90.000000
_cell_angle_beta 90.000000
_cell_angle_gamma 90.000000
_cell_volume 3453.006750
_symmetry_space_group_name_H-M "C M C A"
_symmetry_group_IT_number 64
_symmetry_cell_setting 'orthorhombic'
loop_
_space_group_symop_operation_xyz
x,y,z
-x,1/2-y,1/2+z
x,-y,-z
-x,1/2+y,1/2-z
-x,-y,-z
x,1/2+y,1/2-z
-x,y,z
x,1/2-y,1/2+z
1/2+x,1/2+y,z
1/2-x,-y,1/2+z
1/2+x,1/2-y,-z
1/2-x,y,1/2-z
1/2-x,1/2-y,-z
1/2+x,y,1/2-z
1/2-x,1/2+y,z
1/2+x,-y,1/2+z
loop_
_atom_site_type_symbol
_atom_site_label
_atom_site_fract_x
_atom_site_fract_y
_atom_site_fract_z
Si Si1 0.171474 0.500000 0.000000
Si Si2 0.500000 0.518656 0.190804
Si Si3 0.405490 0.347338 0.401891
Si Si4 0.190465 0.477772 0.372311
Si Si5 0.594292 0.028726 0.303498
Si Si6 0.262658 0.188012 0.119498
Si Si7 0.500000 0.658467 0.597480
O O1 0.138456 0.367965 0.030471
O O2 0.202816 0.556878 0.094557
O O3 0.452137 0.468204 0.148919
O O4 0.500000 0.692492 0.168866
O O5 0.500000 0.472069 0.315236
O O6 0.405971 0.485654 0.321177
O O7 0.403641 0.200893 0.330446
O O8 0.452933 0.342492 0.460461
O O9 0.193466 0.500000 0.500000
O O10 0.139435 0.466650 0.347173
O O11 0.218682 0.616953 0.331090
O O12 0.213846 0.330424 0.333765
O O13 0.250000 0.250000 0.000000
#
# Coordination Sequence:
#
# PCOD9478019 Si02
#       7
#     8   8  16  16  16  16   8
#     4  12  22  37  64  86 120 155 206 244 306 356
#     4   8  16  34  59  82 118 157 185 243 298 363
#     4  10  22  37  62  89 120 157 198 248 296 362
#     4  10  20  36  62  82 116 156 197 236 298 353
#     4  10  21  39  61  90 120 154 203 242 303 354
#     4  10  19  36  60  82 113 157 193 238 296 356
#     4   8  16  35  56  84 118 154 192 238 300 352
#
# _framework density 25.485036999999998
#
# number of rings (size 3 to 8) (size 9 to 14) (size 15 to 20)
#    0.000    2.182    2.727    2.182    2.545    0.364 
#    0.000    1.364    4.000    1.091    0.000    0.000 
#    0.000    0.000    0.000    0.000    0.000    0.000 
#
# Total GULP energy -245812.349022 kJ/mol
# GULP energy per Si atom -5586.644296 kJ/mol
# Density = 2.542703 g / cm^3
# Si number density = 25.485037 Si / 1000 Ang^3
#
#
#
# Elastic Constant Matrix: (Units=GPa)
#
#
# Indices 1 2 3 4 5 6 
#
# 1 233.8743 60.3765 37.0307 0.0000 0.0000 0.0000
# 2 60.3765 92.3986 20.0407 0.0000 0.0000 0.0000
# 3 37.0307 20.0407 42.1773 0.0000 0.0000 0.0000
# 4 0.0000 0.0000 0.0000 27.0233 0.0000 0.0000
# 5 0.0000 0.0000 0.0000 0.0000 23.7688 0.0000
# 6 0.0000 0.0000 0.0000 0.0000 0.0000 23.4349
#
#
#
# Elastic Compliance Matrix: (Units=1/GPa)
#
#
# Indices 1 2 3 4 5 6 
#
# 1 0.005578 -0.002879 -0.003529 0.000000 0.000000 0.000000
# 2 -0.002879 0.013553 -0.003912 0.000000 0.000000 0.000000
# 3 -0.003529 -0.003912 0.028666 0.000000 0.000000 0.000000
# 4 0.000000 0.000000 0.000000 0.037005 0.000000 0.000000
# 5 0.000000 0.000000 0.000000 0.000000 0.042072 0.000000
# 6 0.000000 0.000000 0.000000 0.000000 0.000000 0.042671
#
#
# Mechanical properties :
#
#
# Convention : Reuss Voigt Hill
#
# Bulk Modulus (GPa) = 36.82307 67.03846 51.93076
# Shear Modulus (GPa) = 25.09565 31.57890 28.33727
#
# Velocity S-wave (km/s) = 3.14143 3.52393 3.33816
# Velocity P-wave (km/s) = 5.25722 6.55130 5.93961
#
# Compressibility (1/GPa) = 0.02715689
#
# Stress axis : x y z
#
# Youngs Moduli (GPa) = 179.27828 73.78694 34.88393
#
# Poissons Ratio (x) = 0.21246 0.12311
# Poissons Ratio (y) = 0.51621 0.13645
# Poissons Ratio (z) = 0.63270 0.28862
#
# Static dielectric constant tensor:
#      x y z
#    x 2.077970 0.000000 0.000000 
#    y 0.000000 1.981070 0.000000 
#    z 0.000000 0.000000 2.300410 
# 
# From -- ./inp_files/35746.got.cif
#   From: 2010.05.17/outbox.cif.g08.bks.cpg/sg64_18_cif.got.tgz:35746.got - 2010.06.03 16:29:19.
