data_PCOD9478211
_publ_section_title
;
Structure prediction by ZEFSAII (Michael W. Deem and Ramdas Pophale) SiO2 
 PCOD9478211
Probable space group: C M C A
;
_chemical_formula_sum "Si O2"
_cell_formula_units_Z 80
_cell_length_a 28.793357
_cell_length_b 7.466096
_cell_length_c 14.301517
_cell_angle_alpha 90.000000
_cell_angle_beta 90.000000
_cell_angle_gamma 90.000000
_cell_volume 3074.453851
_symmetry_space_group_name_H-M "C M C A"
_symmetry_group_IT_number 64
_symmetry_cell_setting 'orthorhombic'
loop_
_space_group_symop_operation_xyz
x,y,z
-x,1/2-y,1/2+z
x,-y,-z
-x,1/2+y,1/2-z
-x,-y,-z
x,1/2+y,1/2-z
-x,y,z
x,1/2-y,1/2+z
1/2+x,1/2+y,z
1/2-x,-y,1/2+z
1/2+x,1/2-y,-z
1/2-x,y,1/2-z
1/2-x,1/2-y,-z
1/2+x,y,1/2-z
1/2-x,1/2+y,z
1/2+x,-y,1/2+z
loop_
_atom_site_type_symbol
_atom_site_label
_atom_site_fract_x
_atom_site_fract_y
_atom_site_fract_z
Si Si1 0.300522 0.316250 0.373355
Si Si2 0.400493 0.634507 0.650615
Si Si3 0.819219 0.500000 0.500000
Si Si4 0.099240 0.059510 0.869735
Si Si5 0.500000 0.630927 0.647701
Si Si6 0.500000 0.059378 0.629147
Si Si7 0.750000 0.425462 0.750000
O O1 0.349649 0.415605 0.385773
O O2 0.262621 0.459438 0.341527
O O3 0.294417 0.171904 0.454925
O O4 0.295084 0.189446 0.280097
O O5 0.398053 0.616314 0.762536
O O6 0.449808 0.553022 0.618232
O O7 0.402930 0.844558 0.629478
O O8 0.854333 0.405536 0.425972
O O9 0.049491 0.124868 0.909484
O O10 0.500000 0.611272 0.760885
O O11 0.500000 0.842824 0.625664
#
# Coordination Sequence:
#
# PCOD9478211 Si02
#       7
#    16  16   8  16   8   8   8
#     4  10  20  36  55  77 101 129 167 210 253 301
#     4   9  16  30  51  73 102 132 166 200 239 294
#     4  10  20  31  50  76 104 128 160 211 262 298
#     4   9  17  29  49  74 102 137 169 205 246 291
#     4   8  14  24  44  74  98 128 164 198 232 282
#     4   8  14  25  42  70 102 131 170 204 236 285
#     4  10  22  38  58  74  94 134 174 208 254 302
#
# _framework density 26.020883000000001
#
# number of rings (size 3 to 8) (size 9 to 14) (size 15 to 20)
#    0.000    2.800    0.000    2.400    0.000    1.200 
#    0.000    1.000    0.000   19.200    0.000    0.000 
#    0.000   96.000    0.000    0.000    0.000    1.400 
#
# Total GULP energy -222988.789310 kJ/mol
# GULP energy per Si atom -5574.719733 kJ/mol
# Density = 2.596166 g / cm^3
# Si number density = 26.020883 Si / 1000 Ang^3
#
#
#
# Elastic Constant Matrix: (Units=GPa)
#
#
# Indices 1 2 3 4 5 6 
#
# 1 161.2743 31.6418 4.6898 0.0000 0.0000 0.0000
# 2 31.6418 48.6487 10.9937 0.0000 0.0000 0.0000
# 3 4.6898 10.9937 39.4246 0.0000 0.0000 0.0000
# 4 0.0000 0.0000 0.0000 24.8394 0.0000 0.0000
# 5 0.0000 0.0000 0.0000 0.0000 146.5161 0.0000
# 6 0.0000 0.0000 0.0000 0.0000 0.0000 -126.0170
#
#
#
# Elastic Compliance Matrix: (Units=1/GPa)
#
#
# Indices 1 2 3 4 5 6 
#
# 1 0.007116 -0.004735 0.000474 0.000000 0.000000 0.000000
# 2 -0.004735 0.025089 -0.006433 0.000000 0.000000 0.000000
# 3 0.000474 -0.006433 0.027102 0.000000 0.000000 0.000000
# 4 0.000000 0.000000 0.000000 0.040259 0.000000 0.000000
# 5 0.000000 0.000000 0.000000 0.000000 0.006825 0.000000
# 6 0.000000 0.000000 0.000000 0.000000 0.000000 -0.007935
#
#
# Mechanical properties :
#
#
# Convention : Reuss Voigt Hill
#
# Bulk Modulus (GPa) = 26.37212 38.22202 32.29707
# Shear Modulus (GPa) = 37.74040 22.53585 30.13812
#
# Velocity S-wave (km/s) = 3.81253 2.94610 3.40697
# Velocity P-wave (km/s) = 5.43484 5.12772 5.28351
#
# Compressibility (1/GPa) = 0.03791883
#
# Stress axis : x y z
#
# Youngs Moduli (GPa) = 140.53013 39.85771 36.89722
#
# Poissons Ratio (x) = 0.18874 -0.01749
# Poissons Ratio (y) = 0.66547 0.23736
# Poissons Ratio (z) = -0.06661 0.25640
#
# Static dielectric constant tensor:
#      x y z
#    x 2.215490 0.000000 0.000000 
#    y 0.000000 2.030770 0.000000 
#    z 0.000000 0.000000 2.006110 
# 
# From -- ./inp_files/35683.got.cif
#   From: 2010.05.17/outbox.cif.g08.bks.cpg/sg64_18_cif.got.tgz:35683.got - 2010.06.03 16:29:19.
