data_PCOD9478300
_publ_section_title
;
Structure prediction by ZEFSAII (Michael W. Deem and Ramdas Pophale) SiO2 
 PCOD9478300
Probable space group: C M C A
;
_chemical_formula_sum "Si O2"
_cell_formula_units_Z 96
_cell_length_a 8.944929
_cell_length_b 24.543322
_cell_length_c 25.895264
_cell_angle_alpha 90.000000
_cell_angle_beta 90.000000
_cell_angle_gamma 90.000000
_cell_volume 5685.001530
_symmetry_space_group_name_H-M "C M C A"
_symmetry_group_IT_number 64
_symmetry_cell_setting 'orthorhombic'
loop_
_space_group_symop_operation_xyz
x,y,z
-x,1/2-y,1/2+z
x,-y,-z
-x,1/2+y,1/2-z
-x,-y,-z
x,1/2+y,1/2-z
-x,y,z
x,1/2-y,1/2+z
1/2+x,1/2+y,z
1/2-x,-y,1/2+z
1/2+x,1/2-y,-z
1/2-x,y,1/2-z
1/2-x,1/2-y,-z
1/2+x,y,1/2-z
1/2-x,1/2+y,z
1/2+x,-y,1/2+z
loop_
_atom_site_type_symbol
_atom_site_label
_atom_site_fract_x
_atom_site_fract_y
_atom_site_fract_z
Si Si1 0.823489 0.109538 0.573228
Si Si2 0.180930 0.733936 0.944674
Si Si3 0.326631 0.836687 0.619678
Si Si4 0.176900 0.509246 0.618660
Si Si5 0.670344 0.074395 0.471163
Si Si6 0.822010 0.578970 0.193611
O O1 0.776677 0.172803 0.571773
O O2 0.784243 0.086742 0.516417
O O3 0.000000 0.106583 0.582727
O O4 0.738253 0.070045 0.612696
O O5 0.224038 0.778222 0.901375
O O6 0.000000 0.736110 0.949659
O O7 0.250000 0.750000 0.000000
O O8 0.500000 0.833554 0.637001
O O9 0.324799 0.876103 0.569625
O O10 0.230338 0.866989 0.662754
O O11 0.200180 0.478620 0.563528
O O12 0.260241 0.472321 0.660708
O O13 0.000000 0.507929 0.628847
O O14 0.500000 0.071205 0.492078
O O15 0.750000 0.578523 0.250000
O O16 0.000000 0.576685 0.196517
#
# Coordination Sequence:
#
# PCOD9478300 Si02
#       6
#    16  16  16  16  16  16
#     4  11  21  30  46  75 108 143 183 221 259 306
#     4  10  20  33  50  74 109 150 187 222 260 310
#     4   9  18  34  53  76 108 144 181 220 265 312
#     4  10  21  36  52  73 104 140 177 216 266 320
#     4   9  17  30  48  69 100 143 182 214 258 311
#     4  11  22  38  61  85 106 130 168 220 275 325
#
# _framework density 16.886538999999999
#
# number of rings (size 3 to 8) (size 9 to 14) (size 15 to 20)
#    0.000    2.000    1.667    4.000    0.000    6.667 
#    0.000    0.000    0.000    1.000    0.000    4.667 
#    0.000    0.000    0.000    0.000    0.000    0.000 
#
# Total GULP energy -267894.757680 kJ/mol
# GULP energy per Si atom -5581.140785 kJ/mol
# Density = 1.684810 g / cm^3
# Si number density = 16.886539 Si / 1000 Ang^3
#
#
#
# Elastic Constant Matrix: (Units=GPa)
#
#
# Indices 1 2 3 4 5 6 
#
# 1 86.5958 63.1751 53.0754 0.0000 0.0000 0.0000
# 2 63.1751 155.9901 56.4873 0.0000 0.0000 0.0000
# 3 53.0754 56.4873 82.2562 0.0000 0.0000 0.0000
# 4 0.0000 0.0000 0.0000 8.4633 0.0000 0.0000
# 5 0.0000 0.0000 0.0000 0.0000 28.4228 0.0000
# 6 0.0000 0.0000 0.0000 0.0000 0.0000 24.4080
#
#
#
# Elastic Compliance Matrix: (Units=1/GPa)
#
#
# Indices 1 2 3 4 5 6 
#
# 1 0.021620 -0.004930 -0.010564 0.000000 0.000000 0.000000
# 2 -0.004930 0.009657 -0.003450 0.000000 0.000000 0.000000
# 3 -0.010564 -0.003450 0.021343 0.000000 0.000000 0.000000
# 4 0.000000 0.000000 0.000000 0.118157 0.000000 0.000000
# 5 0.000000 0.000000 0.000000 0.000000 0.035183 0.000000
# 6 0.000000 0.000000 0.000000 0.000000 0.000000 0.040970
#
#
# Mechanical properties :
#
#
# Convention : Reuss Voigt Hill
#
# Bulk Modulus (GPa) = 67.88925 74.47974 71.18450
# Shear Modulus (GPa) = 17.25749 22.39912 19.82831
#
# Velocity S-wave (km/s) = 3.20029 3.64600 3.43039
# Velocity P-wave (km/s) = 7.34481 7.86931 7.61158
#
# Compressibility (1/GPa) = 0.01472987
#
# Stress axis : x y z
#
# Youngs Moduli (GPa) = 46.25414 103.55338 46.85362
#
# Poissons Ratio (x) = 0.51055 0.49497
# Poissons Ratio (y) = 0.22805 0.16166
# Poissons Ratio (z) = 0.48864 0.35729
#
# Static dielectric constant tensor:
#      x y z
#    x 1.569370 0.000000 0.000000 
#    y 0.000000 1.604620 0.000000 
#    z 0.000000 0.000000 1.543630 
# 
# From -- ./inp_files/42992.got.cif
#   From: 2010.05.17/outbox.cif.g08.bks.cpg/sg64_22_cif.got.tgz:42992.got - 2010.06.03 16:29:19.
