data_PCOD9478016
_publ_section_title
;
Structure prediction by ZEFSAII (Michael W. Deem and Ramdas Pophale) SiO2 
 PCOD9478016
Probable space group: C M C A
;
_chemical_formula_sum "Si O2"
_cell_formula_units_Z 80
_cell_length_a 15.984526
_cell_length_b 18.577252
_cell_length_c 11.681979
_cell_angle_alpha 90.000000
_cell_angle_beta 90.000000
_cell_angle_gamma 90.000000
_cell_volume 3468.946931
_symmetry_space_group_name_H-M "C M C A"
_symmetry_group_IT_number 64
_symmetry_cell_setting 'orthorhombic'
loop_
_space_group_symop_operation_xyz
x,y,z
-x,1/2-y,1/2+z
x,-y,-z
-x,1/2+y,1/2-z
-x,-y,-z
x,1/2+y,1/2-z
-x,y,z
x,1/2-y,1/2+z
1/2+x,1/2+y,z
1/2-x,-y,1/2+z
1/2+x,1/2-y,-z
1/2-x,y,1/2-z
1/2-x,1/2-y,-z
1/2+x,y,1/2-z
1/2-x,1/2+y,z
1/2+x,-y,1/2+z
loop_
_atom_site_type_symbol
_atom_site_label
_atom_site_fract_x
_atom_site_fract_y
_atom_site_fract_z
Si Si1 0.324240 0.293687 0.060877
Si Si2 0.904948 0.642704 0.763024
Si Si3 0.909833 0.510861 0.361447
Si Si4 0.753518 0.427105 0.570442
Si Si5 0.593658 0.846936 0.971840
O O1 0.338587 0.308777 0.195074
O O2 0.250000 0.250000 0.000000
O O3 0.308966 0.371302 0.005596
O O4 0.400421 0.239761 0.033726
O O5 0.906793 0.565165 0.702857
O O6 0.886390 0.634129 0.896141
O O7 0.000000 0.672530 0.754176
O O8 0.911057 0.500000 0.500000
O O9 0.822593 0.550062 0.336566
O O10 0.000000 0.545756 0.332604
O O11 0.731795 0.500000 0.500000
O O12 0.667937 0.385095 0.597964
O O13 0.500000 0.871092 0.943540
#
# Coordination Sequence:
#
# PCOD9478016 Si02
#       5
#    16  16  16  16  16
#     4  10  20  35  59  86 122 162 207 255 304 363
#     4  10  19  36  62  89 118 159 209 254 305 370
#     4   9  16  30  57  89 112 144 200 256 304 354
#     4  10  19  36  59  90 120 156 205 252 310 362
#     4  10  23  38  61  91 124 170 207 248 311 373
#
# _framework density 23.061753
#
# number of rings (size 3 to 8) (size 9 to 14) (size 15 to 20)
#    0.000    2.200    4.000    0.600    0.000    4.400 
#    0.000    0.000   17.600    0.000    0.000    0.000 
#    0.000    0.000    0.000    0.000    0.000    0.000 
#
# Total GULP energy -222778.959177 kJ/mol
# GULP energy per Si atom -5569.473979 kJ/mol
# Density = 2.300926 g / cm^3
# Si number density = 23.061753 Si / 1000 Ang^3
#
#
#
# Elastic Constant Matrix: (Units=GPa)
#
#
# Indices 1 2 3 4 5 6 
#
# 1 191.3807 35.7821 34.7847 0.0000 0.0000 0.0000
# 2 35.7821 94.0267 15.1770 0.0000 0.0000 0.0000
# 3 34.7847 15.1770 77.5643 0.0000 0.0000 0.0000
# 4 0.0000 0.0000 0.0000 12.2639 0.0000 0.0000
# 5 0.0000 0.0000 0.0000 0.0000 23.5241 0.0000
# 6 0.0000 0.0000 0.0000 0.0000 0.0000 32.4550
#
#
#
# Elastic Compliance Matrix: (Units=1/GPa)
#
#
# Indices 1 2 3 4 5 6 
#
# 1 0.006004 -0.001911 -0.002319 0.000000 0.000000 0.000000
# 2 -0.001911 0.011590 -0.001411 0.000000 0.000000 0.000000
# 3 -0.002319 -0.001411 0.014208 0.000000 0.000000 0.000000
# 4 0.000000 0.000000 0.000000 0.081540 0.000000 0.000000
# 5 0.000000 0.000000 0.000000 0.000000 0.042510 0.000000
# 6 0.000000 0.000000 0.000000 0.000000 0.000000 0.030812
#
#
# Mechanical properties :
#
#
# Convention : Reuss Voigt Hill
#
# Bulk Modulus (GPa) = 48.72833 59.38438 54.05635
# Shear Modulus (GPa) = 24.41584 32.13046 28.27315
#
# Velocity S-wave (km/s) = 3.25732 3.73666 3.50519
# Velocity P-wave (km/s) = 5.94325 6.66505 6.31447
#
# Compressibility (1/GPa) = 0.02052194
#
# Stress axis : x y z
#
# Youngs Moduli (GPa) = 166.56055 86.28064 70.38063
#
# Poissons Ratio (x) = 0.16484 0.16319
# Poissons Ratio (y) = 0.31822 0.09931
# Poissons Ratio (z) = 0.38620 0.12175
#
# Static dielectric constant tensor:
#      x y z
#    x 1.953940 0.000000 0.000000 
#    y 0.000000 1.873880 0.000000 
#    z 0.000000 0.000000 1.850960 
# 
# From -- ./inp_files/25285.got.cif
#   From: 2010.05.17/outbox.cif.g08.bks.cpg/sg64_13_cif.got.tgz:25285.got - 2010.06.03 16:29:19.
