data_PCOD9478052
_publ_section_title
;
Structure prediction by ZEFSAII (Michael W. Deem and Ramdas Pophale) SiO2 
 PCOD9478052
Probable space group: C M C A
;
_chemical_formula_sum "Si O2"
_cell_formula_units_Z 96
_cell_length_a 11.886076
_cell_length_b 20.410064
_cell_length_c 17.528746
_cell_angle_alpha 90.000000
_cell_angle_beta 90.000000
_cell_angle_gamma 90.000000
_cell_volume 4252.396160
_symmetry_space_group_name_H-M "C M C A"
_symmetry_group_IT_number 64
_symmetry_cell_setting 'orthorhombic'
loop_
_space_group_symop_operation_xyz
x,y,z
-x,1/2-y,1/2+z
x,-y,-z
-x,1/2+y,1/2-z
-x,-y,-z
x,1/2+y,1/2-z
-x,y,z
x,1/2-y,1/2+z
1/2+x,1/2+y,z
1/2-x,-y,1/2+z
1/2+x,1/2-y,-z
1/2-x,y,1/2-z
1/2-x,1/2-y,-z
1/2+x,y,1/2-z
1/2-x,1/2+y,z
1/2+x,-y,1/2+z
loop_
_atom_site_type_symbol
_atom_site_label
_atom_site_fract_x
_atom_site_fract_y
_atom_site_fract_z
Si Si1 0.262520 0.613874 0.889020
Si Si2 0.000000 0.421570 0.628071
Si Si3 0.736737 0.526561 0.164366
Si Si4 0.000000 0.764318 0.635856
Si Si5 0.750163 0.260816 0.837683
Si Si6 0.873498 0.923767 0.529414
Si Si7 0.000000 0.712565 0.315101
Si Si8 0.500000 0.129984 0.543500
O O1 0.226678 0.549446 0.842677
O O2 0.262092 0.681956 0.844650
O O3 0.386627 0.601010 0.921400
O O4 0.184409 0.618007 0.963563
O O5 0.890246 0.464448 0.637896
O O6 0.000000 0.365802 0.693112
O O7 0.000000 0.385207 0.546244
O O8 0.750000 0.548722 0.250000
O O9 0.806955 0.570952 0.107287
O O10 0.132113 0.788153 0.626251
O O11 0.000000 0.753640 0.730225
O O12 0.000000 0.704107 0.575667
O O13 0.750000 0.282492 0.750000
O O14 0.618468 0.273510 0.859527
O O15 0.000000 0.902104 0.541575
O O16 0.873276 0.000000 0.500000
#
# Coordination Sequence:
#
# PCOD9478052 Si02
#       8
#    16   8  16   8  16  16   8   8
#     4  10  19  36  63  92 124 156 210 266 318 368
#     4  12  25  42  64  89 132 174 210 253 315 400
#     4  11  24  38  59  90 128 171 207 252 313 391
#     4   8  18  37  63  86 114 153 210 271 318 363
#     4   9  18  35  61  92 118 156 209 274 322 364
#     4   9  19  35  55  81 120 164 199 247 306 369
#     4  10  22  39  63  88 126 166 216 265 326 376
#     4  10  19  38  66  93 118 157 215 275 317 361
#
# _framework density 22.575507999999999
#
# number of rings (size 3 to 8) (size 9 to 14) (size 15 to 20)
#    0.000    2.167    1.667    1.000    2.333    2.667 
#    0.000    5.000    5.500    0.000    0.000    0.000 
#    0.000    0.000    0.000    0.000    0.000    0.000 
#
# Total GULP energy -267600.576377 kJ/mol
# GULP energy per Si atom -5575.012008 kJ/mol
# Density = 2.252413 g / cm^3
# Si number density = 22.575508 Si / 1000 Ang^3
#
#
#
# Elastic Constant Matrix: (Units=GPa)
#
#
# Indices 1 2 3 4 5 6 
#
# 1 198.0769 17.9812 29.0667 0.0000 0.0000 0.0000
# 2 17.9812 82.2857 9.8396 0.0000 0.0000 0.0000
# 3 29.0667 9.8396 90.1333 0.0000 0.0000 0.0000
# 4 0.0000 0.0000 0.0000 -0.0590 0.0000 0.0000
# 5 0.0000 0.0000 0.0000 0.0000 4.4896 0.0000
# 6 0.0000 0.0000 0.0000 0.0000 0.0000 32.5157
#
#
#
# Elastic Compliance Matrix: (Units=1/GPa)
#
#
# Indices 1 2 3 4 5 6 
#
# 1 0.005376 -0.000980 -0.001627 0.000000 0.000000 0.000000
# 2 -0.000980 0.012492 -0.001048 0.000000 0.000000 0.000000
# 3 -0.001627 -0.001048 0.011734 0.000000 0.000000 0.000000
# 4 0.000000 0.000000 0.000000-16.948681 0.000000 0.000000
# 5 0.000000 0.000000 0.000000 0.000000 0.222737 0.000000
# 6 0.000000 0.000000 0.000000 0.000000 0.000000 0.030754
#
#
# Mechanical properties :
#
#
# Convention : Reuss Voigt Hill
#
# Bulk Modulus (GPa) = 44.85742 53.80786 49.33264
# Shear Modulus (GPa) = -0.30029 28.29649 13.99810
#
# Velocity S-wave (km/s) = -0.36511 3.54420 2.49280
# Velocity P-wave (km/s) = 4.44245 6.37455 5.49410
#
# Compressibility (1/GPa) = 0.02229285
#
# Stress axis : x y z
#
# Youngs Moduli (GPa) = 186.00319 80.04949 85.22500
#
# Poissons Ratio (x) = 0.07847 0.13864
# Poissons Ratio (y) = 0.18234 0.08928
# Poissons Ratio (z) = 0.30258 0.08386
#
# Static dielectric constant tensor:
#      x y z
#    x 2.578660 0.000000 0.000000 
#    y 0.000000 1.846950 0.000000 
#    z 0.000000 0.000000 1.811220 
# 
# From -- ./inp_files/31135.got.cif
#   From: 2010.05.17/outbox.cif.g08.bks.cpg/sg64_16_cif.got.tgz:31135.got - 2010.06.03 16:29:19.
