data_PCOD9478144
_publ_section_title
;
Structure prediction by ZEFSAII (Michael W. Deem and Ramdas Pophale) SiO2 
 PCOD9478144
Probable space group: C M C A
;
_chemical_formula_sum "Si O2"
_cell_formula_units_Z 64
_cell_length_a 19.510870
_cell_length_b 9.794844
_cell_length_c 16.988487
_cell_angle_alpha 90.000000
_cell_angle_beta 90.000000
_cell_angle_gamma 90.000000
_cell_volume 3246.600573
_symmetry_space_group_name_H-M "C M C A"
_symmetry_group_IT_number 64
_symmetry_cell_setting 'orthorhombic'
loop_
_space_group_symop_operation_xyz
x,y,z
-x,1/2-y,1/2+z
x,-y,-z
-x,1/2+y,1/2-z
-x,-y,-z
x,1/2+y,1/2-z
-x,y,z
x,1/2-y,1/2+z
1/2+x,1/2+y,z
1/2-x,-y,1/2+z
1/2+x,1/2-y,-z
1/2-x,y,1/2-z
1/2-x,1/2-y,-z
1/2+x,y,1/2-z
1/2-x,1/2+y,z
1/2+x,-y,1/2+z
loop_
_atom_site_type_symbol
_atom_site_label
_atom_site_fract_x
_atom_site_fract_y
_atom_site_fract_z
Si Si1 0.784471 0.476429 0.667002
Si Si2 0.580317 0.074078 0.585574
Si Si3 0.422800 0.163687 0.992192
Si Si4 0.714597 0.708302 0.581434
O O1 0.750000 0.510839 0.750000
O O2 0.863410 0.519806 0.647831
O O3 0.742480 0.561622 0.602944
O O4 0.771572 0.318588 0.648313
O O5 0.500000 0.051696 0.606647
O O6 0.589777 0.236946 0.567527
O O7 0.591879 0.000000 0.500000
O O8 0.500000 0.196011 0.966990
O O9 0.366256 0.205869 0.930392
O O10 0.417559 0.000000 0.000000
O O11 0.750000 0.750000 0.500000
#
# Coordination Sequence:
#
# PCOD9478144 Si02
#       4
#    16  16  16  16
#     4  12  25  40  59  93 134 167 206 266 332 387
#     4  10  19  38  67  96 123 166 225 268 309 381
#     4  10  20  35  62  98 125 153 214 281 318 362
#     4  12  22  40  64  89 122 170 220 266 313 381
#
# _framework density 19.712926
#
# number of rings (size 3 to 8) (size 9 to 14) (size 15 to 20)
#    0.000    1.000    5.000    3.000    0.000    0.000 
#    0.000    1.250    0.000    6.000    0.000    0.000 
#    0.000    0.000    0.000    0.000    0.000    0.000 
#
# Total GULP energy -178484.349945 kJ/mol
# GULP energy per Si atom -5577.635936 kJ/mol
# Density = 1.966806 g / cm^3
# Si number density = 19.712926 Si / 1000 Ang^3
#
#
#
# Elastic Constant Matrix: (Units=GPa)
#
#
# Indices 1 2 3 4 5 6 
#
# 1 120.2410 18.2296 42.2224 0.0000 0.0000 0.0000
# 2 18.2296 80.9134 3.3499 0.0000 0.0000 0.0000
# 3 42.2224 3.3499 68.5594 0.0000 0.0000 0.0000
# 4 0.0000 0.0000 0.0000 28.4014 0.0000 0.0000
# 5 0.0000 0.0000 0.0000 0.0000 28.2573 0.0000
# 6 0.0000 0.0000 0.0000 0.0000 0.0000 31.4956
#
#
#
# Elastic Compliance Matrix: (Units=1/GPa)
#
#
# Indices 1 2 3 4 5 6 
#
# 1 0.010989 -0.002200 -0.006660 0.000000 0.000000 0.000000
# 2 -0.002200 0.012824 0.000728 0.000000 0.000000 0.000000
# 3 -0.006660 0.000728 0.018652 0.000000 0.000000 0.000000
# 4 0.000000 0.000000 0.000000 0.035210 0.000000 0.000000
# 5 0.000000 0.000000 0.000000 0.000000 0.035389 0.000000
# 6 0.000000 0.000000 0.000000 0.000000 0.000000 0.031750
#
#
# Mechanical properties :
#
#
# Convention : Reuss Voigt Hill
#
# Bulk Modulus (GPa) = 38.16562 44.14644 41.15603
# Shear Modulus (GPa) = 29.44441 31.35831 30.40136
#
# Velocity S-wave (km/s) = 3.86898 3.99275 3.93135
# Velocity P-wave (km/s) = 6.27387 6.61055 6.44441
#
# Compressibility (1/GPa) = 0.02620159
#
# Stress axis : x y z
#
# Youngs Moduli (GPa) = 91.00162 77.97638 53.61394
#
# Poissons Ratio (x) = 0.17155 0.35707
# Poissons Ratio (y) = 0.20021 -0.03905
# Poissons Ratio (z) = 0.60607 -0.05679
#
# Static dielectric constant tensor:
#      x y z
#    x 1.718660 0.000000 0.000000 
#    y 0.000000 1.745830 0.000000 
#    z 0.000000 0.000000 1.625490 
# 
# From -- ./inp_files/24883.got.cif
#   From: 2010.05.17/outbox.cif.g08.bks.cpg/sg64_13_cif.got.tgz:24883.got - 2010.06.03 16:29:19.
