data_PCOD9478341
_publ_section_title
;
Structure prediction by ZEFSAII (Michael W. Deem and Ramdas Pophale) SiO2 
 PCOD9478341
Probable space group: C M C A
;
_chemical_formula_sum "Si O2"
_cell_formula_units_Z 96
_cell_length_a 13.916459
_cell_length_b 15.386842
_cell_length_c 22.885995
_cell_angle_alpha 90.000000
_cell_angle_beta 90.000000
_cell_angle_gamma 90.000000
_cell_volume 4900.586253
_symmetry_space_group_name_H-M "C M C A"
_symmetry_group_IT_number 64
_symmetry_cell_setting 'orthorhombic'
loop_
_space_group_symop_operation_xyz
x,y,z
-x,1/2-y,1/2+z
x,-y,-z
-x,1/2+y,1/2-z
-x,-y,-z
x,1/2+y,1/2-z
-x,y,z
x,1/2-y,1/2+z
1/2+x,1/2+y,z
1/2-x,-y,1/2+z
1/2+x,1/2-y,-z
1/2-x,y,1/2-z
1/2-x,1/2-y,-z
1/2+x,y,1/2-z
1/2-x,1/2+y,z
1/2+x,-y,1/2+z
loop_
_atom_site_type_symbol
_atom_site_label
_atom_site_fract_x
_atom_site_fract_y
_atom_site_fract_z
Si Si1 0.885602 0.696970 0.382476
Si Si2 0.108249 0.103414 0.993637
Si Si3 0.356189 0.184972 0.725557
Si Si4 0.609692 0.532578 0.683794
Si Si5 0.255270 0.861890 0.387555
Si Si6 0.607651 0.875744 0.738916
O O1 0.878422 0.644924 0.442559
O O2 0.817102 0.780117 0.386170
O O3 0.852854 0.642323 0.325692
O O4 0.000000 0.719834 0.373498
O O5 0.191894 0.128936 0.948983
O O6 0.000000 0.128827 0.973204
O O7 0.109544 0.000000 0.000000
O O8 0.250000 0.198552 0.750000
O O9 0.395986 0.111730 0.769117
O O10 0.339885 0.150768 0.660440
O O11 0.398245 0.281186 0.730798
O O12 0.500000 0.517731 0.662068
O O13 0.686207 0.560315 0.634606
O O14 0.648668 0.448406 0.718393
O O15 0.500000 0.909553 0.728242
#
# Coordination Sequence:
#
# PCOD9478341 Si02
#       6
#    16  16  16  16  16  16
#     4  10  20  39  63  85 119 160 201 250 307 367
#     4  10  24  42  60  87 117 158 212 261 309 362
#     4  10  20  33  52  87 121 154 192 242 296 359
#     4  10  21  36  58  91 126 159 198 243 305 367
#     4  11  22  38  61  90 119 161 204 252 303 365
#     4  10  20  35  58  87 122 160 193 242 306 370
#
# _framework density 19.589493999999998
#
# number of rings (size 3 to 8) (size 9 to 14) (size 15 to 20)
#    0.000    1.833    3.333    1.500    2.333    4.667 
#    0.000    0.000    0.000    4.000    0.000    0.000 
#    0.000    0.000    0.000    0.000    0.000    0.000 
#
# Total GULP energy -267669.301309 kJ/mol
# GULP energy per Si atom -5576.443777 kJ/mol
# Density = 1.954491 g / cm^3
# Si number density = 19.589494 Si / 1000 Ang^3
#
#
#
# Elastic Constant Matrix: (Units=GPa)
#
#
# Indices 1 2 3 4 5 6 
#
# 1 94.0083 21.8109 40.1445 0.0000 0.0000 0.0000
# 2 21.8109 66.6793 15.9727 0.0000 0.0000 0.0000
# 3 40.1445 15.9727 78.8083 0.0000 0.0000 0.0000
# 4 0.0000 0.0000 0.0000 30.0402 0.0000 0.0000
# 5 0.0000 0.0000 0.0000 0.0000 33.9143 0.0000
# 6 0.0000 0.0000 0.0000 0.0000 0.0000 20.3617
#
#
#
# Elastic Compliance Matrix: (Units=1/GPa)
#
#
# Indices 1 2 3 4 5 6 
#
# 1 0.014162 -0.003053 -0.006595 0.000000 0.000000 0.000000
# 2 -0.003053 0.016420 -0.001773 0.000000 0.000000 0.000000
# 3 -0.006595 -0.001773 0.016408 0.000000 0.000000 0.000000
# 4 0.000000 0.000000 0.000000 0.033289 0.000000 0.000000
# 5 0.000000 0.000000 0.000000 0.000000 0.029486 0.000000
# 6 0.000000 0.000000 0.000000 0.000000 0.000000 0.049112
#
#
# Mechanical properties :
#
#
# Convention : Reuss Voigt Hill
#
# Bulk Modulus (GPa) = 41.41056 43.92800 42.66928
# Shear Modulus (GPa) = 26.34788 27.63443 26.99115
#
# Velocity S-wave (km/s) = 3.67140 3.75997 3.71595
# Velocity P-wave (km/s) = 6.25758 6.42828 6.34351
#
# Compressibility (1/GPa) = 0.02414843
#
# Stress axis : x y z
#
# Youngs Moduli (GPa) = 70.61146 60.89992 60.94575
#
# Poissons Ratio (x) = 0.18590 0.40196
# Poissons Ratio (y) = 0.21554 0.10806
# Poissons Ratio (z) = 0.46571 0.10798
#
# Static dielectric constant tensor:
#      x y z
#    x 1.745730 0.000000 0.000000 
#    y 0.000000 1.703700 0.000000 
#    z 0.000000 0.000000 1.690740 
# 
# From -- ./inp_files/39171.got.cif
#   From: 2010.05.17/outbox.cif.g08.bks.cpg/sg64_20_cif.got.tgz:39171.got - 2010.06.03 16:29:19.
