data_PCOD9478395
_publ_section_title
;
Structure prediction by ZEFSAII (Michael W. Deem and Ramdas Pophale) SiO2 
 PCOD9478395
Probable space group: C M C A
;
_chemical_formula_sum "Si O2"
_cell_formula_units_Z 96
_cell_length_a 8.095739
_cell_length_b 31.412953
_cell_length_c 21.215681
_cell_angle_alpha 90.000000
_cell_angle_beta 90.000000
_cell_angle_gamma 90.000000
_cell_volume 5395.382508
_symmetry_space_group_name_H-M "C M C A"
_symmetry_group_IT_number 64
_symmetry_cell_setting 'orthorhombic'
loop_
_space_group_symop_operation_xyz
x,y,z
-x,1/2-y,1/2+z
x,-y,-z
-x,1/2+y,1/2-z
-x,-y,-z
x,1/2+y,1/2-z
-x,y,z
x,1/2-y,1/2+z
1/2+x,1/2+y,z
1/2-x,-y,1/2+z
1/2+x,1/2-y,-z
1/2-x,y,1/2-z
1/2-x,1/2-y,-z
1/2+x,y,1/2-z
1/2-x,1/2+y,z
1/2+x,-y,1/2+z
loop_
_atom_site_type_symbol
_atom_site_label
_atom_site_fract_x
_atom_site_fract_y
_atom_site_fract_z
Si Si1 0.702278 0.533864 0.446458
Si Si2 0.699536 0.210605 0.957068
Si Si3 0.802652 0.508905 0.816624
Si Si4 0.808736 0.881581 0.493455
Si Si5 0.802291 0.310071 0.182651
Si Si6 0.690917 0.598985 0.859277
O O1 0.754268 0.500000 0.500000
O O2 0.500000 0.534863 0.448510
O O3 0.751990 0.517381 0.377909
O O4 0.763356 0.581284 0.463014
O O5 0.500000 0.208381 0.956182
O O6 0.763312 0.165870 0.986588
O O7 0.751853 0.212142 0.883206
O O8 0.750000 0.250000 0.000000
O O9 0.750000 0.489690 0.750000
O O10 0.727408 0.556056 0.822258
O O11 0.000000 0.512705 0.818802
O O12 0.799542 0.900167 0.422582
O O13 0.000000 0.876283 0.511900
O O14 0.750000 0.291088 0.250000
O O15 0.731494 0.357941 0.177830
O O16 0.000000 0.312669 0.181648
O O17 0.500000 0.599885 0.878216
#
# Coordination Sequence:
#
# PCOD9478395 Si02
#       6
#    16  16  16  16  16  16
#     4   9  16  30  54  74  92 128 172 208 243 293
#     4   9  19  33  53  77 104 131 164 208 252 303
#     4  11  21  33  48  68  98 134 170 210 251 297
#     4   9  17  33  53  75  98 129 171 209 249 295
#     4  10  20  34  51  74 102 134 167 206 251 304
#     4  11  20  30  46  72 103 135 165 201 248 300
#
# _framework density 17.792992999999999
#
# number of rings (size 3 to 8) (size 9 to 14) (size 15 to 20)
#    0.000    2.167    1.667    4.000    0.000    3.333 
#    0.000    2.500    0.000    1.000    0.000    4.667 
#    0.000    0.000    0.000    0.000    0.000    0.000 
#
# Total GULP energy -267620.671331 kJ/mol
# GULP energy per Si atom -5575.430653 kJ/mol
# Density = 1.775250 g / cm^3
# Si number density = 17.792993 Si / 1000 Ang^3
#
#
#
# Elastic Constant Matrix: (Units=GPa)
#
#
# Indices 1 2 3 4 5 6 
#
# 1 28.8871 9.0510 4.3413 0.0000 0.0000 0.0000
# 2 9.0510 99.9684 79.1980 0.0000 0.0000 0.0000
# 3 4.3413 79.1980 146.6081 0.0000 0.0000 0.0000
# 4 0.0000 0.0000 0.0000 17.7574 0.0000 0.0000
# 5 0.0000 0.0000 0.0000 0.0000 20.8892 0.0000
# 6 0.0000 0.0000 0.0000 0.0000 0.0000 -3.9561
#
#
#
# Elastic Compliance Matrix: (Units=1/GPa)
#
#
# Indices 1 2 3 4 5 6 
#
# 1 0.035750 -0.004192 0.001206 0.000000 0.000000 0.000000
# 2 -0.004192 0.017979 -0.009588 0.000000 0.000000 0.000000
# 3 0.001206 -0.009588 0.011965 0.000000 0.000000 0.000000
# 4 0.000000 0.000000 0.000000 0.056315 0.000000 0.000000
# 5 0.000000 0.000000 0.000000 0.000000 0.047872 0.000000
# 6 0.000000 0.000000 0.000000 0.000000 0.000000 -0.252777
#
#
# Mechanical properties :
#
#
# Convention : Reuss Voigt Hill
#
# Bulk Modulus (GPa) = 24.66406 51.18269 37.92338
# Shear Modulus (GPa) = -113.03316 19.12966 -46.95175
#
# Velocity S-wave (km/s) = -7.97902 3.28246 -5.14248
# Velocity P-wave (km/s) = 8.42582 6.57223 3.72829
#
# Compressibility (1/GPa) = 0.04054482
#
# Stress axis : x y z
#
# Youngs Moduli (GPa) = 27.97218 55.62188 83.57993
#
# Poissons Ratio (x) = 0.23318 -0.10080
# Poissons Ratio (y) = 0.11726 0.80136
# Poissons Ratio (z) = -0.03373 0.53330
#
# Static dielectric constant tensor:
#      x y z
#    x 1.641400 0.000000 0.000000 
#    y 0.000000 1.606320 0.000000 
#    z 0.000000 0.000000 1.638160 
# 
# From -- ./inp_files/37048.got.cif
#   From: 2010.05.17/outbox.cif.g08.bks.cpg/sg64_19_cif.got.tgz:37048.got - 2010.06.03 16:29:19.
