data_PCOD9478667
_publ_section_title
;
Structure prediction by ZEFSAII (Michael W. Deem and Ramdas Pophale) SiO2 
 PCOD9478667
Probable space group: C M C A
;
_chemical_formula_sum "Si O2"
_cell_formula_units_Z 96
_cell_length_a 21.995052
_cell_length_b 11.986544
_cell_length_c 15.781904
_cell_angle_alpha 90.000000
_cell_angle_beta 90.000000
_cell_angle_gamma 90.000000
_cell_volume 4160.814692
_symmetry_space_group_name_H-M "C M C A"
_symmetry_group_IT_number 64
_symmetry_cell_setting 'orthorhombic'
loop_
_space_group_symop_operation_xyz
x,y,z
-x,1/2-y,1/2+z
x,-y,-z
-x,1/2+y,1/2-z
-x,-y,-z
x,1/2+y,1/2-z
-x,y,z
x,1/2-y,1/2+z
1/2+x,1/2+y,z
1/2-x,-y,1/2+z
1/2+x,1/2-y,-z
1/2-x,y,1/2-z
1/2-x,1/2-y,-z
1/2+x,y,1/2-z
1/2-x,1/2+y,z
1/2+x,-y,1/2+z
loop_
_atom_site_type_symbol
_atom_site_label
_atom_site_fract_x
_atom_site_fract_y
_atom_site_fract_z
Si Si1 0.569881 0.159935 0.949521
Si Si2 0.427443 0.511018 0.307632
Si Si3 0.183343 0.376200 0.270929
Si Si4 0.282305 0.401674 0.932712
Si Si5 0.171859 0.230394 0.433774
Si Si6 0.372043 0.677668 0.186714
O O1 0.500000 0.164251 0.972122
O O2 0.581463 0.042367 0.901326
O O3 0.584453 0.256938 0.879137
O O4 0.608386 0.184272 0.033208
O O5 0.500000 0.497103 0.290210
O O6 0.379088 0.435510 0.256258
O O7 0.407180 0.631360 0.269380
O O8 0.250000 0.427787 0.250000
O O9 0.176112 0.326473 0.364445
O O10 0.180032 0.264720 0.212773
O O11 0.214574 0.371284 0.903984
O O12 0.333276 0.417924 0.861699
O O13 0.279839 0.500000 0.000000
O O14 0.304276 0.289824 0.980532
#
# Coordination Sequence:
#
# PCOD9478667 Si02
#       6
#    16  16  16  16  16  16
#     4   9  20  39  61  86 121 165 203 250 308 369
#     4  10  22  39  62  90 122 162 207 254 308 366
#     4  11  22  39  60  90 122 158 205 257 309 372
#     4  10  20  35  57  83 116 153 193 249 310 356
#     4  10  21  37  56  85 119 150 202 249 305 368
#     4  10  20  38  60  88 120 159 203 255 303 363
#
# _framework density 23.072403999999999
#
# number of rings (size 3 to 8) (size 9 to 14) (size 15 to 20)
#    0.000    2.000    1.667    1.500    2.333    3.333 
#    0.000    0.000    0.000    8.000    0.000    0.000 
#    0.000    0.000    0.000    0.000    0.000    0.000 
#
# Total GULP energy -267680.111212 kJ/mol
# GULP energy per Si atom -5576.668984 kJ/mol
# Density = 2.301989 g / cm^3
# Si number density = 23.072404 Si / 1000 Ang^3
#
#
#
# Elastic Constant Matrix: (Units=GPa)
#
#
# Indices 1 2 3 4 5 6 
#
# 1 125.5792 22.2394 40.8244 0.0000 0.0000 0.0000
# 2 22.2394 56.4690 4.1229 0.0000 0.0000 0.0000
# 3 40.8244 4.1229 86.2236 0.0000 0.0000 0.0000
# 4 0.0000 0.0000 0.0000 37.7849 0.0000 0.0000
# 5 0.0000 0.0000 0.0000 0.0000 36.5569 0.0000
# 6 0.0000 0.0000 0.0000 0.0000 0.0000 30.7833
#
#
#
# Elastic Compliance Matrix: (Units=1/GPa)
#
#
# Indices 1 2 3 4 5 6 
#
# 1 0.010108 -0.003644 -0.004611 0.000000 0.000000 0.000000
# 2 -0.003644 0.019085 0.000813 0.000000 0.000000 0.000000
# 3 -0.004611 0.000813 0.013742 0.000000 0.000000 0.000000
# 4 0.000000 0.000000 0.000000 0.026466 0.000000 0.000000
# 5 0.000000 0.000000 0.000000 0.000000 0.027355 0.000000
# 6 0.000000 0.000000 0.000000 0.000000 0.000000 0.032485
#
#
# Mechanical properties :
#
#
# Convention : Reuss Voigt Hill
#
# Bulk Modulus (GPa) = 35.65169 44.73835 40.19502
# Shear Modulus (GPa) = 32.57865 34.43069 33.50467
#
# Velocity S-wave (km/s) = 3.76176 3.86721 3.81485
# Velocity P-wave (km/s) = 5.86118 6.27478 6.07150
#
# Compressibility (1/GPa) = 0.02804916
#
# Stress axis : x y z
#
# Youngs Moduli (GPa) = 98.93605 52.39826 72.76827
#
# Poissons Ratio (x) = 0.19094 0.33556
# Poissons Ratio (y) = 0.36052 -0.05914
# Poissons Ratio (z) = 0.45623 -0.04259
#
# Static dielectric constant tensor:
#      x y z
#    x 1.870690 0.000000 0.000000 
#    y 0.000000 2.030340 0.000000 
#    z 0.000000 0.000000 1.923100 
# 
# From -- ./inp_files/34912.got.cif
#   From: 2010.05.17/outbox.cif.g08.bks.cpg/sg64_18_cif.got.tgz:34912.got - 2010.06.03 16:29:19.
