data_PCOD9478862
_publ_section_title
;
Structure prediction by ZEFSAII (Michael W. Deem and Ramdas Pophale) SiO2 
 PCOD9478862
Probable space group: C M C A
;
_chemical_formula_sum "Si O2"
_cell_formula_units_Z 104
_cell_length_a 9.731004
_cell_length_b 22.348814
_cell_length_c 25.147529
_cell_angle_alpha 90.000000
_cell_angle_beta 90.000000
_cell_angle_gamma 90.000000
_cell_volume 5468.994036
_symmetry_space_group_name_H-M "C M C A"
_symmetry_group_IT_number 64
_symmetry_cell_setting 'orthorhombic'
loop_
_space_group_symop_operation_xyz
x,y,z
-x,1/2-y,1/2+z
x,-y,-z
-x,1/2+y,1/2-z
-x,-y,-z
x,1/2+y,1/2-z
-x,y,z
x,1/2-y,1/2+z
1/2+x,1/2+y,z
1/2-x,-y,1/2+z
1/2+x,1/2-y,-z
1/2-x,y,1/2-z
1/2-x,1/2-y,-z
1/2+x,y,1/2-z
1/2-x,1/2+y,z
1/2+x,-y,1/2+z
loop_
_atom_site_type_symbol
_atom_site_label
_atom_site_fract_x
_atom_site_fract_y
_atom_site_fract_z
Si Si1 0.844436 0.085550 0.498008
Si Si2 0.841301 0.452574 0.595356
Si Si3 0.250000 0.267565 0.750000
Si Si4 0.659668 0.821809 0.641097
Si Si5 0.842059 0.780236 0.546113
Si Si6 0.653123 0.851068 0.294736
Si Si7 0.660671 0.085626 0.601917
O O1 0.762565 0.047584 0.454113
O O2 0.852493 0.151209 0.472346
O O3 0.754791 0.090793 0.550747
O O4 0.000000 0.065724 0.508586
O O5 0.816749 0.392640 0.629631
O O6 0.827858 0.517150 0.622893
O O7 0.000000 0.448566 0.575956
O O8 0.315886 0.305595 0.797306
O O9 0.346188 0.219325 0.719404
O O10 0.500000 0.808985 0.627651
O O11 0.759111 0.784080 0.601848
O O12 0.750000 0.750000 0.500000
O O13 0.000000 0.756442 0.550664
O O14 0.500000 0.875063 0.290821
O O15 0.750000 0.878718 0.250000
O O16 0.703360 0.867302 0.353180
O O17 0.500000 0.095593 0.588153
#
# Coordination Sequence:
#
# PCOD9478862 Si02
#       7
#    16  16   8  16  16  16  16
#     4  10  21  35  54  84 118 150 185 227 280 334
#     4   9  19  37  59  83 113 150 191 229 273 336
#     4  10  22  38  60  84 110 146 188 240 286 342
#     4  10  21  39  61  83 112 152 194 238 285 339
#     4  10  22  37  55  84 120 154 191 236 284 341
#     4   9  21  38  56  80 109 142 185 232 280 335
#     4  10  20  36  58  84 114 150 189 228 277 337
#
# _framework density 19.016293999999998
#
# number of rings (size 3 to 8) (size 9 to 14) (size 15 to 20)
#    0.462    1.846    0.000    1.846    2.154    6.154 
#    1.385    0.000    0.000    0.000    0.000    0.000 
#    0.000    0.000    0.000    0.000    0.000    0.000 
#
# Total GULP energy -289678.557392 kJ/mol
# GULP energy per Si atom -5570.741488 kJ/mol
# Density = 1.897301 g / cm^3
# Si number density = 19.016294 Si / 1000 Ang^3
#
#
#
# Elastic Constant Matrix: (Units=GPa)
#
#
# Indices 1 2 3 4 5 6 
#
# 1 97.5160 28.9962 58.2658 0.0000 0.0000 0.0000
# 2 28.9962 49.2996 46.0838 0.0000 0.0000 0.0000
# 3 58.2658 46.0838 125.4643 0.0000 0.0000 0.0000
# 4 0.0000 0.0000 0.0000 30.9712 0.0000 0.0000
# 5 0.0000 0.0000 0.0000 0.0000 30.5647 0.0000
# 6 0.0000 0.0000 0.0000 0.0000 0.0000 8.4909
#
#
#
# Elastic Compliance Matrix: (Units=1/GPa)
#
#
# Indices 1 2 3 4 5 6 
#
# 1 0.014561 -0.003416 -0.005507 0.000000 0.000000 0.000000
# 2 -0.003416 0.031692 -0.010054 0.000000 0.000000 0.000000
# 3 -0.005507 -0.010054 0.014221 0.000000 0.000000 0.000000
# 4 0.000000 0.000000 0.000000 0.032288 0.000000 0.000000
# 5 0.000000 0.000000 0.000000 0.000000 0.032718 0.000000
# 6 0.000000 0.000000 0.000000 0.000000 0.000000 0.117774
#
#
# Mechanical properties :
#
#
# Convention : Reuss Voigt Hill
#
# Bulk Modulus (GPa) = 44.40796 59.88573 52.14684
# Shear Modulus (GPa) = 17.31813 23.26762 20.29287
#
# Velocity S-wave (km/s) = 3.02105 3.50174 3.27024
# Velocity P-wave (km/s) = 5.96425 6.92169 6.46073
#
# Compressibility (1/GPa) = 0.02251849
#
# Stress axis : x y z
#
# Youngs Moduli (GPa) = 68.67552 31.55403 70.31847
#
# Poissons Ratio (x) = 0.10779 0.38728
# Poissons Ratio (y) = 0.23460 0.70699
# Poissons Ratio (z) = 0.37823 0.31725
#
# Static dielectric constant tensor:
#      x y z
#    x 1.675650 0.000000 0.000000 
#    y 0.000000 1.695200 0.000000 
#    z 0.000000 0.000000 1.646870 
# 
# From -- ./inp_files/37275.got.cif
#   From: 2010.05.17/outbox.cif.g08.bks.cpg/sg64_19_cif.got.tgz:37275.got - 2010.06.03 16:29:19.
