data_PCOD9478006
_publ_section_title
;
Structure prediction by ZEFSAII (Michael W. Deem and Ramdas Pophale) SiO2 
 PCOD9478006
Probable space group: C M C A
;
_chemical_formula_sum "Si O2"
_cell_formula_units_Z 96
_cell_length_a 7.699151
_cell_length_b 21.261894
_cell_length_c 28.988069
_cell_angle_alpha 90.000000
_cell_angle_beta 90.000000
_cell_angle_gamma 90.000000
_cell_volume 4745.304354
_symmetry_space_group_name_H-M "C M C A"
_symmetry_group_IT_number 64
_symmetry_cell_setting 'orthorhombic'
loop_
_space_group_symop_operation_xyz
x,y,z
-x,1/2-y,1/2+z
x,-y,-z
-x,1/2+y,1/2-z
-x,-y,-z
x,1/2+y,1/2-z
-x,y,z
x,1/2-y,1/2+z
1/2+x,1/2+y,z
1/2-x,-y,1/2+z
1/2+x,1/2-y,-z
1/2-x,y,1/2-z
1/2-x,1/2-y,-z
1/2+x,y,1/2-z
1/2-x,1/2+y,z
1/2+x,-y,1/2+z
loop_
_atom_site_type_symbol
_atom_site_label
_atom_site_fract_x
_atom_site_fract_y
_atom_site_fract_z
Si Si1 0.298024 0.886825 0.552558
Si Si2 0.291961 0.050135 0.301305
Si Si3 0.288725 0.989633 0.395410
Si Si4 0.713319 0.259971 0.898536
Si Si5 0.291777 0.805607 0.698685
Si Si6 0.797249 0.134550 0.551199
O O1 0.500000 0.887517 0.566515
O O2 0.226643 0.823503 0.575814
O O3 0.286694 0.881842 0.497739
O O4 0.227820 0.952346 0.572297
O O5 0.500000 0.053631 0.305276
O O6 0.250000 0.027195 0.250000
O O7 0.225402 0.122196 0.305451
O O8 0.232155 0.007511 0.343654
O O9 0.500000 0.986262 0.396891
O O10 0.222296 0.923972 0.414564
O O11 0.500000 0.258280 0.899378
O O12 0.768271 0.265557 0.845152
O O13 0.772988 0.197915 0.925209
O O14 0.500000 0.808775 0.695492
O O15 0.250000 0.782312 0.750000
O O16 0.000000 0.144709 0.541165
#
# Coordination Sequence:
#
# PCOD9478006 Si02
#       6
#    16  16  16  16  16  16
#     4  10  19  36  59  76  96 137 185 217 247 303
#     4   9  17  31  54  80 102 128 168 215 257 300
#     4  10  20  36  56  77 102 139 179 210 250 311
#     4   9  18  35  56  76 103 139 174 208 256 312
#     4   9  16  31  54  79 102 128 167 213 257 302
#     4  11  23  35  50  77 111 140 168 215 269 306
#
# _framework density 20.230525
#
# number of rings (size 3 to 8) (size 9 to 14) (size 15 to 20)
#    0.000    2.333    1.667    1.500    0.000    3.333 
#    0.000    4.167    0.000    4.000    0.000    0.000 
#    0.000    0.000    0.000    0.000    0.000    0.000 
#
# Total GULP energy -267910.750832 kJ/mol
# GULP energy per Si atom -5581.473976 kJ/mol
# Density = 2.018448 g / cm^3
# Si number density = 20.230525 Si / 1000 Ang^3
#
#
#
# Elastic Constant Matrix: (Units=GPa)
#
#
# Indices 1 2 3 4 5 6 
#
# 1 28.8107 -3.4449 -13.9121 0.0000 0.0000 0.0000
# 2 -3.4449 60.3140 1.7596 0.0000 0.0000 0.0000
# 3 -13.9121 1.7596 87.3411 0.0000 0.0000 0.0000
# 4 0.0000 0.0000 0.0000 -4.8333 0.0000 0.0000
# 5 0.0000 0.0000 0.0000 0.0000 21.9073 0.0000
# 6 0.0000 0.0000 0.0000 0.0000 0.0000 17.7612
#
#
#
# Elastic Compliance Matrix: (Units=1/GPa)
#
#
# Indices 1 2 3 4 5 6 
#
# 1 0.037838 0.001986 0.005987 0.000000 0.000000 0.000000
# 2 0.001986 0.016694 -0.000020 0.000000 0.000000 0.000000
# 3 0.005987 -0.000020 0.012403 0.000000 0.000000 0.000000
# 4 0.000000 0.000000 0.000000 -0.206900 0.000000 0.000000
# 5 0.000000 0.000000 0.000000 0.000000 0.045647 0.000000
# 6 0.000000 0.000000 0.000000 0.000000 0.000000 0.056303
#
#
# Mechanical properties :
#
#
# Convention : Reuss Voigt Hill
#
# Bulk Modulus (GPa) = 12.07114 16.14124 14.10619
# Shear Modulus (GPa) = -190.05589 19.77125 -85.14232
#
# Velocity S-wave (km/s) = -9.70304 3.12957 -6.49442
# Velocity P-wave (km/s) = 10.93400 4.58856 7.01774
#
# Compressibility (1/GPa) = 0.08284218
#
# Stress axis : x y z
#
# Youngs Moduli (GPa) = 26.42858 59.90200 80.62316
#
# Poissons Ratio (x) = -0.11899 -0.48269
# Poissons Ratio (y) = -0.05250 0.00160
# Poissons Ratio (z) = -0.15823 0.00119
#
# Static dielectric constant tensor:
#      x y z
#    x 1.777010 0.000000 0.000000 
#    y 0.000000 1.690780 0.000000 
#    z 0.000000 0.000000 1.706770 
# 
# From -- ./inp_files/48025.got.cif
#   From: 2010.05.17/outbox.cif.g08.bks.cpg/sg64_25_cif.got.tgz:48025.got - 2010.06.03 16:29:19.
