data_PCOD9478832
_publ_section_title
;
Structure prediction by ZEFSAII (Michael W. Deem and Ramdas Pophale) SiO2 
 PCOD9478832
Probable space group: C M C A
;
_chemical_formula_sum "Si O2"
_cell_formula_units_Z 72
_cell_length_a 7.934662
_cell_length_b 21.228985
_cell_length_c 17.632303
_cell_angle_alpha 90.000000
_cell_angle_beta 90.000000
_cell_angle_gamma 90.000000
_cell_volume 2970.070115
_symmetry_space_group_name_H-M "C M C A"
_symmetry_group_IT_number 64
_symmetry_cell_setting 'orthorhombic'
loop_
_space_group_symop_operation_xyz
x,y,z
-x,1/2-y,1/2+z
x,-y,-z
-x,1/2+y,1/2-z
-x,-y,-z
x,1/2+y,1/2-z
-x,y,z
x,1/2-y,1/2+z
1/2+x,1/2+y,z
1/2-x,-y,1/2+z
1/2+x,1/2-y,-z
1/2-x,y,1/2-z
1/2-x,1/2-y,-z
1/2+x,y,1/2-z
1/2-x,1/2+y,z
1/2+x,-y,1/2+z
loop_
_atom_site_type_symbol
_atom_site_label
_atom_site_fract_x
_atom_site_fract_y
_atom_site_fract_z
Si Si1 0.804219 0.474006 0.334519
Si Si2 0.193180 0.834609 0.354388
Si Si3 0.749443 0.500000 0.000000
Si Si4 0.702397 0.696566 0.171510
Si Si5 0.689345 0.144863 0.486188
O O1 0.750000 0.495646 0.250000
O O2 0.791696 0.397683 0.333151
O O3 0.695369 0.494221 0.409259
O O4 0.000000 0.492366 0.348629
O O5 0.268216 0.768310 0.328379
O O6 0.198035 0.830896 0.445588
O O7 0.000000 0.841688 0.328668
O O8 0.676086 0.430224 0.994397
O O9 0.500000 0.700014 0.167890
O O10 0.750000 0.664578 0.250000
O O11 0.758881 0.662098 0.095815
O O12 0.500000 0.171097 0.494997
#
# Coordination Sequence:
#
# PCOD9478832 Si02
#       5
#    16  16   8  16  16
#     4  11  22  38  60  87 116 153 196 242 291 346
#     4  10  20  36  57  84 112 144 186 234 283 340
#     4  10  21  40  63  82 113 156 195 234 287 344
#     4  10  22  36  54  81 114 146 182 226 281 341
#     4  10  20  37  58  81 109 148 189 231 282 338
#
# _framework density 24.241852000000002
#
# number of rings (size 3 to 8) (size 9 to 14) (size 15 to 20)
#    0.000    1.778    0.000    6.000    0.000    5.333 
#    0.000   13.889    0.000    0.000    0.000    0.000 
#    0.000    0.000    0.000    0.000    0.000    0.000 
#
# Total GULP energy -200624.405734 kJ/mol
# GULP energy per Si atom -5572.900159 kJ/mol
# Density = 2.418668 g / cm^3
# Si number density = 24.241852 Si / 1000 Ang^3
#
#
#
# Elastic Constant Matrix: (Units=GPa)
#
#
# Indices 1 2 3 4 5 6 
#
# 1 58.3035 0.4124 13.5769 0.0000 0.0000 0.0000
# 2 0.4124 54.8563 32.5683 0.0000 0.0000 0.0000
# 3 13.5769 32.5683 232.6750 0.0000 0.0000 0.0000
# 4 0.0000 0.0000 0.0000 18.3860 0.0000 0.0000
# 5 0.0000 0.0000 0.0000 0.0000 26.9155 0.0000
# 6 0.0000 0.0000 0.0000 0.0000 0.0000 6.6995
#
#
#
# Elastic Compliance Matrix: (Units=1/GPa)
#
#
# Indices 1 2 3 4 5 6 
#
# 1 0.017401 0.000515 -0.001087 0.000000 0.000000 0.000000
# 2 0.000515 0.019897 -0.002815 0.000000 0.000000 0.000000
# 3 -0.001087 -0.002815 0.004755 0.000000 0.000000 0.000000
# 4 0.000000 0.000000 0.000000 0.054389 0.000000 0.000000
# 5 0.000000 0.000000 0.000000 0.000000 0.037153 0.000000
# 6 0.000000 0.000000 0.000000 0.000000 0.000000 0.149264
#
#
# Mechanical properties :
#
#
# Convention : Reuss Voigt Hill
#
# Bulk Modulus (GPa) = 28.34629 48.77223 38.55926
# Shear Modulus (GPa) = 16.58951 30.35201 23.47076
#
# Velocity S-wave (km/s) = 2.61881 3.54227 3.11495
# Velocity P-wave (km/s) = 4.56758 6.07396 5.37381
#
# Compressibility (1/GPa) = 0.03527798
#
# Stress axis : x y z
#
# Youngs Moduli (GPa) = 57.46728 50.25909 210.29035
#
# Poissons Ratio (x) = -0.02587 0.22868
# Poissons Ratio (y) = -0.02958 0.59198
# Poissons Ratio (z) = 0.06249 0.14148
#
# Static dielectric constant tensor:
#      x y z
#    x 1.953010 0.000000 0.000000 
#    y 0.000000 1.893740 0.000000 
#    z 0.000000 0.000000 2.014650 
# 
# From -- ./inp_files/29533.got.cif
#   From: 2010.05.17/outbox.cif.g08.bks.cpg/sg64_15_cif.got.tgz:29533.got - 2010.06.03 16:29:19.
