data_PCOD9478316
_publ_section_title
;
Structure prediction by ZEFSAII (Michael W. Deem and Ramdas Pophale) SiO2 
 PCOD9478316
Probable space group: C M C A
;
_chemical_formula_sum "Si O2"
_cell_formula_units_Z 96
_cell_length_a 9.058032
_cell_length_b 30.268653
_cell_length_c 21.008357
_cell_angle_alpha 90.000000
_cell_angle_beta 90.000000
_cell_angle_gamma 90.000000
_cell_volume 5759.954253
_symmetry_space_group_name_H-M "C M C A"
_symmetry_group_IT_number 64
_symmetry_cell_setting 'orthorhombic'
loop_
_space_group_symop_operation_xyz
x,y,z
-x,1/2-y,1/2+z
x,-y,-z
-x,1/2+y,1/2-z
-x,-y,-z
x,1/2+y,1/2-z
-x,y,z
x,1/2-y,1/2+z
1/2+x,1/2+y,z
1/2-x,-y,1/2+z
1/2+x,1/2-y,-z
1/2-x,y,1/2-z
1/2-x,1/2-y,-z
1/2+x,y,1/2-z
1/2-x,1/2+y,z
1/2+x,-y,1/2+z
loop_
_atom_site_type_symbol
_atom_site_label
_atom_site_fract_x
_atom_site_fract_y
_atom_site_fract_z
Si Si1 0.332053 0.655018 0.842039
Si Si2 0.828972 0.371303 0.487732
Si Si3 0.676057 0.947834 0.315656
Si Si4 0.821267 0.782795 0.948616
Si Si5 0.325436 0.243663 0.813254
Si Si6 0.823886 0.460988 0.049667
O O1 0.500000 0.666774 0.822948
O O2 0.300275 0.605387 0.819181
O O3 0.221420 0.692425 0.819736
O O4 0.326742 0.651948 0.918494
O O5 0.779976 0.333452 0.536400
O O6 0.732494 0.415039 0.480756
O O7 0.000000 0.383752 0.500272
O O8 0.500000 0.955275 0.315369
O O9 0.750000 0.963874 0.250000
O O10 0.746059 0.965933 0.381301
O O11 0.777623 0.767559 0.878174
O O12 0.000000 0.779966 0.954245
O O13 0.750000 0.750000 0.000000
O O14 0.500000 0.247256 0.807992
O O15 0.250000 0.261830 0.750000
O O16 0.000000 0.459380 0.059296
O O17 0.789265 0.500000 0.000000
#
# Coordination Sequence:
#
# PCOD9478316 Si02
#       6
#    16  16  16  16  16  16
#     4   9  17  30  48  71 101 134 167 205 251 304
#     4   9  18  33  53  76 102 132 171 217 262 312
#     4  10  20  33  51  76 107 140 172 210 259 316
#     4  10  20  34  52  75 101 134 176 216 255 303
#     4  11  22  32  46  69 100 138 175 213 257 302
#     4  10  21  36  55  80 108 136 173 219 265 318
#
# _framework density 16.666799999999999
#
# number of rings (size 3 to 8) (size 9 to 14) (size 15 to 20)
#    0.000    2.167    1.667    3.000    0.000    7.333 
#    0.000    0.000    0.000    1.000    0.000    4.667 
#    0.000    0.000    0.000    0.000    0.000    0.000 
#
# Total GULP energy -267739.961042 kJ/mol
# GULP energy per Si atom -5577.915855 kJ/mol
# Density = 1.662887 g / cm^3
# Si number density = 16.666800 Si / 1000 Ang^3
#
#
#
# Elastic Constant Matrix: (Units=GPa)
#
#
# Indices 1 2 3 4 5 6 
#
# 1 58.1120 40.8666 67.6068 0.0000 0.0000 0.0000
# 2 40.8666 66.6445 62.1446 0.0000 0.0000 0.0000
# 3 67.6068 62.1446 149.2663 0.0000 0.0000 0.0000
# 4 0.0000 0.0000 0.0000 17.6096 0.0000 0.0000
# 5 0.0000 0.0000 0.0000 0.0000 27.9799 0.0000
# 6 0.0000 0.0000 0.0000 0.0000 0.0000 17.7268
#
#
#
# Elastic Compliance Matrix: (Units=1/GPa)
#
#
# Indices 1 2 3 4 5 6 
#
# 1 0.042512 -0.013262 -0.013733 0.000000 0.000000 0.000000
# 2 -0.013262 0.028664 -0.005927 0.000000 0.000000 0.000000
# 3 -0.013733 -0.005927 0.015387 0.000000 0.000000 0.000000
# 4 0.000000 0.000000 0.000000 0.056787 0.000000 0.000000
# 5 0.000000 0.000000 0.000000 0.000000 0.035740 0.000000
# 6 0.000000 0.000000 0.000000 0.000000 0.000000 0.056412
#
#
# Mechanical properties :
#
#
# Convention : Reuss Voigt Hill
#
# Bulk Modulus (GPa) = 48.26698 68.36208 58.31453
# Shear Modulus (GPa) = 16.22043 19.55693 17.88868
#
# Velocity S-wave (km/s) = 3.12303 3.42922 3.27970
# Velocity P-wave (km/s) = 6.48284 7.53561 7.02896
#
# Compressibility (1/GPa) = 0.02071810
#
# Stress axis : x y z
#
# Youngs Moduli (GPa) = 23.52288 34.88654 64.98915
#
# Poissons Ratio (x) = 0.46268 0.89251
# Poissons Ratio (y) = 0.31197 0.38519
# Poissons Ratio (z) = 0.32304 0.20677
#
# Static dielectric constant tensor:
#      x y z
#    x 1.565160 0.000000 0.000000 
#    y 0.000000 1.540710 0.000000 
#    z 0.000000 0.000000 1.586400 
# 
# From -- ./inp_files/36958.got.cif
#   From: 2010.05.17/outbox.cif.g08.bks.cpg/sg64_19_cif.got.tgz:36958.got - 2010.06.03 16:29:19.
