data_PCOD9478979
_publ_section_title
;
Structure prediction by ZEFSAII (Michael W. Deem and Ramdas Pophale) SiO2 
 PCOD9478979
Probable space group: C M C A
;
_chemical_formula_sum "Si O2"
_cell_formula_units_Z 96
_cell_length_a 27.782376
_cell_length_b 19.136845
_cell_length_c 8.112882
_cell_angle_alpha 90.000000
_cell_angle_beta 90.000000
_cell_angle_gamma 90.000000
_cell_volume 4313.351823
_symmetry_space_group_name_H-M "C M C A"
_symmetry_group_IT_number 64
_symmetry_cell_setting 'orthorhombic'
loop_
_space_group_symop_operation_xyz
x,y,z
-x,1/2-y,1/2+z
x,-y,-z
-x,1/2+y,1/2-z
-x,-y,-z
x,1/2+y,1/2-z
-x,y,z
x,1/2-y,1/2+z
1/2+x,1/2+y,z
1/2-x,-y,1/2+z
1/2+x,1/2-y,-z
1/2-x,y,1/2-z
1/2-x,1/2-y,-z
1/2+x,y,1/2-z
1/2-x,1/2+y,z
1/2+x,-y,1/2+z
loop_
_atom_site_type_symbol
_atom_site_label
_atom_site_fract_x
_atom_site_fract_y
_atom_site_fract_z
Si Si1 0.946453 0.340192 0.495546
Si Si2 0.305830 0.266982 0.753082
Si Si3 0.844596 0.146127 0.553052
Si Si4 0.446858 0.179227 0.898468
Si Si5 0.656048 0.603065 0.073057
Si Si6 0.193236 0.977209 0.249750
O O1 0.945477 0.334319 0.297132
O O2 0.941289 0.261865 0.567298
O O3 0.900635 0.384114 0.552335
O O4 0.000000 0.366043 0.543014
O O5 0.250000 0.247174 0.750000
O O6 0.319520 0.310020 0.590547
O O7 0.337447 0.198809 0.790287
O O8 0.317350 0.324019 0.894019
O O9 0.901431 0.141237 0.521421
O O10 0.821351 0.072625 0.599789
O O11 0.500000 0.159104 0.960948
O O12 0.666406 0.550476 0.224132
O O13 0.678233 0.566843 0.912412
O O14 0.250000 0.990092 0.250000
#
# Coordination Sequence:
#
# PCOD9478979 Si02
#       6
#    16  16  16  16  16  16
#     4  10  20  38  64  96 129 167 211 266 325 385
#     4  12  24  38  62  91 124 162 213 267 321 384
#     4  12  22  39  62  92 126 163 210 267 324 376
#     4  10  20  36  62  95 128 164 207 259 325 380
#     4  11  23  42  62  90 126 166 216 262 318 387
#     4  11  24  42  63  85 125 169 213 264 320 383
#
# _framework density 22.256473
#
# number of rings (size 3 to 8) (size 9 to 14) (size 15 to 20)
#    0.000    1.000    3.333    4.500    0.000    2.000 
#    0.000    2.500    0.000    0.000    0.000    2.333 
#    0.000    0.000    0.000    0.000    0.000    0.000 
#
# Total GULP energy -268680.494819 kJ/mol
# GULP energy per Si atom -5597.510309 kJ/mol
# Density = 2.220582 g / cm^3
# Si number density = 22.256473 Si / 1000 Ang^3
#
#
#
# Elastic Constant Matrix: (Units=GPa)
#
#
# Indices 1 2 3 4 5 6 
#
# 1 182.5320 2.3695 -1.3898 0.0000 0.0000 0.0000
# 2 2.3695 59.3841 -7.6705 0.0000 0.0000 0.0000
# 3 -1.3898 -7.6705 54.9874 0.0000 0.0000 0.0000
# 4 0.0000 0.0000 0.0000 31.1219 0.0000 0.0000
# 5 0.0000 0.0000 0.0000 0.0000 30.6492 0.0000
# 6 0.0000 0.0000 0.0000 0.0000 0.0000 33.4098
#
#
#
# Elastic Compliance Matrix: (Units=1/GPa)
#
#
# Indices 1 2 3 4 5 6 
#
# 1 0.005482 -0.000205 0.000110 0.000000 0.000000 0.000000
# 2 -0.000205 0.017156 0.002388 0.000000 0.000000 0.000000
# 3 0.000110 0.002388 0.018522 0.000000 0.000000 0.000000
# 4 0.000000 0.000000 0.000000 0.032132 0.000000 0.000000
# 5 0.000000 0.000000 0.000000 0.000000 0.032627 0.000000
# 6 0.000000 0.000000 0.000000 0.000000 0.000000 0.029931
#
#
# Mechanical properties :
#
#
# Convention : Reuss Voigt Hill
#
# Bulk Modulus (GPa) = 21.85933 31.50245 26.68089
# Shear Modulus (GPa) = 34.12681 39.27578 36.70129
#
# Velocity S-wave (km/s) = 3.92004 4.20538 4.06521
# Velocity P-wave (km/s) = 5.50743 6.14535 5.83512
#
# Compressibility (1/GPa) = 0.04574706
#
# Stress axis : x y z
#
# Youngs Moduli (GPa) = 182.41574 58.28813 53.99020
#
# Poissons Ratio (x) = 0.01192 -0.00594
# Poissons Ratio (y) = 0.03731 -0.12893
# Poissons Ratio (z) = -0.02007 -0.13919
#
# Static dielectric constant tensor:
#      x y z
#    x 1.792160 0.000000 0.000000 
#    y 0.000000 1.809020 0.000000 
#    z 0.000000 0.000000 1.955850 
# 
# From -- ./inp_files/10376.got.cif
#   From: 2010.05.17/outbox.cif.g08.bks.cpg/sg64_6_cif.got.tgz:10376.got - 2010.06.03 16:29:19.
