data_PCOD9478767
_publ_section_title
;
Structure prediction by ZEFSAII (Michael W. Deem and Ramdas Pophale) SiO2 
 PCOD9478767
Probable space group: C M C A
;
_chemical_formula_sum "Si O2"
_cell_formula_units_Z 80
_cell_length_a 32.854486
_cell_length_b 24.894972
_cell_length_c 5.043460
_cell_angle_alpha 90.000000
_cell_angle_beta 90.000000
_cell_angle_gamma 90.000000
_cell_volume 4125.103979
_symmetry_space_group_name_H-M "C M C A"
_symmetry_group_IT_number 64
_symmetry_cell_setting 'orthorhombic'
loop_
_space_group_symop_operation_xyz
x,y,z
-x,1/2-y,1/2+z
x,-y,-z
-x,1/2+y,1/2-z
-x,-y,-z
x,1/2+y,1/2-z
-x,y,z
x,1/2-y,1/2+z
1/2+x,1/2+y,z
1/2-x,-y,1/2+z
1/2+x,1/2-y,-z
1/2-x,y,1/2-z
1/2-x,1/2-y,-z
1/2+x,y,1/2-z
1/2-x,1/2+y,z
1/2+x,-y,1/2+z
loop_
_atom_site_type_symbol
_atom_site_label
_atom_site_fract_x
_atom_site_fract_y
_atom_site_fract_z
Si Si1 0.221135 0.936763 0.996805
Si Si2 0.500000 0.785960 0.469395
Si Si3 0.367282 0.606051 0.101534
Si Si4 0.500000 0.959667 0.243144
Si Si5 0.088471 0.560284 0.885821
Si Si6 0.912351 0.712536 0.419734
O O1 0.250000 0.928650 0.750000
O O2 0.180444 0.903515 0.939527
O O3 0.250000 0.925503 0.250000
O O4 0.209265 0.000000 0.000000
O O5 0.500000 0.766416 0.165595
O O6 0.457428 0.813076 0.540739
O O7 0.387966 0.594260 0.388039
O O8 0.379633 0.666797 0.034167
O O9 0.387632 0.566760 0.887013
O O10 0.541691 0.926779 0.196620
O O11 0.500000 0.000000 0.500000
O O12 0.500000 0.000000 0.000000
O O13 0.089000 0.500000 0.000000
O O14 0.909510 0.760232 0.633394
#
# Coordination Sequence:
#
# PCOD9478767 Si02
#       6
#    16   8  16   8  16  16
#     4  10  21  38  60  86 117 148 184 240 306 370
#     4   8  16  32  54  76 105 144 187 239 290 325
#     4  12  23  37  62  88 112 154 201 245 301 359
#     4  10  20  36  52  76 122 170 196 229 286 349
#     4  11  22  36  55  84 120 154 195 240 285 352
#     4  10  21  38  57  82 116 152 196 249 295 345
#
# _framework density 19.393452
#
# number of rings (size 3 to 8) (size 9 to 14) (size 15 to 20)
#    0.000    1.600    0.000    6.600    0.000    3.200 
#    0.000    2.000    0.000    3.600    0.000    0.000 
#    0.000    0.000    0.000    0.000    0.000    0.000 
#
# Total GULP energy -223122.427085 kJ/mol
# GULP energy per Si atom -5578.060677 kJ/mol
# Density = 1.934931 g / cm^3
# Si number density = 19.393452 Si / 1000 Ang^3
#
#
#
# Elastic Constant Matrix: (Units=GPa)
#
#
# Indices 1 2 3 4 5 6 
#
# 1 175.5585 51.8471 33.7752 0.0000 0.0000 0.0000
# 2 51.8471 50.0088 5.6892 0.0000 0.0000 0.0000
# 3 33.7752 5.6892 122.6600 0.0000 0.0000 0.0000
# 4 0.0000 0.0000 0.0000 18.7873 0.0000 0.0000
# 5 0.0000 0.0000 0.0000 0.0000 -56.0215 0.0000
# 6 0.0000 0.0000 0.0000 0.0000 0.0000 91.2253
#
#
#
# Elastic Compliance Matrix: (Units=1/GPa)
#
#
# Indices 1 2 3 4 5 6 
#
# 1 0.008663 -0.008756 -0.001979 0.000000 0.000000 0.000000
# 2 -0.008756 0.028953 0.001068 0.000000 0.000000 0.000000
# 3 -0.001979 0.001068 0.008648 0.000000 0.000000 0.000000
# 4 0.000000 0.000000 0.000000 0.053227 0.000000 0.000000
# 5 0.000000 0.000000 0.000000 0.000000 -0.017850 0.000000
# 6 0.000000 0.000000 0.000000 0.000000 0.000000 0.010962
#
#
# Mechanical properties :
#
#
# Convention : Reuss Voigt Hill
#
# Bulk Modulus (GPa) = 37.13404 58.98336 48.05870
# Shear Modulus (GPa) = 41.35192 27.92597 34.63894
#
# Velocity S-wave (km/s) = 4.62265 3.79881 4.23083
# Velocity P-wave (km/s) = 6.90516 7.05134 6.97863
#
# Compressibility (1/GPa) = 0.02692947
#
# Stress axis : x y z
#
# Youngs Moduli (GPa) = 115.43635 34.53887 115.63280
#
# Poissons Ratio (x) = 0.30242 0.22886
# Poissons Ratio (y) = 1.01077 -0.12351
# Poissons Ratio (z) = 0.22848 -0.03689
#
# Static dielectric constant tensor:
#      x y z
#    x 1.687000 0.000000 0.000000 
#    y 0.000000 1.651700 0.000000 
#    z 0.000000 0.000000 1.682480 
# 
# From -- ./inp_files/2919.got.cif
#   From: 2010.05.17/outbox.cif.g08.bks.cpg/sg64_2_cif.got.tgz:2919.got - 2010.06.03 16:29:19.
