data_PCOD9478727
_publ_section_title
;
Structure prediction by ZEFSAII (Michael W. Deem and Ramdas Pophale) SiO2 
 PCOD9478727
Probable space group: C M C A
;
_chemical_formula_sum "Si O2"
_cell_formula_units_Z 104
_cell_length_a 16.660565
_cell_length_b 17.173672
_cell_length_c 16.116158
_cell_angle_alpha 90.000000
_cell_angle_beta 90.000000
_cell_angle_gamma 90.000000
_cell_volume 4611.204743
_symmetry_space_group_name_H-M "C M C A"
_symmetry_group_IT_number 64
_symmetry_cell_setting 'orthorhombic'
loop_
_space_group_symop_operation_xyz
x,y,z
-x,1/2-y,1/2+z
x,-y,-z
-x,1/2+y,1/2-z
-x,-y,-z
x,1/2+y,1/2-z
-x,y,z
x,1/2-y,1/2+z
1/2+x,1/2+y,z
1/2-x,-y,1/2+z
1/2+x,1/2-y,-z
1/2-x,y,1/2-z
1/2-x,1/2-y,-z
1/2+x,y,1/2-z
1/2-x,1/2+y,z
1/2+x,-y,1/2+z
loop_
_atom_site_type_symbol
_atom_site_label
_atom_site_fract_x
_atom_site_fract_y
_atom_site_fract_z
Si Si1 0.156524 0.536810 0.745629
Si Si2 0.000000 0.363225 0.200108
Si Si3 0.000000 0.716928 0.636373
Si Si4 0.853248 0.392170 0.417374
Si Si5 0.864095 0.156763 0.090826
Si Si6 0.716507 0.753085 0.842487
Si Si7 0.000000 0.775609 0.464860
Si Si8 0.406772 0.124150 0.221402
O O1 0.250000 0.560422 0.750000
O O2 0.083366 0.591327 0.778579
O O3 0.145844 0.536146 0.645544
O O4 0.143979 0.454689 0.791264
O O5 0.000000 0.286754 0.261690
O O6 0.000000 0.343998 0.102676
O O7 0.072462 0.660276 0.611196
O O8 0.000000 0.783613 0.564412
O O9 0.858244 0.403555 0.515029
O O10 0.785742 0.328037 0.392336
O O11 0.776559 0.189967 0.110412
O O12 0.900147 0.134535 0.179407
O O13 0.921288 0.225337 0.057217
O O14 0.750000 0.738512 0.750000
O O15 0.634947 0.802773 0.824738
O O16 0.500000 0.112690 0.200779
#
# Coordination Sequence:
#
# PCOD9478727 Si02
#       8
#    16   8   8  16  16  16   8  16
#     4  11  23  40  62  90 122 159 209 252 306 368
#     4  10  22  37  64  90 129 165 209 256 313 370
#     4   8  20  34  51  91 128 148 200 244 311 358
#     4  10  21  36  60  92 120 151 196 253 303 362
#     4  10  21  38  59  91 122 155 197 243 312 363
#     4  10  22  36  61  88 120 151 203 241 298 362
#     4  10  20  35  59  90 132 155 197 258 308 364
#     4  11  23  41  60  85 121 162 201 253 301 369
#
# _framework density 22.553757999999998
#
# number of rings (size 3 to 8) (size 9 to 14) (size 15 to 20)
#    0.000    1.846    1.538    2.308   11.846    0.615 
#    0.000    0.769    0.000    0.000    0.000    5.385 
#    0.000    0.000    0.000    0.000    0.000    0.000 
#
# Total GULP energy -289800.730072 kJ/mol
# GULP energy per Si atom -5573.090963 kJ/mol
# Density = 2.250242 g / cm^3
# Si number density = 22.553758 Si / 1000 Ang^3
#
#
#
# Elastic Constant Matrix: (Units=GPa)
#
#
# Indices 1 2 3 4 5 6 
#
# 1 118.3145 28.8971 16.6978 0.0000 0.0000 0.0000
# 2 28.8971 74.6463 29.3495 0.0000 0.0000 0.0000
# 3 16.6978 29.3495 113.5947 0.0000 0.0000 0.0000
# 4 0.0000 0.0000 0.0000 36.7693 0.0000 0.0000
# 5 0.0000 0.0000 0.0000 0.0000 41.8147 0.0000
# 6 0.0000 0.0000 0.0000 0.0000 0.0000 16.6946
#
#
#
# Elastic Compliance Matrix: (Units=1/GPa)
#
#
# Indices 1 2 3 4 5 6 
#
# 1 0.009359 -0.003431 -0.000489 0.000000 0.000000 0.000000
# 2 -0.003431 0.016169 -0.003673 0.000000 0.000000 0.000000
# 3 -0.000489 -0.003673 0.009824 0.000000 0.000000 0.000000
# 4 0.000000 0.000000 0.000000 0.027197 0.000000 0.000000
# 5 0.000000 0.000000 0.000000 0.000000 0.023915 0.000000
# 6 0.000000 0.000000 0.000000 0.000000 0.000000 0.059900
#
#
# Mechanical properties :
#
#
# Convention : Reuss Voigt Hill
#
# Bulk Modulus (GPa) = 49.58954 50.71604 50.15279
# Shear Modulus (GPa) = 29.71385 34.49646 32.10516
#
# Velocity S-wave (km/s) = 3.63363 3.91515 3.77702
# Velocity P-wave (km/s) = 6.29598 6.55541 6.42701
#
# Compressibility (1/GPa) = 0.02016554
#
# Stress axis : x y z
#
# Youngs Moduli (GPa) = 106.84885 61.84736 101.78931
#
# Poissons Ratio (x) = 0.21218 0.04981
# Poissons Ratio (y) = 0.36656 0.37390
# Poissons Ratio (z) = 0.05229 0.22718
#
# Static dielectric constant tensor:
#      x y z
#    x 1.702270 0.000000 0.000000 
#    y 0.000000 1.860610 0.000000 
#    z 0.000000 0.000000 1.852860 
# 
# From -- ./inp_files/33437.got.cif
#   From: 2010.05.17/outbox.cif.g08.bks.cpg/sg64_17_cif.got.tgz:33437.got - 2010.06.03 16:29:19.
