data_PCOD9478999
_publ_section_title
;
Structure prediction by ZEFSAII (Michael W. Deem and Ramdas Pophale) SiO2 
 PCOD9478999
Probable space group: C M C A
;
_chemical_formula_sum "Si O2"
_cell_formula_units_Z 88
_cell_length_a 11.333789
_cell_length_b 13.548692
_cell_length_c 26.343358
_cell_angle_alpha 90.000000
_cell_angle_beta 90.000000
_cell_angle_gamma 90.000000
_cell_volume 4045.233799
_symmetry_space_group_name_H-M "C M C A"
_symmetry_group_IT_number 64
_symmetry_cell_setting 'orthorhombic'
loop_
_space_group_symop_operation_xyz
x,y,z
-x,1/2-y,1/2+z
x,-y,-z
-x,1/2+y,1/2-z
-x,-y,-z
x,1/2+y,1/2-z
-x,y,z
x,1/2-y,1/2+z
1/2+x,1/2+y,z
1/2-x,-y,1/2+z
1/2+x,1/2-y,-z
1/2-x,y,1/2-z
1/2-x,1/2-y,-z
1/2+x,y,1/2-z
1/2-x,1/2+y,z
1/2+x,-y,1/2+z
loop_
_atom_site_type_symbol
_atom_site_label
_atom_site_fract_x
_atom_site_fract_y
_atom_site_fract_z
Si Si1 0.760010 0.406606 0.029436
Si Si2 0.000000 0.837301 0.192075
Si Si3 0.239761 0.134765 0.689370
Si Si4 0.242162 0.965361 0.619525
Si Si5 0.135567 0.291035 0.936238
Si Si6 0.500000 0.456247 0.849444
Si Si7 0.500000 0.260614 0.306463
O O1 0.814596 0.461095 0.078008
O O2 0.681874 0.317959 0.051179
O O3 0.701200 0.500000 0.000000
O O4 0.843738 0.353996 0.988378
O O5 0.133015 0.823425 0.169404
O O6 0.000000 0.783151 0.246081
O O7 0.000000 0.957001 0.192532
O O8 0.250000 0.139959 0.750000
O O9 0.122271 0.192819 0.673424
O O10 0.221162 0.021105 0.672350
O O11 0.200301 0.856471 0.606430
O O12 0.383997 0.965907 0.616302
O O13 0.000000 0.286719 0.923054
O O14 0.500000 0.353101 0.820835
#
# Coordination Sequence:
#
# PCOD9478999 Si02
#       7
#    16   8  16  16  16   8   8
#     4   9  21  42  60  89 121 163 205 246 318 379
#     4   8  18  42  62  81 127 168 207 264 313 373
#     4   9  19  38  63  90 129 167 212 259 317 372
#     4  10  22  39  62  90 126 170 201 260 318 378
#     4  10  22  41  63  96 125 157 209 262 318 380
#     4  10  22  40  63  90 126 166 218 253 318 393
#     4  10  20  36  64  93 119 164 221 270 313 370
#
# _framework density 21.753996000000001
#
# number of rings (size 3 to 8) (size 9 to 14) (size 15 to 20)
#    0.000    2.545    0.000    0.000    5.091    3.636 
#   13.091   21.818    0.000    0.000    0.000    0.000 
#    0.000    0.000    0.000    0.000    0.000    0.000 
#
# Total GULP energy -245052.629398 kJ/mol
# GULP energy per Si atom -5569.377941 kJ/mol
# Density = 2.170448 g / cm^3
# Si number density = 21.753996 Si / 1000 Ang^3
#
#
#
# Elastic Constant Matrix: (Units=GPa)
#
#
# Indices 1 2 3 4 5 6 
#
# 1 90.9626 25.1286 5.0319 0.0000 0.0000 0.0000
# 2 25.1286 131.3215 29.2348 0.0000 0.0000 0.0000
# 3 5.0319 29.2348 48.0858 0.0000 0.0000 0.0000
# 4 0.0000 0.0000 0.0000 38.0143 0.0000 0.0000
# 5 0.0000 0.0000 0.0000 0.0000 19.7406 0.0000
# 6 0.0000 0.0000 0.0000 0.0000 0.0000 20.5074
#
#
#
# Elastic Compliance Matrix: (Units=1/GPa)
#
#
# Indices 1 2 3 4 5 6 
#
# 1 0.011608 -0.002256 0.000157 0.000000 0.000000 0.000000
# 2 -0.002256 0.009245 -0.005385 0.000000 0.000000 0.000000
# 3 0.000157 -0.005385 0.024054 0.000000 0.000000 0.000000
# 4 0.000000 0.000000 0.000000 0.026306 0.000000 0.000000
# 5 0.000000 0.000000 0.000000 0.000000 0.050657 0.000000
# 6 0.000000 0.000000 0.000000 0.000000 0.000000 0.048763
#
#
# Mechanical properties :
#
#
# Convention : Reuss Voigt Hill
#
# Bulk Modulus (GPa) = 33.40125 43.24004 38.32064
# Shear Modulus (GPa) = 25.56490 29.71744 27.64117
#
# Velocity S-wave (km/s) = 3.43181 3.70005 3.56845
# Velocity P-wave (km/s) = 5.57589 6.17849 5.88491
#
# Compressibility (1/GPa) = 0.02993900
#
# Stress axis : x y z
#
# Youngs Moduli (GPa) = 86.14663 108.16199 41.57384
#
# Poissons Ratio (x) = 0.24403 -0.00653
# Poissons Ratio (y) = 0.19436 0.22387
# Poissons Ratio (z) = -0.01352 0.58244
#
# Static dielectric constant tensor:
#      x y z
#    x 1.807160 0.000000 0.000000 
#    y 0.000000 1.793840 0.000000 
#    z 0.000000 0.000000 1.851300 
# 
# From -- ./inp_files/52686.got.cif
#   From: 2010.05.17/outbox.cif.g08.bks.cpg/sg64_27_cif.got.tgz:52686.got - 2010.06.03 16:29:19.
