data_PCOD9478613
_publ_section_title
;
Structure prediction by ZEFSAII (Michael W. Deem and Ramdas Pophale) SiO2 
 PCOD9478613
Probable space group: C M C A
;
_chemical_formula_sum "Si O2"
_cell_formula_units_Z 100
_cell_length_a 7.770711
_cell_length_b 29.350182
_cell_length_c 19.598933
_cell_angle_alpha 90.000000
_cell_angle_beta 90.000000
_cell_angle_gamma 90.000000
_cell_volume 4469.963577
_symmetry_space_group_name_H-M "C M C A"
_symmetry_group_IT_number 64
_symmetry_cell_setting 'orthorhombic'
loop_
_space_group_symop_operation_xyz
x,y,z
-x,1/2-y,1/2+z
x,-y,-z
-x,1/2+y,1/2-z
-x,-y,-z
x,1/2+y,1/2-z
-x,y,z
x,1/2-y,1/2+z
1/2+x,1/2+y,z
1/2-x,-y,1/2+z
1/2+x,1/2-y,-z
1/2-x,y,1/2-z
1/2-x,1/2-y,-z
1/2+x,y,1/2-z
1/2-x,1/2+y,z
1/2+x,-y,1/2+z
loop_
_atom_site_type_symbol
_atom_site_label
_atom_site_fract_x
_atom_site_fract_y
_atom_site_fract_z
Si Si1 0.294243 0.510452 0.825605
Si Si2 0.299071 0.908510 0.675385
Si Si3 0.707613 0.563763 0.961377
Si Si4 0.801050 0.180099 0.395367
Si Si5 0.000000 0.000000 0.500000
Si Si6 0.207525 0.770375 0.172434
Si Si7 0.205654 0.328328 0.455782
O O1 0.500000 0.509434 0.830282
O O2 0.250000 0.527432 0.750000
O O3 0.219757 0.459030 0.831768
O O4 0.240270 0.541867 0.888133
O O5 0.500000 0.916774 0.676392
O O6 0.250000 0.889976 0.750000
O O7 0.269449 0.870023 0.619665
O O8 0.500000 0.555855 0.975470
O O9 0.735956 0.617581 0.957110
O O10 0.844109 0.538863 0.009882
O O11 0.724976 0.220266 0.348867
O O12 0.781397 0.192045 0.474726
O O13 0.000000 0.176732 0.377737
O O14 0.250000 0.782189 0.250000
O O15 0.268307 0.805231 0.113949
O O16 0.000000 0.769344 0.167761
O O17 0.000000 0.321752 0.459713
#
# Coordination Sequence:
#
# PCOD9478613 Si02
#       7
#    16  16  16  16   4  16  16
#     4   9  20  37  58  84 119 160 208 263 319 381
#     4  10  20  35  55  83 120 162 206 256 317 376
#     4  10  24  43  63  94 131 171 216 270 326 384
#     4  11  23  37  61  92 126 160 211 263 317 387
#     4  12  26  40  68  94 132 168 226 258 320 394
#     4  10  23  43  65  93 125 166 211 264 319 381
#     4  10  23  43  64  90 127 166 208 261 325 382
#
# _framework density 22.371545999999999
#
# number of rings (size 3 to 8) (size 9 to 14) (size 15 to 20)
#    0.000    1.920    0.000    2.160    4.480    4.480 
#    0.000    0.000    0.000    0.000    0.000    0.000 
#    0.000    0.000    0.000    0.000    0.000    0.000 
#
# Total GULP energy -278772.948541 kJ/mol
# GULP energy per Si atom -5575.458971 kJ/mol
# Density = 2.232063 g / cm^3
# Si number density = 22.371546 Si / 1000 Ang^3
#
#
#
# Elastic Constant Matrix: (Units=GPa)
#
#
# Indices 1 2 3 4 5 6 
#
# 1 50.7284 9.9324 -13.1290 0.0000 0.0000 0.0000
# 2 9.9324 37.9862 1.8090 0.0000 0.0000 0.0000
# 3 -13.1290 1.8090 110.7482 0.0000 0.0000 0.0000
# 4 0.0000 0.0000 0.0000 50.5631 0.0000 0.0000
# 5 0.0000 0.0000 0.0000 0.0000 25.1459 0.0000
# 6 0.0000 0.0000 0.0000 0.0000 0.0000 19.5408
#
#
#
# Elastic Compliance Matrix: (Units=1/GPa)
#
#
# Indices 1 2 3 4 5 6 
#
# 1 0.021524 -0.005754 0.002646 0.000000 0.000000 0.000000
# 2 -0.005754 0.027884 -0.001138 0.000000 0.000000 0.000000
# 3 0.002646 -0.001138 0.009362 0.000000 0.000000 0.000000
# 4 0.000000 0.000000 0.000000 0.019777 0.000000 0.000000
# 5 0.000000 0.000000 0.000000 0.000000 0.039768 0.000000
# 6 0.000000 0.000000 0.000000 0.000000 0.000000 0.051175
#
#
# Mechanical properties :
#
#
# Convention : Reuss Voigt Hill
#
# Bulk Modulus (GPa) = 19.88940 21.85416 20.87178
# Shear Modulus (GPa) = 25.67509 32.43998 29.05753
#
# Velocity S-wave (km/s) = 3.39140 3.81209 3.60788
# Velocity P-wave (km/s) = 4.92395 5.40055 5.16775
#
# Compressibility (1/GPa) = 0.05027803
#
# Stress axis : x y z
#
# Youngs Moduli (GPa) = 46.45949 35.86286 106.81813
#
# Poissons Ratio (x) = 0.20635 -0.28260
# Poissons Ratio (y) = 0.26733 0.12151
# Poissons Ratio (z) = -0.12291 0.04080
#
# Static dielectric constant tensor:
#      x y z
#    x 1.821670 0.000000 0.000000 
#    y 0.000000 1.854780 0.000000 
#    z 0.000000 0.000000 1.869960 
# 
# From -- ./inp_files/37235.got.cif
#   From: 2010.05.17/outbox.cif.g08.bks.cpg/sg64_19_cif.got.tgz:37235.got - 2010.06.03 16:29:19.
