data_PCOD9478258
_publ_section_title
;
Structure prediction by ZEFSAII (Michael W. Deem and Ramdas Pophale) SiO2 
 PCOD9478258
Probable space group: C M C A
;
_chemical_formula_sum "Si O2"
_cell_formula_units_Z 112
_cell_length_a 15.251849
_cell_length_b 14.907346
_cell_length_c 26.146192
_cell_angle_alpha 90.000000
_cell_angle_beta 90.000000
_cell_angle_gamma 90.000000
_cell_volume 5944.718229
_symmetry_space_group_name_H-M "C M C A"
_symmetry_group_IT_number 64
_symmetry_cell_setting 'orthorhombic'
loop_
_space_group_symop_operation_xyz
x,y,z
-x,1/2-y,1/2+z
x,-y,-z
-x,1/2+y,1/2-z
-x,-y,-z
x,1/2+y,1/2-z
-x,y,z
x,1/2-y,1/2+z
1/2+x,1/2+y,z
1/2-x,-y,1/2+z
1/2+x,1/2-y,-z
1/2-x,y,1/2-z
1/2-x,1/2-y,-z
1/2+x,y,1/2-z
1/2-x,1/2+y,z
1/2+x,-y,1/2+z
loop_
_atom_site_type_symbol
_atom_site_label
_atom_site_fract_x
_atom_site_fract_y
_atom_site_fract_z
Si Si1 0.179903 0.609953 0.089823
Si Si2 0.683112 0.391577 0.703736
Si Si3 0.254363 0.855268 0.487822
Si Si4 0.604658 0.811020 0.410825
Si Si5 0.395699 0.802369 0.296808
Si Si6 0.601942 0.581675 0.586245
Si Si7 0.394840 0.587426 0.700344
O O1 0.222444 0.609265 0.146187
O O2 0.129815 0.705007 0.083875
O O3 0.113745 0.526153 0.087718
O O4 0.247322 0.598231 0.043041
O O5 0.750000 0.386764 0.750000
O O6 0.624160 0.302900 0.706495
O O7 0.631566 0.484567 0.708337
O O8 0.250000 0.750000 0.500000
O O9 0.339529 0.865865 0.452372
O O10 0.167951 0.881603 0.456001
O O11 0.500000 0.821267 0.416123
O O12 0.633655 0.835860 0.352818
O O13 0.500000 0.814620 0.296659
O O14 0.359567 0.853463 0.247191
O O15 0.500000 0.604017 0.577030
O O16 0.631005 0.615311 0.642735
O O17 0.500000 0.593150 0.700260
#
# Coordination Sequence:
#
# PCOD9478258 Si02
#       7
#    16  16  16  16  16  16  16
#     4   9  19  35  54  78 105 133 175 229 272 311
#     4  10  20  32  52  79 107 140 174 214 270 331
#     4  10  21  33  49  77 109 135 167 215 266 321
#     4   9  18  34  55  77 104 141 179 216 267 326
#     4   9  18  33  53  75 103 141 181 222 265 313
#     4  10  20  35  57  81 105 136 176 225 275 315
#     4   9  19  35  54  78 106 137 178 225 267 313
#
# _framework density 18.840253000000001
#
# number of rings (size 3 to 8) (size 9 to 14) (size 15 to 20)
#    0.000    2.571    0.000    1.286    0.000   13.143 
#    0.000    0.000    0.000    3.429    0.000    0.000 
#    0.000    0.000    0.000    0.000    0.000    0.000 
#
# Total GULP energy -312113.803312 kJ/mol
# GULP energy per Si atom -5573.460773 kJ/mol
# Density = 1.879737 g / cm^3
# Si number density = 18.840253 Si / 1000 Ang^3
#
#
#
# Elastic Constant Matrix: (Units=GPa)
#
#
# Indices 1 2 3 4 5 6 
#
# 1 52.0965 6.4551 45.2097 0.0000 0.0000 0.0000
# 2 6.4551 46.6657 43.6657 0.0000 0.0000 0.0000
# 3 45.2097 43.6657 160.0816 0.0000 0.0000 0.0000
# 4 0.0000 0.0000 0.0000 32.0194 0.0000 0.0000
# 5 0.0000 0.0000 0.0000 0.0000 26.3949 0.0000
# 6 0.0000 0.0000 0.0000 0.0000 0.0000 -53.9957
#
#
#
# Elastic Compliance Matrix: (Units=1/GPa)
#
#
# Indices 1 2 3 4 5 6 
#
# 1 0.026086 0.004411 -0.008570 0.000000 0.000000 0.000000
# 2 0.004411 0.029519 -0.009298 0.000000 0.000000 0.000000
# 3 -0.008570 -0.009298 0.011203 0.000000 0.000000 0.000000
# 4 0.000000 0.000000 0.000000 0.031231 0.000000 0.000000
# 5 0.000000 0.000000 0.000000 0.000000 0.037886 0.000000
# 6 0.000000 0.000000 0.000000 0.000000 0.000000 -0.018520
#
#
# Mechanical properties :
#
#
# Convention : Reuss Voigt Hill
#
# Bulk Modulus (GPa) = 25.06628 49.94498 37.50563
# Shear Modulus (GPa) = 31.72243 11.78462 21.75352
#
# Velocity S-wave (km/s) = 4.10781 2.50372 3.40167
# Velocity P-wave (km/s) = 5.98601 5.90977 5.94802
#
# Compressibility (1/GPa) = 0.03989424
#
# Stress axis : x y z
#
# Youngs Moduli (GPa) = 38.33479 33.87669 89.25907
#
# Poissons Ratio (x) = -0.14943 0.76498
# Poissons Ratio (y) = -0.16909 0.82990
# Poissons Ratio (z) = 0.32854 0.31497
#
# Static dielectric constant tensor:
#      x y z
#    x 1.629140 0.000000 0.000000 
#    y 0.000000 1.661930 0.000000 
#    z 0.000000 0.000000 1.724220 
# 
# From -- ./inp_files/45256.got.cif
#   From: 2010.05.17/outbox.cif.g08.bks.cpg/sg64_23_cif.got.tgz:45256.got - 2010.06.03 16:29:19.
