data_PCOD9478375
_publ_section_title
;
Structure prediction by ZEFSAII (Michael W. Deem and Ramdas Pophale) SiO2 
 PCOD9478375
Probable space group: C M C A
;
_chemical_formula_sum "Si O2"
_cell_formula_units_Z 96
_cell_length_a 14.529904
_cell_length_b 15.335861
_cell_length_c 22.692060
_cell_angle_alpha 90.000000
_cell_angle_beta 90.000000
_cell_angle_gamma 90.000000
_cell_volume 5056.439691
_symmetry_space_group_name_H-M "C M C A"
_symmetry_group_IT_number 64
_symmetry_cell_setting 'orthorhombic'
loop_
_space_group_symop_operation_xyz
x,y,z
-x,1/2-y,1/2+z
x,-y,-z
-x,1/2+y,1/2-z
-x,-y,-z
x,1/2+y,1/2-z
-x,y,z
x,1/2-y,1/2+z
1/2+x,1/2+y,z
1/2-x,-y,1/2+z
1/2+x,1/2-y,-z
1/2-x,y,1/2-z
1/2-x,1/2-y,-z
1/2+x,y,1/2-z
1/2-x,1/2+y,z
1/2+x,-y,1/2+z
loop_
_atom_site_type_symbol
_atom_site_label
_atom_site_fract_x
_atom_site_fract_y
_atom_site_fract_z
Si Si1 0.786767 0.957618 0.121297
Si Si2 0.898808 0.984509 0.567618
Si Si3 0.752543 0.770109 0.319931
Si Si4 0.609793 0.371101 0.013924
Si Si5 0.888605 0.632639 0.374808
Si Si6 0.399235 0.785211 0.902450
O O1 0.773923 0.868291 0.158271
O O2 0.837131 0.934594 0.058903
O O3 0.682619 0.983604 0.107976
O O4 0.842743 0.040926 0.147127
O O5 0.904907 0.881759 0.574478
O O6 0.000000 0.023385 0.580198
O O7 0.875647 0.000000 0.500000
O O8 0.750000 0.767669 0.250000
O O9 0.842520 0.718772 0.345354
O O10 0.670158 0.715961 0.348997
O O11 0.500000 0.390095 0.016967
O O12 0.628245 0.277481 0.043937
O O13 0.634525 0.367223 0.945174
O O14 0.000000 0.631895 0.368330
O O15 0.500000 0.754160 0.882570
#
# Coordination Sequence:
#
# PCOD9478375 Si02
#       6
#    16  16  16  16  16  16
#     4  11  22  38  63  91 126 166 203 253 314 376
#     4  10  20  33  56  92 130 161 195 243 310 386
#     4  11  26  43  62  85 120 163 216 264 307 355
#     4   9  19  35  61  94 126 155 193 245 312 383
#     4  11  23  41  66  96 125 159 204 257 310 373
#     4   9  19  38  62  88 121 161 198 245 308 372
#
# _framework density 18.985690999999999
#
# number of rings (size 3 to 8) (size 9 to 14) (size 15 to 20)
#    0.000    1.833    1.667    2.000    2.333    5.333 
#    0.000    0.000    0.000    0.000    0.000    0.000 
#    0.000    0.000    0.000    0.000    0.000    0.000 
#
# Total GULP energy -267489.775465 kJ/mol
# GULP energy per Si atom -5572.703656 kJ/mol
# Density = 1.894248 g / cm^3
# Si number density = 18.985691 Si / 1000 Ang^3
#
#
#
# Elastic Constant Matrix: (Units=GPa)
#
#
# Indices 1 2 3 4 5 6 
#
# 1 65.6280 28.3867 38.1655 0.0000 0.0000 0.0000
# 2 28.3867 68.5639 60.2577 0.0000 0.0000 0.0000
# 3 38.1655 60.2577 89.2139 0.0000 0.0000 0.0000
# 4 0.0000 0.0000 0.0000 8.1888 0.0000 0.0000
# 5 0.0000 0.0000 0.0000 0.0000 46.3491 0.0000
# 6 0.0000 0.0000 0.0000 0.0000 0.0000 23.3238
#
#
#
# Elastic Compliance Matrix: (Units=1/GPa)
#
#
# Indices 1 2 3 4 5 6 
#
# 1 0.020385 -0.001908 -0.007432 0.000000 0.000000 0.000000
# 2 -0.001908 0.036067 -0.023545 0.000000 0.000000 0.000000
# 3 -0.007432 -0.023545 0.030291 0.000000 0.000000 0.000000
# 4 0.000000 0.000000 0.000000 0.122118 0.000000 0.000000
# 5 0.000000 0.000000 0.000000 0.000000 0.021575 0.000000
# 6 0.000000 0.000000 0.000000 0.000000 0.000000 0.042875
#
#
# Mechanical properties :
#
#
# Convention : Reuss Voigt Hill
#
# Bulk Modulus (GPa) = 47.67823 53.00286 50.34055
# Shear Modulus (GPa) = 14.44790 22.01206 18.22998
#
# Velocity S-wave (km/s) = 2.76159 3.40869 3.10206
# Velocity P-wave (km/s) = 5.94439 6.59319 6.27718
#
# Compressibility (1/GPa) = 0.02097393
#
# Stress axis : x y z
#
# Youngs Moduli (GPa) = 49.05668 27.72595 33.01321
#
# Poissons Ratio (x) = 0.05291 0.24534
# Poissons Ratio (y) = 0.09362 0.77728
# Poissons Ratio (z) = 0.36457 0.65279
#
# Static dielectric constant tensor:
#      x y z
#    x 1.712260 0.000000 0.000000 
#    y 0.000000 1.703280 0.000000 
#    z 0.000000 0.000000 1.618830 
# 
# From -- ./inp_files/39148.got.cif
#   From: 2010.05.17/outbox.cif.g08.bks.cpg/sg64_20_cif.got.tgz:39148.got - 2010.06.03 16:29:19.
