data_PCOD9478563
_publ_section_title
;
Structure prediction by ZEFSAII (Michael W. Deem and Ramdas Pophale) SiO2 
 PCOD9478563
Probable space group: C M C A
;
_chemical_formula_sum "Si O2"
_cell_formula_units_Z 48
_cell_length_a 18.780380
_cell_length_b 25.591871
_cell_length_c 5.180115
_cell_angle_alpha 90.000000
_cell_angle_beta 90.000000
_cell_angle_gamma 90.000000
_cell_volume 2489.693095
_symmetry_space_group_name_H-M "C M C A"
_symmetry_group_IT_number 64
_symmetry_cell_setting 'orthorhombic'
loop_
_space_group_symop_operation_xyz
x,y,z
-x,1/2-y,1/2+z
x,-y,-z
-x,1/2+y,1/2-z
-x,-y,-z
x,1/2+y,1/2-z
-x,y,z
x,1/2-y,1/2+z
1/2+x,1/2+y,z
1/2-x,-y,1/2+z
1/2+x,1/2-y,-z
1/2-x,y,1/2-z
1/2-x,1/2-y,-z
1/2+x,y,1/2-z
1/2-x,1/2+y,z
1/2+x,-y,1/2+z
loop_
_atom_site_type_symbol
_atom_site_label
_atom_site_fract_x
_atom_site_fract_y
_atom_site_fract_z
Si Si1 0.000000 0.715431 0.577362
Si Si2 0.750000 0.901121 0.750000
Si Si3 0.385439 0.060011 0.995254
Si Si4 0.390806 0.625158 0.020606
O O1 0.932192 0.678067 0.532059
O O2 0.000000 0.760449 0.361996
O O3 0.698941 0.935523 0.932483
O O4 0.693301 0.868338 0.583396
O O5 0.418167 0.094922 0.224705
O O6 0.398722 0.087095 0.723068
O O7 0.407492 0.000000 0.000000
#
# Coordination Sequence:
#
# PCOD9478563 Si02
#       4
#     8   8  16  16
#     4  12  26  48  67  78 111 164 210 258 318 348
#     4   8  22  32  66  86 136 150 196 236 284 354
#     4  10  20  34  62  94 129 162 186 227 296 362
#     4  10  22  38  60  92 119 158 203 247 285 357
#
# _framework density 19.279485999999999
#
# number of rings (size 3 to 8) (size 9 to 14) (size 15 to 20)
#    2.000    0.000    0.000    4.000    4.667    0.000 
#    0.000    6.667    0.000    0.000    0.000    0.000 
#    0.000    0.000    0.000    0.000    0.000    0.000 
#
# Total GULP energy -133693.605855 kJ/mol
# GULP energy per Si atom -5570.566911 kJ/mol
# Density = 1.923561 g / cm^3
# Si number density = 19.279486 Si / 1000 Ang^3
#
#
#
# Elastic Constant Matrix: (Units=GPa)
#
#
# Indices 1 2 3 4 5 6 
#
# 1 73.2140 23.6847 8.0591 0.0000 0.0000 0.0000
# 2 23.6847 60.6469 -2.3610 0.0000 0.0000 0.0000
# 3 8.0591 -2.3610 92.3184 0.0000 0.0000 0.0000
# 4 0.0000 0.0000 0.0000 32.4278 0.0000 0.0000
# 5 0.0000 0.0000 0.0000 0.0000 -13.5627 0.0000
# 6 0.0000 0.0000 0.0000 0.0000 0.0000 39.4222
#
#
#
# Elastic Compliance Matrix: (Units=1/GPa)
#
#
# Indices 1 2 3 4 5 6 
#
# 1 0.015850 -0.006250 -0.001544 0.000000 0.000000 0.000000
# 2 -0.006250 0.018970 0.001031 0.000000 0.000000 0.000000
# 3 -0.001544 0.001031 0.010993 0.000000 0.000000 0.000000
# 4 0.000000 0.000000 0.000000 0.030838 0.000000 0.000000
# 5 0.000000 0.000000 0.000000 0.000000 -0.073732 0.000000
# 6 0.000000 0.000000 0.000000 0.000000 0.000000 0.025366
#
#
# Mechanical properties :
#
#
# Convention : Reuss Voigt Hill
#
# Bulk Modulus (GPa) = 30.97167 31.66055 31.31611
# Shear Modulus (GPa) = 95.10311 24.77722 59.94017
#
# Velocity S-wave (km/s) = 7.03106 3.58880 5.58190
# Velocity P-wave (km/s) = 9.05615 5.79915 7.60408
#
# Compressibility (1/GPa) = 0.03228757
#
# Stress axis : x y z
#
# Youngs Moduli (GPa) = 63.08967 52.71495 90.96542
#
# Poissons Ratio (x) = 0.32948 0.14041
# Poissons Ratio (y) = 0.39433 -0.09377
# Poissons Ratio (z) = 0.09738 -0.05434
#
# Static dielectric constant tensor:
#      x y z
#    x 1.731130 0.000000 0.000000 
#    y 0.000000 1.609960 0.000000 
#    z 0.000000 0.000000 1.661890 
# 
# From -- ./inp_files/1160.got.cif
#   From: 2010.05.17/outbox.cif.g08.bks.cpg/sg64_1_cif.got.tgz:1160.got - 2010.06.03 16:29:19.
