data_PCOD9478930
_publ_section_title
;
Structure prediction by ZEFSAII (Michael W. Deem and Ramdas Pophale) SiO2 
 PCOD9478930
Probable space group: C M C A
;
_chemical_formula_sum "Si O2"
_cell_formula_units_Z 72
_cell_length_a 28.202486
_cell_length_b 7.965641
_cell_length_c 13.593383
_cell_angle_alpha 90.000000
_cell_angle_beta 90.000000
_cell_angle_gamma 90.000000
_cell_volume 3053.765437
_symmetry_space_group_name_H-M "C M C A"
_symmetry_group_IT_number 64
_symmetry_cell_setting 'orthorhombic'
loop_
_space_group_symop_operation_xyz
x,y,z
-x,1/2-y,1/2+z
x,-y,-z
-x,1/2+y,1/2-z
-x,-y,-z
x,1/2+y,1/2-z
-x,y,z
x,1/2-y,1/2+z
1/2+x,1/2+y,z
1/2-x,-y,1/2+z
1/2+x,1/2-y,-z
1/2-x,y,1/2-z
1/2-x,1/2-y,-z
1/2+x,y,1/2-z
1/2-x,1/2+y,z
1/2+x,-y,1/2+z
loop_
_atom_site_type_symbol
_atom_site_label
_atom_site_fract_x
_atom_site_fract_y
_atom_site_fract_z
Si Si1 0.251882 0.500000 0.500000
Si Si2 0.896261 0.713973 0.092846
Si Si3 0.178815 0.727197 0.920335
Si Si4 0.000000 0.558148 0.296361
Si Si5 0.500000 0.801202 0.904766
Si Si6 0.895018 0.075786 0.201641
O O1 0.216880 0.365787 0.546598
O O2 0.287046 0.433168 0.414293
O O3 0.892035 0.577795 0.180023
O O4 0.948870 0.698772 0.045789
O O5 0.891410 0.895896 0.147272
O O6 0.857246 0.700974 0.010381
O O7 0.146404 0.802798 0.835344
O O8 0.000000 0.373612 0.342951
O O9 0.948966 0.637292 0.322148
O O10 0.000000 0.554770 0.177967
#
# Coordination Sequence:
#
# PCOD9478930 Si02
#       6
#     8  16  16   8   8  16
#     4  10  24  42  62  78 112 148 186 254 290 322
#     4  10  20  36  60  88 117 151 187 226 278 341
#     4  11  22  43  61  80 113 148 192 236 293 330
#     4   8  16  31  53  84 119 147 179 224 270 328
#     4   8  16  31  53  84 119 147 179 224 270 328
#     4  10  20  36  60  88 117 151 187 226 278 341
#
# _framework density 23.577446999999999
#
# number of rings (size 3 to 8) (size 9 to 14) (size 15 to 20)
#    0.000    2.222    2.222    0.000    3.111    0.889 
#    0.000   10.000    0.000    1.333    0.000    0.000 
#    0.000    0.000    0.000    0.000    0.000    0.000 
#
# Total GULP energy -200972.699911 kJ/mol
# GULP energy per Si atom -5582.574998 kJ/mol
# Density = 2.352378 g / cm^3
# Si number density = 23.577447 Si / 1000 Ang^3
#
#
#
# Elastic Constant Matrix: (Units=GPa)
#
#
# Indices 1 2 3 4 5 6 
#
# 1 195.1967 42.0160 34.1222 0.0000 0.0000 0.0000
# 2 42.0160 42.3807 1.7554 0.0000 0.0000 0.0000
# 3 34.1222 1.7554 57.1195 0.0000 0.0000 0.0000
# 4 0.0000 0.0000 0.0000 23.6178 0.0000 0.0000
# 5 0.0000 0.0000 0.0000 0.0000 35.3623 0.0000
# 6 0.0000 0.0000 0.0000 0.0000 0.0000 -521.2245
#
#
#
# Elastic Compliance Matrix: (Units=1/GPa)
#
#
# Indices 1 2 3 4 5 6 
#
# 1 0.007399 -0.007161 -0.004200 0.000000 0.000000 0.000000
# 2 -0.007161 0.030557 0.003339 0.000000 0.000000 0.000000
# 3 -0.004200 0.003339 0.019913 0.000000 0.000000 0.000000
# 4 0.000000 0.000000 0.000000 0.042341 0.000000 0.000000
# 5 0.000000 0.000000 0.000000 0.000000 0.028279 0.000000
# 6 0.000000 0.000000 0.000000 0.000000 0.000000 -0.001919
#
#
# Mechanical properties :
#
#
# Convention : Reuss Voigt Hill
#
# Bulk Modulus (GPa) = 23.90923 50.05380 36.98152
# Shear Modulus (GPa) = 31.93761 -77.99533 -23.02886
#
# Velocity S-wave (km/s) = 3.68446 -5.75780 -3.12866
# Velocity P-wave (km/s) = 5.31630 4.78826 1.63334
#
# Compressibility (1/GPa) = 0.04182485
#
# Stress axis : x y z
#
# Youngs Moduli (GPa) = 135.16096 32.72604 50.21744
#
# Poissons Ratio (x) = 0.23435 0.21090
# Poissons Ratio (y) = 0.96788 -0.16766
# Poissons Ratio (z) = 0.56764 -0.10926
#
# Static dielectric constant tensor:
#      x y z
#    x 1.876430 0.000000 0.000000 
#    y 0.000000 1.980100 0.000000 
#    z 0.000000 0.000000 1.869310 
# 
# From -- ./inp_files/9165.got.cif
#   From: 2010.05.17/outbox.cif.g08.bks.cpg/sg64_5_cif.got.tgz:9165.got - 2010.06.03 16:29:19.
