data_PCOD9478167
_publ_section_title
;
Structure prediction by ZEFSAII (Michael W. Deem and Ramdas Pophale) SiO2 
 PCOD9478167
Probable space group: C M C A
;
_chemical_formula_sum "Si O2"
_cell_formula_units_Z 72
_cell_length_a 24.565740
_cell_length_b 10.931133
_cell_length_c 14.076691
_cell_angle_alpha 90.000000
_cell_angle_beta 90.000000
_cell_angle_gamma 90.000000
_cell_volume 3780.033136
_symmetry_space_group_name_H-M "C M C A"
_symmetry_group_IT_number 64
_symmetry_cell_setting 'orthorhombic'
loop_
_space_group_symop_operation_xyz
x,y,z
-x,1/2-y,1/2+z
x,-y,-z
-x,1/2+y,1/2-z
-x,-y,-z
x,1/2+y,1/2-z
-x,y,z
x,1/2-y,1/2+z
1/2+x,1/2+y,z
1/2-x,-y,1/2+z
1/2+x,1/2-y,-z
1/2-x,y,1/2-z
1/2-x,1/2-y,-z
1/2+x,y,1/2-z
1/2-x,1/2+y,z
1/2+x,-y,1/2+z
loop_
_atom_site_type_symbol
_atom_site_label
_atom_site_fract_x
_atom_site_fract_y
_atom_site_fract_z
Si Si1 0.697618 0.667714 0.604000
Si Si2 0.109791 0.000000 0.500000
Si Si3 0.123760 0.688517 0.721239
Si Si4 0.564090 0.443552 0.703609
Si Si5 0.812634 0.123156 0.959458
O O1 0.650560 0.598335 0.546073
O O2 0.675826 0.685531 0.709349
O O3 0.755230 0.600076 0.594178
O O4 0.702616 0.795832 0.550185
O O5 0.075095 0.954195 0.589909
O O6 0.091418 0.815483 0.736400
O O7 0.090252 0.564849 0.747365
O O8 0.146298 0.684007 0.614351
O O9 0.500000 0.440994 0.722281
O O10 0.837347 0.000000 0.000000
#
# Coordination Sequence:
#
# PCOD9478167 Si02
#       5
#    16   8  16  16  16
#     4  10  21  36  59  90 123 158 194 243 303 371
#     4  10  19  40  60  86 116 164 203 250 302 374
#     4  11  23  39  64  91 124 160 207 254 306 368
#     4  11  23  41  63  88 120 164 212 262 307 355
#     4  11  21  37  60  91 127 161 193 245 303 373
#
# _framework density 19.047452
#
# number of rings (size 3 to 8) (size 9 to 14) (size 15 to 20)
#    0.000    1.333    3.333    3.000    0.000    0.000 
#    0.000    4.444    0.000    2.667    0.000    0.000 
#    0.000    0.000    0.000    0.000    0.000    0.000 
#
# Total GULP energy -200829.557898 kJ/mol
# GULP energy per Si atom -5578.598830 kJ/mol
# Density = 1.900410 g / cm^3
# Si number density = 19.047452 Si / 1000 Ang^3
#
#
#
# Elastic Constant Matrix: (Units=GPa)
#
#
# Indices 1 2 3 4 5 6 
#
# 1 83.5499 20.2699 7.2578 0.0000 0.0000 0.0000
# 2 20.2699 95.9613 17.4691 0.0000 0.0000 0.0000
# 3 7.2578 17.4691 55.9954 0.0000 0.0000 0.0000
# 4 0.0000 0.0000 0.0000 26.7148 0.0000 0.0000
# 5 0.0000 0.0000 0.0000 0.0000 3.6808 0.0000
# 6 0.0000 0.0000 0.0000 0.0000 0.0000 18.1657
#
#
#
# Elastic Compliance Matrix: (Units=1/GPa)
#
#
# Indices 1 2 3 4 5 6 
#
# 1 0.012654 -0.002517 -0.000855 0.000000 0.000000 0.000000
# 2 -0.002517 0.011549 -0.003277 0.000000 0.000000 0.000000
# 3 -0.000855 -0.003277 0.018992 0.000000 0.000000 0.000000
# 4 0.000000 0.000000 0.000000 0.037432 0.000000 0.000000
# 5 0.000000 0.000000 0.000000 0.000000 0.271682 0.000000
# 6 0.000000 0.000000 0.000000 0.000000 0.000000 0.055049
#
#
# Mechanical properties :
#
#
# Convention : Reuss Voigt Hill
#
# Bulk Modulus (GPa) = 33.44815 36.16668 34.80741
# Shear Modulus (GPa) = 11.61114 22.41291 17.01202
#
# Velocity S-wave (km/s) = 2.47167 3.43401 2.99179
# Velocity P-wave (km/s) = 5.07386 5.89509 5.49983
#
# Compressibility (1/GPa) = 0.02989702
#
# Stress axis : x y z
#
# Youngs Moduli (GPa) = 79.02727 86.58678 52.65463
#
# Poissons Ratio (x) = 0.21796 0.04501
# Poissons Ratio (y) = 0.19893 0.17254
# Poissons Ratio (z) = 0.06755 0.28372
#
# Static dielectric constant tensor:
#      x y z
#    x 1.636980 0.000000 0.000000 
#    y 0.000000 1.691690 0.000000 
#    z 0.000000 0.000000 1.661440 
# 
# From -- ./inp_files/18914.got.cif
#   From: 2010.05.17/outbox.cif.g08.bks.cpg/sg64_10_cif.got.tgz:18914.got - 2010.06.03 16:29:19.
