data_PCOD9478921
_publ_section_title
;
Structure prediction by ZEFSAII (Michael W. Deem and Ramdas Pophale) SiO2 
 PCOD9478921
Probable space group: C M C A
;
_chemical_formula_sum "Si O2"
_cell_formula_units_Z 96
_cell_length_a 16.726291
_cell_length_b 18.880380
_cell_length_c 17.344416
_cell_angle_alpha 90.000000
_cell_angle_beta 90.000000
_cell_angle_gamma 90.000000
_cell_volume 5477.344547
_symmetry_space_group_name_H-M "C M C A"
_symmetry_group_IT_number 64
_symmetry_cell_setting 'orthorhombic'
loop_
_space_group_symop_operation_xyz
x,y,z
-x,1/2-y,1/2+z
x,-y,-z
-x,1/2+y,1/2-z
-x,-y,-z
x,1/2+y,1/2-z
-x,y,z
x,1/2-y,1/2+z
1/2+x,1/2+y,z
1/2-x,-y,1/2+z
1/2+x,1/2-y,-z
1/2-x,y,1/2-z
1/2-x,1/2-y,-z
1/2+x,y,1/2-z
1/2-x,1/2+y,z
1/2+x,-y,1/2+z
loop_
_atom_site_type_symbol
_atom_site_label
_atom_site_fract_x
_atom_site_fract_y
_atom_site_fract_z
Si Si1 0.257265 0.299664 0.426237
Si Si2 0.711909 0.539418 0.923491
Si Si3 0.092824 0.056757 0.780049
Si Si4 0.170024 0.212524 0.302217
Si Si5 0.180729 0.053081 0.315885
Si Si6 0.408002 0.197122 0.817111
O O1 0.250000 0.250000 0.500000
O O2 0.242305 0.381979 0.443047
O O3 0.190467 0.269917 0.367118
O O4 0.343524 0.292638 0.384601
O O5 0.646193 0.548259 0.856178
O O6 0.782062 0.491138 0.886309
O O7 0.681814 0.500000 0.000000
O O8 0.115763 0.126251 0.730383
O O9 0.000000 0.062648 0.799890
O O10 0.110072 0.990494 0.724213
O O11 0.250000 0.210450 0.250000
O O12 0.158363 0.133743 0.334563
O O13 0.102047 0.239571 0.244568
O O14 0.250000 0.055024 0.250000
O O15 0.500000 0.190921 0.842493
#
# Coordination Sequence:
#
# PCOD9478921 Si02
#       6
#    16  16  16  16  16  16
#     4  11  21  36  58  85 118 157 197 246 296 352
#     4  11  21  35  57  85 119 152 195 249 296 349
#     4  10  20  36  60  85 113 157 200 238 292 355
#     4   9  18  33  56  83 110 147 201 245 281 342
#     4   9  18  33  55  82 111 147 196 240 278 346
#     4  10  20  37  61  85 115 158 201 241 293 356
#
# _framework density 17.526741000000001
#
# number of rings (size 3 to 8) (size 9 to 14) (size 15 to 20)
#    0.000    2.000    3.333    1.000    0.000    2.333 
#    0.000    1.667    0.000    4.000    0.000    0.000 
#    0.000    0.000    0.000    0.000    0.000    0.000 
#
# Total GULP energy -267608.432612 kJ/mol
# GULP energy per Si atom -5575.175679 kJ/mol
# Density = 1.748685 g / cm^3
# Si number density = 17.526741 Si / 1000 Ang^3
#
#
#
# Elastic Constant Matrix: (Units=GPa)
#
#
# Indices 1 2 3 4 5 6 
#
# 1 58.3415 21.3196 44.2557 0.0000 0.0000 0.0000
# 2 21.3196 135.3615 40.6010 0.0000 0.0000 0.0000
# 3 44.2557 40.6010 90.3345 0.0000 0.0000 0.0000
# 4 0.0000 0.0000 0.0000 35.4575 0.0000 0.0000
# 5 0.0000 0.0000 0.0000 0.0000 15.2054 0.0000
# 6 0.0000 0.0000 0.0000 0.0000 0.0000 17.9767
#
#
#
# Elastic Compliance Matrix: (Units=1/GPa)
#
#
# Indices 1 2 3 4 5 6 
#
# 1 0.027290 -0.000333 -0.013220 0.000000 0.000000 0.000000
# 2 -0.000333 0.008543 -0.003676 0.000000 0.000000 0.000000
# 3 -0.013220 -0.003676 0.019199 0.000000 0.000000 0.000000
# 4 0.000000 0.000000 0.000000 0.028203 0.000000 0.000000
# 5 0.000000 0.000000 0.000000 0.000000 0.065766 0.000000
# 6 0.000000 0.000000 0.000000 0.000000 0.000000 0.055628
#
#
# Mechanical properties :
#
#
# Convention : Reuss Voigt Hill
#
# Bulk Modulus (GPa) = 48.60716 55.15445 51.88081
# Shear Modulus (GPa) = 20.32967 25.58533 22.95750
#
# Velocity S-wave (km/s) = 3.40946 3.82486 3.62312
# Velocity P-wave (km/s) = 6.57971 7.14445 6.86789
#
# Compressibility (1/GPa) = 0.02057310
#
# Stress axis : x y z
#
# Youngs Moduli (GPa) = 36.64279 117.05767 52.08586
#
# Poissons Ratio (x) = 0.03897 0.68859
# Poissons Ratio (y) = 0.01220 0.19149
# Poissons Ratio (z) = 0.48443 0.43036
#
# Static dielectric constant tensor:
#      x y z
#    x 1.578960 0.000000 0.000000 
#    y 0.000000 1.617440 0.000000 
#    z 0.000000 0.000000 1.592640 
# 
# From -- ./inp_files/33270.got.cif
#   From: 2010.05.17/outbox.cif.g08.bks.cpg/sg64_17_cif.got.tgz:33270.got - 2010.06.03 16:29:19.
