data_PCOD9478031
_publ_section_title
;
Structure prediction by ZEFSAII (Michael W. Deem and Ramdas Pophale) SiO2 
 PCOD9478031
Probable space group: C M C A
;
_chemical_formula_sum "Si O2"
_cell_formula_units_Z 96
_cell_length_a 8.716086
_cell_length_b 20.616271
_cell_length_c 28.739475
_cell_angle_alpha 90.000000
_cell_angle_beta 90.000000
_cell_angle_gamma 90.000000
_cell_volume 5164.287971
_symmetry_space_group_name_H-M "C M C A"
_symmetry_group_IT_number 64
_symmetry_cell_setting 'orthorhombic'
loop_
_space_group_symop_operation_xyz
x,y,z
-x,1/2-y,1/2+z
x,-y,-z
-x,1/2+y,1/2-z
-x,-y,-z
x,1/2+y,1/2-z
-x,y,z
x,1/2-y,1/2+z
1/2+x,1/2+y,z
1/2-x,-y,1/2+z
1/2+x,1/2-y,-z
1/2-x,y,1/2-z
1/2-x,1/2-y,-z
1/2+x,y,1/2-z
1/2-x,1/2+y,z
1/2+x,-y,1/2+z
loop_
_atom_site_type_symbol
_atom_site_label
_atom_site_fract_x
_atom_site_fract_y
_atom_site_fract_z
Si Si1 0.316395 0.115207 0.048905
Si Si2 0.184287 0.298578 0.799899
Si Si3 0.315289 0.984322 0.104575
Si Si4 0.315764 0.950695 0.799316
Si Si5 0.683051 0.263143 0.896131
Si Si6 0.317450 0.862092 0.446612
O O1 0.500000 0.124056 0.049783
O O2 0.283664 0.044265 0.069828
O O3 0.240968 0.169966 0.081065
O O4 0.254489 0.123138 0.996959
O O5 0.250000 0.277535 0.750000
O O6 0.227985 0.374924 0.805663
O O7 0.253950 0.261013 0.843544
O O8 0.000000 0.294184 0.800273
O O9 0.500000 0.973514 0.104288
O O10 0.268312 0.007764 0.156050
O O11 0.230880 0.920583 0.087220
O O12 0.500000 0.952202 0.797319
O O13 0.250000 0.973063 0.750000
O O14 0.500000 0.260716 0.896308
O O15 0.750276 0.204402 0.926266
O O16 0.500000 0.857284 0.450658
#
# Coordination Sequence:
#
# PCOD9478031 Si02
#       6
#    16  16  16  16  16  16
#     4  11  22  41  65  88 118 157 200 247 298 356
#     4  10  19  36  60  91 122 155 195 244 297 350
#     4  10  21  40  62  87 120 159 197 240 297 357
#     4   9  18  34  58  88 119 152 191 237 289 346
#     4  12  24  40  62  89 120 159 202 248 298 353
#     4  12  26  41  58  86 122 158 200 250 300 357
#
# _framework density 18.589203000000001
#
# number of rings (size 3 to 8) (size 9 to 14) (size 15 to 20)
#    0.000    1.333    1.667    5.000    0.000    4.667 
#    0.000    0.833    0.000    2.000    0.000    0.000 
#    0.000    0.000    0.000    0.000    0.000    0.000 
#
# Total GULP energy -268380.907564 kJ/mol
# GULP energy per Si atom -5591.268908 kJ/mol
# Density = 1.854689 g / cm^3
# Si number density = 18.589203 Si / 1000 Ang^3
#
#
#
# Elastic Constant Matrix: (Units=GPa)
#
#
# Indices 1 2 3 4 5 6 
#
# 1 77.0101 2.1469 -10.5957 0.0000 0.0000 0.0000
# 2 2.1469 25.8025 -20.9267 0.0000 0.0000 0.0000
# 3 -10.5957 -20.9267 78.9584 0.0000 0.0000 0.0000
# 4 0.0000 0.0000 0.0000 -18.4036 0.0000 0.0000
# 5 0.0000 0.0000 0.0000 0.0000 36.8127 0.0000
# 6 0.0000 0.0000 0.0000 0.0000 0.0000 25.0476
#
#
#
# Elastic Compliance Matrix: (Units=1/GPa)
#
#
# Indices 1 2 3 4 5 6 
#
# 1 0.013233 0.000432 0.001890 0.000000 0.000000 0.000000
# 2 0.000432 0.049382 0.013146 0.000000 0.000000 0.000000
# 3 0.001890 0.013146 0.016403 0.000000 0.000000 0.000000
# 4 0.000000 0.000000 0.000000 -0.054337 0.000000 0.000000
# 5 0.000000 0.000000 0.000000 0.000000 0.027165 0.000000
# 6 0.000000 0.000000 0.000000 0.000000 0.000000 0.039924
#
#
# Mechanical properties :
#
#
# Convention : Reuss Voigt Hill
#
# Bulk Modulus (GPa) = 9.09470 13.66888 11.38179
# Shear Modulus (GPa) = 51.29055 22.76780 37.02917
#
# Velocity S-wave (km/s) = 5.25847 3.50349 4.46799
# Velocity P-wave (km/s) = 6.46310 4.87186 5.72306
#
# Compressibility (1/GPa) = 0.10995409
#
# Stress axis : x y z
#
# Youngs Moduli (GPa) = 75.56662 20.25044 60.96571
#
# Poissons Ratio (x) = -0.00875 -0.11525
# Poissons Ratio (y) = -0.03265 -0.80144
# Poissons Ratio (z) = -0.14285 -0.26621
#
# Static dielectric constant tensor:
#      x y z
#    x 1.620740 0.000000 0.000000 
#    y 0.000000 1.615740 0.000000 
#    z 0.000000 0.000000 1.636920 
# 
# From -- ./inp_files/48078.got.cif
#   From: 2010.05.17/outbox.cif.g08.bks.cpg/sg64_25_cif.got.tgz:48078.got - 2010.06.03 16:29:19.
