data_PCOD9478025
_publ_section_title
;
Structure prediction by ZEFSAII (Michael W. Deem and Ramdas Pophale) SiO2 
 PCOD9478025
Probable space group: C M C A
;
_chemical_formula_sum "Si O2"
_cell_formula_units_Z 112
_cell_length_a 15.029541
_cell_length_b 31.357769
_cell_length_c 11.578687
_cell_angle_alpha 90.000000
_cell_angle_beta 90.000000
_cell_angle_gamma 90.000000
_cell_volume 5456.952683
_symmetry_space_group_name_H-M "C M C A"
_symmetry_group_IT_number 64
_symmetry_cell_setting 'orthorhombic'
loop_
_space_group_symop_operation_xyz
x,y,z
-x,1/2-y,1/2+z
x,-y,-z
-x,1/2+y,1/2-z
-x,-y,-z
x,1/2+y,1/2-z
-x,y,z
x,1/2-y,1/2+z
1/2+x,1/2+y,z
1/2-x,-y,1/2+z
1/2+x,1/2-y,-z
1/2-x,y,1/2-z
1/2-x,1/2-y,-z
1/2+x,y,1/2-z
1/2-x,1/2+y,z
1/2+x,-y,1/2+z
loop_
_atom_site_type_symbol
_atom_site_label
_atom_site_fract_x
_atom_site_fract_y
_atom_site_fract_z
Si Si1 0.095361 0.549827 0.029419
Si Si2 0.241433 0.911461 0.368581
Si Si3 0.100656 0.161604 0.672094
Si Si4 0.895995 0.632494 0.490754
Si Si5 0.350945 0.104557 0.233425
Si Si6 0.393973 0.282156 0.104811
Si Si7 0.603265 0.312176 0.592749
O O1 0.101867 0.567205 0.160376
O O2 0.000000 0.567824 0.985540
O O3 0.093346 0.500000 0.000000
O O4 0.181829 0.566884 0.965632
O O5 0.250000 0.938168 0.250000
O O6 0.177493 0.873065 0.326836
O O7 0.332127 0.895512 0.427423
O O8 0.117916 0.196080 0.771027
O O9 0.102201 0.180522 0.544062
O O10 0.000000 0.145234 0.693494
O O11 0.888196 0.617160 0.358864
O O12 0.865554 0.681838 0.512000
O O13 0.000000 0.630019 0.525071
O O14 0.250000 0.090933 0.250000
O O15 0.352450 0.147613 0.155401
O O16 0.500000 0.276086 0.083544
O O17 0.355493 0.234666 0.109000
O O18 0.500000 0.312702 0.634519
#
# Coordination Sequence:
#
# PCOD9478025 Si02
#       7
#    16  16  16  16  16  16  16
#     4  11  25  47  75 102 128 165 214 268 331 407
#     4  12  23  41  67  95 128 169 216 268 330 388
#     4  10  19  36  60  85 123 169 221 274 319 381
#     4  11  23  40  63  93 134 179 220 269 330 389
#     4  12  23  42  67  99 135 172 217 274 338 399
#     4   9  20  35  55  88 130 178 225 274 327 374
#     4  10  20  35  59  89 125 177 233 275 317 381
#
# _framework density 20.524276
#
# number of rings (size 3 to 8) (size 9 to 14) (size 15 to 20)
#    0.000    1.286    4.286    1.714    2.000    1.143 
#    2.571    1.429    0.000    0.429    0.000    0.000 
#    0.000    0.000    0.000    0.000    0.000    0.000 
#
# Total GULP energy -312444.148828 kJ/mol
# GULP energy per Si atom -5579.359800 kJ/mol
# Density = 2.047756 g / cm^3
# Si number density = 20.524276 Si / 1000 Ang^3
#
#
#
# Elastic Constant Matrix: (Units=GPa)
#
#
# Indices 1 2 3 4 5 6 
#
# 1 92.8614 27.1657 23.5415 0.0000 0.0000 0.0000
# 2 27.1657 75.1709 44.6235 0.0000 0.0000 0.0000
# 3 23.5415 44.6235 130.3451 0.0000 0.0000 0.0000
# 4 0.0000 0.0000 0.0000 10.7084 0.0000 0.0000
# 5 0.0000 0.0000 0.0000 0.0000 28.5056 0.0000
# 6 0.0000 0.0000 0.0000 0.0000 0.0000 20.2591
#
#
#
# Elastic Compliance Matrix: (Units=1/GPa)
#
#
# Indices 1 2 3 4 5 6 
#
# 1 0.012119 -0.003866 -0.000865 0.000000 0.000000 0.000000
# 2 -0.003866 0.017929 -0.005440 0.000000 0.000000 0.000000
# 3 -0.000865 -0.005440 0.009691 0.000000 0.000000 0.000000
# 4 0.000000 0.000000 0.000000 0.093384 0.000000 0.000000
# 5 0.000000 0.000000 0.000000 0.000000 0.035081 0.000000
# 6 0.000000 0.000000 0.000000 0.000000 0.000000 0.049361
#
#
# Mechanical properties :
#
#
# Convention : Reuss Voigt Hill
#
# Bulk Modulus (GPa) = 51.55520 54.33765 52.94642
# Shear Modulus (GPa) = 20.46054 25.43106 22.94580
#
# Velocity S-wave (km/s) = 3.16079 3.52386 3.34725
# Velocity P-wave (km/s) = 6.20439 6.56423 6.38684
#
# Compressibility (1/GPa) = 0.01939668
#
# Stress axis : x y z
#
# Youngs Moduli (GPa) = 82.51467 55.77430 103.19321
#
# Poissons Ratio (x) = 0.21562 0.08929
# Poissons Ratio (y) = 0.31900 0.56136
# Poissons Ratio (z) = 0.07140 0.30341
#
# Static dielectric constant tensor:
#      x y z
#    x 1.782310 0.000000 0.000000 
#    y 0.000000 1.743120 0.000000 
#    z 0.000000 0.000000 1.759080 
# 
# From -- ./inp_files/14991.got.cif
#   From: 2010.05.17/outbox.cif.g08.bks.cpg/sg64_8_cif.got.tgz:14991.got - 2010.06.03 16:29:19.
