data_PCOD9478379
_publ_section_title
;
Structure prediction by ZEFSAII (Michael W. Deem and Ramdas Pophale) SiO2 
 PCOD9478379
Probable space group: C M C A
;
_chemical_formula_sum "Si O2"
_cell_formula_units_Z 80
_cell_length_a 13.596959
_cell_length_b 12.200049
_cell_length_c 23.798678
_cell_angle_alpha 90.000000
_cell_angle_beta 90.000000
_cell_angle_gamma 90.000000
_cell_volume 3947.809574
_symmetry_space_group_name_H-M "C M C A"
_symmetry_group_IT_number 64
_symmetry_cell_setting 'orthorhombic'
loop_
_space_group_symop_operation_xyz
x,y,z
-x,1/2-y,1/2+z
x,-y,-z
-x,1/2+y,1/2-z
-x,-y,-z
x,1/2+y,1/2-z
-x,y,z
x,1/2-y,1/2+z
1/2+x,1/2+y,z
1/2-x,-y,1/2+z
1/2+x,1/2-y,-z
1/2-x,y,1/2-z
1/2-x,1/2-y,-z
1/2+x,y,1/2-z
1/2-x,1/2+y,z
1/2+x,-y,1/2+z
loop_
_atom_site_type_symbol
_atom_site_label
_atom_site_fract_x
_atom_site_fract_y
_atom_site_fract_z
Si Si1 0.716984 0.269846 0.686094
Si Si2 0.886503 0.801612 0.397228
Si Si3 0.613410 0.093817 0.616731
Si Si4 0.116080 0.217353 0.475135
Si Si5 0.305468 0.457924 0.607714
O O1 0.750000 0.273610 0.750000
O O2 0.813334 0.248934 0.647960
O O3 0.644370 0.169898 0.669784
O O4 0.672307 0.382453 0.661917
O O5 0.856731 0.766396 0.460239
O O6 0.000000 0.773492 0.387757
O O7 0.870047 0.932524 0.394418
O O8 0.500000 0.059314 0.619658
O O9 0.626729 0.174900 0.563243
O O10 0.692804 0.998301 0.610916
O O11 0.171888 0.117433 0.445760
O O12 0.000000 0.189143 0.474604
#
# Coordination Sequence:
#
# PCOD9478379 Si02
#       5
#    16  16  16  16  16
#     4  10  23  40  55  76 109 147 189 235 279 322
#     4  10  21  37  59  85 111 144 187 229 274 332
#     4   9  20  38  59  83 114 149 182 223 278 336
#     4   9  18  35  58  86 117 145 177 222 278 338
#     4  10  20  33  58  86 113 144 182 227 278 332
#
# _framework density 20.264402
#
# number of rings (size 3 to 8) (size 9 to 14) (size 15 to 20)
#    0.000    2.400    0.000    1.200    0.000   16.000 
#    0.000    0.000    0.000   13.200    0.000    0.000 
#    0.000    0.000    0.000    0.000    0.000    0.000 
#
# Total GULP energy -223568.679154 kJ/mol
# GULP energy per Si atom -5589.216979 kJ/mol
# Density = 2.021828 g / cm^3
# Si number density = 20.264402 Si / 1000 Ang^3
#
#
#
# Elastic Constant Matrix: (Units=GPa)
#
#
# Indices 1 2 3 4 5 6 
#
# 1 59.9997 0.4828 10.3988 0.0000 0.0000 0.0000
# 2 0.4828 59.8504 16.1592 0.0000 0.0000 0.0000
# 3 10.3988 16.1592 130.6510 0.0000 0.0000 0.0000
# 4 0.0000 0.0000 0.0000 4.4609 0.0000 0.0000
# 5 0.0000 0.0000 0.0000 0.0000 18.7954 0.0000
# 6 0.0000 0.0000 0.0000 0.0000 0.0000 13.8733
#
#
#
# Elastic Compliance Matrix: (Units=1/GPa)
#
#
# Indices 1 2 3 4 5 6 
#
# 1 0.016903 0.000235 -0.001374 0.000000 0.000000 0.000000
# 2 0.000235 0.017289 -0.002157 0.000000 0.000000 0.000000
# 3 -0.001374 -0.002157 0.008030 0.000000 0.000000 0.000000
# 4 0.000000 0.000000 0.000000 0.224171 0.000000 0.000000
# 5 0.000000 0.000000 0.000000 0.000000 0.053205 0.000000
# 6 0.000000 0.000000 0.000000 0.000000 0.000000 0.072081
#
#
# Mechanical properties :
#
#
# Convention : Reuss Voigt Hill
#
# Bulk Modulus (GPa) = 28.06725 33.84251 30.95488
# Shear Modulus (GPa) = 12.19073 22.32327 17.25700
#
# Velocity S-wave (km/s) = 2.45538 3.32264 2.92137
# Velocity P-wave (km/s) = 4.68179 5.60862 5.16603
#
# Compressibility (1/GPa) = 0.03562871
#
# Stress axis : x y z
#
# Youngs Moduli (GPa) = 59.16086 57.84091 124.53065
#
# Poissons Ratio (x) = -0.01358 0.17115
# Poissons Ratio (y) = -0.01389 0.26861
# Poissons Ratio (z) = 0.08131 0.12476
#
# Static dielectric constant tensor:
#      x y z
#    x 1.745340 0.000000 0.000000 
#    y 0.000000 1.718640 0.000000 
#    z 0.000000 0.000000 1.688370 
# 
# From -- ./inp_files/44928.got.cif
#   From: 2010.05.17/outbox.cif.g08.bks.cpg/sg64_23_cif.got.tgz:44928.got - 2010.06.03 16:29:19.
