data_PCOD9478180
_publ_section_title
;
Structure prediction by ZEFSAII (Michael W. Deem and Ramdas Pophale) SiO2 
 PCOD9478180
Probable space group: C M C A
;
_chemical_formula_sum "Si O2"
_cell_formula_units_Z 116
_cell_length_a 23.288641
_cell_length_b 25.348821
_cell_length_c 9.848214
_cell_angle_alpha 90.000000
_cell_angle_beta 90.000000
_cell_angle_gamma 90.000000
_cell_volume 5813.790635
_symmetry_space_group_name_H-M "C M C A"
_symmetry_group_IT_number 64
_symmetry_cell_setting 'orthorhombic'
loop_
_space_group_symop_operation_xyz
x,y,z
-x,1/2-y,1/2+z
x,-y,-z
-x,1/2+y,1/2-z
-x,-y,-z
x,1/2+y,1/2-z
-x,y,z
x,1/2-y,1/2+z
1/2+x,1/2+y,z
1/2-x,-y,1/2+z
1/2+x,1/2-y,-z
1/2-x,y,1/2-z
1/2-x,1/2-y,-z
1/2+x,y,1/2-z
1/2-x,1/2+y,z
1/2+x,-y,1/2+z
loop_
_atom_site_type_symbol
_atom_site_label
_atom_site_fract_x
_atom_site_fract_y
_atom_site_fract_z
Si Si1 0.342551 0.619595 0.499027
Si Si2 0.603202 0.299810 0.061890
Si Si3 0.406093 0.915162 0.500068
Si Si4 0.068026 0.701398 0.878098
Si Si5 0.184155 0.933990 0.772002
Si Si6 0.771811 0.339419 0.391397
Si Si7 0.332489 0.057960 0.733254
Si Si8 0.500000 0.000000 0.500000
O O1 0.394615 0.655388 0.551507
O O2 0.348847 0.592636 0.353795
O O3 0.283080 0.653081 0.512298
O O4 0.335754 0.573964 0.611070
O O5 0.587621 0.292381 0.220883
O O6 0.672341 0.309117 0.054964
O O7 0.575543 0.354709 0.011248
O O8 0.582399 0.253038 0.966629
O O9 0.349175 0.917432 0.592829
O O10 0.391807 0.933192 0.346103
O O11 0.450619 0.957742 0.550576
O O12 0.000000 0.690918 0.880837
O O13 0.250000 0.917160 0.750000
O O14 0.184903 0.997563 0.777447
O O15 0.750000 0.313882 0.250000
O O16 0.793817 0.397667 0.342281
#
# Coordination Sequence:
#
# PCOD9478180 Si02
#       8
#    16  16  16  16  16  16  16   4
#     4  11  23  41  65  98 139 171 217 275 342 391
#     4  11  25  47  72  95 130 166 224 283 335 388
#     4  11  24  43  68 100 131 182 223 276 329 389
#     4  12  27  47  68  95 123 179 228 268 331 398
#     4  12  23  38  64 105 140 171 220 275 340 405
#     4   9  17  40  68  96 127 170 212 270 336 400
#     4  10  19  40  66  97 133 176 221 262 338 407
#     4  12  24  44  76  98 136 184 240 264 310 420
#
# _framework density 19.952559000000001
#
# number of rings (size 3 to 8) (size 9 to 14) (size 15 to 20)
#    0.000    1.103    5.517    3.724    3.862    1.655 
#    1.241    0.000    0.000    1.655    0.000    0.000 
#    0.000    0.000    0.000    0.000    0.000    0.000 
#
# Total GULP energy -323090.246305 kJ/mol
# GULP energy per Si atom -5570.521488 kJ/mol
# Density = 1.990715 g / cm^3
# Si number density = 19.952559 Si / 1000 Ang^3
#
#
#
# Elastic Constant Matrix: (Units=GPa)
#
#
# Indices 1 2 3 4 5 6 
#
# 1 84.7202 9.5248 3.7077 0.0000 0.0000 0.0000
# 2 9.5248 59.9015 23.9626 0.0000 0.0000 0.0000
# 3 3.7077 23.9626 71.3867 0.0000 0.0000 0.0000
# 4 0.0000 0.0000 0.0000 26.2975 0.0000 0.0000
# 5 0.0000 0.0000 0.0000 0.0000 -4.0278 0.0000
# 6 0.0000 0.0000 0.0000 0.0000 0.0000 -54.9762
#
#
#
# Elastic Compliance Matrix: (Units=1/GPa)
#
#
# Indices 1 2 3 4 5 6 
#
# 1 0.012018 -0.001919 0.000020 0.000000 0.000000 0.000000
# 2 -0.001919 0.019590 -0.006476 0.000000 0.000000 0.000000
# 3 0.000020 -0.006476 0.016181 0.000000 0.000000 0.000000
# 4 0.000000 0.000000 0.000000 0.038026 0.000000 0.000000
# 5 0.000000 0.000000 0.000000 0.000000 -0.248277 0.000000
# 6 0.000000 0.000000 0.000000 0.000000 0.000000 -0.018190
#
#
# Mechanical properties :
#
#
# Convention : Reuss Voigt Hill
#
# Bulk Modulus (GPa) = 32.21756 32.26651 32.24203
# Shear Modulus (GPa) = -32.56180 5.37959 -13.59111
#
# Velocity S-wave (km/s) = -4.04414 1.64379 -2.61276
# Velocity P-wave (km/s) = 2.37162 4.45078 2.66316
#
# Compressibility (1/GPa) = 0.03103898
#
# Stress axis : x y z
#
# Youngs Moduli (GPa) = 83.20554 51.04676 61.80079
#
# Poissons Ratio (x) = 0.09796 -0.00123
# Poissons Ratio (y) = 0.15967 0.40023
# Poissons Ratio (z) = -0.00166 0.33058
#
# Static dielectric constant tensor:
#      x y z
#    x 1.783450 0.000000 0.000000 
#    y 0.000000 1.711810 0.000000 
#    z 0.000000 0.000000 1.698960 
# 
# From -- ./inp_files/9752.got.cif
#   From: 2010.05.17/outbox.cif.g08.bks.cpg/sg64_5_cif.got.tgz:9752.got - 2010.06.03 16:29:19.
