data_PCOD9478236
_publ_section_title
;
Structure prediction by ZEFSAII (Michael W. Deem and Ramdas Pophale) SiO2 
 PCOD9478236
Probable space group: C M C A
;
_chemical_formula_sum "Si O2"
_cell_formula_units_Z 112
_cell_length_a 14.340470
_cell_length_b 14.140046
_cell_length_c 25.156376
_cell_angle_alpha 90.000000
_cell_angle_beta 90.000000
_cell_angle_gamma 90.000000
_cell_volume 5101.081765
_symmetry_space_group_name_H-M "C M C A"
_symmetry_group_IT_number 64
_symmetry_cell_setting 'orthorhombic'
loop_
_space_group_symop_operation_xyz
x,y,z
-x,1/2-y,1/2+z
x,-y,-z
-x,1/2+y,1/2-z
-x,-y,-z
x,1/2+y,1/2-z
-x,y,z
x,1/2-y,1/2+z
1/2+x,1/2+y,z
1/2-x,-y,1/2+z
1/2+x,1/2-y,-z
1/2-x,y,1/2-z
1/2-x,1/2-y,-z
1/2+x,y,1/2-z
1/2-x,1/2+y,z
1/2+x,-y,1/2+z
loop_
_atom_site_type_symbol
_atom_site_label
_atom_site_fract_x
_atom_site_fract_y
_atom_site_fract_z
Si Si1 0.893604 0.039471 0.743290
Si Si2 0.106882 0.441666 0.445381
Si Si3 0.111360 0.947255 0.377388
Si Si4 0.753456 0.791875 0.086889
Si Si5 0.395855 0.840779 0.719354
Si Si6 0.721483 0.405039 0.883148
Si Si7 0.176206 0.703999 0.705859
O O1 0.883772 0.081676 0.684771
O O2 0.874051 0.929490 0.742583
O O3 0.000000 0.050000 0.760251
O O4 0.831811 0.092345 0.785835
O O5 0.109108 0.500000 0.500000
O O6 0.171132 0.348485 0.447436
O O7 0.151976 0.512778 0.402472
O O8 0.000000 0.418159 0.432218
O O9 0.177691 0.040779 0.381091
O O10 0.000000 0.960306 0.389773
O O11 0.163632 0.861394 0.407726
O O12 0.728014 0.683310 0.075848
O O13 0.803272 0.781259 0.145055
O O14 0.500000 0.848523 0.695125
O O15 0.324405 0.858307 0.670153
O O16 0.404652 0.756194 0.762469
O O17 0.250000 0.738307 0.750000
#
# Coordination Sequence:
#
# PCOD9478236 Si02
#       7
#    16  16  16  16  16  16  16
#     4  10  20  32  49  71 109 163 208 243 285 339
#     4  10  24  46  69  93 121 155 208 271 321 369
#     4  10  21  36  54  84 122 163 207 250 300 360
#     4  11  23  38  63  90 122 166 204 254 313 373
#     4  11  23  35  54  85 122 163 207 249 297 365
#     4  11  22  38  64  89 120 160 201 254 312 375
#     4  12  21  33  53  82 124 162 199 247 288 358
#
# _framework density 21.956126999999999
#
# number of rings (size 3 to 8) (size 9 to 14) (size 15 to 20)
#    0.000    1.286    2.857    3.429    0.000    5.714 
#    0.000    0.000    0.000    7.714    0.000    0.000 
#    0.000    0.000    0.000    0.000    0.000    0.000 
#
# Total GULP energy -311856.919914 kJ/mol
# GULP energy per Si atom -5568.873570 kJ/mol
# Density = 2.190615 g / cm^3
# Si number density = 21.956127 Si / 1000 Ang^3
#
#
#
# Elastic Constant Matrix: (Units=GPa)
#
#
# Indices 1 2 3 4 5 6 
#
# 1 144.5422 18.6249 17.8229 0.0000 0.0000 0.0000
# 2 18.6249 77.0823 2.4303 0.0000 0.0000 0.0000
# 3 17.8229 2.4303 42.9643 0.0000 0.0000 0.0000
# 4 0.0000 0.0000 0.0000 19.1908 0.0000 0.0000
# 5 0.0000 0.0000 0.0000 0.0000 21.6395 0.0000
# 6 0.0000 0.0000 0.0000 0.0000 0.0000 32.1400
#
#
#
# Elastic Compliance Matrix: (Units=1/GPa)
#
#
# Indices 1 2 3 4 5 6 
#
# 1 0.007512 -0.001720 -0.003019 0.000000 0.000000 0.000000
# 2 -0.001720 0.013390 -0.000044 0.000000 0.000000 0.000000
# 3 -0.003019 -0.000044 0.024530 0.000000 0.000000 0.000000
# 4 0.000000 0.000000 0.000000 0.052108 0.000000 0.000000
# 5 0.000000 0.000000 0.000000 0.000000 0.046212 0.000000
# 6 0.000000 0.000000 0.000000 0.000000 0.000000 0.031114
#
#
# Mechanical properties :
#
#
# Convention : Reuss Voigt Hill
#
# Bulk Modulus (GPa) = 27.88111 38.03832 32.95971
# Shear Modulus (GPa) = 25.45985 29.64145 27.55065
#
# Velocity S-wave (km/s) = 3.40895 3.67826 3.54616
# Velocity P-wave (km/s) = 5.31232 5.94994 5.64015
#
# Compressibility (1/GPa) = 0.03586658
#
# Stress axis : x y z
#
# Youngs Moduli (GPa) = 133.11533 74.68193 40.76643
#
# Poissons Ratio (x) = 0.12845 0.12308
# Poissons Ratio (y) = 0.22895 0.00179
# Poissons Ratio (z) = 0.40188 0.00328
#
# Static dielectric constant tensor:
#      x y z
#    x 1.704530 0.000000 0.000000 
#    y 0.000000 1.858550 0.000000 
#    z 0.000000 0.000000 1.794560 
# 
# From -- ./inp_files/45283.got.cif
#   From: 2010.05.17/outbox.cif.g08.bks.cpg/sg64_23_cif.got.tgz:45283.got - 2010.06.03 16:29:19.
