data_PCOD9478045
_publ_section_title
;
Structure prediction by ZEFSAII (Michael W. Deem and Ramdas Pophale) SiO2 
 PCOD9478045
Probable space group: C M C A
;
_chemical_formula_sum "Si O2"
_cell_formula_units_Z 80
_cell_length_a 15.783813
_cell_length_b 24.215303
_cell_length_c 8.538423
_cell_angle_alpha 90.000000
_cell_angle_beta 90.000000
_cell_angle_gamma 90.000000
_cell_volume 3263.469069
_symmetry_space_group_name_H-M "C M C A"
_symmetry_group_IT_number 64
_symmetry_cell_setting 'orthorhombic'
loop_
_space_group_symop_operation_xyz
x,y,z
-x,1/2-y,1/2+z
x,-y,-z
-x,1/2+y,1/2-z
-x,-y,-z
x,1/2+y,1/2-z
-x,y,z
x,1/2-y,1/2+z
1/2+x,1/2+y,z
1/2-x,-y,1/2+z
1/2+x,1/2-y,-z
1/2-x,y,1/2-z
1/2-x,1/2-y,-z
1/2+x,y,1/2-z
1/2-x,1/2+y,z
1/2+x,-y,1/2+z
loop_
_atom_site_type_symbol
_atom_site_label
_atom_site_fract_x
_atom_site_fract_y
_atom_site_fract_z
Si Si1 0.402404 0.016768 0.665257
Si Si2 0.340914 0.770275 0.425447
Si Si3 0.096892 0.930841 0.599123
Si Si4 0.156058 0.623552 0.784556
Si Si5 0.146344 0.830494 0.766565
O O1 0.500000 0.997544 0.662281
O O2 0.367792 0.987515 0.824645
O O3 0.361688 0.000000 0.500000
O O4 0.401314 0.082307 0.685243
O O5 0.250000 0.750000 0.500000
O O6 0.343585 0.813493 0.278662
O O7 0.377817 0.804234 0.568316
O O8 0.381356 0.714268 0.363241
O O9 0.139434 0.893794 0.463412
O O10 0.104448 0.889114 0.744518
O O11 0.000000 0.938973 0.546955
O O12 0.250000 0.603542 0.750000
O O13 0.250000 0.835787 0.750000
#
# Coordination Sequence:
#
# PCOD9478045 Si02
#       5
#    16  16  16  16  16
#     4  10  23  43  64  90 129 173 215 270 344 413
#     4  10  20  37  61  92 129 166 214 278 344 399
#     4  11  24  43  65  95 138 178 217 276 352 418
#     4  12  23  38  64  94 125 169 222 275 329 400
#     4  10  19  36  62  88 121 165 215 267 325 400
#
# _framework density 24.51379
#
# number of rings (size 3 to 8) (size 9 to 14) (size 15 to 20)
#    0.000    1.400    0.000    7.800    0.000    4.000 
#    0.000    6.000    0.000    0.000    0.000    0.000 
#    0.000    0.000    0.000    0.000    0.000    0.000 
#
# Total GULP energy -223132.752658 kJ/mol
# GULP energy per Si atom -5578.318816 kJ/mol
# Density = 2.445800 g / cm^3
# Si number density = 24.513790 Si / 1000 Ang^3
#
#
#
# Elastic Constant Matrix: (Units=GPa)
#
#
# Indices 1 2 3 4 5 6 
#
# 1 42.3214 11.9971 8.8660 0.0000 0.0000 0.0000
# 2 11.9971 151.1168 24.7038 0.0000 0.0000 0.0000
# 3 8.8660 24.7038 96.2535 0.0000 0.0000 0.0000
# 4 0.0000 0.0000 0.0000 57.6761 0.0000 0.0000
# 5 0.0000 0.0000 0.0000 0.0000 -4.2297 0.0000
# 6 0.0000 0.0000 0.0000 0.0000 0.0000 28.2131
#
#
#
# Elastic Compliance Matrix: (Units=1/GPa)
#
#
# Indices 1 2 3 4 5 6 
#
# 1 0.024479 -0.001644 -0.001833 0.000000 0.000000 0.000000
# 2 -0.001644 0.007018 -0.001650 0.000000 0.000000 0.000000
# 3 -0.001833 -0.001650 0.010981 0.000000 0.000000 0.000000
# 4 0.000000 0.000000 0.000000 0.017338 0.000000 0.000000
# 5 0.000000 0.000000 0.000000 0.000000 -0.236422 0.000000
# 6 0.000000 0.000000 0.000000 0.000000 0.000000 0.035444
#
#
# Mechanical properties :
#
#
# Convention : Reuss Voigt Hill
#
# Bulk Modulus (GPa) = 31.03169 42.31394 36.67281
# Shear Modulus (GPa) = -41.60871 32.60690 -4.50090
#
# Velocity S-wave (km/s) = -4.12437 3.65107 -1.35649
# Velocity P-wave (km/s) = 3.16137 5.92221 3.54107
#
# Compressibility (1/GPa) = 0.03222513
#
# Stress axis : x y z
#
# Youngs Moduli (GPa) = 40.85191 142.49946 91.06265
#
# Poissons Ratio (x) = 0.23423 0.16691
# Poissons Ratio (y) = 0.06715 0.15022
# Poissons Ratio (z) = 0.07488 0.23508
#
# Static dielectric constant tensor:
#      x y z
#    x 2.086860 0.000000 0.000000 
#    y 0.000000 1.938300 0.000000 
#    z 0.000000 0.000000 2.072710 
# 
# From -- ./inp_files/7124.got.cif
#   From: 2010.05.17/outbox.cif.g08.bks.cpg/sg64_4_cif.got.tgz:7124.got - 2010.06.03 16:29:19.
