data_PCOD9478283
_publ_section_title
;
Structure prediction by ZEFSAII (Michael W. Deem and Ramdas Pophale) SiO2 
 PCOD9478283
Probable space group: C M C A
;
_chemical_formula_sum "Si O2"
_cell_formula_units_Z 112
_cell_length_a 24.029875
_cell_length_b 20.685884
_cell_length_c 11.664429
_cell_angle_alpha 90.000000
_cell_angle_beta 90.000000
_cell_angle_gamma 90.000000
_cell_volume 5798.145115
_symmetry_space_group_name_H-M "C M C A"
_symmetry_group_IT_number 64
_symmetry_cell_setting 'orthorhombic'
loop_
_space_group_symop_operation_xyz
x,y,z
-x,1/2-y,1/2+z
x,-y,-z
-x,1/2+y,1/2-z
-x,-y,-z
x,1/2+y,1/2-z
-x,y,z
x,1/2-y,1/2+z
1/2+x,1/2+y,z
1/2-x,-y,1/2+z
1/2+x,1/2-y,-z
1/2-x,y,1/2-z
1/2-x,1/2-y,-z
1/2+x,y,1/2-z
1/2-x,1/2+y,z
1/2+x,-y,1/2+z
loop_
_atom_site_type_symbol
_atom_site_label
_atom_site_fract_x
_atom_site_fract_y
_atom_site_fract_z
Si Si1 0.848918 0.851425 0.642450
Si Si2 0.335973 0.413011 0.062575
Si Si3 0.689024 0.538095 0.192234
Si Si4 0.237455 0.820059 0.450256
Si Si5 0.562188 0.650999 0.868223
Si Si6 0.642193 0.720732 0.708610
Si Si7 0.562493 0.784615 0.001968
O O1 0.845964 0.913107 0.726401
O O2 0.798332 0.854991 0.550783
O O3 0.844504 0.784345 0.715814
O O4 0.904952 0.840336 0.567855
O O5 0.330018 0.464891 0.165053
O O6 0.400683 0.394364 0.051230
O O7 0.314140 0.435610 0.937978
O O8 0.294960 0.353140 0.083718
O O9 0.750000 0.537032 0.250000
O O10 0.250000 0.750000 0.500000
O O11 0.197339 0.809683 0.343342
O O12 0.500000 0.627522 0.842931
O O13 0.604223 0.665154 0.764922
O O14 0.557254 0.722402 0.921040
O O15 0.602894 0.740191 0.602055
O O16 0.500000 0.802718 0.040037
#
# Coordination Sequence:
#
# PCOD9478283 Si02
#       7
#    16  16  16  16  16  16  16
#     4  10  20  36  55  85 120 160 195 245 309 361
#     4  11  24  39  59  90 113 160 208 243 308 365
#     4  11  23  41  60  80 121 162 200 248 302 372
#     4  11  21  34  57  92 124 150 199 253 312 379
#     4  10  21  38  58  85 121 156 198 254 305 357
#     4  10  20  32  58  90 123 158 191 246 319 371
#     4   9  18  34  57  87 122 158 203 246 298 365
#
# _framework density 19.316523
#
# number of rings (size 3 to 8) (size 9 to 14) (size 15 to 20)
#    0.000    1.714    1.429    4.714    2.000    1.714 
#    0.000    2.857    0.000    0.000    0.000    3.000 
#    0.000    0.000    0.000    0.000    0.000    0.000 
#
# Total GULP energy -312049.429611 kJ/mol
# GULP energy per Si atom -5572.311243 kJ/mol
# Density = 1.927256 g / cm^3
# Si number density = 19.316523 Si / 1000 Ang^3
#
#
#
# Elastic Constant Matrix: (Units=GPa)
#
#
# Indices 1 2 3 4 5 6 
#
# 1 141.6399 39.6568 29.9256 0.0000 0.0000 0.0000
# 2 39.6568 73.8259 13.8850 0.0000 0.0000 0.0000
# 3 29.9256 13.8850 62.9697 0.0000 0.0000 0.0000
# 4 0.0000 0.0000 0.0000 21.8077 0.0000 0.0000
# 5 0.0000 0.0000 0.0000 0.0000 3.5834 0.0000
# 6 0.0000 0.0000 0.0000 0.0000 0.0000 7.9871
#
#
#
# Elastic Compliance Matrix: (Units=1/GPa)
#
#
# Indices 1 2 3 4 5 6 
#
# 1 0.008931 -0.004172 -0.003324 0.000000 0.000000 0.000000
# 2 -0.004172 0.016080 -0.001563 0.000000 0.000000 0.000000
# 3 -0.003324 -0.001563 0.017805 0.000000 0.000000 0.000000
# 4 0.000000 0.000000 0.000000 0.045855 0.000000 0.000000
# 5 0.000000 0.000000 0.000000 0.000000 0.279062 0.000000
# 6 0.000000 0.000000 0.000000 0.000000 0.000000 0.125201
#
#
# Mechanical properties :
#
#
# Convention : Reuss Voigt Hill
#
# Bulk Modulus (GPa) = 40.48991 49.48560 44.98776
# Shear Modulus (GPa) = 9.62862 19.67355 14.65108
#
# Velocity S-wave (km/s) = 2.23506 3.19483 2.75703
# Velocity P-wave (km/s) = 5.25998 6.26763 5.78578
#
# Compressibility (1/GPa) = 0.02469751
#
# Stress axis : x y z
#
# Youngs Moduli (GPa) = 111.97473 62.18746 56.16368
#
# Poissons Ratio (x) = 0.25945 0.18670
# Poissons Ratio (y) = 0.46716 0.08779
# Poissons Ratio (z) = 0.37223 0.09720
#
# Static dielectric constant tensor:
#      x y z
#    x 1.705180 0.000000 0.000000 
#    y 0.000000 1.739090 0.000000 
#    z 0.000000 0.000000 1.742420 
# 
# From -- ./inp_files/18627.got.cif
#   From: 2010.05.17/outbox.cif.g08.bks.cpg/sg64_10_cif.got.tgz:18627.got - 2010.06.03 16:29:19.
