data_PCOD9478985
_publ_section_title
;
Structure prediction by ZEFSAII (Michael W. Deem and Ramdas Pophale) SiO2 
 PCOD9478985
Probable space group: C M C A
;
_chemical_formula_sum "Si O2"
_cell_formula_units_Z 96
_cell_length_a 29.759010
_cell_length_b 8.641978
_cell_length_c 18.786769
_cell_angle_alpha 90.000000
_cell_angle_beta 90.000000
_cell_angle_gamma 90.000000
_cell_volume 4831.519438
_symmetry_space_group_name_H-M "C M C A"
_symmetry_group_IT_number 64
_symmetry_cell_setting 'orthorhombic'
loop_
_space_group_symop_operation_xyz
x,y,z
-x,1/2-y,1/2+z
x,-y,-z
-x,1/2+y,1/2-z
-x,-y,-z
x,1/2+y,1/2-z
-x,y,z
x,1/2-y,1/2+z
1/2+x,1/2+y,z
1/2-x,-y,1/2+z
1/2+x,1/2-y,-z
1/2-x,y,1/2-z
1/2-x,1/2-y,-z
1/2+x,y,1/2-z
1/2-x,1/2+y,z
1/2+x,-y,1/2+z
loop_
_atom_site_type_symbol
_atom_site_label
_atom_site_fract_x
_atom_site_fract_y
_atom_site_fract_z
Si Si1 0.350979 0.860992 0.176820
Si Si2 0.244551 0.541739 0.832679
Si Si3 0.118917 0.390128 0.940285
Si Si4 0.785489 0.764301 0.565220
Si Si5 0.097368 0.432546 0.716661
Si Si6 0.447343 0.225618 0.658656
O O1 0.297744 0.839438 0.171749
O O2 0.377067 0.699815 0.172783
O O3 0.365860 0.985040 0.118593
O O4 0.365686 0.951274 0.248745
O O5 0.250000 0.495138 0.750000
O O6 0.228375 0.404963 0.883541
O O7 0.283598 0.622086 0.878885
O O8 0.164576 0.301435 0.962989
O O9 0.082819 0.275278 0.907923
O O10 0.099065 0.500000 0.000000
O O11 0.750000 0.750000 0.500000
O O12 0.070463 0.336737 0.777296
O O13 0.063791 0.548163 0.677404
O O14 0.500000 0.249028 0.648357
#
# Coordination Sequence:
#
# PCOD9478985 Si02
#       6
#    16  16  16  16  16  16
#     4   9  20  35  57  82 123 155 194 246 303 360
#     4  11  24  34  58  91 122 156 211 268 306 350
#     4  10  22  41  58  83 116 162 209 248 295 362
#     4  11  23  41  59  83 124 175 213 249 305 383
#     4   9  19  35  59  88 121 154 191 238 310 377
#     4  10  20  36  63  91 118 151 194 249 308 369
#
# _framework density 19.869524999999999
#
# number of rings (size 3 to 8) (size 9 to 14) (size 15 to 20)
#    0.000    2.000    0.000    3.500   11.667    0.333 
#    0.000    3.333    0.000    1.000    0.000    0.000 
#    0.000    0.000    0.000    0.000    0.000    0.000 
#
# Total GULP energy -267710.236387 kJ/mol
# GULP energy per Si atom -5577.296591 kJ/mol
# Density = 1.982430 g / cm^3
# Si number density = 19.869525 Si / 1000 Ang^3
#
#
#
# Elastic Constant Matrix: (Units=GPa)
#
#
# Indices 1 2 3 4 5 6 
#
# 1 104.6875 35.2450 32.9481 0.0000 0.0000 0.0000
# 2 35.2450 83.0563 13.8362 0.0000 0.0000 0.0000
# 3 32.9481 13.8362 75.4337 0.0000 0.0000 0.0000
# 4 0.0000 0.0000 0.0000 20.3604 0.0000 0.0000
# 5 0.0000 0.0000 0.0000 0.0000 19.5036 0.0000
# 6 0.0000 0.0000 0.0000 0.0000 0.0000 25.1516
#
#
#
# Elastic Compliance Matrix: (Units=1/GPa)
#
#
# Indices 1 2 3 4 5 6 
#
# 1 0.012546 -0.004550 -0.004645 0.000000 0.000000 0.000000
# 2 -0.004550 0.014070 -0.000593 0.000000 0.000000 0.000000
# 3 -0.004645 -0.000593 0.015394 0.000000 0.000000 0.000000
# 4 0.000000 0.000000 0.000000 0.049115 0.000000 0.000000
# 5 0.000000 0.000000 0.000000 0.000000 0.051273 0.000000
# 6 0.000000 0.000000 0.000000 0.000000 0.000000 0.039759
#
#
# Mechanical properties :
#
#
# Convention : Reuss Voigt Hill
#
# Bulk Modulus (GPa) = 44.57743 47.47066 46.02404
# Shear Modulus (GPa) = 23.89922 25.07967 24.48945
#
# Velocity S-wave (km/s) = 3.47191 3.55662 3.51452
# Velocity P-wave (km/s) = 6.20935 6.38820 6.29941
#
# Compressibility (1/GPa) = 0.02243288
#
# Stress axis : x y z
#
# Youngs Moduli (GPa) = 79.70580 71.07468 64.95831
#
# Poissons Ratio (x) = 0.32340 0.30175
# Poissons Ratio (y) = 0.36267 0.03854
# Poissons Ratio (z) = 0.37026 0.04217
#
# Static dielectric constant tensor:
#      x y z
#    x 1.707400 0.000000 0.000000 
#    y 0.000000 1.714460 0.000000 
#    z 0.000000 0.000000 1.789610 
# 
# From -- ./inp_files/41808.got.cif
#   From: 2010.05.17/outbox.cif.g08.bks.cpg/sg64_21_cif.got.tgz:41808.got - 2010.06.03 16:29:19.
