data_PCOD9478847
_publ_section_title
;
Structure prediction by ZEFSAII (Michael W. Deem and Ramdas Pophale) SiO2 
 PCOD9478847
Probable space group: C M C A
;
_chemical_formula_sum "Si O2"
_cell_formula_units_Z 112
_cell_length_a 32.286886
_cell_length_b 9.712511
_cell_length_c 16.880548
_cell_angle_alpha 90.000000
_cell_angle_beta 90.000000
_cell_angle_gamma 90.000000
_cell_volume 5293.515940
_symmetry_space_group_name_H-M "C M C A"
_symmetry_group_IT_number 64
_symmetry_cell_setting 'orthorhombic'
loop_
_space_group_symop_operation_xyz
x,y,z
-x,1/2-y,1/2+z
x,-y,-z
-x,1/2+y,1/2-z
-x,-y,-z
x,1/2+y,1/2-z
-x,y,z
x,1/2-y,1/2+z
1/2+x,1/2+y,z
1/2-x,-y,1/2+z
1/2+x,1/2-y,-z
1/2-x,y,1/2-z
1/2-x,1/2-y,-z
1/2+x,y,1/2-z
1/2-x,1/2+y,z
1/2+x,-y,1/2+z
loop_
_atom_site_type_symbol
_atom_site_label
_atom_site_fract_x
_atom_site_fract_y
_atom_site_fract_z
Si Si1 0.955192 0.402151 0.310574
Si Si2 0.451797 0.327046 0.918864
Si Si3 0.203575 0.299297 0.780357
Si Si4 0.094163 0.418124 0.168866
Si Si5 0.158096 0.913859 0.571649
Si Si6 0.158737 0.977355 0.191320
Si Si7 0.605426 0.843776 0.429078
O O1 0.954564 0.532285 0.369302
O O2 0.944419 0.460458 0.224168
O O3 0.921606 0.301184 0.350982
O O4 0.000000 0.336032 0.309188
O O5 0.500000 0.281492 0.931360
O O6 0.423552 0.220542 0.869788
O O7 0.427591 0.352381 0.000781
O O8 0.250000 0.312561 0.750000
O O9 0.190455 0.387474 0.857762
O O10 0.193659 0.141355 0.803628
O O11 0.174890 0.371381 0.712889
O O12 0.116914 0.506131 0.102070
O O13 0.128922 0.424656 0.237791
O O14 0.139607 0.767371 0.546975
O O15 0.176483 0.000000 0.500000
O O16 0.133122 0.967206 0.109157
#
# Coordination Sequence:
#
# PCOD9478847 Si02
#       7
#    16  16  16  16  16  16  16
#     4  10  22  36  53  79 114 154 198 251 297 333
#     4  11  22  36  55  81 116 155 194 248 302 333
#     4  10  20  38  65  90 119 149 192 242 293 359
#     4  10  21  36  58  79 112 150 203 238 283 350
#     4  10  20  39  60  84 111 152 188 236 293 348
#     4   9  21  35  63  88 114 157 197 235 295 350
#     4  10  20  36  58  80 115 149 199 238 286 352
#
# _framework density 21.157959999999999
#
# number of rings (size 3 to 8) (size 9 to 14) (size 15 to 20)
#    0.000    2.000    1.429    1.714   10.000    1.143 
#    0.000    2.857    3.143    3.429    0.000    0.000 
#    0.000    0.000    0.000    0.000    0.000    0.000 
#
# Total GULP energy -311753.447399 kJ/mol
# GULP energy per Si atom -5567.025846 kJ/mol
# Density = 2.110980 g / cm^3
# Si number density = 21.157960 Si / 1000 Ang^3
#
#
#
# Elastic Constant Matrix: (Units=GPa)
#
#
# Indices 1 2 3 4 5 6 
#
# 1 79.9004 -1.1548 -3.5626 0.0000 0.0000 0.0000
# 2 -1.1548 27.6684 -9.7095 0.0000 0.0000 0.0000
# 3 -3.5626 -9.7095 56.2639 0.0000 0.0000 0.0000
# 4 0.0000 0.0000 0.0000 24.9363 0.0000 0.0000
# 5 0.0000 0.0000 0.0000 0.0000 17.3876 0.0000
# 6 0.0000 0.0000 0.0000 0.0000 0.0000 16.2063
#
#
#
# Elastic Compliance Matrix: (Units=1/GPa)
#
#
# Indices 1 2 3 4 5 6 
#
# 1 0.012570 0.000856 0.000944 0.000000 0.000000 0.000000
# 2 0.000856 0.038530 0.006703 0.000000 0.000000 0.000000
# 3 0.000944 0.006703 0.018990 0.000000 0.000000 0.000000
# 4 0.000000 0.000000 0.000000 0.040102 0.000000 0.000000
# 5 0.000000 0.000000 0.000000 0.000000 0.057512 0.000000
# 6 0.000000 0.000000 0.000000 0.000000 0.000000 0.061704
#
#
# Mechanical properties :
#
#
# Convention : Reuss Voigt Hill
#
# Bulk Modulus (GPa) = 11.48157 14.99765 13.23961
# Shear Modulus (GPa) = 20.70945 23.59002 22.14973
#
# Velocity S-wave (km/s) = 3.13198 3.34271 3.23905
# Velocity P-wave (km/s) = 4.30319 4.69063 4.50108
#
# Compressibility (1/GPa) = 0.08709608
#
# Stress axis : x y z
#
# Youngs Moduli (GPa) = 79.55438 25.95349 52.65939
#
# Poissons Ratio (x) = -0.02221 -0.04969
# Poissons Ratio (y) = -0.06808 -0.35300
# Poissons Ratio (z) = -0.07507 -0.17398
#
# Static dielectric constant tensor:
#      x y z
#    x 1.816020 0.000000 0.000000 
#    y 0.000000 1.805170 0.000000 
#    z 0.000000 0.000000 1.807650 
# 
# From -- ./inp_files/28395.got.cif
#   From: 2010.05.17/outbox.cif.g08.bks.cpg/sg64_15_cif.got.tgz:28395.got - 2010.06.03 16:29:19.
