data_PCOD9478460
_publ_section_title
;
Structure prediction by ZEFSAII (Michael W. Deem and Ramdas Pophale) SiO2 
 PCOD9478460
Probable space group: C M C A
;
_chemical_formula_sum "Si O2"
_cell_formula_units_Z 112
_cell_length_a 20.110889
_cell_length_b 20.869476
_cell_length_c 10.495798
_cell_angle_alpha 90.000000
_cell_angle_beta 90.000000
_cell_angle_gamma 90.000000
_cell_volume 4405.125416
_symmetry_space_group_name_H-M "C M C A"
_symmetry_group_IT_number 64
_symmetry_cell_setting 'orthorhombic'
loop_
_space_group_symop_operation_xyz
x,y,z
-x,1/2-y,1/2+z
x,-y,-z
-x,1/2+y,1/2-z
-x,-y,-z
x,1/2+y,1/2-z
-x,y,z
x,1/2-y,1/2+z
1/2+x,1/2+y,z
1/2-x,-y,1/2+z
1/2+x,1/2-y,-z
1/2-x,y,1/2-z
1/2-x,1/2-y,-z
1/2+x,y,1/2-z
1/2-x,1/2+y,z
1/2+x,-y,1/2+z
loop_
_atom_site_type_symbol
_atom_site_label
_atom_site_fract_x
_atom_site_fract_y
_atom_site_fract_z
Si Si1 0.076459 0.589911 0.966798
Si Si2 0.811423 0.756237 0.400209
Si Si3 0.075252 0.664968 0.705144
Si Si4 0.920532 0.288653 0.905427
Si Si5 0.214666 0.405270 0.120897
Si Si6 0.295966 0.888018 0.640794
Si Si7 0.424347 0.424650 0.973730
O O1 0.068544 0.633746 0.841422
O O2 0.097480 0.636519 0.083613
O O3 0.146085 0.558234 0.919870
O O4 0.000000 0.565331 0.989391
O O5 0.750000 0.750000 0.500000
O O6 0.879793 0.756158 0.480177
O O7 0.802821 0.829213 0.348033
O O8 0.804222 0.687953 0.333064
O O9 0.099472 0.738569 0.704896
O O10 0.101013 0.615459 0.598447
O O11 0.000000 0.673051 0.659069
O O12 0.000000 0.291368 0.922043
O O13 0.250000 0.429051 0.250000
O O14 0.260909 0.402270 0.995764
O O15 0.250000 0.915887 0.750000
O O16 0.370217 0.914105 0.633569
O O17 0.500000 0.405317 0.939023
O O18 0.426244 0.500000 0.000000
#
# Coordination Sequence:
#
# PCOD9478460 Si02
#       7
#    16  16  16  16  16  16  16
#     4   9  18  31  48  76 113 152 195 233 278 347
#     4   9  18  30  47  74 111 155 193 228 279 351
#     4   9  16  30  53  77 106 142 184 244 294 332
#     4   9  16  28  45  70 103 142 185 228 279 335
#     4  10  20  34  54  81 116 163 207 233 278 360
#     4  11  22  38  56  84 123 153 187 247 316 361
#     4  10  21  39  64  89 111 148 210 269 308 348
#
# _framework density 25.424927
#
# number of rings (size 3 to 8) (size 9 to 14) (size 15 to 20)
#    0.000    2.429    1.429    1.286    2.000    0.000 
#    7.714    2.857    0.000    0.857    0.000    0.000 
#    0.000   12.571    0.000    0.000    0.000    0.000 
#
# Total GULP energy -311845.870831 kJ/mol
# GULP energy per Si atom -5568.676265 kJ/mol
# Density = 2.536706 g / cm^3
# Si number density = 25.424927 Si / 1000 Ang^3
#
#
#
# Elastic Constant Matrix: (Units=GPa)
#
#
# Indices 1 2 3 4 5 6 
#
# 1 138.8384 28.1080 32.2951 0.0000 0.0000 0.0000
# 2 28.1080 75.8024 34.5478 0.0000 0.0000 0.0000
# 3 32.2951 34.5478 87.2385 0.0000 0.0000 0.0000
# 4 0.0000 0.0000 0.0000 2.3608 0.0000 0.0000
# 5 0.0000 0.0000 0.0000 0.0000 -21.9721 0.0000
# 6 0.0000 0.0000 0.0000 0.0000 0.0000 -74.8366
#
#
#
# Elastic Compliance Matrix: (Units=1/GPa)
#
#
# Indices 1 2 3 4 5 6 
#
# 1 0.008123 -0.002003 -0.002214 0.000000 0.000000 0.000000
# 2 -0.002003 0.016592 -0.005829 0.000000 0.000000 0.000000
# 3 -0.002214 -0.005829 0.014591 0.000000 0.000000 0.000000
# 4 0.000000 0.000000 0.000000 0.423587 0.000000 0.000000
# 5 0.000000 0.000000 0.000000 0.000000 -0.045512 0.000000
# 6 0.000000 0.000000 0.000000 0.000000 0.000000 -0.013362
#
#
# Mechanical properties :
#
#
# Convention : Reuss Voigt Hill
#
# Bulk Modulus (GPa) = 52.04660 54.64233 53.34446
# Shear Modulus (GPa) = 11.61402 -5.09434 3.25984
#
# Velocity S-wave (km/s) = 2.13960 -1.41705 1.13355
# Velocity P-wave (km/s) = 5.15936 4.34292 4.76864
#
# Compressibility (1/GPa) = 0.01921355
#
# Stress axis : x y z
#
# Youngs Moduli (GPa) = 123.10553 60.27150 68.53658
#
# Poissons Ratio (x) = 0.12073 0.15173
# Poissons Ratio (y) = 0.24659 0.39950
# Poissons Ratio (z) = 0.27254 0.35132
#
# Static dielectric constant tensor:
#      x y z
#    x 2.023270 0.000000 0.000000 
#    y 0.000000 2.055690 0.000000 
#    z 0.000000 0.000000 1.989760 
# 
# From -- ./inp_files/17568.got.cif
#   From: 2010.05.17/outbox.cif.g08.bks.cpg/sg64_9_cif.got.tgz:17568.got - 2010.06.03 16:29:19.
