data_PCOD9478053
_publ_section_title
;
Structure prediction by ZEFSAII (Michael W. Deem and Ramdas Pophale) SiO2 
 PCOD9478053
Probable space group: C M C A
;
_chemical_formula_sum "Si O2"
_cell_formula_units_Z 88
_cell_length_a 23.742491
_cell_length_b 12.759803
_cell_length_c 13.299038
_cell_angle_alpha 90.000000
_cell_angle_beta 90.000000
_cell_angle_gamma 90.000000
_cell_volume 4028.937018
_symmetry_space_group_name_H-M "C M C A"
_symmetry_group_IT_number 64
_symmetry_cell_setting 'orthorhombic'
loop_
_space_group_symop_operation_xyz
x,y,z
-x,1/2-y,1/2+z
x,-y,-z
-x,1/2+y,1/2-z
-x,-y,-z
x,1/2+y,1/2-z
-x,y,z
x,1/2-y,1/2+z
1/2+x,1/2+y,z
1/2-x,-y,1/2+z
1/2+x,1/2-y,-z
1/2-x,y,1/2-z
1/2-x,1/2-y,-z
1/2+x,y,1/2-z
1/2-x,1/2+y,z
1/2+x,-y,1/2+z
loop_
_atom_site_type_symbol
_atom_site_label
_atom_site_fract_x
_atom_site_fract_y
_atom_site_fract_z
Si Si1 0.128235 0.308705 0.131839
Si Si2 0.000000 0.111406 0.440888
Si Si3 0.686897 0.105890 0.290582
Si Si4 0.500000 0.254190 0.868400
Si Si5 0.618035 0.675902 0.399990
Si Si6 0.121821 0.413402 0.330122
Si Si7 0.500000 0.501698 0.121111
O O1 0.169609 0.210319 0.147080
O O2 0.142583 0.391552 0.216728
O O3 0.062846 0.281945 0.163172
O O4 0.129607 0.347246 0.017356
O O5 0.000000 0.209311 0.518071
O O6 0.056084 0.129571 0.379467
O O7 0.000000 0.000000 0.500000
O O8 0.750000 0.095284 0.250000
O O9 0.654574 0.123890 0.185504
O O10 0.662303 0.010172 0.357096
O O11 0.500000 0.376755 0.853967
O O12 0.623942 0.802027 0.387323
O O13 0.057121 0.449916 0.338924
O O14 0.500000 0.500000 0.000000
#
# Coordination Sequence:
#
# PCOD9478053 Si02
#       7
#    16   8  16   8  16  16   8
#     4  10  22  44  66  97 139 174 229 281 357 422
#     4  10  22  39  70 106 138 171 218 273 349 443
#     4  11  26  44  66  98 133 188 248 289 337 407
#     4  10  19  36  64 102 131 163 211 271 337 430
#     4  10  24  44  69 102 138 180 224 287 357 424
#     4  11  24  40  67  99 140 173 224 289 346 412
#     4  12  21  37  70 101 137 178 216 274 354 430
#
# _framework density 21.841989000000002
#
# number of rings (size 3 to 8) (size 9 to 14) (size 15 to 20)
#    0.000    1.455    1.818    3.273    5.091    6.545 
#    0.000    1.818    0.000    0.000    0.000    0.000 
#    0.000    0.000    0.000    0.000    0.000    0.000 
#
# Total GULP energy -245519.373029 kJ/mol
# GULP energy per Si atom -5579.985751 kJ/mol
# Density = 2.179228 g / cm^3
# Si number density = 21.841989 Si / 1000 Ang^3
#
#
#
# Elastic Constant Matrix: (Units=GPa)
#
#
# Indices 1 2 3 4 5 6 
#
# 1 124.4382 13.6604 -3.4751 0.0000 0.0000 0.0000
# 2 13.6604 72.5537 0.8432 0.0000 0.0000 0.0000
# 3 -3.4751 0.8432 89.3671 0.0000 0.0000 0.0000
# 4 0.0000 0.0000 0.0000 14.1532 0.0000 0.0000
# 5 0.0000 0.0000 0.0000 0.0000 -6.1167 0.0000
# 6 0.0000 0.0000 0.0000 0.0000 0.0000 -38.4597
#
#
#
# Elastic Compliance Matrix: (Units=1/GPa)
#
#
# Indices 1 2 3 4 5 6 
#
# 1 0.008216 -0.001551 0.000334 0.000000 0.000000 0.000000
# 2 -0.001551 0.014077 -0.000193 0.000000 0.000000 0.000000
# 3 0.000334 -0.000193 0.011205 0.000000 0.000000 0.000000
# 4 0.000000 0.000000 0.000000 0.070655 0.000000 0.000000
# 5 0.000000 0.000000 0.000000 0.000000 -0.163487 0.000000
# 6 0.000000 0.000000 0.000000 0.000000 0.000000 -0.026001
#
#
# Mechanical properties :
#
#
# Convention : Reuss Voigt Hill
#
# Bulk Modulus (GPa) = 32.59676 34.26846 33.43261
# Shear Modulus (GPa) = -69.16603 12.27073 -28.44765
#
# Velocity S-wave (km/s) = -5.63341 2.37279 -3.61283
# Velocity P-wave (km/s) = 5.23043 4.81977 1.43653
#
# Compressibility (1/GPa) = 0.03067789
#
# Stress axis : x y z
#
# Youngs Moduli (GPa) = 121.71845 71.03732 89.24892
#
# Poissons Ratio (x) = 0.11016 -0.02982
# Poissons Ratio (y) = 0.18875 0.01724
# Poissons Ratio (z) = -0.04067 0.01372
#
# Static dielectric constant tensor:
#      x y z
#    x 1.960720 0.000000 0.000000 
#    y 0.000000 1.811780 0.000000 
#    z 0.000000 0.000000 1.779700 
# 
# From -- ./inp_files/27215.got.cif
#   From: 2010.05.17/outbox.cif.g08.bks.cpg/sg64_14_cif.got.tgz:27215.got - 2010.06.03 16:29:19.
