data_PCOD9478222
_publ_section_title
;
Structure prediction by ZEFSAII (Michael W. Deem and Ramdas Pophale) SiO2 
 PCOD9478222
Probable space group: C M C A
;
_chemical_formula_sum "Si O2"
_cell_formula_units_Z 80
_cell_length_a 24.127006
_cell_length_b 34.251597
_cell_length_c 5.234594
_cell_angle_alpha 90.000000
_cell_angle_beta 90.000000
_cell_angle_gamma 90.000000
_cell_volume 4325.808212
_symmetry_space_group_name_H-M "C M C A"
_symmetry_group_IT_number 64
_symmetry_cell_setting 'orthorhombic'
loop_
_space_group_symop_operation_xyz
x,y,z
-x,1/2-y,1/2+z
x,-y,-z
-x,1/2+y,1/2-z
-x,-y,-z
x,1/2+y,1/2-z
-x,y,z
x,1/2-y,1/2+z
1/2+x,1/2+y,z
1/2-x,-y,1/2+z
1/2+x,1/2-y,-z
1/2-x,y,1/2-z
1/2-x,1/2-y,-z
1/2+x,y,1/2-z
1/2-x,1/2+y,z
1/2+x,-y,1/2+z
loop_
_atom_site_type_symbol
_atom_site_label
_atom_site_fract_x
_atom_site_fract_y
_atom_site_fract_z
Si Si1 0.566433 0.859886 0.067940
Si Si2 0.563487 0.017583 0.247752
Si Si3 0.213575 0.546901 0.499494
Si Si4 0.397658 0.902954 0.583154
Si Si5 0.432706 0.772113 0.231094
O O1 0.500000 0.860908 0.013809
O O2 0.578925 0.887649 0.312733
O O3 0.581718 0.816296 0.159181
O O4 0.599621 0.870852 0.808977
O O5 0.500000 0.003403 0.241767
O O6 0.565393 0.063377 0.282251
O O7 0.588549 0.000000 0.500000
O O8 0.592311 0.000000 0.000000
O O9 0.202940 0.500000 0.500000
O O10 0.250000 0.555708 0.750000
O O11 0.159894 0.574747 0.475375
O O12 0.250000 0.554653 0.250000
O O13 0.500000 0.770972 0.236849
O O14 0.413904 0.757022 0.506686
#
# Coordination Sequence:
#
# PCOD9478222 Si02
#       5
#    16  16  16  16  16
#     4  11  22  34  52  82 117 148 176 211 260 319
#     4  10  20  32  46  67  99 140 177 203 239 303
#     4  10  22  40  59  77  99 134 184 237 282 321
#     4  12  22  35  54  77 108 139 176 224 278 318
#     4   9  17  31  50  72 105 148 183 208 241 297
#
# _framework density 18.493652999999998
#
# number of rings (size 3 to 8) (size 9 to 14) (size 15 to 20)
#    0.000    1.600    0.000    6.000    0.000    7.200 
#    0.000    0.000    0.000    0.000    0.000    0.000 
#    0.000   56.000    0.000    0.000    0.000    0.000 
#
# Total GULP energy -223027.562535 kJ/mol
# GULP energy per Si atom -5575.689063 kJ/mol
# Density = 1.845156 g / cm^3
# Si number density = 18.493653 Si / 1000 Ang^3
#
#
#
# Elastic Constant Matrix: (Units=GPa)
#
#
# Indices 1 2 3 4 5 6 
#
# 1 67.9496 12.2941 31.4383 0.0000 0.0000 0.0000
# 2 12.2941 51.2013 5.0161 0.0000 0.0000 0.0000
# 3 31.4383 5.0161 118.3333 0.0000 0.0000 0.0000
# 4 0.0000 0.0000 0.0000 45.2459 0.0000 0.0000
# 5 0.0000 0.0000 0.0000 0.0000 2.3193 0.0000
# 6 0.0000 0.0000 0.0000 0.0000 0.0000 8.8162
#
#
#
# Elastic Compliance Matrix: (Units=1/GPa)
#
#
# Indices 1 2 3 4 5 6 
#
# 1 0.017470 -0.003756 -0.004482 0.000000 0.000000 0.000000
# 2 -0.003756 0.020420 0.000132 0.000000 0.000000 0.000000
# 3 -0.004482 0.000132 0.009636 0.000000 0.000000 0.000000
# 4 0.000000 0.000000 0.000000 0.022101 0.000000 0.000000
# 5 0.000000 0.000000 0.000000 0.000000 0.431170 0.000000
# 6 0.000000 0.000000 0.000000 0.000000 0.000000 0.113427
#
#
# Mechanical properties :
#
#
# Convention : Reuss Voigt Hill
#
# Bulk Modulus (GPa) = 31.93429 37.22013 34.57721
# Shear Modulus (GPa) = 7.80185 23.85867 15.83026
#
# Velocity S-wave (km/s) = 2.05617 3.59569 2.92889
# Velocity P-wave (km/s) = 4.78981 6.11623 5.49320
#
# Compressibility (1/GPa) = 0.03131431
#
# Stress axis : x y z
#
# Youngs Moduli (GPa) = 57.24077 48.97257 103.77854
#
# Poissons Ratio (x) = 0.18392 0.46515
# Poissons Ratio (y) = 0.21498 -0.01372
# Poissons Ratio (z) = 0.25656 -0.00647
#
# Static dielectric constant tensor:
#      x y z
#    x 1.603660 0.000000 0.000000 
#    y 0.000000 1.668490 0.000000 
#    z 0.000000 0.000000 1.676840 
# 
# From -- ./inp_files/2958.got.cif
#   From: 2010.05.17/outbox.cif.g08.bks.cpg/sg64_2_cif.got.tgz:2958.got - 2010.06.03 16:29:19.
