data_PCOD9478431
_publ_section_title
;
Structure prediction by ZEFSAII (Michael W. Deem and Ramdas Pophale) SiO2 
 PCOD9478431
Probable space group: C M C A
;
_chemical_formula_sum "Si O2"
_cell_formula_units_Z 72
_cell_length_a 15.585157
_cell_length_b 12.700008
_cell_length_c 14.620010
_cell_angle_alpha 90.000000
_cell_angle_beta 90.000000
_cell_angle_gamma 90.000000
_cell_volume 2893.762243
_symmetry_space_group_name_H-M "C M C A"
_symmetry_group_IT_number 64
_symmetry_cell_setting 'orthorhombic'
loop_
_space_group_symop_operation_xyz
x,y,z
-x,1/2-y,1/2+z
x,-y,-z
-x,1/2+y,1/2-z
-x,-y,-z
x,1/2+y,1/2-z
-x,y,z
x,1/2-y,1/2+z
1/2+x,1/2+y,z
1/2-x,-y,1/2+z
1/2+x,1/2-y,-z
1/2-x,y,1/2-z
1/2-x,1/2-y,-z
1/2+x,y,1/2-z
1/2-x,1/2+y,z
1/2+x,-y,1/2+z
loop_
_atom_site_type_symbol
_atom_site_label
_atom_site_fract_x
_atom_site_fract_y
_atom_site_fract_z
Si Si1 0.178859 0.620023 0.986939
Si Si2 0.407183 0.718458 0.667042
Si Si3 0.750000 0.465420 0.750000
Si Si4 0.353418 0.066568 0.419446
Si Si5 0.097822 0.172429 0.341585
O O1 0.274511 0.621122 0.025241
O O2 0.118824 0.689502 0.052708
O O3 0.148442 0.500000 0.000000
O O4 0.165914 0.654990 0.883660
O O5 0.500000 0.672079 0.644647
O O6 0.402835 0.838540 0.629532
O O7 0.397599 0.727274 0.775341
O O8 0.691819 0.501445 0.837612
O O9 0.824323 0.399872 0.804332
O O10 0.397423 0.000000 0.500000
O O11 0.000000 0.131009 0.331909
#
# Coordination Sequence:
#
# PCOD9478431 Si02
#       5
#    16  16   8  16  16
#     4  10  20  36  59  83 108 143 188 233 274 323
#     4  10  20  34  53  79 112 145 178 223 277 330
#     4   8  16  32  52  74 104 138 178 224 268 318
#     4   9  18  34  55  78 106 143 185 226 273 328
#     4   9  18  33  52  75 105 140 179 223 269 319
#
# _framework density 24.881105000000002
#
# number of rings (size 3 to 8) (size 9 to 14) (size 15 to 20)
#    0.000    2.667    0.000    1.333    0.000    2.222 
#    0.000    8.889    0.000   22.667    0.000    0.000 
#    0.000    0.000    0.000    0.000    0.000    0.000 
#
# Total GULP energy -200689.499328 kJ/mol
# GULP energy per Si atom -5574.708315 kJ/mol
# Density = 2.482447 g / cm^3
# Si number density = 24.881105 Si / 1000 Ang^3
#
#
#
# Elastic Constant Matrix: (Units=GPa)
#
#
# Indices 1 2 3 4 5 6 
#
# 1 105.9418 15.2476 20.1841 0.0000 0.0000 0.0000
# 2 15.2476 51.3366 12.5056 0.0000 0.0000 0.0000
# 3 20.1841 12.5056 76.6580 0.0000 0.0000 0.0000
# 4 0.0000 0.0000 0.0000 30.5242 0.0000 0.0000
# 5 0.0000 0.0000 0.0000 0.0000 20.7953 0.0000
# 6 0.0000 0.0000 0.0000 0.0000 0.0000 -16.1932
#
#
#
# Elastic Compliance Matrix: (Units=1/GPa)
#
#
# Indices 1 2 3 4 5 6 
#
# 1 0.010232 -0.002481 -0.002289 0.000000 0.000000 0.000000
# 2 -0.002481 0.020887 -0.002754 0.000000 0.000000 0.000000
# 3 -0.002289 -0.002754 0.014097 0.000000 0.000000 0.000000
# 4 0.000000 0.000000 0.000000 0.032761 0.000000 0.000000
# 5 0.000000 0.000000 0.000000 0.000000 0.048088 0.000000
# 6 0.000000 0.000000 0.000000 0.000000 0.000000 -0.061754
#
#
# Mechanical properties :
#
#
# Convention : Reuss Voigt Hill
#
# Bulk Modulus (GPa) = 33.14896 36.64564 34.89730
# Shear Modulus (GPa) = 55.91817 19.42521 37.67169
#
# Velocity S-wave (km/s) = 4.74583 2.79717 3.89532
# Velocity P-wave (km/s) = 6.58654 5.01921 5.85555
#
# Compressibility (1/GPa) = 0.03016686
#
# Stress axis : x y z
#
# Youngs Moduli (GPa) = 97.72812 47.87622 70.93693
#
# Poissons Ratio (x) = 0.11880 0.16240
# Poissons Ratio (y) = 0.24251 0.19536
# Poissons Ratio (z) = 0.22374 0.13185
#
# Static dielectric constant tensor:
#      x y z
#    x 1.926140 0.000000 0.000000 
#    y 0.000000 2.071750 0.000000 
#    z 0.000000 0.000000 2.028050 
# 
# From -- ./inp_files/32846.got.cif
#   From: 2010.05.17/outbox.cif.g08.bks.cpg/sg64_17_cif.got.tgz:32846.got - 2010.06.03 16:29:19.
