data_PCOD9478888
_publ_section_title
;
Structure prediction by ZEFSAII (Michael W. Deem and Ramdas Pophale) SiO2 
 PCOD9478888
Probable space group: C M C A
;
_chemical_formula_sum "Si O2"
_cell_formula_units_Z 112
_cell_length_a 22.100657
_cell_length_b 10.856521
_cell_length_c 20.635896
_cell_angle_alpha 90.000000
_cell_angle_beta 90.000000
_cell_angle_gamma 90.000000
_cell_volume 4951.299436
_symmetry_space_group_name_H-M "C M C A"
_symmetry_group_IT_number 64
_symmetry_cell_setting 'orthorhombic'
loop_
_space_group_symop_operation_xyz
x,y,z
-x,1/2-y,1/2+z
x,-y,-z
-x,1/2+y,1/2-z
-x,-y,-z
x,1/2+y,1/2-z
-x,y,z
x,1/2-y,1/2+z
1/2+x,1/2+y,z
1/2-x,-y,1/2+z
1/2+x,1/2-y,-z
1/2-x,y,1/2-z
1/2-x,1/2-y,-z
1/2+x,y,1/2-z
1/2-x,1/2+y,z
1/2+x,-y,1/2+z
loop_
_atom_site_type_symbol
_atom_site_label
_atom_site_fract_x
_atom_site_fract_y
_atom_site_fract_z
Si Si1 0.931882 0.316025 0.149771
Si Si2 0.801294 0.976974 0.573584
Si Si3 0.933005 0.090828 0.390474
Si Si4 0.570649 0.688910 0.788386
Si Si5 0.122060 0.916815 0.093820
Si Si6 0.252721 0.777689 0.422741
Si Si7 0.070442 0.656256 0.466838
O O1 0.935503 0.461820 0.147387
O O2 0.901303 0.284085 0.218110
O O3 0.914584 0.271366 0.078020
O O4 0.000000 0.262022 0.155636
O O5 0.870099 0.925854 0.571092
O O6 0.762067 0.862989 0.603878
O O7 0.780328 0.000000 0.500000
O O8 0.795442 0.117561 0.601178
O O9 0.925876 0.194705 0.336053
O O10 0.000000 0.103897 0.423409
O O11 0.500000 0.657092 0.780237
O O12 0.600103 0.583668 0.832562
O O13 0.186756 0.855397 0.090305
O O14 0.113081 0.050739 0.063199
O O15 0.082491 0.834425 0.043151
O O16 0.250000 0.750000 0.500000
O O17 0.000000 0.621107 0.459786
#
# Coordination Sequence:
#
# PCOD9478888 Si02
#       7
#    16  16  16  16  16  16  16
#     4   9  21  36  56  87 127 170 203 242 311 386
#     4  10  22  39  61  90 121 162 204 259 309 374
#     4  10  21  37  59  91 120 155 204 254 318 377
#     4  10  20  36  58  87 126 163 202 249 306 384
#     4  11  21  36  61  89 118 158 211 255 316 360
#     4  10  23  38  59  88 119 161 213 253 307 372
#     4  10  22  36  56  92 130 163 201 258 318 377
#
# _framework density 22.620325999999999
#
# number of rings (size 3 to 8) (size 9 to 14) (size 15 to 20)
#    0.000    2.000    1.429    1.714   12.000    0.286 
#    0.000    0.000    0.000    0.857    0.000    0.000 
#    0.000    0.000    0.000    0.000    0.000    0.000 
#
# Total GULP energy -311774.909459 kJ/mol
# GULP energy per Si atom -5567.409097 kJ/mol
# Density = 2.256884 g / cm^3
# Si number density = 22.620326 Si / 1000 Ang^3
#
#
#
# Elastic Constant Matrix: (Units=GPa)
#
#
# Indices 1 2 3 4 5 6 
#
# 1 66.7363 20.2861 -19.7908 0.0000 0.0000 0.0000
# 2 20.2861 86.5774 -10.5732 0.0000 0.0000 0.0000
# 3 -19.7908 -10.5732 61.8231 0.0000 0.0000 0.0000
# 4 0.0000 0.0000 0.0000 15.6644 0.0000 0.0000
# 5 0.0000 0.0000 0.0000 0.0000 6.3257 0.0000
# 6 0.0000 0.0000 0.0000 0.0000 0.0000 32.2346
#
#
#
# Elastic Compliance Matrix: (Units=1/GPa)
#
#
# Indices 1 2 3 4 5 6 
#
# 1 0.017534 -0.003496 0.005015 0.000000 0.000000 0.000000
# 2 -0.003496 0.012494 0.001018 0.000000 0.000000 0.000000
# 3 0.005015 0.001018 0.017955 0.000000 0.000000 0.000000
# 4 0.000000 0.000000 0.000000 0.063839 0.000000 0.000000
# 5 0.000000 0.000000 0.000000 0.000000 0.158086 0.000000
# 6 0.000000 0.000000 0.000000 0.000000 0.000000 0.031023
#
#
# Mechanical properties :
#
#
# Convention : Reuss Voigt Hill
#
# Bulk Modulus (GPa) = 18.84792 21.66456 20.25624
# Shear Modulus (GPa) = 15.94682 25.85926 20.90304
#
# Velocity S-wave (km/s) = 2.65802 3.38477 3.04317
# Velocity P-wave (km/s) = 4.21551 4.98737 4.61759
#
# Compressibility (1/GPa) = 0.05305626
#
# Stress axis : x y z
#
# Youngs Moduli (GPa) = 57.03103 80.03972 55.69579
#
# Poissons Ratio (x) = 0.27982 -0.27932
# Poissons Ratio (y) = 0.19938 -0.05668
# Poissons Ratio (z) = -0.28602 -0.08145
#
# Static dielectric constant tensor:
#      x y z
#    x 1.938990 0.000000 0.000000 
#    y 0.000000 1.959200 0.000000 
#    z 0.000000 0.000000 1.848400 
# 
# From -- ./inp_files/41537.got.cif
#   From: 2010.05.17/outbox.cif.g08.bks.cpg/sg64_21_cif.got.tgz:41537.got - 2010.06.03 16:29:19.
