data_PCOD9478795
_publ_section_title
;
Structure prediction by ZEFSAII (Michael W. Deem and Ramdas Pophale) SiO2 
 PCOD9478795
Probable space group: C M C A
;
_chemical_formula_sum "Si O2"
_cell_formula_units_Z 112
_cell_length_a 15.515506
_cell_length_b 24.701314
_cell_length_c 15.234869
_cell_angle_alpha 90.000000
_cell_angle_beta 90.000000
_cell_angle_gamma 90.000000
_cell_volume 5838.815123
_symmetry_space_group_name_H-M "C M C A"
_symmetry_group_IT_number 64
_symmetry_cell_setting 'orthorhombic'
loop_
_space_group_symop_operation_xyz
x,y,z
-x,1/2-y,1/2+z
x,-y,-z
-x,1/2+y,1/2-z
-x,-y,-z
x,1/2+y,1/2-z
-x,y,z
x,1/2-y,1/2+z
1/2+x,1/2+y,z
1/2-x,-y,1/2+z
1/2+x,1/2-y,-z
1/2-x,y,1/2-z
1/2-x,1/2-y,-z
1/2+x,y,1/2-z
1/2-x,1/2+y,z
1/2+x,-y,1/2+z
loop_
_atom_site_type_symbol
_atom_site_label
_atom_site_fract_x
_atom_site_fract_y
_atom_site_fract_z
Si Si1 0.099946 0.397092 0.204004
Si Si2 0.241437 0.962647 0.567934
Si Si3 0.904520 0.578197 0.191413
Si Si4 0.902687 0.003525 0.837028
Si Si5 0.401363 0.690845 0.396756
Si Si6 0.327273 0.200982 0.683305
Si Si7 0.217924 0.638149 0.956672
O O1 0.116774 0.449910 0.264640
O O2 0.118371 0.344453 0.264602
O O3 0.159606 0.391029 0.118316
O O4 0.000000 0.398958 0.178090
O O5 0.176689 0.949141 0.645543
O O6 0.261534 0.906740 0.518526
O O7 0.190416 0.000000 0.500000
O O8 0.324164 0.997019 0.596960
O O9 0.904428 0.554745 0.288738
O O10 0.895307 0.641717 0.173517
O O11 0.000000 0.562801 0.154749
O O12 0.000000 0.014498 0.871050
O O13 0.500000 0.693127 0.427750
O O14 0.376596 0.746308 0.349451
O O15 0.340793 0.674514 0.478619
O O16 0.250000 0.216354 0.750000
O O17 0.285499 0.172981 0.598052
#
# Coordination Sequence:
#
# PCOD9478795 Si02
#       7
#    16  16  16  16  16  16  16
#     4  10  20  37  60  83 110 148 192 236 283 339
#     4  11  21  33  54  80 110 144 177 224 281 333
#     4   9  20  36  55  79 105 139 182 228 278 332
#     4  10  21  37  56  80 112 147 186 229 274 337
#     4  10  20  36  56  79 109 142 181 230 282 333
#     4  10  21  36  56  81 110 146 189 231 277 338
#     4  10  21  35  54  82 113 143 183 231 283 338
#
# _framework density 19.181972999999999
#
# number of rings (size 3 to 8) (size 9 to 14) (size 15 to 20)
#    0.000    2.000    0.000    3.429    0.000    5.714 
#    0.000    1.429    0.000    3.429    0.000    0.000 
#    0.000    0.000    0.000    0.000    0.000    0.000 
#
# Total GULP energy -312336.793579 kJ/mol
# GULP energy per Si atom -5577.442742 kJ/mol
# Density = 1.913831 g / cm^3
# Si number density = 19.181973 Si / 1000 Ang^3
#
#
#
# Elastic Constant Matrix: (Units=GPa)
#
#
# Indices 1 2 3 4 5 6 
#
# 1 57.3861 24.2904 9.2790 0.0000 0.0000 0.0000
# 2 24.2904 55.5836 15.0020 0.0000 0.0000 0.0000
# 3 9.2790 15.0020 38.1587 0.0000 0.0000 0.0000
# 4 0.0000 0.0000 0.0000 32.6903 0.0000 0.0000
# 5 0.0000 0.0000 0.0000 0.0000 -3.1689 0.0000
# 6 0.0000 0.0000 0.0000 0.0000 0.0000 43.4603
#
#
#
# Elastic Compliance Matrix: (Units=1/GPa)
#
#
# Indices 1 2 3 4 5 6 
#
# 1 0.021481 -0.008924 -0.001715 0.000000 0.000000 0.000000
# 2 -0.008924 0.023834 -0.007200 0.000000 0.000000 0.000000
# 3 -0.001715 -0.007200 0.029454 0.000000 0.000000 0.000000
# 4 0.000000 0.000000 0.000000 0.030590 0.000000 0.000000
# 5 0.000000 0.000000 0.000000 0.000000 -0.315567 0.000000
# 6 0.000000 0.000000 0.000000 0.000000 0.000000 0.023010
#
#
# Mechanical properties :
#
#
# Convention : Reuss Voigt Hill
#
# Bulk Modulus (GPa) = 25.58192 27.58569 26.58381
# Shear Modulus (GPa) = -36.10373 21.43347 -7.33513
#
# Velocity S-wave (km/s) = -4.34310 3.34634 -1.95762
# Velocity P-wave (km/s) = 3.43288 5.41691 2.96296
#
# Compressibility (1/GPa) = 0.03909010
#
# Stress axis : x y z
#
# Youngs Moduli (GPa) = 46.55369 41.95639 33.95110
#
# Poissons Ratio (x) = 0.37443 0.05822
# Poissons Ratio (y) = 0.41546 0.24446
# Poissons Ratio (z) = 0.07983 0.30210
#
# Static dielectric constant tensor:
#      x y z
#    x 1.685260 0.000000 0.000000 
#    y 0.000000 1.676400 0.000000 
#    z 0.000000 0.000000 1.659240 
# 
# From -- ./inp_files/24227.got.cif
#   From: 2010.05.17/outbox.cif.g08.bks.cpg/sg64_13_cif.got.tgz:24227.got - 2010.06.03 16:29:19.
