data_PCOD9478201
_publ_section_title
;
Structure prediction by ZEFSAII (Michael W. Deem and Ramdas Pophale) SiO2 
 PCOD9478201
Probable space group: C M C A
;
_chemical_formula_sum "Si O2"
_cell_formula_units_Z 96
_cell_length_a 7.797811
_cell_length_b 27.262625
_cell_length_c 27.364425
_cell_angle_alpha 90.000000
_cell_angle_beta 90.000000
_cell_angle_gamma 90.000000
_cell_volume 5817.370194
_symmetry_space_group_name_H-M "C M C A"
_symmetry_group_IT_number 64
_symmetry_cell_setting 'orthorhombic'
loop_
_space_group_symop_operation_xyz
x,y,z
-x,1/2-y,1/2+z
x,-y,-z
-x,1/2+y,1/2-z
-x,-y,-z
x,1/2+y,1/2-z
-x,y,z
x,1/2-y,1/2+z
1/2+x,1/2+y,z
1/2-x,-y,1/2+z
1/2+x,1/2-y,-z
1/2-x,y,1/2-z
1/2-x,1/2-y,-z
1/2+x,y,1/2-z
1/2-x,1/2+y,z
1/2+x,-y,1/2+z
loop_
_atom_site_type_symbol
_atom_site_label
_atom_site_fract_x
_atom_site_fract_y
_atom_site_fract_z
Si Si1 0.698642 0.822203 0.693949
Si Si2 0.290571 0.350626 0.061197
Si Si3 0.200821 0.600780 0.383766
Si Si4 0.302919 0.808202 0.543080
Si Si5 0.000000 0.959864 0.572005
Si Si6 0.693707 0.763049 0.375968
Si Si7 0.500000 0.927946 0.040950
O O1 0.500000 0.833129 0.692679
O O2 0.750000 0.819031 0.750000
O O3 0.772878 0.867367 0.662158
O O4 0.722423 0.771247 0.664830
O O5 0.500000 0.359038 0.061612
O O6 0.240766 0.316002 0.106919
O O7 0.170026 0.397944 0.057024
O O8 0.251774 0.319598 0.011918
O O9 0.201202 0.640586 0.427629
O O10 0.331135 0.558494 0.399290
O O11 0.000000 0.585725 0.377079
O O12 0.500000 0.790619 0.543765
O O13 0.196965 0.770026 0.574882
O O14 0.000000 0.934926 0.517966
O O15 0.000000 0.017902 0.563665
O O16 0.500000 0.770275 0.359564
#
# Coordination Sequence:
#
# PCOD9478201 Si02
#       7
#    16  16  16  16   8  16   8
#     4  10  21  34  52  81 111 138 168 209 265 322
#     4  10  21  34  47  72 106 142 181 218 253 301
#     4   9  19  34  52  75 109 138 171 217 265 316
#     4   9  17  29  45  71 102 142 176 209 249 302
#     4  11  22  36  54  79  96 146 186 217 279 314
#     4  10  20  30  48  73 104 143 174 208 256 306
#     4  11  24  34  54  75 104 140 188 227 262 306
#
# _framework density 16.502300999999999
#
# number of rings (size 3 to 8) (size 9 to 14) (size 15 to 20)
#    0.000    2.167    1.667    2.500    9.333    0.667 
#    0.000    1.667    0.000    0.000    0.000    1.167 
#    0.000    0.000    0.000    0.000    0.000    0.000 
#
# Total GULP energy -267362.270922 kJ/mol
# GULP energy per Si atom -5570.047311 kJ/mol
# Density = 1.646474 g / cm^3
# Si number density = 16.502301 Si / 1000 Ang^3
#
#
#
# Elastic Constant Matrix: (Units=GPa)
#
#
# Indices 1 2 3 4 5 6 
#
# 1 64.5543 43.0257 31.6014 0.0000 0.0000 0.0000
# 2 43.0257 85.7791 51.8359 0.0000 0.0000 0.0000
# 3 31.6014 51.8359 94.8740 0.0000 0.0000 0.0000
# 4 0.0000 0.0000 0.0000 20.1417 0.0000 0.0000
# 5 0.0000 0.0000 0.0000 0.0000 10.6269 0.0000
# 6 0.0000 0.0000 0.0000 0.0000 0.0000 19.7569
#
#
#
# Elastic Compliance Matrix: (Units=1/GPa)
#
#
# Indices 1 2 3 4 5 6 
#
# 1 0.023541 -0.010554 -0.002075 0.000000 0.000000 0.000000
# 2 -0.010554 0.022136 -0.008579 0.000000 0.000000 0.000000
# 3 -0.002075 -0.008579 0.015919 0.000000 0.000000 0.000000
# 4 0.000000 0.000000 0.000000 0.049648 0.000000 0.000000
# 5 0.000000 0.000000 0.000000 0.000000 0.094101 0.000000
# 6 0.000000 0.000000 0.000000 0.000000 0.000000 0.050615
#
#
# Mechanical properties :
#
#
# Convention : Reuss Voigt Hill
#
# Bulk Modulus (GPa) = 52.13793 55.34816 53.74305
# Shear Modulus (GPa) = 16.40591 18.02138 17.21364
#
# Velocity S-wave (km/s) = 3.15645 3.30821 3.23322
# Velocity P-wave (km/s) = 6.70426 6.94297 6.82466
#
# Compressibility (1/GPa) = 0.01917989
#
# Stress axis : x y z
#
# Youngs Moduli (GPa) = 42.47943 45.17584 62.81974
#
# Poissons Ratio (x) = 0.47678 0.13034
# Poissons Ratio (y) = 0.44833 0.53892
# Poissons Ratio (z) = 0.08814 0.38756
#
# Static dielectric constant tensor:
#      x y z
#    x 1.583910 0.000000 0.000000 
#    y 0.000000 1.550000 0.000000 
#    z 0.000000 0.000000 1.477750 
# 
# From -- ./inp_files/48419.got.cif
#   From: 2010.05.17/outbox.cif.g08.bks.cpg/sg64_25_cif.got.tgz:48419.got - 2010.06.03 16:29:19.
