data_PCOD9478859
_publ_section_title
;
Structure prediction by ZEFSAII (Michael W. Deem and Ramdas Pophale) SiO2 
 PCOD9478859
Probable space group: C M C A
;
_chemical_formula_sum "Si O2"
_cell_formula_units_Z 96
_cell_length_a 8.048437
_cell_length_b 21.339696
_cell_length_c 27.545547
_cell_angle_alpha 90.000000
_cell_angle_beta 90.000000
_cell_angle_gamma 90.000000
_cell_volume 4730.980720
_symmetry_space_group_name_H-M "C M C A"
_symmetry_group_IT_number 64
_symmetry_cell_setting 'orthorhombic'
loop_
_space_group_symop_operation_xyz
x,y,z
-x,1/2-y,1/2+z
x,-y,-z
-x,1/2+y,1/2-z
-x,-y,-z
x,1/2+y,1/2-z
-x,y,z
x,1/2-y,1/2+z
1/2+x,1/2+y,z
1/2-x,-y,1/2+z
1/2+x,1/2-y,-z
1/2-x,y,1/2-z
1/2-x,1/2-y,-z
1/2+x,y,1/2-z
1/2-x,1/2+y,z
1/2+x,-y,1/2+z
loop_
_atom_site_type_symbol
_atom_site_label
_atom_site_fract_x
_atom_site_fract_y
_atom_site_fract_z
Si Si1 0.301057 0.059783 0.693898
Si Si2 0.799328 0.312824 0.472205
Si Si3 0.296670 0.314044 0.139672
Si Si4 0.299422 0.811970 0.806060
Si Si5 0.199026 0.562568 0.474021
Si Si6 0.302220 0.064811 0.137288
O O1 0.500000 0.059105 0.691220
O O2 0.250000 0.060191 0.750000
O O3 0.241659 0.122848 0.666876
O O4 0.238047 0.997806 0.666997
O O5 0.750000 0.250000 0.500000
O O6 0.742555 0.312888 0.416321
O O7 0.736761 0.374167 0.500693
O O8 0.000000 0.315204 0.471264
O O9 0.500000 0.314117 0.139933
O O10 0.241485 0.251676 0.167829
O O11 0.500000 0.812224 0.808291
O O12 0.250000 0.813299 0.750000
O O13 0.238497 0.873813 0.834190
O O14 0.265046 0.500000 0.500000
O O15 0.232999 0.561616 0.416966
O O16 0.000000 0.562736 0.480787
O O17 0.500000 0.070620 0.133409
#
# Coordination Sequence:
#
# PCOD9478859 Si02
#       6
#    16  16  16  16  16  16
#     4  11  22  38  60  84 113 148 187 232 280 334
#     4  10  20  36  58  83 112 147 186 229 281 337
#     4   9  19  37  59  81 109 147 186 226 275 331
#     4  10  21  37  57  81 110 145 185 228 276 328
#     4  10  21  38  60  84 111 148 191 232 280 337
#     4  11  23  38  58  84 114 149 188 233 283 334
#
# _framework density 20.291775000000001
#
# number of rings (size 3 to 8) (size 9 to 14) (size 15 to 20)
#    0.000    1.833    0.000    4.000    0.000    7.667 
#    0.000    5.000    0.000    0.000    0.000    0.000 
#    0.000    0.000    0.000    0.000    0.000    0.000 
#
# Total GULP energy -268328.926321 kJ/mol
# GULP energy per Si atom -5590.185965 kJ/mol
# Density = 2.024559 g / cm^3
# Si number density = 20.291775 Si / 1000 Ang^3
#
#
#
# Elastic Constant Matrix: (Units=GPa)
#
#
# Indices 1 2 3 4 5 6 
#
# 1 8.2112 0.2918 -14.8480 0.0000 0.0000 0.0000
# 2 0.2918 228.7088 120.4743 0.0000 0.0000 0.0000
# 3 -14.8480 120.4743 192.8481 0.0000 0.0000 0.0000
# 4 0.0000 0.0000 0.0000 49.5822 0.0000 0.0000
# 5 0.0000 0.0000 0.0000 0.0000 25.6347 0.0000
# 6 0.0000 0.0000 0.0000 0.0000 0.0000 25.0979
#
#
#
# Elastic Compliance Matrix: (Units=1/GPa)
#
#
# Indices 1 2 3 4 5 6 
#
# 1 0.154524 -0.009635 0.017916 0.000000 0.000000 0.000000
# 2 -0.009635 0.007118 -0.005188 0.000000 0.000000 0.000000
# 3 0.017916 -0.005188 0.009806 0.000000 0.000000 0.000000
# 4 0.000000 0.000000 0.000000 0.020169 0.000000 0.000000
# 5 0.000000 0.000000 0.000000 0.000000 0.039010 0.000000
# 6 0.000000 0.000000 0.000000 0.000000 0.000000 0.039844
#
#
# Mechanical properties :
#
#
# Convention : Reuss Voigt Hill
#
# Bulk Modulus (GPa) = 5.62955 71.28938 38.45946
# Shear Modulus (GPa) = 15.45621 41.65297 28.55459
#
# Velocity S-wave (km/s) = 2.76288 4.53559 3.75534
# Velocity P-wave (km/s) = 3.59977 7.91437 6.14799
#
# Compressibility (1/GPa) = 0.17763423
#
# Stress axis : x y z
#
# Youngs Moduli (GPa) = 6.47149 140.49621 101.97809
#
# Poissons Ratio (x) = 1.35364 -1.82706
# Poissons Ratio (y) = 0.06235 0.52909
# Poissons Ratio (z) = -0.11594 0.72893
#
# Static dielectric constant tensor:
#      x y z
#    x 1.737440 0.000000 0.000000 
#    y 0.000000 1.709200 0.000000 
#    z 0.000000 0.000000 1.670680 
# 
# From -- ./inp_files/48035.got.cif
#   From: 2010.05.17/outbox.cif.g08.bks.cpg/sg64_25_cif.got.tgz:48035.got - 2010.06.03 16:29:19.
