data_PCOD9478627
_publ_section_title
;
Structure prediction by ZEFSAII (Michael W. Deem and Ramdas Pophale) SiO2 
 PCOD9478627
Probable space group: C M C A
;
_chemical_formula_sum "Si O2"
_cell_formula_units_Z 96
_cell_length_a 14.441988
_cell_length_b 15.368253
_cell_length_c 19.212239
_cell_angle_alpha 90.000000
_cell_angle_beta 90.000000
_cell_angle_gamma 90.000000
_cell_volume 4264.120431
_symmetry_space_group_name_H-M "C M C A"
_symmetry_group_IT_number 64
_symmetry_cell_setting 'orthorhombic'
loop_
_space_group_symop_operation_xyz
x,y,z
-x,1/2-y,1/2+z
x,-y,-z
-x,1/2+y,1/2-z
-x,-y,-z
x,1/2+y,1/2-z
-x,y,z
x,1/2-y,1/2+z
1/2+x,1/2+y,z
1/2-x,-y,1/2+z
1/2+x,1/2-y,-z
1/2-x,y,1/2-z
1/2-x,1/2-y,-z
1/2+x,y,1/2-z
1/2-x,1/2+y,z
1/2+x,-y,1/2+z
loop_
_atom_site_type_symbol
_atom_site_label
_atom_site_fract_x
_atom_site_fract_y
_atom_site_fract_z
Si Si1 0.099126 0.014459 0.401678
Si Si2 0.142250 0.833308 0.227914
Si Si3 0.676756 0.122731 0.985967
Si Si4 0.798791 0.235754 0.911096
Si Si5 0.860467 0.470138 0.741430
Si Si6 0.898495 0.798099 0.848315
O O1 0.178211 0.058623 0.447826
O O2 0.105439 0.033384 0.321178
O O3 0.000000 0.047879 0.427275
O O4 0.109377 0.914905 0.426659
O O5 0.250000 0.840604 0.250000
O O6 0.141156 0.778039 0.157190
O O7 0.099242 0.777982 0.289934
O O8 0.111411 0.932730 0.217120
O O9 0.769634 0.143629 0.944168
O O10 0.653438 0.210258 0.027854
O O11 0.698918 0.279852 0.889117
O O12 0.750000 0.464888 0.750000
O O13 0.889851 0.390332 0.692772
O O14 0.000000 0.797270 0.884413
#
# Coordination Sequence:
#
# PCOD9478627 Si02
#       6
#    16  16  16  16  16  16
#     4  11  22  36  58  87 114 140 185 245 291 326
#     4   9  19  36  57  81 110 146 188 235 284 334
#     4  10  20  35  56  81 109 149 187 228 279 332
#     4  10  21  37  56  81 113 149 192 228 272 343
#     4  11  21  36  60  87 116 149 187 234 286 343
#     4  11  22  35  56  85 118 151 183 232 291 341
#
# _framework density 22.513437
#
# number of rings (size 3 to 8) (size 9 to 14) (size 15 to 20)
#    0.000    1.667    0.000    8.000    0.000    5.333 
#    0.000    0.833    0.000    1.000    0.000   19.833 
#    0.000    0.000    0.000    0.000    0.000    0.000 
#
# Total GULP energy -267510.617009 kJ/mol
# GULP energy per Si atom -5573.137854 kJ/mol
# Density = 2.246220 g / cm^3
# Si number density = 22.513437 Si / 1000 Ang^3
#
#
#
# Elastic Constant Matrix: (Units=GPa)
#
#
# Indices 1 2 3 4 5 6 
#
# 1 64.6878 22.7131 -4.9827 0.0000 0.0000 0.0000
# 2 22.7131 99.3449 18.5493 0.0000 0.0000 0.0000
# 3 -4.9827 18.5493 94.3495 0.0000 0.0000 0.0000
# 4 0.0000 0.0000 0.0000 35.6216 0.0000 0.0000
# 5 0.0000 0.0000 0.0000 0.0000 9.4030 0.0000
# 6 0.0000 0.0000 0.0000 0.0000 0.0000 -9.8312
#
#
#
# Elastic Compliance Matrix: (Units=1/GPa)
#
#
# Indices 1 2 3 4 5 6 
#
# 1 0.017077 -0.004228 0.001733 0.000000 0.000000 0.000000
# 2 -0.004228 0.011496 -0.002483 0.000000 0.000000 0.000000
# 3 0.001733 -0.002483 0.011179 0.000000 0.000000 0.000000
# 4 0.000000 0.000000 0.000000 0.028073 0.000000 0.000000
# 5 0.000000 0.000000 0.000000 0.000000 0.106349 0.000000
# 6 0.000000 0.000000 0.000000 0.000000 0.000000 -0.101717
#
#
# Mechanical properties :
#
#
# Convention : Reuss Voigt Hill
#
# Bulk Modulus (GPa) = 33.56243 36.77130 35.16687
# Shear Modulus (GPa) = 54.14509 21.84552 37.99531
#
# Velocity S-wave (km/s) = 4.90941 3.11840 4.11259
# Velocity P-wave (km/s) = 6.86123 5.41612 6.18106
#
# Compressibility (1/GPa) = 0.02979522
#
# Stress axis : x y z
#
# Youngs Moduli (GPa) = 58.55890 86.98491 89.45607
#
# Poissons Ratio (x) = 0.36776 -0.15503
# Poissons Ratio (y) = 0.24758 0.22216
# Poissons Ratio (z) = -0.10148 0.21602
#
# Static dielectric constant tensor:
#      x y z
#    x 1.886930 0.000000 0.000000 
#    y 0.000000 2.016160 0.000000 
#    z 0.000000 0.000000 1.815980 
# 
# From -- ./inp_files/39236.got.cif
#   From: 2010.05.17/outbox.cif.g08.bks.cpg/sg64_20_cif.got.tgz:39236.got - 2010.06.03 16:29:19.
