data_PCOD9478948
_publ_section_title
;
Structure prediction by ZEFSAII (Michael W. Deem and Ramdas Pophale) SiO2 
 PCOD9478948
Probable space group: C M C A
;
_chemical_formula_sum "Si O2"
_cell_formula_units_Z 112
_cell_length_a 16.275229
_cell_length_b 23.903494
_cell_length_c 14.474929
_cell_angle_alpha 90.000000
_cell_angle_beta 90.000000
_cell_angle_gamma 90.000000
_cell_volume 5631.251669
_symmetry_space_group_name_H-M "C M C A"
_symmetry_group_IT_number 64
_symmetry_cell_setting 'orthorhombic'
loop_
_space_group_symop_operation_xyz
x,y,z
-x,1/2-y,1/2+z
x,-y,-z
-x,1/2+y,1/2-z
-x,-y,-z
x,1/2+y,1/2-z
-x,y,z
x,1/2-y,1/2+z
1/2+x,1/2+y,z
1/2-x,-y,1/2+z
1/2+x,1/2-y,-z
1/2-x,y,1/2-z
1/2-x,1/2-y,-z
1/2+x,y,1/2-z
1/2-x,1/2+y,z
1/2+x,-y,1/2+z
loop_
_atom_site_type_symbol
_atom_site_label
_atom_site_fract_x
_atom_site_fract_y
_atom_site_fract_z
Si Si1 0.195762 0.298897 0.402127
Si Si2 0.345552 0.785391 0.598917
Si Si3 0.094684 0.482011 0.354953
Si Si4 0.747019 0.577685 0.955703
Si Si5 0.804471 0.909260 0.841979
Si Si6 0.091921 0.068691 0.649537
Si Si7 0.088662 0.691998 0.777230
O O1 0.257929 0.246943 0.397496
O O2 0.135692 0.290048 0.489783
O O3 0.240265 0.357231 0.426142
O O4 0.154732 0.305715 0.303312
O O5 0.336658 0.846276 0.643485
O O6 0.403470 0.745211 0.656930
O O7 0.163722 0.451807 0.417981
O O8 0.121637 0.546275 0.343958
O O9 0.100426 0.455500 0.252814
O O10 0.000000 0.475651 0.387105
O O11 0.829302 0.552709 0.910944
O O12 0.747879 0.576644 0.066150
O O13 0.750000 0.914452 0.750000
O O14 0.095055 0.135672 0.663531
O O15 0.000000 0.053778 0.614891
O O16 0.000000 0.690644 0.730577
#
# Coordination Sequence:
#
# PCOD9478948 Si02
#       7
#    16  16  16  16  16  16  16
#     4  10  20  36  61  89 119 160 207 256 306 368
#     4  10  22  38  59  87 123 164 208 249 303 381
#     4  11  24  41  64  97 128 161 213 268 315 375
#     4  11  21  38  68  92 122 170 209 265 319 364
#     4  11  24  41  61  87 127 175 212 250 315 388
#     4  10  21  38  64  98 126 156 207 270 322 366
#     4  11  21  35  59  90 123 158 203 261 315 366
#
# _framework density 19.889005999999998
#
# number of rings (size 3 to 8) (size 9 to 14) (size 15 to 20)
#    0.000    1.429    2.857    3.000    0.000    2.286 
#    0.000    3.571    0.000    3.429    0.000    0.000 
#    0.000    0.000    0.000    0.000    0.000    0.000 
#
# Total GULP energy -312700.025376 kJ/mol
# GULP energy per Si atom -5583.929025 kJ/mol
# Density = 1.984374 g / cm^3
# Si number density = 19.889006 Si / 1000 Ang^3
#
#
#
# Elastic Constant Matrix: (Units=GPa)
#
#
# Indices 1 2 3 4 5 6 
#
# 1 106.6638 30.9962 62.2430 0.0000 0.0000 0.0000
# 2 30.9962 121.5114 21.4558 0.0000 0.0000 0.0000
# 3 62.2430 21.4558 84.9049 0.0000 0.0000 0.0000
# 4 0.0000 0.0000 0.0000 17.3973 0.0000 0.0000
# 5 0.0000 0.0000 0.0000 0.0000 7.9439 0.0000
# 6 0.0000 0.0000 0.0000 0.0000 0.0000 2.5351
#
#
#
# Elastic Compliance Matrix: (Units=1/GPa)
#
#
# Indices 1 2 3 4 5 6 
#
# 1 0.016942 -0.002228 -0.011857 0.000000 0.000000 0.000000
# 2 -0.002228 0.008907 -0.000618 0.000000 0.000000 0.000000
# 3 -0.011857 -0.000618 0.020626 0.000000 0.000000 0.000000
# 4 0.000000 0.000000 0.000000 0.057480 0.000000 0.000000
# 5 0.000000 0.000000 0.000000 0.000000 0.125883 0.000000
# 6 0.000000 0.000000 0.000000 0.000000 0.000000 0.394462
#
#
# Mechanical properties :
#
#
# Convention : Reuss Voigt Hill
#
# Bulk Modulus (GPa) = 58.58172 60.27446 59.42809
# Shear Modulus (GPa) = 7.58272 18.80092 13.19182
#
# Velocity S-wave (km/s) = 1.95469 3.07790 2.57820
# Velocity P-wave (km/s) = 5.88325 6.55763 6.22957
#
# Compressibility (1/GPa) = 0.01707017
#
# Stress axis : x y z
#
# Youngs Moduli (GPa) = 59.02619 112.27049 48.48248
#
# Poissons Ratio (x) = 0.25014 0.57484
# Poissons Ratio (y) = 0.13151 0.02994
# Poissons Ratio (z) = 0.69986 0.06933
#
# Static dielectric constant tensor:
#      x y z
#    x 1.715500 0.000000 0.000000 
#    y 0.000000 1.706580 0.000000 
#    z 0.000000 0.000000 1.687710 
# 
# From -- ./inp_files/24224.got.cif
#   From: 2010.05.17/outbox.cif.g08.bks.cpg/sg64_13_cif.got.tgz:24224.got - 2010.06.03 16:29:19.
