data_PCOD9478647
_publ_section_title
;
Structure prediction by ZEFSAII (Michael W. Deem and Ramdas Pophale) SiO2 
 PCOD9478647
Probable space group: C M C A
;
_chemical_formula_sum "Si O2"
_cell_formula_units_Z 112
_cell_length_a 14.442053
_cell_length_b 14.145899
_cell_length_c 29.249904
_cell_angle_alpha 90.000000
_cell_angle_beta 90.000000
_cell_angle_gamma 90.000000
_cell_volume 5975.633213
_symmetry_space_group_name_H-M "C M C A"
_symmetry_group_IT_number 64
_symmetry_cell_setting 'orthorhombic'
loop_
_space_group_symop_operation_xyz
x,y,z
-x,1/2-y,1/2+z
x,-y,-z
-x,1/2+y,1/2-z
-x,-y,-z
x,1/2+y,1/2-z
-x,y,z
x,1/2-y,1/2+z
1/2+x,1/2+y,z
1/2-x,-y,1/2+z
1/2+x,1/2-y,-z
1/2-x,y,1/2-z
1/2-x,1/2-y,-z
1/2+x,y,1/2-z
1/2-x,1/2+y,z
1/2+x,-y,1/2+z
loop_
_atom_site_type_symbol
_atom_site_label
_atom_site_fract_x
_atom_site_fract_y
_atom_site_fract_z
Si Si1 0.888163 0.882255 0.892066
Si Si2 0.201834 0.604703 0.701864
Si Si3 0.889852 0.106316 0.399446
Si Si4 0.748062 0.553828 0.604233
Si Si5 0.753008 0.252664 0.945621
Si Si6 0.889450 0.901593 0.789604
Si Si7 0.889159 0.804547 0.696753
O O1 0.835887 0.807923 0.924463
O O2 0.866012 0.856747 0.838865
O O3 0.000000 0.886203 0.897719
O O4 0.837614 0.984024 0.899235
O O5 0.250000 0.623472 0.750000
O O6 0.263569 0.582870 0.657429
O O7 0.143232 0.509571 0.709490
O O8 0.144837 0.698276 0.689990
O O9 0.842089 0.187733 0.429182
O O10 0.864341 0.131638 0.346791
O O11 0.000000 0.103297 0.404121
O O12 0.839373 0.008514 0.410861
O O13 0.758235 0.647859 0.574941
O O14 0.750000 0.250000 0.000000
O O15 0.854806 0.848271 0.744527
O O16 0.000000 0.901440 0.787170
O O17 0.000000 0.802526 0.698576
#
# Coordination Sequence:
#
# PCOD9478647 Si02
#       7
#    16  16  16  16  16  16  16
#     4   9  21  40  63  87 120 157 199 244 299 359
#     4  11  21  31  56  85 116 156 197 231 291 351
#     4  10  22  41  63  89 120 161 201 246 303 363
#     4  10  22  40  60  89 120 155 199 248 296 354
#     4  11  24  42  62  89 122 153 199 260 314 364
#     4   9  19  36  54  80 116 154 193 239 286 347
#     4  10  20  35  56  83 118 154 197 240 285 350
#
# _framework density 18.742784
#
# number of rings (size 3 to 8) (size 9 to 14) (size 15 to 20)
#    0.000    2.000    1.429    1.286    2.000    6.286 
#    0.000    2.143    0.000    0.000    0.000    0.000 
#    0.000    0.000    0.000    0.000    0.000    0.000 
#
# Total GULP energy -312593.357238 kJ/mol
# GULP energy per Si atom -5582.024236 kJ/mol
# Density = 1.870012 g / cm^3
# Si number density = 18.742784 Si / 1000 Ang^3
#
#
#
# Elastic Constant Matrix: (Units=GPa)
#
#
# Indices 1 2 3 4 5 6 
#
# 1 85.3308 15.3235 23.7027 0.0000 0.0000 0.0000
# 2 15.3235 103.5198 40.2847 0.0000 0.0000 0.0000
# 3 23.7027 40.2847 111.0729 0.0000 0.0000 0.0000
# 4 0.0000 0.0000 0.0000 -33.6871 0.0000 0.0000
# 5 0.0000 0.0000 0.0000 0.0000 20.0682 0.0000
# 6 0.0000 0.0000 0.0000 0.0000 0.0000 -4.2236
#
#
#
# Elastic Compliance Matrix: (Units=1/GPa)
#
#
# Indices 1 2 3 4 5 6 
#
# 1 0.012537 -0.000949 -0.002331 0.000000 0.000000 0.000000
# 2 -0.000949 0.011319 -0.003903 0.000000 0.000000 0.000000
# 3 -0.002331 -0.003903 0.010916 0.000000 0.000000 0.000000
# 4 0.000000 0.000000 0.000000 -0.029685 0.000000 0.000000
# 5 0.000000 0.000000 0.000000 0.000000 0.049830 0.000000
# 6 0.000000 0.000000 0.000000 0.000000 0.000000 -0.236763
#
#
# Mechanical properties :
#
#
# Convention : Reuss Voigt Hill
#
# Bulk Modulus (GPa) = 49.00337 50.94947 49.97642
# Shear Modulus (GPa) = -31.11821 11.13900 -9.98961
#
# Velocity S-wave (km/s) = -4.07907 2.44049 -2.31115
# Velocity P-wave (km/s) = 2.00421 5.93160 4.42723
#
# Compressibility (1/GPa) = 0.02040676
#
# Stress axis : x y z
#
# Youngs Moduli (GPa) = 79.76370 88.34529 91.60747
#
# Poissons Ratio (x) = 0.08380 0.21357
# Poissons Ratio (y) = 0.07566 0.35754
# Poissons Ratio (z) = 0.18596 0.34480
#
# Static dielectric constant tensor:
#      x y z
#    x 1.518900 0.000000 0.000000 
#    y 0.000000 1.621180 0.000000 
#    z 0.000000 0.000000 1.650300 
# 
# From -- ./inp_files/45259.got.cif
#   From: 2010.05.17/outbox.cif.g08.bks.cpg/sg64_23_cif.got.tgz:45259.got - 2010.06.03 16:29:19.
