data_PCOD9478885
_publ_section_title
;
Structure prediction by ZEFSAII (Michael W. Deem and Ramdas Pophale) SiO2 
 PCOD9478885
Probable space group: C M C A
;
_chemical_formula_sum "Si O2"
_cell_formula_units_Z 112
_cell_length_a 14.282277
_cell_length_b 14.979049
_cell_length_c 27.058881
_cell_angle_alpha 90.000000
_cell_angle_beta 90.000000
_cell_angle_gamma 90.000000
_cell_volume 5788.839732
_symmetry_space_group_name_H-M "C M C A"
_symmetry_group_IT_number 64
_symmetry_cell_setting 'orthorhombic'
loop_
_space_group_symop_operation_xyz
x,y,z
-x,1/2-y,1/2+z
x,-y,-z
-x,1/2+y,1/2-z
-x,-y,-z
x,1/2+y,1/2-z
-x,y,z
x,1/2-y,1/2+z
1/2+x,1/2+y,z
1/2-x,-y,1/2+z
1/2+x,1/2-y,-z
1/2-x,y,1/2-z
1/2-x,1/2-y,-z
1/2+x,y,1/2-z
1/2-x,1/2+y,z
1/2+x,-y,1/2+z
loop_
_atom_site_type_symbol
_atom_site_label
_atom_site_fract_x
_atom_site_fract_y
_atom_site_fract_z
Si Si1 0.396014 0.075968 0.595224
Si Si2 0.108261 0.459495 0.054080
Si Si3 0.897214 0.177847 0.800856
Si Si4 0.773861 0.521283 0.134227
Si Si5 0.890558 0.870610 0.308962
Si Si6 0.229444 0.211558 0.158828
Si Si7 0.254043 0.796499 0.447107
O O1 0.500000 0.047724 0.580882
O O2 0.399174 0.116154 0.650720
O O3 0.352509 0.151913 0.560293
O O4 0.316111 0.002550 0.600665
O O5 0.142790 0.531761 0.094401
O O6 0.173012 0.371722 0.058135
O O7 0.000000 0.436908 0.061682
O O8 0.120068 0.500000 0.000000
O O9 0.882209 0.124953 0.750224
O O10 0.814457 0.245970 0.810394
O O11 0.000000 0.221429 0.796862
O O12 0.816425 0.439148 0.166407
O O13 0.740444 0.606067 0.164974
O O14 0.860099 0.770054 0.324698
O O15 0.000000 0.887911 0.321908
O O16 0.243384 0.232323 0.100370
O O17 0.250000 0.750000 0.500000
#
# Coordination Sequence:
#
# PCOD9478885 Si02
#       7
#    16  16  16  16  16  16  16
#     4   9  19  38  59  82 116 160 202 245 302 363
#     4  10  20  36  59  87 120 159 204 254 308 366
#     4   9  19  38  61  83 117 159 202 252 310 366
#     4  11  22  37  62  88 121 165 204 257 305 373
#     4  11  22  41  62  86 124 163 202 258 319 371
#     4  11  22  38  60  90 123 162 205 256 309 375
#     4  10  20  36  58  87 121 157 199 255 312 362
#
# _framework density 19.347573000000001
#
# number of rings (size 3 to 8) (size 9 to 14) (size 15 to 20)
#    0.000    1.857    4.286    1.714    0.000    2.286 
#    5.143    2.857    0.000   14.571    0.000    0.000 
#    0.000    0.000    0.000    0.000    0.000    0.000 
#
# Total GULP energy -312040.808102 kJ/mol
# GULP energy per Si atom -5572.157288 kJ/mol
# Density = 1.930354 g / cm^3
# Si number density = 19.347573 Si / 1000 Ang^3
#
#
#
# Elastic Constant Matrix: (Units=GPa)
#
#
# Indices 1 2 3 4 5 6 
#
# 1 121.4370 24.1916 18.2927 0.0000 0.0000 0.0000
# 2 24.1916 62.7287 6.3772 0.0000 0.0000 0.0000
# 3 18.2927 6.3772 82.4018 0.0000 0.0000 0.0000
# 4 0.0000 0.0000 0.0000 16.1383 0.0000 0.0000
# 5 0.0000 0.0000 0.0000 0.0000 24.4076 0.0000
# 6 0.0000 0.0000 0.0000 0.0000 0.0000 11.1603
#
#
#
# Elastic Compliance Matrix: (Units=1/GPa)
#
#
# Indices 1 2 3 4 5 6 
#
# 1 0.009171 -0.003356 -0.001776 0.000000 0.000000 0.000000
# 2 -0.003356 0.017296 -0.000594 0.000000 0.000000 0.000000
# 3 -0.001776 -0.000594 0.012576 0.000000 0.000000 0.000000
# 4 0.000000 0.000000 0.000000 0.061964 0.000000 0.000000
# 5 0.000000 0.000000 0.000000 0.000000 0.040971 0.000000
# 6 0.000000 0.000000 0.000000 0.000000 0.000000 0.089603
#
#
# Mechanical properties :
#
#
# Convention : Reuss Voigt Hill
#
# Bulk Modulus (GPa) = 36.24325 40.47671 38.35998
# Shear Modulus (GPa) = 19.82315 24.85499 22.33907
#
# Velocity S-wave (km/s) = 3.20438 3.58810 3.40165
# Velocity P-wave (km/s) = 5.69773 6.17513 5.94122
#
# Compressibility (1/GPa) = 0.02759134
#
# Stress axis : x y z
#
# Youngs Moduli (GPa) = 109.04099 57.81571 79.51730
#
# Poissons Ratio (x) = 0.19404 0.14123
# Poissons Ratio (y) = 0.36597 0.04720
# Poissons Ratio (z) = 0.19367 0.03431
#
# Static dielectric constant tensor:
#      x y z
#    x 1.707840 0.000000 0.000000 
#    y 0.000000 1.705580 0.000000 
#    z 0.000000 0.000000 1.703670 
# 
# From -- ./inp_files/50099.got.cif
#   From: 2010.05.17/outbox.cif.g08.bks.cpg/sg64_26_cif.got.tgz:50099.got - 2010.06.03 16:29:19.
