data_PCOD9478616
_publ_section_title
;
Structure prediction by ZEFSAII (Michael W. Deem and Ramdas Pophale) SiO2 
 PCOD9478616
Probable space group: C M C A
;
_chemical_formula_sum "Si O2"
_cell_formula_units_Z 104
_cell_length_a 23.439224
_cell_length_b 27.480934
_cell_length_c 8.907446
_cell_angle_alpha 90.000000
_cell_angle_beta 90.000000
_cell_angle_gamma 90.000000
_cell_volume 5737.568938
_symmetry_space_group_name_H-M "C M C A"
_symmetry_group_IT_number 64
_symmetry_cell_setting 'orthorhombic'
loop_
_space_group_symop_operation_xyz
x,y,z
-x,1/2-y,1/2+z
x,-y,-z
-x,1/2+y,1/2-z
-x,-y,-z
x,1/2+y,1/2-z
-x,y,z
x,1/2-y,1/2+z
1/2+x,1/2+y,z
1/2-x,-y,1/2+z
1/2+x,1/2-y,-z
1/2-x,y,1/2-z
1/2-x,1/2-y,-z
1/2+x,y,1/2-z
1/2-x,1/2+y,z
1/2+x,-y,1/2+z
loop_
_atom_site_type_symbol
_atom_site_label
_atom_site_fract_x
_atom_site_fract_y
_atom_site_fract_z
Si Si1 0.750000 0.382699 0.750000
Si Si2 0.133442 0.750208 0.834332
Si Si3 0.063122 0.589385 0.613477
Si Si4 0.208016 0.207831 0.433338
Si Si5 0.843430 0.454762 0.604002
Si Si6 0.936055 0.702021 0.585772
Si Si7 0.565331 0.496951 0.324018
O O1 0.768598 0.344864 0.883585
O O2 0.797925 0.418619 0.680133
O O3 0.179919 0.771658 0.719773
O O4 0.082620 0.733270 0.728065
O O5 0.160348 0.707195 0.935488
O O6 0.109237 0.788549 0.953756
O O7 0.114024 0.573920 0.505978
O O8 0.065442 0.646447 0.635151
O O9 0.067373 0.558346 0.764671
O O10 0.000000 0.577350 0.548008
O O11 0.250000 0.250000 0.500000
O O12 0.820343 0.500000 0.500000
O O13 0.885840 0.475927 0.730969
O O14 0.000000 0.714319 0.535326
O O15 0.575346 0.500000 0.500000
O O16 0.500000 0.514591 0.294011
#
# Coordination Sequence:
#
# PCOD9478616 Si02
#       7
#     8  16  16  16  16  16  16
#     4  12  24  38  64  84 118 158 204 252 308 352
#     4  10  21  35  58  80 116 151 190 250 297 341
#     4   9  18  34  58  83 111 150 194 232 281 353
#     4  11  21  39  59  85 111 147 207 256 288 344
#     4  10  22  39  58  83 118 155 196 238 290 359
#     4  10  20  35  55  85 118 151 189 233 298 365
#     4   9  18  35  61  88 117 148 186 244 290 336
#
# _framework density 18.126144
#
# number of rings (size 3 to 8) (size 9 to 14) (size 15 to 20)
#    0.000    2.000    1.538    1.846    2.154    3.692 
#    0.000    1.538    0.000    7.385    0.000    0.000 
#    0.000    0.000    0.000    0.000    0.000    0.000 
#
# Total GULP energy -289595.417210 kJ/mol
# GULP energy per Si atom -5569.142639 kJ/mol
# Density = 1.808489 g / cm^3
# Si number density = 18.126144 Si / 1000 Ang^3
#
#
#
# Elastic Constant Matrix: (Units=GPa)
#
#
# Indices 1 2 3 4 5 6 
#
# 1 92.0294 57.9582 51.2957 0.0000 0.0000 0.0000
# 2 57.9582 103.3720 50.1132 0.0000 0.0000 0.0000
# 3 51.2957 50.1132 113.9496 0.0000 0.0000 0.0000
# 4 0.0000 0.0000 0.0000 18.7593 0.0000 0.0000
# 5 0.0000 0.0000 0.0000 0.0000 46.9475 0.0000
# 6 0.0000 0.0000 0.0000 0.0000 0.0000 29.0466
#
#
#
# Elastic Compliance Matrix: (Units=1/GPa)
#
#
# Indices 1 2 3 4 5 6 
#
# 1 0.018681 -0.008131 -0.004834 0.000000 0.000000 0.000000
# 2 -0.008131 0.015834 -0.003303 0.000000 0.000000 0.000000
# 3 -0.004834 -0.003303 0.012405 0.000000 0.000000 0.000000
# 4 0.000000 0.000000 0.000000 0.053307 0.000000 0.000000
# 5 0.000000 0.000000 0.000000 0.000000 0.021300 0.000000
# 6 0.000000 0.000000 0.000000 0.000000 0.000000 0.034427
#
#
# Mechanical properties :
#
#
# Convention : Reuss Voigt Hill
#
# Bulk Modulus (GPa) = 69.52237 69.78727 69.65482
# Shear Modulus (GPa) = 25.86872 28.94962 27.40917
#
# Velocity S-wave (km/s) = 3.78186 4.00073 3.89284
# Velocity P-wave (km/s) = 7.58340 7.74116 7.66269
#
# Compressibility (1/GPa) = 0.01438386
#
# Stress axis : x y z
#
# Youngs Moduli (GPa) = 53.53102 63.15582 80.61578
#
# Poissons Ratio (x) = 0.51349 0.38967
# Poissons Ratio (y) = 0.43524 0.26631
# Poissons Ratio (z) = 0.25875 0.20863
#
# Static dielectric constant tensor:
#      x y z
#    x 1.681520 0.000000 0.000000 
#    y 0.000000 1.616780 0.000000 
#    z 0.000000 0.000000 1.603170 
# 
# From -- ./inp_files/9682.got.cif
#   From: 2010.05.17/outbox.cif.g08.bks.cpg/sg64_5_cif.got.tgz:9682.got - 2010.06.03 16:29:19.
