data_PCOD9478093
_publ_section_title
;
Structure prediction by ZEFSAII (Michael W. Deem and Ramdas Pophale) SiO2 
 PCOD9478093
Probable space group: C M C A
;
_chemical_formula_sum "Si O2"
_cell_formula_units_Z 64
_cell_length_a 22.597316
_cell_length_b 14.580482
_cell_length_c 8.186242
_cell_angle_alpha 90.000000
_cell_angle_beta 90.000000
_cell_angle_gamma 90.000000
_cell_volume 2697.201043
_symmetry_space_group_name_H-M "C M C A"
_symmetry_group_IT_number 64
_symmetry_cell_setting 'orthorhombic'
loop_
_space_group_symop_operation_xyz
x,y,z
-x,1/2-y,1/2+z
x,-y,-z
-x,1/2+y,1/2-z
-x,-y,-z
x,1/2+y,1/2-z
-x,y,z
x,1/2-y,1/2+z
1/2+x,1/2+y,z
1/2-x,-y,1/2+z
1/2+x,1/2-y,-z
1/2-x,y,1/2-z
1/2-x,1/2-y,-z
1/2+x,y,1/2-z
1/2-x,1/2+y,z
1/2+x,-y,1/2+z
loop_
_atom_site_type_symbol
_atom_site_label
_atom_site_fract_x
_atom_site_fract_y
_atom_site_fract_z
Si Si1 0.317560 0.625392 0.694831
Si Si2 0.380391 0.454357 0.819988
Si Si3 0.366204 0.778155 0.505716
Si Si4 0.500000 0.735115 0.597165
Si Si5 0.500000 0.390044 0.652649
O O1 0.250000 0.628601 0.750000
O O2 0.341147 0.522669 0.712336
O O3 0.331873 0.683150 0.533594
O O4 0.354891 0.682627 0.827744
O O5 0.348356 0.359400 0.868792
O O6 0.441231 0.435640 0.724302
O O7 0.392481 0.500000 0.000000
O O8 0.435891 0.766731 0.533388
O O9 0.500000 0.627574 0.542784
O O10 0.500000 0.785956 0.771913
#
# Coordination Sequence:
#
# PCOD9478093 Si02
#       5
#    16  16  16   8   8
#     4  11  23  40  61  86 119 163 207 247 295 356
#     4   9  20  37  59  86 117 158 198 237 300 369
#     4  10  21  40  63  89 120 157 199 250 305 358
#     4  10  20  37  63  93 119 148 194 248 306 361
#     4  10  19  37  63  91 122 154 194 248 305 365
#
# _framework density 23.728303
#
# number of rings (size 3 to 8) (size 9 to 14) (size 15 to 20)
#    0.000    2.000    0.000    4.125    0.000    5.000 
#    0.000   16.250    0.000    0.000    0.000    0.000 
#    0.000    0.000    0.000    0.000    0.000    0.000 
#
# Total GULP energy -178693.991182 kJ/mol
# GULP energy per Si atom -5584.187224 kJ/mol
# Density = 2.367430 g / cm^3
# Si number density = 23.728303 Si / 1000 Ang^3
#
#
#
# Elastic Constant Matrix: (Units=GPa)
#
#
# Indices 1 2 3 4 5 6 
#
# 1 76.3652 9.4986 0.5441 0.0000 0.0000 0.0000
# 2 9.4986 99.5864 21.9740 0.0000 0.0000 0.0000
# 3 0.5441 21.9740 39.0003 0.0000 0.0000 0.0000
# 4 0.0000 0.0000 0.0000 43.2471 0.0000 0.0000
# 5 0.0000 0.0000 0.0000 0.0000 3.6335 0.0000
# 6 0.0000 0.0000 0.0000 0.0000 0.0000 -33.0689
#
#
#
# Elastic Compliance Matrix: (Units=1/GPa)
#
#
# Indices 1 2 3 4 5 6 
#
# 1 0.013265 -0.001398 0.000603 0.000000 0.000000 0.000000
# 2 -0.001398 0.011615 -0.006524 0.000000 0.000000 0.000000
# 3 0.000603 -0.006524 0.029309 0.000000 0.000000 0.000000
# 4 0.000000 0.000000 0.000000 0.023123 0.000000 0.000000
# 5 0.000000 0.000000 0.000000 0.000000 0.275216 0.000000
# 6 0.000000 0.000000 0.000000 0.000000 0.000000 -0.030240
#
#
# Mechanical properties :
#
#
# Convention : Reuss Voigt Hill
#
# Bulk Modulus (GPa) = 25.28589 30.99837 28.14213
# Shear Modulus (GPa) = 14.28127 14.95801 14.61964
#
# Velocity S-wave (km/s) = 2.45596 2.51347 2.48488
# Velocity P-wave (km/s) = 4.32688 4.63850 4.48539
#
# Compressibility (1/GPa) = 0.03954775
#
# Stress axis : x y z
#
# Youngs Moduli (GPa) = 75.38872 86.09897 34.11975
#
# Poissons Ratio (x) = 0.12038 -0.02056
# Poissons Ratio (y) = 0.10541 0.22261
# Poissons Ratio (z) = -0.04544 0.56175
#
# Static dielectric constant tensor:
#      x y z
#    x 1.811610 0.000000 0.000000 
#    y 0.000000 1.974600 0.000000 
#    z 0.000000 0.000000 2.027240 
# 
# From -- ./inp_files/8985.got.cif
#   From: 2010.05.17/outbox.cif.g08.bks.cpg/sg64_5_cif.got.tgz:8985.got - 2010.06.03 16:29:19.
