data_PCOD9478800
_publ_section_title
;
Structure prediction by ZEFSAII (Michael W. Deem and Ramdas Pophale) SiO2 
 PCOD9478800
Probable space group: C M C A
;
_chemical_formula_sum "Si O2"
_cell_formula_units_Z 64
_cell_length_a 28.279728
_cell_length_b 24.677641
_cell_length_c 5.019541
_cell_angle_alpha 90.000000
_cell_angle_beta 90.000000
_cell_angle_gamma 90.000000
_cell_volume 3503.022090
_symmetry_space_group_name_H-M "C M C A"
_symmetry_group_IT_number 64
_symmetry_cell_setting 'orthorhombic'
loop_
_space_group_symop_operation_xyz
x,y,z
-x,1/2-y,1/2+z
x,-y,-z
-x,1/2+y,1/2-z
-x,-y,-z
x,1/2+y,1/2-z
-x,y,z
x,1/2-y,1/2+z
1/2+x,1/2+y,z
1/2-x,-y,1/2+z
1/2+x,1/2-y,-z
1/2-x,y,1/2-z
1/2-x,1/2-y,-z
1/2+x,y,1/2-z
1/2-x,1/2+y,z
1/2+x,-y,1/2+z
loop_
_atom_site_type_symbol
_atom_site_label
_atom_site_fract_x
_atom_site_fract_y
_atom_site_fract_z
Si Si1 0.250000 0.038728 0.750000
Si Si2 0.000000 0.039657 0.248851
Si Si3 0.352230 0.561663 0.608376
Si Si4 0.943831 0.784930 0.079550
Si Si5 0.404991 0.602807 0.120608
O O1 0.297480 0.070830 0.818125
O O2 0.261405 0.000000 0.500000
O O3 0.953419 0.076430 0.229462
O O4 0.000000 0.000000 0.500000
O O5 0.000000 0.000000 0.000000
O O6 0.356176 0.500000 0.500000
O O7 0.369415 0.599497 0.368352
O O8 0.384008 0.569602 0.870315
O O9 0.934248 0.735532 0.876853
O O10 0.915779 0.837511 0.987922
O O11 0.000000 0.797283 0.059363
#
# Coordination Sequence:
#
# PCOD9478800 Si02
#       5
#     8   8  16  16  16
#     4  10  20  36  56  80 110 148 190 232 270 310
#     4  12  24  34  48  76 118 152 176 204 259 336
#     4  11  22  36  57  82 116 148 186 226 271 331
#     4  10  21  38  58  78 106 143 191 243 277 312
#     4  12  22  37  55  83 111 151 186 224 277 333
#
# _framework density 18.269938
#
# number of rings (size 3 to 8) (size 9 to 14) (size 15 to 20)
#    0.000    1.000    1.250    9.000    0.000    0.000 
#    0.000    0.000    0.000    0.000    0.000   17.500 
#    0.000    0.000    0.000    0.000    0.000    0.000 
#
# Total GULP energy -178949.510070 kJ/mol
# GULP energy per Si atom -5592.172190 kJ/mol
# Density = 1.822835 g / cm^3
# Si number density = 18.269938 Si / 1000 Ang^3
#
#
#
# Elastic Constant Matrix: (Units=GPa)
#
#
# Indices 1 2 3 4 5 6 
#
# 1 110.2509 30.3256 31.5113 0.0000 0.0000 0.0000
# 2 30.3256 41.3957 -2.9513 0.0000 0.0000 0.0000
# 3 31.5113 -2.9513 102.7504 0.0000 0.0000 0.0000
# 4 0.0000 0.0000 0.0000 19.2009 0.0000 0.0000
# 5 0.0000 0.0000 0.0000 0.0000 29.5049 0.0000
# 6 0.0000 0.0000 0.0000 0.0000 0.0000 8.9837
#
#
#
# Elastic Compliance Matrix: (Units=1/GPa)
#
#
# Indices 1 2 3 4 5 6 
#
# 1 0.012991 -0.009821 -0.004266 0.000000 0.000000 0.000000
# 2 -0.009821 0.031631 0.003920 0.000000 0.000000 0.000000
# 3 -0.004266 0.003920 0.011153 0.000000 0.000000 0.000000
# 4 0.000000 0.000000 0.000000 0.052081 0.000000 0.000000
# 5 0.000000 0.000000 0.000000 0.000000 0.033893 0.000000
# 6 0.000000 0.000000 0.000000 0.000000 0.000000 0.111313
#
#
# Mechanical properties :
#
#
# Convention : Reuss Voigt Hill
#
# Bulk Modulus (GPa) = 28.21506 41.35202 34.78354
# Shear Modulus (GPa) = 17.53099 24.57200 21.05150
#
# Velocity S-wave (km/s) = 3.10103 3.67132 3.39816
# Velocity P-wave (km/s) = 5.31966 6.37609 5.87168
#
# Compressibility (1/GPa) = 0.03544207
#
# Stress axis : x y z
#
# Youngs Moduli (GPa) = 76.97699 31.61427 89.65997
#
# Poissons Ratio (x) = 0.31048 0.38250
# Poissons Ratio (y) = 0.75599 -0.35151
# Poissons Ratio (z) = 0.32839 -0.12394
#
# Static dielectric constant tensor:
#      x y z
#    x 1.645630 0.000000 0.000000 
#    y 0.000000 1.606140 0.000000 
#    z 0.000000 0.000000 1.618040 
# 
# From -- ./inp_files/2213.got.cif
#   From: 2010.05.17/outbox.cif.g08.bks.cpg/sg64_2_cif.got.tgz:2213.got - 2010.06.03 16:29:19.
