data_PCOD9478975
_publ_section_title
;
Structure prediction by ZEFSAII (Michael W. Deem and Ramdas Pophale) SiO2 
 PCOD9478975
Probable space group: C M C A
;
_chemical_formula_sum "Si O2"
_cell_formula_units_Z 80
_cell_length_a 9.994371
_cell_length_b 19.984031
_cell_length_c 21.782239
_cell_angle_alpha 90.000000
_cell_angle_beta 90.000000
_cell_angle_gamma 90.000000
_cell_volume 4350.519108
_symmetry_space_group_name_H-M "C M C A"
_symmetry_group_IT_number 64
_symmetry_cell_setting 'orthorhombic'
loop_
_space_group_symop_operation_xyz
x,y,z
-x,1/2-y,1/2+z
x,-y,-z
-x,1/2+y,1/2-z
-x,-y,-z
x,1/2+y,1/2-z
-x,y,z
x,1/2-y,1/2+z
1/2+x,1/2+y,z
1/2-x,-y,1/2+z
1/2+x,1/2-y,-z
1/2-x,y,1/2-z
1/2-x,1/2-y,-z
1/2+x,y,1/2-z
1/2-x,1/2+y,z
1/2+x,-y,1/2+z
loop_
_atom_site_type_symbol
_atom_site_label
_atom_site_fract_x
_atom_site_fract_y
_atom_site_fract_z
Si Si1 0.500000 0.439014 0.954524
Si Si2 0.248823 0.152886 0.317518
Si Si3 0.754184 0.363570 0.013949
Si Si4 0.500000 0.047615 0.940884
Si Si5 0.000000 0.056585 0.183769
Si Si6 0.149222 0.240616 0.415609
Si Si7 0.500000 0.051736 0.176515
O O1 0.500000 0.471228 0.885870
O O2 0.500000 0.500000 0.000000
O O3 0.637512 0.398531 0.972194
O O4 0.250000 0.183295 0.250000
O O5 0.373536 0.104494 0.317899
O O6 0.250707 0.211885 0.366031
O O7 0.125453 0.102243 0.329428
O O8 0.862216 0.410213 0.048823
O O9 0.680277 0.314488 0.061316
O O10 0.837458 0.312387 0.971097
O O11 0.500000 0.003930 0.877644
O O12 0.500000 0.000000 0.000000
O O13 0.000000 0.023646 0.252370
O O14 0.000000 0.237729 0.389833
#
# Coordination Sequence:
#
# PCOD9478975 Si02
#       7
#     8  16  16   8   8  16   8
#     4  12  24  38  59  88 128 159 204 253 307 364
#     4  10  20  36  62  91 116 155 205 253 302 357
#     4  11  24  37  60  92 118 164 197 251 309 368
#     4  12  24  40  64  89 126 159 208 252 305 368
#     4  10  22  37  58  94 117 151 208 253 302 349
#     4  11  20  38  62  87 126 153 200 250 311 364
#     4  10  22  39  63  87 119 161 202 254 305 359
#
# _framework density 18.388611000000001
#
# number of rings (size 3 to 8) (size 9 to 14) (size 15 to 20)
#    0.000    1.200    5.000    1.800    2.800    0.800 
#    0.000    0.000    4.400    0.000    0.000    0.000 
#    0.000    0.000    0.000    0.000    0.000    0.000 
#
# Total GULP energy -222709.294405 kJ/mol
# GULP energy per Si atom -5567.732360 kJ/mol
# Density = 1.834676 g / cm^3
# Si number density = 18.388611 Si / 1000 Ang^3
#
#
#
# Elastic Constant Matrix: (Units=GPa)
#
#
# Indices 1 2 3 4 5 6 
#
# 1 98.4053 16.2914 0.5212 0.0000 0.0000 0.0000
# 2 16.2914 66.3227 39.6172 0.0000 0.0000 0.0000
# 3 0.5212 39.6172 134.6875 0.0000 0.0000 0.0000
# 4 0.0000 0.0000 0.0000 31.1964 0.0000 0.0000
# 5 0.0000 0.0000 0.0000 0.0000 24.0998 0.0000
# 6 0.0000 0.0000 0.0000 0.0000 0.0000 -2.7143
#
#
#
# Elastic Compliance Matrix: (Units=1/GPa)
#
#
# Indices 1 2 3 4 5 6 
#
# 1 0.010679 -0.003152 0.000886 0.000000 0.000000 0.000000
# 2 -0.003152 0.019222 -0.005642 0.000000 0.000000 0.000000
# 3 0.000886 -0.005642 0.009081 0.000000 0.000000 0.000000
# 4 0.000000 0.000000 0.000000 0.032055 0.000000 0.000000
# 5 0.000000 0.000000 0.000000 0.000000 0.041494 0.000000
# 6 0.000000 0.000000 0.000000 0.000000 0.000000 -0.368420
#
#
# Mechanical properties :
#
#
# Convention : Reuss Voigt Hill
#
# Bulk Modulus (GPa) = 43.16774 45.80836 44.48805
# Shear Modulus (GPa) = -21.51921 26.71543 2.59811
#
# Velocity S-wave (km/s) = -3.42460 3.81573 1.18994
# Velocity P-wave (km/s) = 2.80875 6.66171 5.11212
#
# Compressibility (1/GPa) = 0.02316545
#
# Stress axis : x y z
#
# Youngs Moduli (GPa) = 93.63948 52.02300 110.12389
#
# Poissons Ratio (x) = 0.16400 -0.09756
# Poissons Ratio (y) = 0.29519 0.62131
# Poissons Ratio (z) = -0.08296 0.29351
#
# Static dielectric constant tensor:
#      x y z
#    x 1.704960 0.000000 0.000000 
#    y 0.000000 1.605530 0.000000 
#    z 0.000000 0.000000 2.497200 
# 
# From -- ./inp_files/38059.got.cif
#   From: 2010.05.17/outbox.cif.g08.bks.cpg/sg64_20_cif.got.tgz:38059.got - 2010.06.03 16:29:19.
