data_PCOD9478501
_publ_section_title
;
Structure prediction by ZEFSAII (Michael W. Deem and Ramdas Pophale) SiO2 
 PCOD9478501
Probable space group: C M C A
;
_chemical_formula_sum "Si O2"
_cell_formula_units_Z 64
_cell_length_a 15.500112
_cell_length_b 21.466986
_cell_length_c 9.167652
_cell_angle_alpha 90.000000
_cell_angle_beta 90.000000
_cell_angle_gamma 90.000000
_cell_volume 3050.450827
_symmetry_space_group_name_H-M "C M C A"
_symmetry_group_IT_number 64
_symmetry_cell_setting 'orthorhombic'
loop_
_space_group_symop_operation_xyz
x,y,z
-x,1/2-y,1/2+z
x,-y,-z
-x,1/2+y,1/2-z
-x,-y,-z
x,1/2+y,1/2-z
-x,y,z
x,1/2-y,1/2+z
1/2+x,1/2+y,z
1/2-x,-y,1/2+z
1/2+x,1/2-y,-z
1/2-x,y,1/2-z
1/2-x,1/2-y,-z
1/2+x,y,1/2-z
1/2-x,1/2+y,z
1/2+x,-y,1/2+z
loop_
_atom_site_type_symbol
_atom_site_label
_atom_site_fract_x
_atom_site_fract_y
_atom_site_fract_z
Si Si1 0.654033 0.821847 0.073319
Si Si2 0.782896 0.500000 0.000000
Si Si3 0.182504 0.311227 0.621056
Si Si4 0.250000 0.589208 0.750000
Si Si5 0.402960 0.406801 0.680203
O O1 0.626888 0.751269 0.103872
O O2 0.666849 0.868743 0.207472
O O3 0.753809 0.819182 0.015182
O O4 0.600364 0.853269 0.944789
O O5 0.733276 0.454108 0.108745
O O6 0.841886 0.540826 0.110201
O O7 0.250000 0.296164 0.750000
O O8 0.134575 0.372972 0.676106
O O9 0.500000 0.428987 0.701630
#
# Coordination Sequence:
#
# PCOD9478501 Si02
#       5
#    16   8  16   8  16
#     4   9  18  33  56  83 106 136 184 236 281 325
#     4  10  23  36  56  80 111 148 196 234 267 330
#     4   9  17  32  57  81 105 134 181 233 277 328
#     4  10  20  34  56  84 102 142 186 242 272 316
#     4  10  21  35  53  78 114 153 182 223 283 343
#
# _framework density 20.980504
#
# number of rings (size 3 to 8) (size 9 to 14) (size 15 to 20)
#    0.000    2.500    1.250    0.375    8.750    1.000 
#    0.000    0.000    0.000    4.500    0.000    0.000 
#    0.000    0.000    0.000    0.000    0.000    0.000 
#
# Total GULP energy -178327.357497 kJ/mol
# GULP energy per Si atom -5572.729922 kJ/mol
# Density = 2.093275 g / cm^3
# Si number density = 20.980504 Si / 1000 Ang^3
#
#
#
# Elastic Constant Matrix: (Units=GPa)
#
#
# Indices 1 2 3 4 5 6 
#
# 1 39.3123 13.3095 19.2688 0.0000 0.0000 0.0000
# 2 13.3095 106.4807 32.2936 0.0000 0.0000 0.0000
# 3 19.2688 32.2936 69.7727 0.0000 0.0000 0.0000
# 4 0.0000 0.0000 0.0000 46.9680 0.0000 0.0000
# 5 0.0000 0.0000 0.0000 0.0000 1.5320 0.0000
# 6 0.0000 0.0000 0.0000 0.0000 0.0000 7.7099
#
#
#
# Elastic Compliance Matrix: (Units=1/GPa)
#
#
# Indices 1 2 3 4 5 6 
#
# 1 0.029603 -0.001420 -0.007518 0.000000 0.000000 0.000000
# 2 -0.001420 0.010993 -0.004696 0.000000 0.000000 0.000000
# 3 -0.007518 -0.004696 0.018582 0.000000 0.000000 0.000000
# 4 0.000000 0.000000 0.000000 0.021291 0.000000 0.000000
# 5 0.000000 0.000000 0.000000 0.000000 0.652748 0.000000
# 6 0.000000 0.000000 0.000000 0.000000 0.000000 0.129704
#
#
# Mechanical properties :
#
#
# Convention : Reuss Voigt Hill
#
# Bulk Modulus (GPa) = 31.33816 38.36774 34.85295
# Shear Modulus (GPa) = 5.55046 21.28822 13.41934
#
# Velocity S-wave (km/s) = 1.62827 3.18884 2.53180
# Velocity P-wave (km/s) = 4.30166 5.64671 5.01944
#
# Compressibility (1/GPa) = 0.03190997
#
# Stress axis : x y z
#
# Youngs Moduli (GPa) = 33.78031 90.96663 53.81587
#
# Poissons Ratio (x) = 0.12919 0.40459
# Poissons Ratio (y) = 0.04797 0.25271
# Poissons Ratio (z) = 0.25396 0.42716
#
# Static dielectric constant tensor:
#      x y z
#    x 1.727360 0.000000 0.000000 
#    y 0.000000 1.866220 0.000000 
#    z 0.000000 0.000000 1.818730 
# 
# From -- ./inp_files/6814.got.cif
#   From: 2010.05.17/outbox.cif.g08.bks.cpg/sg64_4_cif.got.tgz:6814.got - 2010.06.03 16:29:19.
