data_PCOD9478899
_publ_section_title
;
Structure prediction by ZEFSAII (Michael W. Deem and Ramdas Pophale) SiO2 
 PCOD9478899
Probable space group: C M C A
;
_chemical_formula_sum "Si O2"
_cell_formula_units_Z 96
_cell_length_a 8.862574
_cell_length_b 19.365126
_cell_length_c 30.856495
_cell_angle_alpha 90.000000
_cell_angle_beta 90.000000
_cell_angle_gamma 90.000000
_cell_volume 5295.741702
_symmetry_space_group_name_H-M "C M C A"
_symmetry_group_IT_number 64
_symmetry_cell_setting 'orthorhombic'
loop_
_space_group_symop_operation_xyz
x,y,z
-x,1/2-y,1/2+z
x,-y,-z
-x,1/2+y,1/2-z
-x,-y,-z
x,1/2+y,1/2-z
-x,y,z
x,1/2-y,1/2+z
1/2+x,1/2+y,z
1/2-x,-y,1/2+z
1/2+x,1/2-y,-z
1/2-x,y,1/2-z
1/2-x,1/2-y,-z
1/2+x,y,1/2-z
1/2-x,1/2+y,z
1/2+x,-y,1/2+z
loop_
_atom_site_type_symbol
_atom_site_label
_atom_site_fract_x
_atom_site_fract_y
_atom_site_fract_z
Si Si1 0.179754 0.824688 0.448308
Si Si2 0.179726 0.675828 0.050052
Si Si3 0.681124 0.829539 0.703506
Si Si4 0.818950 0.830854 0.296896
Si Si5 0.319276 0.082104 0.625097
Si Si6 0.182036 0.420780 0.621396
O O1 0.211202 0.837402 0.499187
O O2 0.241595 0.748251 0.437971
O O3 0.258580 0.879987 0.417669
O O4 0.000000 0.826115 0.441504
O O5 0.242956 0.616016 0.080409
O O6 0.000000 0.682775 0.055109
O O7 0.500000 0.833015 0.706862
O O8 0.750000 0.848155 0.750000
O O9 0.721114 0.749568 0.693905
O O10 0.729124 0.879338 0.664625
O O11 0.750000 0.847991 0.250000
O O12 0.752705 0.879363 0.333884
O O13 0.000000 0.836146 0.295601
O O14 0.500000 0.087962 0.627187
O O15 0.279104 0.001264 0.624583
O O16 0.000000 0.414978 0.617646
#
# Coordination Sequence:
#
# PCOD9478899 Si02
#       6
#    16  16  16  16  16  16
#     4  10  21  38  59  83 112 145 184 232 282 332
#     4  10  21  37  60  86 109 141 187 233 278 334
#     4   9  19  36  57  80 105 138 180 225 274 325
#     4  10  20  36  59  83 109 144 186 235 286 334
#     4  11  23  37  55  82 115 151 190 230 277 333
#     4  10  22  38  55  80 116 151 183 226 280 333
#
# _framework density 18.127772
#
# number of rings (size 3 to 8) (size 9 to 14) (size 15 to 20)
#    0.000    2.000    0.000    3.000    0.000    7.333 
#    0.000    5.000    0.000    0.000    0.000    0.000 
#    0.000    0.000    0.000    0.000    0.000    0.000 
#
# Total GULP energy -268179.966266 kJ/mol
# GULP energy per Si atom -5587.082631 kJ/mol
# Density = 1.808651 g / cm^3
# Si number density = 18.127772 Si / 1000 Ang^3
#
#
#
# Elastic Constant Matrix: (Units=GPa)
#
#
# Indices 1 2 3 4 5 6 
#
# 1 50.1093 61.4378 55.8751 0.0000 0.0000 0.0000
# 2 61.4378 142.9990 105.2189 0.0000 0.0000 0.0000
# 3 55.8751 105.2189 116.0082 0.0000 0.0000 0.0000
# 4 0.0000 0.0000 0.0000 -19.7166 0.0000 0.0000
# 5 0.0000 0.0000 0.0000 0.0000 37.6730 0.0000
# 6 0.0000 0.0000 0.0000 0.0000 0.0000 26.6274
#
#
#
# Elastic Compliance Matrix: (Units=1/GPa)
#
#
# Indices 1 2 3 4 5 6 
#
# 1 0.048162 -0.010894 -0.013316 0.000000 0.000000 0.000000
# 2 -0.010894 0.023488 -0.016056 0.000000 0.000000 0.000000
# 3 -0.013316 -0.016056 0.029597 0.000000 0.000000 0.000000
# 4 0.000000 0.000000 0.000000 -0.050719 0.000000 0.000000
# 5 0.000000 0.000000 0.000000 0.000000 0.026544 0.000000
# 6 0.000000 0.000000 0.000000 0.000000 0.000000 0.037555
#
#
# Mechanical properties :
#
#
# Convention : Reuss Voigt Hill
#
# Bulk Modulus (GPa) = 48.27807 83.79779 66.03793
# Shear Modulus (GPa) = 24.74467 14.68907 19.71687
#
# Velocity S-wave (km/s) = 3.69862 2.84968 3.30155
# Velocity P-wave (km/s) = 6.70296 7.56003 7.14436
#
# Compressibility (1/GPa) = 0.02071334
#
# Stress axis : x y z
#
# Youngs Moduli (GPa) = 20.76341 42.57562 33.78770
#
# Poissons Ratio (x) = 0.46382 0.44992
# Poissons Ratio (y) = 0.22620 0.54250
# Poissons Ratio (z) = 0.27649 0.68360
#
# Static dielectric constant tensor:
#      x y z
#    x 1.606390 0.000000 0.000000 
#    y 0.000000 1.594900 0.000000 
#    z 0.000000 0.000000 1.601490 
# 
# From -- ./inp_files/48138.got.cif
#   From: 2010.05.17/outbox.cif.g08.bks.cpg/sg64_25_cif.got.tgz:48138.got - 2010.06.03 16:29:19.
