data_PCOD9478265
_publ_section_title
;
Structure prediction by ZEFSAII (Michael W. Deem and Ramdas Pophale) SiO2 
 PCOD9478265
Probable space group: C M C A
;
_chemical_formula_sum "Si O2"
_cell_formula_units_Z 72
_cell_length_a 10.367755
_cell_length_b 21.205187
_cell_length_c 18.362694
_cell_angle_alpha 90.000000
_cell_angle_beta 90.000000
_cell_angle_gamma 90.000000
_cell_volume 4037.041646
_symmetry_space_group_name_H-M "C M C A"
_symmetry_group_IT_number 64
_symmetry_cell_setting 'orthorhombic'
loop_
_space_group_symop_operation_xyz
x,y,z
-x,1/2-y,1/2+z
x,-y,-z
-x,1/2+y,1/2-z
-x,-y,-z
x,1/2+y,1/2-z
-x,y,z
x,1/2-y,1/2+z
1/2+x,1/2+y,z
1/2-x,-y,1/2+z
1/2+x,1/2-y,-z
1/2-x,y,1/2-z
1/2-x,1/2-y,-z
1/2+x,y,1/2-z
1/2-x,1/2+y,z
1/2+x,-y,1/2+z
loop_
_atom_site_type_symbol
_atom_site_label
_atom_site_fract_x
_atom_site_fract_y
_atom_site_fract_z
Si Si1 0.000000 0.681214 0.985592
Si Si2 0.250000 0.699033 0.750000
Si Si3 0.000000 0.236029 0.286491
Si Si4 0.258499 0.374055 0.400429
Si Si5 0.500000 0.186354 0.560026
Si Si6 0.500000 0.106630 0.138062
Si Si7 0.351031 0.009778 0.817267
O O1 0.874294 0.660805 0.941146
O O2 0.000000 0.755846 0.003121
O O3 0.000000 0.640214 0.060037
O O4 0.125625 0.742436 0.755722
O O5 0.242246 0.655817 0.679525
O O6 0.000000 0.275359 0.362754
O O7 0.000000 0.162920 0.304475
O O8 0.297921 0.445572 0.381597
O O9 0.126427 0.357419 0.441756
O O10 0.378872 0.060270 0.152153
O O11 0.500000 0.031606 0.796630
O O12 0.250000 0.010456 0.750000
#
# Coordination Sequence:
#
# PCOD9478265 Si02
#       7
#     8   8   8  16   8   8  16
#     4  11  20  40  60  84 118 161 191 231 291 362
#     4  10  20  32  54  90 108 144 194 234 304 334
#     4   9  19  32  52  76 116 145 180 237 278 356
#     4  11  20  35  61  85 119 148 196 246 286 346
#     4   9  22  34  54  85 119 147 182 236 293 339
#     4   9  23  38  56  84 115 157 198 227 296 349
#     4  10  22  36  60  86 115 151 196 252 278 337
#
# _framework density 17.834841999999998
#
# number of rings (size 3 to 8) (size 9 to 14) (size 15 to 20)
#    0.667    1.333    2.222    1.333    3.111    1.778 
#    0.000    0.000    2.444    1.333    0.000    0.000 
#    0.000    0.000    0.000    0.000    0.000    0.000 
#
# Total GULP energy -200505.957541 kJ/mol
# GULP energy per Si atom -5569.609932 kJ/mol
# Density = 1.779425 g / cm^3
# Si number density = 17.834842 Si / 1000 Ang^3
#
#
#
# Elastic Constant Matrix: (Units=GPa)
#
#
# Indices 1 2 3 4 5 6 
#
# 1 123.8188 22.3345 -0.0839 0.0000 0.0000 0.0000
# 2 22.3345 92.7797 -6.5911 0.0000 0.0000 0.0000
# 3 -0.0839 -6.5911 23.2511 0.0000 0.0000 0.0000
# 4 0.0000 0.0000 0.0000 -159.1371 0.0000 0.0000
# 5 0.0000 0.0000 0.0000 0.0000 32.3556 0.0000
# 6 0.0000 0.0000 0.0000 0.0000 0.0000 34.9994
#
#
#
# Elastic Compliance Matrix: (Units=1/GPa)
#
#
# Indices 1 2 3 4 5 6 
#
# 1 0.008450 -0.002074 -0.000557 0.000000 0.000000 0.000000
# 2 -0.002074 0.011509 0.003255 0.000000 0.000000 0.000000
# 3 -0.000557 0.003255 0.043929 0.000000 0.000000 0.000000
# 4 0.000000 0.000000 0.000000 -0.006284 0.000000 0.000000
# 5 0.000000 0.000000 0.000000 0.000000 0.030907 0.000000
# 6 0.000000 0.000000 0.000000 0.000000 0.000000 0.028572
#
#
# Mechanical properties :
#
#
# Convention : Reuss Voigt Hill
#
# Bulk Modulus (GPa) = 15.35252 30.12981 22.74117
# Shear Modulus (GPa) = 36.35123 -3.41042 16.47040
#
# Velocity S-wave (km/s) = 4.51956 -1.38433 3.04220
# Velocity P-wave (km/s) = 5.98849 3.79148 5.01185
#
# Compressibility (1/GPa) = 0.06513590
#
# Stress axis : x y z
#
# Youngs Moduli (GPa) = 118.34316 86.89109 22.76375
#
# Poissons Ratio (x) = 0.18019 0.01269
# Poissons Ratio (y) = 0.24541 -0.07409
# Poissons Ratio (z) = 0.06596 -0.28283
#
# Static dielectric constant tensor:
#      x y z
#    x 1.624460 0.000000 0.000000 
#    y 0.000000 1.611100 0.000000 
#    z 0.000000 0.000000 1.600580 
# 
# From -- ./inp_files/29579.got.cif
#   From: 2010.05.17/outbox.cif.g08.bks.cpg/sg64_15_cif.got.tgz:29579.got - 2010.06.03 16:29:19.
