data_PCOD9478087
_publ_section_title
;
Structure prediction by ZEFSAII (Michael W. Deem and Ramdas Pophale) SiO2 
 PCOD9478087
Probable space group: C M C A
;
_chemical_formula_sum "Si O2"
_cell_formula_units_Z 96
_cell_length_a 15.688210
_cell_length_b 25.489651
_cell_length_c 13.086635
_cell_angle_alpha 90.000000
_cell_angle_beta 90.000000
_cell_angle_gamma 90.000000
_cell_volume 5233.175180
_symmetry_space_group_name_H-M "C M C A"
_symmetry_group_IT_number 64
_symmetry_cell_setting 'orthorhombic'
loop_
_space_group_symop_operation_xyz
x,y,z
-x,1/2-y,1/2+z
x,-y,-z
-x,1/2+y,1/2-z
-x,-y,-z
x,1/2+y,1/2-z
-x,y,z
x,1/2-y,1/2+z
1/2+x,1/2+y,z
1/2-x,-y,1/2+z
1/2+x,1/2-y,-z
1/2-x,y,1/2-z
1/2-x,1/2-y,-z
1/2+x,y,1/2-z
1/2-x,1/2+y,z
1/2+x,-y,1/2+z
loop_
_atom_site_type_symbol
_atom_site_label
_atom_site_fract_x
_atom_site_fract_y
_atom_site_fract_z
Si Si1 0.648185 0.554976 0.735787
Si Si2 0.904781 0.120344 0.539266
Si Si3 0.169292 0.105874 0.138025
Si Si4 0.240032 0.188231 0.003199
Si Si5 0.404769 0.381745 0.071266
Si Si6 0.646556 0.439252 0.656605
O O1 0.750000 0.557463 0.750000
O O2 0.616997 0.592887 0.645898
O O3 0.609227 0.575199 0.841691
O O4 0.625807 0.496545 0.698614
O O5 0.831067 0.162151 0.517980
O O6 0.897689 0.077936 0.447471
O O7 0.000000 0.142212 0.541115
O O8 0.251490 0.067261 0.135766
O O9 0.128994 0.099991 0.248842
O O10 0.206587 0.163433 0.110613
O O11 0.109552 0.093960 0.041793
O O12 0.169492 0.162760 0.926167
O O13 0.250000 0.250000 0.000000
O O14 0.500000 0.359917 0.079201
#
# Coordination Sequence:
#
# PCOD9478087 Si02
#       6
#    16  16  16  16  16  16
#     4  12  20  37  63  85 124 167 197 238 302 358
#     4  11  24  39  58  91 125 156 204 253 296 362
#     4   8  18  37  59  86 117 152 200 246 290 351
#     4   9  20  41  66  85 113 161 196 248 312 359
#     4  10  22  38  60  90 122 149 198 256 299 356
#     4  10  19  37  62  86 122 164 198 238 294 361
#
# _framework density 18.344505000000002
#
# number of rings (size 3 to 8) (size 9 to 14) (size 15 to 20)
#    1.000    1.000    3.333    1.000    0.000    4.000 
#    0.000    7.500    0.000    2.000    0.000    0.000 
#    0.000    0.000    0.000    0.000    0.000    0.000 
#
# Total GULP energy -267301.695010 kJ/mol
# GULP energy per Si atom -5568.785313 kJ/mol
# Density = 1.830275 g / cm^3
# Si number density = 18.344505 Si / 1000 Ang^3
#
#
#
# Elastic Constant Matrix: (Units=GPa)
#
#
# Indices 1 2 3 4 5 6 
#
# 1 115.6314 36.9016 29.3726 0.0000 0.0000 0.0000
# 2 36.9016 84.7266 13.9158 0.0000 0.0000 0.0000
# 3 29.3726 13.9158 96.6306 0.0000 0.0000 0.0000
# 4 0.0000 0.0000 0.0000 14.2233 0.0000 0.0000
# 5 0.0000 0.0000 0.0000 0.0000 -10.0407 0.0000
# 6 0.0000 0.0000 0.0000 0.0000 0.0000 2.1094
#
#
#
# Elastic Compliance Matrix: (Units=1/GPa)
#
#
# Indices 1 2 3 4 5 6 
#
# 1 0.010661 -0.004211 -0.002634 0.000000 0.000000 0.000000
# 2 -0.004211 0.013752 -0.000700 0.000000 0.000000 0.000000
# 3 -0.002634 -0.000700 0.011250 0.000000 0.000000 0.000000
# 4 0.000000 0.000000 0.000000 0.070307 0.000000 0.000000
# 5 0.000000 0.000000 0.000000 0.000000 -0.099595 0.000000
# 6 0.000000 0.000000 0.000000 0.000000 0.000000 0.474073
#
#
# Mechanical properties :
#
#
# Convention : Reuss Voigt Hill
#
# Bulk Modulus (GPa) = 48.60914 50.81870 49.71392
# Shear Modulus (GPa) = 9.95230 15.71164 12.83197
#
# Velocity S-wave (km/s) = 2.33174 2.92974 2.64767
# Velocity P-wave (km/s) = 5.81419 6.26155 6.04201
#
# Compressibility (1/GPa) = 0.02057226
#
# Stress axis : x y z
#
# Youngs Moduli (GPa) = 93.79931 72.71879 88.88658
#
# Poissons Ratio (x) = 0.30619 0.23415
# Poissons Ratio (y) = 0.39495 0.06226
# Poissons Ratio (z) = 0.24709 0.05094
#
# Static dielectric constant tensor:
#      x y z
#    x 1.431920 0.000000 0.000000 
#    y 0.000000 1.601100 0.000000 
#    z 0.000000 0.000000 1.644350 
# 
# From -- ./inp_files/16231.got.cif
#   From: 2010.05.17/outbox.cif.g08.bks.cpg/sg64_9_cif.got.tgz:16231.got - 2010.06.03 16:29:19.
