data_PCOD9478711
_publ_section_title
;
Structure prediction by ZEFSAII (Michael W. Deem and Ramdas Pophale) SiO2 
 PCOD9478711
Probable space group: C M C A
;
_chemical_formula_sum "Si O2"
_cell_formula_units_Z 56
_cell_length_a 12.814436
_cell_length_b 7.805357
_cell_length_c 23.576211
_cell_angle_alpha 90.000000
_cell_angle_beta 90.000000
_cell_angle_gamma 90.000000
_cell_volume 2358.122041
_symmetry_space_group_name_H-M "C M C A"
_symmetry_group_IT_number 64
_symmetry_cell_setting 'orthorhombic'
loop_
_space_group_symop_operation_xyz
x,y,z
-x,1/2-y,1/2+z
x,-y,-z
-x,1/2+y,1/2-z
-x,-y,-z
x,1/2+y,1/2-z
-x,y,z
x,1/2-y,1/2+z
1/2+x,1/2+y,z
1/2-x,-y,1/2+z
1/2+x,1/2-y,-z
1/2-x,y,1/2-z
1/2-x,1/2-y,-z
1/2+x,y,1/2-z
1/2-x,1/2+y,z
1/2+x,-y,1/2+z
loop_
_atom_site_type_symbol
_atom_site_label
_atom_site_fract_x
_atom_site_fract_y
_atom_site_fract_z
Si Si1 0.381460 0.140240 0.182949
Si Si2 0.250000 0.891452 0.250000
Si Si3 0.335759 0.634194 0.925287
Si Si4 0.113389 0.746668 0.447353
O O1 0.500000 0.080602 0.190084
O O2 0.293921 0.998731 0.196882
O O3 0.348026 0.280953 0.229705
O O4 0.369594 0.237645 0.123684
O O5 0.210301 0.636592 0.930800
O O6 0.374173 0.439818 0.918125
O O7 0.376677 0.704163 0.985761
O O8 0.000000 0.820688 0.434601
#
# Coordination Sequence:
#
# PCOD9478711 Si02
#       4
#    16   8  16  16
#     4  11  21  39  59  80 110 146 181 231 279 320
#     4  10  24  38  56  84 108 138 192 232 272 332
#     4  10  20  35  59  83 110 147 187 217 270 336
#     4  10  20  37  55  83 118 146 177 225 268 322
#
# _framework density 23.747712
#
# number of rings (size 3 to 8) (size 9 to 14) (size 15 to 20)
#    0.000    1.714    0.000    6.000    0.000    0.000 
#    0.000   24.286    0.000    0.000    0.000    0.000 
#    0.000    0.000    0.000    0.000    0.000    0.000 
#
# Total GULP energy -156742.578528 kJ/mol
# GULP energy per Si atom -5597.949233 kJ/mol
# Density = 2.369366 g / cm^3
# Si number density = 23.747712 Si / 1000 Ang^3
#
#
#
# Elastic Constant Matrix: (Units=GPa)
#
#
# Indices 1 2 3 4 5 6 
#
# 1 185.6990 -2.4174 -3.6229 0.0000 0.0000 0.0000
# 2 -2.4174 27.5168 9.6542 0.0000 0.0000 0.0000
# 3 -3.6229 9.6542 56.0483 0.0000 0.0000 0.0000
# 4 0.0000 0.0000 0.0000 25.3175 0.0000 0.0000
# 5 0.0000 0.0000 0.0000 0.0000 12.4655 0.0000
# 6 0.0000 0.0000 0.0000 0.0000 0.0000 15.8594
#
#
#
# Elastic Compliance Matrix: (Units=1/GPa)
#
#
# Indices 1 2 3 4 5 6 
#
# 1 0.005395 0.000374 0.000284 0.000000 0.000000 0.000000
# 2 0.000374 0.038705 -0.006643 0.000000 0.000000 0.000000
# 3 0.000284 -0.006643 0.019004 0.000000 0.000000 0.000000
# 4 0.000000 0.000000 0.000000 0.039498 0.000000 0.000000
# 5 0.000000 0.000000 0.000000 0.000000 0.080221 0.000000
# 6 0.000000 0.000000 0.000000 0.000000 0.000000 0.063054
#
#
# Mechanical properties :
#
#
# Convention : Reuss Voigt Hill
#
# Bulk Modulus (GPa) = 19.55552 30.72134 25.13843
# Shear Modulus (GPa) = 18.18896 28.43850 23.31373
#
# Velocity S-wave (km/s) = 2.77054 3.46428 3.13665
# Velocity P-wave (km/s) = 4.29966 5.38204 4.87100
#
# Compressibility (1/GPa) = 0.05113647
#
# Stress axis : x y z
#
# Youngs Moduli (GPa) = 185.34047 25.83649 52.61962
#
# Poissons Ratio (x) = -0.00967 -0.01496
# Poissons Ratio (y) = -0.06936 0.34954
# Poissons Ratio (z) = -0.05269 0.17162
#
# Static dielectric constant tensor:
#      x y z
#    x 1.878080 0.000000 0.000000 
#    y 0.000000 1.917100 0.000000 
#    z 0.000000 0.000000 1.900380 
# 
# From -- ./inp_files/48969.got.cif
#   From: 2010.05.17/outbox.cif.g08.bks.cpg/sg64_25_cif.got.tgz:48969.got - 2010.06.03 16:29:19.
