data_PCOD9478332
_publ_section_title
;
Structure prediction by ZEFSAII (Michael W. Deem and Ramdas Pophale) SiO2 
 PCOD9478332
Probable space group: C M C A
;
_chemical_formula_sum "Si O2"
_cell_formula_units_Z 96
_cell_length_a 8.327637
_cell_length_b 23.517642
_cell_length_c 26.545087
_cell_angle_alpha 90.000000
_cell_angle_beta 90.000000
_cell_angle_gamma 90.000000
_cell_volume 5198.759346
_symmetry_space_group_name_H-M "C M C A"
_symmetry_group_IT_number 64
_symmetry_cell_setting 'orthorhombic'
loop_
_space_group_symop_operation_xyz
x,y,z
-x,1/2-y,1/2+z
x,-y,-z
-x,1/2+y,1/2-z
-x,-y,-z
x,1/2+y,1/2-z
-x,y,z
x,1/2-y,1/2+z
1/2+x,1/2+y,z
1/2-x,-y,1/2+z
1/2+x,1/2-y,-z
1/2-x,y,1/2-z
1/2-x,1/2-y,-z
1/2+x,y,1/2-z
1/2-x,1/2+y,z
1/2+x,-y,1/2+z
loop_
_atom_site_type_symbol
_atom_site_label
_atom_site_fract_x
_atom_site_fract_y
_atom_site_fract_z
Si Si1 0.683811 0.369079 0.901685
Si Si2 0.807016 0.067155 0.997855
Si Si3 0.193480 0.682013 0.693191
Si Si4 0.685349 0.757613 0.944449
Si Si5 0.688416 0.857760 0.093919
Si Si6 0.309332 0.314157 0.694099
O O1 0.500000 0.386851 0.895552
O O2 0.701580 0.304444 0.920273
O O3 0.760070 0.361801 0.846575
O O4 0.751692 0.404894 0.949219
O O5 0.731923 0.094643 0.947499
O O6 0.000000 0.077456 0.995324
O O7 0.778612 0.000000 0.000000
O O8 0.250000 0.670054 0.750000
O O9 0.270073 0.638114 0.653117
O O10 0.245726 0.748473 0.682927
O O11 0.000000 0.679583 0.690110
O O12 0.500000 0.776621 0.942040
O O13 0.703623 0.696418 0.920151
O O14 0.750000 0.750000 0.000000
O O15 0.500000 0.844822 0.088413
O O16 0.500000 0.310884 0.693724
O O17 0.250000 0.327933 0.750000
#
# Coordination Sequence:
#
# PCOD9478332 Si02
#       6
#    16  16  16  16  16  16
#     4  11  21  34  56  82 113 148 185 228 280 338
#     4  10  23  42  61  81 109 148 192 239 289 337
#     4  10  20  34  53  80 117 154 188 225 272 333
#     4  12  22  33  50  79 114 148 183 224 278 338
#     4  12  23  35  56  83 115 151 187 230 280 338
#     4  10  20  33  52  79 116 153 187 224 271 331
#
# _framework density 18.465942999999999
#
# number of rings (size 3 to 8) (size 9 to 14) (size 15 to 20)
#    0.000    1.167    3.333    4.500    0.000    2.333 
#    0.000    0.000    0.000    1.000    0.000    4.667 
#    0.000    0.000    0.000    0.000    0.000    0.000 
#
# Total GULP energy -267592.686109 kJ/mol
# GULP energy per Si atom -5574.847627 kJ/mol
# Density = 1.842391 g / cm^3
# Si number density = 18.465943 Si / 1000 Ang^3
#
#
#
# Elastic Constant Matrix: (Units=GPa)
#
#
# Indices 1 2 3 4 5 6 
#
# 1 56.1219 9.0982 28.9552 0.0000 0.0000 0.0000
# 2 9.0982 56.6731 47.3695 0.0000 0.0000 0.0000
# 3 28.9552 47.3695 169.0259 0.0000 0.0000 0.0000
# 4 0.0000 0.0000 0.0000 16.0822 0.0000 0.0000
# 5 0.0000 0.0000 0.0000 0.0000 25.9866 0.0000
# 6 0.0000 0.0000 0.0000 0.0000 0.0000 14.8538
#
#
#
# Elastic Compliance Matrix: (Units=1/GPa)
#
#
# Indices 1 2 3 4 5 6 
#
# 1 0.019554 -0.000443 -0.003226 0.000000 0.000000 0.000000
# 2 -0.000443 0.023053 -0.006385 0.000000 0.000000 0.000000
# 3 -0.003226 -0.006385 0.008258 0.000000 0.000000 0.000000
# 4 0.000000 0.000000 0.000000 0.062180 0.000000 0.000000
# 5 0.000000 0.000000 0.000000 0.000000 0.038481 0.000000
# 6 0.000000 0.000000 0.000000 0.000000 0.000000 0.067323
#
#
# Mechanical properties :
#
#
# Convention : Reuss Voigt Hill
#
# Bulk Modulus (GPa) = 32.51135 50.29630 41.40382
# Shear Modulus (GPa) = 20.06345 24.47773 22.27059
#
# Velocity S-wave (km/s) = 3.29980 3.64478 3.47657
# Velocity P-wave (km/s) = 5.67121 6.70887 6.21175
#
# Compressibility (1/GPa) = 0.03075849
#
# Stress axis : x y z
#
# Youngs Moduli (GPa) = 51.13943 43.37887 121.09326
#
# Poissons Ratio (x) = 0.01922 0.39060
# Poissons Ratio (y) = 0.02266 0.77313
# Poissons Ratio (z) = 0.16496 0.27696
#
# Static dielectric constant tensor:
#      x y z
#    x 1.689170 0.000000 0.000000 
#    y 0.000000 1.618910 0.000000 
#    z 0.000000 0.000000 1.707230 
# 
# From -- ./inp_files/48123.got.cif
#   From: 2010.05.17/outbox.cif.g08.bks.cpg/sg64_25_cif.got.tgz:48123.got - 2010.06.03 16:29:19.
