data_PCOD9478277
_publ_section_title
;
Structure prediction by ZEFSAII (Michael W. Deem and Ramdas Pophale) SiO2 
 PCOD9478277
Probable space group: C M C A
;
_chemical_formula_sum "Si O2"
_cell_formula_units_Z 88
_cell_length_a 24.966660
_cell_length_b 9.086515
_cell_length_c 20.695645
_cell_angle_alpha 90.000000
_cell_angle_beta 90.000000
_cell_angle_gamma 90.000000
_cell_volume 4695.012588
_symmetry_space_group_name_H-M "C M C A"
_symmetry_group_IT_number 64
_symmetry_cell_setting 'orthorhombic'
loop_
_space_group_symop_operation_xyz
x,y,z
-x,1/2-y,1/2+z
x,-y,-z
-x,1/2+y,1/2-z
-x,-y,-z
x,1/2+y,1/2-z
-x,y,z
x,1/2-y,1/2+z
1/2+x,1/2+y,z
1/2-x,-y,1/2+z
1/2+x,1/2-y,-z
1/2-x,y,1/2-z
1/2-x,1/2-y,-z
1/2+x,y,1/2-z
1/2-x,1/2+y,z
1/2+x,-y,1/2+z
loop_
_atom_site_type_symbol
_atom_site_label
_atom_site_fract_x
_atom_site_fract_y
_atom_site_fract_z
Si Si1 0.640894 0.379370 0.667784
Si Si2 0.801207 0.000000 0.000000
Si Si3 0.356323 0.800242 0.598176
Si Si4 0.340381 0.047611 0.699288
Si Si5 0.936637 0.957477 0.425313
Si Si6 0.767248 0.561243 0.875103
O O1 0.647182 0.483264 0.730551
O O2 0.638147 0.211646 0.689573
O O3 0.591987 0.427605 0.622690
O O4 0.695467 0.416289 0.628760
O O5 0.764773 0.059984 0.942096
O O6 0.836952 0.871892 0.968786
O O7 0.406976 0.696195 0.588837
O O8 0.307891 0.698431 0.625489
O O9 0.364621 0.933536 0.647601
O O10 0.277212 0.056833 0.680908
O O11 0.000000 0.950526 0.414819
O O12 0.926618 0.000000 0.500000
#
# Coordination Sequence:
#
# PCOD9478277 Si02
#       6
#    16   8  16  16  16  16
#     4  11  23  38  63  85 125 162 204 248 296 358
#     4  10  20  32  57  90 127 162 204 236 298 352
#     4  10  22  37  62  90 125 162 201 252 292 359
#     4  11  22  39  58  94 125 164 198 241 302 361
#     4  10  24  45  67  88 115 155 203 256 315 358
#     4  10  21  34  56  88 130 168 202 238 291 357
#
# _framework density 18.743293000000001
#
# number of rings (size 3 to 8) (size 9 to 14) (size 15 to 20)
#    0.000    1.636    0.000    5.455   10.182    1.455 
#    0.000    5.000    0.000    0.000    0.000    0.000 
#    0.000    0.000    0.000    0.000    0.000    0.000 
#
# Total GULP energy -245895.030580 kJ/mol
# GULP energy per Si atom -5588.523422 kJ/mol
# Density = 1.870063 g / cm^3
# Si number density = 18.743293 Si / 1000 Ang^3
#
#
#
# Elastic Constant Matrix: (Units=GPa)
#
#
# Indices 1 2 3 4 5 6 
#
# 1 118.0427 61.3999 67.9923 0.0000 0.0000 0.0000
# 2 61.3999 131.3262 43.5898 0.0000 0.0000 0.0000
# 3 67.9923 43.5898 118.2931 0.0000 0.0000 0.0000
# 4 0.0000 0.0000 0.0000 32.5601 0.0000 0.0000
# 5 0.0000 0.0000 0.0000 0.0000 20.8923 0.0000
# 6 0.0000 0.0000 0.0000 0.0000 0.0000 6.6621
#
#
#
# Elastic Compliance Matrix: (Units=1/GPa)
#
#
# Indices 1 2 3 4 5 6 
#
# 1 0.014814 -0.004671 -0.006794 0.000000 0.000000 0.000000
# 2 -0.004671 0.010149 -0.001055 0.000000 0.000000 0.000000
# 3 -0.006794 -0.001055 0.012747 0.000000 0.000000 0.000000
# 4 0.000000 0.000000 0.000000 0.030712 0.000000 0.000000
# 5 0.000000 0.000000 0.000000 0.000000 0.047865 0.000000
# 6 0.000000 0.000000 0.000000 0.000000 0.000000 0.150104
#
#
# Mechanical properties :
#
#
# Convention : Reuss Voigt Hill
#
# Bulk Modulus (GPa) = 78.92167 79.29176 79.10672
# Shear Modulus (GPa) = 16.91165 25.00156 20.95661
#
# Velocity S-wave (km/s) = 3.00705 3.65621 3.34741
# Velocity P-wave (km/s) = 7.36577 7.76014 7.56552
#
# Compressibility (1/GPa) = 0.01267079
#
# Stress axis : x y z
#
# Youngs Moduli (GPa) = 67.50158 98.53444 78.44926
#
# Poissons Ratio (x) = 0.46029 0.53296
# Poissons Ratio (y) = 0.31532 0.08274
# Poissons Ratio (z) = 0.45858 0.10393
#
# Static dielectric constant tensor:
#      x y z
#    x 1.623090 0.000000 0.000000 
#    y 0.000000 1.670260 0.000000 
#    z 0.000000 0.000000 1.670220 
# 
# From -- ./inp_files/41376.got.cif
#   From: 2010.05.17/outbox.cif.g08.bks.cpg/sg64_21_cif.got.tgz:41376.got - 2010.06.03 16:29:19.
