data_PCOD9478202
_publ_section_title
;
Structure prediction by ZEFSAII (Michael W. Deem and Ramdas Pophale) SiO2 
 PCOD9478202
Probable space group: C M C A
;
_chemical_formula_sum "Si O2"
_cell_formula_units_Z 84
_cell_length_a 25.958940
_cell_length_b 8.349109
_cell_length_c 20.542931
_cell_angle_alpha 90.000000
_cell_angle_beta 90.000000
_cell_angle_gamma 90.000000
_cell_volume 4452.352010
_symmetry_space_group_name_H-M "C M C A"
_symmetry_group_IT_number 64
_symmetry_cell_setting 'orthorhombic'
loop_
_space_group_symop_operation_xyz
x,y,z
-x,1/2-y,1/2+z
x,-y,-z
-x,1/2+y,1/2-z
-x,-y,-z
x,1/2+y,1/2-z
-x,y,z
x,1/2-y,1/2+z
1/2+x,1/2+y,z
1/2-x,-y,1/2+z
1/2+x,1/2-y,-z
1/2-x,y,1/2-z
1/2-x,1/2-y,-z
1/2+x,y,1/2-z
1/2-x,1/2+y,z
1/2+x,-y,1/2+z
loop_
_atom_site_type_symbol
_atom_site_label
_atom_site_fract_x
_atom_site_fract_y
_atom_site_fract_z
Si Si1 0.000000 0.319675 0.210865
Si Si2 0.902845 0.948626 0.924574
Si Si3 0.919604 0.421688 0.110057
Si Si4 0.500000 0.039684 0.654338
Si Si5 0.705183 0.933010 0.426070
Si Si6 0.500000 0.000000 0.000000
Si Si7 0.686475 0.055387 0.074981
O O1 0.950351 0.402825 0.177553
O O2 0.000000 0.334492 0.287843
O O3 0.000000 0.135846 0.188017
O O4 0.913327 0.760233 0.917041
O O5 0.846028 0.986274 0.897121
O O6 0.948734 0.043072 0.889143
O O7 0.903492 0.000000 0.000000
O O8 0.864319 0.504291 0.113498
O O9 0.955335 0.507864 0.057149
O O10 0.695578 0.744577 0.426576
O O11 0.708295 0.000000 0.500000
O O12 0.761210 0.974606 0.398331
O O13 0.678327 0.000000 0.000000
#
# Coordination Sequence:
#
# PCOD9478202 Si02
#       7
#     8  16  16   8  16   4  16
#     4   9  22  39  53  79 103 149 181 222 268 325
#     4  10  20  36  54  83 110 141 179 229 277 317
#     4  10  20  35  53  76 116 139 182 222 270 318
#     4  10  21  39  57  74 112 144 183 225 268 326
#     4  10  20  30  48  78 109 140 182 215 277 328
#     4  10  20  30  50  74 104 140 174 210 266 306
#     4  11  18  31  50  75 109 147 175 223 271 324
#
# _framework density 18.866433000000001
#
# number of rings (size 3 to 8) (size 9 to 14) (size 15 to 20)
#    0.000    1.905    0.952    6.571    0.000    1.524 
#    3.429    0.000    0.000    1.143    0.000    8.000 
#    0.000    0.000    0.000    0.000    0.000    0.000 
#
# Total GULP energy -233933.490492 kJ/mol
# GULP energy per Si atom -5569.845012 kJ/mol
# Density = 1.882349 g / cm^3
# Si number density = 18.866433 Si / 1000 Ang^3
#
#
#
# Elastic Constant Matrix: (Units=GPa)
#
#
# Indices 1 2 3 4 5 6 
#
# 1 180.2053 25.8062 26.6527 0.0000 0.0000 0.0000
# 2 25.8062 58.5731 11.4631 0.0000 0.0000 0.0000
# 3 26.6527 11.4631 36.2201 0.0000 0.0000 0.0000
# 4 0.0000 0.0000 0.0000 19.6683 0.0000 0.0000
# 5 0.0000 0.0000 0.0000 0.0000 8.5636 0.0000
# 6 0.0000 0.0000 0.0000 0.0000 0.0000 83.3768
#
#
#
# Elastic Compliance Matrix: (Units=1/GPa)
#
#
# Indices 1 2 3 4 5 6 
#
# 1 0.006447 -0.002038 -0.004099 0.000000 0.000000 0.000000
# 2 -0.002038 0.018844 -0.004464 0.000000 0.000000 0.000000
# 3 -0.004099 -0.004464 0.032038 0.000000 0.000000 0.000000
# 4 0.000000 0.000000 0.000000 0.050843 0.000000 0.000000
# 5 0.000000 0.000000 0.000000 0.000000 0.116773 0.000000
# 6 0.000000 0.000000 0.000000 0.000000 0.000000 0.011994
#
#
# Mechanical properties :
#
#
# Convention : Reuss Voigt Hill
#
# Bulk Modulus (GPa) = 27.68031 44.76026 36.22028
# Shear Modulus (GPa) = 18.50581 36.39351 27.44966
#
# Velocity S-wave (km/s) = 3.13531 4.39681 3.81851
# Velocity P-wave (km/s) = 5.27356 7.03934 6.21943
#
# Compressibility (1/GPa) = 0.03612676
#
# Stress axis : x y z
#
# Youngs Moduli (GPa) = 155.10096 53.06618 31.21277
#
# Poissons Ratio (x) = 0.10817 0.12795
# Poissons Ratio (y) = 0.31615 0.13933
# Poissons Ratio (z) = 0.63580 0.23689
#
# Static dielectric constant tensor:
#      x y z
#    x 1.688980 0.000000 0.000000 
#    y 0.000000 1.682660 0.000000 
#    z 0.000000 0.000000 1.616870 
# 
# From -- ./inp_files/41335.got.cif
#   From: 2010.05.17/outbox.cif.g08.bks.cpg/sg64_21_cif.got.tgz:41335.got - 2010.06.03 16:29:19.
