data_PCOD9478013
_publ_section_title
;
Structure prediction by ZEFSAII (Michael W. Deem and Ramdas Pophale) SiO2 
 PCOD9478013
Probable space group: C M C A
;
_chemical_formula_sum "Si O2"
_cell_formula_units_Z 64
_cell_length_a 15.850649
_cell_length_b 19.330250
_cell_length_c 8.399495
_cell_angle_alpha 90.000000
_cell_angle_beta 90.000000
_cell_angle_gamma 90.000000
_cell_volume 2573.580135
_symmetry_space_group_name_H-M "C M C A"
_symmetry_group_IT_number 64
_symmetry_cell_setting 'orthorhombic'
loop_
_space_group_symop_operation_xyz
x,y,z
-x,1/2-y,1/2+z
x,-y,-z
-x,1/2+y,1/2-z
-x,-y,-z
x,1/2+y,1/2-z
-x,y,z
x,1/2-y,1/2+z
1/2+x,1/2+y,z
1/2-x,-y,1/2+z
1/2+x,1/2-y,-z
1/2-x,y,1/2-z
1/2-x,1/2-y,-z
1/2+x,y,1/2-z
1/2-x,1/2+y,z
1/2+x,-y,1/2+z
loop_
_atom_site_type_symbol
_atom_site_label
_atom_site_fract_x
_atom_site_fract_y
_atom_site_fract_z
Si Si1 0.655776 0.983044 0.240747
Si Si2 0.397158 0.276448 0.770168
Si Si3 0.397885 0.645932 0.912358
Si Si4 0.403673 0.602600 0.447003
O O1 0.750000 0.010165 0.250000
O O2 0.634102 0.931447 0.383910
O O3 0.597270 0.048041 0.200045
O O4 0.647925 0.933196 0.086225
O O5 0.500000 0.276691 0.776674
O O6 0.372285 0.198253 0.730781
O O7 0.373824 0.324810 0.620775
O O8 0.368112 0.315536 0.928064
O O9 0.500000 0.643009 0.915047
O O10 0.500000 0.609686 0.504956
#
# Coordination Sequence:
#
# PCOD9478013 Si02
#       4
#    16  16  16  16
#     4  11  23  37  56  85 116 151 190 236 291 343
#     4   9  19  34  60  88 110 142 192 241 282 333
#     4  10  19  36  59  85 114 148 189 238 287 343
#     4  10  21  41  63  84 113 157 199 235 282 345
#
# _framework density 24.868079999999999
#
# number of rings (size 3 to 8) (size 9 to 14) (size 15 to 20)
#    0.000    2.000    0.000    4.500    0.000    9.000 
#    0.000   10.000    0.000    0.000    0.000    0.000 
#    0.000    0.000    0.000    0.000    0.000    0.000 
#
# Total GULP energy -179028.769526 kJ/mol
# GULP energy per Si atom -5594.649048 kJ/mol
# Density = 2.481148 g / cm^3
# Si number density = 24.868080 Si / 1000 Ang^3
#
#
#
# Elastic Constant Matrix: (Units=GPa)
#
#
# Indices 1 2 3 4 5 6 
#
# 1 45.1182 -5.2702 4.6837 0.0000 0.0000 0.0000
# 2 -5.2702 107.2837 -6.1615 0.0000 0.0000 0.0000
# 3 4.6837 -6.1615 57.3783 0.0000 0.0000 0.0000
# 4 0.0000 0.0000 0.0000 45.1581 0.0000 0.0000
# 5 0.0000 0.0000 0.0000 0.0000 -8.5517 0.0000
# 6 0.0000 0.0000 0.0000 0.0000 0.0000 386.0289
#
#
#
# Elastic Compliance Matrix: (Units=1/GPa)
#
#
# Indices 1 2 3 4 5 6 
#
# 1 0.022460 0.001004 -0.001726 0.000000 0.000000 0.000000
# 2 0.001004 0.009424 0.000930 0.000000 0.000000 0.000000
# 3 -0.001726 0.000930 0.017669 0.000000 0.000000 0.000000
# 4 0.000000 0.000000 0.000000 0.022144 0.000000 0.000000
# 5 0.000000 0.000000 0.000000 0.000000 -0.116935 0.000000
# 6 0.000000 0.000000 0.000000 0.000000 0.000000 0.002590
#
#
# Mechanical properties :
#
#
# Convention : Reuss Voigt Hill
#
# Bulk Modulus (GPa) = 20.01180 21.80934 20.91057
# Shear Modulus (GPa) = -189.33732 98.96226 -45.18753
#
# Velocity S-wave (km/s) = -8.73510 6.31516 -4.26736
# Velocity P-wave (km/s) = 9.67839 7.87173 3.98166
#
# Compressibility (1/GPa) = 0.04997052
#
# Stress axis : x y z
#
# Youngs Moduli (GPa) = 44.52277 106.11399 56.59653
#
# Poissons Ratio (x) = -0.10656 0.09766
# Poissons Ratio (y) = -0.04471 -0.05263
# Poissons Ratio (z) = 0.07683 -0.09869
#
# Static dielectric constant tensor:
#      x y z
#    x 1.882440 0.000000 0.000000 
#    y 0.000000 1.914400 0.000000 
#    z 0.000000 0.000000 2.064660 
# 
# From -- ./inp_files/5577.got.cif
#   From: 2010.05.17/outbox.cif.g08.bks.cpg/sg64_3_cif.got.tgz:5577.got - 2010.06.03 16:29:19.
