data_PCOD9478487
_publ_section_title
;
Structure prediction by ZEFSAII (Michael W. Deem and Ramdas Pophale) SiO2 
 PCOD9478487
Probable space group: C M C A
;
_chemical_formula_sum "Si O2"
_cell_formula_units_Z 96
_cell_length_a 8.596955
_cell_length_b 30.839801
_cell_length_c 19.727740
_cell_angle_alpha 90.000000
_cell_angle_beta 90.000000
_cell_angle_gamma 90.000000
_cell_volume 5230.383775
_symmetry_space_group_name_H-M "C M C A"
_symmetry_group_IT_number 64
_symmetry_cell_setting 'orthorhombic'
loop_
_space_group_symop_operation_xyz
x,y,z
-x,1/2-y,1/2+z
x,-y,-z
-x,1/2+y,1/2-z
-x,-y,-z
x,1/2+y,1/2-z
-x,y,z
x,1/2-y,1/2+z
1/2+x,1/2+y,z
1/2-x,-y,1/2+z
1/2+x,1/2-y,-z
1/2-x,y,1/2-z
1/2-x,1/2-y,-z
1/2+x,y,1/2-z
1/2-x,1/2+y,z
1/2+x,-y,1/2+z
loop_
_atom_site_type_symbol
_atom_site_label
_atom_site_fract_x
_atom_site_fract_y
_atom_site_fract_z
Si Si1 0.689677 0.480167 0.072315
Si Si2 0.812147 0.860515 0.911403
Si Si3 0.812143 0.445501 0.674111
Si Si4 0.688277 0.119369 0.566515
Si Si5 0.314713 0.782305 0.824670
Si Si6 0.185319 0.813245 0.324588
O O1 0.500000 0.480293 0.071677
O O2 0.739849 0.512031 0.132436
O O3 0.738137 0.430337 0.079071
O O4 0.738787 0.500000 0.000000
O O5 0.765211 0.902702 0.867817
O O6 0.739892 0.817970 0.878163
O O7 0.000000 0.857346 0.908138
O O8 0.769171 0.867523 0.989739
O O9 0.750000 0.444532 0.750000
O O10 0.000000 0.445889 0.675872
O O11 0.500000 0.120983 0.571261
O O12 0.759138 0.152085 0.620595
O O13 0.500000 0.780468 0.821289
O O14 0.250000 0.793990 0.750000
O O15 0.249856 0.734631 0.841492
O O16 0.250000 0.824404 0.250000
O O17 0.000000 0.811340 0.321653
#
# Coordination Sequence:
#
# PCOD9478487 Si02
#       6
#    16  16  16  16  16  16
#     4   9  16  33  59  83 109 150 196 234 277 335
#     4  10  20  35  57  85 117 153 192 233 283 343
#     4  10  20  34  55  84 115 150 193 236 282 336
#     4  10  20  36  61  88 115 151 195 239 285 339
#     4  11  22  38  60  84 114 151 192 237 289 343
#     4  11  23  41  62  84 114 149 191 239 290 344
#
# _framework density 18.354292999999998
#
# number of rings (size 3 to 8) (size 9 to 14) (size 15 to 20)
#    0.000    1.833    1.667    4.500    0.000    4.000 
#    0.000    2.500    0.000    1.000    0.000    0.000 
#    0.000    0.000    0.000    0.000    0.000    0.000 
#
# Total GULP energy -268148.131030 kJ/mol
# GULP energy per Si atom -5586.419396 kJ/mol
# Density = 1.831252 g / cm^3
# Si number density = 18.354293 Si / 1000 Ang^3
#
#
#
# Elastic Constant Matrix: (Units=GPa)
#
#
# Indices 1 2 3 4 5 6 
#
# 1 59.6977 58.2820 57.3819 0.0000 0.0000 0.0000
# 2 58.2820 171.2712 136.7374 0.0000 0.0000 0.0000
# 3 57.3819 136.7374 176.8832 0.0000 0.0000 0.0000
# 4 0.0000 0.0000 0.0000 41.9842 0.0000 0.0000
# 5 0.0000 0.0000 0.0000 0.0000 21.1115 0.0000
# 6 0.0000 0.0000 0.0000 0.0000 0.0000 6.1811
#
#
#
# Elastic Compliance Matrix: (Units=1/GPa)
#
#
# Indices 1 2 3 4 5 6 
#
# 1 0.026229 -0.005570 -0.004203 0.000000 0.000000 0.000000
# 2 -0.005570 0.016434 -0.010897 0.000000 0.000000 0.000000
# 3 -0.004203 -0.010897 0.015441 0.000000 0.000000 0.000000
# 4 0.000000 0.000000 0.000000 0.023818 0.000000 0.000000
# 5 0.000000 0.000000 0.000000 0.000000 0.047368 0.000000
# 6 0.000000 0.000000 0.000000 0.000000 0.000000 0.161785
#
#
# Mechanical properties :
#
#
# Convention : Reuss Voigt Hill
#
# Bulk Modulus (GPa) = 59.65343 101.40610 80.52976
# Shear Modulus (GPa) = 14.79276 24.21872 19.50574
#
# Velocity S-wave (km/s) = 2.84202 3.63645 3.26350
# Velocity P-wave (km/s) = 6.58339 8.54406 7.62699
#
# Compressibility (1/GPa) = 0.01676350
#
# Stress axis : x y z
#
# Youngs Moduli (GPa) = 38.12592 60.84906 64.76262
#
# Poissons Ratio (x) = 0.33892 0.27221
# Poissons Ratio (y) = 0.21235 0.70574
# Poissons Ratio (z) = 0.16025 0.66309
#
# Static dielectric constant tensor:
#      x y z
#    x 1.624210 0.000000 0.000000 
#    y 0.000000 1.614210 0.000000 
#    z 0.000000 0.000000 1.599640 
# 
# From -- ./inp_files/37060.got.cif
#   From: 2010.05.17/outbox.cif.g08.bks.cpg/sg64_19_cif.got.tgz:37060.got - 2010.06.03 16:29:19.
