data_PCOD9478120
_publ_section_title
;
Structure prediction by ZEFSAII (Michael W. Deem and Ramdas Pophale) SiO2 
 PCOD9478120
Probable space group: C M C A
;
_chemical_formula_sum "Si O2"
_cell_formula_units_Z 72
_cell_length_a 22.825872
_cell_length_b 5.206059
_cell_length_c 30.015967
_cell_angle_alpha 90.000000
_cell_angle_beta 90.000000
_cell_angle_gamma 90.000000
_cell_volume 3566.882495
_symmetry_space_group_name_H-M "C M C A"
_symmetry_group_IT_number 64
_symmetry_cell_setting 'orthorhombic'
loop_
_space_group_symop_operation_xyz
x,y,z
-x,1/2-y,1/2+z
x,-y,-z
-x,1/2+y,1/2-z
-x,-y,-z
x,1/2+y,1/2-z
-x,y,z
x,1/2-y,1/2+z
1/2+x,1/2+y,z
1/2-x,-y,1/2+z
1/2+x,1/2-y,-z
1/2-x,y,1/2-z
1/2-x,1/2-y,-z
1/2+x,y,1/2-z
1/2-x,1/2+y,z
1/2+x,-y,1/2+z
loop_
_atom_site_type_symbol
_atom_site_label
_atom_site_fract_x
_atom_site_fract_y
_atom_site_fract_z
Si Si1 0.000000 0.052325 0.411449
Si Si2 0.710322 0.500000 0.500000
Si Si3 0.316298 0.385972 0.767966
Si Si4 0.127081 0.458864 0.084140
Si Si5 0.000000 0.051805 0.146073
Si Si6 0.628865 0.541451 0.855263
O O1 0.061083 0.991824 0.434536
O O2 0.000000 0.847959 0.370007
O O3 0.000000 0.347529 0.395261
O O4 0.750000 0.750000 0.500000
O O5 0.671605 0.495135 0.455631
O O6 0.344093 0.105644 0.763024
O O7 0.250000 0.347332 0.750000
O O8 0.322796 0.490118 0.817675
O O9 0.134181 0.683070 0.121212
O O10 0.132904 0.182677 0.107753
O O11 0.063723 0.991517 0.166697
#
# Coordination Sequence:
#
# PCOD9478120 Si02
#       6
#     8   8  16  16   8  16
#     4   8  16  33  60  89 110 141 200 241 286 333
#     4  12  26  45  54  87 132 154 200 242 278 336
#     4  10  21  38  53  80 116 142 190 253 274 331
#     4  10  21  39  63  87 116 158 193 243 288 348
#     4   8  16  30  56  86 116 137 186 245 278 360
#     4  10  19  38  61  86 112 155 193 230 306 344
#
# _framework density 20.185694999999999
#
# number of rings (size 3 to 8) (size 9 to 14) (size 15 to 20)
#    0.000    2.222    0.000    2.667    0.000    0.444 
#   24.000    1.111    0.000    9.333    0.000    0.000 
#    0.000    0.000    0.000    0.000    0.000    0.000 
#
# Total GULP energy -200641.510126 kJ/mol
# GULP energy per Si atom -5573.375281 kJ/mol
# Density = 2.013975 g / cm^3
# Si number density = 20.185695 Si / 1000 Ang^3
#
#
#
# Elastic Constant Matrix: (Units=GPa)
#
#
# Indices 1 2 3 4 5 6 
#
# 1 106.4701 3.6238 43.0002 0.0000 0.0000 0.0000
# 2 3.6238 111.2344 -3.4515 0.0000 0.0000 0.0000
# 3 43.0002 -3.4515 47.2533 0.0000 0.0000 0.0000
# 4 0.0000 0.0000 0.0000 23.7932 0.0000 0.0000
# 5 0.0000 0.0000 0.0000 0.0000 -97.0840 0.0000
# 6 0.0000 0.0000 0.0000 0.0000 0.0000 21.3424
#
#
#
# Elastic Compliance Matrix: (Units=1/GPa)
#
#
# Indices 1 2 3 4 5 6 
#
# 1 0.014941 -0.000911 -0.013663 0.000000 0.000000 0.000000
# 2 -0.000911 0.009066 0.001491 0.000000 0.000000 0.000000
# 3 -0.013663 0.001491 0.033705 0.000000 0.000000 0.000000
# 4 0.000000 0.000000 0.000000 0.042029 0.000000 0.000000
# 5 0.000000 0.000000 0.000000 0.000000 -0.010300 0.000000
# 6 0.000000 0.000000 0.000000 0.000000 0.000000 0.046855
#
#
# Mechanical properties :
#
#
# Convention : Reuss Voigt Hill
#
# Bulk Modulus (GPa) = 31.69936 39.03365 35.36651
# Shear Modulus (GPa) = 28.90558 4.39601 16.65079
#
# Velocity S-wave (km/s) = 3.78826 1.47733 2.87519
# Velocity P-wave (km/s) = 5.90530 4.72115 5.34611
#
# Compressibility (1/GPa) = 0.03154638
#
# Stress axis : x y z
#
# Youngs Moduli (GPa) = 66.92790 110.30273 29.66939
#
# Poissons Ratio (x) = 0.10046 0.40538
# Poissons Ratio (y) = 0.06095 -0.04424
# Poissons Ratio (z) = 0.91444 -0.16446
#
# Static dielectric constant tensor:
#      x y z
#    x 1.833750 0.000000 0.000000 
#    y 0.000000 1.753800 0.000000 
#    z 0.000000 0.000000 1.684520 
# 
# From -- ./inp_files/2292.got.cif
#   From: 2010.05.17/outbox.cif.g08.bks.cpg/sg64_2_cif.got.tgz:2292.got - 2010.06.03 16:29:19.
