data_PCOD9478196
_publ_section_title
;
Structure prediction by ZEFSAII (Michael W. Deem and Ramdas Pophale) SiO2 
 PCOD9478196
Probable space group: C M C A
;
_chemical_formula_sum "Si O2"
_cell_formula_units_Z 80
_cell_length_a 21.352088
_cell_length_b 9.011996
_cell_length_c 21.941360
_cell_angle_alpha 90.000000
_cell_angle_beta 90.000000
_cell_angle_gamma 90.000000
_cell_volume 4222.064698
_symmetry_space_group_name_H-M "C M C A"
_symmetry_group_IT_number 64
_symmetry_cell_setting 'orthorhombic'
loop_
_space_group_symop_operation_xyz
x,y,z
-x,1/2-y,1/2+z
x,-y,-z
-x,1/2+y,1/2-z
-x,-y,-z
x,1/2+y,1/2-z
-x,y,z
x,1/2-y,1/2+z
1/2+x,1/2+y,z
1/2-x,-y,1/2+z
1/2+x,1/2-y,-z
1/2-x,y,1/2-z
1/2-x,1/2-y,-z
1/2+x,y,1/2-z
1/2-x,1/2+y,z
1/2+x,-y,1/2+z
loop_
_atom_site_type_symbol
_atom_site_label
_atom_site_fract_x
_atom_site_fract_y
_atom_site_fract_z
Si Si1 0.250000 0.053482 0.750000
Si Si2 0.196487 0.248966 0.577609
Si Si3 0.190876 0.796859 0.670091
Si Si4 0.428649 0.344650 0.583543
Si Si5 0.254255 0.000000 0.000000
Si Si6 0.569140 0.197224 0.941267
O O1 0.199619 0.159879 0.783433
O O2 0.209818 0.947602 0.705228
O O3 0.250802 0.268717 0.625398
O O4 0.211701 0.372793 0.527754
O O5 0.203578 0.084631 0.549186
O O6 0.125195 0.268766 0.596691
O O7 0.126754 0.803819 0.630845
O O8 0.500000 0.297710 0.601044
O O9 0.416899 0.287581 0.514036
O O10 0.431433 0.522937 0.575226
O O11 0.500000 0.257782 0.930022
#
# Coordination Sequence:
#
# PCOD9478196 Si02
#       6
#     8  16  16  16   8  16
#     4  10  24  38  54  76  98 130 190 246 270 296
#     4  11  19  32  53  78 108 143 174 213 267 324
#     4  11  21  37  56  76 103 139 182 230 273 307
#     4   9  17  31  53  80 110 141 169 205 259 322
#     4  10  20  28  48  84 108 128 176 214 252 334
#     4   9  17  29  49  82 116 141 168 199 247 330
#
# _framework density 18.948076
#
# number of rings (size 3 to 8) (size 9 to 14) (size 15 to 20)
#    0.000    2.000    0.000    8.400    0.000    0.000 
#    0.000    1.500    0.000    9.600    0.000    0.000 
#    0.000    0.000    0.000    0.000    0.000    0.000 
#
# Total GULP energy -222980.555355 kJ/mol
# GULP energy per Si atom -5574.513884 kJ/mol
# Density = 1.890495 g / cm^3
# Si number density = 18.948076 Si / 1000 Ang^3
#
#
#
# Elastic Constant Matrix: (Units=GPa)
#
#
# Indices 1 2 3 4 5 6 
#
# 1 190.9677 38.0618 62.4899 0.0000 0.0000 0.0000
# 2 38.0618 69.8539 33.2239 0.0000 0.0000 0.0000
# 3 62.4899 33.2239 68.4638 0.0000 0.0000 0.0000
# 4 0.0000 0.0000 0.0000 20.9798 0.0000 0.0000
# 5 0.0000 0.0000 0.0000 0.0000 26.6639 0.0000
# 6 0.0000 0.0000 0.0000 0.0000 0.0000 -0.0761
#
#
#
# Elastic Compliance Matrix: (Units=1/GPa)
#
#
# Indices 1 2 3 4 5 6 
#
# 1 0.007529 -0.001084 -0.006346 0.000000 0.000000 0.000000
# 2 -0.001084 0.018767 -0.008118 0.000000 0.000000 0.000000
# 3 -0.006346 -0.008118 0.024338 0.000000 0.000000 0.000000
# 4 0.000000 0.000000 0.000000 0.047665 0.000000 0.000000
# 5 0.000000 0.000000 0.000000 0.000000 0.037504 0.000000
# 6 0.000000 0.000000 0.000000 0.000000 0.000000-13.145220
#
#
# Mechanical properties :
#
#
# Convention : Reuss Voigt Hill
#
# Bulk Modulus (GPa) = 51.18126 66.31519 58.74823
# Shear Modulus (GPa) = -0.38545 22.54751 11.08103
#
# Velocity S-wave (km/s) = -0.45152 3.45333 2.42091
# Velocity P-wave (km/s) = 5.17669 7.13968 6.23591
#
# Compressibility (1/GPa) = 0.01953840
#
# Stress axis : x y z
#
# Youngs Moduli (GPa) = 132.81635 53.28408 41.08794
#
# Poissons Ratio (x) = 0.05777 0.26075
# Poissons Ratio (y) = 0.14399 0.33354
# Poissons Ratio (z) = 0.84287 0.43255
#
# Static dielectric constant tensor:
#      x y z
#    x 1.720410 0.000000 0.000000 
#    y 0.000000 1.715180 0.000000 
#    z 0.000000 0.000000 1.726950 
# 
# From -- ./inp_files/46142.got.cif
#   From: 2010.05.17/outbox.cif.g08.bks.cpg/sg64_24_cif.got.tgz:46142.got - 2010.06.03 16:29:19.
