data_PCOD9478099
_publ_section_title
;
Structure prediction by ZEFSAII (Michael W. Deem and Ramdas Pophale) SiO2 
 PCOD9478099
Probable space group: C M C A
;
_chemical_formula_sum "Si O2"
_cell_formula_units_Z 64
_cell_length_a 16.672686
_cell_length_b 14.879991
_cell_length_c 11.154312
_cell_angle_alpha 90.000000
_cell_angle_beta 90.000000
_cell_angle_gamma 90.000000
_cell_volume 2767.266768
_symmetry_space_group_name_H-M "C M C A"
_symmetry_group_IT_number 64
_symmetry_cell_setting 'orthorhombic'
loop_
_space_group_symop_operation_xyz
x,y,z
-x,1/2-y,1/2+z
x,-y,-z
-x,1/2+y,1/2-z
-x,-y,-z
x,1/2+y,1/2-z
-x,y,z
x,1/2-y,1/2+z
1/2+x,1/2+y,z
1/2-x,-y,1/2+z
1/2+x,1/2-y,-z
1/2-x,y,1/2-z
1/2-x,1/2-y,-z
1/2+x,y,1/2-z
1/2-x,1/2+y,z
1/2+x,-y,1/2+z
loop_
_atom_site_type_symbol
_atom_site_label
_atom_site_fract_x
_atom_site_fract_y
_atom_site_fract_z
Si Si1 0.000000 0.642471 0.445052
Si Si2 0.168829 0.407763 0.189850
Si Si3 0.000000 0.952004 0.192086
Si Si4 0.355115 0.697046 0.206749
Si Si5 0.212282 0.342123 0.941522
O O1 0.000000 0.624527 0.586956
O O2 0.000000 0.545787 0.379007
O O3 0.925737 0.694191 0.388391
O O4 0.250000 0.444827 0.250000
O O5 0.166122 0.301604 0.222884
O O6 0.083120 0.445404 0.233506
O O7 0.185167 0.405036 0.048258
O O8 0.288565 0.635708 0.140880
O O9 0.359586 0.666706 0.345005
O O10 0.250000 0.250000 0.000000
#
# Coordination Sequence:
#
# PCOD9478099 Si02
#       5
#     8  16   8  16  16
#     4  11  25  43  59  87 134 176 210 254 315 386
#     4  11  20  39  66  95 123 162 213 268 320 371
#     4  11  27  43  59  91 136 174 214 254 315 390
#     4  10  19  37  65  91 123 160 213 261 317 373
#     4   9  17  34  62  95 121 150 206 267 320 370
#
# _framework density 23.127513
#
# number of rings (size 3 to 8) (size 9 to 14) (size 15 to 20)
#    0.000    1.750    5.000    2.250    3.500    1.000 
#    4.500    2.500    0.000    0.000    0.000    0.000 
#    0.000    0.000    0.000    0.000    0.000    0.000 
#
# Total GULP energy -178291.534120 kJ/mol
# GULP energy per Si atom -5571.610441 kJ/mol
# Density = 2.307487 g / cm^3
# Si number density = 23.127513 Si / 1000 Ang^3
#
#
#
# Elastic Constant Matrix: (Units=GPa)
#
#
# Indices 1 2 3 4 5 6 
#
# 1 136.7806 18.3459 34.3157 0.0000 0.0000 0.0000
# 2 18.3459 64.2852 18.5335 0.0000 0.0000 0.0000
# 3 34.3157 18.5335 152.8603 0.0000 0.0000 0.0000
# 4 0.0000 0.0000 0.0000 13.3850 0.0000 0.0000
# 5 0.0000 0.0000 0.0000 0.0000 31.7313 0.0000
# 6 0.0000 0.0000 0.0000 0.0000 0.0000 30.3027
#
#
#
# Elastic Compliance Matrix: (Units=1/GPa)
#
#
# Indices 1 2 3 4 5 6 
#
# 1 0.007947 -0.001817 -0.001564 0.000000 0.000000 0.000000
# 2 -0.001817 0.016535 -0.001597 0.000000 0.000000 0.000000
# 3 -0.001564 -0.001597 0.007087 0.000000 0.000000 0.000000
# 4 0.000000 0.000000 0.000000 0.074711 0.000000 0.000000
# 5 0.000000 0.000000 0.000000 0.000000 0.031515 0.000000
# 6 0.000000 0.000000 0.000000 0.000000 0.000000 0.033000
#
#
# Mechanical properties :
#
#
# Convention : Reuss Voigt Hill
#
# Bulk Modulus (GPa) = 46.26864 55.14626 50.70745
# Shear Modulus (GPa) = 26.60234 33.93253 30.26743
#
# Velocity S-wave (km/s) = 3.39521 3.83455 3.62155
# Velocity P-wave (km/s) = 5.95141 6.59555 6.28174
#
# Compressibility (1/GPa) = 0.02161291
#
# Stress axis : x y z
#
# Youngs Moduli (GPa) = 125.83352 60.47914 141.11211
#
# Poissons Ratio (x) = 0.10990 0.22066
# Poissons Ratio (y) = 0.22865 0.22533
# Poissons Ratio (z) = 0.19677 0.09657
#
# Static dielectric constant tensor:
#      x y z
#    x 1.994990 0.000000 0.000000 
#    y 0.000000 1.918140 0.000000 
#    z 0.000000 0.000000 1.882720 
# 
# From -- ./inp_files/15702.got.cif
#   From: 2010.05.17/outbox.cif.g08.bks.cpg/sg64_8_cif.got.tgz:15702.got - 2010.06.03 16:29:19.
