data_PCOD9478186
_publ_section_title
;
Structure prediction by ZEFSAII (Michael W. Deem and Ramdas Pophale) SiO2 
 PCOD9478186
Probable space group: C M C A
;
_chemical_formula_sum "Si O2"
_cell_formula_units_Z 88
_cell_length_a 27.883063
_cell_length_b 17.413200
_cell_length_c 9.823272
_cell_angle_alpha 90.000000
_cell_angle_beta 90.000000
_cell_angle_gamma 90.000000
_cell_volume 4769.526188
_symmetry_space_group_name_H-M "C M C A"
_symmetry_group_IT_number 64
_symmetry_cell_setting 'orthorhombic'
loop_
_space_group_symop_operation_xyz
x,y,z
-x,1/2-y,1/2+z
x,-y,-z
-x,1/2+y,1/2-z
-x,-y,-z
x,1/2+y,1/2-z
-x,y,z
x,1/2-y,1/2+z
1/2+x,1/2+y,z
1/2-x,-y,1/2+z
1/2+x,1/2-y,-z
1/2-x,y,1/2-z
1/2-x,1/2-y,-z
1/2+x,y,1/2-z
1/2-x,1/2+y,z
1/2+x,-y,1/2+z
loop_
_atom_site_type_symbol
_atom_site_label
_atom_site_fract_x
_atom_site_fract_y
_atom_site_fract_z
Si Si1 0.152146 0.331461 0.276576
Si Si2 0.814684 0.538369 0.127884
Si Si3 0.391073 0.990252 0.338856
Si Si4 0.553830 0.430501 0.609018
Si Si5 0.357750 0.817541 0.958126
Si Si6 0.250000 0.579337 0.750000
O O1 0.114966 0.400479 0.304442
O O2 0.143722 0.261197 0.376818
O O3 0.205264 0.368441 0.293563
O O4 0.147076 0.307130 0.119345
O O5 0.843772 0.527688 0.267870
O O6 0.813824 0.627517 0.092701
O O7 0.770009 0.481273 0.139918
O O8 0.842700 0.500000 0.000000
O O9 0.393058 0.000000 0.500000
O O10 0.433129 0.031105 0.254455
O O11 0.554642 0.500000 0.500000
O O12 0.500000 0.398131 0.609647
O O13 0.594149 0.366639 0.575276
#
# Coordination Sequence:
#
# PCOD9478186 Si02
#       6
#    16  16  16  16  16   8
#     4  11  24  40  59  90 128 163 203 250 314 365
#     4  10  19  41  62  80 117 169 210 254 290 360
#     4  10  20  37  62  92 126 161 204 252 307 358
#     4  10  20  41  72  91 113 164 214 249 302 373
#     4  11  22  42  61  88 129 162 197 255 316 371
#     4  10  22  38  60  92 112 158 222 254 288 352
#
# _framework density 18.450468999999998
#
# number of rings (size 3 to 8) (size 9 to 14) (size 15 to 20)
#    0.000    1.636    5.455    1.091    5.091    4.727 
#    0.000    1.818    0.000    0.000    0.000    0.000 
#    0.000    0.000    0.000    0.000    0.000    0.000 
#
# Total GULP energy -245114.989603 kJ/mol
# GULP energy per Si atom -5570.795218 kJ/mol
# Density = 1.840847 g / cm^3
# Si number density = 18.450469 Si / 1000 Ang^3
#
#
#
# Elastic Constant Matrix: (Units=GPa)
#
#
# Indices 1 2 3 4 5 6 
#
# 1 98.4829 27.5477 24.4873 0.0000 0.0000 0.0000
# 2 27.5477 88.3398 39.0742 0.0000 0.0000 0.0000
# 3 24.4873 39.0742 160.1890 0.0000 0.0000 0.0000
# 4 0.0000 0.0000 0.0000 37.8275 0.0000 0.0000
# 5 0.0000 0.0000 0.0000 0.0000 12.9768 0.0000
# 6 0.0000 0.0000 0.0000 0.0000 0.0000 -0.3982
#
#
#
# Elastic Compliance Matrix: (Units=1/GPa)
#
#
# Indices 1 2 3 4 5 6 
#
# 1 0.011257 -0.003082 -0.000969 0.000000 0.000000 0.000000
# 2 -0.003082 0.013533 -0.002830 0.000000 0.000000 0.000000
# 3 -0.000969 -0.002830 0.007081 0.000000 0.000000 0.000000
# 4 0.000000 0.000000 0.000000 0.026436 0.000000 0.000000
# 5 0.000000 0.000000 0.000000 0.000000 0.077061 0.000000
# 6 0.000000 0.000000 0.000000 0.000000 0.000000 -2.511251
#
#
# Mechanical properties :
#
#
# Convention : Reuss Voigt Hill
#
# Bulk Modulus (GPa) = 55.22018 58.80337 57.01177
# Shear Modulus (GPa) = -2.12216 27.14138 12.50961
#
# Velocity S-wave (km/s) = -1.07363 3.83958 2.60669
# Velocity P-wave (km/s) = 5.33450 7.18308 6.32667
#
# Compressibility (1/GPa) = 0.01810932
#
# Stress axis : x y z
#
# Youngs Moduli (GPa) = 88.83342 73.89553 141.22211
#
# Poissons Ratio (x) = 0.22773 0.13686
# Poissons Ratio (y) = 0.27376 0.39964
# Poissons Ratio (z) = 0.08609 0.20911
#
# Static dielectric constant tensor:
#      x y z
#    x 1.718510 0.000000 0.000000 
#    y 0.000000 1.638700 0.000000 
#    z 0.000000 0.000000 2.165830 
# 
# From -- ./inp_files/11071.got.cif
#   From: 2010.05.17/outbox.cif.g08.bks.cpg/sg64_6_cif.got.tgz:11071.got - 2010.06.03 16:29:19.
