data_PCOD9478192
_publ_section_title
;
Structure prediction by ZEFSAII (Michael W. Deem and Ramdas Pophale) SiO2 
 PCOD9478192
Probable space group: C M C A
;
_chemical_formula_sum "Si O2"
_cell_formula_units_Z 60
_cell_length_a 13.346912
_cell_length_b 11.520222
_cell_length_c 16.509098
_cell_angle_alpha 90.000000
_cell_angle_beta 90.000000
_cell_angle_gamma 90.000000
_cell_volume 2538.428826
_symmetry_space_group_name_H-M "C M C A"
_symmetry_group_IT_number 64
_symmetry_cell_setting 'orthorhombic'
loop_
_space_group_symop_operation_xyz
x,y,z
-x,1/2-y,1/2+z
x,-y,-z
-x,1/2+y,1/2-z
-x,-y,-z
x,1/2+y,1/2-z
-x,y,z
x,1/2-y,1/2+z
1/2+x,1/2+y,z
1/2-x,-y,1/2+z
1/2+x,1/2-y,-z
1/2-x,y,1/2-z
1/2-x,1/2-y,-z
1/2+x,y,1/2-z
1/2-x,1/2+y,z
1/2+x,-y,1/2+z
loop_
_atom_site_type_symbol
_atom_site_label
_atom_site_fract_x
_atom_site_fract_y
_atom_site_fract_z
Si Si1 0.000000 0.645047 0.175037
Si Si2 0.166211 0.970253 0.304686
Si Si3 0.000000 0.858184 0.870386
Si Si4 0.500000 0.500000 0.500000
Si Si5 0.500000 0.106681 0.680000
Si Si6 0.835484 0.694197 0.944532
O O1 0.094667 0.565459 0.154872
O O2 0.000000 0.658975 0.272526
O O3 0.000000 0.770433 0.136912
O O4 0.250000 0.029037 0.250000
O O5 0.209044 0.880037 0.368988
O O6 0.093925 0.904189 0.241210
O O7 0.903100 0.797102 0.907281
O O8 0.000000 0.003157 0.121339
O O9 0.587607 0.398660 0.482998
O O10 0.750000 0.750000 0.000000
#
# Coordination Sequence:
#
# PCOD9478192 Si02
#       6
#     8  16   8   4   8  16
#     4  10  19  41  73 101 145 182 228 328 364 424
#     4  10  22  41  67 108 139 178 253 299 372 440
#     4   9  19  42  69 106 147 189 257 308 370 461
#     4  10  24  46  74 106 140 204 248 300 366 446
#     4  10  20  41  71 105 141 186 235 327 368 414
#     4  11  23  47  75 105 154 199 249 308 377 462
#
# _framework density 23.636668
#
# number of rings (size 3 to 8) (size 9 to 14) (size 15 to 20)
#    0.000    2.133    2.667    2.400    0.000    5.333 
#    9.600    4.000    0.000    8.000    0.000    0.000 
#    0.000    0.000    0.000    0.000    0.000    0.000 
#
# Total GULP energy -167306.669663 kJ/mol
# GULP energy per Si atom -5576.888989 kJ/mol
# Density = 2.358287 g / cm^3
# Si number density = 23.636668 Si / 1000 Ang^3
#
#
#
# Elastic Constant Matrix: (Units=GPa)
#
#
# Indices 1 2 3 4 5 6 
#
# 1 83.3323 47.7200 60.9533 0.0000 0.0000 0.0000
# 2 47.7200 221.6128 59.6817 0.0000 0.0000 0.0000
# 3 60.9533 59.6817 105.6142 0.0000 0.0000 0.0000
# 4 0.0000 0.0000 0.0000 52.8216 0.0000 0.0000
# 5 0.0000 0.0000 0.0000 0.0000 8.7487 0.0000
# 6 0.0000 0.0000 0.0000 0.0000 0.0000 18.1120
#
#
#
# Elastic Compliance Matrix: (Units=1/GPa)
#
#
# Indices 1 2 3 4 5 6 
#
# 1 0.021179 -0.001496 -0.011378 0.000000 0.000000 0.000000
# 2 -0.001496 0.005428 -0.002204 0.000000 0.000000 0.000000
# 3 -0.011378 -0.002204 0.017280 0.000000 0.000000 0.000000
# 4 0.000000 0.000000 0.000000 0.018932 0.000000 0.000000
# 5 0.000000 0.000000 0.000000 0.000000 0.114303 0.000000
# 6 0.000000 0.000000 0.000000 0.000000 0.000000 0.055212
#
#
# Mechanical properties :
#
#
# Convention : Reuss Voigt Hill
#
# Bulk Modulus (GPa) = 72.82316 83.02994 77.92655
# Shear Modulus (GPa) = 18.72193 32.08342 25.40268
#
# Velocity S-wave (km/s) = 2.81743 3.68823 3.28184
# Velocity P-wave (km/s) = 6.43896 7.30351 6.88482
#
# Compressibility (1/GPa) = 0.01373189
#
# Stress axis : x y z
#
# Youngs Moduli (GPa) = 47.21618 184.22711 57.87025
#
# Poissons Ratio (x) = 0.27569 0.65842
# Poissons Ratio (y) = 0.07066 0.12753
# Poissons Ratio (z) = 0.53720 0.40598
#
# Static dielectric constant tensor:
#      x y z
#    x 1.888920 0.000000 0.000000 
#    y 0.000000 1.888930 0.000000 
#    z 0.000000 0.000000 1.984460 
# 
# From -- ./inp_files/23291.got.cif
#   From: 2010.05.17/outbox.cif.g08.bks.cpg/sg64_12_cif.got.tgz:23291.got - 2010.06.03 16:29:19.
