data_PCOD9478635
_publ_section_title
;
Structure prediction by ZEFSAII (Michael W. Deem and Ramdas Pophale) SiO2 
 PCOD9478635
Probable space group: C M C A
;
_chemical_formula_sum "Si O2"
_cell_formula_units_Z 80
_cell_length_a 8.781374
_cell_length_b 18.770389
_cell_length_c 26.790639
_cell_angle_alpha 90.000000
_cell_angle_beta 90.000000
_cell_angle_gamma 90.000000
_cell_volume 4415.895827
_symmetry_space_group_name_H-M "C M C A"
_symmetry_group_IT_number 64
_symmetry_cell_setting 'orthorhombic'
loop_
_space_group_symop_operation_xyz
x,y,z
-x,1/2-y,1/2+z
x,-y,-z
-x,1/2+y,1/2-z
-x,-y,-z
x,1/2+y,1/2-z
-x,y,z
x,1/2-y,1/2+z
1/2+x,1/2+y,z
1/2-x,-y,1/2+z
1/2+x,1/2-y,-z
1/2-x,y,1/2-z
1/2-x,1/2-y,-z
1/2+x,y,1/2-z
1/2-x,1/2+y,z
1/2+x,-y,1/2+z
loop_
_atom_site_type_symbol
_atom_site_label
_atom_site_fract_x
_atom_site_fract_y
_atom_site_fract_z
Si Si1 0.180828 0.079858 0.198168
Si Si2 0.819469 0.333797 0.891461
Si Si3 0.682731 0.329754 0.497884
Si Si4 0.318172 0.921850 0.197427
Si Si5 0.180687 0.662991 0.605365
O O1 0.250000 0.109047 0.250000
O O2 0.225500 0.128405 0.151544
O O3 0.000000 0.072821 0.203004
O O4 0.254614 0.001933 0.191058
O O5 0.794757 0.248439 0.890988
O O6 0.000000 0.345942 0.883225
O O7 0.781346 0.361158 0.947434
O O8 0.500000 0.326348 0.493564
O O9 0.750000 0.250000 0.500000
O O10 0.753240 0.362629 0.447957
O O11 0.500000 0.923257 0.200213
O O12 0.250000 0.894875 0.250000
O O13 0.261915 0.875183 0.151215
O O14 0.000000 0.650363 0.607011
#
# Coordination Sequence:
#
# PCOD9478635 Si02
#       5
#    16  16  16  16  16
#     4  11  22  37  57  78 105 140 178 219 265 318
#     4   9  19  35  55  80 110 141 175 217 262 311
#     4   9  17  31  52  78 109 143 176 215 265 316
#     4  11  22  38  58  78 106 141 178 219 267 321
#     4  10  20  35  56  82 111 141 178 221 264 314
#
# _framework density 18.11637
#
# number of rings (size 3 to 8) (size 9 to 14) (size 15 to 20)
#    0.000    2.000    0.000    7.200    0.000    5.600 
#    0.000    1.000    0.000    6.000    0.000    0.000 
#    0.000    0.000    0.000    0.000    0.000    0.000 
#
# Total GULP energy -223228.656258 kJ/mol
# GULP energy per Si atom -5580.716406 kJ/mol
# Density = 1.807514 g / cm^3
# Si number density = 18.116370 Si / 1000 Ang^3
#
#
#
# Elastic Constant Matrix: (Units=GPa)
#
#
# Indices 1 2 3 4 5 6 
#
# 1 150.5701 42.0325 103.6950 0.0000 0.0000 0.0000
# 2 42.0325 21.2096 46.8464 0.0000 0.0000 0.0000
# 3 103.6950 46.8464 187.8800 0.0000 0.0000 0.0000
# 4 0.0000 0.0000 0.0000 209.3028 0.0000 0.0000
# 5 0.0000 0.0000 0.0000 0.0000 38.6836 0.0000
# 6 0.0000 0.0000 0.0000 0.0000 0.0000 25.1686
#
#
#
# Elastic Compliance Matrix: (Units=1/GPa)
#
#
# Indices 1 2 3 4 5 6 
#
# 1 0.015180 -0.025771 -0.001952 0.000000 0.000000 0.000000
# 2 -0.025771 0.148697 -0.022853 0.000000 0.000000 0.000000
# 3 -0.001952 -0.022853 0.012098 0.000000 0.000000 0.000000
# 4 0.000000 0.000000 0.000000 0.004778 0.000000 0.000000
# 5 0.000000 0.000000 0.000000 0.000000 0.025851 0.000000
# 6 0.000000 0.000000 0.000000 0.000000 0.000000 0.039732
#
#
# Mechanical properties :
#
#
# Convention : Reuss Voigt Hill
#
# Bulk Modulus (GPa) = 13.36494 82.75638 48.06066
# Shear Modulus (GPa) = 13.42535 65.77005 39.59770
#
# Velocity S-wave (km/s) = 2.72520 6.03183 4.68026
# Velocity P-wave (km/s) = 4.15879 9.71032 7.46947
#
# Compressibility (1/GPa) = 0.07482262
#
# Stress axis : x y z
#
# Youngs Moduli (GPa) = 65.87506 6.72509 82.65674
#
# Poissons Ratio (x) = 0.17332 0.16138
# Poissons Ratio (y) = 1.69769 1.88892
# Poissons Ratio (z) = 0.12862 0.15369
#
# Static dielectric constant tensor:
#      x y z
#    x 1.601880 0.000000 0.000000 
#    y 0.000000 1.679530 0.000000 
#    z 0.000000 0.000000 1.640880 
# 
# From -- ./inp_files/47854.got.cif
#   From: 2010.05.17/outbox.cif.g08.bks.cpg/sg64_24_cif.got.tgz:47854.got - 2010.06.03 16:29:19.
