data_PCOD9478455
_publ_section_title
;
Structure prediction by ZEFSAII (Michael W. Deem and Ramdas Pophale) SiO2 
 PCOD9478455
Probable space group: C M C A
;
_chemical_formula_sum "Si O2"
_cell_formula_units_Z 80
_cell_length_a 8.821500
_cell_length_b 27.956580
_cell_length_c 18.598035
_cell_angle_alpha 90.000000
_cell_angle_beta 90.000000
_cell_angle_gamma 90.000000
_cell_volume 4586.628244
_symmetry_space_group_name_H-M "C M C A"
_symmetry_group_IT_number 64
_symmetry_cell_setting 'orthorhombic'
loop_
_space_group_symop_operation_xyz
x,y,z
-x,1/2-y,1/2+z
x,-y,-z
-x,1/2+y,1/2-z
-x,-y,-z
x,1/2+y,1/2-z
-x,y,z
x,1/2-y,1/2+z
1/2+x,1/2+y,z
1/2-x,-y,1/2+z
1/2+x,1/2-y,-z
1/2-x,y,1/2-z
1/2-x,1/2-y,-z
1/2+x,y,1/2-z
1/2-x,1/2+y,z
1/2+x,-y,1/2+z
loop_
_atom_site_type_symbol
_atom_site_label
_atom_site_fract_x
_atom_site_fract_y
_atom_site_fract_z
Si Si1 0.817527 0.699833 0.975669
Si Si2 0.182252 0.554941 0.898731
Si Si3 0.318847 0.540250 0.171359
Si Si4 0.681026 0.344993 0.326113
Si Si5 0.681341 0.103629 0.463522
O O1 0.773419 0.688124 0.893093
O O2 0.000000 0.700044 0.980107
O O3 0.750000 0.750000 0.000000
O O4 0.753857 0.655281 0.021451
O O5 0.249703 0.507550 0.863928
O O6 0.221824 0.600782 0.849071
O O7 0.000000 0.551826 0.903979
O O8 0.250246 0.567560 0.976767
O O9 0.500000 0.534784 0.176891
O O10 0.250000 0.547887 0.250000
O O11 0.286402 0.582961 0.115389
O O12 0.500000 0.343236 0.320755
O O13 0.750000 0.331988 0.250000
O O14 0.500000 0.106033 0.473184
#
# Coordination Sequence:
#
# PCOD9478455 Si02
#       5
#    16  16  16  16  16
#     4  10  21  38  59  82 106 136 177 222 270 324
#     4  10  20  34  54  80 110 144 181 221 265 318
#     4  11  23  36  52  77 110 147 185 224 266 315
#     4   9  19  33  51  79 109 135 169 213 261 313
#     4  10  21  37  56  79 107 140 180 224 269 320
#
# _framework density 17.442007
#
# number of rings (size 3 to 8) (size 9 to 14) (size 15 to 20)
#    0.000    2.000    0.000    4.800    0.000   12.000 
#    0.000    1.000    0.000    0.000    0.000    0.000 
#    0.000    0.000    0.000    0.000    0.000    0.000 
#
# Total GULP energy -223384.389520 kJ/mol
# GULP energy per Si atom -5584.609738 kJ/mol
# Density = 1.740231 g / cm^3
# Si number density = 17.442007 Si / 1000 Ang^3
#
#
#
# Elastic Constant Matrix: (Units=GPa)
#
#
# Indices 1 2 3 4 5 6 
#
# 1 72.7444 62.6231 73.9471 0.0000 0.0000 0.0000
# 2 62.6231 123.0660 105.7014 0.0000 0.0000 0.0000
# 3 73.9471 105.7014 162.1940 0.0000 0.0000 0.0000
# 4 0.0000 0.0000 0.0000 14.1104 0.0000 0.0000
# 5 0.0000 0.0000 0.0000 0.0000 35.0907 0.0000
# 6 0.0000 0.0000 0.0000 0.0000 0.0000 2.4980
#
#
#
# Elastic Compliance Matrix: (Units=1/GPa)
#
#
# Indices 1 2 3 4 5 6 
#
# 1 0.028420 -0.007570 -0.008024 0.000000 0.000000 0.000000
# 2 -0.007570 0.020473 -0.009891 0.000000 0.000000 0.000000
# 3 -0.008024 -0.009891 0.016270 0.000000 0.000000 0.000000
# 4 0.000000 0.000000 0.000000 0.070870 0.000000 0.000000
# 5 0.000000 0.000000 0.000000 0.000000 0.028498 0.000000
# 6 0.000000 0.000000 0.000000 0.000000 0.000000 0.400320
#
#
# Mechanical properties :
#
#
# Convention : Reuss Voigt Hill
#
# Bulk Modulus (GPa) = 70.45700 93.61639 82.03670
# Shear Modulus (GPa) = 8.05736 18.05533 13.05634
#
# Velocity S-wave (km/s) = 2.15164 3.22089 2.73895
# Velocity P-wave (km/s) = 6.83048 8.22324 7.55900
#
# Compressibility (1/GPa) = 0.01419305
#
# Stress axis : x y z
#
# Youngs Moduli (GPa) = 35.18640 48.84422 61.46452
#
# Poissons Ratio (x) = 0.36976 0.49317
# Poissons Ratio (y) = 0.26637 0.60794
# Poissons Ratio (z) = 0.28233 0.48312
#
# Static dielectric constant tensor:
#      x y z
#    x 1.584030 0.000000 0.000000 
#    y 0.000000 1.567760 0.000000 
#    z 0.000000 0.000000 1.587980 
# 
# From -- ./inp_files/29695.got.cif
#   From: 2010.05.17/outbox.cif.g08.bks.cpg/sg64_15_cif.got.tgz:29695.got - 2010.06.03 16:29:19.
