data_PCOD9478268
_publ_section_title
;
Structure prediction by ZEFSAII (Michael W. Deem and Ramdas Pophale) SiO2 
 PCOD9478268
Probable space group: C M C A
;
_chemical_formula_sum "Si O2"
_cell_formula_units_Z 104
_cell_length_a 8.221505
_cell_length_b 29.221606
_cell_length_c 21.617208
_cell_angle_alpha 90.000000
_cell_angle_beta 90.000000
_cell_angle_gamma 90.000000
_cell_volume 5193.438670
_symmetry_space_group_name_H-M "C M C A"
_symmetry_group_IT_number 64
_symmetry_cell_setting 'orthorhombic'
loop_
_space_group_symop_operation_xyz
x,y,z
-x,1/2-y,1/2+z
x,-y,-z
-x,1/2+y,1/2-z
-x,-y,-z
x,1/2+y,1/2-z
-x,y,z
x,1/2-y,1/2+z
1/2+x,1/2+y,z
1/2-x,-y,1/2+z
1/2+x,1/2-y,-z
1/2-x,y,1/2-z
1/2-x,1/2-y,-z
1/2+x,y,1/2-z
1/2-x,1/2+y,z
1/2+x,-y,1/2+z
loop_
_atom_site_type_symbol
_atom_site_label
_atom_site_fract_x
_atom_site_fract_y
_atom_site_fract_z
Si Si1 0.805065 0.201884 0.027739
Si Si2 0.688043 0.854261 0.862561
Si Si3 0.187256 0.517091 0.338923
Si Si4 0.689440 0.083071 0.813468
Si Si5 0.807158 0.881565 0.060758
Si Si6 0.312166 0.059287 0.045167
Si Si7 0.250000 0.408075 0.750000
O O1 0.753074 0.162559 0.978740
O O2 0.000000 0.199897 0.031966
O O3 0.750000 0.250000 0.000000
O O4 0.737013 0.189279 0.095967
O O5 0.500000 0.851108 0.840669
O O6 0.696944 0.894956 0.912787
O O7 0.795193 0.871089 0.804109
O O8 0.216405 0.465058 0.320704
O O9 0.222595 0.523102 0.411471
O O10 0.302877 0.552013 0.300135
O O11 0.000000 0.531070 0.325698
O O12 0.500000 0.072226 0.809481
O O13 0.750000 0.105205 0.750000
O O14 0.723229 0.113218 0.873476
O O15 0.000000 0.879068 0.069614
O O16 0.765789 0.925812 0.019018
O O17 0.500000 0.046829 0.036785
#
# Coordination Sequence:
#
# PCOD9478268 Si02
#       7
#    16  16  16  16  16  16   8
#     4  10  21  38  64  92 117 147 185 234 291 353
#     4   9  18  32  53  83 118 154 190 233 285 345
#     4  11  21  34  54  80 115 157 201 243 285 336
#     4  12  25  40  58  81 112 154 200 242 287 339
#     4  10  21  39  61  86 114 147 189 238 292 345
#     4   9  18  33  53  81 114 149 192 239 290 340
#     4  10  20  32  56  84 120 158 198 238 288 338
#
# _framework density 20.025266999999999
#
# number of rings (size 3 to 8) (size 9 to 14) (size 15 to 20)
#    0.000    1.846    0.769    3.692    0.000    8.000 
#    0.000    3.077    1.692    0.000    0.000    0.000 
#    0.000    0.000    0.000    0.000    0.000    0.000 
#
# Total GULP energy -289555.030294 kJ/mol
# GULP energy per Si atom -5568.365967 kJ/mol
# Density = 1.997969 g / cm^3
# Si number density = 20.025267 Si / 1000 Ang^3
#
#
#
# Elastic Constant Matrix: (Units=GPa)
#
#
# Indices 1 2 3 4 5 6 
#
# 1 55.2387 16.3826 10.2445 0.0000 0.0000 0.0000
# 2 16.3826 72.2908 53.7984 0.0000 0.0000 0.0000
# 3 10.2445 53.7984 114.2046 0.0000 0.0000 0.0000
# 4 0.0000 0.0000 0.0000 30.7164 0.0000 0.0000
# 5 0.0000 0.0000 0.0000 0.0000 17.1902 0.0000
# 6 0.0000 0.0000 0.0000 0.0000 0.0000 15.6851
#
#
#
# Elastic Compliance Matrix: (Units=1/GPa)
#
#
# Indices 1 2 3 4 5 6 
#
# 1 0.019427 -0.004782 0.000510 0.000000 0.000000 0.000000
# 2 -0.004782 0.022477 -0.010159 0.000000 0.000000 0.000000
# 3 0.000510 -0.010159 0.013496 0.000000 0.000000 0.000000
# 4 0.000000 0.000000 0.000000 0.032556 0.000000 0.000000
# 5 0.000000 0.000000 0.000000 0.000000 0.058173 0.000000
# 6 0.000000 0.000000 0.000000 0.000000 0.000000 0.063755
#
#
# Mechanical properties :
#
#
# Convention : Reuss Voigt Hill
#
# Bulk Modulus (GPa) = 37.68251 44.73170 41.20710
# Shear Modulus (GPa) = 20.19445 23.47224 21.83335
#
# Velocity S-wave (km/s) = 3.17905 3.42735 3.30554
# Velocity P-wave (km/s) = 5.68626 6.16834 5.93220
#
# Compressibility (1/GPa) = 0.02653751
#
# Stress axis : x y z
#
# Youngs Moduli (GPa) = 51.47498 44.48924 74.09446
#
# Poissons Ratio (x) = 0.21275 -0.03779
# Poissons Ratio (y) = 0.24616 0.75276
# Poissons Ratio (z) = -0.02626 0.45199
#
# Static dielectric constant tensor:
#      x y z
#    x 1.766120 0.000000 0.000000 
#    y 0.000000 1.702950 0.000000 
#    z 0.000000 0.000000 1.754040 
# 
# From -- ./inp_files/37204.got.cif
#   From: 2010.05.17/outbox.cif.g08.bks.cpg/sg64_19_cif.got.tgz:37204.got - 2010.06.03 16:29:19.
