data_PCOD9478473
_publ_section_title
;
Structure prediction by ZEFSAII (Michael W. Deem and Ramdas Pophale) SiO2 
 PCOD9478473
Probable space group: C M C A
;
_chemical_formula_sum "Si O2"
_cell_formula_units_Z 112
_cell_length_a 15.305680
_cell_length_b 15.025164
_cell_length_c 25.412956
_cell_angle_alpha 90.000000
_cell_angle_beta 90.000000
_cell_angle_gamma 90.000000
_cell_volume 5844.226440
_symmetry_space_group_name_H-M "C M C A"
_symmetry_group_IT_number 64
_symmetry_cell_setting 'orthorhombic'
loop_
_space_group_symop_operation_xyz
x,y,z
-x,1/2-y,1/2+z
x,-y,-z
-x,1/2+y,1/2-z
-x,-y,-z
x,1/2+y,1/2-z
-x,y,z
x,1/2-y,1/2+z
1/2+x,1/2+y,z
1/2-x,-y,1/2+z
1/2+x,1/2-y,-z
1/2-x,y,1/2-z
1/2-x,1/2-y,-z
1/2+x,y,1/2-z
1/2-x,1/2+y,z
1/2+x,-y,1/2+z
loop_
_atom_site_type_symbol
_atom_site_label
_atom_site_fract_x
_atom_site_fract_y
_atom_site_fract_z
Si Si1 0.753813 0.151681 0.478716
Si Si2 0.759873 0.084598 0.591602
Si Si3 0.282448 0.785458 0.626336
Si Si4 0.099227 0.438070 0.330474
Si Si5 0.903397 0.766307 0.679343
Si Si6 0.346810 0.886078 0.726552
Si Si7 0.596284 0.454463 0.557367
O O1 0.750000 0.250000 0.500000
O O2 0.733887 0.092129 0.529660
O O3 0.699453 0.153184 0.424789
O O4 0.851728 0.133005 0.458939
O O5 0.794348 0.181566 0.610830
O O6 0.676565 0.058599 0.626395
O O7 0.838331 0.013432 0.592639
O O8 0.180099 0.789553 0.643527
O O9 0.335882 0.823108 0.675365
O O10 0.106989 0.338497 0.306010
O O11 0.113761 0.519560 0.290622
O O12 0.000000 0.444674 0.351828
O O13 0.897557 0.830785 0.729313
O O14 0.000000 0.774492 0.654818
O O15 0.250000 0.902054 0.750000
O O16 0.588481 0.500000 0.500000
O O17 0.500000 0.444658 0.579861
#
# Coordination Sequence:
#
# PCOD9478473 Si02
#       7
#    16  16  16  16  16  16  16
#     4   9  17  31  51  76 107 143 181 224 274 327
#     4   9  18  33  54  77 110 146 182 228 274 330
#     4   9  18  32  52  76 103 141 180 222 278 331
#     4  10  20  35  57  82 110 150 190 226 280 344
#     4   9  19  35  53  76 104 136 182 234 280 335
#     4  10  20  34  55  79 108 144 185 236 290 338
#     4   9  17  30  50  74 101 137 178 219 266 317
#
# _framework density 19.164213
#
# number of rings (size 3 to 8) (size 9 to 14) (size 15 to 20)
#    0.000    2.714    0.000    1.286    0.000    3.429 
#    0.000    3.571    0.000   24.429    0.000    0.000 
#    0.000    0.000    0.000    0.000    0.000    0.000 
#
# Total GULP energy -311771.015711 kJ/mol
# GULP energy per Si atom -5567.339566 kJ/mol
# Density = 1.912059 g / cm^3
# Si number density = 19.164213 Si / 1000 Ang^3
#
#
#
# Elastic Constant Matrix: (Units=GPa)
#
#
# Indices 1 2 3 4 5 6 
#
# 1 92.9341 42.8830 16.6085 0.0000 0.0000 0.0000
# 2 42.8830 107.9540 46.4610 0.0000 0.0000 0.0000
# 3 16.6085 46.4610 71.2464 0.0000 0.0000 0.0000
# 4 0.0000 0.0000 0.0000 35.0159 0.0000 0.0000
# 5 0.0000 0.0000 0.0000 0.0000 11.2655 0.0000
# 6 0.0000 0.0000 0.0000 0.0000 0.0000 -1.4856
#
#
#
# Elastic Compliance Matrix: (Units=1/GPa)
#
#
# Indices 1 2 3 4 5 6 
#
# 1 0.013187 -0.005443 0.000475 0.000000 0.000000 0.000000
# 2 -0.005443 0.015124 -0.008594 0.000000 0.000000 0.000000
# 3 0.000475 -0.008594 0.019529 0.000000 0.000000 0.000000
# 4 0.000000 0.000000 0.000000 0.028558 0.000000 0.000000
# 5 0.000000 0.000000 0.000000 0.000000 0.088767 0.000000
# 6 0.000000 0.000000 0.000000 0.000000 0.000000 -0.673124
#
#
# Mechanical properties :
#
#
# Convention : Reuss Voigt Hill
#
# Bulk Modulus (GPa) = 48.26867 53.78216 51.02542
# Shear Modulus (GPa) = -10.55006 20.03796 4.74395
#
# Velocity S-wave (km/s) = -2.34884 3.23707 1.57505
# Velocity P-wave (km/s) = 4.22913 6.48816 5.47639
#
# Compressibility (1/GPa) = 0.02071737
#
# Stress axis : x y z
#
# Youngs Moduli (GPa) = 75.83293 66.12083 51.20565
#
# Poissons Ratio (x) = 0.35989 -0.02434
# Poissons Ratio (y) = 0.41275 0.44005
# Poissons Ratio (z) = -0.03605 0.56822
#
# Static dielectric constant tensor:
#      x y z
#    x 1.663740 0.000000 0.000000 
#    y 0.000000 1.702420 0.000000 
#    z 0.000000 0.000000 1.698440 
# 
# From -- ./inp_files/45292.got.cif
#   From: 2010.05.17/outbox.cif.g08.bks.cpg/sg64_23_cif.got.tgz:45292.got - 2010.06.03 16:29:19.
