data_PCOD9478188
_publ_section_title
;
Structure prediction by ZEFSAII (Michael W. Deem and Ramdas Pophale) SiO2 
 PCOD9478188
Probable space group: C M C A
;
_chemical_formula_sum "Si O2"
_cell_formula_units_Z 60
_cell_length_a 17.470773
_cell_length_b 9.839598
_cell_length_c 14.609791
_cell_angle_alpha 90.000000
_cell_angle_beta 90.000000
_cell_angle_gamma 90.000000
_cell_volume 2511.501718
_symmetry_space_group_name_H-M "C M C A"
_symmetry_group_IT_number 64
_symmetry_cell_setting 'orthorhombic'
loop_
_space_group_symop_operation_xyz
x,y,z
-x,1/2-y,1/2+z
x,-y,-z
-x,1/2+y,1/2-z
-x,-y,-z
x,1/2+y,1/2-z
-x,y,z
x,1/2-y,1/2+z
1/2+x,1/2+y,z
1/2-x,-y,1/2+z
1/2+x,1/2-y,-z
1/2-x,y,1/2-z
1/2-x,1/2-y,-z
1/2+x,y,1/2-z
1/2-x,1/2+y,z
1/2+x,-y,1/2+z
loop_
_atom_site_type_symbol
_atom_site_label
_atom_site_fract_x
_atom_site_fract_y
_atom_site_fract_z
Si Si1 0.500000 0.000000 0.000000
Si Si2 0.158759 0.086641 0.078888
Si Si3 0.378277 0.857927 0.128567
Si Si4 0.750000 0.502342 0.250000
Si Si5 0.000000 0.542545 0.642205
Si Si6 0.000000 0.707250 0.245546
O O1 0.432661 0.961296 0.075821
O O2 0.147542 0.243750 0.054945
O O3 0.077501 0.009523 0.095299
O O4 0.203938 0.084418 0.173857
O O5 0.199244 0.000000 0.000000
O O6 0.310777 0.919486 0.189064
O O7 0.428275 0.768005 0.199478
O O8 0.000000 0.454198 0.737450
O O9 0.000000 0.706142 0.651925
#
# Coordination Sequence:
#
# PCOD9478188 Si02
#       6
#     4  16  16   8   8   8
#     4  10  24  50  72  96 142 192 252 294 348 446
#     4  11  25  45  70 103 142 184 243 296 364 435
#     4  10  23  46  67 103 139 189 242 294 364 432
#     4  12  24  44  72 106 150 186 230 308 374 434
#     4  10  19  41  66  97 128 183 237 297 347 430
#     4   9  18  39  65  93 132 178 247 284 349 435
#
# _framework density 23.890090000000001
#
# number of rings (size 3 to 8) (size 9 to 14) (size 15 to 20)
#    0.000    1.600    2.667    2.000    1.867    1.067 
#   14.400    0.000    0.000    0.000    0.000    0.000 
#    0.000    0.000    0.000    0.000    0.000    0.000 
#
# Total GULP energy -167037.803843 kJ/mol
# GULP energy per Si atom -5567.926795 kJ/mol
# Density = 2.383571 g / cm^3
# Si number density = 23.890090 Si / 1000 Ang^3
#
#
#
# Elastic Constant Matrix: (Units=GPa)
#
#
# Indices 1 2 3 4 5 6 
#
# 1 113.6738 24.8931 37.7400 0.0000 0.0000 0.0000
# 2 24.8931 75.2680 27.9673 0.0000 0.0000 0.0000
# 3 37.7400 27.9673 113.5082 0.0000 0.0000 0.0000
# 4 0.0000 0.0000 0.0000 26.6960 0.0000 0.0000
# 5 0.0000 0.0000 0.0000 0.0000 39.6789 0.0000
# 6 0.0000 0.0000 0.0000 0.0000 0.0000 71.3573
#
#
#
# Elastic Compliance Matrix: (Units=1/GPa)
#
#
# Indices 1 2 3 4 5 6 
#
# 1 0.010249 -0.002337 -0.002832 0.000000 0.000000 0.000000
# 2 -0.002337 0.015158 -0.002958 0.000000 0.000000 0.000000
# 3 -0.002832 -0.002958 0.010480 0.000000 0.000000 0.000000
# 4 0.000000 0.000000 0.000000 0.037459 0.000000 0.000000
# 5 0.000000 0.000000 0.000000 0.000000 0.025202 0.000000
# 6 0.000000 0.000000 0.000000 0.000000 0.000000 0.014014
#
#
# Mechanical properties :
#
#
# Convention : Reuss Voigt Hill
#
# Bulk Modulus (GPa) = 50.93320 53.73899 52.33609
# Shear Modulus (GPa) = 36.93841 41.66974 39.30408
#
# Velocity S-wave (km/s) = 3.93642 4.18093 4.06051
# Velocity P-wave (km/s) = 6.48279 6.77126 6.62859
#
# Compressibility (1/GPa) = 0.01963356
#
# Stress axis : x y z
#
# Youngs Moduli (GPa) = 97.56929 65.97232 95.41822
#
# Poissons Ratio (x) = 0.15421 0.27020
# Poissons Ratio (y) = 0.22806 0.28221
# Poissons Ratio (z) = 0.27629 0.19512
#
# Static dielectric constant tensor:
#      x y z
#    x 1.926990 0.000000 0.000000 
#    y 0.000000 2.006730 0.000000 
#    z 0.000000 0.000000 1.934520 
# 
# From -- ./inp_files/16846.got.cif
#   From: 2010.05.17/outbox.cif.g08.bks.cpg/sg64_9_cif.got.tgz:16846.got - 2010.06.03 16:29:19.
