data_PCOD9478535
_publ_section_title
;
Structure prediction by ZEFSAII (Michael W. Deem and Ramdas Pophale) SiO2 
 PCOD9478535
Probable space group: C M C A
;
_chemical_formula_sum "Si O2"
_cell_formula_units_Z 104
_cell_length_a 22.990500
_cell_length_b 28.343289
_cell_length_c 8.060611
_cell_angle_alpha 90.000000
_cell_angle_beta 90.000000
_cell_angle_gamma 90.000000
_cell_volume 5252.506813
_symmetry_space_group_name_H-M "C M C A"
_symmetry_group_IT_number 64
_symmetry_cell_setting 'orthorhombic'
loop_
_space_group_symop_operation_xyz
x,y,z
-x,1/2-y,1/2+z
x,-y,-z
-x,1/2+y,1/2-z
-x,-y,-z
x,1/2+y,1/2-z
-x,y,z
x,1/2-y,1/2+z
1/2+x,1/2+y,z
1/2-x,-y,1/2+z
1/2+x,1/2-y,-z
1/2-x,y,1/2-z
1/2-x,1/2-y,-z
1/2+x,y,1/2-z
1/2-x,1/2+y,z
1/2+x,-y,1/2+z
loop_
_atom_site_type_symbol
_atom_site_label
_atom_site_fract_x
_atom_site_fract_y
_atom_site_fract_z
Si Si1 0.683525 0.715281 0.219998
Si Si2 0.934210 0.623665 0.703966
Si Si3 0.314253 0.024168 0.318723
Si Si4 0.563842 0.511578 0.799755
Si Si5 0.750000 0.631676 0.750000
Si Si6 0.170303 0.620922 0.467405
Si Si7 0.353641 0.687854 0.580183
O O1 0.750000 0.731619 0.250000
O O2 0.688929 0.672362 0.091712
O O3 0.646878 0.759421 0.154778
O O4 0.654029 0.694190 0.384436
O O5 0.934881 0.567499 0.735009
O O6 0.893677 0.627315 0.541785
O O7 0.905008 0.655194 0.848186
O O8 0.000000 0.639154 0.674737
O O9 0.250000 0.014320 0.250000
O O10 0.322873 0.080630 0.332549
O O11 0.315678 0.000000 0.500000
O O12 0.374392 0.007261 0.232916
O O13 0.500000 0.493586 0.740397
O O14 0.563964 0.500000 0.000000
O O15 0.788545 0.603887 0.618327
O O16 0.704114 0.662836 0.650056
#
# Coordination Sequence:
#
# PCOD9478535 Si02
#       7
#    16  16  16  16   8  16  16
#     4  12  22  40  59  92 128 163 205 251 320 391
#     4  10  21  40  65  90 119 163 215 261 310 369
#     4  11  23  37  56  96 131 165 212 274 338 380
#     4   9  17  37  64  86 116 162 218 262 303 384
#     4  10  20  34  58  86 118 160 204 252 310 374
#     4  11  22  37  60  90 126 170 209 258 318 381
#     4  11  22  37  62  90 121 155 207 260 310 380
#
# _framework density 19.800068
#
# number of rings (size 3 to 8) (size 9 to 14) (size 15 to 20)
#    0.000    1.385    5.385    2.769    1.077    0.000 
#    0.000    3.846    0.000    0.462    0.000    0.000 
#    0.000    0.000    0.000    0.000    0.000    0.000 
#
# Total GULP energy -289940.658111 kJ/mol
# GULP energy per Si atom -5575.781887 kJ/mol
# Density = 1.975500 g / cm^3
# Si number density = 19.800068 Si / 1000 Ang^3
#
#
#
# Elastic Constant Matrix: (Units=GPa)
#
#
# Indices 1 2 3 4 5 6 
#
# 1 168.4240 32.8217 32.3515 0.0000 0.0000 0.0000
# 2 32.8217 86.0824 7.9796 0.0000 0.0000 0.0000
# 3 32.3515 7.9796 33.8195 0.0000 0.0000 0.0000
# 4 0.0000 0.0000 0.0000 10.3999 0.0000 0.0000
# 5 0.0000 0.0000 0.0000 0.0000 9.1102 0.0000
# 6 0.0000 0.0000 0.0000 0.0000 0.0000 37.1654
#
#
#
# Elastic Compliance Matrix: (Units=1/GPa)
#
#
# Indices 1 2 3 4 5 6 
#
# 1 0.007696 -0.002302 -0.006819 0.000000 0.000000 0.000000
# 2 -0.002302 0.012565 -0.000762 0.000000 0.000000 0.000000
# 3 -0.006819 -0.000762 0.036271 0.000000 0.000000 0.000000
# 4 0.000000 0.000000 0.000000 0.096154 0.000000 0.000000
# 5 0.000000 0.000000 0.000000 0.000000 0.109767 0.000000
# 6 0.000000 0.000000 0.000000 0.000000 0.000000 0.026907
#
#
# Mechanical properties :
#
#
# Convention : Reuss Voigt Hill
#
# Bulk Modulus (GPa) = 27.19916 48.29239 37.74577
# Shear Modulus (GPa) = 15.55781 25.67999 20.61890
#
# Velocity S-wave (km/s) = 2.80616 3.60525 3.23050
# Velocity P-wave (km/s) = 4.92606 6.46323 5.74628
#
# Compressibility (1/GPa) = 0.03676584
#
# Stress axis : x y z
#
# Youngs Moduli (GPa) = 129.94174 79.58466 27.57009
#
# Poissons Ratio (x) = 0.18322 0.18799
# Poissons Ratio (y) = 0.29915 0.02102
# Poissons Ratio (z) = 0.88601 0.06068
#
# Static dielectric constant tensor:
#      x y z
#    x 1.741080 0.000000 0.000000 
#    y 0.000000 1.713440 0.000000 
#    z 0.000000 0.000000 1.765500 
# 
# From -- ./inp_files/9764.got.cif
#   From: 2010.05.17/outbox.cif.g08.bks.cpg/sg64_5_cif.got.tgz:9764.got - 2010.06.03 16:29:19.
