data_PCOD9478838
_publ_section_title
;
Structure prediction by ZEFSAII (Michael W. Deem and Ramdas Pophale) SiO2 
 PCOD9478838
Probable space group: C M C A
;
_chemical_formula_sum "Si O2"
_cell_formula_units_Z 116
_cell_length_a 7.632691
_cell_length_b 30.355609
_cell_length_c 24.465924
_cell_angle_alpha 90.000000
_cell_angle_beta 90.000000
_cell_angle_gamma 90.000000
_cell_volume 5668.631860
_symmetry_space_group_name_H-M "C M C A"
_symmetry_group_IT_number 64
_symmetry_cell_setting 'orthorhombic'
loop_
_space_group_symop_operation_xyz
x,y,z
-x,1/2-y,1/2+z
x,-y,-z
-x,1/2+y,1/2-z
-x,-y,-z
x,1/2+y,1/2-z
-x,y,z
x,1/2-y,1/2+z
1/2+x,1/2+y,z
1/2-x,-y,1/2+z
1/2+x,1/2-y,-z
1/2-x,y,1/2-z
1/2-x,1/2-y,-z
1/2+x,y,1/2-z
1/2-x,1/2+y,z
1/2+x,-y,1/2+z
loop_
_atom_site_type_symbol
_atom_site_label
_atom_site_fract_x
_atom_site_fract_y
_atom_site_fract_z
Si Si1 0.209360 0.517089 0.313744
Si Si2 0.203757 0.200757 0.376212
Si Si3 0.209953 0.198678 0.495270
Si Si4 0.792108 0.141224 0.596815
Si Si5 0.208387 0.712427 0.685666
Si Si6 0.500000 0.000000 0.000000
Si Si7 0.205401 0.959482 0.083089
Si Si8 0.708408 0.885767 0.686368
O O1 0.250000 0.507820 0.250000
O O2 0.261933 0.482354 0.359530
O O3 0.276201 0.565870 0.330400
O O4 0.000000 0.519648 0.315562
O O5 0.280716 0.187926 0.435097
O O6 0.279992 0.243497 0.345123
O O7 0.212035 0.156981 0.340851
O O8 0.000000 0.211803 0.386232
O O9 0.250000 0.250000 0.500000
O O10 0.277846 0.171113 0.546550
O O11 0.000000 0.192217 0.496427
O O12 0.764848 0.169247 0.652110
O O13 0.711706 0.092941 0.592874
O O14 0.000000 0.135346 0.590487
O O15 0.250000 0.712121 0.750000
O O16 0.000000 0.714300 0.682253
O O17 0.343387 0.024715 0.962714
O O18 0.000000 0.971594 0.071402
O O19 0.500000 0.883928 0.677432
O O20 0.750000 0.883260 0.750000
#
# Coordination Sequence:
#
# PCOD9478838 Si02
#       8
#    16  16  16  16  16   4  16  16
#     4   9  21  40  66  97 129 171 220 279 346 411
#     4  10  21  37  57  87 123 166 215 262 319 385
#     4  10  21  38  61  89 124 166 213 261 316 381
#     4  11  23  42  66  97 132 171 221 270 332 402
#     4  11  23  39  61  89 127 172 217 271 331 391
#     4  12  26  48  72 102 140 180 230 282 344 406
#     4  11  25  47  72 102 140 182 227 285 349 415
#     4  10  20  36  57  88 124 162 209 261 321 385
#
# _framework density 20.463491999999999
#
# number of rings (size 3 to 8) (size 9 to 14) (size 15 to 20)
#    0.000    1.655    2.069    1.862    0.966    5.517 
#    2.483    2.759    0.000    0.000    0.000    0.000 
#    0.000    0.000    0.000    0.000    0.000    0.000 
#
# Total GULP energy -323059.027182 kJ/mol
# GULP energy per Si atom -5569.983227 kJ/mol
# Density = 2.041692 g / cm^3
# Si number density = 20.463492 Si / 1000 Ang^3
#
#
#
# Elastic Constant Matrix: (Units=GPa)
#
#
# Indices 1 2 3 4 5 6 
#
# 1 84.5437 7.0551 15.2797 0.0000 0.0000 0.0000
# 2 7.0551 130.4076 77.8931 0.0000 0.0000 0.0000
# 3 15.2797 77.8931 104.6175 0.0000 0.0000 0.0000
# 4 0.0000 0.0000 0.0000 26.8075 0.0000 0.0000
# 5 0.0000 0.0000 0.0000 0.0000 8.4894 0.0000
# 6 0.0000 0.0000 0.0000 0.0000 0.0000 23.3505
#
#
#
# Elastic Compliance Matrix: (Units=1/GPa)
#
#
# Indices 1 2 3 4 5 6 
#
# 1 0.012187 0.000727 -0.002321 0.000000 0.000000 0.000000
# 2 0.000727 0.013853 -0.010421 0.000000 0.000000 0.000000
# 3 -0.002321 -0.010421 0.017656 0.000000 0.000000 0.000000
# 4 0.000000 0.000000 0.000000 0.037303 0.000000 0.000000
# 5 0.000000 0.000000 0.000000 0.000000 0.117793 0.000000
# 6 0.000000 0.000000 0.000000 0.000000 0.000000 0.042826
#
#
# Mechanical properties :
#
#
# Convention : Reuss Voigt Hill
#
# Bulk Modulus (GPa) = 50.84651 57.78054 54.31352
# Shear Modulus (GPa) = 18.36857 26.35221 22.36039
#
# Velocity S-wave (km/s) = 2.99929 3.59244 3.30918
# Velocity P-wave (km/s) = 6.07418 6.74572 6.41874
#
# Compressibility (1/GPa) = 0.01966703
#
# Stress axis : x y z
#
# Youngs Moduli (GPa) = 82.05415 72.18528 56.63664
#
# Poissons Ratio (x) = -0.05250 0.13148
# Poissons Ratio (y) = -0.05968 0.59019
# Poissons Ratio (z) = 0.19049 0.75222
#
# Static dielectric constant tensor:
#      x y z
#    x 1.765170 0.000000 0.000000 
#    y 0.000000 1.762350 0.000000 
#    z 0.000000 0.000000 1.828730 
# 
# From -- ./inp_files/43374.got.cif
#   From: 2010.05.17/outbox.cif.g08.bks.cpg/sg64_22_cif.got.tgz:43374.got - 2010.06.03 16:29:19.
