data_PCOD9478017
_publ_section_title
;
Structure prediction by ZEFSAII (Michael W. Deem and Ramdas Pophale) SiO2 
 PCOD9478017
Probable space group: C M C A
;
_chemical_formula_sum "Si O2"
_cell_formula_units_Z 88
_cell_length_a 30.844118
_cell_length_b 15.957254
_cell_length_c 8.725761
_cell_angle_alpha 90.000000
_cell_angle_beta 90.000000
_cell_angle_gamma 90.000000
_cell_volume 4294.709841
_symmetry_space_group_name_H-M "C M C A"
_symmetry_group_IT_number 64
_symmetry_cell_setting 'orthorhombic'
loop_
_space_group_symop_operation_xyz
x,y,z
-x,1/2-y,1/2+z
x,-y,-z
-x,1/2+y,1/2-z
-x,-y,-z
x,1/2+y,1/2-z
-x,y,z
x,1/2-y,1/2+z
1/2+x,1/2+y,z
1/2-x,-y,1/2+z
1/2+x,1/2-y,-z
1/2-x,y,1/2-z
1/2-x,1/2-y,-z
1/2+x,y,1/2-z
1/2-x,1/2+y,z
1/2+x,-y,1/2+z
loop_
_atom_site_type_symbol
_atom_site_label
_atom_site_fract_x
_atom_site_fract_y
_atom_site_fract_z
Si Si1 0.582580 0.940856 0.638527
Si Si2 0.191659 0.173816 0.517419
Si Si3 0.048941 0.367580 0.937993
Si Si4 0.250000 0.719484 0.250000
Si Si5 0.890334 0.211620 0.932878
Si Si6 0.622539 0.921148 0.168248
O O1 0.550570 0.912120 0.772502
O O2 0.601719 0.857174 0.563999
O O3 0.565458 0.000000 0.500000
O O4 0.618185 0.997074 0.727132
O O5 0.218651 0.220843 0.649763
O O6 0.222553 0.165545 0.370922
O O7 0.151949 0.233777 0.467097
O O8 0.167555 0.091984 0.581016
O O9 0.069089 0.274533 0.920788
O O10 0.000000 0.366614 0.997043
O O11 0.082275 0.413660 0.051849
O O12 0.883160 0.158955 0.779192
#
# Coordination Sequence:
#
# PCOD9478017 Si02
#       6
#    16  16  16   8  16  16
#     4  10  23  40  61  91 121 170 203 256 323 377
#     4  10  19  36  59  98 125 164 214 257 313 374
#     4  11  23  39  61  91 123 163 213 263 312 375
#     4  10  20  32  62  98 128 162 214 268 304 370
#     4  10  21  39  63  90 121 164 215 259 309 378
#     4  10  21  38  59  89 127 169 205 259 314 383
#
# _framework density 20.490324999999999
#
# number of rings (size 3 to 8) (size 9 to 14) (size 15 to 20)
#    0.000    1.818    1.818    2.727    2.545    4.727 
#    0.000    3.636    0.000    1.091    4.727    0.000 
#    0.000    0.000    0.000    0.000    0.000    0.000 
#
# Total GULP energy -245803.009249 kJ/mol
# GULP energy per Si atom -5586.432028 kJ/mol
# Density = 2.044369 g / cm^3
# Si number density = 20.490325 Si / 1000 Ang^3
#
#
#
# Elastic Constant Matrix: (Units=GPa)
#
#
# Indices 1 2 3 4 5 6 
#
# 1 110.5334 21.1185 45.5940 0.0000 0.0000 0.0000
# 2 21.1185 98.2016 34.2849 0.0000 0.0000 0.0000
# 3 45.5940 34.2849 124.8755 0.0000 0.0000 0.0000
# 4 0.0000 0.0000 0.0000 32.8056 0.0000 0.0000
# 5 0.0000 0.0000 0.0000 0.0000 16.9066 0.0000
# 6 0.0000 0.0000 0.0000 0.0000 0.0000 -32.2334
#
#
#
# Elastic Compliance Matrix: (Units=1/GPa)
#
#
# Indices 1 2 3 4 5 6 
#
# 1 0.010747 -0.001041 -0.003638 0.000000 0.000000 0.000000
# 2 -0.001041 0.011364 -0.002740 0.000000 0.000000 0.000000
# 3 -0.003638 -0.002740 0.010088 0.000000 0.000000 0.000000
# 4 0.000000 0.000000 0.000000 0.030483 0.000000 0.000000
# 5 0.000000 0.000000 0.000000 0.000000 0.059148 0.000000
# 6 0.000000 0.000000 0.000000 0.000000 0.000000 -0.031024
#
#
# Mechanical properties :
#
#
# Convention : Reuss Voigt Hill
#
# Bulk Modulus (GPa) = 57.59999 59.51170 58.55584
# Shear Modulus (GPa) = 44.87111 19.00331 31.93721
#
# Velocity S-wave (km/s) = 4.68468 3.04867 3.95226
# Velocity P-wave (km/s) = 7.57849 6.44200 7.03324
#
# Compressibility (1/GPa) = 0.01736112
#
# Stress axis : x y z
#
# Youngs Moduli (GPa) = 93.05319 88.00074 99.12317
#
# Poissons Ratio (x) = 0.09161 0.36060
# Poissons Ratio (y) = 0.09687 0.27158
# Poissons Ratio (z) = 0.33852 0.24111
#
# Static dielectric constant tensor:
#      x y z
#    x 1.691450 0.000000 0.000000 
#    y 0.000000 1.738010 0.000000 
#    z 0.000000 0.000000 1.771480 
# 
# From -- ./inp_files/11056.got.cif
#   From: 2010.05.17/outbox.cif.g08.bks.cpg/sg64_6_cif.got.tgz:11056.got - 2010.06.03 16:29:19.
