data_PCOD9478155
_publ_section_title
;
Structure prediction by ZEFSAII (Michael W. Deem and Ramdas Pophale) SiO2 
 PCOD9478155
Probable space group: C M C A
;
_chemical_formula_sum "Si O2"
_cell_formula_units_Z 60
_cell_length_a 9.614025
_cell_length_b 14.345654
_cell_length_c 19.484253
_cell_angle_alpha 90.000000
_cell_angle_beta 90.000000
_cell_angle_gamma 90.000000
_cell_volume 2687.257968
_symmetry_space_group_name_H-M "C M C A"
_symmetry_group_IT_number 64
_symmetry_cell_setting 'orthorhombic'
loop_
_space_group_symop_operation_xyz
x,y,z
-x,1/2-y,1/2+z
x,-y,-z
-x,1/2+y,1/2-z
-x,-y,-z
x,1/2+y,1/2-z
-x,y,z
x,1/2-y,1/2+z
1/2+x,1/2+y,z
1/2-x,-y,1/2+z
1/2+x,1/2-y,-z
1/2-x,y,1/2-z
1/2-x,1/2-y,-z
1/2+x,y,1/2-z
1/2-x,1/2+y,z
1/2+x,-y,1/2+z
loop_
_atom_site_type_symbol
_atom_site_label
_atom_site_fract_x
_atom_site_fract_y
_atom_site_fract_z
Si Si1 0.000000 0.678714 0.137393
Si Si2 0.281207 0.856062 0.977288
Si Si3 0.250000 0.841923 0.250000
Si Si4 0.500000 0.395487 0.160315
Si Si5 0.000000 0.500000 0.000000
Si Si6 0.500000 0.212173 0.292828
Si Si7 0.000000 0.576239 0.422914
O O1 0.131462 0.642728 0.094580
O O2 0.000000 0.660103 0.218459
O O3 0.000000 0.790371 0.132296
O O4 0.134561 0.900759 0.965487
O O5 0.250000 0.750000 0.000000
O O6 0.378645 0.922798 0.022535
O O7 0.357471 0.900861 0.295582
O O8 0.359446 0.775576 0.208726
O O9 0.500000 0.472744 0.104199
O O10 0.500000 0.143750 0.356192
#
# Coordination Sequence:
#
# PCOD9478155 Si02
#       7
#     8  16   8   8   4   8   8
#     4   9  21  43  66  92 141 181 220 284 349 408
#     4  11  25  46  70 100 134 185 234 292 349 413
#     4   8  18  38  56  84 138 178 210 260 334 408
#     4  10  21  35  59  96 128 175 219 272 331 409
#     4  10  26  50  68  98 134 178 230 292 358 412
#     4  10  19  39  65  94 131 178 220 271 349 418
#     4  12  24  37  70 102 125 174 227 285 345 421
#
# _framework density 22.327591999999999
#
# number of rings (size 3 to 8) (size 9 to 14) (size 15 to 20)
#    0.000    2.133    0.000    4.800    3.733    3.733 
#    4.800    2.667    0.000    0.000    0.000    0.000 
#    0.000    0.000    0.000    0.000    0.000    0.000 
#
# Total GULP energy -167104.088428 kJ/mol
# GULP energy per Si atom -5570.136281 kJ/mol
# Density = 2.227677 g / cm^3
# Si number density = 22.327592 Si / 1000 Ang^3
#
#
#
# Elastic Constant Matrix: (Units=GPa)
#
#
# Indices 1 2 3 4 5 6 
#
# 1 235.3689 44.4517 53.8393 0.0000 0.0000 0.0000
# 2 44.4517 84.5615 23.8115 0.0000 0.0000 0.0000
# 3 53.8393 23.8115 66.7855 0.0000 0.0000 0.0000
# 4 0.0000 0.0000 0.0000 49.4178 0.0000 0.0000
# 5 0.0000 0.0000 0.0000 0.0000 31.5583 0.0000
# 6 0.0000 0.0000 0.0000 0.0000 0.0000 52.4107
#
#
#
# Elastic Compliance Matrix: (Units=1/GPa)
#
#
# Indices 1 2 3 4 5 6 
#
# 1 0.005447 -0.001808 -0.003746 0.000000 0.000000 0.000000
# 2 -0.001808 0.013746 -0.003443 0.000000 0.000000 0.000000
# 3 -0.003746 -0.003443 0.019221 0.000000 0.000000 0.000000
# 4 0.000000 0.000000 0.000000 0.020236 0.000000 0.000000
# 5 0.000000 0.000000 0.000000 0.000000 0.031687 0.000000
# 6 0.000000 0.000000 0.000000 0.000000 0.000000 0.019080
#
#
# Mechanical properties :
#
#
# Convention : Reuss Voigt Hill
#
# Bulk Modulus (GPa) = 48.97579 70.10232 59.53905
# Shear Modulus (GPa) = 37.25248 44.31825 40.78537
#
# Velocity S-wave (km/s) = 4.08910 4.46007 4.27860
# Velocity P-wave (km/s) = 6.65410 7.61500 7.15071
#
# Compressibility (1/GPa) = 0.02041825
#
# Stress axis : x y z
#
# Youngs Moduli (GPa) = 183.58127 72.74905 52.02621
#
# Poissons Ratio (x) = 0.13156 0.19491
# Poissons Ratio (y) = 0.33200 0.17913
# Poissons Ratio (z) = 0.68778 0.25048
#
# Static dielectric constant tensor:
#      x y z
#    x 1.802700 0.000000 0.000000 
#    y 0.000000 1.900660 0.000000 
#    z 0.000000 0.000000 1.960430 
# 
# From -- ./inp_files/42459.got.cif
#   From: 2010.05.17/outbox.cif.g08.bks.cpg/sg64_22_cif.got.tgz:42459.got - 2010.06.03 16:29:19.
