data_PCOD9478586
_publ_section_title
;
Structure prediction by ZEFSAII (Michael W. Deem and Ramdas Pophale) SiO2 
 PCOD9478586
Probable space group: C M C A
;
_chemical_formula_sum "Si O2"
_cell_formula_units_Z 80
_cell_length_a 7.417147
_cell_length_b 33.095190
_cell_length_c 13.223419
_cell_angle_alpha 90.000000
_cell_angle_beta 90.000000
_cell_angle_gamma 90.000000
_cell_volume 3245.977644
_symmetry_space_group_name_H-M "C M C A"
_symmetry_group_IT_number 64
_symmetry_cell_setting 'orthorhombic'
loop_
_space_group_symop_operation_xyz
x,y,z
-x,1/2-y,1/2+z
x,-y,-z
-x,1/2+y,1/2-z
-x,-y,-z
x,1/2+y,1/2-z
-x,y,z
x,1/2-y,1/2+z
1/2+x,1/2+y,z
1/2-x,-y,1/2+z
1/2+x,1/2-y,-z
1/2-x,y,1/2-z
1/2-x,1/2-y,-z
1/2+x,y,1/2-z
1/2-x,1/2+y,z
1/2+x,-y,1/2+z
loop_
_atom_site_type_symbol
_atom_site_label
_atom_site_fract_x
_atom_site_fract_y
_atom_site_fract_z
Si Si1 0.214884 0.932062 0.632474
Si Si2 0.206735 0.193194 0.585556
Si Si3 0.285359 0.479588 0.368502
Si Si4 0.714785 0.718895 0.136750
Si Si5 0.720641 0.892235 0.060033
O O1 0.250000 0.925447 0.750000
O O2 0.275626 0.897061 0.557503
O O3 0.000000 0.934374 0.622656
O O4 0.282420 0.976310 0.594555
O O5 0.208580 0.197221 0.462820
O O6 0.285836 0.234674 0.628879
O O7 0.287510 0.149301 0.608215
O O8 0.000000 0.192712 0.620498
O O9 0.500000 0.478655 0.389561
O O10 0.250000 0.483730 0.250000
O O11 0.217893 0.434983 0.395044
O O12 0.500000 0.719382 0.121458
O O13 0.750000 0.703118 0.250000
O O14 0.500000 0.890748 0.065901
#
# Coordination Sequence:
#
# PCOD9478586 Si02
#       5
#    16  16  16  16  16
#     4   9  17  30  48  69  95 128 164 199 235 279
#     4   9  19  35  53  75 100 126 162 204 243 289
#     4   9  17  30  48  70  96 128 164 198 235 280
#     4  10  20  35  55  75  98 129 161 197 244 296
#     4   9  17  31  51  72  96 127 161 197 238 284
#
# _framework density 24.645886999999998
#
# number of rings (size 3 to 8) (size 9 to 14) (size 15 to 20)
#    0.000    2.800    0.000    1.200    0.000    4.800 
#    0.000    5.000    0.000    4.800    0.000    0.000 
#    0.000    0.000    0.000    0.000    0.000    0.000 
#
# Total GULP energy -223152.827692 kJ/mol
# GULP energy per Si atom -5578.820692 kJ/mol
# Density = 2.458979 g / cm^3
# Si number density = 24.645887 Si / 1000 Ang^3
#
#
#
# Elastic Constant Matrix: (Units=GPa)
#
#
# Indices 1 2 3 4 5 6 
#
# 1 89.4251 -0.4716 -14.2530 0.0000 0.0000 0.0000
# 2 -0.4716 99.4974 -25.1782 0.0000 0.0000 0.0000
# 3 -14.2530 -25.1782 29.1719 0.0000 0.0000 0.0000
# 4 0.0000 0.0000 0.0000 8.9188 0.0000 0.0000
# 5 0.0000 0.0000 0.0000 0.0000 12.3533 0.0000
# 6 0.0000 0.0000 0.0000 0.0000 0.0000 3.0085
#
#
#
# Elastic Compliance Matrix: (Units=1/GPa)
#
#
# Indices 1 2 3 4 5 6 
#
# 1 0.012444 0.002044 0.007844 0.000000 0.000000 0.000000
# 2 0.002044 0.013195 0.012387 0.000000 0.000000 0.000000
# 3 0.007844 0.012387 0.048803 0.000000 0.000000 0.000000
# 4 0.000000 0.000000 0.000000 0.112122 0.000000 0.000000
# 5 0.000000 0.000000 0.000000 0.000000 0.080950 0.000000
# 6 0.000000 0.000000 0.000000 0.000000 0.000000 0.332394
#
#
# Mechanical properties :
#
#
# Convention : Reuss Voigt Hill
#
# Bulk Modulus (GPa) = 8.40401 15.36543 11.88472
# Shear Modulus (GPa) = 8.40306 22.05593 15.22950
#
# Velocity S-wave (km/s) = 1.84849 2.99476 2.48852
# Velocity P-wave (km/s) = 2.82369 4.26686 3.61796
#
# Compressibility (1/GPa) = 0.11899085
#
# Stress axis : x y z
#
# Youngs Moduli (GPa) = 80.36324 75.78753 20.49047
#
# Poissons Ratio (x) = -0.15490 -0.16072
# Poissons Ratio (y) = -0.16425 -0.25382
# Poissons Ratio (z) = -0.63035 -0.93878
#
# Static dielectric constant tensor:
#      x y z
#    x 1.917050 0.000000 0.000000 
#    y 0.000000 1.971690 0.000000 
#    z 0.000000 0.000000 1.963870 
# 
# From -- ./inp_files/13194.got.cif
#   From: 2010.05.17/outbox.cif.g08.bks.cpg/sg64_7_cif.got.tgz:13194.got - 2010.06.03 16:29:19.
