data_PCOD9478275
_publ_section_title
;
Structure prediction by ZEFSAII (Michael W. Deem and Ramdas Pophale) SiO2 
 PCOD9478275
Probable space group: C M C A
;
_chemical_formula_sum "Si O2"
_cell_formula_units_Z 48
_cell_length_a 22.802083
_cell_length_b 18.311787
_cell_length_c 5.056149
_cell_angle_alpha 90.000000
_cell_angle_beta 90.000000
_cell_angle_gamma 90.000000
_cell_volume 2111.179275
_symmetry_space_group_name_H-M "C M C A"
_symmetry_group_IT_number 64
_symmetry_cell_setting 'orthorhombic'
loop_
_space_group_symop_operation_xyz
x,y,z
-x,1/2-y,1/2+z
x,-y,-z
-x,1/2+y,1/2-z
-x,-y,-z
x,1/2+y,1/2-z
-x,y,z
x,1/2-y,1/2+z
1/2+x,1/2+y,z
1/2-x,-y,1/2+z
1/2+x,1/2-y,-z
1/2-x,y,1/2-z
1/2-x,1/2-y,-z
1/2+x,y,1/2-z
1/2-x,1/2+y,z
1/2+x,-y,1/2+z
loop_
_atom_site_type_symbol
_atom_site_label
_atom_site_fract_x
_atom_site_fract_y
_atom_site_fract_z
Si Si1 0.000000 0.447715 0.255969
Si Si2 0.068034 0.198643 0.343674
Si Si3 0.211133 0.000000 0.000000
Si Si4 0.124230 0.578975 0.858453
O O1 0.000000 0.500000 0.500000
O O2 0.061215 0.406802 0.275177
O O3 0.000000 0.500000 0.000000
O O4 0.073513 0.239160 0.066716
O O5 0.118873 0.140136 0.414517
O O6 0.000000 0.168630 0.356281
O O7 0.250000 0.973515 0.750000
O O8 0.172726 0.064907 0.866089
O O9 0.123253 0.500000 0.000000
#
# Coordination Sequence:
#
# PCOD9478275 Si02
#       4
#     8  16   8  16
#     4  10  20  32  56  98 124 152 201 255 326 380
#     4  10  23  39  60  97 143 174 201 253 331 407
#     4  12  26  43  64  97 126 168 228 290 326 358
#     4  11  23  41  69  97 131 172 218 272 323 395
#
# _framework density 22.736108999999999
#
# number of rings (size 3 to 8) (size 9 to 14) (size 15 to 20)
#    0.000    1.333    5.000    0.000    4.667    0.000 
#    0.000    0.000    0.000    6.000    0.000    0.000 
#    0.000    0.000    0.000    0.000    0.000    0.000 
#
# Total GULP energy -133881.821573 kJ/mol
# GULP energy per Si atom -5578.409232 kJ/mol
# Density = 2.268436 g / cm^3
# Si number density = 22.736109 Si / 1000 Ang^3
#
#
#
# Elastic Constant Matrix: (Units=GPa)
#
#
# Indices 1 2 3 4 5 6 
#
# 1 99.9708 23.3140 35.3662 0.0000 0.0000 0.0000
# 2 23.3140 114.5411 41.5041 0.0000 0.0000 0.0000
# 3 35.3662 41.5041 143.4009 0.0000 0.0000 0.0000
# 4 0.0000 0.0000 0.0000 38.7979 0.0000 0.0000
# 5 0.0000 0.0000 0.0000 0.0000 33.7797 0.0000
# 6 0.0000 0.0000 0.0000 0.0000 0.0000 8.5051
#
#
#
# Elastic Compliance Matrix: (Units=1/GPa)
#
#
# Indices 1 2 3 4 5 6 
#
# 1 0.011163 -0.001424 -0.002341 0.000000 0.000000 0.000000
# 2 -0.001424 0.009935 -0.002524 0.000000 0.000000 0.000000
# 3 -0.002341 -0.002524 0.008281 0.000000 0.000000 0.000000
# 4 0.000000 0.000000 0.000000 0.025775 0.000000 0.000000
# 5 0.000000 0.000000 0.000000 0.000000 0.029604 0.000000
# 6 0.000000 0.000000 0.000000 0.000000 0.000000 0.117577
#
#
# Mechanical properties :
#
#
# Convention : Reuss Voigt Hill
#
# Bulk Modulus (GPa) = 59.51968 62.03127 60.77548
# Shear Modulus (GPa) = 22.67434 33.39844 28.03639
#
# Velocity S-wave (km/s) = 3.16141 3.83686 3.51539
# Velocity P-wave (km/s) = 6.28978 6.85354 6.57770
#
# Compressibility (1/GPa) = 0.01680116
#
# Stress axis : x y z
#
# Youngs Moduli (GPa) = 89.58047 100.65434 120.75251
#
# Poissons Ratio (x) = 0.14332 0.28268
# Poissons Ratio (y) = 0.12756 0.30481
# Poissons Ratio (z) = 0.20971 0.25408
#
# Static dielectric constant tensor:
#      x y z
#    x 1.945030 0.000000 0.000000 
#    y 0.000000 1.898450 0.000000 
#    z 0.000000 0.000000 1.938510 
# 
# From -- ./inp_files/2059.got.cif
#   From: 2010.05.17/outbox.cif.g08.bks.cpg/sg64_2_cif.got.tgz:2059.got - 2010.06.03 16:29:19.
