data_PCOD9478980
_publ_section_title
;
Structure prediction by ZEFSAII (Michael W. Deem and Ramdas Pophale) SiO2 
 PCOD9478980
Probable space group: C M C A
;
_chemical_formula_sum "Si O2"
_cell_formula_units_Z 88
_cell_length_a 26.400298
_cell_length_b 29.160975
_cell_length_c 5.247072
_cell_angle_alpha 90.000000
_cell_angle_beta 90.000000
_cell_angle_gamma 90.000000
_cell_volume 4039.502612
_symmetry_space_group_name_H-M "C M C A"
_symmetry_group_IT_number 64
_symmetry_cell_setting 'orthorhombic'
loop_
_space_group_symop_operation_xyz
x,y,z
-x,1/2-y,1/2+z
x,-y,-z
-x,1/2+y,1/2-z
-x,-y,-z
x,1/2+y,1/2-z
-x,y,z
x,1/2-y,1/2+z
1/2+x,1/2+y,z
1/2-x,-y,1/2+z
1/2+x,1/2-y,-z
1/2-x,y,1/2-z
1/2-x,1/2-y,-z
1/2+x,y,1/2-z
1/2-x,1/2+y,z
1/2+x,-y,1/2+z
loop_
_atom_site_type_symbol
_atom_site_label
_atom_site_fract_x
_atom_site_fract_y
_atom_site_fract_z
Si Si1 0.366787 0.089304 0.269939
Si Si2 0.056009 0.153178 0.986696
Si Si3 0.636942 0.221238 0.688799
Si Si4 0.410139 0.500000 0.000000
Si Si5 0.719431 0.148471 0.494183
Si Si6 0.554232 0.434167 0.386076
O O1 0.405037 0.132452 0.309046
O O2 0.377625 0.044530 0.437243
O O3 0.312749 0.108727 0.350653
O O4 0.389923 0.070725 0.007647
O O5 0.083595 0.195583 0.854324
O O6 0.051794 0.110017 0.797070
O O7 0.000000 0.164459 0.083135
O O8 0.641113 0.261140 0.476857
O O9 0.680522 0.185183 0.613350
O O10 0.444060 0.481392 0.229655
O O11 0.750000 0.168850 0.250000
O O12 0.750000 0.133043 0.750000
O O13 0.500000 0.431995 0.536074
#
# Coordination Sequence:
#
# PCOD9478980 Si02
#       6
#    16  16  16   8  16  16
#     4  10  22  38  64  89 129 170 221 270 328 386
#     4   9  21  38  60  90 131 175 215 256 316 392
#     4  11  25  42  67  98 131 162 212 271 329 394
#     4  10  21  36  58  94 138 168 218 274 323 378
#     4  11  26  45  71  95 125 168 219 277 342 400
#     4  10  20  36  62  95 133 181 222 262 319 390
#
# _framework density 21.784859999999998
#
# number of rings (size 3 to 8) (size 9 to 14) (size 15 to 20)
#    0.000    1.818    0.000    2.455   12.727    5.818 
#    0.000    0.909    0.000    0.000    0.000    0.000 
#    0.000    0.000    0.000    0.000    0.000    0.000 
#
# Total GULP energy -245021.697995 kJ/mol
# GULP energy per Si atom -5568.674954 kJ/mol
# Density = 2.173528 g / cm^3
# Si number density = 21.784860 Si / 1000 Ang^3
#
#
#
# Elastic Constant Matrix: (Units=GPa)
#
#
# Indices 1 2 3 4 5 6 
#
# 1 98.2277 24.2322 20.0125 0.0000 0.0000 0.0000
# 2 24.2322 56.8948 -0.2394 0.0000 0.0000 0.0000
# 3 20.0125 -0.2394 75.9893 0.0000 0.0000 0.0000
# 4 0.0000 0.0000 0.0000 31.3555 0.0000 0.0000
# 5 0.0000 0.0000 0.0000 0.0000 24.9573 0.0000
# 6 0.0000 0.0000 0.0000 0.0000 0.0000 40.3990
#
#
#
# Elastic Compliance Matrix: (Units=1/GPa)
#
#
# Indices 1 2 3 4 5 6 
#
# 1 0.012109 -0.005171 -0.003205 0.000000 0.000000 0.000000
# 2 -0.005171 0.019785 0.001424 0.000000 0.000000 0.000000
# 3 -0.003205 0.001424 0.014008 0.000000 0.000000 0.000000
# 4 0.000000 0.000000 0.000000 0.031892 0.000000 0.000000
# 5 0.000000 0.000000 0.000000 0.000000 0.040068 0.000000
# 6 0.000000 0.000000 0.000000 0.000000 0.000000 0.024753
#
#
# Mechanical properties :
#
#
# Convention : Reuss Voigt Hill
#
# Bulk Modulus (GPa) = 31.25203 35.45805 33.35504
# Shear Modulus (GPa) = 29.90679 31.81613 30.86146
#
# Velocity S-wave (km/s) = 3.70918 3.82576 3.76792
# Velocity P-wave (km/s) = 5.72022 5.98557 5.85440
#
# Compressibility (1/GPa) = 0.03199792
#
# Stress axis : x y z
#
# Youngs Moduli (GPa) = 82.58252 50.54425 71.38584
#
# Poissons Ratio (x) = 0.26136 0.22882
# Poissons Ratio (y) = 0.42703 -0.10166
# Poissons Ratio (z) = 0.26470 -0.07198
#
# Static dielectric constant tensor:
#      x y z
#    x 1.970840 0.000000 0.000000 
#    y 0.000000 1.775180 0.000000 
#    z 0.000000 0.000000 1.936140 
# 
# From -- ./inp_files/2442.got.cif
#   From: 2010.05.17/outbox.cif.g08.bks.cpg/sg64_2_cif.got.tgz:2442.got - 2010.06.03 16:29:19.
