data_PCOD9478479
_publ_section_title
;
Structure prediction by ZEFSAII (Michael W. Deem and Ramdas Pophale) SiO2 
 PCOD9478479
Probable space group: C M C A
;
_chemical_formula_sum "Si O2"
_cell_formula_units_Z 96
_cell_length_a 16.222421
_cell_length_b 15.340751
_cell_length_c 17.429621
_cell_angle_alpha 90.000000
_cell_angle_beta 90.000000
_cell_angle_gamma 90.000000
_cell_volume 4337.607313
_symmetry_space_group_name_H-M "C M C A"
_symmetry_group_IT_number 64
_symmetry_cell_setting 'orthorhombic'
loop_
_space_group_symop_operation_xyz
x,y,z
-x,1/2-y,1/2+z
x,-y,-z
-x,1/2+y,1/2-z
-x,-y,-z
x,1/2+y,1/2-z
-x,y,z
x,1/2-y,1/2+z
1/2+x,1/2+y,z
1/2-x,-y,1/2+z
1/2+x,1/2-y,-z
1/2-x,y,1/2-z
1/2-x,1/2-y,-z
1/2+x,y,1/2-z
1/2-x,1/2+y,z
1/2+x,-y,1/2+z
loop_
_atom_site_type_symbol
_atom_site_label
_atom_site_fract_x
_atom_site_fract_y
_atom_site_fract_z
Si Si1 0.596807 0.025512 0.784904
Si Si2 0.193271 0.816223 0.319991
Si Si3 0.404000 0.171311 0.224676
Si Si4 0.675703 0.221181 0.073304
Si Si5 0.095975 0.519301 0.608235
Si Si6 0.326452 0.128041 0.473691
O O1 0.500000 0.020314 0.804439
O O2 0.638880 0.098875 0.836782
O O3 0.602789 0.051660 0.694965
O O4 0.630982 0.926982 0.782984
O O5 0.250000 0.847018 0.250000
O O6 0.141730 0.735750 0.283395
O O7 0.253718 0.779309 0.384273
O O8 0.500000 0.166260 0.245560
O O9 0.391587 0.206970 0.138292
O O10 0.730125 0.138208 0.047353
O O11 0.644436 0.276014 0.000746
O O12 0.124861 0.419552 0.594717
O O13 0.152166 0.572375 0.549428
O O14 0.000000 0.527257 0.586589
#
# Coordination Sequence:
#
# PCOD9478479 Si02
#       6
#    16  16  16  16  16  16
#     4  10  21  36  56  83 112 142 180 228 281 330
#     4  10  20  34  55  82 110 142 178 226 282 329
#     4  10  21  37  58  82 111 148 186 229 279 331
#     4  10  22  36  53  80 114 146 182 221 272 338
#     4  10  20  35  57  83 108 139 187 238 277 319
#     4  10  20  35  52  78 110 146 182 222 273 323
#
# _framework density 22.132017000000001
#
# number of rings (size 3 to 8) (size 9 to 14) (size 15 to 20)
#    0.000    2.000    0.000    4.500    0.000    8.667 
#    0.000    2.500    0.000    2.000    0.000   11.667 
#    0.000    0.000    0.000    0.000    0.000    0.000 
#
# Total GULP energy -267736.343320 kJ/mol
# GULP energy per Si atom -5577.840486 kJ/mol
# Density = 2.208164 g / cm^3
# Si number density = 22.132017 Si / 1000 Ang^3
#
#
#
# Elastic Constant Matrix: (Units=GPa)
#
#
# Indices 1 2 3 4 5 6 
#
# 1 56.7863 40.2093 -5.7139 0.0000 0.0000 0.0000
# 2 40.2093 97.8574 -7.6430 0.0000 0.0000 0.0000
# 3 -5.7139 -7.6430 21.5072 0.0000 0.0000 0.0000
# 4 0.0000 0.0000 0.0000 36.0043 0.0000 0.0000
# 5 0.0000 0.0000 0.0000 0.0000 22.9592 0.0000
# 6 0.0000 0.0000 0.0000 0.0000 0.0000 24.0178
#
#
#
# Elastic Compliance Matrix: (Units=1/GPa)
#
#
# Indices 1 2 3 4 5 6 
#
# 1 0.025033 -0.010045 0.003081 0.000000 0.000000 0.000000
# 2 -0.010045 0.014542 0.002499 0.000000 0.000000 0.000000
# 3 0.003081 0.002499 0.048203 0.000000 0.000000 0.000000
# 4 0.000000 0.000000 0.000000 0.027774 0.000000 0.000000
# 5 0.000000 0.000000 0.000000 0.000000 0.043555 0.000000
# 6 0.000000 0.000000 0.000000 0.000000 0.000000 0.041636
#
#
# Mechanical properties :
#
#
# Convention : Reuss Voigt Hill
#
# Bulk Modulus (GPa) = 12.68296 25.53952 19.11124
# Shear Modulus (GPa) = 21.19039 26.54948 23.86993
#
# Velocity S-wave (km/s) = 3.09763 3.46728 3.28765
# Velocity P-wave (km/s) = 4.30544 5.25300 4.80265
#
# Compressibility (1/GPa) = 0.07884596
#
# Stress axis : x y z
#
# Youngs Moduli (GPa) = 39.94768 68.76778 20.74574
#
# Poissons Ratio (x) = 0.69079 -0.06391
# Poissons Ratio (y) = 0.40128 -0.05184
# Poissons Ratio (z) = -0.12307 -0.17185
#
# Static dielectric constant tensor:
#      x y z
#    x 1.788030 0.000000 0.000000 
#    y 0.000000 1.974700 0.000000 
#    z 0.000000 0.000000 1.852830 
# 
# From -- ./inp_files/39210.got.cif
#   From: 2010.05.17/outbox.cif.g08.bks.cpg/sg64_20_cif.got.tgz:39210.got - 2010.06.03 16:29:19.
