data_PCOD9478161
_publ_section_title
;
Structure prediction by ZEFSAII (Michael W. Deem and Ramdas Pophale) SiO2 
 PCOD9478161
Probable space group: C M C A
;
_chemical_formula_sum "Si O2"
_cell_formula_units_Z 64
_cell_length_a 19.741076
_cell_length_b 17.243839
_cell_length_c 8.256562
_cell_angle_alpha 90.000000
_cell_angle_beta 90.000000
_cell_angle_gamma 90.000000
_cell_volume 2810.632257
_symmetry_space_group_name_H-M "C M C A"
_symmetry_group_IT_number 64
_symmetry_cell_setting 'orthorhombic'
loop_
_space_group_symop_operation_xyz
x,y,z
-x,1/2-y,1/2+z
x,-y,-z
-x,1/2+y,1/2-z
-x,-y,-z
x,1/2+y,1/2-z
-x,y,z
x,1/2-y,1/2+z
1/2+x,1/2+y,z
1/2-x,-y,1/2+z
1/2+x,1/2-y,-z
1/2-x,y,1/2-z
1/2-x,1/2-y,-z
1/2+x,y,1/2-z
1/2-x,1/2+y,z
1/2+x,-y,1/2+z
loop_
_atom_site_type_symbol
_atom_site_label
_atom_site_fract_x
_atom_site_fract_y
_atom_site_fract_z
Si Si1 0.145014 0.398781 0.679569
Si Si2 0.232731 0.840088 0.511389
Si Si3 0.500000 0.348330 0.368570
Si Si4 0.500000 0.329020 0.758392
Si Si5 0.866672 0.444663 0.160958
O O1 0.183760 0.357708 0.833092
O O2 0.194466 0.378882 0.534229
O O3 0.068892 0.366881 0.672836
O O4 0.145490 0.490376 0.706381
O O5 0.250000 0.750000 0.500000
O O6 0.191410 0.881796 0.370037
O O7 0.500000 0.342429 0.564605
O O8 0.500000 0.262102 0.297352
O O9 0.565230 0.396760 0.316414
O O10 0.873205 0.500000 0.000000
#
# Coordination Sequence:
#
# PCOD9478161 Si02
#       5
#    16  16   8   8  16
#     4  10  22  38  65  95 123 171 219 267 324 398
#     4  10  20  38  62  94 128 164 218 272 324 383
#     4  12  22  39  68  99 125 179 214 274 327 390
#     4  12  23  40  67  96 135 165 228 266 332 391
#     4  10  19  39  67  89 126 170 222 260 327 402
#
# _framework density 22.770678
#
# number of rings (size 3 to 8) (size 9 to 14) (size 15 to 20)
#    0.000    1.500    5.000    2.625    0.000    0.000 
#    0.000   27.500    0.000    1.500    0.000    0.000 
#    0.000    0.000    0.000    0.000    0.000    0.000 
#
# Total GULP energy -179115.160824 kJ/mol
# GULP energy per Si atom -5597.348776 kJ/mol
# Density = 2.271885 g / cm^3
# Si number density = 22.770678 Si / 1000 Ang^3
#
#
#
# Elastic Constant Matrix: (Units=GPa)
#
#
# Indices 1 2 3 4 5 6 
#
# 1 239.7160 142.7276 49.7878 0.0000 0.0000 0.0000
# 2 142.7276 260.5112 44.9423 0.0000 0.0000 0.0000
# 3 49.7878 44.9423 39.4384 0.0000 0.0000 0.0000
# 4 0.0000 0.0000 0.0000 20.2818 0.0000 0.0000
# 5 0.0000 0.0000 0.0000 0.0000 13.8096 0.0000
# 6 0.0000 0.0000 0.0000 0.0000 0.0000 57.7488
#
#
#
# Elastic Compliance Matrix: (Units=1/GPa)
#
#
# Indices 1 2 3 4 5 6 
#
# 1 0.007066 -0.002903 -0.005612 0.000000 0.000000 0.000000
# 2 -0.002903 0.005971 -0.003139 0.000000 0.000000 0.000000
# 3 -0.005612 -0.003139 0.036017 0.000000 0.000000 0.000000
# 4 0.000000 0.000000 0.000000 0.049305 0.000000 0.000000
# 5 0.000000 0.000000 0.000000 0.000000 0.072414 0.000000
# 6 0.000000 0.000000 0.000000 0.000000 0.000000 0.017316
#
#
# Mechanical properties :
#
#
# Convention : Reuss Voigt Hill
#
# Bulk Modulus (GPa) = 38.84069 112.73124 75.78597
# Shear Modulus (GPa) = 22.72954 38.51523 30.62238
#
# Velocity S-wave (km/s) = 3.16285 4.11717 3.67115
# Velocity P-wave (km/s) = 5.51657 8.49801 7.16410
#
# Compressibility (1/GPa) = 0.02574619
#
# Stress axis : x y z
#
# Youngs Moduli (GPa) = 141.53252 167.48745 27.76441
#
# Poissons Ratio (x) = 0.48620 0.15580
# Poissons Ratio (y) = 0.41086 0.08716
# Poissons Ratio (z) = 0.79422 0.52576
#
# Static dielectric constant tensor:
#      x y z
#    x 1.827580 0.000000 0.000000 
#    y 0.000000 1.792360 0.000000 
#    z 0.000000 0.000000 1.977230 
# 
# From -- ./inp_files/15543.got.cif
#   From: 2010.05.17/outbox.cif.g08.bks.cpg/sg64_8_cif.got.tgz:15543.got - 2010.06.03 16:29:19.
