data_PCOD9478785
_publ_section_title
;
Structure prediction by ZEFSAII (Michael W. Deem and Ramdas Pophale) SiO2 
 PCOD9478785
Probable space group: C M C A
;
_chemical_formula_sum "Si O2"
_cell_formula_units_Z 112
_cell_length_a 25.129386
_cell_length_b 23.005148
_cell_length_c 10.941880
_cell_angle_alpha 90.000000
_cell_angle_beta 90.000000
_cell_angle_gamma 90.000000
_cell_volume 6325.558208
_symmetry_space_group_name_H-M "C M C A"
_symmetry_group_IT_number 64
_symmetry_cell_setting 'orthorhombic'
loop_
_space_group_symop_operation_xyz
x,y,z
-x,1/2-y,1/2+z
x,-y,-z
-x,1/2+y,1/2-z
-x,-y,-z
x,1/2+y,1/2-z
-x,y,z
x,1/2-y,1/2+z
1/2+x,1/2+y,z
1/2-x,-y,1/2+z
1/2+x,1/2-y,-z
1/2-x,y,1/2-z
1/2-x,1/2-y,-z
1/2+x,y,1/2-z
1/2-x,1/2+y,z
1/2+x,-y,1/2+z
loop_
_atom_site_type_symbol
_atom_site_label
_atom_site_fract_x
_atom_site_fract_y
_atom_site_fract_z
Si Si1 0.869701 0.925242 0.272294
Si Si2 0.144706 0.862357 0.880311
Si Si3 0.182160 0.129809 0.520014
Si Si4 0.293024 0.847131 0.378413
Si Si5 0.307904 0.458388 0.697344
Si Si6 0.563035 0.565990 0.960017
Si Si7 0.190559 0.283193 0.801144
O O1 0.868060 0.886071 0.394724
O O2 0.825010 0.899079 0.182349
O O3 0.920111 0.926983 0.182375
O O4 0.847958 0.987960 0.311202
O O5 0.167197 0.913067 0.793719
O O6 0.145483 0.806258 0.791944
O O7 0.187491 0.846323 0.982400
O O8 0.094174 0.887905 0.953565
O O9 0.230650 0.141588 0.612340
O O10 0.196102 0.075613 0.431198
O O11 0.179571 0.184502 0.429383
O O12 0.308009 0.785384 0.320877
O O13 0.250000 0.475381 0.750000
O O14 0.500000 0.572215 0.974727
O O15 0.578485 0.500000 0.000000
O O16 0.250000 0.299818 0.750000
#
# Coordination Sequence:
#
# PCOD9478785 Si02
#       7
#    16  16  16  16  16  16  16
#     4  11  23  32  53  85 110 143 196 232 284 344
#     4  10  20  36  55  84 110 146 197 237 284 337
#     4  11  20  33  48  78 119 160 185 218 270 332
#     4  11  21  33  51  80 119 161 196 223 262 334
#     4  11  19  34  51  78 126 160 177 220 273 340
#     4  10  21  41  66  82 105 142 193 255 300 347
#     4  11  21  34  54  76 123 161 195 228 264 337
#
# _framework density 17.705946999999998
#
# number of rings (size 3 to 8) (size 9 to 14) (size 15 to 20)
#    0.000    1.286    4.286    3.857    2.000    0.000 
#    0.000    0.000    0.000    8.571    0.000    0.000 
#    0.000    0.000    0.000    0.000    0.000    0.000 
#
# Total GULP energy -312285.303062 kJ/mol
# GULP energy per Si atom -5576.523269 kJ/mol
# Density = 1.766565 g / cm^3
# Si number density = 17.705947 Si / 1000 Ang^3
#
#
#
# Elastic Constant Matrix: (Units=GPa)
#
#
# Indices 1 2 3 4 5 6 
#
# 1 50.5859 18.2371 16.2082 0.0000 0.0000 0.0000
# 2 18.2371 84.0467 19.8324 0.0000 0.0000 0.0000
# 3 16.2082 19.8324 60.7396 0.0000 0.0000 0.0000
# 4 0.0000 0.0000 0.0000 5.3973 0.0000 0.0000
# 5 0.0000 0.0000 0.0000 0.0000 20.6000 0.0000
# 6 0.0000 0.0000 0.0000 0.0000 0.0000 13.2304
#
#
#
# Elastic Compliance Matrix: (Units=1/GPa)
#
#
# Indices 1 2 3 4 5 6 
#
# 1 0.022675 -0.003784 -0.004815 0.000000 0.000000 0.000000
# 2 -0.003784 0.013523 -0.003406 0.000000 0.000000 0.000000
# 3 -0.004815 -0.003406 0.018861 0.000000 0.000000 0.000000
# 4 0.000000 0.000000 0.000000 0.185276 0.000000 0.000000
# 5 0.000000 0.000000 0.000000 0.000000 0.048544 0.000000
# 6 0.000000 0.000000 0.000000 0.000000 0.000000 0.075583
#
#
# Mechanical properties :
#
#
# Convention : Reuss Voigt Hill
#
# Bulk Modulus (GPa) = 32.20720 33.76971 32.98845
# Shear Modulus (GPa) = 12.53692 17.25186 14.89439
#
# Velocity S-wave (km/s) = 2.66383 3.12485 2.90351
# Velocity P-wave (km/s) = 5.26221 5.66864 5.46920
#
# Compressibility (1/GPa) = 0.03104896
#
# Stress axis : x y z
#
# Youngs Moduli (GPa) = 44.10060 73.94888 53.02042
#
# Poissons Ratio (x) = 0.27982 0.25531
# Poissons Ratio (y) = 0.16688 0.18057
# Poissons Ratio (z) = 0.21236 0.25184
#
# Static dielectric constant tensor:
#      x y z
#    x 1.578290 0.000000 0.000000 
#    y 0.000000 1.620030 0.000000 
#    z 0.000000 0.000000 1.667490 
# 
# From -- ./inp_files/18650.got.cif
#   From: 2010.05.17/outbox.cif.g08.bks.cpg/sg64_10_cif.got.tgz:18650.got - 2010.06.03 16:29:19.
