data_PCOD9478028
_publ_section_title
;
Structure prediction by ZEFSAII (Michael W. Deem and Ramdas Pophale) SiO2 
 PCOD9478028
Probable space group: C M C A
;
_chemical_formula_sum "Si O2"
_cell_formula_units_Z 120
_cell_length_a 22.974644
_cell_length_b 15.340398
_cell_length_c 19.012145
_cell_angle_alpha 90.000000
_cell_angle_beta 90.000000
_cell_angle_gamma 90.000000
_cell_volume 6700.643861
_symmetry_space_group_name_H-M "C M C A"
_symmetry_group_IT_number 64
_symmetry_cell_setting 'orthorhombic'
loop_
_space_group_symop_operation_xyz
x,y,z
-x,1/2-y,1/2+z
x,-y,-z
-x,1/2+y,1/2-z
-x,-y,-z
x,1/2+y,1/2-z
-x,y,z
x,1/2-y,1/2+z
1/2+x,1/2+y,z
1/2-x,-y,1/2+z
1/2+x,1/2-y,-z
1/2-x,y,1/2-z
1/2-x,1/2-y,-z
1/2+x,y,1/2-z
1/2-x,1/2+y,z
1/2+x,-y,1/2+z
loop_
_atom_site_type_symbol
_atom_site_label
_atom_site_fract_x
_atom_site_fract_y
_atom_site_fract_z
Si Si1 0.568185 0.242625 0.466287
Si Si2 0.742491 0.601765 0.022208
Si Si3 0.623323 0.906186 0.962380
Si Si4 0.153116 0.660331 0.576459
Si Si5 0.358582 0.324246 0.677316
Si Si6 0.161953 0.469169 0.638099
Si Si7 0.250000 0.918750 0.750000
Si Si8 0.930814 0.835867 0.816682
O O1 0.500000 0.226890 0.477151
O O2 0.585505 0.338285 0.493295
O O3 0.605350 0.179324 0.516535
O O4 0.580072 0.227194 0.383713
O O5 0.809024 0.623762 0.035494
O O6 0.696670 0.596784 0.085959
O O7 0.744079 0.500000 0.000000
O O8 0.715667 0.660900 0.961621
O O9 0.612617 0.893100 0.878587
O O10 0.618227 0.000000 0.000000
O O11 0.148194 0.733897 0.635381
O O12 0.148395 0.562239 0.604856
O O13 0.296525 0.360965 0.705687
O O14 0.399855 0.308748 0.744375
O O15 0.208568 0.476778 0.700919
O O16 0.102672 0.424509 0.662664
O O17 0.000000 0.845563 0.808395
#
# Coordination Sequence:
#
# PCOD9478028 Si02
#       8
#    16  16  16  16  16  16   8  16
#     4  10  22  39  60  85 115 155 202 252 294 343
#     4   9  17  32  57  88 117 142 181 233 288 348
#     4  10  21  39  63  88 118 156 197 244 300 350
#     4  10  21  36  59  91 117 148 192 243 295 344
#     4  10  22  37  57  83 117 159 191 239 292 348
#     4  10  19  36  60  87 119 152 189 237 289 354
#     4  10  20  36  54  82 126 160 188 226 288 356
#     4  10  22  41  58  79 117 159 199 244 296 348
#
# _framework density 17.908726999999999
#
# number of rings (size 3 to 8) (size 9 to 14) (size 15 to 20)
#    0.000    2.133    2.667    0.000    0.000    7.733 
#    4.800    1.333    0.000    0.000    0.000    0.000 
#    0.000    0.000    0.000    0.000    0.000    0.000 
#
# Total GULP energy -334233.998118 kJ/mol
# GULP energy per Si atom -5570.566635 kJ/mol
# Density = 1.786797 g / cm^3
# Si number density = 17.908727 Si / 1000 Ang^3
#
#
#
# Elastic Constant Matrix: (Units=GPa)
#
#
# Indices 1 2 3 4 5 6 
#
# 1 74.4972 11.9732 44.4587 0.0000 0.0000 0.0000
# 2 11.9732 44.8121 36.9241 0.0000 0.0000 0.0000
# 3 44.4587 36.9241 125.1033 0.0000 0.0000 0.0000
# 4 0.0000 0.0000 0.0000 25.2406 0.0000 0.0000
# 5 0.0000 0.0000 0.0000 0.0000 27.3649 0.0000
# 6 0.0000 0.0000 0.0000 0.0000 0.0000 18.1788
#
#
#
# Elastic Compliance Matrix: (Units=1/GPa)
#
#
# Indices 1 2 3 4 5 6 
#
# 1 0.017048 0.000577 -0.006229 0.000000 0.000000 0.000000
# 2 0.000577 0.029506 -0.008914 0.000000 0.000000 0.000000
# 3 -0.006229 -0.008914 0.012838 0.000000 0.000000 0.000000
# 4 0.000000 0.000000 0.000000 0.039619 0.000000 0.000000
# 5 0.000000 0.000000 0.000000 0.000000 0.036543 0.000000
# 6 0.000000 0.000000 0.000000 0.000000 0.000000 0.055009
#
#
# Mechanical properties :
#
#
# Convention : Reuss Voigt Hill
#
# Bulk Modulus (GPa) = 33.04563 47.90270 40.47417
# Shear Modulus (GPa) = 21.75993 24.22729 22.99361
#
# Velocity S-wave (km/s) = 3.48953 3.68206 3.58709
# Velocity P-wave (km/s) = 5.89305 6.69948 6.30917
#
# Compressibility (1/GPa) = 0.03026118
#
# Stress axis : x y z
#
# Youngs Moduli (GPa) = 58.65872 33.89149 77.89452
#
# Poissons Ratio (x) = -0.01957 0.48519
# Poissons Ratio (y) = -0.03387 0.69434
# Poissons Ratio (z) = 0.36537 0.30210
#
# Static dielectric constant tensor:
#      x y z
#    x 1.598200 0.000000 0.000000 
#    y 0.000000 1.600110 0.000000 
#    z 0.000000 0.000000 1.677540 
# 
# From -- ./inp_files/41051.got.cif
#   From: 2010.05.17/outbox.cif.g08.bks.cpg/sg64_21_cif.got.tgz:41051.got - 2010.06.03 16:29:19.
