data_PCOD9478987
_publ_section_title
;
Structure prediction by ZEFSAII (Michael W. Deem and Ramdas Pophale) SiO2 
 PCOD9478987
Probable space group: C M C A
;
_chemical_formula_sum "Si O2"
_cell_formula_units_Z 88
_cell_length_a 24.911902
_cell_length_b 18.145378
_cell_length_c 9.344484
_cell_angle_alpha 90.000000
_cell_angle_beta 90.000000
_cell_angle_gamma 90.000000
_cell_volume 4224.042034
_symmetry_space_group_name_H-M "C M C A"
_symmetry_group_IT_number 64
_symmetry_cell_setting 'orthorhombic'
loop_
_space_group_symop_operation_xyz
x,y,z
-x,1/2-y,1/2+z
x,-y,-z
-x,1/2+y,1/2-z
-x,-y,-z
x,1/2+y,1/2-z
-x,y,z
x,1/2-y,1/2+z
1/2+x,1/2+y,z
1/2-x,-y,1/2+z
1/2+x,1/2-y,-z
1/2-x,y,1/2-z
1/2-x,1/2-y,-z
1/2+x,y,1/2-z
1/2-x,1/2+y,z
1/2+x,-y,1/2+z
loop_
_atom_site_type_symbol
_atom_site_label
_atom_site_fract_x
_atom_site_fract_y
_atom_site_fract_z
Si Si1 0.681350 0.885129 0.618763
Si Si2 0.608217 0.964733 0.849101
Si Si3 0.146278 0.588948 0.696961
Si Si4 0.250000 0.491956 0.750000
Si Si5 0.560469 0.315491 0.624469
Si Si6 0.871870 0.759995 0.359151
O O1 0.651088 0.915596 0.759795
O O2 0.650842 0.905890 0.473319
O O3 0.735906 0.932970 0.623238
O O4 0.677924 0.796863 0.625351
O O5 0.562993 0.904329 0.877316
O O6 0.598477 0.035362 0.748371
O O7 0.625577 0.000000 0.000000
O O8 0.199508 0.546951 0.753939
O O9 0.142513 0.668345 0.767732
O O10 0.500000 0.290531 0.594957
O O11 0.581641 0.284397 0.775182
O O12 0.603068 0.286186 0.508274
#
# Coordination Sequence:
#
# PCOD9478987 Si02
#       6
#    16  16  16   8  16  16
#     4  10  23  42  64  90 133 168 212 256 318 380
#     4  10  20  36  63  92 124 168 208 258 316 368
#     4  11  22  43  63  93 130 173 209 259 320 380
#     4  10  22  38  62  92 116 164 210 254 298 378
#     4  11  23  41  65  95 128 166 218 266 316 383
#     4  11  22  43  67  93 128 173 210 263 328 372
#
# _framework density 20.833126
#
# number of rings (size 3 to 8) (size 9 to 14) (size 15 to 20)
#    0.000    1.455    3.636    2.727    0.000    6.909 
#    0.000    1.818    0.000    2.182    0.000    0.000 
#    0.000    0.000    0.000    0.000    0.000    0.000 
#
# Total GULP energy -245074.895964 kJ/mol
# GULP energy per Si atom -5569.883999 kJ/mol
# Density = 2.078571 g / cm^3
# Si number density = 20.833126 Si / 1000 Ang^3
#
#
#
# Elastic Constant Matrix: (Units=GPa)
#
#
# Indices 1 2 3 4 5 6 
#
# 1 46.2785 25.8619 3.2307 0.0000 0.0000 0.0000
# 2 25.8619 161.8486 24.4569 0.0000 0.0000 0.0000
# 3 3.2307 24.4569 96.6036 0.0000 0.0000 0.0000
# 4 0.0000 0.0000 0.0000 32.2019 0.0000 0.0000
# 5 0.0000 0.0000 0.0000 0.0000 15.5354 0.0000
# 6 0.0000 0.0000 0.0000 0.0000 0.0000 18.9844
#
#
#
# Elastic Compliance Matrix: (Units=1/GPa)
#
#
# Indices 1 2 3 4 5 6 
#
# 1 0.023730 -0.003818 0.000173 0.000000 0.000000 0.000000
# 2 -0.003818 0.007039 -0.001654 0.000000 0.000000 0.000000
# 3 0.000173 -0.001654 0.010765 0.000000 0.000000 0.000000
# 4 0.000000 0.000000 0.000000 0.031054 0.000000 0.000000
# 5 0.000000 0.000000 0.000000 0.000000 0.064369 0.000000
# 6 0.000000 0.000000 0.000000 0.000000 0.000000 0.052675
#
#
# Mechanical properties :
#
#
# Convention : Reuss Voigt Hill
#
# Bulk Modulus (GPa) = 32.32625 45.75887 39.04256
# Shear Modulus (GPa) = 23.74832 30.08975 26.91903
#
# Velocity S-wave (km/s) = 3.37995 3.80455 3.59852
# Velocity P-wave (km/s) = 5.54820 6.42741 6.00392
#
# Compressibility (1/GPa) = 0.03093462
#
# Stress axis : x y z
#
# Youngs Moduli (GPa) = 42.14108 142.07240 92.89706
#
# Poissons Ratio (x) = 0.54243 -0.01607
# Poissons Ratio (y) = 0.16089 0.15368
# Poissons Ratio (z) = -0.00729 0.23503
#
# Static dielectric constant tensor:
#      x y z
#    x 1.827960 0.000000 0.000000 
#    y 0.000000 1.790920 0.000000 
#    z 0.000000 0.000000 1.771480 
# 
# From -- ./inp_files/11062.got.cif
#   From: 2010.05.17/outbox.cif.g08.bks.cpg/sg64_6_cif.got.tgz:11062.got - 2010.06.03 16:29:19.
