data_PCOD9478564
_publ_section_title
;
Structure prediction by ZEFSAII (Michael W. Deem and Ramdas Pophale) SiO2 
 PCOD9478564
Probable space group: C M C A
;
_chemical_formula_sum "Si O2"
_cell_formula_units_Z 88
_cell_length_a 26.493551
_cell_length_b 5.231502
_cell_length_c 28.691074
_cell_angle_alpha 90.000000
_cell_angle_beta 90.000000
_cell_angle_gamma 90.000000
_cell_volume 3976.613414
_symmetry_space_group_name_H-M "C M C A"
_symmetry_group_IT_number 64
_symmetry_cell_setting 'orthorhombic'
loop_
_space_group_symop_operation_xyz
x,y,z
-x,1/2-y,1/2+z
x,-y,-z
-x,1/2+y,1/2-z
-x,-y,-z
x,1/2+y,1/2-z
-x,y,z
x,1/2-y,1/2+z
1/2+x,1/2+y,z
1/2-x,-y,1/2+z
1/2+x,1/2-y,-z
1/2-x,y,1/2-z
1/2-x,1/2-y,-z
1/2+x,y,1/2-z
1/2-x,1/2+y,z
1/2+x,-y,1/2+z
loop_
_atom_site_type_symbol
_atom_site_label
_atom_site_fract_x
_atom_site_fract_y
_atom_site_fract_z
Si Si1 0.193829 0.474883 0.769442
Si Si2 0.853616 0.211176 0.355816
Si Si3 0.415644 0.500000 0.000000
Si Si4 0.500000 0.683155 0.107657
Si Si5 0.943585 0.281705 0.781987
Si Si6 0.000000 0.311683 0.950856
Si Si7 0.114492 0.712542 0.400594
O O1 0.169388 0.752287 0.762248
O O2 0.250000 0.516339 0.750000
O O3 0.191610 0.374630 0.821855
O O4 0.901398 0.200132 0.321044
O O5 0.852283 0.495444 0.375517
O O6 0.863210 0.994424 0.394321
O O7 0.451201 0.724029 0.979448
O O8 0.389701 0.379165 0.954321
O O9 0.500000 0.390655 0.091127
O O10 0.441709 0.713819 0.124203
O O11 0.500000 0.902794 0.067554
O O12 0.939983 0.519878 0.746848
O O13 0.000000 0.291894 0.803173
#
# Coordination Sequence:
#
# PCOD9478564 Si02
#       7
#    16  16   8   8  16   8  16
#     4  10  21  40  67  91 117 146 178 234 318 374
#     4  12  23  36  55  88 114 149 195 255 290 351
#     4   9  20  38  50  76 110 164 208 256 310 338
#     4  10  20  35  48  74 104 157 212 259 294 316
#     4  10  21  36  52  70 104 153 192 226 282 350
#     4   9  18  32  54  66  96 149 222 263 290 340
#     4  11  24  33  55  77 119 157 206 253 290 341
#
# _framework density 22.129382
#
# number of rings (size 3 to 8) (size 9 to 14) (size 15 to 20)
#    0.000    1.636    0.000    6.000    2.545    9.455 
#    0.000    0.000    0.000    0.000    0.000    0.000 
#    0.000   58.182    0.000    0.000    0.000    0.000 
#
# Total GULP energy -245770.995246 kJ/mol
# GULP energy per Si atom -5585.704437 kJ/mol
# Density = 2.207901 g / cm^3
# Si number density = 22.129382 Si / 1000 Ang^3
#
#
#
# Elastic Constant Matrix: (Units=GPa)
#
#
# Indices 1 2 3 4 5 6 
#
# 1 51.6861 -3.7178 11.6577 0.0000 0.0000 0.0000
# 2 -3.7178 127.6008 23.7025 0.0000 0.0000 0.0000
# 3 11.6577 23.7025 84.2544 0.0000 0.0000 0.0000
# 4 0.0000 0.0000 0.0000 38.5813 0.0000 0.0000
# 5 0.0000 0.0000 0.0000 0.0000 27.7160 0.0000
# 6 0.0000 0.0000 0.0000 0.0000 0.0000 9.7931
#
#
#
# Elastic Compliance Matrix: (Units=1/GPa)
#
#
# Indices 1 2 3 4 5 6 
#
# 1 0.020134 0.001165 -0.003113 0.000000 0.000000 0.000000
# 2 0.001165 0.008336 -0.002506 0.000000 0.000000 0.000000
# 3 -0.003113 -0.002506 0.013005 0.000000 0.000000 0.000000
# 4 0.000000 0.000000 0.000000 0.025919 0.000000 0.000000
# 5 0.000000 0.000000 0.000000 0.000000 0.036080 0.000000
# 6 0.000000 0.000000 0.000000 0.000000 0.000000 0.102112
#
#
# Mechanical properties :
#
#
# Convention : Reuss Voigt Hill
#
# Bulk Modulus (GPa) = 30.70789 36.31402 33.51096
# Shear Modulus (GPa) = 22.18757 30.67802 26.43280
#
# Velocity S-wave (km/s) = 3.16987 3.72735 3.45985
# Velocity P-wave (km/s) = 5.22533 5.91351 5.58004
#
# Compressibility (1/GPa) = 0.03256492
#
# Stress axis : x y z
#
# Youngs Moduli (GPa) = 49.66824 119.95494 76.89518
#
# Poissons Ratio (x) = -0.13974 0.23941
# Poissons Ratio (y) = -0.05786 0.19273
# Poissons Ratio (z) = 0.15464 0.30066
#
# Static dielectric constant tensor:
#      x y z
#    x 1.947530 0.000000 0.000000 
#    y 0.000000 1.851240 0.000000 
#    z 0.000000 0.000000 1.864120 
# 
# From -- ./inp_files/51297.got.cif
#   From: 2010.05.17/outbox.cif.g08.bks.cpg/sg64_26_cif.got.tgz:51297.got - 2010.06.03 16:29:19.
