data_PCOD9478119
_publ_section_title
;
Structure prediction by ZEFSAII (Michael W. Deem and Ramdas Pophale) SiO2 
 PCOD9478119
Probable space group: C M C A
;
_chemical_formula_sum "Si O2"
_cell_formula_units_Z 88
_cell_length_a 29.095823
_cell_length_b 12.060504
_cell_length_c 12.707702
_cell_angle_alpha 90.000000
_cell_angle_beta 90.000000
_cell_angle_gamma 90.000000
_cell_volume 4459.263390
_symmetry_space_group_name_H-M "C M C A"
_symmetry_group_IT_number 64
_symmetry_cell_setting 'orthorhombic'
loop_
_space_group_symop_operation_xyz
x,y,z
-x,1/2-y,1/2+z
x,-y,-z
-x,1/2+y,1/2-z
-x,-y,-z
x,1/2+y,1/2-z
-x,y,z
x,1/2-y,1/2+z
1/2+x,1/2+y,z
1/2-x,-y,1/2+z
1/2+x,1/2-y,-z
1/2-x,y,1/2-z
1/2-x,1/2-y,-z
1/2+x,y,1/2-z
1/2-x,1/2+y,z
1/2+x,-y,1/2+z
loop_
_atom_site_type_symbol
_atom_site_label
_atom_site_fract_x
_atom_site_fract_y
_atom_site_fract_z
Si Si1 0.893259 0.370137 0.678116
Si Si2 0.250000 0.575193 0.250000
Si Si3 0.398507 0.846140 0.037580
Si Si4 0.825951 0.805485 0.628368
Si Si5 0.447787 0.043287 0.144180
Si Si6 0.177978 0.956532 0.109519
O O1 0.899951 0.270795 0.596335
O O2 0.858547 0.329606 0.770782
O O3 0.938086 0.407224 0.741640
O O4 0.869434 0.476662 0.625742
O O5 0.223896 0.649368 0.162373
O O6 0.211608 0.497443 0.299827
O O7 0.411848 0.943813 0.118952
O O8 0.349930 0.857158 0.975715
O O9 0.435668 0.864993 0.944462
O O10 0.826198 0.674419 0.610160
O O11 0.500000 0.005196 0.132841
O O12 0.197854 0.000000 0.000000
#
# Coordination Sequence:
#
# PCOD9478119 Si02
#       6
#    16   8  16  16  16  16
#     4  10  21  38  62  85 118 160 199 242 301 360
#     4  10  24  40  56  92 120 154 204 258 302 350
#     4  10  19  38  61  85 118 162 197 239 298 365
#     4  10  21  39  59  86 119 158 203 247 301 360
#     4  10  22  38  61  94 121 154 202 249 299 363
#     4  11  21  40  60  86 118 158 200 253 298 356
#
# _framework density 19.734200999999999
#
# number of rings (size 3 to 8) (size 9 to 14) (size 15 to 20)
#    0.000    1.818    1.818    2.727    0.000    3.636 
#   13.091    0.000    0.000    1.636    0.000    0.000 
#    0.000    0.000    0.000    0.000    0.000    0.000 
#
# Total GULP energy -245463.454969 kJ/mol
# GULP energy per Si atom -5578.714886 kJ/mol
# Density = 1.968928 g / cm^3
# Si number density = 19.734201 Si / 1000 Ang^3
#
#
#
# Elastic Constant Matrix: (Units=GPa)
#
#
# Indices 1 2 3 4 5 6 
#
# 1 74.7008 41.8081 20.7749 0.0000 0.0000 0.0000
# 2 41.8081 87.6944 22.9864 0.0000 0.0000 0.0000
# 3 20.7749 22.9864 63.2186 0.0000 0.0000 0.0000
# 4 0.0000 0.0000 0.0000 42.3827 0.0000 0.0000
# 5 0.0000 0.0000 0.0000 0.0000 21.4010 0.0000
# 6 0.0000 0.0000 0.0000 0.0000 0.0000 14.2416
#
#
#
# Elastic Compliance Matrix: (Units=1/GPa)
#
#
# Indices 1 2 3 4 5 6 
#
# 1 0.018838 -0.008133 -0.003233 0.000000 0.000000 0.000000
# 2 -0.008133 0.016116 -0.003187 0.000000 0.000000 0.000000
# 3 -0.003233 -0.003187 0.018039 0.000000 0.000000 0.000000
# 4 0.000000 0.000000 0.000000 0.023595 0.000000 0.000000
# 5 0.000000 0.000000 0.000000 0.000000 0.046727 0.000000
# 6 0.000000 0.000000 0.000000 0.000000 0.000000 0.070217
#
#
# Mechanical properties :
#
#
# Convention : Reuss Voigt Hill
#
# Bulk Modulus (GPa) = 41.86520 44.08363 42.97441
# Shear Modulus (GPa) = 21.68242 24.94136 23.31189
#
# Velocity S-wave (km/s) = 3.31829 3.55894 3.44072
# Velocity P-wave (km/s) = 5.99517 6.26700 6.13259
#
# Compressibility (1/GPa) = 0.02388619
#
# Stress axis : x y z
#
# Youngs Moduli (GPa) = 53.08416 62.04922 55.43413
#
# Poissons Ratio (x) = 0.50468 0.17923
# Poissons Ratio (y) = 0.43176 0.17667
# Poissons Ratio (z) = 0.17163 0.19775
#
# Static dielectric constant tensor:
#      x y z
#    x 1.709250 0.000000 0.000000 
#    y 0.000000 1.673800 0.000000 
#    z 0.000000 0.000000 1.728980 
# 
# From -- ./inp_files/19692.got.cif
#   From: 2010.05.17/outbox.cif.g08.bks.cpg/sg64_10_cif.got.tgz:19692.got - 2010.06.03 16:29:19.
