data_PCOD9478550
_publ_section_title
;
Structure prediction by ZEFSAII (Michael W. Deem and Ramdas Pophale) SiO2 
 PCOD9478550
Probable space group: C M C A
;
_chemical_formula_sum "Si O2"
_cell_formula_units_Z 64
_cell_length_a 20.282249
_cell_length_b 12.941877
_cell_length_c 11.787283
_cell_angle_alpha 90.000000
_cell_angle_beta 90.000000
_cell_angle_gamma 90.000000
_cell_volume 3094.048298
_symmetry_space_group_name_H-M "C M C A"
_symmetry_group_IT_number 64
_symmetry_cell_setting 'orthorhombic'
loop_
_space_group_symop_operation_xyz
x,y,z
-x,1/2-y,1/2+z
x,-y,-z
-x,1/2+y,1/2-z
-x,-y,-z
x,1/2+y,1/2-z
-x,y,z
x,1/2-y,1/2+z
1/2+x,1/2+y,z
1/2-x,-y,1/2+z
1/2+x,1/2-y,-z
1/2-x,y,1/2-z
1/2-x,1/2-y,-z
1/2+x,y,1/2-z
1/2-x,1/2+y,z
1/2+x,-y,1/2+z
loop_
_atom_site_type_symbol
_atom_site_label
_atom_site_fract_x
_atom_site_fract_y
_atom_site_fract_z
Si Si1 0.151374 0.268285 0.519028
Si Si2 0.820909 0.103202 0.700801
Si Si3 0.733680 0.607113 0.381503
Si Si4 0.073353 0.580545 0.603091
O O1 0.147521 0.196290 0.629578
O O2 0.199853 0.365247 0.548259
O O3 0.185245 0.194529 0.426942
O O4 0.086465 0.311998 0.461899
O O5 0.750000 0.136950 0.750000
O O6 0.870221 0.069336 0.801180
O O7 0.800000 0.006113 0.621298
O O8 0.750000 0.622131 0.250000
O O9 0.077443 0.500000 0.500000
O O10 0.000000 0.574599 0.653225
#
# Coordination Sequence:
#
# PCOD9478550 Si02
#       4
#    16  16  16  16
#     4  11  21  37  60  89 119 157 205 251 303 361
#     4  11  22  38  62  92 123 158 203 254 306 362
#     4  10  20  34  59  93 125 155 194 252 308 360
#     4  11  25  42  60  86 123 164 205 253 311 374
#
# _framework density 20.684875999999999
#
# number of rings (size 3 to 8) (size 9 to 14) (size 15 to 20)
#    0.000    1.250    0.000    9.000    0.000    3.000 
#    0.000    3.750    0.000    3.000    0.000    0.000 
#    0.000    0.000    0.000    0.000    0.000    0.000 
#
# Total GULP energy -178664.615641 kJ/mol
# GULP energy per Si atom -5583.269239 kJ/mol
# Density = 2.063780 g / cm^3
# Si number density = 20.684876 Si / 1000 Ang^3
#
#
#
# Elastic Constant Matrix: (Units=GPa)
#
#
# Indices 1 2 3 4 5 6 
#
# 1 89.9650 24.2976 30.6872 0.0000 0.0000 0.0000
# 2 24.2976 90.8679 25.1687 0.0000 0.0000 0.0000
# 3 30.6872 25.1687 103.7662 0.0000 0.0000 0.0000
# 4 0.0000 0.0000 0.0000 37.8159 0.0000 0.0000
# 5 0.0000 0.0000 0.0000 0.0000 25.6402 0.0000
# 6 0.0000 0.0000 0.0000 0.0000 0.0000 -1.0636
#
#
#
# Elastic Compliance Matrix: (Units=1/GPa)
#
#
# Indices 1 2 3 4 5 6 
#
# 1 0.012897 -0.002564 -0.003192 0.000000 0.000000 0.000000
# 2 -0.002564 0.012307 -0.002227 0.000000 0.000000 0.000000
# 3 -0.003192 -0.002227 0.011121 0.000000 0.000000 0.000000
# 4 0.000000 0.000000 0.000000 0.026444 0.000000 0.000000
# 5 0.000000 0.000000 0.000000 0.000000 0.039001 0.000000
# 6 0.000000 0.000000 0.000000 0.000000 0.000000 -0.940243
#
#
# Mechanical properties :
#
#
# Convention : Reuss Voigt Hill
#
# Bulk Modulus (GPa) = 49.11844 49.43401 49.27622
# Shear Modulus (GPa) = -6.12956 26.10821 9.98933
#
# Velocity S-wave (km/s) = -1.72329 3.55658 2.19995
# Velocity P-wave (km/s) = 4.45398 6.38876 5.50700
#
# Compressibility (1/GPa) = 0.02035895
#
# Stress axis : x y z
#
# Youngs Moduli (GPa) = 77.53839 81.25145 89.91871
#
# Poissons Ratio (x) = 0.20836 0.28702
# Poissons Ratio (y) = 0.19884 0.20023
# Poissons Ratio (z) = 0.24751 0.18093
#
# Static dielectric constant tensor:
#      x y z
#    x 1.745880 0.000000 0.000000 
#    y 0.000000 1.818720 0.000000 
#    z 0.000000 0.000000 1.769660 
# 
# From -- ./inp_files/16774.got.cif
#   From: 2010.05.17/outbox.cif.g08.bks.cpg/sg64_9_cif.got.tgz:16774.got - 2010.06.03 16:29:19.
