data_PCOD9478263
_publ_section_title
;
Structure prediction by ZEFSAII (Michael W. Deem and Ramdas Pophale) SiO2 
 PCOD9478263
Probable space group: C M C A
;
_chemical_formula_sum "Si O2"
_cell_formula_units_Z 96
_cell_length_a 19.162779
_cell_length_b 18.793913
_cell_length_c 12.316957
_cell_angle_alpha 90.000000
_cell_angle_beta 90.000000
_cell_angle_gamma 90.000000
_cell_volume 4435.873252
_symmetry_space_group_name_H-M "C M C A"
_symmetry_group_IT_number 64
_symmetry_cell_setting 'orthorhombic'
loop_
_space_group_symop_operation_xyz
x,y,z
-x,1/2-y,1/2+z
x,-y,-z
-x,1/2+y,1/2-z
-x,-y,-z
x,1/2+y,1/2-z
-x,y,z
x,1/2-y,1/2+z
1/2+x,1/2+y,z
1/2-x,-y,1/2+z
1/2+x,1/2-y,-z
1/2-x,y,1/2-z
1/2-x,1/2-y,-z
1/2+x,y,1/2-z
1/2-x,1/2+y,z
1/2+x,-y,1/2+z
loop_
_atom_site_type_symbol
_atom_site_label
_atom_site_fract_x
_atom_site_fract_y
_atom_site_fract_z
Si Si1 0.078608 0.583499 0.964115
Si Si2 0.172271 0.052613 0.732919
Si Si3 0.160868 0.113089 0.328898
Si Si4 0.076613 0.925736 0.063809
Si Si5 0.729616 0.734431 0.127239
Si Si6 0.918315 0.814193 0.869512
O O1 0.128695 0.588745 0.861954
O O2 0.000000 0.607138 0.941532
O O3 0.075702 0.500000 0.000000
O O4 0.113342 0.621428 0.065298
O O5 0.250000 0.077447 0.750000
O O6 0.133275 0.067399 0.844444
O O7 0.175411 0.969120 0.698901
O O8 0.231532 0.157072 0.355762
O O9 0.111347 0.140720 0.231967
O O10 0.000000 0.917241 0.115183
O O11 0.086099 0.863146 0.977043
O O12 0.076960 0.000000 0.000000
O O13 0.750000 0.765818 0.250000
O O14 0.645457 0.740752 0.122886
O O15 0.750000 0.750000 0.000000
O O16 0.000000 0.793691 0.855660
#
# Coordination Sequence:
#
# PCOD9478263 Si02
#       6
#    16  16  16  16  16  16
#     4   9  19  33  51  78 116 153 188 232 282 346
#     4  11  21  31  50  82 122 163 195 234 279 352
#     4  10  20  37  59  84 112 154 204 244 294 359
#     4  10  20  32  53  84 122 158 191 236 288 352
#     4  10  23  45  67  89 117 156 206 267 323 366
#     4  10  20  37  63  89 117 156 200 245 299 367
#
# _framework density 21.641736000000002
#
# number of rings (size 3 to 8) (size 9 to 14) (size 15 to 20)
#    0.000    2.000    1.667    2.500    2.333    2.000 
#    3.000    4.167    0.000    0.000    0.000    0.000 
#    0.000    0.000    0.000    0.000    0.000    0.000 
#
# Total GULP energy -267390.701140 kJ/mol
# GULP energy per Si atom -5570.639607 kJ/mol
# Density = 2.159248 g / cm^3
# Si number density = 21.641736 Si / 1000 Ang^3
#
#
#
# Elastic Constant Matrix: (Units=GPa)
#
#
# Indices 1 2 3 4 5 6 
#
# 1 211.8554 27.9537 78.1068 0.0000 0.0000 0.0000
# 2 27.9537 54.1083 25.9453 0.0000 0.0000 0.0000
# 3 78.1068 25.9453 142.5745 0.0000 0.0000 0.0000
# 4 0.0000 0.0000 0.0000 11.2971 0.0000 0.0000
# 5 0.0000 0.0000 0.0000 0.0000 44.4557 0.0000
# 6 0.0000 0.0000 0.0000 0.0000 0.0000 -959.5019
#
#
#
# Elastic Compliance Matrix: (Units=1/GPa)
#
#
# Indices 1 2 3 4 5 6 
#
# 1 0.006052 -0.001684 -0.003009 0.000000 0.000000 0.000000
# 2 -0.001684 0.020717 -0.002848 0.000000 0.000000 0.000000
# 3 -0.003009 -0.002848 0.009180 0.000000 0.000000 0.000000
# 4 0.000000 0.000000 0.000000 0.088518 0.000000 0.000000
# 5 0.000000 0.000000 0.000000 0.000000 0.022494 0.000000
# 6 0.000000 0.000000 0.000000 0.000000 0.000000 -0.001042
#
#
# Mechanical properties :
#
#
# Convention : Reuss Voigt Hill
#
# Bulk Modulus (GPa) = 47.91909 74.72773 61.32341
# Shear Modulus (GPa) = 29.76972 -162.31433 -66.27230
#
# Velocity S-wave (km/s) = 3.71289 -8.66968 -5.53976
# Velocity P-wave (km/s) = 6.36952 8.10021 3.53855
#
# Compressibility (1/GPa) = 0.02086851
#
# Stress axis : x y z
#
# Youngs Moduli (GPa) = 165.24337 48.27016 108.92702
#
# Poissons Ratio (x) = 0.08127 0.32775
# Poissons Ratio (y) = 0.27821 0.31018
# Poissons Ratio (z) = 0.49720 0.13745
#
# Static dielectric constant tensor:
#      x y z
#    x 1.789570 0.000000 0.000000 
#    y 0.000000 1.252110 0.000000 
#    z 0.000000 0.000000 1.778710 
# 
# From -- ./inp_files/16227.got.cif
#   From: 2010.05.17/outbox.cif.g08.bks.cpg/sg64_9_cif.got.tgz:16227.got - 2010.06.03 16:29:19.
