data_PCOD9478446
_publ_section_title
;
Structure prediction by ZEFSAII (Michael W. Deem and Ramdas Pophale) SiO2 
 PCOD9478446
Probable space group: C M C A
;
_chemical_formula_sum "Si O2"
_cell_formula_units_Z 80
_cell_length_a 29.090178
_cell_length_b 9.355315
_cell_length_c 12.211299
_cell_angle_alpha 90.000000
_cell_angle_beta 90.000000
_cell_angle_gamma 90.000000
_cell_volume 3323.277897
_symmetry_space_group_name_H-M "C M C A"
_symmetry_group_IT_number 64
_symmetry_cell_setting 'orthorhombic'
loop_
_space_group_symop_operation_xyz
x,y,z
-x,1/2-y,1/2+z
x,-y,-z
-x,1/2+y,1/2-z
-x,-y,-z
x,1/2+y,1/2-z
-x,y,z
x,1/2-y,1/2+z
1/2+x,1/2+y,z
1/2-x,-y,1/2+z
1/2+x,1/2-y,-z
1/2-x,y,1/2-z
1/2-x,1/2-y,-z
1/2+x,y,1/2-z
1/2-x,1/2+y,z
1/2+x,-y,1/2+z
loop_
_atom_site_type_symbol
_atom_site_label
_atom_site_fract_x
_atom_site_fract_y
_atom_site_fract_z
Si Si1 0.393864 0.453626 0.251788
Si Si2 0.050330 0.366441 0.580300
Si Si3 0.196335 0.285120 0.497878
Si Si4 0.397861 0.319703 0.591339
Si Si5 0.701101 0.525630 0.190034
O O1 0.413423 0.567483 0.164039
O O2 0.412750 0.525516 0.363182
O O3 0.401109 0.301146 0.191075
O O4 0.339690 0.479342 0.268093
O O5 0.044347 0.500000 0.500000
O O6 0.070896 0.242275 0.505639
O O7 0.000000 0.330372 0.628464
O O8 0.250000 0.250000 0.500000
O O9 0.154650 0.187454 0.455403
O O10 0.197566 0.410699 0.407289
O O11 0.188174 0.331505 0.623599
O O12 0.750000 0.533958 0.250000
#
# Coordination Sequence:
#
# PCOD9478446 Si02
#       5
#    16  16  16  16  16
#     4  10  20  36  59  84 114 153 194 243 292 353
#     4   9  18  36  61  85 115 158 201 242 297 361
#     4  10  20  34  54  78 111 152 194 240 287 344
#     4  10  20  37  59  86 117 152 195 245 296 351
#     4  10  20  35  53  78 113 152 194 236 288 350
#
# _framework density 24.072617999999999
#
# number of rings (size 3 to 8) (size 9 to 14) (size 15 to 20)
#    0.000    2.200    2.000    1.200    0.000    4.800 
#    0.000    1.000    0.000    1.200    0.000    0.000 
#    0.000    0.000    0.000    0.000    0.000    0.000 
#
# Total GULP energy -222841.756667 kJ/mol
# GULP energy per Si atom -5571.043917 kJ/mol
# Density = 2.401783 g / cm^3
# Si number density = 24.072618 Si / 1000 Ang^3
#
#
#
# Elastic Constant Matrix: (Units=GPa)
#
#
# Indices 1 2 3 4 5 6 
#
# 1 99.1109 29.3750 6.6902 0.0000 0.0000 0.0000
# 2 29.3750 85.6998 47.8707 0.0000 0.0000 0.0000
# 3 6.6902 47.8707 50.8889 0.0000 0.0000 0.0000
# 4 0.0000 0.0000 0.0000 49.2664 0.0000 0.0000
# 5 0.0000 0.0000 0.0000 0.0000 7.6898 0.0000
# 6 0.0000 0.0000 0.0000 0.0000 0.0000 -12.7904
#
#
#
# Elastic Compliance Matrix: (Units=1/GPa)
#
#
# Indices 1 2 3 4 5 6 
#
# 1 0.011747 -0.006667 0.004727 0.000000 0.000000 0.000000
# 2 -0.006667 0.028373 -0.025814 0.000000 0.000000 0.000000
# 3 0.004727 -0.025814 0.043312 0.000000 0.000000 0.000000
# 4 0.000000 0.000000 0.000000 0.020298 0.000000 0.000000
# 5 0.000000 0.000000 0.000000 0.000000 0.130042 0.000000
# 6 0.000000 0.000000 0.000000 0.000000 0.000000 -0.078183
#
#
# Mechanical properties :
#
#
# Convention : Reuss Voigt Hill
#
# Bulk Modulus (GPa) = 35.81068 44.84126 40.32597
# Shear Modulus (GPa) = 22.68569 18.95075 20.81822
#
# Velocity S-wave (km/s) = 3.07316 2.80881 2.94395
# Velocity P-wave (km/s) = 5.24412 5.40251 5.32391
#
# Compressibility (1/GPa) = 0.02792463
#
# Stress axis : x y z
#
# Youngs Moduli (GPa) = 85.13123 35.24475 23.08831
#
# Poissons Ratio (x) = 0.23497 -0.10914
# Poissons Ratio (y) = 0.56756 0.59600
# Poissons Ratio (z) = -0.40243 0.90980
#
# Static dielectric constant tensor:
#      x y z
#    x 2.542020 0.000000 0.000000 
#    y 0.000000 2.065350 0.000000 
#    z 0.000000 0.000000 1.999040 
# 
# From -- ./inp_files/19579.got.cif
#   From: 2010.05.17/outbox.cif.g08.bks.cpg/sg64_10_cif.got.tgz:19579.got - 2010.06.03 16:29:19.
