data_PCOD9478170
_publ_section_title
;
Structure prediction by ZEFSAII (Michael W. Deem and Ramdas Pophale) SiO2 
 PCOD9478170
Probable space group: C M C A
;
_chemical_formula_sum "Si O2"
_cell_formula_units_Z 96
_cell_length_a 14.846856
_cell_length_b 11.364238
_cell_length_c 25.475680
_cell_angle_alpha 90.000000
_cell_angle_beta 90.000000
_cell_angle_gamma 90.000000
_cell_volume 4298.338383
_symmetry_space_group_name_H-M "C M C A"
_symmetry_group_IT_number 64
_symmetry_cell_setting 'orthorhombic'
loop_
_space_group_symop_operation_xyz
x,y,z
-x,1/2-y,1/2+z
x,-y,-z
-x,1/2+y,1/2-z
-x,-y,-z
x,1/2+y,1/2-z
-x,y,z
x,1/2-y,1/2+z
1/2+x,1/2+y,z
1/2-x,-y,1/2+z
1/2+x,1/2-y,-z
1/2-x,y,1/2-z
1/2-x,1/2-y,-z
1/2+x,y,1/2-z
1/2-x,1/2+y,z
1/2+x,-y,1/2+z
loop_
_atom_site_type_symbol
_atom_site_label
_atom_site_fract_x
_atom_site_fract_y
_atom_site_fract_z
Si Si1 0.500000 0.884351 0.285567
Si Si2 0.500000 0.347525 0.090140
Si Si3 0.000000 0.122562 0.074692
Si Si4 0.810467 0.110113 0.800358
Si Si5 0.347112 0.440299 0.374032
Si Si6 0.654878 0.698597 0.381347
Si Si7 0.683363 0.753467 0.548934
Si Si8 0.500000 0.220535 0.824267
O O1 0.500000 0.846324 0.346209
O O2 0.595952 0.950138 0.283058
O O3 0.500000 0.785946 0.239256
O O4 0.408062 0.277124 0.080292
O O5 0.500000 0.481504 0.071973
O O6 0.910549 0.176423 0.047795
O O7 0.000000 0.167192 0.136174
O O8 0.750000 0.122827 0.750000
O O9 0.749942 0.051333 0.845438
O O10 0.834085 0.236457 0.825706
O O11 0.385761 0.570108 0.376752
O O12 0.336758 0.378415 0.430334
O O13 0.412206 0.354071 0.341685
O O14 0.754228 0.690527 0.405570
O O15 0.750000 0.750000 0.500000
#
# Coordination Sequence:
#
# PCOD9478170 Si02
#       8
#     8   8   8  16  16  16  16   8
#     4  10  20  36  57  90 134 170 235 261 312 404
#     4  10  23  45  63 104 140 181 228 275 343 405
#     4  10  24  45  73  96 142 177 225 296 345 411
#     4  10  20  37  56  89 130 178 229 269 326 398
#     4  10  21  40  64  91 135 176 219 280 342 394
#     4  10  23  40  64  93 140 174 217 286 335 409
#     4  10  24  44  70 102 127 172 231 279 353 415
#     4  10  19  40  61  95 130 178 223 273 329 391
#
# _framework density 22.334209999999999
#
# number of rings (size 3 to 8) (size 9 to 14) (size 15 to 20)
#    0.000    2.000    1.667    0.500    7.000    2.000 
#    6.000    1.667    0.000    4.000    0.000    0.000 
#    0.000    0.000    0.000    0.000    0.000    0.000 
#
# Total GULP energy -267682.491810 kJ/mol
# GULP energy per Si atom -5576.718579 kJ/mol
# Density = 2.228338 g / cm^3
# Si number density = 22.334210 Si / 1000 Ang^3
#
#
#
# Elastic Constant Matrix: (Units=GPa)
#
#
# Indices 1 2 3 4 5 6 
#
# 1 187.0004 41.2864 33.3335 0.0000 0.0000 0.0000
# 2 41.2864 124.4878 28.5349 0.0000 0.0000 0.0000
# 3 33.3335 28.5349 81.7488 0.0000 0.0000 0.0000
# 4 0.0000 0.0000 0.0000 6.6886 0.0000 0.0000
# 5 0.0000 0.0000 0.0000 0.0000 28.3736 0.0000
# 6 0.0000 0.0000 0.0000 0.0000 0.0000 9.9536
#
#
#
# Elastic Compliance Matrix: (Units=1/GPa)
#
#
# Indices 1 2 3 4 5 6 
#
# 1 0.006034 -0.001562 -0.001915 0.000000 0.000000 0.000000
# 2 -0.001562 0.009136 -0.002552 0.000000 0.000000 0.000000
# 3 -0.001915 -0.002552 0.013904 0.000000 0.000000 0.000000
# 4 0.000000 0.000000 0.000000 0.149508 0.000000 0.000000
# 5 0.000000 0.000000 0.000000 0.000000 0.035244 0.000000
# 6 0.000000 0.000000 0.000000 0.000000 0.000000 0.100466
#
#
# Mechanical properties :
#
#
# Convention : Reuss Voigt Hill
#
# Bulk Modulus (GPa) = 58.76932 66.61627 62.69279
# Shear Modulus (GPa) = 15.05926 28.34200 21.70063
#
# Velocity S-wave (km/s) = 2.59949 3.56616 3.12048
# Velocity P-wave (km/s) = 5.94815 6.84459 6.41206
#
# Compressibility (1/GPa) = 0.01701568
#
# Stress axis : x y z
#
# Youngs Moduli (GPa) = 165.73182 109.45754 71.92045
#
# Poissons Ratio (x) = 0.17099 0.13773
# Poissons Ratio (y) = 0.25890 0.18354
# Poissons Ratio (z) = 0.31738 0.27933
#
# Static dielectric constant tensor:
#      x y z
#    x 1.932930 0.000000 0.000000 
#    y 0.000000 1.825500 0.000000 
#    z 0.000000 0.000000 1.859970 
# 
# From -- ./inp_files/45799.got.cif
#   From: 2010.05.17/outbox.cif.g08.bks.cpg/sg64_23_cif.got.tgz:45799.got - 2010.06.03 16:29:19.
