data_PCOD9478994
_publ_section_title
;
Structure prediction by ZEFSAII (Michael W. Deem and Ramdas Pophale) SiO2 
 PCOD9478994
Probable space group: C M C A
;
_chemical_formula_sum "Si O2"
_cell_formula_units_Z 88
_cell_length_a 18.066733
_cell_length_b 13.913054
_cell_length_c 17.177255
_cell_angle_alpha 90.000000
_cell_angle_beta 90.000000
_cell_angle_gamma 90.000000
_cell_volume 4317.733766
_symmetry_space_group_name_H-M "C M C A"
_symmetry_group_IT_number 64
_symmetry_cell_setting 'orthorhombic'
loop_
_space_group_symop_operation_xyz
x,y,z
-x,1/2-y,1/2+z
x,-y,-z
-x,1/2+y,1/2-z
-x,-y,-z
x,1/2+y,1/2-z
-x,y,z
x,1/2-y,1/2+z
1/2+x,1/2+y,z
1/2-x,-y,1/2+z
1/2+x,1/2-y,-z
1/2-x,y,1/2-z
1/2-x,1/2-y,-z
1/2+x,y,1/2-z
1/2-x,1/2+y,z
1/2+x,-y,1/2+z
loop_
_atom_site_type_symbol
_atom_site_label
_atom_site_fract_x
_atom_site_fract_y
_atom_site_fract_z
Si Si1 0.870935 0.500000 0.000000
Si Si2 0.500000 0.626023 0.569164
Si Si3 0.343601 0.517628 0.198365
Si Si4 0.500000 0.172236 0.522718
Si Si5 0.000000 0.421267 0.640527
Si Si6 0.296379 0.391554 0.639108
Si Si7 0.129261 0.314284 0.350405
Si Si8 0.500000 0.218761 0.771609
O O1 0.822697 0.560299 0.059890
O O2 0.926564 0.430801 0.046161
O O3 0.500000 0.724220 0.519750
O O4 0.500000 0.640843 0.660922
O O5 0.427238 0.526051 0.170017
O O6 0.333333 0.550287 0.287882
O O7 0.290554 0.590933 0.152137
O O8 0.324161 0.407900 0.175614
O O9 0.500000 0.096829 0.451807
O O10 0.574189 0.166808 0.575931
O O11 0.000000 0.319452 0.684121
O O12 0.321135 0.280716 0.638966
O O13 0.072051 0.290643 0.281192
#
# Coordination Sequence:
#
# PCOD9478994 Si02
#       8
#     8   8  16   8   8  16  16   8
#     4  11  22  40  68  93 150 164 220 285 336 390
#     4  10  20  36  64 107 123 179 218 270 327 400
#     4  11  26  44  70  95 132 180 226 273 332 403
#     4  10  22  39  67 102 131 169 220 278 325 391
#     4  11  22  44  69  96 131 170 228 273 325 399
#     4  11  25  45  64 101 133 176 221 277 338 400
#     4  11  22  44  67  96 136 176 219 277 332 397
#     4  10  20  37  72  95 129 172 224 266 333 386
#
# _framework density 20.381062
#
# number of rings (size 3 to 8) (size 9 to 14) (size 15 to 20)
#    0.000    1.273    3.636    2.182    0.000    7.273 
#    6.545    1.818    0.000    0.000    0.000    0.000 
#    0.000    0.000    0.000    0.000    0.000    0.000 
#
# Total GULP energy -245928.118877 kJ/mol
# GULP energy per Si atom -5589.275429 kJ/mol
# Density = 2.033467 g / cm^3
# Si number density = 20.381062 Si / 1000 Ang^3
#
#
#
# Elastic Constant Matrix: (Units=GPa)
#
#
# Indices 1 2 3 4 5 6 
#
# 1 93.5344 11.3477 18.3523 0.0000 0.0000 0.0000
# 2 11.3477 54.3769 3.4068 0.0000 0.0000 0.0000
# 3 18.3523 3.4068 78.7214 0.0000 0.0000 0.0000
# 4 0.0000 0.0000 0.0000 20.9635 0.0000 0.0000
# 5 0.0000 0.0000 0.0000 0.0000 -7.9094 0.0000
# 6 0.0000 0.0000 0.0000 0.0000 0.0000 27.9073
#
#
#
# Elastic Compliance Matrix: (Units=1/GPa)
#
#
# Indices 1 2 3 4 5 6 
#
# 1 0.011468 -0.002232 -0.002577 0.000000 0.000000 0.000000
# 2 -0.002232 0.018874 -0.000297 0.000000 0.000000 0.000000
# 3 -0.002577 -0.000297 0.013317 0.000000 0.000000 0.000000
# 4 0.000000 0.000000 0.000000 0.047702 0.000000 0.000000
# 5 0.000000 0.000000 0.000000 0.000000 -0.126432 0.000000
# 6 0.000000 0.000000 0.000000 0.000000 0.000000 0.035833
#
#
# Mechanical properties :
#
#
# Convention : Reuss Voigt Hill
#
# Bulk Modulus (GPa) = 29.89673 32.53848 31.21760
# Shear Modulus (GPa) = 226.03094 21.09402 123.56248
#
# Velocity S-wave (km/s) = 10.54245 3.22060 7.79472
# Velocity P-wave (km/s) = 12.76290 5.46163 9.81634
#
# Compressibility (1/GPa) = 0.03344847
#
# Stress axis : x y z
#
# Youngs Moduli (GPa) = 87.20217 52.98158 75.09420
#
# Poissons Ratio (x) = 0.11824 0.19351
# Poissons Ratio (y) = 0.19461 0.02227
# Poissons Ratio (z) = 0.22471 0.01571
#
# Static dielectric constant tensor:
#      x y z
#    x 1.683620 0.000000 0.000000 
#    y 0.000000 1.743110 0.000000 
#    z 0.000000 0.000000 1.702110 
# 
# From -- ./inp_files/33183.got.cif
#   From: 2010.05.17/outbox.cif.g08.bks.cpg/sg64_17_cif.got.tgz:33183.got - 2010.06.03 16:29:19.
