data_PCOD9478308
_publ_section_title
;
Structure prediction by ZEFSAII (Michael W. Deem and Ramdas Pophale) SiO2 
 PCOD9478308
Probable space group: C M C A
;
_chemical_formula_sum "Si O2"
_cell_formula_units_Z 80
_cell_length_a 25.303535
_cell_length_b 19.216968
_cell_length_c 8.487849
_cell_angle_alpha 90.000000
_cell_angle_beta 90.000000
_cell_angle_gamma 90.000000
_cell_volume 4127.277879
_symmetry_space_group_name_H-M "C M C A"
_symmetry_group_IT_number 64
_symmetry_cell_setting 'orthorhombic'
loop_
_space_group_symop_operation_xyz
x,y,z
-x,1/2-y,1/2+z
x,-y,-z
-x,1/2+y,1/2-z
-x,-y,-z
x,1/2+y,1/2-z
-x,y,z
x,1/2-y,1/2+z
1/2+x,1/2+y,z
1/2-x,-y,1/2+z
1/2+x,1/2-y,-z
1/2-x,y,1/2-z
1/2-x,1/2-y,-z
1/2+x,y,1/2-z
1/2-x,1/2+y,z
1/2+x,-y,1/2+z
loop_
_atom_site_type_symbol
_atom_site_label
_atom_site_fract_x
_atom_site_fract_y
_atom_site_fract_z
Si Si1 0.362518 0.802021 0.147456
Si Si2 0.061351 0.169886 0.151978
Si Si3 0.788894 0.215017 0.375153
Si Si4 0.562999 0.041722 0.153384
Si Si5 0.939844 0.905161 0.182512
O O1 0.401874 0.736294 0.125243
O O2 0.320647 0.773452 0.276390
O O3 0.397741 0.863534 0.214888
O O4 0.331266 0.821487 0.988636
O O5 0.080431 0.118069 0.290858
O O6 0.000000 0.190611 0.181524
O O7 0.062329 0.124345 0.993081
O O8 0.750000 0.176958 0.250000
O O9 0.750000 0.250000 0.500000
O O10 0.500000 0.050455 0.128664
O O11 0.569825 0.986888 0.295649
O O12 0.583583 0.000000 0.000000
O O13 0.000000 0.892486 0.241343
#
# Coordination Sequence:
#
# PCOD9478308 Si02
#       5
#    16  16  16  16  16
#     4  11  19  34  55  84 107 136 182 226 277 319
#     4  10  20  33  50  78 116 151 178 212 261 326
#     4   9  20  36  54  76 106 132 174 229 281 326
#     4   9  19  33  49  71 108 153 186 212 251 313
#     4  10  20  33  50  78 116 151 178 212 261 325
#
# _framework density 19.383236
#
# number of rings (size 3 to 8) (size 9 to 14) (size 15 to 20)
#    0.000    2.200    2.000    1.200    2.800    2.400 
#    0.000    0.000    0.000    0.000    0.000   21.000 
#    0.000    0.000    0.000    0.000    0.000    0.000 
#
# Total GULP energy -222924.980702 kJ/mol
# GULP energy per Si atom -5573.124518 kJ/mol
# Density = 1.933912 g / cm^3
# Si number density = 19.383236 Si / 1000 Ang^3
#
#
#
# Elastic Constant Matrix: (Units=GPa)
#
#
# Indices 1 2 3 4 5 6 
#
# 1 98.2022 28.0426 43.8076 0.0000 0.0000 0.0000
# 2 28.0426 43.7308 6.2011 0.0000 0.0000 0.0000
# 3 43.8076 6.2011 78.6807 0.0000 0.0000 0.0000
# 4 0.0000 0.0000 0.0000 26.3004 0.0000 0.0000
# 5 0.0000 0.0000 0.0000 0.0000 46.2497 0.0000
# 6 0.0000 0.0000 0.0000 0.0000 0.0000 -0.8068
#
#
#
# Elastic Compliance Matrix: (Units=1/GPa)
#
#
# Indices 1 2 3 4 5 6 
#
# 1 0.016715 -0.009505 -0.008557 0.000000 0.000000 0.000000
# 2 -0.009505 0.028531 0.003044 0.000000 0.000000 0.000000
# 3 -0.008557 0.003044 0.017234 0.000000 0.000000 0.000000
# 4 0.000000 0.000000 0.000000 0.038022 0.000000 0.000000
# 5 0.000000 0.000000 0.000000 0.000000 0.021622 0.000000
# 6 0.000000 0.000000 0.000000 0.000000 0.000000 -1.239491
#
#
# Mechanical properties :
#
#
# Convention : Reuss Voigt Hill
#
# Bulk Modulus (GPa) = 30.82397 41.85736 36.34067
# Shear Modulus (GPa) = -4.64461 23.85282 9.60411
#
# Velocity S-wave (km/s) = -1.54965 3.51178 2.22836
# Velocity P-wave (km/s) = 3.56862 6.17130 5.04083
#
# Compressibility (1/GPa) = 0.03244228
#
# Stress axis : x y z
#
# Youngs Moduli (GPa) = 59.82782 35.04999 58.02421
#
# Poissons Ratio (x) = 0.33315 0.49653
# Poissons Ratio (y) = 0.56866 -0.17660
# Poissons Ratio (z) = 0.51196 -0.10668
#
# Static dielectric constant tensor:
#      x y z
#    x 1.699970 0.000000 0.000000 
#    y 0.000000 1.650370 0.000000 
#    z 0.000000 0.000000 1.763580 
# 
# From -- ./inp_files/10174.got.cif
#   From: 2010.05.17/outbox.cif.g08.bks.cpg/sg64_6_cif.got.tgz:10174.got - 2010.06.03 16:29:19.
