data_PCOD9478669
_publ_section_title
;
Structure prediction by ZEFSAII (Michael W. Deem and Ramdas Pophale) SiO2 
 PCOD9478669
Probable space group: C M C A
;
_chemical_formula_sum "Si O2"
_cell_formula_units_Z 96
_cell_length_a 8.892321
_cell_length_b 22.229530
_cell_length_c 24.021690
_cell_angle_alpha 90.000000
_cell_angle_beta 90.000000
_cell_angle_gamma 90.000000
_cell_volume 4748.418303
_symmetry_space_group_name_H-M "C M C A"
_symmetry_group_IT_number 64
_symmetry_cell_setting 'orthorhombic'
loop_
_space_group_symop_operation_xyz
x,y,z
-x,1/2-y,1/2+z
x,-y,-z
-x,1/2+y,1/2-z
-x,-y,-z
x,1/2+y,1/2-z
-x,y,z
x,1/2-y,1/2+z
1/2+x,1/2+y,z
1/2-x,-y,1/2+z
1/2+x,1/2-y,-z
1/2-x,y,1/2-z
1/2-x,1/2-y,-z
1/2+x,y,1/2-z
1/2-x,1/2+y,z
1/2+x,-y,1/2+z
loop_
_atom_site_type_symbol
_atom_site_label
_atom_site_fract_x
_atom_site_fract_y
_atom_site_fract_z
Si Si1 0.319538 0.591806 0.917809
Si Si2 0.321647 0.965480 0.921258
Si Si3 0.681439 0.784209 0.873875
Si Si4 0.181272 0.337699 0.310987
Si Si5 0.678480 0.846434 0.525966
Si Si6 0.321904 0.095333 0.190952
O O1 0.500000 0.582060 0.920489
O O2 0.236292 0.531290 0.936011
O O3 0.278074 0.610657 0.855310
O O4 0.285822 0.646373 0.960561
O O5 0.500000 0.958847 0.932076
O O6 0.233420 0.910907 0.949949
O O7 0.294635 0.955198 0.855391
O O8 0.500000 0.784273 0.877806
O O9 0.727982 0.724462 0.841292
O O10 0.743504 0.796459 0.935726
O O11 0.729708 0.841674 0.836617
O O12 0.250000 0.343905 0.250000
O O13 0.000000 0.336730 0.306297
O O14 0.500000 0.840297 0.531897
O O15 0.500000 0.100696 0.198463
O O16 0.250000 0.083625 0.250000
#
# Coordination Sequence:
#
# PCOD9478669 Si02
#       6
#    16  16  16  16  16  16
#     4  10  22  38  55  79 112 147 181 222 271 322
#     4  10  21  36  54  79 110 144 183 227 275 326
#     4   9  19  36  56  80 110 141 177 225 275 321
#     4  10  22  40  59  80 111 149 186 224 267 318
#     4  10  20  35  57  84 111 140 178 224 275 328
#     4   9  18  31  49  75 103 133 174 222 270 317
#
# _framework density 20.217258000000001
#
# number of rings (size 3 to 8) (size 9 to 14) (size 15 to 20)
#    0.000    2.333    0.000    3.000    0.000    9.333 
#    0.000    3.333    0.000    0.000    0.000    0.000 
#    0.000    0.000    0.000    0.000    0.000    0.000 
#
# Total GULP energy -267959.213867 kJ/mol
# GULP energy per Si atom -5582.483622 kJ/mol
# Density = 2.017124 g / cm^3
# Si number density = 20.217258 Si / 1000 Ang^3
#
#
#
# Elastic Constant Matrix: (Units=GPa)
#
#
# Indices 1 2 3 4 5 6 
#
# 1 10.3976 3.4636 21.9595 0.0000 0.0000 0.0000
# 2 3.4636 45.4763 8.1533 0.0000 0.0000 0.0000
# 3 21.9595 8.1533 101.0344 0.0000 0.0000 0.0000
# 4 0.0000 0.0000 0.0000 22.0726 0.0000 0.0000
# 5 0.0000 0.0000 0.0000 0.0000 33.3096 0.0000
# 6 0.0000 0.0000 0.0000 0.0000 0.0000 5.4210
#
#
#
# Elastic Compliance Matrix: (Units=1/GPa)
#
#
# Indices 1 2 3 4 5 6 
#
# 1 0.179827 -0.006787 -0.038537 0.000000 0.000000 0.000000
# 2 -0.006787 0.022568 -0.000346 0.000000 0.000000 0.000000
# 3 -0.038537 -0.000346 0.018301 0.000000 0.000000 0.000000
# 4 0.000000 0.000000 0.000000 0.045305 0.000000 0.000000
# 5 0.000000 0.000000 0.000000 0.000000 0.030021 0.000000
# 6 0.000000 0.000000 0.000000 0.000000 0.000000 0.184467
#
#
# Mechanical properties :
#
#
# Convention : Reuss Voigt Hill
#
# Bulk Modulus (GPa) = 7.73059 24.89568 16.31313
# Shear Modulus (GPa) = 8.13075 20.38277 14.25676
#
# Velocity S-wave (km/s) = 2.00759 3.17864 2.65840
# Velocity P-wave (km/s) = 3.03413 5.08060 4.18440
#
# Compressibility (1/GPa) = 0.12935624
#
# Stress axis : x y z
#
# Youngs Moduli (GPa) = 5.56091 44.30965 54.64053
#
# Poissons Ratio (x) = 0.30073 2.10568
# Poissons Ratio (y) = 0.03774 0.01891
# Poissons Ratio (z) = 0.21430 0.01533
#
# Static dielectric constant tensor:
#      x y z
#    x 1.680750 0.000000 0.000000 
#    y 0.000000 1.720750 0.000000 
#    z 0.000000 0.000000 1.742420 
# 
# From -- ./inp_files/42959.got.cif
#   From: 2010.05.17/outbox.cif.g08.bks.cpg/sg64_22_cif.got.tgz:42959.got - 2010.06.03 16:29:19.
