data_PCOD9478490
_publ_section_title
;
Structure prediction by ZEFSAII (Michael W. Deem and Ramdas Pophale) SiO2 
 PCOD9478490
Probable space group: C M C A
;
_chemical_formula_sum "Si O2"
_cell_formula_units_Z 64
_cell_length_a 18.452929
_cell_length_b 9.122065
_cell_length_c 15.223014
_cell_angle_alpha 90.000000
_cell_angle_beta 90.000000
_cell_angle_gamma 90.000000
_cell_volume 2562.471950
_symmetry_space_group_name_H-M "C M C A"
_symmetry_group_IT_number 64
_symmetry_cell_setting 'orthorhombic'
loop_
_space_group_symop_operation_xyz
x,y,z
-x,1/2-y,1/2+z
x,-y,-z
-x,1/2+y,1/2-z
-x,-y,-z
x,1/2+y,1/2-z
-x,y,z
x,1/2-y,1/2+z
1/2+x,1/2+y,z
1/2-x,-y,1/2+z
1/2+x,1/2-y,-z
1/2-x,y,1/2-z
1/2-x,1/2-y,-z
1/2+x,y,1/2-z
1/2-x,1/2+y,z
1/2+x,-y,1/2+z
loop_
_atom_site_type_symbol
_atom_site_label
_atom_site_fract_x
_atom_site_fract_y
_atom_site_fract_z
Si Si1 0.085661 0.372000 0.937675
Si Si2 0.167438 0.404515 0.399720
Si Si3 0.792317 0.691821 0.338670
Si Si4 0.414537 0.588227 0.717882
O O1 0.120440 0.214502 0.951801
O O2 0.095933 0.441728 0.840875
O O3 0.000000 0.358566 0.953525
O O4 0.114990 0.500000 0.000000
O O5 0.196853 0.568239 0.412962
O O6 0.237213 0.313402 0.372051
O O7 0.115781 0.435666 0.314920
O O8 0.750000 0.632698 0.250000
O O9 0.866415 0.778112 0.318690
O O10 0.500000 0.622369 0.717006
#
# Coordination Sequence:
#
# PCOD9478490 Si02
#       4
#    16  16  16  16
#     4  10  22  40  60  86 122 155 185 235 298 347
#     4  11  20  35  58  83 112 151 196 235 281 343
#     4  10  20  34  55  85 117 146 188 247 291 325
#     4  10  20  35  57  84 113 150 195 237 282 344
#
# _framework density 24.975885000000002
#
# number of rings (size 3 to 8) (size 9 to 14) (size 15 to 20)
#    0.000    1.750    0.000    7.500    0.000    4.000 
#    0.000    6.250    0.000    4.500    0.000    0.000 
#    0.000    0.000    0.000    0.000    0.000    0.000 
#
# Total GULP energy -179023.343476 kJ/mol
# GULP energy per Si atom -5594.479484 kJ/mol
# Density = 2.491904 g / cm^3
# Si number density = 24.975885 Si / 1000 Ang^3
#
#
#
# Elastic Constant Matrix: (Units=GPa)
#
#
# Indices 1 2 3 4 5 6 
#
# 1 155.5159 54.6351 22.4293 0.0000 0.0000 0.0000
# 2 54.6351 138.1513 39.6487 0.0000 0.0000 0.0000
# 3 22.4293 39.6487 42.2031 0.0000 0.0000 0.0000
# 4 0.0000 0.0000 0.0000 51.2786 0.0000 0.0000
# 5 0.0000 0.0000 0.0000 0.0000 16.8528 0.0000
# 6 0.0000 0.0000 0.0000 0.0000 0.0000 45.4067
#
#
#
# Elastic Compliance Matrix: (Units=1/GPa)
#
#
# Indices 1 2 3 4 5 6 
#
# 1 0.007551 -0.002512 -0.001653 0.000000 0.000000 0.000000
# 2 -0.002512 0.010746 -0.008761 0.000000 0.000000 0.000000
# 3 -0.001653 -0.008761 0.032804 0.000000 0.000000 0.000000
# 4 0.000000 0.000000 0.000000 0.019501 0.000000 0.000000
# 5 0.000000 0.000000 0.000000 0.000000 0.059337 0.000000
# 6 0.000000 0.000000 0.000000 0.000000 0.000000 0.022023
#
#
# Mechanical properties :
#
#
# Convention : Reuss Voigt Hill
#
# Bulk Modulus (GPa) = 39.60473 63.25516 51.42995
# Shear Modulus (GPa) = 26.84836 37.31810 32.08323
#
# Velocity S-wave (km/s) = 3.28223 3.86964 3.58798
# Velocity P-wave (km/s) = 5.50052 6.73401 6.14828
#
# Compressibility (1/GPa) = 0.02524951
#
# Stress axis : x y z
#
# Youngs Moduli (GPa) = 132.43137 93.05747 30.48399
#
# Poissons Ratio (x) = 0.23374 0.05040
# Poissons Ratio (y) = 0.33263 0.26706
# Poissons Ratio (z) = 0.21896 0.81525
#
# Static dielectric constant tensor:
#      x y z
#    x 1.904930 0.000000 0.000000 
#    y 0.000000 2.060080 0.000000 
#    z 0.000000 0.000000 2.179510 
# 
# From -- ./inp_files/39788.got.cif
#   From: 2010.05.17/outbox.cif.g08.bks.cpg/sg64_20_cif.got.tgz:39788.got - 2010.06.03 16:29:19.
