data_PCOD9478759
_publ_section_title
;
Structure prediction by ZEFSAII (Michael W. Deem and Ramdas Pophale) SiO2 
 PCOD9478759
Probable space group: C M C A
;
_chemical_formula_sum "Si O2"
_cell_formula_units_Z 112
_cell_length_a 28.330127
_cell_length_b 12.691879
_cell_length_c 17.131916
_cell_angle_alpha 90.000000
_cell_angle_beta 90.000000
_cell_angle_gamma 90.000000
_cell_volume 6159.995300
_symmetry_space_group_name_H-M "C M C A"
_symmetry_group_IT_number 64
_symmetry_cell_setting 'orthorhombic'
loop_
_space_group_symop_operation_xyz
x,y,z
-x,1/2-y,1/2+z
x,-y,-z
-x,1/2+y,1/2-z
-x,-y,-z
x,1/2+y,1/2-z
-x,y,z
x,1/2-y,1/2+z
1/2+x,1/2+y,z
1/2-x,-y,1/2+z
1/2+x,1/2-y,-z
1/2-x,y,1/2-z
1/2-x,1/2-y,-z
1/2+x,y,1/2-z
1/2-x,1/2+y,z
1/2+x,-y,1/2+z
loop_
_atom_site_type_symbol
_atom_site_label
_atom_site_fract_x
_atom_site_fract_y
_atom_site_fract_z
Si Si1 0.702796 0.887170 0.035438
Si Si2 0.945876 0.964348 0.589682
Si Si3 0.386768 0.652467 0.094100
Si Si4 0.312345 0.834113 0.470530
Si Si5 0.444406 0.726022 0.940622
Si Si6 0.126868 0.373241 0.167394
Si Si7 0.614053 0.922314 0.345502
O O1 0.758911 0.870324 0.041595
O O2 0.674929 0.881474 0.116975
O O3 0.685944 0.792839 0.978422
O O4 0.692152 0.000000 0.000000
O O5 0.929113 0.843176 0.585473
O O6 0.000000 0.968194 0.620460
O O7 0.947468 0.000000 0.500000
O O8 0.911200 0.044486 0.632797
O O9 0.388179 0.752402 0.151088
O O10 0.398030 0.543620 0.136451
O O11 0.335333 0.633757 0.053735
O O12 0.419151 0.684440 0.019600
O O13 0.344939 0.881482 0.403555
O O14 0.500000 0.730726 0.955110
O O15 0.430711 0.646931 0.871606
O O16 0.130147 0.399987 0.258002
#
# Coordination Sequence:
#
# PCOD9478759 Si02
#       7
#    16  16  16  16  16  16  16
#     4  10  20  35  63  86 109 151 202 245 266 344
#     4  10  20  38  61  84 115 147 190 249 287 330
#     4  10  21  39  59  82 116 156 192 241 282 344
#     4   9  20  39  57  85 115 151 198 235 291 324
#     4  10  21  39  64  86 107 152 205 239 280 342
#     4  11  24  35  57  90 117 152 193 231 301 349
#     4  11  24  37  58  83 126 156 179 242 297 352
#
# _framework density 18.181832
#
# number of rings (size 3 to 8) (size 9 to 14) (size 15 to 20)
#    0.000    1.857    1.429    3.000    6.000    2.286 
#    0.000    0.000    0.000    5.143    0.000    0.000 
#    0.000    0.000    0.000    0.000    0.000    0.000 
#
# Total GULP energy -312343.108119 kJ/mol
# GULP energy per Si atom -5577.555502 kJ/mol
# Density = 1.814045 g / cm^3
# Si number density = 18.181832 Si / 1000 Ang^3
#
#
#
# Elastic Constant Matrix: (Units=GPa)
#
#
# Indices 1 2 3 4 5 6 
#
# 1 61.6552 33.8128 10.4986 0.0000 0.0000 0.0000
# 2 33.8128 164.2754 71.3552 0.0000 0.0000 0.0000
# 3 10.4986 71.3552 75.8354 0.0000 0.0000 0.0000
# 4 0.0000 0.0000 0.0000 13.5604 0.0000 0.0000
# 5 0.0000 0.0000 0.0000 0.0000 9.2069 0.0000
# 6 0.0000 0.0000 0.0000 0.0000 0.0000 24.0872
#
#
#
# Elastic Compliance Matrix: (Units=1/GPa)
#
#
# Indices 1 2 3 4 5 6 
#
# 1 0.018415 -0.004537 0.001720 0.000000 0.000000 0.000000
# 2 -0.004537 0.011413 -0.010110 0.000000 0.000000 0.000000
# 3 0.001720 -0.010110 0.022462 0.000000 0.000000 0.000000
# 4 0.000000 0.000000 0.000000 0.073744 0.000000 0.000000
# 5 0.000000 0.000000 0.000000 0.000000 0.108614 0.000000
# 6 0.000000 0.000000 0.000000 0.000000 0.000000 0.041516
#
#
# Mechanical properties :
#
#
# Convention : Reuss Voigt Hill
#
# Bulk Modulus (GPa) = 37.83091 59.23324 48.53208
# Shear Modulus (GPa) = 16.08596 21.77753 18.93174
#
# Velocity S-wave (km/s) = 2.97766 3.46463 3.23033
# Velocity P-wave (km/s) = 5.71613 6.97523 6.37683
#
# Compressibility (1/GPa) = 0.02643341
#
# Stress axis : x y z
#
# Youngs Moduli (GPa) = 54.30429 87.62008 44.52058
#
# Poissons Ratio (x) = 0.39757 -0.07658
# Poissons Ratio (y) = 0.24640 0.45013
# Poissons Ratio (z) = -0.09341 0.88588
#
# Static dielectric constant tensor:
#      x y z
#    x 1.658900 0.000000 0.000000 
#    y 0.000000 1.640030 0.000000 
#    z 0.000000 0.000000 1.582980 
# 
# From -- ./inp_files/28383.got.cif
#   From: 2010.05.17/outbox.cif.g08.bks.cpg/sg64_15_cif.got.tgz:28383.got - 2010.06.03 16:29:19.
