data_PCOD9478002
_publ_section_title
;
Structure prediction by ZEFSAII (Michael W. Deem and Ramdas Pophale) SiO2 
 PCOD9478002
Probable space group: C M C A
;
_chemical_formula_sum "Si O2"
_cell_formula_units_Z 80
_cell_length_a 16.322256
_cell_length_b 17.731747
_cell_length_c 15.283839
_cell_angle_alpha 90.000000
_cell_angle_beta 90.000000
_cell_angle_gamma 90.000000
_cell_volume 4423.480991
_symmetry_space_group_name_H-M "C M C A"
_symmetry_group_IT_number 64
_symmetry_cell_setting 'orthorhombic'
loop_
_space_group_symop_operation_xyz
x,y,z
-x,1/2-y,1/2+z
x,-y,-z
-x,1/2+y,1/2-z
-x,-y,-z
x,1/2+y,1/2-z
-x,y,z
x,1/2-y,1/2+z
1/2+x,1/2+y,z
1/2-x,-y,1/2+z
1/2+x,1/2-y,-z
1/2-x,y,1/2-z
1/2-x,1/2-y,-z
1/2+x,y,1/2-z
1/2-x,1/2+y,z
1/2+x,-y,1/2+z
loop_
_atom_site_type_symbol
_atom_site_label
_atom_site_fract_x
_atom_site_fract_y
_atom_site_fract_z
Si Si1 0.090553 0.744285 0.887918
Si Si2 0.901180 0.443290 0.889714
Si Si3 0.842439 0.702478 0.211913
Si Si4 0.817781 0.305462 0.455872
Si Si5 0.178159 0.406582 0.076929
O O1 0.100077 0.781982 0.794284
O O2 0.146961 0.670492 0.881225
O O3 0.000000 0.716290 0.905272
O O4 0.114805 0.799452 0.967926
O O5 0.871759 0.375888 0.828705
O O6 0.849771 0.519654 0.870712
O O7 0.000000 0.454429 0.888090
O O8 0.870843 0.417282 0.985977
O O9 0.750000 0.699018 0.250000
O O10 0.844401 0.765805 0.134859
O O11 0.750000 0.250000 0.500000
O O12 0.773302 0.386089 0.441916
#
# Coordination Sequence:
#
# PCOD9478002 Si02
#       5
#    16  16  16  16  16
#     4  11  21  35  60  87 117 155 196 246 296 343
#     4  11  21  34  57  89 116 142 192 252 302 342
#     4  12  21  37  56  85 117 155 201 240 288 355
#     4  10  19  37  59  79 118 152 195 236 280 359
#     4  10  19  36  58  82 115 150 185 242 298 350
#
# _framework density 18.085305000000002
#
# number of rings (size 3 to 8) (size 9 to 14) (size 15 to 20)
#    0.000    1.200    8.000    3.000    0.000    0.800 
#    3.600    0.000    0.000    0.000    0.000    4.200 
#    0.000    0.000    0.000    0.000    0.000    0.000 
#
# Total GULP energy -222742.704494 kJ/mol
# GULP energy per Si atom -5568.567612 kJ/mol
# Density = 1.804414 g / cm^3
# Si number density = 18.085305 Si / 1000 Ang^3
#
#
#
# Elastic Constant Matrix: (Units=GPa)
#
#
# Indices 1 2 3 4 5 6 
#
# 1 32.2141 17.8780 18.9943 0.0000 0.0000 0.0000
# 2 17.8780 98.9519 40.7015 0.0000 0.0000 0.0000
# 3 18.9943 40.7015 99.7106 0.0000 0.0000 0.0000
# 4 0.0000 0.0000 0.0000 30.2614 0.0000 0.0000
# 5 0.0000 0.0000 0.0000 0.0000 -4.5181 0.0000
# 6 0.0000 0.0000 0.0000 0.0000 0.0000 19.7535
#
#
#
# Elastic Compliance Matrix: (Units=1/GPa)
#
#
# Indices 1 2 3 4 5 6 
#
# 1 0.036562 -0.004496 -0.005130 0.000000 0.000000 0.000000
# 2 -0.004496 0.012698 -0.004327 0.000000 0.000000 0.000000
# 3 -0.005130 -0.004327 0.012772 0.000000 0.000000 0.000000
# 4 0.000000 0.000000 0.000000 0.033045 0.000000 0.000000
# 5 0.000000 0.000000 0.000000 0.000000 -0.221331 0.000000
# 6 0.000000 0.000000 0.000000 0.000000 0.000000 0.050624
#
#
# Mechanical properties :
#
#
# Convention : Reuss Voigt Hill
#
# Bulk Modulus (GPa) = 29.30174 42.89158 36.09666
# Shear Modulus (GPa) = -137.55473 19.31955 -59.11759
#
# Velocity S-wave (km/s) = -8.73063 3.27195 -5.72356
# Velocity P-wave (km/s) = 9.24093 6.16782 4.86584
#
# Compressibility (1/GPa) = 0.03412767
#
# Stress axis : x y z
#
# Youngs Moduli (GPa) = 27.35085 78.75302 78.29385
#
# Poissons Ratio (x) = 0.35406 0.40162
# Poissons Ratio (y) = 0.12296 0.33876
# Poissons Ratio (z) = 0.14030 0.34075
#
# Static dielectric constant tensor:
#      x y z
#    x 1.671900 0.000000 0.000000 
#    y 0.000000 1.652420 0.000000 
#    z 0.000000 0.000000 1.678610 
# 
# From -- ./inp_files/25286.got.cif
#   From: 2010.05.17/outbox.cif.g08.bks.cpg/sg64_13_cif.got.tgz:25286.got - 2010.06.03 16:29:19.
