data_PCOD9478257
_publ_section_title
;
Structure prediction by ZEFSAII (Michael W. Deem and Ramdas Pophale) SiO2 
 PCOD9478257
Probable space group: C M C A
;
_chemical_formula_sum "Si O2"
_cell_formula_units_Z 96
_cell_length_a 22.776909
_cell_length_b 22.379038
_cell_length_c 9.092844
_cell_angle_alpha 90.000000
_cell_angle_beta 90.000000
_cell_angle_gamma 90.000000
_cell_volume 4634.852745
_symmetry_space_group_name_H-M "C M C A"
_symmetry_group_IT_number 64
_symmetry_cell_setting 'orthorhombic'
loop_
_space_group_symop_operation_xyz
x,y,z
-x,1/2-y,1/2+z
x,-y,-z
-x,1/2+y,1/2-z
-x,-y,-z
x,1/2+y,1/2-z
-x,y,z
x,1/2-y,1/2+z
1/2+x,1/2+y,z
1/2-x,-y,1/2+z
1/2+x,1/2-y,-z
1/2-x,y,1/2-z
1/2-x,1/2-y,-z
1/2+x,y,1/2-z
1/2-x,1/2+y,z
1/2+x,-y,1/2+z
loop_
_atom_site_type_symbol
_atom_site_label
_atom_site_fract_x
_atom_site_fract_y
_atom_site_fract_z
Si Si1 0.068089 0.589506 0.445806
Si Si2 0.930090 0.473489 0.245925
Si Si3 0.500000 0.744288 0.365322
Si Si4 0.882313 0.819642 0.757100
Si Si5 0.000000 0.325782 0.132542
Si Si6 0.708105 0.278172 0.372253
Si Si7 0.120582 0.383916 0.035617
O O1 0.074241 0.570732 0.614310
O O2 0.083096 0.535607 0.331543
O O3 0.104058 0.647986 0.409231
O O4 0.000000 0.601188 0.414499
O O5 0.885991 0.448192 0.119163
O O6 0.000000 0.476256 0.199117
O O7 0.440059 0.714103 0.305109
O O8 0.500000 0.810497 0.302499
O O9 0.500000 0.735702 0.539288
O O10 0.830776 0.773275 0.792266
O O11 0.871874 0.873143 0.639066
O O12 0.943319 0.359861 0.080603
O O13 0.750000 0.304188 0.250000
O O14 0.750000 0.250000 0.500000
O O15 0.666107 0.333107 0.413226
#
# Coordination Sequence:
#
# PCOD9478257 Si02
#       7
#    16  16   8  16   8  16  16
#     4   9  19  35  57  90 126 157 190 234 298 366
#     4   9  19  35  57  90 126 157 191 235 298 369
#     4  10  20  32  51  84 117 147 184 232 304 359
#     4  11  22  37  58  86 121 153 194 248 301 366
#     4  10  20  32  51  84 117 147 184 236 300 359
#     4  12  26  43  58  85 118 161 209 252 304 360
#     4  11  22  37  58  86 121 153 195 247 302 365
#
# _framework density 20.712631999999999
#
# number of rings (size 3 to 8) (size 9 to 14) (size 15 to 20)
#    0.000    1.667    5.000    1.000    2.333    2.000 
#    0.000    1.667    0.000    1.000    0.000    0.000 
#    0.000    0.000    0.000    0.000    0.000    0.000 
#
# Total GULP energy -267315.676919 kJ/mol
# GULP energy per Si atom -5569.076602 kJ/mol
# Density = 2.066549 g / cm^3
# Si number density = 20.712632 Si / 1000 Ang^3
#
#
#
# Elastic Constant Matrix: (Units=GPa)
#
#
# Indices 1 2 3 4 5 6 
#
# 1 79.5166 15.5791 28.0113 0.0000 0.0000 0.0000
# 2 15.5791 43.9372 28.0828 0.0000 0.0000 0.0000
# 3 28.0113 28.0828 69.3208 0.0000 0.0000 0.0000
# 4 0.0000 0.0000 0.0000 47.1605 0.0000 0.0000
# 5 0.0000 0.0000 0.0000 0.0000 35.2546 0.0000
# 6 0.0000 0.0000 0.0000 0.0000 0.0000 39.9690
#
#
#
# Elastic Compliance Matrix: (Units=1/GPa)
#
#
# Indices 1 2 3 4 5 6 
#
# 1 0.014782 -0.001921 -0.005195 0.000000 0.000000 0.000000
# 2 -0.001921 0.030962 -0.011767 0.000000 0.000000 0.000000
# 3 -0.005195 -0.011767 0.021292 0.000000 0.000000 0.000000
# 4 0.000000 0.000000 0.000000 0.021204 0.000000 0.000000
# 5 0.000000 0.000000 0.000000 0.000000 0.028365 0.000000
# 6 0.000000 0.000000 0.000000 0.000000 0.000000 0.025019
#
#
# Mechanical properties :
#
#
# Convention : Reuss Voigt Hill
#
# Bulk Modulus (GPa) = 34.16439 37.34675 35.75557
# Shear Modulus (GPa) = 26.43447 32.55027 29.49237
#
# Velocity S-wave (km/s) = 3.57634 3.96854 3.77753
# Velocity P-wave (km/s) = 5.79516 6.25053 6.02715
#
# Compressibility (1/GPa) = 0.02927024
#
# Stress axis : x y z
#
# Youngs Moduli (GPa) = 67.64788 32.29794 46.96650
#
# Poissons Ratio (x) = 0.06205 0.24399
# Poissons Ratio (y) = 0.12995 0.55264
# Poissons Ratio (z) = 0.35144 0.38004
#
# Static dielectric constant tensor:
#      x y z
#    x 1.713560 0.000000 0.000000 
#    y 0.000000 1.820430 0.000000 
#    z 0.000000 0.000000 1.816140 
# 
# From -- ./inp_files/9522.got.cif
#   From: 2010.05.17/outbox.cif.g08.bks.cpg/sg64_5_cif.got.tgz:9522.got - 2010.06.03 16:29:19.
