data_PCOD9478645
_publ_section_title
;
Structure prediction by ZEFSAII (Michael W. Deem and Ramdas Pophale) SiO2 
 PCOD9478645
Probable space group: C M C A
;
_chemical_formula_sum "Si O2"
_cell_formula_units_Z 96
_cell_length_a 21.110895
_cell_length_b 17.236471
_cell_length_c 15.126266
_cell_angle_alpha 90.000000
_cell_angle_beta 90.000000
_cell_angle_gamma 90.000000
_cell_volume 5504.105277
_symmetry_space_group_name_H-M "C M C A"
_symmetry_group_IT_number 64
_symmetry_cell_setting 'orthorhombic'
loop_
_space_group_symop_operation_xyz
x,y,z
-x,1/2-y,1/2+z
x,-y,-z
-x,1/2+y,1/2-z
-x,-y,-z
x,1/2+y,1/2-z
-x,y,z
x,1/2-y,1/2+z
1/2+x,1/2+y,z
1/2-x,-y,1/2+z
1/2+x,1/2-y,-z
1/2-x,y,1/2-z
1/2-x,1/2-y,-z
1/2+x,y,1/2-z
1/2-x,1/2+y,z
1/2+x,-y,1/2+z
loop_
_atom_site_type_symbol
_atom_site_label
_atom_site_fract_x
_atom_site_fract_y
_atom_site_fract_z
Si Si1 0.190742 0.602239 0.812254
Si Si2 0.380064 0.049919 0.409067
Si Si3 0.071259 0.593021 0.691347
Si Si4 0.689853 0.807111 0.002659
Si Si5 0.572384 0.693678 0.988618
Si Si6 0.733684 0.953506 0.906710
O O1 0.250000 0.623846 0.750000
O O2 0.125909 0.613474 0.759809
O O3 0.191025 0.650907 0.902277
O O4 0.200631 0.512041 0.839184
O O5 0.411820 0.130950 0.434831
O O6 0.306962 0.060500 0.381484
O O7 0.379298 0.000000 0.500000
O O8 0.416588 0.995327 0.340731
O O9 0.077604 0.646731 0.604039
O O10 0.000000 0.601519 0.725689
O O11 0.750000 0.750000 0.000000
O O12 0.625405 0.759531 0.990916
O O13 0.699466 0.872988 0.928082
O O14 0.500000 0.721048 0.997316
O O15 0.735502 0.000000 0.000000
#
# Coordination Sequence:
#
# PCOD9478645 Si02
#       6
#    16  16  16  16  16  16
#     4  11  21  36  57  80 110 142 183 233 281 321
#     4   9  15  30  55  81 106 136 178 223 265 315
#     4  10  20  35  56  83 112 143 182 230 279 324
#     4  11  21  36  57  81 110 147 187 223 268 334
#     4  10  20  35  57  83 113 148 185 224 268 325
#     4   9  18  33  55  79 103 135 181 224 260 319
#
# _framework density 17.441527000000001
#
# number of rings (size 3 to 8) (size 9 to 14) (size 15 to 20)
#    0.000    2.000    3.333    1.500    0.000    2.667 
#    0.000    6.667    0.000    5.000    0.000    0.000 
#    0.000    0.000    0.000    0.000    0.000    0.000 
#
# Total GULP energy -267773.626098 kJ/mol
# GULP energy per Si atom -5578.617210 kJ/mol
# Density = 1.740183 g / cm^3
# Si number density = 17.441527 Si / 1000 Ang^3
#
#
#
# Elastic Constant Matrix: (Units=GPa)
#
#
# Indices 1 2 3 4 5 6 
#
# 1 171.1889 72.5403 47.7809 0.0000 0.0000 0.0000
# 2 72.5403 90.9411 19.3110 0.0000 0.0000 0.0000
# 3 47.7809 19.3110 54.2655 0.0000 0.0000 0.0000
# 4 0.0000 0.0000 0.0000 19.9060 0.0000 0.0000
# 5 0.0000 0.0000 0.0000 0.0000 30.4745 0.0000
# 6 0.0000 0.0000 0.0000 0.0000 0.0000 24.7227
#
#
#
# Elastic Compliance Matrix: (Units=1/GPa)
#
#
# Indices 1 2 3 4 5 6 
#
# 1 0.010819 -0.007147 -0.006983 0.000000 0.000000 0.000000
# 2 -0.007147 0.016616 0.000380 0.000000 0.000000 0.000000
# 3 -0.006983 0.000380 0.024441 0.000000 0.000000 0.000000
# 4 0.000000 0.000000 0.000000 0.050236 0.000000 0.000000
# 5 0.000000 0.000000 0.000000 0.000000 0.032814 0.000000
# 6 0.000000 0.000000 0.000000 0.000000 0.000000 0.040449
#
#
# Mechanical properties :
#
#
# Convention : Reuss Voigt Hill
#
# Bulk Modulus (GPa) = 41.02307 66.18443 53.60375
# Shear Modulus (GPa) = 23.69652 26.80484 25.25068
#
# Velocity S-wave (km/s) = 3.68995 3.92451 3.80904
# Velocity P-wave (km/s) = 6.45955 7.65275 7.08132
#
# Compressibility (1/GPa) = 0.02437653
#
# Stress axis : x y z
#
# Youngs Moduli (GPa) = 92.42947 60.18115 40.91477
#
# Poissons Ratio (x) = 0.43013 0.28570
# Poissons Ratio (y) = 0.66061 -0.01554
# Poissons Ratio (z) = 0.64542 -0.02286
#
# Static dielectric constant tensor:
#      x y z
#    x 1.576620 0.000000 0.000000 
#    y 0.000000 1.593410 0.000000 
#    z 0.000000 0.000000 1.595720 
# 
# From -- ./inp_files/33271.got.cif
#   From: 2010.05.17/outbox.cif.g08.bks.cpg/sg64_17_cif.got.tgz:33271.got - 2010.06.03 16:29:19.
