data_PCOD9478986
_publ_section_title
;
Structure prediction by ZEFSAII (Michael W. Deem and Ramdas Pophale) SiO2 
 PCOD9478986
Probable space group: C M C A
;
_chemical_formula_sum "Si O2"
_cell_formula_units_Z 64
_cell_length_a 14.500900
_cell_length_b 10.787161
_cell_length_c 21.292479
_cell_angle_alpha 90.000000
_cell_angle_beta 90.000000
_cell_angle_gamma 90.000000
_cell_volume 3330.645003
_symmetry_space_group_name_H-M "C M C A"
_symmetry_group_IT_number 64
_symmetry_cell_setting 'orthorhombic'
loop_
_space_group_symop_operation_xyz
x,y,z
-x,1/2-y,1/2+z
x,-y,-z
-x,1/2+y,1/2-z
-x,-y,-z
x,1/2+y,1/2-z
-x,y,z
x,1/2-y,1/2+z
1/2+x,1/2+y,z
1/2-x,-y,1/2+z
1/2+x,1/2-y,-z
1/2-x,y,1/2-z
1/2-x,1/2-y,-z
1/2+x,y,1/2-z
1/2-x,1/2+y,z
1/2+x,-y,1/2+z
loop_
_atom_site_type_symbol
_atom_site_label
_atom_site_fract_x
_atom_site_fract_y
_atom_site_fract_z
Si Si1 0.701843 0.242746 0.155013
Si Si2 0.393921 0.217832 0.786782
Si Si3 0.249718 0.621059 0.962412
Si Si4 0.895895 0.503602 0.883643
O O1 0.640290 0.278169 0.215162
O O2 0.808160 0.219553 0.176251
O O3 0.698936 0.350338 0.103033
O O4 0.664361 0.117759 0.124827
O O5 0.500000 0.264628 0.792585
O O6 0.393799 0.081947 0.818823
O O7 0.147071 0.587169 0.938451
O O8 0.283681 0.500000 0.000000
O O9 0.250000 0.750000 0.000000
O O10 0.000000 0.469495 0.897525
#
# Coordination Sequence:
#
# PCOD9478986 Si02
#       4
#    16  16  16  16
#     4  10  20  36  63  92 124 161 207 260 320 367
#     4   9  20  37  59  91 123 158 205 255 313 382
#     4  11  22  41  62  90 121 167 219 264 311 373
#     4  10  21  39  64  91 124 170 213 254 320 391
#
# _framework density 19.215496999999999
#
# number of rings (size 3 to 8) (size 9 to 14) (size 15 to 20)
#    0.000    2.000    2.500    0.750    0.000    8.500 
#    0.000    0.000    0.000   12.750    0.000    0.000 
#    0.000    0.000    0.000    0.000    0.000    0.000 
#
# Total GULP energy -178288.451894 kJ/mol
# GULP energy per Si atom -5571.514122 kJ/mol
# Density = 1.917176 g / cm^3
# Si number density = 19.215497 Si / 1000 Ang^3
#
#
#
# Elastic Constant Matrix: (Units=GPa)
#
#
# Indices 1 2 3 4 5 6 
#
# 1 151.2346 61.7836 43.4157 0.0000 0.0000 0.0000
# 2 61.7836 101.5009 56.2749 0.0000 0.0000 0.0000
# 3 43.4157 56.2749 103.4433 0.0000 0.0000 0.0000
# 4 0.0000 0.0000 0.0000 25.7008 0.0000 0.0000
# 5 0.0000 0.0000 0.0000 0.0000 12.0285 0.0000
# 6 0.0000 0.0000 0.0000 0.0000 0.0000 28.5042
#
#
#
# Elastic Compliance Matrix: (Units=1/GPa)
#
#
# Indices 1 2 3 4 5 6 
#
# 1 0.008892 -0.004787 -0.001128 0.000000 0.000000 0.000000
# 2 -0.004787 0.016684 -0.007067 0.000000 0.000000 0.000000
# 3 -0.001128 -0.007067 0.013985 0.000000 0.000000 0.000000
# 4 0.000000 0.000000 0.000000 0.038909 0.000000 0.000000
# 5 0.000000 0.000000 0.000000 0.000000 0.083136 0.000000
# 6 0.000000 0.000000 0.000000 0.000000 0.000000 0.035083
#
#
# Mechanical properties :
#
#
# Convention : Reuss Voigt Hill
#
# Bulk Modulus (GPa) = 73.54600 75.45861 74.50230
# Shear Modulus (GPa) = 22.00843 26.22700 24.11771
#
# Velocity S-wave (km/s) = 3.38797 3.69845 3.54661
# Velocity P-wave (km/s) = 7.32543 7.58900 7.45838
#
# Compressibility (1/GPa) = 0.01359693
#
# Stress axis : x y z
#
# Youngs Moduli (GPa) = 112.46518 59.93600 71.50434
#
# Poissons Ratio (x) = 0.28693 0.08062
# Poissons Ratio (y) = 0.53839 0.50535
# Poissons Ratio (z) = 0.12681 0.42359
#
# Static dielectric constant tensor:
#      x y z
#    x 1.671200 0.000000 0.000000 
#    y 0.000000 1.662720 0.000000 
#    z 0.000000 0.000000 1.728280 
# 
# From -- ./inp_files/31637.got.cif
#   From: 2010.05.17/outbox.cif.g08.bks.cpg/sg64_16_cif.got.tgz:31637.got - 2010.06.03 16:29:19.
