data_PCOD9478388
_publ_section_title
;
Structure prediction by ZEFSAII (Michael W. Deem and Ramdas Pophale) SiO2 
 PCOD9478388
Probable space group: C M C A
;
_chemical_formula_sum "Si O2"
_cell_formula_units_Z 96
_cell_length_a 7.521947
_cell_length_b 24.766313
_cell_length_c 27.003844
_cell_angle_alpha 90.000000
_cell_angle_beta 90.000000
_cell_angle_gamma 90.000000
_cell_volume 5030.570234
_symmetry_space_group_name_H-M "C M C A"
_symmetry_group_IT_number 64
_symmetry_cell_setting 'orthorhombic'
loop_
_space_group_symop_operation_xyz
x,y,z
-x,1/2-y,1/2+z
x,-y,-z
-x,1/2+y,1/2-z
-x,-y,-z
x,1/2+y,1/2-z
-x,y,z
x,1/2-y,1/2+z
1/2+x,1/2+y,z
1/2-x,-y,1/2+z
1/2+x,1/2-y,-z
1/2-x,y,1/2-z
1/2-x,1/2-y,-z
1/2+x,y,1/2-z
1/2-x,1/2+y,z
1/2+x,-y,1/2+z
loop_
_atom_site_type_symbol
_atom_site_label
_atom_site_fract_x
_atom_site_fract_y
_atom_site_fract_z
Si Si1 0.782785 0.023321 0.946012
Si Si2 0.216082 0.177975 0.041442
Si Si3 0.710464 0.420755 0.890965
Si Si4 0.704070 0.257884 0.126941
Si Si5 0.781929 0.353516 0.432841
Si Si6 0.710060 0.339103 0.692250
O O1 0.724145 0.084280 0.935094
O O2 0.000000 0.025713 0.946826
O O3 0.722336 0.979972 0.904840
O O4 0.730721 0.000000 0.000000
O O5 0.274237 0.122866 0.068784
O O6 0.292383 0.225457 0.074939
O O7 0.000000 0.181445 0.043557
O O8 0.271305 0.173995 0.984775
O O9 0.500000 0.423943 0.898295
O O10 0.737212 0.392666 0.838033
O O11 0.500000 0.267059 0.142444
O O12 0.780711 0.316291 0.112727
O O13 0.786474 0.214912 0.165529
O O14 0.000000 0.353147 0.431931
O O15 0.500000 0.335516 0.685801
O O16 0.750000 0.341395 0.750000
#
# Coordination Sequence:
#
# PCOD9478388 Si02
#       6
#    16  16  16  16  16  16
#     4   9  14  23  42  69  98 128 161 189 211 253
#     4   9  15  24  41  64  92 124 155 184 213 257
#     4   9  16  27  46  72  96 120 154 192 227 261
#     4   9  18  29  42  64  92 118 147 187 233 273
#     4   9  15  24  40  64  95 127 155 183 215 257
#     4  10  20  34  51  68  87 113 149 195 243 285
#
# _framework density 19.083324999999999
#
# number of rings (size 3 to 8) (size 9 to 14) (size 15 to 20)
#    0.000    2.833    1.667    1.000    0.000    0.667 
#    0.000    0.000    0.000    3.500    0.000    2.333 
#    0.000    0.000    0.000    0.000    0.000    0.000 
#
# Total GULP energy -267478.970159 kJ/mol
# GULP energy per Si atom -5572.478545 kJ/mol
# Density = 1.903989 g / cm^3
# Si number density = 19.083325 Si / 1000 Ang^3
#
#
#
# Elastic Constant Matrix: (Units=GPa)
#
#
# Indices 1 2 3 4 5 6 
#
# 1 42.5740 -8.6119 -13.6000 0.0000 0.0000 0.0000
# 2 -8.6119 105.7810 58.4770 0.0000 0.0000 0.0000
# 3 -13.6000 58.4770 102.2304 0.0000 0.0000 0.0000
# 4 0.0000 0.0000 0.0000 12.5690 0.0000 0.0000
# 5 0.0000 0.0000 0.0000 0.0000 -5.7777 0.0000
# 6 0.0000 0.0000 0.0000 0.0000 0.0000 6.5790
#
#
#
# Elastic Compliance Matrix: (Units=1/GPa)
#
#
# Indices 1 2 3 4 5 6 
#
# 1 0.024537 0.000282 0.003103 0.000000 0.000000 0.000000
# 2 0.000282 0.013829 -0.007873 0.000000 0.000000 0.000000
# 3 0.003103 -0.007873 0.014698 0.000000 0.000000 0.000000
# 4 0.000000 0.000000 0.000000 0.079561 0.000000 0.000000
# 5 0.000000 0.000000 0.000000 0.000000 -0.173079 0.000000
# 6 0.000000 0.000000 0.000000 0.000000 0.000000 0.152000
#
#
# Mechanical properties :
#
#
# Convention : Reuss Voigt Hill
#
# Bulk Modulus (GPa) = 22.68185 35.90175 29.29180
# Shear Modulus (GPa) = 36.97809 16.96207 26.97008
#
# Velocity S-wave (km/s) = 4.40673 2.98458 3.76344
# Velocity P-wave (km/s) = 6.14848 5.54355 5.85384
#
# Compressibility (1/GPa) = 0.04408811
#
# Stress axis : x y z
#
# Youngs Moduli (GPa) = 40.75519 72.31439 68.03766
#
# Poissons Ratio (x) = -0.02042 -0.21110
# Poissons Ratio (y) = -0.01151 0.53563
# Poissons Ratio (z) = -0.12645 0.56930
#
# Static dielectric constant tensor:
#      x y z
#    x 1.721500 0.000000 0.000000 
#    y 0.000000 1.715250 0.000000 
#    z 0.000000 0.000000 1.602470 
# 
# From -- ./inp_files/43016.got.cif
#   From: 2010.05.17/outbox.cif.g08.bks.cpg/sg64_22_cif.got.tgz:43016.got - 2010.06.03 16:29:19.
