data_PCOD9478530
_publ_section_title
;
Structure prediction by ZEFSAII (Michael W. Deem and Ramdas Pophale) SiO2 
 PCOD9478530
Probable space group: C M C A
;
_chemical_formula_sum "Si O2"
_cell_formula_units_Z 104
_cell_length_a 17.089212
_cell_length_b 14.928822
_cell_length_c 22.270639
_cell_angle_alpha 90.000000
_cell_angle_beta 90.000000
_cell_angle_gamma 90.000000
_cell_volume 5681.725599
_symmetry_space_group_name_H-M "C M C A"
_symmetry_group_IT_number 64
_symmetry_cell_setting 'orthorhombic'
loop_
_space_group_symop_operation_xyz
x,y,z
-x,1/2-y,1/2+z
x,-y,-z
-x,1/2+y,1/2-z
-x,-y,-z
x,1/2+y,1/2-z
-x,y,z
x,1/2-y,1/2+z
1/2+x,1/2+y,z
1/2-x,-y,1/2+z
1/2+x,1/2-y,-z
1/2-x,y,1/2-z
1/2-x,1/2-y,-z
1/2+x,y,1/2-z
1/2-x,1/2+y,z
1/2+x,-y,1/2+z
loop_
_atom_site_type_symbol
_atom_site_label
_atom_site_fract_x
_atom_site_fract_y
_atom_site_fract_z
Si Si1 0.909848 0.218058 0.139677
Si Si2 0.089932 0.410611 0.078192
Si Si3 0.905803 0.571771 0.696997
Si Si4 0.190568 0.547473 0.382509
Si Si5 0.712926 0.500000 0.500000
Si Si6 0.349287 0.534072 0.315635
Si Si7 0.591894 0.728169 0.283265
O O1 0.899123 0.314308 0.109221
O O2 0.847985 0.144922 0.118718
O O3 0.901106 0.227133 0.211247
O O4 0.000000 0.189061 0.128246
O O5 0.106213 0.485700 0.129177
O O6 0.000000 0.417347 0.057517
O O7 0.153339 0.425687 0.026212
O O8 0.876634 0.521252 0.637778
O O9 0.873392 0.519150 0.755481
O O10 0.877946 0.674884 0.696070
O O11 0.000000 0.570773 0.701887
O O12 0.232415 0.530092 0.445456
O O13 0.258153 0.532662 0.332677
O O14 0.370306 0.638373 0.308586
O O15 0.500000 0.723840 0.298185
#
# Coordination Sequence:
#
# PCOD9478530 Si02
#       7
#    16  16  16  16   8  16  16
#     4  10  20  36  61  89 117 153 196 233 288 359
#     4  10  20  39  65  89 113 155 198 243 291 341
#     4  11  21  37  59  86 120 153 191 238 289 354
#     4  11  24  40  57  86 118 161 194 240 297 337
#     4  10  25  42  57  78 120 156 204 252 283 338
#     4  11  21  35  58  91 124 148 184 237 296 356
#     4  10  20  34  57  90 123 152 182 229 289 356
#
# _framework density 18.304299
#
# number of rings (size 3 to 8) (size 9 to 14) (size 15 to 20)
#    0.000    1.538    3.077    2.538    0.000    3.077 
#    2.769    3.077    0.000    7.385    0.000    0.000 
#    0.000    0.000    0.000    0.000    0.000    0.000 
#
# Total GULP energy -290284.334909 kJ/mol
# GULP energy per Si atom -5582.391056 kJ/mol
# Density = 1.826264 g / cm^3
# Si number density = 18.304299 Si / 1000 Ang^3
#
#
#
# Elastic Constant Matrix: (Units=GPa)
#
#
# Indices 1 2 3 4 5 6 
#
# 1 73.4580 44.9930 32.2816 0.0000 0.0000 0.0000
# 2 44.9930 129.4213 27.3597 0.0000 0.0000 0.0000
# 3 32.2816 27.3597 51.8638 0.0000 0.0000 0.0000
# 4 0.0000 0.0000 0.0000 4.5695 0.0000 0.0000
# 5 0.0000 0.0000 0.0000 0.0000 82.7872 0.0000
# 6 0.0000 0.0000 0.0000 0.0000 0.0000 -3.7238
#
#
#
# Elastic Compliance Matrix: (Units=1/GPa)
#
#
# Indices 1 2 3 4 5 6 
#
# 1 0.021476 -0.005223 -0.010612 0.000000 0.000000 0.000000
# 2 -0.005223 0.009967 -0.002007 0.000000 0.000000 0.000000
# 3 -0.010612 -0.002007 0.026945 0.000000 0.000000 0.000000
# 4 0.000000 0.000000 0.000000 0.218842 0.000000 0.000000
# 5 0.000000 0.000000 0.000000 0.000000 0.012079 0.000000
# 6 0.000000 0.000000 0.000000 0.000000 0.000000 -0.268544
#
#
# Mechanical properties :
#
#
# Convention : Reuss Voigt Hill
#
# Bulk Modulus (GPa) = 44.04449 51.55687 47.80068
# Shear Modulus (GPa) = 78.10625 26.73383 52.42004
#
# Velocity S-wave (km/s) = 6.53939 3.82582 5.35726
# Velocity P-wave (km/s) = 9.00737 6.90967 8.02734
#
# Compressibility (1/GPa) = 0.02270432
#
# Stress axis : x y z
#
# Youngs Moduli (GPa) = 46.56460 100.33523 37.11224
#
# Poissons Ratio (x) = 0.52401 0.39384
# Poissons Ratio (y) = 0.24319 0.07448
# Poissons Ratio (z) = 0.49414 0.20137
#
# Static dielectric constant tensor:
#      x y z
#    x 1.644720 0.000000 0.000000 
#    y 0.000000 1.636360 0.000000 
#    z 0.000000 0.000000 1.617850 
# 
# From -- ./inp_files/40261.got.cif
#   From: 2010.05.17/outbox.cif.g08.bks.cpg/sg64_21_cif.got.tgz:40261.got - 2010.06.03 16:29:19.
