data_PCOD9478842
_publ_section_title
;
Structure prediction by ZEFSAII (Michael W. Deem and Ramdas Pophale) SiO2 
 PCOD9478842
Probable space group: C M C A
;
_chemical_formula_sum "Si O2"
_cell_formula_units_Z 112
_cell_length_a 29.257415
_cell_length_b 14.619461
_cell_length_c 11.928826
_cell_angle_alpha 90.000000
_cell_angle_beta 90.000000
_cell_angle_gamma 90.000000
_cell_volume 5102.288564
_symmetry_space_group_name_H-M "C M C A"
_symmetry_group_IT_number 64
_symmetry_cell_setting 'orthorhombic'
loop_
_space_group_symop_operation_xyz
x,y,z
-x,1/2-y,1/2+z
x,-y,-z
-x,1/2+y,1/2-z
-x,-y,-z
x,1/2+y,1/2-z
-x,y,z
x,1/2-y,1/2+z
1/2+x,1/2+y,z
1/2-x,-y,1/2+z
1/2+x,1/2-y,-z
1/2-x,y,1/2-z
1/2-x,1/2-y,-z
1/2+x,y,1/2-z
1/2-x,1/2+y,z
1/2+x,-y,1/2+z
loop_
_atom_site_type_symbol
_atom_site_label
_atom_site_fract_x
_atom_site_fract_y
_atom_site_fract_z
Si Si1 0.150720 0.830727 0.891148
Si Si2 0.551142 0.290497 0.964026
Si Si3 0.812971 0.636803 0.821491
Si Si4 0.625676 0.032678 0.223765
Si Si5 0.550472 0.403007 0.561995
Si Si6 0.049814 0.553326 0.619054
Si Si7 0.775862 0.667410 0.571497
O O1 0.095834 0.829927 0.905135
O O2 0.163836 0.725868 0.874072
O O3 0.159077 0.898426 0.788413
O O4 0.182329 0.864436 0.993595
O O5 0.500000 0.311761 0.918481
O O6 0.555179 0.182250 0.978320
O O7 0.553072 0.340205 0.085494
O O8 0.845800 0.550424 0.825671
O O9 0.798939 0.673675 0.696209
O O10 0.768183 0.609160 0.892702
O O11 0.593746 0.091654 0.142423
O O12 0.590669 0.981985 0.307452
O O13 0.550012 0.500000 0.500000
O O14 0.500000 0.390736 0.615986
O O15 0.050265 0.500000 0.500000
O O16 0.000000 0.537775 0.672057
O O17 0.750000 0.750000 0.500000
#
# Coordination Sequence:
#
# PCOD9478842 Si02
#       7
#    16  16  16  16  16  16  16
#     4  11  23  40  69  96 129 175 218 269 336 398
#     4  10  21  39  65  94 131 176 217 266 320 389
#     4  10  23  43  66  96 129 163 222 275 333 404
#     4  12  24  37  66  99 125 173 217 274 331 400
#     4  10  23  43  62  91 137 181 224 269 325 393
#     4  10  20  36  57  92 133 168 210 264 321 382
#     4   9  21  45  71  90 127 170 210 278 337 392
#
# _framework density 21.950934
#
# number of rings (size 3 to 8) (size 9 to 14) (size 15 to 20)
#    0.000    1.714    1.429    2.143    4.000    0.571 
#    0.000    7.857    3.143    0.000    0.000    0.000 
#    0.000    0.000    0.000    0.000    0.000    0.000 
#
# Total GULP energy -312095.602866 kJ/mol
# GULP energy per Si atom -5573.135765 kJ/mol
# Density = 2.190097 g / cm^3
# Si number density = 21.950934 Si / 1000 Ang^3
#
#
#
# Elastic Constant Matrix: (Units=GPa)
#
#
# Indices 1 2 3 4 5 6 
#
# 1 122.1879 13.8891 26.5988 0.0000 0.0000 0.0000
# 2 13.8891 81.2832 -8.3826 0.0000 0.0000 0.0000
# 3 26.5988 -8.3826 31.8333 0.0000 0.0000 0.0000
# 4 0.0000 0.0000 0.0000 22.0128 0.0000 0.0000
# 5 0.0000 0.0000 0.0000 0.0000 46.2306 0.0000
# 6 0.0000 0.0000 0.0000 0.0000 0.0000 -4.6480
#
#
#
# Elastic Compliance Matrix: (Units=1/GPa)
#
#
# Indices 1 2 3 4 5 6 
#
# 1 0.010588 -0.002798 -0.009584 0.000000 0.000000 0.000000
# 2 -0.002798 0.013385 0.005862 0.000000 0.000000 0.000000
# 3 -0.009584 0.005862 0.040965 0.000000 0.000000 0.000000
# 4 0.000000 0.000000 0.000000 0.045428 0.000000 0.000000
# 5 0.000000 0.000000 0.000000 0.000000 0.021631 0.000000
# 6 0.000000 0.000000 0.000000 0.000000 0.000000 -0.215147
#
#
# Mechanical properties :
#
#
# Convention : Reuss Voigt Hill
#
# Bulk Modulus (GPa) = 19.26764 33.27943 26.27354
# Shear Modulus (GPa) = -94.67917 26.26569 -34.20674
#
# Velocity S-wave (km/s) = -6.57463 3.46289 -3.95185
# Velocity P-wave (km/s) = 6.98840 5.58413 2.97113
#
# Compressibility (1/GPa) = 0.05190049
#
# Stress axis : x y z
#
# Youngs Moduli (GPa) = 94.44246 74.70885 24.41082
#
# Poissons Ratio (x) = 0.20901 0.23395
# Poissons Ratio (y) = 0.26422 -0.14311
# Poissons Ratio (z) = 0.90514 -0.43797
#
# Static dielectric constant tensor:
#      x y z
#    x 1.837750 0.000000 0.000000 
#    y 0.000000 1.802610 0.000000 
#    z 0.000000 0.000000 1.858000 
# 
# From -- ./inp_files/19856.got.cif
#   From: 2010.05.17/outbox.cif.g08.bks.cpg/sg64_10_cif.got.tgz:19856.got - 2010.06.03 16:29:19.
