data_PCOD9478653
_publ_section_title
;
Structure prediction by ZEFSAII (Michael W. Deem and Ramdas Pophale) SiO2 
 PCOD9478653
Probable space group: C M C A
;
_chemical_formula_sum "Si O2"
_cell_formula_units_Z 112
_cell_length_a 14.078840
_cell_length_b 29.274824
_cell_length_c 14.251197
_cell_angle_alpha 90.000000
_cell_angle_beta 90.000000
_cell_angle_gamma 90.000000
_cell_volume 5873.710125
_symmetry_space_group_name_H-M "C M C A"
_symmetry_group_IT_number 64
_symmetry_cell_setting 'orthorhombic'
loop_
_space_group_symop_operation_xyz
x,y,z
-x,1/2-y,1/2+z
x,-y,-z
-x,1/2+y,1/2-z
-x,-y,-z
x,1/2+y,1/2-z
-x,y,z
x,1/2-y,1/2+z
1/2+x,1/2+y,z
1/2-x,-y,1/2+z
1/2+x,1/2-y,-z
1/2-x,y,1/2-z
1/2-x,1/2-y,-z
1/2+x,y,1/2-z
1/2-x,1/2+y,z
1/2+x,-y,1/2+z
loop_
_atom_site_type_symbol
_atom_site_label
_atom_site_fract_x
_atom_site_fract_y
_atom_site_fract_z
Si Si1 0.613440 0.199621 0.508595
Si Si2 0.886126 0.700441 0.092916
Si Si3 0.742196 0.125711 0.992470
Si Si4 0.161948 0.590117 0.321098
Si Si5 0.606142 0.489741 0.214664
Si Si6 0.606277 0.190319 0.298127
Si Si7 0.286795 0.032306 0.906604
O O1 0.500000 0.188742 0.510970
O O2 0.627795 0.249437 0.550705
O O3 0.677810 0.159322 0.551677
O O4 0.645929 0.202745 0.399587
O O5 0.835233 0.659992 0.036625
O O6 0.848217 0.702393 0.199495
O O7 0.000000 0.691531 0.095388
O O8 0.795685 0.098209 0.075743
O O9 0.697128 0.085457 0.931284
O O10 0.250000 0.587940 0.250000
O O11 0.106719 0.543544 0.308541
O O12 0.104193 0.635442 0.298096
O O13 0.500000 0.471082 0.205594
O O14 0.645122 0.483426 0.321014
O O15 0.681826 0.470222 0.140066
O O16 0.500000 0.210099 0.297043
O O17 0.294569 0.000000 0.000000
#
# Coordination Sequence:
#
# PCOD9478653 Si02
#       7
#    16  16  16  16  16  16  16
#     4   9  20  36  55  85 118 149 198 250 296 360
#     4  10  20  35  56  86 119 152 197 246 301 366
#     4  11  21  36  61  84 117 159 195 248 307 358
#     4  11  17  34  56  84 115 145 195 257 304 352
#     4  11  24  41  63  88 122 167 211 256 312 367
#     4   9  18  31  52  80 110 146 188 243 301 344
#     4  11  23  43  60  89 129 159 204 258 306 371
#
# _framework density 19.068016
#
# number of rings (size 3 to 8) (size 9 to 14) (size 15 to 20)
#    0.000    1.714    4.286    0.857    0.000    2.286 
#    0.000    2.857    0.000    1.714    0.000    0.000 
#    0.000    0.000    0.000    0.000    0.000    0.000 
#
# Total GULP energy -312213.742086 kJ/mol
# GULP energy per Si atom -5575.245394 kJ/mol
# Density = 1.902462 g / cm^3
# Si number density = 19.068016 Si / 1000 Ang^3
#
#
#
# Elastic Constant Matrix: (Units=GPa)
#
#
# Indices 1 2 3 4 5 6 
#
# 1 62.8960 8.5945 -8.1577 0.0000 0.0000 0.0000
# 2 8.5945 107.5665 31.7062 0.0000 0.0000 0.0000
# 3 -8.1577 31.7062 28.7892 0.0000 0.0000 0.0000
# 4 0.0000 0.0000 0.0000 18.9150 0.0000 0.0000
# 5 0.0000 0.0000 0.0000 0.0000 11.6075 0.0000
# 6 0.0000 0.0000 0.0000 0.0000 0.0000 6.5242
#
#
#
# Elastic Compliance Matrix: (Units=1/GPa)
#
#
# Indices 1 2 3 4 5 6 
#
# 1 0.017752 -0.004296 0.009761 0.000000 0.000000 0.000000
# 2 -0.004296 0.014804 -0.017522 0.000000 0.000000 0.000000
# 3 0.009761 -0.017522 0.056798 0.000000 0.000000 0.000000
# 4 0.000000 0.000000 0.000000 0.052868 0.000000 0.000000
# 5 0.000000 0.000000 0.000000 0.000000 0.086151 0.000000
# 6 0.000000 0.000000 0.000000 0.000000 0.000000 0.153276
#
#
# Mechanical properties :
#
#
# Convention : Reuss Voigt Hill
#
# Bulk Modulus (GPa) = 15.32742 29.28198 22.30470
# Shear Modulus (GPa) = 11.69564 18.54991 15.12277
#
# Velocity S-wave (km/s) = 2.47931 3.12240 2.81925
# Velocity P-wave (km/s) = 4.03134 5.32815 4.72445
#
# Compressibility (1/GPa) = 0.06524255
#
# Stress axis : x y z
#
# Youngs Moduli (GPa) = 56.33085 67.54714 17.60619
#
# Poissons Ratio (x) = 0.29015 -0.17186
# Poissons Ratio (y) = 0.24197 0.30849
# Poissons Ratio (z) = -0.54985 1.18354
#
# Static dielectric constant tensor:
#      x y z
#    x 1.715080 0.000000 0.000000 
#    y 0.000000 1.655370 0.000000 
#    z 0.000000 0.000000 1.679330 
# 
# From -- ./inp_files/24367.got.cif
#   From: 2010.05.17/outbox.cif.g08.bks.cpg/sg64_13_cif.got.tgz:24367.got - 2010.06.03 16:29:19.
