data_PCOD9478129
_publ_section_title
;
Structure prediction by ZEFSAII (Michael W. Deem and Ramdas Pophale) SiO2 
 PCOD9478129
Probable space group: C M C A
;
_chemical_formula_sum "Si O2"
_cell_formula_units_Z 112
_cell_length_a 24.550457
_cell_length_b 14.335629
_cell_length_c 15.031505
_cell_angle_alpha 90.000000
_cell_angle_beta 90.000000
_cell_angle_gamma 90.000000
_cell_volume 5290.281716
_symmetry_space_group_name_H-M "C M C A"
_symmetry_group_IT_number 64
_symmetry_cell_setting 'orthorhombic'
loop_
_space_group_symop_operation_xyz
x,y,z
-x,1/2-y,1/2+z
x,-y,-z
-x,1/2+y,1/2-z
-x,-y,-z
x,1/2+y,1/2-z
-x,y,z
x,1/2-y,1/2+z
1/2+x,1/2+y,z
1/2-x,-y,1/2+z
1/2+x,1/2-y,-z
1/2-x,y,1/2-z
1/2-x,1/2-y,-z
1/2+x,y,1/2-z
1/2-x,1/2+y,z
1/2+x,-y,1/2+z
loop_
_atom_site_type_symbol
_atom_site_label
_atom_site_fract_x
_atom_site_fract_y
_atom_site_fract_z
Si Si1 0.061196 0.343822 0.889486
Si Si2 0.750988 0.407808 0.437774
Si Si3 0.699653 0.035246 0.297541
Si Si4 0.125427 0.354075 0.062661
Si Si5 0.437159 0.874510 0.392297
Si Si6 0.407878 0.484273 0.285562
Si Si7 0.351468 0.852286 0.539984
O O1 0.072191 0.235244 0.867205
O O2 0.064380 0.418105 0.810321
O O3 0.000000 0.346764 0.927347
O O4 0.103881 0.376330 0.964005
O O5 0.749849 0.500000 0.500000
O O6 0.775149 0.444454 0.345080
O O7 0.689776 0.373121 0.430167
O O8 0.795627 0.340087 0.482822
O O9 0.750000 0.086970 0.250000
O O10 0.667624 0.090618 0.374158
O O11 0.655659 0.007640 0.225503
O O12 0.090227 0.410720 0.133965
O O13 0.120967 0.242945 0.071779
O O14 0.500000 0.883943 0.421267
O O15 0.427515 0.937720 0.305762
O O16 0.394485 0.896640 0.470808
#
# Coordination Sequence:
#
# PCOD9478129 Si02
#       7
#    16  16  16  16  16  16  16
#     4  10  24  44  66  94 134 174 221 275 329 393
#     4  10  19  38  62  89 124 168 209 259 328 385
#     4  11  23  41  62  95 135 168 212 273 333 394
#     4  11  23  39  64  97 128 176 218 267 335 402
#     4  10  23  45  68  96 131 174 227 278 324 392
#     4  12  23  39  67  98 131 172 222 271 335 389
#     4  10  23  42  64  92 131 175 216 272 333 399
#
# _framework density 21.170895000000002
#
# number of rings (size 3 to 8) (size 9 to 14) (size 15 to 20)
#    0.000    1.429    2.857    2.143    4.000    1.714 
#    2.571    2.143    0.000    0.000    0.000    0.000 
#    0.000    0.000    0.000    0.000    0.000    0.000 
#
# Total GULP energy -312733.811068 kJ/mol
# GULP energy per Si atom -5584.532341 kJ/mol
# Density = 2.112271 g / cm^3
# Si number density = 21.170895 Si / 1000 Ang^3
#
#
#
# Elastic Constant Matrix: (Units=GPa)
#
#
# Indices 1 2 3 4 5 6 
#
# 1 93.2665 21.0793 28.2915 0.0000 0.0000 0.0000
# 2 21.0793 84.8842 47.4359 0.0000 0.0000 0.0000
# 3 28.2915 47.4359 92.4374 0.0000 0.0000 0.0000
# 4 0.0000 0.0000 0.0000 27.8043 0.0000 0.0000
# 5 0.0000 0.0000 0.0000 0.0000 23.0449 0.0000
# 6 0.0000 0.0000 0.0000 0.0000 0.0000 19.8378
#
#
#
# Elastic Compliance Matrix: (Units=1/GPa)
#
#
# Indices 1 2 3 4 5 6 
#
# 1 0.011919 -0.001292 -0.002985 0.000000 0.000000 0.000000
# 2 -0.001292 0.016658 -0.008153 0.000000 0.000000 0.000000
# 3 -0.002985 -0.008153 0.015916 0.000000 0.000000 0.000000
# 4 0.000000 0.000000 0.000000 0.035966 0.000000 0.000000
# 5 0.000000 0.000000 0.000000 0.000000 0.043393 0.000000
# 6 0.000000 0.000000 0.000000 0.000000 0.000000 0.050409
#
#
# Mechanical properties :
#
#
# Convention : Reuss Voigt Hill
#
# Bulk Modulus (GPa) = 50.93438 51.57795 51.25616
# Shear Modulus (GPa) = 24.31146 25.72283 25.01715
#
# Velocity S-wave (km/s) = 3.39240 3.48948 3.44128
# Velocity P-wave (km/s) = 6.28135 6.37580 6.32875
#
# Compressibility (1/GPa) = 0.01963311
#
# Stress axis : x y z
#
# Youngs Moduli (GPa) = 83.89661 60.03286 62.83178
#
# Poissons Ratio (x) = 0.07755 0.18756
# Poissons Ratio (y) = 0.10837 0.51225
# Poissons Ratio (z) = 0.25045 0.48943
#
# Static dielectric constant tensor:
#      x y z
#    x 1.766690 0.000000 0.000000 
#    y 0.000000 1.783220 0.000000 
#    z 0.000000 0.000000 1.781340 
# 
# From -- ./inp_files/27421.got.cif
#   From: 2010.05.17/outbox.cif.g08.bks.cpg/sg64_14_cif.got.tgz:27421.got - 2010.06.03 16:29:19.
