data_PCOD9478665
_publ_section_title
;
Structure prediction by ZEFSAII (Michael W. Deem and Ramdas Pophale) SiO2 
 PCOD9478665
Probable space group: C M C A
;
_chemical_formula_sum "Si O2"
_cell_formula_units_Z 96
_cell_length_a 18.469806
_cell_length_b 18.280039
_cell_length_c 15.098480
_cell_angle_alpha 90.000000
_cell_angle_beta 90.000000
_cell_angle_gamma 90.000000
_cell_volume 5097.681292
_symmetry_space_group_name_H-M "C M C A"
_symmetry_group_IT_number 64
_symmetry_cell_setting 'orthorhombic'
loop_
_space_group_symop_operation_xyz
x,y,z
-x,1/2-y,1/2+z
x,-y,-z
-x,1/2+y,1/2-z
-x,-y,-z
x,1/2+y,1/2-z
-x,y,z
x,1/2-y,1/2+z
1/2+x,1/2+y,z
1/2-x,-y,1/2+z
1/2+x,1/2-y,-z
1/2-x,y,1/2-z
1/2-x,1/2-y,-z
1/2+x,y,1/2-z
1/2-x,1/2+y,z
1/2+x,-y,1/2+z
loop_
_atom_site_type_symbol
_atom_site_label
_atom_site_fract_x
_atom_site_fract_y
_atom_site_fract_z
Si Si1 0.414747 0.159256 0.165223
Si Si2 0.682070 0.831300 0.683569
Si Si3 0.418728 0.308221 0.079010
Si Si4 0.803784 0.084828 0.997084
Si Si5 0.864112 0.083508 0.511492
Si Si6 0.079946 0.282440 0.105991
O O1 0.500000 0.146744 0.157808
O O2 0.381817 0.133680 0.257477
O O3 0.402029 0.246391 0.151793
O O4 0.375305 0.120311 0.084100
O O5 0.750000 0.825858 0.750000
O O6 0.695935 0.877854 0.594882
O O7 0.648111 0.753435 0.654871
O O8 0.500000 0.337658 0.094192
O O9 0.357813 0.368621 0.064244
O O10 0.421623 0.261882 0.987192
O O11 0.720785 0.086463 0.964866
O O12 0.826220 0.000000 0.000000
O O13 0.907323 0.133384 0.580807
O O14 0.887522 0.000000 0.500000
O O15 0.000000 0.271826 0.147862
#
# Coordination Sequence:
#
# PCOD9478665 Si02
#       6
#    16  16  16  16  16  16
#     4  10  20  35  57  83 111 142 186 241 283 332
#     4  11  21  35  58  83 110 148 188 233 286 335
#     4   8  17  33  55  80 107 142 186 231 278 330
#     4  10  21  36  56  82 117 150 190 233 275 340
#     4  10  20  35  57  84 111 149 188 231 280 338
#     4   9  19  34  55  82 110 140 184 233 274 332
#
# _framework density 18.832091999999999
#
# number of rings (size 3 to 8) (size 9 to 14) (size 15 to 20)
#    0.000    2.333    1.667    2.000    2.333    4.333 
#    0.000    1.667    0.000    2.000    0.000    0.000 
#    0.000    0.000    0.000    0.000    0.000    0.000 
#
# Total GULP energy -267533.886753 kJ/mol
# GULP energy per Si atom -5573.622641 kJ/mol
# Density = 1.878923 g / cm^3
# Si number density = 18.832092 Si / 1000 Ang^3
#
#
#
# Elastic Constant Matrix: (Units=GPa)
#
#
# Indices 1 2 3 4 5 6 
#
# 1 65.0176 41.9011 -0.0686 0.0000 0.0000 0.0000
# 2 41.9011 96.0359 0.7219 0.0000 0.0000 0.0000
# 3 -0.0686 0.7219 36.2328 0.0000 0.0000 0.0000
# 4 0.0000 0.0000 0.0000 11.7485 0.0000 0.0000
# 5 0.0000 0.0000 0.0000 0.0000 -12.7049 0.0000
# 6 0.0000 0.0000 0.0000 0.0000 0.0000 24.9112
#
#
#
# Elastic Compliance Matrix: (Units=1/GPa)
#
#
# Indices 1 2 3 4 5 6 
#
# 1 0.021399 -0.009338 0.000227 0.000000 0.000000 0.000000
# 2 -0.009338 0.014489 -0.000306 0.000000 0.000000 0.000000
# 3 0.000227 -0.000306 0.027606 0.000000 0.000000 0.000000
# 4 0.000000 0.000000 0.000000 0.085117 0.000000 0.000000
# 5 0.000000 0.000000 0.000000 0.000000 -0.078710 0.000000
# 6 0.000000 0.000000 0.000000 0.000000 0.000000 0.040143
#
#
# Mechanical properties :
#
#
# Convention : Reuss Voigt Hill
#
# Bulk Modulus (GPa) = 22.39234 31.37722 26.88478
# Shear Modulus (GPa) = 34.77868 15.10640 24.94254
#
# Velocity S-wave (km/s) = 4.30208 2.83532 3.64328
# Velocity P-wave (km/s) = 6.04926 5.23607 5.65729
#
# Compressibility (1/GPa) = 0.04465812
#
# Stress axis : x y z
#
# Youngs Moduli (GPa) = 46.73188 69.01623 36.22418
#
# Poissons Ratio (x) = 0.64448 -0.00821
# Poissons Ratio (y) = 0.43639 0.01110
# Poissons Ratio (z) = -0.01059 0.02114
#
# Static dielectric constant tensor:
#      x y z
#    x 1.665350 0.000000 0.000000 
#    y 0.000000 1.650350 0.000000 
#    z 0.000000 0.000000 1.674400 
# 
# From -- ./inp_files/33320.got.cif
#   From: 2010.05.17/outbox.cif.g08.bks.cpg/sg64_17_cif.got.tgz:33320.got - 2010.06.03 16:29:19.
