data_PCOD9478260
_publ_section_title
;
Structure prediction by ZEFSAII (Michael W. Deem and Ramdas Pophale) SiO2 
 PCOD9478260
Probable space group: C M C A
;
_chemical_formula_sum "Si O2"
_cell_formula_units_Z 104
_cell_length_a 7.413327
_cell_length_b 30.089399
_cell_length_c 19.555448
_cell_angle_alpha 90.000000
_cell_angle_beta 90.000000
_cell_angle_gamma 90.000000
_cell_volume 4362.088176
_symmetry_space_group_name_H-M "C M C A"
_symmetry_group_IT_number 64
_symmetry_cell_setting 'orthorhombic'
loop_
_space_group_symop_operation_xyz
x,y,z
-x,1/2-y,1/2+z
x,-y,-z
-x,1/2+y,1/2-z
-x,-y,-z
x,1/2+y,1/2-z
-x,y,z
x,1/2-y,1/2+z
1/2+x,1/2+y,z
1/2-x,-y,1/2+z
1/2+x,1/2-y,-z
1/2-x,y,1/2-z
1/2-x,1/2-y,-z
1/2+x,y,1/2-z
1/2-x,1/2+y,z
1/2+x,-y,1/2+z
loop_
_atom_site_type_symbol
_atom_site_label
_atom_site_fract_x
_atom_site_fract_y
_atom_site_fract_z
Si Si1 0.220370 0.999484 0.078512
Si Si2 0.285992 0.403529 0.129274
Si Si3 0.278135 0.772502 0.144114
Si Si4 0.285517 0.829792 0.017731
Si Si5 0.215483 0.578558 0.326561
Si Si6 0.250000 0.344702 0.250000
Si Si7 0.794839 0.174237 0.139348
O O1 0.283115 0.042877 0.119009
O O2 0.000000 0.999611 0.078679
O O3 0.273287 0.953513 0.114482
O O4 0.278264 0.000000 0.000000
O O5 0.500000 0.403159 0.146781
O O6 0.262305 0.373831 0.061116
O O7 0.187193 0.379662 0.192128
O O8 0.500000 0.776226 0.151678
O O9 0.235844 0.788780 0.067317
O O10 0.187983 0.807611 0.194774
O O11 0.217840 0.722377 0.157341
O O12 0.500000 0.828988 0.008338
O O13 0.201834 0.828401 0.943095
O O14 0.250000 0.562571 0.250000
O O15 0.289933 0.628456 0.334927
O O16 0.000000 0.581752 0.337438
O O17 0.000000 0.175540 0.165435
#
# Coordination Sequence:
#
# PCOD9478260 Si02
#       7
#    16  16  16  16  16   8  16
#     4   9  18  35  59  85 110 144 191 234 274 333
#     4  10  20  35  58  82 111 151 187 225 281 340
#     4   9  19  34  51  76 111 145 185 232 279 333
#     4  10  20  35  55  84 115 142 182 239 285 325
#     4  10  22  38  58  84 115 149 189 234 279 334
#     4  10  20  32  52  82 114 142 188 232 282 330
#     4  10  20  36  58  78 106 150 191 227 277 337
#
# _framework density 23.841791000000001
#
# number of rings (size 3 to 8) (size 9 to 14) (size 15 to 20)
#    0.000    2.308    0.000    2.308    2.154    3.692 
#    0.000    4.615    0.000    1.846    0.000    0.000 
#    0.000    0.000    0.000    0.000    0.000    0.000 
#
# Total GULP energy -290225.610757 kJ/mol
# GULP energy per Si atom -5581.261745 kJ/mol
# Density = 2.378753 g / cm^3
# Si number density = 23.841791 Si / 1000 Ang^3
#
#
#
# Elastic Constant Matrix: (Units=GPa)
#
#
# Indices 1 2 3 4 5 6 
#
# 1 97.1836 19.4089 1.2310 0.0000 0.0000 0.0000
# 2 19.4089 196.7315 55.5689 0.0000 0.0000 0.0000
# 3 1.2310 55.5689 124.0430 0.0000 0.0000 0.0000
# 4 0.0000 0.0000 0.0000 23.3309 0.0000 0.0000
# 5 0.0000 0.0000 0.0000 0.0000 -40.3590 0.0000
# 6 0.0000 0.0000 0.0000 0.0000 0.0000 7.8787
#
#
#
# Elastic Compliance Matrix: (Units=1/GPa)
#
#
# Indices 1 2 3 4 5 6 
#
# 1 0.010515 -0.001154 0.000413 0.000000 0.000000 0.000000
# 2 -0.001154 0.005946 -0.002652 0.000000 0.000000 0.000000
# 3 0.000413 -0.002652 0.009246 0.000000 0.000000 0.000000
# 4 0.000000 0.000000 0.000000 0.042862 0.000000 0.000000
# 5 0.000000 0.000000 0.000000 0.000000 -0.024778 0.000000
# 6 0.000000 0.000000 0.000000 0.000000 0.000000 0.126925
#
#
# Mechanical properties :
#
#
# Convention : Reuss Voigt Hill
#
# Bulk Modulus (GPa) = 52.85504 63.37508 58.11506
# Shear Modulus (GPa) = 27.20212 20.95342 24.07777
#
# Velocity S-wave (km/s) = 3.38145 2.96776 3.18134
# Velocity P-wave (km/s) = 6.12069 6.19538 6.15814
#
# Compressibility (1/GPa) = 0.01891967
#
# Stress axis : x y z
#
# Youngs Moduli (GPa) = 95.10202 168.17814 108.15725
#
# Poissons Ratio (x) = 0.19406 -0.04462
# Poissons Ratio (y) = 0.10974 0.28686
# Poissons Ratio (z) = -0.03924 0.44606
#
# Static dielectric constant tensor:
#      x y z
#    x 2.030580 0.000000 0.000000 
#    y 0.000000 1.875110 0.000000 
#    z 0.000000 0.000000 1.852440 
# 
# From -- ./inp_files/37253.got.cif
#   From: 2010.05.17/outbox.cif.g08.bks.cpg/sg64_19_cif.got.tgz:37253.got - 2010.06.03 16:29:19.
