data_PCOD9478297
_publ_section_title
;
Structure prediction by ZEFSAII (Michael W. Deem and Ramdas Pophale) SiO2 
 PCOD9478297
Probable space group: C M C A
;
_chemical_formula_sum "Si O2"
_cell_formula_units_Z 96
_cell_length_a 7.867977
_cell_length_b 20.677646
_cell_length_c 31.343644
_cell_angle_alpha 90.000000
_cell_angle_beta 90.000000
_cell_angle_gamma 90.000000
_cell_volume 5099.336407
_symmetry_space_group_name_H-M "C M C A"
_symmetry_group_IT_number 64
_symmetry_cell_setting 'orthorhombic'
loop_
_space_group_symop_operation_xyz
x,y,z
-x,1/2-y,1/2+z
x,-y,-z
-x,1/2+y,1/2-z
-x,-y,-z
x,1/2+y,1/2-z
-x,y,z
x,1/2-y,1/2+z
1/2+x,1/2+y,z
1/2-x,-y,1/2+z
1/2+x,1/2-y,-z
1/2-x,y,1/2-z
1/2-x,1/2-y,-z
1/2+x,y,1/2-z
1/2-x,1/2+y,z
1/2+x,-y,1/2+z
loop_
_atom_site_type_symbol
_atom_site_label
_atom_site_fract_x
_atom_site_fract_y
_atom_site_fract_z
Si Si1 0.705105 0.551730 0.798334
Si Si2 0.703970 0.802000 0.631316
Si Si3 0.704264 0.801817 0.535506
Si Si4 0.292269 0.948700 0.632312
Si Si5 0.201601 0.198093 0.797930
Si Si6 0.292374 0.551416 0.034798
O O1 0.500000 0.553129 0.801434
O O2 0.750000 0.532732 0.750000
O O3 0.767997 0.500796 0.833322
O O4 0.770451 0.625151 0.805155
O O5 0.500000 0.805385 0.629177
O O6 0.765784 0.785268 0.583437
O O7 0.763156 0.875019 0.641789
O O8 0.746759 0.749285 0.666520
O O9 0.500000 0.804283 0.537269
O O10 0.750000 0.750000 0.500000
O O11 0.762427 0.874959 0.525355
O O12 0.500000 0.949099 0.633240
O O13 0.242538 0.964127 0.583531
O O14 0.250000 0.218417 0.750000
O O15 0.000000 0.193202 0.799258
O O16 0.500000 0.550798 0.033969
O O17 0.232524 0.500000 0.000000
#
# Coordination Sequence:
#
# PCOD9478297 Si02
#       6
#    16  16  16  16  16  16
#     4   9  18  32  49  69  93 120 152 191 232 275
#     4   9  18  33  50  69  97 129 159 194 236 280
#     4   9  18  31  48  71  98 128 159 194 237 280
#     4   8  15  29  47  67  92 121 153 191 233 274
#     4  10  20  33  50  72  97 125 157 194 236 282
#     4   8  14  26  46  70  93 119 154 193 230 272
#
# _framework density 18.825980000000001
#
# number of rings (size 3 to 8) (size 9 to 14) (size 15 to 20)
#    0.000    3.167    0.000    2.500    0.000    3.333 
#    0.000    5.833    0.000    1.500    0.000    0.000 
#    0.000    0.000    0.000    0.000    0.000    0.000 
#
# Total GULP energy -267528.566673 kJ/mol
# GULP energy per Si atom -5573.511806 kJ/mol
# Density = 1.878313 g / cm^3
# Si number density = 18.825980 Si / 1000 Ang^3
#
#
#
# Elastic Constant Matrix: (Units=GPa)
#
#
# Indices 1 2 3 4 5 6 
#
# 1 18.2220 10.2594 8.0389 0.0000 0.0000 0.0000
# 2 10.2594 156.7962 158.0792 0.0000 0.0000 0.0000
# 3 8.0389 158.0792 192.3131 0.0000 0.0000 0.0000
# 4 0.0000 0.0000 0.0000 48.2869 0.0000 0.0000
# 5 0.0000 0.0000 0.0000 0.0000 20.7840 0.0000
# 6 0.0000 0.0000 0.0000 0.0000 0.0000 9.8654
#
#
#
# Elastic Compliance Matrix: (Units=1/GPa)
#
#
# Indices 1 2 3 4 5 6 
#
# 1 0.057506 -0.007819 0.004023 0.000000 0.000000 0.000000
# 2 -0.007819 0.038298 -0.031153 0.000000 0.000000 0.000000
# 3 0.004023 -0.031153 0.030639 0.000000 0.000000 0.000000
# 4 0.000000 0.000000 0.000000 0.020710 0.000000 0.000000
# 5 0.000000 0.000000 0.000000 0.000000 0.048114 0.000000
# 6 0.000000 0.000000 0.000000 0.000000 0.000000 0.101364
#
#
# Mechanical properties :
#
#
# Convention : Reuss Voigt Hill
#
# Bulk Modulus (GPa) = 17.68503 80.00961 48.84732
# Shear Modulus (GPa) = 12.97432 28.51751 20.74592
#
# Velocity S-wave (km/s) = 2.62805 3.89626 3.32321
# Velocity P-wave (km/s) = 4.31547 7.92672 6.38186
#
# Compressibility (1/GPa) = 0.05654499
#
# Stress axis : x y z
#
# Youngs Moduli (GPa) = 17.38949 26.11133 32.63774
#
# Poissons Ratio (x) = 0.20416 -0.13130
# Poissons Ratio (y) = 0.13596 1.01677
# Poissons Ratio (z) = -0.06996 0.81345
#
# Static dielectric constant tensor:
#      x y z
#    x 1.697590 0.000000 0.000000 
#    y 0.000000 1.656470 0.000000 
#    z 0.000000 0.000000 1.604260 
# 
# From -- ./inp_files/48140.got.cif
#   From: 2010.05.17/outbox.cif.g08.bks.cpg/sg64_25_cif.got.tgz:48140.got - 2010.06.03 16:29:19.
