data_PCOD9478657
_publ_section_title
;
Structure prediction by ZEFSAII (Michael W. Deem and Ramdas Pophale) SiO2 
 PCOD9478657
Probable space group: C M C A
;
_chemical_formula_sum "Si O2"
_cell_formula_units_Z 80
_cell_length_a 8.490069
_cell_length_b 16.105031
_cell_length_c 29.355108
_cell_angle_alpha 90.000000
_cell_angle_beta 90.000000
_cell_angle_gamma 90.000000
_cell_volume 4013.806828
_symmetry_space_group_name_H-M "C M C A"
_symmetry_group_IT_number 64
_symmetry_cell_setting 'orthorhombic'
loop_
_space_group_symop_operation_xyz
x,y,z
-x,1/2-y,1/2+z
x,-y,-z
-x,1/2+y,1/2-z
-x,-y,-z
x,1/2+y,1/2-z
-x,y,z
x,1/2-y,1/2+z
1/2+x,1/2+y,z
1/2-x,-y,1/2+z
1/2+x,1/2-y,-z
1/2-x,y,1/2-z
1/2-x,1/2-y,-z
1/2+x,y,1/2-z
1/2-x,1/2+y,z
1/2+x,-y,1/2+z
loop_
_atom_site_type_symbol
_atom_site_label
_atom_site_fract_x
_atom_site_fract_y
_atom_site_fract_z
Si Si1 0.189145 0.963632 0.854513
Si Si2 0.189607 0.720822 0.548745
Si Si3 0.808275 0.469978 0.450616
Si Si4 0.189118 0.213869 0.355140
Si Si5 0.311958 0.625186 0.698543
O O1 0.250455 0.874773 0.837894
O O2 0.000000 0.964173 0.853410
O O3 0.242829 0.977175 0.907052
O O4 0.249987 0.042263 0.826283
O O5 0.250000 0.750000 0.500000
O O6 0.237948 0.625460 0.556541
O O7 0.242869 0.773802 0.592241
O O8 0.000000 0.723107 0.547654
O O9 0.751938 0.500000 0.500000
O O10 0.000000 0.473007 0.451464
O O11 0.250725 0.292689 0.327199
O O12 0.000000 0.215148 0.354077
O O13 0.500000 0.624932 0.698069
O O14 0.250000 0.626169 0.750000
#
# Coordination Sequence:
#
# PCOD9478657 Si02
#       5
#    16  16  16  16  16
#     4  11  22  41  67  96 132 172 217 269 326 388
#     4  10  20  35  56  87 128 172 215 266 320 381
#     4   9  17  32  56  86 125 170 213 258 315 376
#     4  11  23  42  65  95 134 173 217 270 326 387
#     4  12  26  46  71  98 129 169 217 271 332 392
#
# _framework density 19.931203
#
# number of rings (size 3 to 8) (size 9 to 14) (size 15 to 20)
#    0.000    1.400    2.000    4.200    0.000    4.000 
#    0.000    4.000    0.000    4.200    0.000    0.000 
#    0.000    0.000    0.000    0.000    0.000    0.000 
#
# Total GULP energy -223597.097278 kJ/mol
# GULP energy per Si atom -5589.927432 kJ/mol
# Density = 1.988584 g / cm^3
# Si number density = 19.931203 Si / 1000 Ang^3
#
#
#
# Elastic Constant Matrix: (Units=GPa)
#
#
# Indices 1 2 3 4 5 6 
#
# 1 79.1014 48.7643 39.5569 0.0000 0.0000 0.0000
# 2 48.7643 187.1307 75.1898 0.0000 0.0000 0.0000
# 3 39.5569 75.1898 138.4622 0.0000 0.0000 0.0000
# 4 0.0000 0.0000 0.0000 26.0827 0.0000 0.0000
# 5 0.0000 0.0000 0.0000 0.0000 28.2832 0.0000
# 6 0.0000 0.0000 0.0000 0.0000 0.0000 28.4869
#
#
#
# Elastic Compliance Matrix: (Units=1/GPa)
#
#
# Indices 1 2 3 4 5 6 
#
# 1 0.015946 -0.002974 -0.002941 0.000000 0.000000 0.000000
# 2 -0.002974 0.007390 -0.003163 0.000000 0.000000 0.000000
# 3 -0.002941 -0.003163 0.009780 0.000000 0.000000 0.000000
# 4 0.000000 0.000000 0.000000 0.038340 0.000000 0.000000
# 5 0.000000 0.000000 0.000000 0.000000 0.035357 0.000000
# 6 0.000000 0.000000 0.000000 0.000000 0.000000 0.035104
#
#
# Mechanical properties :
#
#
# Convention : Reuss Voigt Hill
#
# Bulk Modulus (GPa) = 66.84404 81.30182 74.07293
# Shear Modulus (GPa) = 30.29235 32.64945 31.47090
#
# Velocity S-wave (km/s) = 3.90275 4.05174 3.97794
# Velocity P-wave (km/s) = 7.34294 7.92267 7.63831
#
# Compressibility (1/GPa) = 0.01496020
#
# Stress axis : x y z
#
# Youngs Moduli (GPa) = 62.71234 135.32086 102.24811
#
# Poissons Ratio (x) = 0.40241 0.30068
# Poissons Ratio (y) = 0.18649 0.32345
# Poissons Ratio (z) = 0.18442 0.42807
#
# Static dielectric constant tensor:
#      x y z
#    x 1.673140 0.000000 0.000000 
#    y 0.000000 1.687860 0.000000 
#    z 0.000000 0.000000 1.701670 
# 
# From -- ./inp_files/47839.got.cif
#   From: 2010.05.17/outbox.cif.g08.bks.cpg/sg64_24_cif.got.tgz:47839.got - 2010.06.03 16:29:19.
