data_PCOD9478416
_publ_section_title
;
Structure prediction by ZEFSAII (Michael W. Deem and Ramdas Pophale) SiO2 
 PCOD9478416
Probable space group: C M C A
;
_chemical_formula_sum "Si O2"
_cell_formula_units_Z 88
_cell_length_a 9.844631
_cell_length_b 23.863428
_cell_length_c 16.415164
_cell_angle_alpha 90.000000
_cell_angle_beta 90.000000
_cell_angle_gamma 90.000000
_cell_volume 3856.359374
_symmetry_space_group_name_H-M "C M C A"
_symmetry_group_IT_number 64
_symmetry_cell_setting 'orthorhombic'
loop_
_space_group_symop_operation_xyz
x,y,z
-x,1/2-y,1/2+z
x,-y,-z
-x,1/2+y,1/2-z
-x,-y,-z
x,1/2+y,1/2-z
-x,y,z
x,1/2-y,1/2+z
1/2+x,1/2+y,z
1/2-x,-y,1/2+z
1/2+x,1/2-y,-z
1/2-x,y,1/2-z
1/2-x,1/2-y,-z
1/2+x,y,1/2-z
1/2-x,1/2+y,z
1/2+x,-y,1/2+z
loop_
_atom_site_type_symbol
_atom_site_label
_atom_site_fract_x
_atom_site_fract_y
_atom_site_fract_z
Si Si1 0.293056 0.373615 0.424740
Si Si2 0.352272 0.474533 0.313043
Si Si3 0.500000 0.208487 0.848539
Si Si4 0.250000 0.824755 0.750000
Si Si5 0.000000 0.747907 0.178042
Si Si6 0.836635 0.449702 0.942639
Si Si7 0.000000 0.841718 0.860938
Si Si8 0.500000 0.157827 0.555371
O O1 0.359243 0.427194 0.381880
O O2 0.371555 0.320425 0.391011
O O3 0.307705 0.389403 0.519988
O O4 0.135299 0.368793 0.408657
O O5 0.500000 0.484557 0.277797
O O6 0.250000 0.450265 0.250000
O O7 0.295239 0.531302 0.352945
O O8 0.500000 0.204613 0.750150
O O9 0.500000 0.274106 0.862670
O O10 0.139953 0.787447 0.696311
O O11 0.139265 0.855332 0.809900
O O12 0.000000 0.777947 0.089790
O O13 0.000000 0.455557 0.940617
O O14 0.779225 0.500000 0.000000
O O15 0.000000 0.854732 0.957715
#
# Coordination Sequence:
#
# PCOD9478416 Si02
#       8
#    16  16   8   8   8  16   8   8
#     4  11  21  35  56  86 118 162 189 253 288 364
#     4  10  21  36  59  88 116 153 195 242 300 369
#     4  10  20  36  63  82 119 156 210 231 304 360
#     4   8  18  40  66  72 110 152 208 236 302 352
#     4  10  20  34  52  92 116 154 176 257 301 359
#     4   8  15  35  58  76 107 149 193 227 282 349
#     4  10  22  42  60  88 110 162 199 254 296 365
#     4  12  26  34  55  90 133 148 199 250 310 340
#
# _framework density 22.819448999999999
#
# number of rings (size 3 to 8) (size 9 to 14) (size 15 to 20)
#    0.000    2.364    1.818    3.273    3.818    2.909 
#    1.636    2.273    2.000    0.000    0.000    0.000 
#    0.000    0.000    0.000    0.000    0.000    0.000 
#
# Total GULP energy -244943.951721 kJ/mol
# GULP energy per Si atom -5566.907994 kJ/mol
# Density = 2.276751 g / cm^3
# Si number density = 22.819449 Si / 1000 Ang^3
#
#
#
# Elastic Constant Matrix: (Units=GPa)
#
#
# Indices 1 2 3 4 5 6 
#
# 1 160.6362 19.0261 34.3097 0.0000 0.0000 0.0000
# 2 19.0261 34.0034 0.0295 0.0000 0.0000 0.0000
# 3 34.3097 0.0295 58.6577 0.0000 0.0000 0.0000
# 4 0.0000 0.0000 0.0000 27.8297 0.0000 0.0000
# 5 0.0000 0.0000 0.0000 0.0000 12.2957 0.0000
# 6 0.0000 0.0000 0.0000 0.0000 0.0000 24.5334
#
#
#
# Elastic Compliance Matrix: (Units=1/GPa)
#
#
# Indices 1 2 3 4 5 6 
#
# 1 0.007696 -0.004302 -0.004499 0.000000 0.000000 0.000000
# 2 -0.004302 0.031814 0.002500 0.000000 0.000000 0.000000
# 3 -0.004499 0.002500 0.019678 0.000000 0.000000 0.000000
# 4 0.000000 0.000000 0.000000 0.035933 0.000000 0.000000
# 5 0.000000 0.000000 0.000000 0.000000 0.081329 0.000000
# 6 0.000000 0.000000 0.000000 0.000000 0.000000 0.040761
#
#
# Mechanical properties :
#
#
# Convention : Reuss Voigt Hill
#
# Bulk Modulus (GPa) = 21.46559 40.00310 30.73434
# Shear Modulus (GPa) = 20.37976 26.26057 23.32017
#
# Velocity S-wave (km/s) = 2.99170 3.39602 3.20025
# Velocity P-wave (km/s) = 4.62178 5.73983 5.21087
#
# Compressibility (1/GPa) = 0.04658620
#
# Stress axis : x y z
#
# Youngs Moduli (GPa) = 129.94153 31.43281 50.81699
#
# Poissons Ratio (x) = 0.13523 0.22864
# Poissons Ratio (y) = 0.55903 -0.12706
# Poissons Ratio (z) = 0.58463 -0.07859
#
# Static dielectric constant tensor:
#      x y z
#    x 1.840480 0.000000 0.000000 
#    y 0.000000 1.876830 0.000000 
#    z 0.000000 0.000000 2.051930 
# 
# From -- ./inp_files/30138.got.cif
#   From: 2010.05.17/outbox.cif.g08.bks.cpg/sg64_16_cif.got.tgz:30138.got - 2010.06.03 16:29:19.
