data_PCOD9478273
_publ_section_title
;
Structure prediction by ZEFSAII (Michael W. Deem and Ramdas Pophale) SiO2 
 PCOD9478273
Probable space group: C M C A
;
_chemical_formula_sum "Si O2"
_cell_formula_units_Z 108
_cell_length_a 14.898734
_cell_length_b 12.884694
_cell_length_c 22.736596
_cell_angle_alpha 90.000000
_cell_angle_beta 90.000000
_cell_angle_gamma 90.000000
_cell_volume 4364.644943
_symmetry_space_group_name_H-M "C M C A"
_symmetry_group_IT_number 64
_symmetry_cell_setting 'orthorhombic'
loop_
_space_group_symop_operation_xyz
x,y,z
-x,1/2-y,1/2+z
x,-y,-z
-x,1/2+y,1/2-z
-x,-y,-z
x,1/2+y,1/2-z
-x,y,z
x,1/2-y,1/2+z
1/2+x,1/2+y,z
1/2-x,-y,1/2+z
1/2+x,1/2-y,-z
1/2-x,y,1/2-z
1/2-x,1/2-y,-z
1/2+x,y,1/2-z
1/2-x,1/2+y,z
1/2+x,-y,1/2+z
loop_
_atom_site_type_symbol
_atom_site_label
_atom_site_fract_x
_atom_site_fract_y
_atom_site_fract_z
Si Si1 0.100291 0.279189 0.896595
Si Si2 0.661917 0.997571 0.903313
Si Si3 0.187735 0.000000 0.000000
Si Si4 0.109096 0.565658 0.662566
Si Si5 0.351679 0.777009 0.517632
Si Si6 0.392187 0.170484 0.354657
Si Si7 0.609094 0.632506 0.706651
Si Si8 0.000000 0.000000 0.500000
O O1 0.160387 0.377463 0.882144
O O2 0.135031 0.167181 0.875839
O O3 0.000000 0.294266 0.872012
O O4 0.093642 0.281998 0.967945
O O5 0.578219 0.012353 0.947842
O O6 0.652829 0.067492 0.845920
O O7 0.746934 0.016145 0.944841
O O8 0.129600 0.898429 0.991771
O O9 0.139604 0.448551 0.647834
O O10 0.133835 0.590765 0.729517
O O11 0.000000 0.563885 0.657667
O O12 0.250000 0.750000 0.500000
O O13 0.366462 0.766178 0.586293
O O14 0.500000 0.164342 0.355375
O O15 0.366747 0.246225 0.301375
O O16 0.500000 0.623159 0.701099
#
# Coordination Sequence:
#
# PCOD9478273 Si02
#       8
#    16  16   8  16  16  16  16   4
#     4  11  22  38  63  94 124 160 202 264 310 376
#     4  11  21  35  60  91 125 157 204 260 315 362
#     4  11  24  39  57  88 123 166 204 248 305 392
#     4   9  21  38  58  90 125 162 210 252 312 370
#     4  12  23  39  61  90 124 164 201 250 319 380
#     4  10  22  39  62  91 123 164 208 262 308 378
#     4  10  20  35  61  90 122 161 204 262 314 364
#     4  10  20  32  56  92 124 152 194 258 318 354
#
# _framework density 24.744281000000001
#
# number of rings (size 3 to 8) (size 9 to 14) (size 15 to 20)
#    0.000    1.481    2.963    2.222    4.148    0.000 
#    0.000    2.963    0.000    9.778    0.000    0.000 
#    0.000    0.000    0.000    0.000    0.000    0.000 
#
# Total GULP energy -301757.702868 kJ/mol
# GULP energy per Si atom -5588.105609 kJ/mol
# Density = 2.468796 g / cm^3
# Si number density = 24.744281 Si / 1000 Ang^3
#
#
#
# Elastic Constant Matrix: (Units=GPa)
#
#
# Indices 1 2 3 4 5 6 
#
# 1 48.2512 15.6054 12.7844 0.0000 0.0000 0.0000
# 2 15.6054 154.6838 67.1561 0.0000 0.0000 0.0000
# 3 12.7844 67.1561 138.8336 0.0000 0.0000 0.0000
# 4 0.0000 0.0000 0.0000 40.7161 0.0000 0.0000
# 5 0.0000 0.0000 0.0000 0.0000 24.1943 0.0000
# 6 0.0000 0.0000 0.0000 0.0000 0.0000 22.8173
#
#
#
# Elastic Compliance Matrix: (Units=1/GPa)
#
#
# Indices 1 2 3 4 5 6 
#
# 1 0.021576 -0.001663 -0.001182 0.000000 0.000000 0.000000
# 2 -0.001663 0.008312 -0.003867 0.000000 0.000000 0.000000
# 3 -0.001182 -0.003867 0.009182 0.000000 0.000000 0.000000
# 4 0.000000 0.000000 0.000000 0.024560 0.000000 0.000000
# 5 0.000000 0.000000 0.000000 0.000000 0.041332 0.000000
# 6 0.000000 0.000000 0.000000 0.000000 0.000000 0.043826
#
#
# Mechanical properties :
#
#
# Convention : Reuss Voigt Hill
#
# Bulk Modulus (GPa) = 38.99509 59.20670 49.10089
# Shear Modulus (GPa) = 29.28040 33.96040 31.62040
#
# Velocity S-wave (km/s) = 3.44367 3.70868 3.57863
# Velocity P-wave (km/s) = 5.62186 6.50527 6.07963
#
# Compressibility (1/GPa) = 0.02564425
#
# Stress axis : x y z
#
# Youngs Moduli (GPa) = 46.34758 120.31373 108.90413
#
# Poissons Ratio (x) = 0.20014 0.12874
# Poissons Ratio (y) = 0.07710 0.42116
# Poissons Ratio (z) = 0.05479 0.46529
#
# Static dielectric constant tensor:
#      x y z
#    x 1.967090 0.000000 0.000000 
#    y 0.000000 2.003660 0.000000 
#    z 0.000000 0.000000 1.931380 
# 
# From -- ./inp_files/46389.got.cif
#   From: 2010.05.17/outbox.cif.g08.bks.cpg/sg64_24_cif.got.tgz:46389.got - 2010.06.03 16:29:19.
