data_PCOD9478101
_publ_section_title
;
Structure prediction by ZEFSAII (Michael W. Deem and Ramdas Pophale) SiO2 
 PCOD9478101
Probable space group: C M C A
;
_chemical_formula_sum "Si O2"
_cell_formula_units_Z 112
_cell_length_a 12.892699
_cell_length_b 14.352397
_cell_length_c 28.352836
_cell_angle_alpha 90.000000
_cell_angle_beta 90.000000
_cell_angle_gamma 90.000000
_cell_volume 5246.440938
_symmetry_space_group_name_H-M "C M C A"
_symmetry_group_IT_number 64
_symmetry_cell_setting 'orthorhombic'
loop_
_space_group_symop_operation_xyz
x,y,z
-x,1/2-y,1/2+z
x,-y,-z
-x,1/2+y,1/2-z
-x,-y,-z
x,1/2+y,1/2-z
-x,y,z
x,1/2-y,1/2+z
1/2+x,1/2+y,z
1/2-x,-y,1/2+z
1/2+x,1/2-y,-z
1/2-x,y,1/2-z
1/2-x,1/2-y,-z
1/2+x,y,1/2-z
1/2-x,1/2+y,z
1/2+x,-y,1/2+z
loop_
_atom_site_type_symbol
_atom_site_label
_atom_site_fract_x
_atom_site_fract_y
_atom_site_fract_z
Si Si1 0.384918 0.610829 0.006925
Si Si2 0.811052 0.680038 0.593101
Si Si3 0.875800 0.375089 0.679939
Si Si4 0.374227 0.176902 0.782355
Si Si5 0.764662 0.617164 0.092454
Si Si6 0.876311 0.424115 0.119928
Si Si7 0.123929 0.421433 0.311697
O O1 0.500000 0.640633 0.024374
O O2 0.363852 0.654183 0.955801
O O3 0.388599 0.500000 0.000000
O O4 0.287234 0.626805 0.041181
O O5 0.827361 0.788647 0.603065
O O6 0.688350 0.654123 0.591329
O O7 0.849120 0.616236 0.636455
O O8 0.836887 0.279674 0.702936
O O9 0.833222 0.381462 0.627285
O O10 0.840346 0.473930 0.700829
O O11 0.000000 0.371937 0.680459
O O12 0.500000 0.182565 0.781121
O O13 0.354696 0.102902 0.824881
O O14 0.343219 0.146856 0.729963
O O15 0.829840 0.523740 0.103421
O O16 0.000000 0.420663 0.112895
O O17 0.000000 0.425674 0.310720
#
# Coordination Sequence:
#
# PCOD9478101 Si02
#       7
#    16  16  16  16  16  16  16
#     4  11  23  43  72  98 127 162 213 280 337 392
#     4  12  24  42  65  98 132 171 224 272 334 404
#     4  10  19  37  65  94 126 170 223 274 331 393
#     4   9  20  39  64  95 132 177 221 269 337 402
#     4  12  24  42  65  98 128 175 221 273 327 405
#     4  11  24  43  63  92 139 181 215 269 332 396
#     4  10  21  39  65  96 133 168 220 287 333 384
#
# _framework density 21.347805999999999
#
# number of rings (size 3 to 8) (size 9 to 14) (size 15 to 20)
#    0.000    1.286    4.286    1.286    0.000    5.714 
#    0.000    5.714    0.000    0.000    0.000    0.000 
#    0.000    0.000    0.000    0.000    0.000    0.000 
#
# Total GULP energy -312651.621649 kJ/mol
# GULP energy per Si atom -5583.064672 kJ/mol
# Density = 2.129922 g / cm^3
# Si number density = 21.347806 Si / 1000 Ang^3
#
#
#
# Elastic Constant Matrix: (Units=GPa)
#
#
# Indices 1 2 3 4 5 6 
#
# 1 59.9212 22.2432 20.4509 0.0000 0.0000 0.0000
# 2 22.2432 118.4280 24.2702 0.0000 0.0000 0.0000
# 3 20.4509 24.2702 82.1826 0.0000 0.0000 0.0000
# 4 0.0000 0.0000 0.0000 25.3145 0.0000 0.0000
# 5 0.0000 0.0000 0.0000 0.0000 16.0729 0.0000
# 6 0.0000 0.0000 0.0000 0.0000 0.0000 24.8395
#
#
#
# Elastic Compliance Matrix: (Units=1/GPa)
#
#
# Indices 1 2 3 4 5 6 
#
# 1 0.019058 -0.002776 -0.003923 0.000000 0.000000 0.000000
# 2 -0.002776 0.009392 -0.002083 0.000000 0.000000 0.000000
# 3 -0.003923 -0.002083 0.013759 0.000000 0.000000 0.000000
# 4 0.000000 0.000000 0.000000 0.039503 0.000000 0.000000
# 5 0.000000 0.000000 0.000000 0.000000 0.062216 0.000000
# 6 0.000000 0.000000 0.000000 0.000000 0.000000 0.040258
#
#
# Mechanical properties :
#
#
# Convention : Reuss Voigt Hill
#
# Bulk Modulus (GPa) = 40.57359 43.82894 42.20127
# Shear Modulus (GPa) = 23.81347 26.14989 24.98168
#
# Velocity S-wave (km/s) = 3.34353 3.50372 3.42456
# Velocity P-wave (km/s) = 5.82691 6.07812 5.95384
#
# Compressibility (1/GPa) = 0.02464657
#
# Stress axis : x y z
#
# Youngs Moduli (GPa) = 52.47221 106.47211 72.67787
#
# Poissons Ratio (x) = 0.29551 0.28510
# Poissons Ratio (y) = 0.14564 0.15139
# Poissons Ratio (z) = 0.20584 0.22178
#
# Static dielectric constant tensor:
#      x y z
#    x 1.848080 0.000000 0.000000 
#    y 0.000000 1.778080 0.000000 
#    z 0.000000 0.000000 1.772970 
# 
# From -- ./inp_files/45301.got.cif
#   From: 2010.05.17/outbox.cif.g08.bks.cpg/sg64_23_cif.got.tgz:45301.got - 2010.06.03 16:29:19.
