data_PCOD9478225
_publ_section_title
;
Structure prediction by ZEFSAII (Michael W. Deem and Ramdas Pophale) SiO2 
 PCOD9478225
Probable space group: C M C A
;
_chemical_formula_sum "Si O2"
_cell_formula_units_Z 72
_cell_length_a 9.669679
_cell_length_b 19.626068
_cell_length_c 19.084949
_cell_angle_alpha 90.000000
_cell_angle_beta 90.000000
_cell_angle_gamma 90.000000
_cell_volume 3621.899207
_symmetry_space_group_name_H-M "C M C A"
_symmetry_group_IT_number 64
_symmetry_cell_setting 'orthorhombic'
loop_
_space_group_symop_operation_xyz
x,y,z
-x,1/2-y,1/2+z
x,-y,-z
-x,1/2+y,1/2-z
-x,-y,-z
x,1/2+y,1/2-z
-x,y,z
x,1/2-y,1/2+z
1/2+x,1/2+y,z
1/2-x,-y,1/2+z
1/2+x,1/2-y,-z
1/2-x,y,1/2-z
1/2-x,1/2-y,-z
1/2+x,y,1/2-z
1/2-x,1/2+y,z
1/2+x,-y,1/2+z
loop_
_atom_site_type_symbol
_atom_site_label
_atom_site_fract_x
_atom_site_fract_y
_atom_site_fract_z
Si Si1 0.161442 0.629137 0.132991
Si Si2 0.340906 0.017934 0.865170
Si Si3 0.160092 0.723238 0.634891
Si Si4 0.250000 0.119788 0.750000
Si Si5 0.337228 0.366978 0.465073
O O1 0.224171 0.555518 0.152215
O O2 0.216667 0.702431 0.157167
O O3 0.000000 0.628860 0.155501
O O4 0.171050 0.631924 0.048385
O O5 0.500000 0.002896 0.884099
O O6 0.334878 0.069457 0.800217
O O7 0.285463 0.061906 0.930520
O O8 0.167843 0.669530 0.698149
O O9 0.250066 0.692085 0.571986
O O10 0.000000 0.731072 0.612671
O O11 0.500000 0.359397 0.446377
#
# Coordination Sequence:
#
# PCOD9478225 Si02
#       5
#    16  16  16   8  16
#     4   9  17  30  50  75  98 123 161 205 243 283
#     4   9  17  30  49  70  93 126 168 206 235 278
#     4  10  20  33  51  74 101 130 159 198 246 291
#     4  10  20  32  48  66  96 134 168 198 240 290
#     4   9  17  31  53  77  99 126 160 197 241 293
#
# _framework density 19.879073999999999
#
# number of rings (size 3 to 8) (size 9 to 14) (size 15 to 20)
#    0.000    2.667    0.000    2.000    0.000    4.444 
#    0.000    0.000    0.000   18.667    0.000    0.000 
#    0.000    0.000    0.000    0.000    0.000    0.000 
#
# Total GULP energy -200436.312675 kJ/mol
# GULP energy per Si atom -5567.675352 kJ/mol
# Density = 1.983383 g / cm^3
# Si number density = 19.879074 Si / 1000 Ang^3
#
#
#
# Elastic Constant Matrix: (Units=GPa)
#
#
# Indices 1 2 3 4 5 6 
#
# 1 28.2256 15.7002 0.2403 0.0000 0.0000 0.0000
# 2 15.7002 186.5160 18.7557 0.0000 0.0000 0.0000
# 3 0.2403 18.7557 46.6348 0.0000 0.0000 0.0000
# 4 0.0000 0.0000 0.0000 -3.1149 0.0000 0.0000
# 5 0.0000 0.0000 0.0000 0.0000 12.5295 0.0000
# 6 0.0000 0.0000 0.0000 0.0000 0.0000 19.3404
#
#
#
# Elastic Compliance Matrix: (Units=1/GPa)
#
#
# Indices 1 2 3 4 5 6 
#
# 1 0.037225 -0.003245 0.001113 0.000000 0.000000 0.000000
# 2 -0.003245 0.005870 -0.002344 0.000000 0.000000 0.000000
# 3 0.001113 -0.002344 0.022380 0.000000 0.000000 0.000000
# 4 0.000000 0.000000 0.000000 -0.321034 0.000000 0.000000
# 5 0.000000 0.000000 0.000000 0.000000 0.079811 0.000000
# 6 0.000000 0.000000 0.000000 0.000000 0.000000 0.051705
#
#
# Mechanical properties :
#
#
# Convention : Reuss Voigt Hill
#
# Bulk Modulus (GPa) = 17.69193 36.75207 27.22200
# Shear Modulus (GPa) = -51.94879 20.86301 -15.54289
#
# Velocity S-wave (km/s) = -5.11753 3.24311 -2.79923
# Velocity P-wave (km/s) = 5.09899 5.70540 1.80995
#
# Compressibility (1/GPa) = 0.05652296
#
# Stress axis : x y z
#
# Youngs Moduli (GPa) = 26.86393 170.34640 44.68217
#
# Poissons Ratio (x) = 0.55284 -0.04975
# Poissons Ratio (y) = 0.08718 0.10475
# Poissons Ratio (z) = -0.02991 0.39933
#
# Static dielectric constant tensor:
#      x y z
#    x 1.693260 0.000000 0.000000 
#    y 0.000000 1.796460 0.000000 
#    z 0.000000 0.000000 1.699850 
# 
# From -- ./inp_files/30705.got.cif
#   From: 2010.05.17/outbox.cif.g08.bks.cpg/sg64_16_cif.got.tgz:30705.got - 2010.06.03 16:29:19.
