data_PCOD9478688
_publ_section_title
;
Structure prediction by ZEFSAII (Michael W. Deem and Ramdas Pophale) SiO2 
 PCOD9478688
Probable space group: C M C A
;
_chemical_formula_sum "Si O2"
_cell_formula_units_Z 96
_cell_length_a 14.764687
_cell_length_b 30.597378
_cell_length_c 9.451723
_cell_angle_alpha 90.000000
_cell_angle_beta 90.000000
_cell_angle_gamma 90.000000
_cell_volume 4269.917086
_symmetry_space_group_name_H-M "C M C A"
_symmetry_group_IT_number 64
_symmetry_cell_setting 'orthorhombic'
loop_
_space_group_symop_operation_xyz
x,y,z
-x,1/2-y,1/2+z
x,-y,-z
-x,1/2+y,1/2-z
-x,-y,-z
x,1/2+y,1/2-z
-x,y,z
x,1/2-y,1/2+z
1/2+x,1/2+y,z
1/2-x,-y,1/2+z
1/2+x,1/2-y,-z
1/2-x,y,1/2-z
1/2-x,1/2-y,-z
1/2+x,y,1/2-z
1/2-x,1/2+y,z
1/2+x,-y,1/2+z
loop_
_atom_site_type_symbol
_atom_site_label
_atom_site_fract_x
_atom_site_fract_y
_atom_site_fract_z
Si Si1 0.110932 0.205518 0.278315
Si Si2 0.388630 0.376665 0.222482
Si Si3 0.389318 0.791125 0.451781
Si Si4 0.100830 0.532146 0.616740
Si Si5 0.663752 0.975142 0.852891
Si Si6 0.390648 0.620583 0.450575
O O1 0.139905 0.208127 0.115056
O O2 0.139364 0.247733 0.368381
O O3 0.140796 0.161229 0.355680
O O4 0.000000 0.205452 0.277687
O O5 0.500000 0.378252 0.223224
O O6 0.354571 0.421449 0.149911
O O7 0.360412 0.375154 0.386245
O O8 0.361463 0.334275 0.134014
O O9 0.500000 0.790985 0.452711
O O10 0.140910 0.500000 0.500000
O O11 0.096219 0.504741 0.760369
O O12 0.000000 0.542710 0.562808
O O13 0.750000 0.974988 0.750000
O O14 0.636327 0.925706 0.884920
O O15 0.672882 0.000000 0.000000
O O16 0.500000 0.622156 0.452939
#
# Coordination Sequence:
#
# PCOD9478688 Si02
#       6
#    16  16  16  16  16  16
#     4   9  17  28  47  78 115 151 183 225 277 333
#     4   9  17  30  50  78 111 147 182 226 280 332
#     4   9  16  27  45  75 117 152 181 222 277 334
#     4  10  21  36  58  86 116 147 186 236 287 340
#     4  12  25  42  59  80 112 153 193 239 288 348
#     4  10  20  35  58  85 112 146 190 235 285 339
#
# _framework density 22.482872
#
# number of rings (size 3 to 8) (size 9 to 14) (size 15 to 20)
#    0.000    2.167    1.667    2.000    2.333    4.667 
#    0.000    0.000    0.000    0.000    0.000    5.833 
#    0.000    0.000    0.000    0.000    0.000    0.000 
#
# Total GULP energy -268274.811415 kJ/mol
# GULP energy per Si atom -5589.058571 kJ/mol
# Density = 2.243170 g / cm^3
# Si number density = 22.482872 Si / 1000 Ang^3
#
#
#
# Elastic Constant Matrix: (Units=GPa)
#
#
# Indices 1 2 3 4 5 6 
#
# 1 42.3478 10.7673 9.2387 0.0000 0.0000 0.0000
# 2 10.7673 245.6252 110.1455 0.0000 0.0000 0.0000
# 3 9.2387 110.1455 161.7382 0.0000 0.0000 0.0000
# 4 0.0000 0.0000 0.0000 47.6068 0.0000 0.0000
# 5 0.0000 0.0000 0.0000 0.0000 -24.8635 0.0000
# 6 0.0000 0.0000 0.0000 0.0000 0.0000 -8.4903
#
#
#
# Elastic Compliance Matrix: (Units=1/GPa)
#
#
# Indices 1 2 3 4 5 6 
#
# 1 0.023979 -0.000629 -0.000941 0.000000 0.000000 0.000000
# 2 -0.000629 0.005878 -0.003967 0.000000 0.000000 0.000000
# 3 -0.000941 -0.003967 0.008938 0.000000 0.000000 0.000000
# 4 0.000000 0.000000 0.000000 0.021005 0.000000 0.000000
# 5 0.000000 0.000000 0.000000 0.000000 -0.040220 0.000000
# 6 0.000000 0.000000 0.000000 0.000000 0.000000 -0.117782
#
#
# Mechanical properties :
#
#
# Convention : Reuss Voigt Hill
#
# Bulk Modulus (GPa) = 36.07428 78.89047 57.48238
# Shear Modulus (GPa) = -64.19620 24.15457 -20.02082
#
# Velocity S-wave (km/s) = -5.34933 3.28129 -2.98735
# Velocity P-wave (km/s) = 4.69827 7.03713 3.70455
#
# Compressibility (1/GPa) = 0.02772058
#
# Stress axis : x y z
#
# Youngs Moduli (GPa) = 41.70266 170.13589 111.88125
#
# Poissons Ratio (x) = 0.10702 0.10532
# Poissons Ratio (y) = 0.02623 0.44381
# Poissons Ratio (z) = 0.03926 0.67490
#
# Static dielectric constant tensor:
#      x y z
#    x 1.901440 0.000000 0.000000 
#    y 0.000000 1.782960 0.000000 
#    z 0.000000 0.000000 1.735210 
# 
# From -- ./inp_files/8391.got.cif
#   From: 2010.05.17/outbox.cif.g08.bks.cpg/sg64_5_cif.got.tgz:8391.got - 2010.06.03 16:29:19.
