data_PCOD9478695
_publ_section_title
;
Structure prediction by ZEFSAII (Michael W. Deem and Ramdas Pophale) SiO2 
 PCOD9478695
Probable space group: C M C A
;
_chemical_formula_sum "Si O2"
_cell_formula_units_Z 72
_cell_length_a 17.458090
_cell_length_b 15.290578
_cell_length_c 12.134861
_cell_angle_alpha 90.000000
_cell_angle_beta 90.000000
_cell_angle_gamma 90.000000
_cell_volume 3239.331816
_symmetry_space_group_name_H-M "C M C A"
_symmetry_group_IT_number 64
_symmetry_cell_setting 'orthorhombic'
loop_
_space_group_symop_operation_xyz
x,y,z
-x,1/2-y,1/2+z
x,-y,-z
-x,1/2+y,1/2-z
-x,-y,-z
x,1/2+y,1/2-z
-x,y,z
x,1/2-y,1/2+z
1/2+x,1/2+y,z
1/2-x,-y,1/2+z
1/2+x,1/2-y,-z
1/2-x,y,1/2-z
1/2-x,1/2-y,-z
1/2+x,y,1/2-z
1/2-x,1/2+y,z
1/2+x,-y,1/2+z
loop_
_atom_site_type_symbol
_atom_site_label
_atom_site_fract_x
_atom_site_fract_y
_atom_site_fract_z
Si Si1 0.587328 0.515291 0.867348
Si Si2 0.261322 0.616116 0.905223
Si Si3 0.366013 0.500000 0.500000
Si Si4 0.917412 0.370447 0.821255
Si Si5 0.239605 0.691925 0.136014
O O1 0.500000 0.548757 0.842072
O O2 0.662434 0.576778 0.851027
O O3 0.594956 0.428646 0.789866
O O4 0.588482 0.500000 0.000000
O O5 0.231463 0.709254 0.861217
O O6 0.191757 0.548957 0.915837
O O7 0.275019 0.641715 0.034000
O O8 0.414704 0.437718 0.576821
O O9 0.852412 0.303414 0.861735
O O10 0.000000 0.327817 0.810018
O O11 0.250000 0.642348 0.250000
#
# Coordination Sequence:
#
# PCOD9478695 Si02
#       5
#    16  16   8  16  16
#     4  10  20  35  58  86 115 148 194 241 287 343
#     4  10  21  37  57  89 114 151 198 236 295 340
#     4  10  21  36  63  86 114 148 198 244 283 352
#     4  10  22  38  59  84 116 156 192 240 291 342
#     4  10  22  37  57  83 120 153 191 239 291 355
#
# _framework density 22.226806
#
# number of rings (size 3 to 8) (size 9 to 14) (size 15 to 20)
#    0.000    2.000    1.111    1.667    6.222    0.889 
#    0.000    0.000    0.000    1.333    0.000    0.000 
#    0.000    0.000    0.000    0.000    0.000    0.000 
#
# Total GULP energy -200404.231158 kJ/mol
# GULP energy per Si atom -5566.784199 kJ/mol
# Density = 2.217622 g / cm^3
# Si number density = 22.226806 Si / 1000 Ang^3
#
#
#
# Elastic Constant Matrix: (Units=GPa)
#
#
# Indices 1 2 3 4 5 6 
#
# 1 112.7187 15.5817 -16.2286 0.0000 0.0000 0.0000
# 2 15.5817 30.4102 -15.7740 0.0000 0.0000 0.0000
# 3 -16.2286 -15.7740 97.6899 0.0000 0.0000 0.0000
# 4 0.0000 0.0000 0.0000 8.8276 0.0000 0.0000
# 5 0.0000 0.0000 0.0000 0.0000 17.1684 0.0000
# 6 0.0000 0.0000 0.0000 0.0000 0.0000 25.0758
#
#
#
# Elastic Compliance Matrix: (Units=1/GPa)
#
#
# Indices 1 2 3 4 5 6 
#
# 1 0.009616 -0.004473 0.000875 0.000000 0.000000 0.000000
# 2 -0.004473 0.037970 0.005388 0.000000 0.000000 0.000000
# 3 0.000875 0.005388 0.011252 0.000000 0.000000 0.000000
# 4 0.000000 0.000000 0.000000 0.113282 0.000000 0.000000
# 5 0.000000 0.000000 0.000000 0.000000 0.058246 0.000000
# 6 0.000000 0.000000 0.000000 0.000000 0.000000 0.039879
#
#
# Mechanical properties :
#
#
# Convention : Reuss Voigt Hill
#
# Bulk Modulus (GPa) = 16.02091 23.10855 19.56473
# Shear Modulus (GPa) = 17.39303 27.36366 22.37835
#
# Velocity S-wave (km/s) = 2.80040 3.51253 3.17648
# Velocity P-wave (km/s) = 4.20475 5.18360 4.71962
#
# Compressibility (1/GPa) = 0.06241841
#
# Stress axis : x y z
#
# Youngs Moduli (GPa) = 103.99355 26.33627 88.87417
#
# Poissons Ratio (x) = 0.11780 -0.07778
# Poissons Ratio (y) = 0.46517 -0.47885
# Poissons Ratio (z) = -0.09101 -0.14190
#
# Static dielectric constant tensor:
#      x y z
#    x 1.907770 0.000000 0.000000 
#    y 0.000000 1.795800 0.000000 
#    z 0.000000 0.000000 1.889360 
# 
# From -- ./inp_files/15752.got.cif
#   From: 2010.05.17/outbox.cif.g08.bks.cpg/sg64_8_cif.got.tgz:15752.got - 2010.06.03 16:29:19.
