data_PCOD9478819
_publ_section_title
;
Structure prediction by ZEFSAII (Michael W. Deem and Ramdas Pophale) SiO2 
 PCOD9478819
Probable space group: C M C A
;
_chemical_formula_sum "Si O2"
_cell_formula_units_Z 80
_cell_length_a 18.362329
_cell_length_b 14.394617
_cell_length_c 14.622049
_cell_angle_alpha 90.000000
_cell_angle_beta 90.000000
_cell_angle_gamma 90.000000
_cell_volume 3864.880883
_symmetry_space_group_name_H-M "C M C A"
_symmetry_group_IT_number 64
_symmetry_cell_setting 'orthorhombic'
loop_
_space_group_symop_operation_xyz
x,y,z
-x,1/2-y,1/2+z
x,-y,-z
-x,1/2+y,1/2-z
-x,-y,-z
x,1/2+y,1/2-z
-x,y,z
x,1/2-y,1/2+z
1/2+x,1/2+y,z
1/2-x,-y,1/2+z
1/2+x,1/2-y,-z
1/2-x,y,1/2-z
1/2-x,1/2-y,-z
1/2+x,y,1/2-z
1/2-x,1/2+y,z
1/2+x,-y,1/2+z
loop_
_atom_site_type_symbol
_atom_site_label
_atom_site_fract_x
_atom_site_fract_y
_atom_site_fract_z
Si Si1 0.339283 0.721907 0.573552
Si Si2 0.086475 0.887525 0.262499
Si Si3 0.585931 0.734318 0.376714
Si Si4 0.176264 0.430962 0.806614
Si Si5 0.268739 0.594319 0.025632
O O1 0.383673 0.679556 0.657086
O O2 0.385434 0.723311 0.479640
O O3 0.312540 0.828095 0.582830
O O4 0.268756 0.656045 0.554155
O O5 0.099641 0.835547 0.166370
O O6 0.000000 0.901025 0.273753
O O7 0.129371 0.983346 0.271130
O O8 0.500000 0.716269 0.373168
O O9 0.628436 0.661358 0.313440
O O10 0.250000 0.422139 0.750000
O O11 0.203988 0.445041 0.910598
O O12 0.310650 0.500000 0.000000
#
# Coordination Sequence:
#
# PCOD9478819 Si02
#       5
#    16  16  16  16  16
#     4  10  21  38  63  85 124 158 198 256 305 354
#     4  11  23  40  61  87 122 163 206 251 306 372
#     4  10  23  41  61  89 122 162 207 247 301 372
#     4  11  23  37  63  90 121 159 200 256 311 359
#     4  10  20  36  56  92 120 149 197 251 302 362
#
# _framework density 20.699214000000001
#
# number of rings (size 3 to 8) (size 9 to 14) (size 15 to 20)
#    0.000    1.600    2.000    2.400    2.800    2.400 
#    0.000    3.000    0.000    1.200    0.000    0.000 
#    0.000    0.000    0.000    0.000    0.000    0.000 
#
# Total GULP energy -223398.760244 kJ/mol
# GULP energy per Si atom -5584.969006 kJ/mol
# Density = 2.065210 g / cm^3
# Si number density = 20.699214 Si / 1000 Ang^3
#
#
#
# Elastic Constant Matrix: (Units=GPa)
#
#
# Indices 1 2 3 4 5 6 
#
# 1 92.1137 38.7451 16.4633 0.0000 0.0000 0.0000
# 2 38.7451 129.7631 4.3014 0.0000 0.0000 0.0000
# 3 16.4633 4.3014 57.8318 0.0000 0.0000 0.0000
# 4 0.0000 0.0000 0.0000 25.2486 0.0000 0.0000
# 5 0.0000 0.0000 0.0000 0.0000 33.5682 0.0000
# 6 0.0000 0.0000 0.0000 0.0000 0.0000 37.3588
#
#
#
# Elastic Compliance Matrix: (Units=1/GPa)
#
#
# Indices 1 2 3 4 5 6 
#
# 1 0.013063 -0.003787 -0.003437 0.000000 0.000000 0.000000
# 2 -0.003787 0.008823 0.000422 0.000000 0.000000 0.000000
# 3 -0.003437 0.000422 0.018239 0.000000 0.000000 0.000000
# 4 0.000000 0.000000 0.000000 0.039606 0.000000 0.000000
# 5 0.000000 0.000000 0.000000 0.000000 0.029790 0.000000
# 6 0.000000 0.000000 0.000000 0.000000 0.000000 0.026767
#
#
# Mechanical properties :
#
#
# Convention : Reuss Voigt Hill
#
# Bulk Modulus (GPa) = 37.70618 44.30313 41.00465
# Shear Modulus (GPa) = 31.49949 33.91502 32.70726
#
# Velocity S-wave (km/s) = 3.90522 4.05219 3.97939
# Velocity P-wave (km/s) = 6.21210 6.58357 6.40053
#
# Compressibility (1/GPa) = 0.02652085
#
# Stress axis : x y z
#
# Youngs Moduli (GPa) = 76.55119 113.34066 54.82871
#
# Poissons Ratio (x) = 0.42916 0.18845
# Poissons Ratio (y) = 0.28986 -0.02312
# Poissons Ratio (z) = 0.26312 -0.04780
#
# Static dielectric constant tensor:
#      x y z
#    x 1.717510 0.000000 0.000000 
#    y 0.000000 1.762980 0.000000 
#    z 0.000000 0.000000 1.780150 
# 
# From -- ./inp_files/26141.got.cif
#   From: 2010.05.17/outbox.cif.g08.bks.cpg/sg64_14_cif.got.tgz:26141.got - 2010.06.03 16:29:19.
