data_PCOD9478594
_publ_section_title
;
Structure prediction by ZEFSAII (Michael W. Deem and Ramdas Pophale) SiO2 
 PCOD9478594
Probable space group: C M C A
;
_chemical_formula_sum "Si O2"
_cell_formula_units_Z 80
_cell_length_a 9.102747
_cell_length_b 26.420625
_cell_length_c 16.333329
_cell_angle_alpha 90.000000
_cell_angle_beta 90.000000
_cell_angle_gamma 90.000000
_cell_volume 3928.169952
_symmetry_space_group_name_H-M "C M C A"
_symmetry_group_IT_number 64
_symmetry_cell_setting 'orthorhombic'
loop_
_space_group_symop_operation_xyz
x,y,z
-x,1/2-y,1/2+z
x,-y,-z
-x,1/2+y,1/2-z
-x,-y,-z
x,1/2+y,1/2-z
-x,y,z
x,1/2-y,1/2+z
1/2+x,1/2+y,z
1/2-x,-y,1/2+z
1/2+x,1/2-y,-z
1/2-x,y,1/2-z
1/2-x,1/2-y,-z
1/2+x,y,1/2-z
1/2-x,1/2+y,z
1/2+x,-y,1/2+z
loop_
_atom_site_type_symbol
_atom_site_label
_atom_site_fract_x
_atom_site_fract_y
_atom_site_fract_z
Si Si1 0.166842 0.904436 0.871747
Si Si2 0.831932 0.914814 0.069031
Si Si3 0.326479 0.314202 0.418305
Si Si4 0.172690 0.004120 0.668239
Si Si5 0.175373 0.203984 0.092500
O O1 0.199715 0.845745 0.852884
O O2 0.000000 0.916927 0.844762
O O3 0.279323 0.945842 0.840615
O O4 0.168814 0.908213 0.970868
O O5 0.763436 0.863693 0.107019
O O6 0.738064 0.963126 0.094422
O O7 0.000000 0.921842 0.095011
O O8 0.500000 0.324848 0.415426
O O9 0.275363 0.303348 0.511988
O O10 0.297342 0.260403 0.374070
O O11 0.250000 0.024271 0.750000
O O12 0.000000 0.009174 0.672580
O O13 0.000000 0.202396 0.069299
#
# Coordination Sequence:
#
# PCOD9478594 Si02
#       5
#    16  16  16  16  16
#     4   9  18  34  55  79 108 140 172 209 255 304
#     4  10  20  35  55  79 108 140 172 211 259 307
#     4   9  15  25  45  75 107 137 171 209 250 300
#     4  12  25  39  55  75 101 135 175 218 264 312
#     4   8  15  27  45  72 107 141 168 204 255 303
#
# _framework density 20.365718000000001
#
# number of rings (size 3 to 8) (size 9 to 14) (size 15 to 20)
#    0.000    2.400    0.000    4.800    0.000    7.200 
#    0.000    0.000    0.000    1.200    0.000    5.600 
#    0.000    0.000    0.000    0.000    0.000    0.000 
#
# Total GULP energy -223102.878035 kJ/mol
# GULP energy per Si atom -5577.571951 kJ/mol
# Density = 2.031936 g / cm^3
# Si number density = 20.365718 Si / 1000 Ang^3
#
#
#
# Elastic Constant Matrix: (Units=GPa)
#
#
# Indices 1 2 3 4 5 6 
#
# 1 130.6567 60.0803 16.8171 0.0000 0.0000 0.0000
# 2 60.0803 106.9384 12.1435 0.0000 0.0000 0.0000
# 3 16.8171 12.1435 21.3667 0.0000 0.0000 0.0000
# 4 0.0000 0.0000 0.0000 -4.1049 0.0000 0.0000
# 5 0.0000 0.0000 0.0000 0.0000 17.7675 0.0000
# 6 0.0000 0.0000 0.0000 0.0000 0.0000 32.2834
#
#
#
# Elastic Compliance Matrix: (Units=1/GPa)
#
#
# Indices 1 2 3 4 5 6 
#
# 1 0.010881 -0.005495 -0.005441 0.000000 0.000000 0.000000
# 2 -0.005495 0.012772 -0.002933 0.000000 0.000000 0.000000
# 3 -0.005441 -0.002933 0.052751 0.000000 0.000000 0.000000
# 4 0.000000 0.000000 0.000000 -0.243610 0.000000 0.000000
# 5 0.000000 0.000000 0.000000 0.000000 0.056283 0.000000
# 6 0.000000 0.000000 0.000000 0.000000 0.000000 0.030976
#
#
# Mechanical properties :
#
#
# Convention : Reuss Voigt Hill
#
# Bulk Modulus (GPa) = 20.54877 48.56040 34.55459
# Shear Modulus (GPa) = -138.93733 20.51725 -59.21004
#
# Velocity S-wave (km/s) = -8.26857 3.17746 -5.39782
# Velocity P-wave (km/s) = 9.00262 6.11209 4.67384
#
# Compressibility (1/GPa) = 0.04866470
#
# Stress axis : x y z
#
# Youngs Moduli (GPa) = 91.90464 78.29840 18.95690
#
# Poissons Ratio (x) = 0.43027 0.10314
# Poissons Ratio (y) = 0.50504 0.05561
# Poissons Ratio (z) = 0.50004 0.22968
#
# Static dielectric constant tensor:
#      x y z
#    x 1.687150 0.000000 0.000000 
#    y 0.000000 1.779990 0.000000 
#    z 0.000000 0.000000 1.819790 
# 
# From -- ./inp_files/29714.got.cif
#   From: 2010.05.17/outbox.cif.g08.bks.cpg/sg64_15_cif.got.tgz:29714.got - 2010.06.03 16:29:19.
