data_PCOD9478652
_publ_section_title
;
Structure prediction by ZEFSAII (Michael W. Deem and Ramdas Pophale) SiO2 
 PCOD9478652
Probable space group: C M C A
;
_chemical_formula_sum "Si O2"
_cell_formula_units_Z 96
_cell_length_a 26.944236
_cell_length_b 17.406771
_cell_length_c 11.072479
_cell_angle_alpha 90.000000
_cell_angle_beta 90.000000
_cell_angle_gamma 90.000000
_cell_volume 5193.127135
_symmetry_space_group_name_H-M "C M C A"
_symmetry_group_IT_number 64
_symmetry_cell_setting 'orthorhombic'
loop_
_space_group_symop_operation_xyz
x,y,z
-x,1/2-y,1/2+z
x,-y,-z
-x,1/2+y,1/2-z
-x,-y,-z
x,1/2+y,1/2-z
-x,y,z
x,1/2-y,1/2+z
1/2+x,1/2+y,z
1/2-x,-y,1/2+z
1/2+x,1/2-y,-z
1/2-x,y,1/2-z
1/2-x,1/2-y,-z
1/2+x,y,1/2-z
1/2-x,1/2+y,z
1/2+x,-y,1/2+z
loop_
_atom_site_type_symbol
_atom_site_label
_atom_site_fract_x
_atom_site_fract_y
_atom_site_fract_z
Si Si1 0.138282 0.378267 0.131443
Si Si2 0.869989 0.457637 0.750862
Si Si3 0.688730 0.085495 0.469071
Si Si4 0.195784 0.203630 0.813835
Si Si5 0.943479 0.912626 0.552244
Si Si6 0.293294 0.628181 0.410736
O O1 0.127761 0.451605 0.218024
O O2 0.154242 0.306350 0.211314
O O3 0.092111 0.368083 0.041027
O O4 0.185536 0.392969 0.043321
O O5 0.859239 0.430151 0.614751
O O6 0.916403 0.418408 0.818457
O O7 0.821615 0.428757 0.822602
O O8 0.685123 0.137150 0.588144
O O9 0.734460 0.123960 0.399421
O O10 0.706679 0.000000 0.500000
O O11 0.250000 0.195254 0.750000
O O12 0.192509 0.284738 0.879865
O O13 0.000000 0.885703 0.557850
O O14 0.943419 0.000000 0.500000
#
# Coordination Sequence:
#
# PCOD9478652 Si02
#       6
#    16  16  16  16  16  16
#     4  10  20  37  55  82 112 143 189 240 277 329
#     4  10  20  35  56  86 106 141 193 237 281 331
#     4  12  22  34  53  76 115 158 188 226 278 330
#     4  12  24  36  50  78 120 156 191 225 269 333
#     4   8  16  34  62  86 105 133 182 242 290 332
#     4  11  23  34  55  76 113 155 194 225 269 326
#
# _framework density 18.485972
#
# number of rings (size 3 to 8) (size 9 to 14) (size 15 to 20)
#    0.000    1.500    3.333    4.500    2.333    0.000 
#    0.000    0.000    0.000    5.500    0.000    0.000 
#    0.000    0.000    0.000    0.000    0.000    0.000 
#
# Total GULP energy -267620.617494 kJ/mol
# GULP energy per Si atom -5575.429531 kJ/mol
# Density = 1.844390 g / cm^3
# Si number density = 18.485972 Si / 1000 Ang^3
#
#
#
# Elastic Constant Matrix: (Units=GPa)
#
#
# Indices 1 2 3 4 5 6 
#
# 1 107.8813 11.8748 35.0946 0.0000 0.0000 0.0000
# 2 11.8748 60.1967 18.0565 0.0000 0.0000 0.0000
# 3 35.0946 18.0565 55.4659 0.0000 0.0000 0.0000
# 4 0.0000 0.0000 0.0000 14.8607 0.0000 0.0000
# 5 0.0000 0.0000 0.0000 0.0000 14.4030 0.0000
# 6 0.0000 0.0000 0.0000 0.0000 0.0000 6.1216
#
#
#
# Elastic Compliance Matrix: (Units=1/GPa)
#
#
# Indices 1 2 3 4 5 6 
#
# 1 0.011672 -0.000097 -0.007354 0.000000 0.000000 0.000000
# 2 -0.000097 0.018411 -0.005932 0.000000 0.000000 0.000000
# 3 -0.007354 -0.005932 0.024613 0.000000 0.000000 0.000000
# 4 0.000000 0.000000 0.000000 0.067291 0.000000 0.000000
# 5 0.000000 0.000000 0.000000 0.000000 0.069430 0.000000
# 6 0.000000 0.000000 0.000000 0.000000 0.000000 0.163357
#
#
# Mechanical properties :
#
#
# Convention : Reuss Voigt Hill
#
# Bulk Modulus (GPa) = 35.80306 39.28844 37.54575
# Shear Modulus (GPa) = 12.79261 17.64492 15.21876
#
# Velocity S-wave (km/s) = 2.63348 3.09285 2.87236
# Velocity P-wave (km/s) = 5.35319 5.83554 5.59956
#
# Compressibility (1/GPa) = 0.02793058
#
# Stress axis : x y z
#
# Youngs Moduli (GPa) = 85.67233 54.31618 40.62845
#
# Poissons Ratio (x) = 0.00525 0.29878
# Poissons Ratio (y) = 0.00828 0.24102
# Poissons Ratio (z) = 0.63003 0.32222
#
# Static dielectric constant tensor:
#      x y z
#    x 1.632720 0.000000 0.000000 
#    y 0.000000 1.641030 0.000000 
#    z 0.000000 0.000000 1.724830 
# 
# From -- ./inp_files/19135.got.cif
#   From: 2010.05.17/outbox.cif.g08.bks.cpg/sg64_10_cif.got.tgz:19135.got - 2010.06.03 16:29:19.
