data_PCOD9478327
_publ_section_title
;
Structure prediction by ZEFSAII (Michael W. Deem and Ramdas Pophale) SiO2 
 PCOD9478327
Probable space group: C M C A
;
_chemical_formula_sum "Si O2"
_cell_formula_units_Z 80
_cell_length_a 7.981160
_cell_length_b 15.580308
_cell_length_c 31.171706
_cell_angle_alpha 90.000000
_cell_angle_beta 90.000000
_cell_angle_gamma 90.000000
_cell_volume 3876.168318
_symmetry_space_group_name_H-M "C M C A"
_symmetry_group_IT_number 64
_symmetry_cell_setting 'orthorhombic'
loop_
_space_group_symop_operation_xyz
x,y,z
-x,1/2-y,1/2+z
x,-y,-z
-x,1/2+y,1/2-z
-x,-y,-z
x,1/2+y,1/2-z
-x,y,z
x,1/2-y,1/2+z
1/2+x,1/2+y,z
1/2-x,-y,1/2+z
1/2+x,1/2-y,-z
1/2-x,y,1/2-z
1/2-x,1/2-y,-z
1/2+x,y,1/2-z
1/2-x,1/2+y,z
1/2+x,-y,1/2+z
loop_
_atom_site_type_symbol
_atom_site_label
_atom_site_fract_x
_atom_site_fract_y
_atom_site_fract_z
Si Si1 0.299422 0.983499 0.138993
Si Si2 0.314516 0.769292 0.452709
Si Si3 0.200855 0.041947 0.545732
Si Si4 0.202368 0.133506 0.299483
Si Si5 0.797037 0.715627 0.639528
O O1 0.500000 0.984998 0.142252
O O2 0.260079 0.008813 0.089502
O O3 0.248404 0.884218 0.145659
O O4 0.233375 0.051654 0.173319
O O5 0.500000 0.731219 0.451456
O O6 0.250000 0.750000 0.500000
O O7 0.307719 0.872131 0.451246
O O8 0.231414 0.749031 0.406712
O O9 0.000000 0.062515 0.546821
O O10 0.234224 0.000000 0.500000
O O11 0.250000 0.129594 0.250000
O O12 0.259284 0.221062 0.322863
O O13 0.000000 0.132958 0.301866
O O14 0.000000 0.718693 0.637020
#
# Coordination Sequence:
#
# PCOD9478327 Si02
#       5
#    16  16  16  16  16
#     4   9  19  36  57  81 111 144 183 227 273 328
#     4  10  20  33  52  78 110 145 183 225 272 327
#     4   9  18  32  54  79 106 144 184 219 267 328
#     4  10  22  39  59  83 109 144 186 230 279 331
#     4   9  20  38  58  79 111 148 184 228 279 329
#
# _framework density 20.638939000000001
#
# number of rings (size 3 to 8) (size 9 to 14) (size 15 to 20)
#    0.000    2.600    0.000    0.600    2.800    3.600 
#    0.000    4.000    0.000    0.000    0.000    0.000 
#    0.000    0.000    0.000    0.000    0.000    0.000 
#
# Total GULP energy -222841.515891 kJ/mol
# GULP energy per Si atom -5571.037897 kJ/mol
# Density = 2.059196 g / cm^3
# Si number density = 20.638939 Si / 1000 Ang^3
#
#
#
# Elastic Constant Matrix: (Units=GPa)
#
#
# Indices 1 2 3 4 5 6 
#
# 1 8.9195 2.5934 18.8862 0.0000 0.0000 0.0000
# 2 2.5934 88.6867 92.4709 0.0000 0.0000 0.0000
# 3 18.8862 92.4709 220.3424 0.0000 0.0000 0.0000
# 4 0.0000 0.0000 0.0000 40.2493 0.0000 0.0000
# 5 0.0000 0.0000 0.0000 0.0000 25.1292 0.0000
# 6 0.0000 0.0000 0.0000 0.0000 0.0000 23.2553
#
#
#
# Elastic Compliance Matrix: (Units=1/GPa)
#
#
# Indices 1 2 3 4 5 6 
#
# 1 0.148574 0.015884 -0.019401 0.000000 0.000000 0.000000
# 2 0.015884 0.021746 -0.010488 0.000000 0.000000 0.000000
# 3 -0.019401 -0.010488 0.010603 0.000000 0.000000 0.000000
# 4 0.000000 0.000000 0.000000 0.024845 0.000000 0.000000
# 5 0.000000 0.000000 0.000000 0.000000 0.039794 0.000000
# 6 0.000000 0.000000 0.000000 0.000000 0.000000 0.043001
#
#
# Mechanical properties :
#
#
# Convention : Reuss Voigt Hill
#
# Bulk Modulus (GPa) = 6.53960 60.64995 33.59478
# Shear Modulus (GPa) = 13.60379 31.32663 22.46521
#
# Velocity S-wave (km/s) = 2.57014 3.90017 3.30280
# Velocity P-wave (km/s) = 3.46164 7.05208 5.55494
#
# Compressibility (1/GPa) = 0.15291445
#
# Stress axis : x y z
#
# Youngs Moduli (GPa) = 6.73063 45.98453 94.31582
#
# Poissons Ratio (x) = -0.73042 1.82980
# Poissons Ratio (y) = -0.10691 0.98916
# Poissons Ratio (z) = 0.13058 0.48228
#
# Static dielectric constant tensor:
#      x y z
#    x 1.774400 0.000000 0.000000 
#    y 0.000000 1.713450 0.000000 
#    z 0.000000 0.000000 1.783020 
# 
# From -- ./inp_files/47808.got.cif
#   From: 2010.05.17/outbox.cif.g08.bks.cpg/sg64_24_cif.got.tgz:47808.got - 2010.06.03 16:29:19.
