data_PCOD9478626
_publ_section_title
;
Structure prediction by ZEFSAII (Michael W. Deem and Ramdas Pophale) SiO2 
 PCOD9478626
Probable space group: C M C A
;
_chemical_formula_sum "Si O2"
_cell_formula_units_Z 80
_cell_length_a 13.377717
_cell_length_b 26.924190
_cell_length_c 12.412203
_cell_angle_alpha 90.000000
_cell_angle_beta 90.000000
_cell_angle_gamma 90.000000
_cell_volume 4470.679337
_symmetry_space_group_name_H-M "C M C A"
_symmetry_group_IT_number 64
_symmetry_cell_setting 'orthorhombic'
loop_
_space_group_symop_operation_xyz
x,y,z
-x,1/2-y,1/2+z
x,-y,-z
-x,1/2+y,1/2-z
-x,-y,-z
x,1/2+y,1/2-z
-x,y,z
x,1/2-y,1/2+z
1/2+x,1/2+y,z
1/2-x,-y,1/2+z
1/2+x,1/2-y,-z
1/2-x,y,1/2-z
1/2-x,1/2-y,-z
1/2+x,y,1/2-z
1/2-x,1/2+y,z
1/2+x,-y,1/2+z
loop_
_atom_site_type_symbol
_atom_site_label
_atom_site_fract_x
_atom_site_fract_y
_atom_site_fract_z
Si Si1 0.250000 0.920454 0.250000
Si Si2 0.881416 0.837751 0.365385
Si Si3 0.806152 0.164658 0.391743
Si Si4 0.250000 0.755838 0.250000
Si Si5 0.385261 0.502119 0.871310
Si Si6 0.615585 0.611404 0.182485
O O1 0.174102 0.885399 0.315170
O O2 0.312252 0.956260 0.327593
O O3 0.854678 0.835120 0.491822
O O4 0.832906 0.790535 0.304893
O O5 0.000000 0.839799 0.350287
O O6 0.796498 0.219250 0.339779
O O7 0.694372 0.141191 0.391246
O O8 0.865135 0.131694 0.303159
O O9 0.500000 0.514002 0.841607
O O10 0.362889 0.447152 0.826029
O O11 0.378999 0.500000 0.000000
O O12 0.500000 0.619221 0.151816
#
# Coordination Sequence:
#
# PCOD9478626 Si02
#       6
#     8  16  16   8  16  16
#     4  11  22  37  54  80 112 141 178 225 266 312
#     4  11  23  38  56  79 108 141 178 224 275 320
#     4  10  20  37  58  82 110 140 176 223 272 321
#     4   9  22  39  56  80 106 139 182 219 264 328
#     4  10  20  35  56  80 109 147 183 215 258 313
#     4   9  18  33  56  84 111 143 182 219 260 315
#
# _framework density 17.894372000000001
#
# number of rings (size 3 to 8) (size 9 to 14) (size 15 to 20)
#    0.000    2.200    0.000    4.200    0.000    4.000 
#    0.000    4.000    0.000    6.000    0.000    0.000 
#    0.000    0.000    0.000    0.000    0.000    0.000 
#
# Total GULP energy -223307.485505 kJ/mol
# GULP energy per Si atom -5582.687138 kJ/mol
# Density = 1.785364 g / cm^3
# Si number density = 17.894372 Si / 1000 Ang^3
#
#
#
# Elastic Constant Matrix: (Units=GPa)
#
#
# Indices 1 2 3 4 5 6 
#
# 1 137.0487 84.2157 66.4870 0.0000 0.0000 0.0000
# 2 84.2157 147.0582 60.3135 0.0000 0.0000 0.0000
# 3 66.4870 60.3135 82.2968 0.0000 0.0000 0.0000
# 4 0.0000 0.0000 0.0000 8.3267 0.0000 0.0000
# 5 0.0000 0.0000 0.0000 0.0000 21.1752 0.0000
# 6 0.0000 0.0000 0.0000 0.0000 0.0000 42.4784
#
#
#
# Elastic Compliance Matrix: (Units=1/GPa)
#
#
# Indices 1 2 3 4 5 6 
#
# 1 0.014067 -0.004854 -0.007807 0.000000 0.000000 0.000000
# 2 -0.004854 0.011397 -0.004431 0.000000 0.000000 0.000000
# 3 -0.007807 -0.004431 0.021706 0.000000 0.000000 0.000000
# 4 0.000000 0.000000 0.000000 0.120095 0.000000 0.000000
# 5 0.000000 0.000000 0.000000 0.000000 0.047225 0.000000
# 6 0.000000 0.000000 0.000000 0.000000 0.000000 0.023541
#
#
# Mechanical properties :
#
#
# Convention : Reuss Voigt Hill
#
# Bulk Modulus (GPa) = 77.00971 87.60401 82.30686
# Shear Modulus (GPa) = 18.08022 24.75522 21.41772
#
# Velocity S-wave (km/s) = 3.18211 3.72345 3.46337
# Velocity P-wave (km/s) = 7.52530 8.21876 7.87966
#
# Compressibility (1/GPa) = 0.01298538
#
# Stress axis : x y z
#
# Youngs Moduli (GPa) = 71.08937 87.74244 46.06933
#
# Poissons Ratio (x) = 0.42586 0.35968
# Poissons Ratio (y) = 0.34504 0.20415
# Poissons Ratio (z) = 0.55502 0.38883
#
# Static dielectric constant tensor:
#      x y z
#    x 1.608750 0.000000 0.000000 
#    y 0.000000 1.596920 0.000000 
#    z 0.000000 0.000000 1.585080 
# 
# From -- ./inp_files/14512.got.cif
#   From: 2010.05.17/outbox.cif.g08.bks.cpg/sg64_8_cif.got.tgz:14512.got - 2010.06.03 16:29:19.
