data_PCOD9478448
_publ_section_title
;
Structure prediction by ZEFSAII (Michael W. Deem and Ramdas Pophale) SiO2 
 PCOD9478448
Probable space group: C M C A
;
_chemical_formula_sum "Si O2"
_cell_formula_units_Z 80
_cell_length_a 7.795386
_cell_length_b 18.884559
_cell_length_c 26.540531
_cell_angle_alpha 90.000000
_cell_angle_beta 90.000000
_cell_angle_gamma 90.000000
_cell_volume 3907.095978
_symmetry_space_group_name_H-M "C M C A"
_symmetry_group_IT_number 64
_symmetry_cell_setting 'orthorhombic'
loop_
_space_group_symop_operation_xyz
x,y,z
-x,1/2-y,1/2+z
x,-y,-z
-x,1/2+y,1/2-z
-x,-y,-z
x,1/2+y,1/2-z
-x,y,z
x,1/2-y,1/2+z
1/2+x,1/2+y,z
1/2-x,-y,1/2+z
1/2+x,1/2-y,-z
1/2-x,y,1/2-z
1/2-x,1/2-y,-z
1/2+x,y,1/2-z
1/2-x,1/2+y,z
1/2+x,-y,1/2+z
loop_
_atom_site_type_symbol
_atom_site_label
_atom_site_fract_x
_atom_site_fract_y
_atom_site_fract_z
Si Si1 0.206540 0.832516 0.000897
Si Si2 0.706177 0.672708 0.193602
Si Si3 0.296212 0.921640 0.404136
Si Si4 0.789288 0.917186 0.901778
Si Si5 0.295545 0.834466 0.193532
O O1 0.272893 0.872378 0.050829
O O2 0.000000 0.837112 0.001200
O O3 0.250000 0.750000 0.000000
O O4 0.265636 0.872741 0.950593
O O5 0.500000 0.675554 0.190057
O O6 0.750000 0.648519 0.250000
O O7 0.767995 0.621971 0.149172
O O8 0.771087 0.753599 0.187583
O O9 0.500000 0.927435 0.412578
O O10 0.269870 0.884428 0.350580
O O11 0.229224 0.001807 0.404715
O O12 0.000000 0.917624 0.901272
O O13 0.500000 0.832195 0.189462
O O14 0.250000 0.858315 0.250000
#
# Coordination Sequence:
#
# PCOD9478448 Si02
#       5
#    16  16  16  16  16
#     4  10  20  35  56  79 104 137 177 219 262 312
#     4   9  18  33  53  74  99 133 172 213 255 303
#     4  10  20  34  54  79 106 137 174 216 263 315
#     4   9  18  34  54  76 104 138 174 212 259 313
#     4  10  20  35  55  78 106 139 175 215 258 307
#
# _framework density 20.475565
#
# number of rings (size 3 to 8) (size 9 to 14) (size 15 to 20)
#    0.000    2.400    0.000    2.400    0.000    6.400 
#    0.000    5.000    0.000    2.400    0.000    0.000 
#    0.000    0.000    0.000    0.000    0.000    0.000 
#
# Total GULP energy -223384.510891 kJ/mol
# GULP energy per Si atom -5584.612772 kJ/mol
# Density = 2.042896 g / cm^3
# Si number density = 20.475565 Si / 1000 Ang^3
#
#
#
# Elastic Constant Matrix: (Units=GPa)
#
#
# Indices 1 2 3 4 5 6 
#
# 1 23.5420 3.7948 -2.9632 0.0000 0.0000 0.0000
# 2 3.7948 185.6227 146.2141 0.0000 0.0000 0.0000
# 3 -2.9632 146.2141 207.2610 0.0000 0.0000 0.0000
# 4 0.0000 0.0000 0.0000 34.5135 0.0000 0.0000
# 5 0.0000 0.0000 0.0000 0.0000 20.9751 0.0000
# 6 0.0000 0.0000 0.0000 0.0000 0.0000 38.3089
#
#
#
# Elastic Compliance Matrix: (Units=1/GPa)
#
#
# Indices 1 2 3 4 5 6 
#
# 1 0.043328 -0.003092 0.002801 0.000000 0.000000 0.000000
# 2 -0.003092 0.012346 -0.008753 0.000000 0.000000 0.000000
# 3 0.002801 -0.008753 0.011040 0.000000 0.000000 0.000000
# 4 0.000000 0.000000 0.000000 0.028974 0.000000 0.000000
# 5 0.000000 0.000000 0.000000 0.000000 0.047676 0.000000
# 6 0.000000 0.000000 0.000000 0.000000 0.000000 0.026104
#
#
# Mechanical properties :
#
#
# Convention : Reuss Voigt Hill
#
# Bulk Modulus (GPa) = 20.56580 78.94633 49.75607
# Shear Modulus (GPa) = 24.53812 36.71818 30.62815
#
# Velocity S-wave (km/s) = 3.46556 4.23929 3.87180
# Velocity P-wave (km/s) = 5.10680 7.91216 6.65889
#
# Compressibility (1/GPa) = 0.04862441
#
# Stress axis : x y z
#
# Youngs Moduli (GPa) = 23.07970 81.00078 90.57888
#
# Poissons Ratio (x) = 0.25044 -0.25367
# Poissons Ratio (y) = 0.07136 0.79288
# Poissons Ratio (z) = -0.06464 0.70904
#
# Static dielectric constant tensor:
#      x y z
#    x 1.787040 0.000000 0.000000 
#    y 0.000000 1.706560 0.000000 
#    z 0.000000 0.000000 1.686850 
# 
# From -- ./inp_files/47786.got.cif
#   From: 2010.05.17/outbox.cif.g08.bks.cpg/sg64_24_cif.got.tgz:47786.got - 2010.06.03 16:29:19.
