data_PCOD9478936
_publ_section_title
;
Structure prediction by ZEFSAII (Michael W. Deem and Ramdas Pophale) SiO2 
 PCOD9478936
Probable space group: C M C A
;
_chemical_formula_sum "Si O2"
_cell_formula_units_Z 112
_cell_length_a 14.439429
_cell_length_b 14.454477
_cell_length_c 26.345206
_cell_angle_alpha 90.000000
_cell_angle_beta 90.000000
_cell_angle_gamma 90.000000
_cell_volume 5498.623715
_symmetry_space_group_name_H-M "C M C A"
_symmetry_group_IT_number 64
_symmetry_cell_setting 'orthorhombic'
loop_
_space_group_symop_operation_xyz
x,y,z
-x,1/2-y,1/2+z
x,-y,-z
-x,1/2+y,1/2-z
-x,-y,-z
x,1/2+y,1/2-z
-x,y,z
x,1/2-y,1/2+z
1/2+x,1/2+y,z
1/2-x,-y,1/2+z
1/2+x,1/2-y,-z
1/2-x,y,1/2-z
1/2-x,1/2-y,-z
1/2+x,y,1/2-z
1/2-x,1/2+y,z
1/2+x,-y,1/2+z
loop_
_atom_site_type_symbol
_atom_site_label
_atom_site_fract_x
_atom_site_fract_y
_atom_site_fract_z
Si Si1 0.603720 0.934421 0.046596
Si Si2 0.220328 0.839471 0.373518
Si Si3 0.111950 0.097130 0.024235
Si Si4 0.888251 0.846908 0.862687
Si Si5 0.245977 0.974978 0.810083
Si Si6 0.100886 0.100355 0.377292
Si Si7 0.892325 0.781083 0.068985
O O1 0.500000 0.896951 0.034556
O O2 0.672275 0.861026 0.071471
O O3 0.595216 0.003319 0.094335
O O4 0.633090 0.000000 0.000000
O O5 0.163007 0.751228 0.352823
O O6 0.326251 0.819717 0.387767
O O7 0.228198 0.926538 0.335632
O O8 0.143100 0.119345 0.080899
O O9 0.000000 0.090891 0.027287
O O10 0.134776 0.178722 0.985308
O O11 0.144623 0.000000 0.000000
O O12 0.851057 0.928767 0.826792
O O13 0.000000 0.836231 0.861301
O O14 0.250000 0.981218 0.750000
O O15 0.321545 0.905099 0.834802
O O16 0.117844 0.172199 0.422931
O O17 0.000000 0.123497 0.355269
O O18 0.000000 0.806564 0.076474
#
# Coordination Sequence:
#
# PCOD9478936 Si02
#       7
#    16  16  16  16  16  16  16
#     4   9  19  34  56  86 124 163 200 246 308 378
#     4  11  23  39  63  95 128 165 214 272 323 385
#     4   9  19  35  58  91 134 176 211 250 307 386
#     4  11  24  43  67  98 134 171 215 270 328 388
#     4  11  25  45  68  89 121 162 215 277 340 389
#     4   9  19  38  60  87 120 158 204 252 307 375
#     4  10  20  36  60  89 127 169 207 246 305 384
#
# _framework density 20.368732999999999
#
# number of rings (size 3 to 8) (size 9 to 14) (size 15 to 20)
#    0.000    2.000    1.429    1.286    2.000    6.857 
#    0.000    0.000    0.000    0.000    0.000    0.000 
#    0.000    0.000    0.000    0.000    0.000    0.000 
#
# Total GULP energy -312263.827923 kJ/mol
# GULP energy per Si atom -5576.139784 kJ/mol
# Density = 2.032237 g / cm^3
# Si number density = 20.368733 Si / 1000 Ang^3
#
#
#
# Elastic Constant Matrix: (Units=GPa)
#
#
# Indices 1 2 3 4 5 6 
#
# 1 76.1600 37.0232 44.4090 0.0000 0.0000 0.0000
# 2 37.0232 95.8818 40.9805 0.0000 0.0000 0.0000
# 3 44.4090 40.9805 90.3545 0.0000 0.0000 0.0000
# 4 0.0000 0.0000 0.0000 21.4919 0.0000 0.0000
# 5 0.0000 0.0000 0.0000 0.0000 16.9638 0.0000
# 6 0.0000 0.0000 0.0000 0.0000 0.0000 21.8368
#
#
#
# Elastic Compliance Matrix: (Units=1/GPa)
#
#
# Indices 1 2 3 4 5 6 
#
# 1 0.019745 -0.004312 -0.007749 0.000000 0.000000 0.000000
# 2 -0.004312 0.013879 -0.004175 0.000000 0.000000 0.000000
# 3 -0.007749 -0.004175 0.016770 0.000000 0.000000 0.000000
# 4 0.000000 0.000000 0.000000 0.046529 0.000000 0.000000
# 5 0.000000 0.000000 0.000000 0.000000 0.058949 0.000000
# 6 0.000000 0.000000 0.000000 0.000000 0.000000 0.045794
#
#
# Mechanical properties :
#
#
# Convention : Reuss Voigt Hill
#
# Bulk Modulus (GPa) = 55.80068 56.35796 56.07932
# Shear Modulus (GPa) = 20.82354 21.39074 21.10714
#
# Velocity S-wave (km/s) = 3.20086 3.24416 3.22258
# Velocity P-wave (km/s) = 6.41213 6.46233 6.43728
#
# Compressibility (1/GPa) = 0.01792093
#
# Stress axis : x y z
#
# Youngs Moduli (GPa) = 50.64619 72.04994 59.63106
#
# Poissons Ratio (x) = 0.31070 0.46206
# Poissons Ratio (y) = 0.21840 0.24899
# Poissons Ratio (z) = 0.39244 0.30084
#
# Static dielectric constant tensor:
#      x y z
#    x 1.802980 0.000000 0.000000 
#    y 0.000000 1.800420 0.000000 
#    z 0.000000 0.000000 1.674820 
# 
# From -- ./inp_files/45279.got.cif
#   From: 2010.05.17/outbox.cif.g08.bks.cpg/sg64_23_cif.got.tgz:45279.got - 2010.06.03 16:29:19.
