data_PCOD9478458
_publ_section_title
;
Structure prediction by ZEFSAII (Michael W. Deem and Ramdas Pophale) SiO2 
 PCOD9478458
Probable space group: C M C A
;
_chemical_formula_sum "Si O2"
_cell_formula_units_Z 80
_cell_length_a 15.492733
_cell_length_b 20.060722
_cell_length_c 14.820453
_cell_angle_alpha 90.000000
_cell_angle_beta 90.000000
_cell_angle_gamma 90.000000
_cell_volume 4606.128763
_symmetry_space_group_name_H-M "C M C A"
_symmetry_group_IT_number 64
_symmetry_cell_setting 'orthorhombic'
loop_
_space_group_symop_operation_xyz
x,y,z
-x,1/2-y,1/2+z
x,-y,-z
-x,1/2+y,1/2-z
-x,-y,-z
x,1/2+y,1/2-z
-x,y,z
x,1/2-y,1/2+z
1/2+x,1/2+y,z
1/2-x,-y,1/2+z
1/2+x,1/2-y,-z
1/2-x,y,1/2-z
1/2-x,1/2-y,-z
1/2+x,y,1/2-z
1/2-x,1/2+y,z
1/2+x,-y,1/2+z
loop_
_atom_site_type_symbol
_atom_site_label
_atom_site_fract_x
_atom_site_fract_y
_atom_site_fract_z
Si Si1 0.258889 0.326605 0.025419
Si Si2 0.601513 0.487792 0.603024
Si Si3 0.398008 0.212885 0.659898
Si Si4 0.399761 0.135299 0.848496
Si Si5 0.303605 0.143150 0.159030
O O1 0.342036 0.330565 0.089301
O O2 0.171714 0.344564 0.078825
O O3 0.250000 0.250000 0.000000
O O4 0.258674 0.361057 0.928486
O O5 0.634964 0.500000 0.500000
O O6 0.500000 0.475483 0.593161
O O7 0.612424 0.555633 0.660203
O O8 0.640676 0.423408 0.649907
O O9 0.500000 0.213842 0.639533
O O10 0.386574 0.178462 0.758067
O O11 0.359972 0.288343 0.657101
O O12 0.500000 0.145395 0.878158
O O13 0.250000 0.144900 0.250000
#
# Coordination Sequence:
#
# PCOD9478458 Si02
#       5
#    16  16  16  16  16
#     4  10  20  34  54  80 113 148 189 235 284 344
#     4  10  20  37  60  86 114 152 198 241 290 353
#     4  10  21  37  58  84 117 156 195 242 293 348
#     4  10  20  36  60  86 113 148 194 241 292 346
#     4  11  22  37  55  85 119 153 193 246 296 349
#
# _framework density 17.368164
#
# number of rings (size 3 to 8) (size 9 to 14) (size 15 to 20)
#    0.000    1.800    2.000    3.600    0.000    4.800 
#    0.000    2.000    0.000    0.000    0.000    7.000 
#    0.000    0.000    0.000    0.000    0.000    0.000 
#
# Total GULP energy -222876.518923 kJ/mol
# GULP energy per Si atom -5571.912973 kJ/mol
# Density = 1.732863 g / cm^3
# Si number density = 17.368164 Si / 1000 Ang^3
#
#
#
# Elastic Constant Matrix: (Units=GPa)
#
#
# Indices 1 2 3 4 5 6 
#
# 1 93.1302 55.9106 80.9181 0.0000 0.0000 0.0000
# 2 55.9106 97.1817 37.3719 0.0000 0.0000 0.0000
# 3 80.9181 37.3719 117.5057 0.0000 0.0000 0.0000
# 4 0.0000 0.0000 0.0000 19.9156 0.0000 0.0000
# 5 0.0000 0.0000 0.0000 0.0000 15.6083 0.0000
# 6 0.0000 0.0000 0.0000 0.0000 0.0000 24.6865
#
#
#
# Elastic Compliance Matrix: (Units=1/GPa)
#
#
# Indices 1 2 3 4 5 6 
#
# 1 0.037408 -0.013234 -0.021551 0.000000 0.000000 0.000000
# 2 -0.013234 0.016406 0.003895 0.000000 0.000000 0.000000
# 3 -0.021551 0.003895 0.022112 0.000000 0.000000 0.000000
# 4 0.000000 0.000000 0.000000 0.050212 0.000000 0.000000
# 5 0.000000 0.000000 0.000000 0.000000 0.064068 0.000000
# 6 0.000000 0.000000 0.000000 0.000000 0.000000 0.040508
#
#
# Mechanical properties :
#
#
# Convention : Reuss Voigt Hill
#
# Bulk Modulus (GPa) = 70.68890 72.91319 71.80104
# Shear Modulus (GPa) = 16.82323 20.94989 18.88656
#
# Velocity S-wave (km/s) = 3.11565 3.47684 3.30119
# Velocity P-wave (km/s) = 7.33019 7.62824 7.48070
#
# Compressibility (1/GPa) = 0.01414649
#
# Stress axis : x y z
#
# Youngs Moduli (GPa) = 26.73246 60.95481 45.22403
#
# Poissons Ratio (x) = 0.80666 0.97463
# Poissons Ratio (y) = 0.35377 -0.17617
# Poissons Ratio (z) = 0.57612 -0.23745
#
# Static dielectric constant tensor:
#      x y z
#    x 1.591160 0.000000 0.000000 
#    y 0.000000 1.644070 0.000000 
#    z 0.000000 0.000000 1.513100 
# 
# From -- ./inp_files/23640.got.cif
#   From: 2010.05.17/outbox.cif.g08.bks.cpg/sg64_12_cif.got.tgz:23640.got - 2010.06.03 16:29:19.
