data_PCOD9478517
_publ_section_title
;
Structure prediction by ZEFSAII (Michael W. Deem and Ramdas Pophale) SiO2 
 PCOD9478517
Probable space group: C M C A
;
_chemical_formula_sum "Si O2"
_cell_formula_units_Z 80
_cell_length_a 9.783286
_cell_length_b 29.574589
_cell_length_c 14.504133
_cell_angle_alpha 90.000000
_cell_angle_beta 90.000000
_cell_angle_gamma 90.000000
_cell_volume 4196.577435
_symmetry_space_group_name_H-M "C M C A"
_symmetry_group_IT_number 64
_symmetry_cell_setting 'orthorhombic'
loop_
_space_group_symop_operation_xyz
x,y,z
-x,1/2-y,1/2+z
x,-y,-z
-x,1/2+y,1/2-z
-x,-y,-z
x,1/2+y,1/2-z
-x,y,z
x,1/2-y,1/2+z
1/2+x,1/2+y,z
1/2-x,-y,1/2+z
1/2+x,1/2-y,-z
1/2-x,y,1/2-z
1/2-x,1/2-y,-z
1/2+x,y,1/2-z
1/2-x,1/2+y,z
1/2+x,-y,1/2+z
loop_
_atom_site_type_symbol
_atom_site_label
_atom_site_fract_x
_atom_site_fract_y
_atom_site_fract_z
Si Si1 0.000000 0.424106 0.399109
Si Si2 0.721759 0.752937 0.357818
Si Si3 0.500000 0.920173 0.867915
Si Si4 0.500000 0.479893 0.812913
Si Si5 0.000000 0.817387 0.685216
Si Si6 0.000000 0.786432 0.897519
Si Si7 0.270438 0.452054 0.957448
Si Si8 0.500000 0.675570 0.917229
O O1 0.868001 0.430442 0.465018
O O2 0.000000 0.465461 0.326091
O O3 0.000000 0.372469 0.367525
O O4 0.750000 0.761359 0.250000
O O5 0.630997 0.707216 0.359634
O O6 0.864459 0.743858 0.407937
O O7 0.631007 0.794264 0.392089
O O8 0.500000 0.870664 0.823873
O O9 0.637303 0.925260 0.927384
O O10 0.500000 0.959032 0.788804
O O11 0.367972 0.462064 0.869548
O O12 0.000000 0.804658 0.793396
O O13 0.000000 0.826628 0.971539
O O14 0.226004 0.500000 0.000000
#
# Coordination Sequence:
#
# PCOD9478517 Si02
#       8
#     8  16   8   8   8   8  16   8
#     4   9  21  40  57  80 115 154 189 229 282 342
#     4   9  20  40  55  80 117 151 186 238 283 330
#     4  12  21  32  62  91 111 146 193 234 289 337
#     4   9  20  37  55  79 111 151 193 227 276 342
#     4   9  22  34  53  87 122 141 179 240 291 337
#     4  10  20  34  57  82 117 148 190 234 284 340
#     4   9  20  38  55  78 118 152 182 233 287 332
#     4  11  21  35  62  81 108 158 194 224 288 343
#
# _framework density 19.063154000000001
#
# number of rings (size 3 to 8) (size 9 to 14) (size 15 to 20)
#    0.000    2.400    0.000    3.300    5.600    3.200 
#    0.000    4.000    0.000    0.000    0.000    0.000 
#    0.000    0.000    0.000    0.000    0.000    0.000 
#
# Total GULP energy -223218.186623 kJ/mol
# GULP energy per Si atom -5580.454666 kJ/mol
# Density = 1.901976 g / cm^3
# Si number density = 19.063154 Si / 1000 Ang^3
#
#
#
# Elastic Constant Matrix: (Units=GPa)
#
#
# Indices 1 2 3 4 5 6 
#
# 1 123.9332 53.3475 17.0890 0.0000 0.0000 0.0000
# 2 53.3475 126.7876 24.0238 0.0000 0.0000 0.0000
# 3 17.0890 24.0238 36.0084 0.0000 0.0000 0.0000
# 4 0.0000 0.0000 0.0000 17.3286 0.0000 0.0000
# 5 0.0000 0.0000 0.0000 0.0000 11.7105 0.0000
# 6 0.0000 0.0000 0.0000 0.0000 0.0000 3.9092
#
#
#
# Elastic Compliance Matrix: (Units=1/GPa)
#
#
# Indices 1 2 3 4 5 6 
#
# 1 0.010006 -0.003790 -0.002221 0.000000 0.000000 0.000000
# 2 -0.003790 0.010464 -0.005183 0.000000 0.000000 0.000000
# 3 -0.002221 -0.005183 0.032283 0.000000 0.000000 0.000000
# 4 0.000000 0.000000 0.000000 0.057708 0.000000 0.000000
# 5 0.000000 0.000000 0.000000 0.000000 0.085394 0.000000
# 6 0.000000 0.000000 0.000000 0.000000 0.000000 0.255807
#
#
# Mechanical properties :
#
#
# Convention : Reuss Voigt Hill
#
# Bulk Modulus (GPa) = 32.93006 52.84995 42.89001
# Shear Modulus (GPa) = 10.32695 19.40758 14.86727
#
# Velocity S-wave (km/s) = 2.33002 3.19418 2.79569
# Velocity P-wave (km/s) = 4.95483 6.43331 5.74186
#
# Compressibility (1/GPa) = 0.03036739
#
# Stress axis : x y z
#
# Youngs Moduli (GPa) = 99.93741 95.56846 30.97622
#
# Poissons Ratio (x) = 0.36216 0.06878
# Poissons Ratio (y) = 0.37871 0.16054
# Poissons Ratio (z) = 0.22192 0.49530
#
# Static dielectric constant tensor:
#      x y z
#    x 1.676610 0.000000 0.000000 
#    y 0.000000 1.630460 0.000000 
#    z 0.000000 0.000000 1.682980 
# 
# From -- ./inp_files/29901.got.cif
#   From: 2010.05.17/outbox.cif.g08.bks.cpg/sg64_15_cif.got.tgz:29901.got - 2010.06.03 16:29:19.
