data_PCOD9478266
_publ_section_title
;
Structure prediction by ZEFSAII (Michael W. Deem and Ramdas Pophale) SiO2 
 PCOD9478266
Probable space group: C M C A
;
_chemical_formula_sum "Si O2"
_cell_formula_units_Z 80
_cell_length_a 18.950718
_cell_length_b 25.319964
_cell_length_c 9.967900
_cell_angle_alpha 90.000000
_cell_angle_beta 90.000000
_cell_angle_gamma 90.000000
_cell_volume 4782.912384
_symmetry_space_group_name_H-M "C M C A"
_symmetry_group_IT_number 64
_symmetry_cell_setting 'orthorhombic'
loop_
_space_group_symop_operation_xyz
x,y,z
-x,1/2-y,1/2+z
x,-y,-z
-x,1/2+y,1/2-z
-x,-y,-z
x,1/2+y,1/2-z
-x,y,z
x,1/2-y,1/2+z
1/2+x,1/2+y,z
1/2-x,-y,1/2+z
1/2+x,1/2-y,-z
1/2-x,y,1/2-z
1/2-x,1/2-y,-z
1/2+x,y,1/2-z
1/2-x,1/2+y,z
1/2+x,-y,1/2+z
loop_
_atom_site_type_symbol
_atom_site_label
_atom_site_fract_x
_atom_site_fract_y
_atom_site_fract_z
Si Si1 0.421208 0.414927 0.014532
Si Si2 0.000000 0.217359 0.628839
Si Si3 0.000000 0.313060 0.432290
Si Si4 0.166378 0.045654 0.744684
Si Si5 0.582368 0.558232 0.291065
Si Si6 0.420820 0.380731 0.440788
O O1 0.500000 0.438644 0.036419
O O2 0.366118 0.443968 0.108285
O O3 0.434210 0.353909 0.056891
O O4 0.404932 0.419300 0.857723
O O5 0.000000 0.272910 0.555501
O O6 0.933484 0.181488 0.579892
O O7 0.000000 0.216472 0.789998
O O8 0.250000 0.043149 0.750000
O O9 0.136848 0.093009 0.653009
O O10 0.132299 0.991872 0.688532
O O11 0.500000 0.541735 0.297512
O O12 0.592149 0.601439 0.407231
O O13 0.500000 0.402158 0.401509
#
# Coordination Sequence:
#
# PCOD9478266 Si02
#       6
#    16   8   8  16  16  16
#     4   9  19  37  53  82 111 141 180 229 278 323
#     4  10  20  34  61  87 108 130 177 233 287 326
#     4  10  20  34  61  87 108 130 177 233 287 326
#     4  12  22  34  52  78 116 158 188 216 260 324
#     4  10  20  32  56  78 112 146 184 222 272 322
#     4   9  19  37  53  82 111 141 180 229 278 323
#
# _framework density 16.726210999999999
#
# number of rings (size 3 to 8) (size 9 to 14) (size 15 to 20)
#    1.200    0.800    2.000    3.000    2.800    6.400 
#    0.000    0.000    0.000    1.200    0.000    0.000 
#    0.000    0.000    0.000    0.000    0.000    0.000 
#
# Total GULP energy -222793.127391 kJ/mol
# GULP energy per Si atom -5569.828185 kJ/mol
# Density = 1.668814 g / cm^3
# Si number density = 16.726211 Si / 1000 Ang^3
#
#
#
# Elastic Constant Matrix: (Units=GPa)
#
#
# Indices 1 2 3 4 5 6 
#
# 1 62.3035 2.7368 27.9370 0.0000 0.0000 0.0000
# 2 2.7368 48.3029 7.1326 0.0000 0.0000 0.0000
# 3 27.9370 7.1326 57.4821 0.0000 0.0000 0.0000
# 4 0.0000 0.0000 0.0000 31.7204 0.0000 0.0000
# 5 0.0000 0.0000 0.0000 0.0000 -12.6653 0.0000
# 6 0.0000 0.0000 0.0000 0.0000 0.0000 -6.9128
#
#
#
# Elastic Compliance Matrix: (Units=1/GPa)
#
#
# Indices 1 2 3 4 5 6 
#
# 1 0.020528 0.000316 -0.010016 0.000000 0.000000 0.000000
# 2 0.000316 0.021094 -0.002771 0.000000 0.000000 0.000000
# 3 -0.010016 -0.002771 0.022608 0.000000 0.000000 0.000000
# 4 0.000000 0.000000 0.000000 0.031525 0.000000 0.000000
# 5 0.000000 0.000000 0.000000 0.000000 -0.078956 0.000000
# 6 0.000000 0.000000 0.000000 0.000000 0.000000 -0.144660
#
#
# Mechanical properties :
#
#
# Convention : Reuss Voigt Hill
#
# Bulk Modulus (GPa) = 25.45297 27.07793 26.26545
# Shear Modulus (GPa) = -55.66570 11.11394 -22.27588
#
# Velocity S-wave (km/s) = -5.77519 2.58051 -3.65334
# Velocity P-wave (km/s) = 5.40554 5.01027 1.43477
#
# Compressibility (1/GPa) = 0.03928815
#
# Stress axis : x y z
#
# Youngs Moduli (GPa) = 48.71456 47.40691 44.23137
#
# Poissons Ratio (x) = -0.01498 0.44302
# Poissons Ratio (y) = -0.01539 0.12256
# Poissons Ratio (z) = 0.48792 0.13136
#
# Static dielectric constant tensor:
#      x y z
#    x 1.542470 0.000000 0.000000 
#    y 0.000000 1.566790 0.000000 
#    z 0.000000 0.000000 1.588540 
# 
# From -- ./inp_files/7290.got.cif
#   From: 2010.05.17/outbox.cif.g08.bks.cpg/sg64_4_cif.got.tgz:7290.got - 2010.06.03 16:29:19.
