data_PCOD9478923
_publ_section_title
;
Structure prediction by ZEFSAII (Michael W. Deem and Ramdas Pophale) SiO2 
 PCOD9478923
Probable space group: C M C A
;
_chemical_formula_sum "Si O2"
_cell_formula_units_Z 104
_cell_length_a 27.160362
_cell_length_b 20.155801
_cell_length_c 6.902417
_cell_angle_alpha 90.000000
_cell_angle_beta 90.000000
_cell_angle_gamma 90.000000
_cell_volume 3778.651235
_symmetry_space_group_name_H-M "C M C A"
_symmetry_group_IT_number 64
_symmetry_cell_setting 'orthorhombic'
loop_
_space_group_symop_operation_xyz
x,y,z
-x,1/2-y,1/2+z
x,-y,-z
-x,1/2+y,1/2-z
-x,-y,-z
x,1/2+y,1/2-z
-x,y,z
x,1/2-y,1/2+z
1/2+x,1/2+y,z
1/2-x,-y,1/2+z
1/2+x,1/2-y,-z
1/2-x,y,1/2-z
1/2-x,1/2-y,-z
1/2+x,y,1/2-z
1/2-x,1/2+y,z
1/2+x,-y,1/2+z
loop_
_atom_site_type_symbol
_atom_site_label
_atom_site_fract_x
_atom_site_fract_y
_atom_site_fract_z
Si Si1 0.084981 0.663226 0.655831
Si Si2 0.198936 0.500589 0.269466
Si Si3 0.078253 0.624612 0.197481
Si Si4 0.689909 0.351077 0.687890
Si Si5 0.000000 0.229056 0.371577
Si Si6 0.410910 0.019485 0.729761
Si Si7 0.299538 0.300937 0.124756
O O1 0.078841 0.645999 0.425787
O O2 0.043958 0.718501 0.689531
O O3 0.070488 0.593416 0.752470
O O4 0.143004 0.683633 0.693136
O O5 0.192218 0.500000 0.500000
O O6 0.250000 0.462539 0.250000
O O7 0.206588 0.572139 0.164763
O O8 0.146177 0.475001 0.206240
O O9 0.133213 0.640630 0.138080
O O10 0.067269 0.546756 0.177525
O O11 0.041731 0.672871 0.096086
O O12 0.703208 0.279229 0.598821
O O13 0.700630 0.337711 0.916850
O O14 0.412669 0.000000 0.500000
O O15 0.250000 0.318367 0.250000
#
# Coordination Sequence:
#
# PCOD9478923 Si02
#       7
#    16  16  16  16   8  16  16
#     4  10  21  35  58  88 115 152 201 245 305 361
#     4  10  20  36  60  85 120 162 205 252 299 359
#     4   9  19  36  57  81 117 151 191 250 303 354
#     4  10  21  38  57  89 124 163 206 245 304 366
#     4  12  20  34  56  84 116 146 198 248 314 356
#     4   8  17  36  57  82 113 147 194 249 297 357
#     4  11  21  36  58  89 129 164 199 249 308 362
#
# _framework density 27.523046999999998
#
# number of rings (size 3 to 8) (size 9 to 14) (size 15 to 20)
#    0.000    2.154    1.538    4.154    0.000    3.077 
#    0.000    2.308    0.000    0.000    0.000    4.308 
#    0.000    0.000    0.000    0.000    0.000    0.000 
#
# Total GULP energy -289532.348115 kJ/mol
# GULP energy per Si atom -5567.929771 kJ/mol
# Density = 2.746040 g / cm^3
# Si number density = 27.523047 Si / 1000 Ang^3
#
#
#
# Elastic Constant Matrix: (Units=GPa)
#
#
# Indices 1 2 3 4 5 6 
#
# 1 151.0431 77.7476 5.0434 0.0000 0.0000 0.0000
# 2 77.7476 260.5118 27.3087 0.0000 0.0000 0.0000
# 3 5.0434 27.3087 115.4143 0.0000 0.0000 0.0000
# 4 0.0000 0.0000 0.0000 -6.0654 0.0000 0.0000
# 5 0.0000 0.0000 0.0000 0.0000 145.4806 0.0000
# 6 0.0000 0.0000 0.0000 0.0000 0.0000 -5.3243
#
#
#
# Elastic Compliance Matrix: (Units=1/GPa)
#
#
# Indices 1 2 3 4 5 6 
#
# 1 0.007828 -0.002359 0.000216 0.000000 0.000000 0.000000
# 2 -0.002359 0.004647 -0.000996 0.000000 0.000000 0.000000
# 3 0.000216 -0.000996 0.008891 0.000000 0.000000 0.000000
# 4 0.000000 0.000000 0.000000 -0.164870 0.000000 0.000000
# 5 0.000000 0.000000 0.000000 0.000000 0.006874 0.000000
# 6 0.000000 0.000000 0.000000 0.000000 0.000000 -0.187817
#
#
# Mechanical properties :
#
#
# Convention : Reuss Voigt Hill
#
# Bulk Modulus (GPa) = 66.28207 83.01875 74.65041
# Shear Modulus (GPa) = -15.96727 54.60948 19.32111
#
# Velocity S-wave (km/s) = -2.41123 4.45920 2.65240
# Velocity P-wave (km/s) = 4.04755 7.53269 6.04666
#
# Compressibility (1/GPa) = 0.01508704
#
# Stress axis : x y z
#
# Youngs Moduli (GPa) = 127.75424 215.19296 112.47614
#
# Poissons Ratio (x) = 0.50758 -0.02430
# Poissons Ratio (y) = 0.30134 0.11208
# Poissons Ratio (z) = -0.02760 0.21443
#
# Static dielectric constant tensor:
#      x y z
#    x 2.119430 0.000000 0.000000 
#    y 0.000000 2.158250 0.000000 
#    z 0.000000 0.000000 2.381560 
# 
# From -- ./inp_files/10451.got.cif
#   From: 2010.05.17/outbox.cif.g08.bks.cpg/sg64_6_cif.got.tgz:10451.got - 2010.06.03 16:29:19.
