data_PCOD9478314
_publ_section_title
;
Structure prediction by ZEFSAII (Michael W. Deem and Ramdas Pophale) SiO2 
 PCOD9478314
Probable space group: C M C A
;
_chemical_formula_sum "Si O2"
_cell_formula_units_Z 96
_cell_length_a 8.013955
_cell_length_b 20.623901
_cell_length_c 31.266593
_cell_angle_alpha 90.000000
_cell_angle_beta 90.000000
_cell_angle_gamma 90.000000
_cell_volume 5167.711679
_symmetry_space_group_name_H-M "C M C A"
_symmetry_group_IT_number 64
_symmetry_cell_setting 'orthorhombic'
loop_
_space_group_symop_operation_xyz
x,y,z
-x,1/2-y,1/2+z
x,-y,-z
-x,1/2+y,1/2-z
-x,-y,-z
x,1/2+y,1/2-z
-x,y,z
x,1/2-y,1/2+z
1/2+x,1/2+y,z
1/2-x,-y,1/2+z
1/2+x,1/2-y,-z
1/2-x,y,1/2-z
1/2-x,1/2-y,-z
1/2+x,y,1/2-z
1/2-x,1/2+y,z
1/2+x,-y,1/2+z
loop_
_atom_site_type_symbol
_atom_site_label
_atom_site_fract_x
_atom_site_fract_y
_atom_site_fract_z
Si Si1 0.798931 0.448100 0.534224
Si Si2 0.201032 0.698415 0.464590
Si Si3 0.701394 0.950570 0.201715
Si Si4 0.798528 0.302674 0.201769
Si Si5 0.798925 0.700718 0.368216
Si Si6 0.699733 0.447298 0.631425
O O1 0.734604 0.500000 0.500000
O O2 0.738942 0.374673 0.525525
O O3 0.756015 0.463831 0.583282
O O4 0.000000 0.447220 0.531076
O O5 0.250000 0.750000 0.500000
O O6 0.260438 0.715214 0.416573
O O7 0.000000 0.696176 0.463064
O O8 0.500000 0.949640 0.199581
O O9 0.750000 0.968978 0.250000
O O10 0.760689 0.876605 0.194113
O O11 0.762903 0.001301 0.166375
O O12 0.750000 0.284339 0.250000
O O13 0.735708 0.251478 0.166849
O O14 0.000000 0.303598 0.199570
O O15 0.755561 0.626095 0.358740
O O16 0.000000 0.705267 0.368551
O O17 0.500000 0.448453 0.632115
#
# Coordination Sequence:
#
# PCOD9478314 Si02
#       6
#    16  16  16  16  16  16
#     4   9  19  36  54  72  98 132 167 200 240 294
#     4   9  18  32  50  72  97 127 161 197 239 286
#     4   9  19  34  51  73 100 130 165 204 246 292
#     4   9  18  34  53  72  97 129 164 202 243 288
#     4   9  19  35  52  70  98 134 164 195 242 295
#     4  10  20  33  51  76 102 127 162 207 247 287
#
# _framework density 18.576888
#
# number of rings (size 3 to 8) (size 9 to 14) (size 15 to 20)
#    0.000    2.833    0.000    1.500    0.000    7.000 
#    0.000    5.000    0.000    0.000    0.000    0.000 
#    0.000    0.000    0.000    0.000    0.000    0.000 
#
# Total GULP energy -267648.892253 kJ/mol
# GULP energy per Si atom -5576.018589 kJ/mol
# Density = 1.853461 g / cm^3
# Si number density = 18.576888 Si / 1000 Ang^3
#
#
#
# Elastic Constant Matrix: (Units=GPa)
#
#
# Indices 1 2 3 4 5 6 
#
# 1 8.3984 8.3837 6.5854 0.0000 0.0000 0.0000
# 2 8.3837 148.6155 153.9634 0.0000 0.0000 0.0000
# 3 6.5854 153.9634 182.2554 0.0000 0.0000 0.0000
# 4 0.0000 0.0000 0.0000 46.5931 0.0000 0.0000
# 5 0.0000 0.0000 0.0000 0.0000 26.4042 0.0000
# 6 0.0000 0.0000 0.0000 0.0000 0.0000 19.8524
#
#
#
# Elastic Compliance Matrix: (Units=1/GPa)
#
#
# Indices 1 2 3 4 5 6 
#
# 1 0.129339 -0.019664 0.011938 0.000000 0.000000 0.000000
# 2 -0.019664 0.056891 -0.047350 0.000000 0.000000 0.000000
# 3 0.011938 -0.047350 0.045055 0.000000 0.000000 0.000000
# 4 0.000000 0.000000 0.000000 0.021462 0.000000 0.000000
# 5 0.000000 0.000000 0.000000 0.000000 0.037873 0.000000
# 6 0.000000 0.000000 0.000000 0.000000 0.000000 0.050372
#
#
# Mechanical properties :
#
#
# Convention : Reuss Voigt Hill
#
# Bulk Modulus (GPa) = 8.25527 75.23716 41.74621
# Shear Modulus (GPa) = 10.17249 29.92570 20.04910
#
# Velocity S-wave (km/s) = 2.34260 4.01797 3.28876
# Velocity P-wave (km/s) = 3.43082 7.88123 6.07800
#
# Compressibility (1/GPa) = 0.12113480
#
# Stress axis : x y z
#
# Youngs Moduli (GPa) = 7.73159 17.57733 22.19519
#
# Poissons Ratio (x) = 0.34564 -0.26497
# Poissons Ratio (y) = 0.15203 1.05093
# Poissons Ratio (z) = -0.09230 0.83228
#
# Static dielectric constant tensor:
#      x y z
#    x 1.665320 0.000000 0.000000 
#    y 0.000000 1.640280 0.000000 
#    z 0.000000 0.000000 1.622250 
# 
# From -- ./inp_files/48056.got.cif
#   From: 2010.05.17/outbox.cif.g08.bks.cpg/sg64_25_cif.got.tgz:48056.got - 2010.06.03 16:29:19.
