data_PCOD9478227
_publ_section_title
;
Structure prediction by ZEFSAII (Michael W. Deem and Ramdas Pophale) SiO2 
 PCOD9478227
Probable space group: C M C A
;
_chemical_formula_sum "Si O2"
_cell_formula_units_Z 96
_cell_length_a 9.611577
_cell_length_b 27.566967
_cell_length_c 21.395352
_cell_angle_alpha 90.000000
_cell_angle_beta 90.000000
_cell_angle_gamma 90.000000
_cell_volume 5668.955812
_symmetry_space_group_name_H-M "C M C A"
_symmetry_group_IT_number 64
_symmetry_cell_setting 'orthorhombic'
loop_
_space_group_symop_operation_xyz
x,y,z
-x,1/2-y,1/2+z
x,-y,-z
-x,1/2+y,1/2-z
-x,-y,-z
x,1/2+y,1/2-z
-x,y,z
x,1/2-y,1/2+z
1/2+x,1/2+y,z
1/2-x,-y,1/2+z
1/2+x,1/2-y,-z
1/2-x,y,1/2-z
1/2-x,1/2-y,-z
1/2+x,y,1/2-z
1/2-x,1/2+y,z
1/2+x,-y,1/2+z
loop_
_atom_site_type_symbol
_atom_site_label
_atom_site_fract_x
_atom_site_fract_y
_atom_site_fract_z
Si Si1 0.153453 0.335131 0.902851
Si Si2 0.162773 0.769177 0.059562
Si Si3 0.342502 0.857686 0.050630
Si Si4 0.334016 0.527627 0.565506
Si Si5 0.661715 0.000628 0.310952
Si Si6 0.656174 0.117347 0.306962
O O1 0.168822 0.277185 0.894805
O O2 0.273714 0.363817 0.869461
O O3 0.000000 0.350087 0.879496
O O4 0.157088 0.347214 0.976315
O O5 0.234238 0.819391 0.079494
O O6 0.000000 0.776342 0.043588
O O7 0.250000 0.750000 0.000000
O O8 0.500000 0.847899 0.073333
O O9 0.312998 0.914480 0.058835
O O10 0.299847 0.500000 0.500000
O O11 0.500000 0.518848 0.576819
O O12 0.242460 0.511342 0.624758
O O13 0.500000 0.983489 0.310523
O O14 0.750000 0.983606 0.250000
O O15 0.656285 0.059071 0.306808
O O16 0.500000 0.134902 0.300607
O O17 0.750000 0.134772 0.250000
#
# Coordination Sequence:
#
# PCOD9478227 Si02
#       6
#    16  16  16  16  16  16
#     4   9  17  30  48  70  97 127 159 195 238 290
#     4   9  17  29  46  68  95 127 159 193 236 288
#     4   9  18  31  48  72 100 130 163 199 242 291
#     4  10  20  34  53  77 106 138 170 209 258 305
#     4  10  21  36  53  74 101 135 174 211 251 303
#     4  10  20  32  48  70  95 125 160 199 243 291
#
# _framework density 16.934334
#
# number of rings (size 3 to 8) (size 9 to 14) (size 15 to 20)
#    0.000    2.500    0.000    3.500    0.000    7.667 
#    0.000    0.000    0.000    1.000    0.000    7.000 
#    0.000    0.000    0.000    0.000    0.000    0.000 
#
# Total GULP energy -267277.069477 kJ/mol
# GULP energy per Si atom -5568.272281 kJ/mol
# Density = 1.689579 g / cm^3
# Si number density = 16.934334 Si / 1000 Ang^3
#
#
#
# Elastic Constant Matrix: (Units=GPa)
#
#
# Indices 1 2 3 4 5 6 
#
# 1 130.9456 38.9526 48.8451 0.0000 0.0000 0.0000
# 2 38.9526 34.8366 8.2344 0.0000 0.0000 0.0000
# 3 48.8451 8.2344 66.1791 0.0000 0.0000 0.0000
# 4 0.0000 0.0000 0.0000 10.1918 0.0000 0.0000
# 5 0.0000 0.0000 0.0000 0.0000 21.8822 0.0000
# 6 0.0000 0.0000 0.0000 0.0000 0.0000 28.3746
#
#
#
# Elastic Compliance Matrix: (Units=1/GPa)
#
#
# Indices 1 2 3 4 5 6 
#
# 1 0.015891 -0.015450 -0.009806 0.000000 0.000000 0.000000
# 2 -0.015450 0.044597 0.005854 0.000000 0.000000 0.000000
# 3 -0.009806 0.005854 0.021620 0.000000 0.000000 0.000000
# 4 0.000000 0.000000 0.000000 0.098118 0.000000 0.000000
# 5 0.000000 0.000000 0.000000 0.000000 0.045699 0.000000
# 6 0.000000 0.000000 0.000000 0.000000 0.000000 0.035243
#
#
# Mechanical properties :
#
#
# Convention : Reuss Voigt Hill
#
# Bulk Modulus (GPa) = 23.09269 47.11394 35.10331
# Shear Modulus (GPa) = 15.90301 21.15168 18.52734
#
# Velocity S-wave (km/s) = 3.06780 3.53801 3.31126
# Velocity P-wave (km/s) = 5.12003 6.67622 5.94923
#
# Compressibility (1/GPa) = 0.04330375
#
# Stress axis : x y z
#
# Youngs Moduli (GPa) = 62.93036 22.42288 46.25426
#
# Poissons Ratio (x) = 0.34644 0.45357
# Poissons Ratio (y) = 0.97229 -0.27079
# Poissons Ratio (z) = 0.61710 -0.13127
#
# Static dielectric constant tensor:
#      x y z
#    x 1.637420 0.000000 0.000000 
#    y 0.000000 1.589810 0.000000 
#    z 0.000000 0.000000 1.587200 
# 
# From -- ./inp_files/36979.got.cif
#   From: 2010.05.17/outbox.cif.g08.bks.cpg/sg64_19_cif.got.tgz:36979.got - 2010.06.03 16:29:19.
