data_PCOD9478697
_publ_section_title
;
Structure prediction by ZEFSAII (Michael W. Deem and Ramdas Pophale) SiO2 
 PCOD9478697
Probable space group: C M C A
;
_chemical_formula_sum "Si O2"
_cell_formula_units_Z 112
_cell_length_a 17.978474
_cell_length_b 15.364848
_cell_length_c 19.286934
_cell_angle_alpha 90.000000
_cell_angle_beta 90.000000
_cell_angle_gamma 90.000000
_cell_volume 5327.755535
_symmetry_space_group_name_H-M "C M C A"
_symmetry_group_IT_number 64
_symmetry_cell_setting 'orthorhombic'
loop_
_space_group_symop_operation_xyz
x,y,z
-x,1/2-y,1/2+z
x,-y,-z
-x,1/2+y,1/2-z
-x,-y,-z
x,1/2+y,1/2-z
-x,y,z
x,1/2-y,1/2+z
1/2+x,1/2+y,z
1/2-x,-y,1/2+z
1/2+x,1/2-y,-z
1/2-x,y,1/2-z
1/2-x,1/2-y,-z
1/2+x,y,1/2-z
1/2-x,1/2+y,z
1/2+x,-y,1/2+z
loop_
_atom_site_type_symbol
_atom_site_label
_atom_site_fract_x
_atom_site_fract_y
_atom_site_fract_z
Si Si1 0.588906 0.814856 0.795203
Si Si2 0.800330 0.315750 0.914582
Si Si3 0.219069 0.440034 0.179172
Si Si4 0.180969 0.113116 0.168240
Si Si5 0.586527 0.011987 0.595030
Si Si6 0.213322 0.874206 0.038419
Si Si7 0.585147 0.611920 0.757568
O O1 0.500000 0.831451 0.793784
O O2 0.626859 0.835063 0.869341
O O3 0.634541 0.866268 0.736493
O O4 0.601354 0.712617 0.776548
O O5 0.732412 0.309101 0.859183
O O6 0.811574 0.225767 0.954700
O O7 0.766365 0.382818 0.971261
O O8 0.250000 0.395934 0.250000
O O9 0.260084 0.533680 0.176527
O O10 0.240186 0.396246 0.107452
O O11 0.133013 0.433185 0.197518
O O12 0.121944 0.081904 0.110627
O O13 0.500000 0.010409 0.576883
O O14 0.639413 0.067956 0.545406
O O15 0.593597 0.059342 0.670431
O O16 0.500000 0.608430 0.736530
#
# Coordination Sequence:
#
# PCOD9478697 Si02
#       7
#    16  16  16  16  16  16  16
#     4  11  22  38  62  89 119 157 198 249 305 352
#     4  11  22  38  56  86 119 158 204 244 292 351
#     4  11  18  35  57  86 115 150 198 243 293 347
#     4  11  23  37  60  93 120 152 197 252 301 349
#     4  10  20  38  60  87 120 152 192 243 301 357
#     4  10  22  37  60  83 117 164 203 240 290 357
#     4  10  20  35  58  86 116 153 198 245 298 351
#
# _framework density 21.021985000000001
#
# number of rings (size 3 to 8) (size 9 to 14) (size 15 to 20)
#    0.000    1.429    4.286    2.571    0.000    2.286 
#    0.000    2.857    0.000    2.571    0.000    6.000 
#    0.000    0.000    0.000    0.000    0.000    0.000 
#
# Total GULP energy -312656.594465 kJ/mol
# GULP energy per Si atom -5583.153473 kJ/mol
# Density = 2.097414 g / cm^3
# Si number density = 21.021985 Si / 1000 Ang^3
#
#
#
# Elastic Constant Matrix: (Units=GPa)
#
#
# Indices 1 2 3 4 5 6 
#
# 1 150.8871 43.0365 51.3372 0.0000 0.0000 0.0000
# 2 43.0365 49.0555 6.3238 0.0000 0.0000 0.0000
# 3 51.3372 6.3238 106.8553 0.0000 0.0000 0.0000
# 4 0.0000 0.0000 0.0000 28.2284 0.0000 0.0000
# 5 0.0000 0.0000 0.0000 0.0000 21.9702 0.0000
# 6 0.0000 0.0000 0.0000 0.0000 0.0000 26.1488
#
#
#
# Elastic Compliance Matrix: (Units=1/GPa)
#
#
# Indices 1 2 3 4 5 6 
#
# 1 0.010711 -0.008801 -0.004625 0.000000 0.000000 0.000000
# 2 -0.008801 0.027773 0.002585 0.000000 0.000000 0.000000
# 3 -0.004625 0.002585 0.011428 0.000000 0.000000 0.000000
# 4 0.000000 0.000000 0.000000 0.035425 0.000000 0.000000
# 5 0.000000 0.000000 0.000000 0.000000 0.045516 0.000000
# 6 0.000000 0.000000 0.000000 0.000000 0.000000 0.038243
#
#
# Mechanical properties :
#
#
# Convention : Reuss Voigt Hill
#
# Bulk Modulus (GPa) = 35.42474 56.46587 45.94530
# Shear Modulus (GPa) = 24.97643 29.00951 26.99297
#
# Velocity S-wave (km/s) = 3.45064 3.71881 3.58723
# Velocity P-wave (km/s) = 5.72396 6.73484 6.24987
#
# Compressibility (1/GPa) = 0.02822886
#
# Stress axis : x y z
#
# Youngs Moduli (GPa) = 93.35880 36.00636 87.50706
#
# Poissons Ratio (x) = 0.31689 0.40475
# Poissons Ratio (y) = 0.82164 -0.22617
# Poissons Ratio (z) = 0.43181 -0.09306
#
# Static dielectric constant tensor:
#      x y z
#    x 1.802270 0.000000 0.000000 
#    y 0.000000 1.849870 0.000000 
#    z 0.000000 0.000000 1.795830 
# 
# From -- ./inp_files/40394.got.cif
#   From: 2010.05.17/outbox.cif.g08.bks.cpg/sg64_21_cif.got.tgz:40394.got - 2010.06.03 16:29:19.
