data_PCOD9478910
_publ_section_title
;
Structure prediction by ZEFSAII (Michael W. Deem and Ramdas Pophale) SiO2 
 PCOD9478910
Probable space group: C M C A
;
_chemical_formula_sum "Si O2"
_cell_formula_units_Z 96
_cell_length_a 15.799540
_cell_length_b 12.229142
_cell_length_c 24.117867
_cell_angle_alpha 90.000000
_cell_angle_beta 90.000000
_cell_angle_gamma 90.000000
_cell_volume 4659.929288
_symmetry_space_group_name_H-M "C M C A"
_symmetry_group_IT_number 64
_symmetry_cell_setting 'orthorhombic'
loop_
_space_group_symop_operation_xyz
x,y,z
-x,1/2-y,1/2+z
x,-y,-z
-x,1/2+y,1/2-z
-x,-y,-z
x,1/2+y,1/2-z
-x,y,z
x,1/2-y,1/2+z
1/2+x,1/2+y,z
1/2-x,-y,1/2+z
1/2+x,1/2-y,-z
1/2-x,y,1/2-z
1/2-x,1/2-y,-z
1/2+x,y,1/2-z
1/2-x,1/2+y,z
1/2+x,-y,1/2+z
loop_
_atom_site_type_symbol
_atom_site_label
_atom_site_fract_x
_atom_site_fract_y
_atom_site_fract_z
Si Si1 0.324652 0.541004 0.581444
Si Si2 0.099299 0.591299 0.805225
Si Si3 0.781056 0.302794 0.688542
Si Si4 0.835206 0.682880 0.014927
Si Si5 0.342724 0.174910 0.610553
Si Si6 0.905200 0.009466 0.185228
O O1 0.371760 0.528048 0.639676
O O2 0.371056 0.632238 0.542204
O O3 0.316908 0.426997 0.549776
O O4 0.232756 0.594038 0.591064
O O5 0.156269 0.699549 0.805133
O O6 0.113927 0.525200 0.748564
O O7 0.000000 0.617007 0.807644
O O8 0.750000 0.329992 0.750000
O O9 0.705085 0.263908 0.649165
O O10 0.835407 0.403771 0.666171
O O11 0.882200 0.764396 0.057346
O O12 0.750000 0.750000 0.000000
O O13 0.400884 0.099751 0.648507
O O14 0.000000 0.056035 0.183088
#
# Coordination Sequence:
#
# PCOD9478910 Si02
#       6
#    16  16  16  16  16  16
#     4   9  19  34  59  86 114 154 209 254 300 358
#     4  10  22  39  56  84 125 161 194 247 311 366
#     4  11  22  35  61  86 115 156 207 240 292 361
#     4   9  18  35  56  87 118 148 203 265 304 337
#     4  10  20  36  59  87 116 159 203 250 294 362
#     4  11  24  38  55  87 127 159 194 248 311 365
#
# _framework density 20.601171000000001
#
# number of rings (size 3 to 8) (size 9 to 14) (size 15 to 20)
#    0.000    2.000    1.667    1.500    7.000    0.000 
#    0.000    3.333    0.000    0.000    0.000   30.333 
#    0.000    0.000    0.000    0.000    0.000    0.000 
#
# Total GULP energy -267830.501354 kJ/mol
# GULP energy per Si atom -5579.802112 kJ/mol
# Density = 2.055428 g / cm^3
# Si number density = 20.601171 Si / 1000 Ang^3
#
#
#
# Elastic Constant Matrix: (Units=GPa)
#
#
# Indices 1 2 3 4 5 6 
#
# 1 37.9516 18.3711 4.0150 0.0000 0.0000 0.0000
# 2 18.3711 65.6385 4.8248 0.0000 0.0000 0.0000
# 3 4.0150 4.8248 56.0163 0.0000 0.0000 0.0000
# 4 0.0000 0.0000 0.0000 31.9841 0.0000 0.0000
# 5 0.0000 0.0000 0.0000 0.0000 -3.9734 0.0000
# 6 0.0000 0.0000 0.0000 0.0000 0.0000 17.6529
#
#
#
# Elastic Compliance Matrix: (Units=1/GPa)
#
#
# Indices 1 2 3 4 5 6 
#
# 1 0.030598 -0.008456 -0.001465 0.000000 0.000000 0.000000
# 2 -0.008456 0.017669 -0.000916 0.000000 0.000000 0.000000
# 3 -0.001465 -0.000916 0.018036 0.000000 0.000000 0.000000
# 4 0.000000 0.000000 0.000000 0.031266 0.000000 0.000000
# 5 0.000000 0.000000 0.000000 0.000000 -0.251671 0.000000
# 6 0.000000 0.000000 0.000000 0.000000 0.000000 0.056648
#
#
# Mechanical properties :
#
#
# Convention : Reuss Voigt Hill
#
# Bulk Modulus (GPa) = 22.40686 23.78090 23.09388
# Shear Modulus (GPa) = -82.09448 17.95908 -32.06770
#
# Velocity S-wave (km/s) = -6.31949 2.95575 -3.94965
# Velocity P-wave (km/s) = 6.50752 4.81841 3.09279
#
# Compressibility (1/GPa) = 0.04462920
#
# Stress axis : x y z
#
# Youngs Moduli (GPa) = 32.68233 56.59636 55.44525
#
# Poissons Ratio (x) = 0.47858 0.08121
# Poissons Ratio (y) = 0.27636 0.05078
# Poissons Ratio (z) = 0.04787 0.05183
#
# Static dielectric constant tensor:
#      x y z
#    x 1.730590 0.000000 0.000000 
#    y 0.000000 1.737880 0.000000 
#    z 0.000000 0.000000 1.787920 
# 
# From -- ./inp_files/45736.got.cif
#   From: 2010.05.17/outbox.cif.g08.bks.cpg/sg64_23_cif.got.tgz:45736.got - 2010.06.03 16:29:19.
