data_PCOD9478901
_publ_section_title
;
Structure prediction by ZEFSAII (Michael W. Deem and Ramdas Pophale) SiO2 
 PCOD9478901
Probable space group: C M C A
;
_chemical_formula_sum "Si O2"
_cell_formula_units_Z 96
_cell_length_a 8.591011
_cell_length_b 31.250820
_cell_length_c 19.334425
_cell_angle_alpha 90.000000
_cell_angle_beta 90.000000
_cell_angle_gamma 90.000000
_cell_volume 5190.831762
_symmetry_space_group_name_H-M "C M C A"
_symmetry_group_IT_number 64
_symmetry_cell_setting 'orthorhombic'
loop_
_space_group_symop_operation_xyz
x,y,z
-x,1/2-y,1/2+z
x,-y,-z
-x,1/2+y,1/2-z
-x,-y,-z
x,1/2+y,1/2-z
-x,y,z
x,1/2-y,1/2+z
1/2+x,1/2+y,z
1/2-x,-y,1/2+z
1/2+x,1/2-y,-z
1/2-x,y,1/2-z
1/2-x,1/2-y,-z
1/2+x,y,1/2-z
1/2-x,1/2+y,z
1/2+x,-y,1/2+z
loop_
_atom_site_type_symbol
_atom_site_label
_atom_site_fract_x
_atom_site_fract_y
_atom_site_fract_z
Si Si1 0.686223 0.294745 0.584908
Si Si2 0.687949 0.299057 0.425331
Si Si3 0.313412 0.872265 0.672802
Si Si4 0.188186 0.953882 0.084769
Si Si5 0.686325 0.876866 0.172992
Si Si6 0.189229 0.551416 0.426492
O O1 0.500000 0.296617 0.589484
O O2 0.732957 0.305991 0.505653
O O3 0.742543 0.246372 0.597387
O O4 0.759149 0.328423 0.637279
O O5 0.500000 0.296144 0.423151
O O6 0.738683 0.337901 0.376619
O O7 0.500000 0.873365 0.674483
O O8 0.250000 0.875989 0.750000
O O9 0.256792 0.911605 0.624751
O O10 0.257037 0.921033 0.139172
O O11 0.000000 0.952068 0.087894
O O12 0.235653 0.003379 0.095159
O O13 0.236553 0.941646 0.006291
O O14 0.500000 0.876486 0.174810
O O15 0.750000 0.871734 0.250000
O O16 0.000000 0.551762 0.426568
#
# Coordination Sequence:
#
# PCOD9478901 Si02
#       6
#    16  16  16  16  16  16
#     4  10  20  36  59  84 107 136 177 224 272 319
#     4   9  20  38  58  80 108 141 179 222 266 318
#     4  11  22  36  53  77 110 146 181 218 266 320
#     4   9  17  35  60  83 107 138 179 223 268 317
#     4  11  23  37  53  78 111 145 180 219 266 318
#     4   8  17  34  58  83 107 140 180 221 265 318
#
# _framework density 18.494146000000001
#
# number of rings (size 3 to 8) (size 9 to 14) (size 15 to 20)
#    0.000    2.333    0.000    3.500    0.000    3.333 
#    0.000    7.500    0.000    0.000    0.000    0.000 
#    0.000    0.000    0.000    0.000    0.000    0.000 
#
# Total GULP energy -268002.400530 kJ/mol
# GULP energy per Si atom -5583.383344 kJ/mol
# Density = 1.845205 g / cm^3
# Si number density = 18.494146 Si / 1000 Ang^3
#
#
#
# Elastic Constant Matrix: (Units=GPa)
#
#
# Indices 1 2 3 4 5 6 
#
# 1 20.5358 5.1031 7.7739 0.0000 0.0000 0.0000
# 2 5.1031 44.4258 22.2947 0.0000 0.0000 0.0000
# 3 7.7739 22.2947 50.3128 0.0000 0.0000 0.0000
# 4 0.0000 0.0000 0.0000 -5.3293 0.0000 0.0000
# 5 0.0000 0.0000 0.0000 0.0000 18.2175 0.0000
# 6 0.0000 0.0000 0.0000 0.0000 0.0000 19.0643
#
#
#
# Elastic Compliance Matrix: (Units=1/GPa)
#
#
# Indices 1 2 3 4 5 6 
#
# 1 0.051934 -0.002493 -0.006920 0.000000 0.000000 0.000000
# 2 -0.002493 0.029066 -0.012495 0.000000 0.000000 0.000000
# 3 -0.006920 -0.012495 0.026482 0.000000 0.000000 0.000000
# 4 0.000000 0.000000 0.000000 -0.187643 0.000000 0.000000
# 5 0.000000 0.000000 0.000000 0.000000 0.054892 0.000000
# 6 0.000000 0.000000 0.000000 0.000000 0.000000 0.052454
#
#
# Mechanical properties :
#
#
# Convention : Reuss Voigt Hill
#
# Bulk Modulus (GPa) = 15.70667 20.62420 18.16543
# Shear Modulus (GPa) = 54.21653 11.73068 32.97361
#
# Velocity S-wave (km/s) = 5.42025 2.52125 4.22705
# Velocity P-wave (km/s) = 6.90532 4.43301 5.80237
#
# Compressibility (1/GPa) = 0.06366722
#
# Stress axis : x y z
#
# Youngs Moduli (GPa) = 19.25508 34.40434 37.76221
#
# Poissons Ratio (x) = 0.08577 0.26131
# Poissons Ratio (y) = 0.04800 0.47182
# Poissons Ratio (z) = 0.13324 0.42987
#
# Static dielectric constant tensor:
#      x y z
#    x 1.620300 0.000000 0.000000 
#    y 0.000000 1.617870 0.000000 
#    z 0.000000 0.000000 1.615610 
# 
# From -- ./inp_files/37122.got.cif
#   From: 2010.05.17/outbox.cif.g08.bks.cpg/sg64_19_cif.got.tgz:37122.got - 2010.06.03 16:29:19.
