data_PCOD9478224
_publ_section_title
;
Structure prediction by ZEFSAII (Michael W. Deem and Ramdas Pophale) SiO2 
 PCOD9478224
Probable space group: C M C A
;
_chemical_formula_sum "Si O2"
_cell_formula_units_Z 112
_cell_length_a 14.731268
_cell_length_b 24.762783
_cell_length_c 14.524387
_cell_angle_alpha 90.000000
_cell_angle_beta 90.000000
_cell_angle_gamma 90.000000
_cell_volume 5298.310361
_symmetry_space_group_name_H-M "C M C A"
_symmetry_group_IT_number 64
_symmetry_cell_setting 'orthorhombic'
loop_
_space_group_symop_operation_xyz
x,y,z
-x,1/2-y,1/2+z
x,-y,-z
-x,1/2+y,1/2-z
-x,-y,-z
x,1/2+y,1/2-z
-x,y,z
x,1/2-y,1/2+z
1/2+x,1/2+y,z
1/2-x,-y,1/2+z
1/2+x,1/2-y,-z
1/2-x,y,1/2-z
1/2-x,1/2-y,-z
1/2+x,y,1/2-z
1/2-x,1/2+y,z
1/2+x,-y,1/2+z
loop_
_atom_site_type_symbol
_atom_site_label
_atom_site_fract_x
_atom_site_fract_y
_atom_site_fract_z
Si Si1 0.888423 0.657646 0.804785
Si Si2 0.892723 0.249635 0.567714
Si Si3 0.107027 0.559459 0.700185
Si Si4 0.395745 0.775112 0.371413
Si Si5 0.140540 0.321704 0.746207
Si Si6 0.395860 0.565302 0.000433
Si Si7 0.845797 0.935107 0.798872
O O1 0.856281 0.692843 0.891505
O O2 0.860535 0.595952 0.785309
O O3 0.857798 0.688807 0.711705
O O4 0.000000 0.660292 0.809222
O O5 0.853333 0.272578 0.472598
O O6 0.885208 0.291497 0.651716
O O7 0.000000 0.241381 0.548957
O O8 0.143545 0.578486 0.600074
O O9 0.115387 0.495264 0.710567
O O10 0.000000 0.569961 0.691537
O O11 0.500000 0.793897 0.380718
O O12 0.393534 0.714794 0.329821
O O13 0.250000 0.322578 0.750000
O O14 0.106629 0.383143 0.745649
O O15 0.500000 0.585731 0.010964
O O16 0.401764 0.500000 0.000000
O O17 0.341625 0.579143 0.092353
O O18 0.750000 0.939000 0.750000
#
# Coordination Sequence:
#
# PCOD9478224 Si02
#       7
#    16  16  16  16  16  16  16
#     4   8  15  29  50  79 104 123 160 212 259 302
#     4   9  18  33  55  77 101 132 168 215 258 297
#     4   9  17  31  54  78 102 128 165 218 264 299
#     4   9  18  33  54  79 103 131 170 213 256 303
#     4  10  21  34  49  72 106 140 171 205 251 306
#     4   8  15  28  49  76  96 120 162 213 261 297
#     4  10  20  32  47  69 109 137 165 201 252 307
#
# _framework density 21.138814
#
# number of rings (size 3 to 8) (size 9 to 14) (size 15 to 20)
#    0.000    3.000    0.000    2.571    2.000    2.857 
#    0.000    2.857   18.857    0.000    0.000    4.000 
#    0.000    0.000    0.000    0.000    0.000    0.000 
#
# Total GULP energy -311981.042029 kJ/mol
# GULP energy per Si atom -5571.090036 kJ/mol
# Density = 2.109070 g / cm^3
# Si number density = 21.138814 Si / 1000 Ang^3
#
#
#
# Elastic Constant Matrix: (Units=GPa)
#
#
# Indices 1 2 3 4 5 6 
#
# 1 42.4642 -11.1958 11.8347 0.0000 0.0000 0.0000
# 2 -11.1958 90.0350 6.2881 0.0000 0.0000 0.0000
# 3 11.8347 6.2881 74.4114 0.0000 0.0000 0.0000
# 4 0.0000 0.0000 0.0000 23.5966 0.0000 0.0000
# 5 0.0000 0.0000 0.0000 0.0000 29.4523 0.0000
# 6 0.0000 0.0000 0.0000 0.0000 0.0000 11.3666
#
#
#
# Elastic Compliance Matrix: (Units=1/GPa)
#
#
# Indices 1 2 3 4 5 6 
#
# 1 0.025694 0.003501 -0.004382 0.000000 0.000000 0.000000
# 2 0.003501 0.011650 -0.001541 0.000000 0.000000 0.000000
# 3 -0.004382 -0.001541 0.014266 0.000000 0.000000 0.000000
# 4 0.000000 0.000000 0.000000 0.042379 0.000000 0.000000
# 5 0.000000 0.000000 0.000000 0.000000 0.033953 0.000000
# 6 0.000000 0.000000 0.000000 0.000000 0.000000 0.087977
#
#
# Mechanical properties :
#
#
# Convention : Reuss Voigt Hill
#
# Bulk Modulus (GPa) = 21.38378 24.52941 22.95659
# Shear Modulus (GPa) = 21.15491 26.21533 23.68512
#
# Velocity S-wave (km/s) = 3.16691 3.52540 3.35095
# Velocity P-wave (km/s) = 4.84874 5.31041 5.08482
#
# Compressibility (1/GPa) = 0.04676443
#
# Stress axis : x y z
#
# Youngs Moduli (GPa) = 38.92010 85.83850 70.09664
#
# Poissons Ratio (x) = -0.30052 0.30718
# Poissons Ratio (y) = -0.13626 0.10804
# Poissons Ratio (z) = 0.17056 0.13230
#
# Static dielectric constant tensor:
#      x y z
#    x 1.834070 0.000000 0.000000 
#    y 0.000000 1.820430 0.000000 
#    z 0.000000 0.000000 1.787970 
# 
# From -- ./inp_files/24425.got.cif
#   From: 2010.05.17/outbox.cif.g08.bks.cpg/sg64_13_cif.got.tgz:24425.got - 2010.06.03 16:29:19.
