data_PCOD9478318
_publ_section_title
;
Structure prediction by ZEFSAII (Michael W. Deem and Ramdas Pophale) SiO2 
 PCOD9478318
Probable space group: C M C A
;
_chemical_formula_sum "Si O2"
_cell_formula_units_Z 128
_cell_length_a 18.016430
_cell_length_b 23.371401
_cell_length_c 18.472232
_cell_angle_alpha 90.000000
_cell_angle_beta 90.000000
_cell_angle_gamma 90.000000
_cell_volume 7778.088137
_symmetry_space_group_name_H-M "C M C A"
_symmetry_group_IT_number 64
_symmetry_cell_setting 'orthorhombic'
loop_
_space_group_symop_operation_xyz
x,y,z
-x,1/2-y,1/2+z
x,-y,-z
-x,1/2+y,1/2-z
-x,-y,-z
x,1/2+y,1/2-z
-x,y,z
x,1/2-y,1/2+z
1/2+x,1/2+y,z
1/2-x,-y,1/2+z
1/2+x,1/2-y,-z
1/2-x,y,1/2-z
1/2-x,1/2-y,-z
1/2+x,y,1/2-z
1/2-x,1/2+y,z
1/2+x,-y,1/2+z
loop_
_atom_site_type_symbol
_atom_site_label
_atom_site_fract_x
_atom_site_fract_y
_atom_site_fract_z
Si Si1 0.293762 0.329541 0.063182
Si Si2 0.084888 0.166895 0.813582
Si Si3 0.086388 0.274187 0.718991
Si Si4 0.189735 0.845999 0.684563
Si Si5 0.783787 0.034567 0.924869
Si Si6 0.199245 0.777055 0.910229
Si Si7 0.183860 0.023268 0.309435
Si Si8 0.913924 0.532485 0.691763
O O1 0.355846 0.320562 0.124360
O O2 0.279139 0.397395 0.060956
O O3 0.223676 0.288993 0.081441
O O4 0.320843 0.305460 0.986276
O O5 0.097730 0.209498 0.747156
O O6 0.091950 0.100435 0.793288
O O7 0.000000 0.176297 0.838796
O O8 0.118917 0.314189 0.782416
O O9 0.134188 0.283707 0.647479
O O10 0.000000 0.284650 0.707235
O O11 0.250000 0.846138 0.750000
O O12 0.228936 0.810901 0.620778
O O13 0.173561 0.911484 0.665631
O O14 0.714253 0.014334 0.875773
O O15 0.857528 0.021999 0.875587
O O16 0.786927 0.000000 0.000000
O O17 0.250000 0.022663 0.250000
O O18 0.114690 0.000121 0.263170
O O19 0.000000 0.519066 0.674987
#
# Coordination Sequence:
#
# PCOD9478318 Si02
#       8
#    16  16  16  16  16  16  16  16
#     4  10  20  33  52  76 104 136 177 211 265 312
#     4   9  18  33  52  76 107 135 169 217 265 308
#     4  10  20  33  52  77 104 138 174 215 264 312
#     4   9  17  32  50  72 104 134 168 214 256 299
#     4  10  20  34  53  78 105 141 175 218 265 318
#     4  10  20  33  51  77 104 137 173 219 258 314
#     4   9  18  32  51  76 104 139 174 212 256 309
#     4   9  19  34  53  79 106 136 175 221 265 310
#
# _framework density 16.456485000000001
#
# number of rings (size 3 to 8) (size 9 to 14) (size 15 to 20)
#    0.000    2.500    1.250    0.750    1.750    2.250 
#    0.000    0.000    0.000    0.375    0.000    0.000 
#    0.000    0.000    0.000    0.000    0.000    0.000 
#
# Total GULP energy -356598.086052 kJ/mol
# GULP energy per Si atom -5571.845095 kJ/mol
# Density = 1.641903 g / cm^3
# Si number density = 16.456485 Si / 1000 Ang^3
#
#
#
# Elastic Constant Matrix: (Units=GPa)
#
#
# Indices 1 2 3 4 5 6 
#
# 1 59.9294 30.2149 43.0430 0.0000 0.0000 0.0000
# 2 30.2149 82.2964 32.2838 0.0000 0.0000 0.0000
# 3 43.0430 32.2838 61.3076 0.0000 0.0000 0.0000
# 4 0.0000 0.0000 0.0000 20.4943 0.0000 0.0000
# 5 0.0000 0.0000 0.0000 0.0000 15.1570 0.0000
# 6 0.0000 0.0000 0.0000 0.0000 0.0000 14.8132
#
#
#
# Elastic Compliance Matrix: (Units=1/GPa)
#
#
# Indices 1 2 3 4 5 6 
#
# 1 0.034678 -0.004009 -0.022236 0.000000 0.000000 0.000000
# 2 -0.004009 0.015778 -0.005494 0.000000 0.000000 0.000000
# 3 -0.022236 -0.005494 0.034815 0.000000 0.000000 0.000000
# 4 0.000000 0.000000 0.000000 0.048794 0.000000 0.000000
# 5 0.000000 0.000000 0.000000 0.000000 0.065976 0.000000
# 6 0.000000 0.000000 0.000000 0.000000 0.000000 0.067507
#
#
# Mechanical properties :
#
#
# Convention : Reuss Voigt Hill
#
# Bulk Modulus (GPa) = 45.88345 46.06855 45.97600
# Shear Modulus (GPa) = 14.78018 16.62568 15.70293
#
# Velocity S-wave (km/s) = 3.00014 3.18194 3.09238
# Velocity P-wave (km/s) = 6.32008 6.44629 6.38349
#
# Compressibility (1/GPa) = 0.02179435
#
# Stress axis : x y z
#
# Youngs Moduli (GPa) = 28.83688 63.37807 28.72296
#
# Poissons Ratio (x) = 0.25409 0.63867
# Poissons Ratio (y) = 0.11561 0.15780
# Poissons Ratio (z) = 0.64120 0.34819
#
# Static dielectric constant tensor:
#      x y z
#    x 1.543660 0.000000 0.000000 
#    y 0.000000 1.563180 0.000000 
#    z 0.000000 0.000000 1.535170 
# 
# From -- ./inp_files/33762.got.cif
#   From: 2010.05.17/outbox.cif.g08.bks.cpg/sg64_17_cif.got.tgz:33762.got - 2010.06.03 16:29:19.
