data_PCOD9478620
_publ_section_title
;
Structure prediction by ZEFSAII (Michael W. Deem and Ramdas Pophale) SiO2 
 PCOD9478620
Probable space group: C M C A
;
_chemical_formula_sum "Si O2"
_cell_formula_units_Z 88
_cell_length_a 31.929493
_cell_length_b 26.902165
_cell_length_c 5.027821
_cell_angle_alpha 90.000000
_cell_angle_beta 90.000000
_cell_angle_gamma 90.000000
_cell_volume 4318.759919
_symmetry_space_group_name_H-M "C M C A"
_symmetry_group_IT_number 64
_symmetry_cell_setting 'orthorhombic'
loop_
_space_group_symop_operation_xyz
x,y,z
-x,1/2-y,1/2+z
x,-y,-z
-x,1/2+y,1/2-z
-x,-y,-z
x,1/2+y,1/2-z
-x,y,z
x,1/2-y,1/2+z
1/2+x,1/2+y,z
1/2-x,-y,1/2+z
1/2+x,1/2-y,-z
1/2-x,y,1/2-z
1/2-x,1/2-y,-z
1/2+x,y,1/2-z
1/2-x,1/2+y,z
1/2+x,-y,1/2+z
loop_
_atom_site_type_symbol
_atom_site_label
_atom_site_fract_x
_atom_site_fract_y
_atom_site_fract_z
Si Si1 0.629042 0.377971 0.391506
Si Si2 0.500000 0.783802 0.210042
Si Si3 0.142982 0.500000 0.500000
Si Si4 0.408567 0.784290 0.314183
Si Si5 0.088023 0.419879 0.632561
Si Si6 0.796289 0.946384 0.344065
Si Si7 0.500000 0.536787 0.246540
O O1 0.626869 0.323770 0.262106
O O2 0.605775 0.378258 0.673351
O O3 0.674556 0.402264 0.455869
O O4 0.601080 0.409608 0.174224
O O5 0.500000 0.735784 0.407991
O O6 0.455200 0.808620 0.272363
O O7 0.112584 0.471525 0.701378
O O8 0.175450 0.541211 0.591155
O O9 0.406524 0.760963 0.604907
O O10 0.040647 0.429373 0.708423
O O11 0.750000 0.932896 0.250000
O O12 0.794577 0.000000 0.500000
O O13 0.500000 0.500000 0.500000
O O14 0.500000 0.500000 0.000000
#
# Coordination Sequence:
#
# PCOD9478620 Si02
#       7
#    16   8   8  16  16  16   8
#     4  11  24  39  61  88 119 153 201 251 299 360
#     4   8  16  30  54  82 105 138 186 238 284 336
#     4  10  20  35  56  76 116 154 194 237 292 332
#     4  10  20  38  61  85 115 152 192 244 303 350
#     4  11  23  37  55  83 117 161 201 244 283 339
#     4  11  21  36  59  87 117 153 194 247 299 351
#     4  12  24  36  54  78 118 172 214 231 274 350
#
# _framework density 20.376218999999999
#
# number of rings (size 3 to 8) (size 9 to 14) (size 15 to 20)
#    0.000    1.455    3.636    2.182    2.545    1.455 
#    0.000    1.818    0.000    1.091    0.000    0.000 
#    0.000    0.000    0.000    0.000    0.000    0.000 
#
# Total GULP energy -245024.407897 kJ/mol
# GULP energy per Si atom -5568.736543 kJ/mol
# Density = 2.032984 g / cm^3
# Si number density = 20.376219 Si / 1000 Ang^3
#
#
#
# Elastic Constant Matrix: (Units=GPa)
#
#
# Indices 1 2 3 4 5 6 
#
# 1 150.3593 31.4668 8.2182 0.0000 0.0000 0.0000
# 2 31.4668 55.8829 -0.1402 0.0000 0.0000 0.0000
# 3 8.2182 -0.1402 76.0034 0.0000 0.0000 0.0000
# 4 0.0000 0.0000 0.0000 23.4137 0.0000 0.0000
# 5 0.0000 0.0000 0.0000 0.0000 13.9755 0.0000
# 6 0.0000 0.0000 0.0000 0.0000 0.0000 15.9849
#
#
#
# Elastic Compliance Matrix: (Units=1/GPa)
#
#
# Indices 1 2 3 4 5 6 
#
# 1 0.007591 -0.004276 -0.000829 0.000000 0.000000 0.000000
# 2 -0.004276 0.020304 0.000500 0.000000 0.000000 0.000000
# 3 -0.000829 0.000500 0.013248 0.000000 0.000000 0.000000
# 4 0.000000 0.000000 0.000000 0.042710 0.000000 0.000000
# 5 0.000000 0.000000 0.000000 0.000000 0.071554 0.000000
# 6 0.000000 0.000000 0.000000 0.000000 0.000000 0.062559
#
#
# Mechanical properties :
#
#
# Convention : Reuss Voigt Hill
#
# Bulk Modulus (GPa) = 31.31648 40.14837 35.73243
# Shear Modulus (GPa) = 21.02432 26.85488 23.93960
#
# Velocity S-wave (km/s) = 3.21566 3.63430 3.43137
# Velocity P-wave (km/s) = 5.40276 6.11205 5.76832
#
# Compressibility (1/GPa) = 0.03193207
#
# Stress axis : x y z
#
# Youngs Moduli (GPa) = 131.73503 49.25180 75.48403
#
# Poissons Ratio (x) = 0.21062 0.06255
# Poissons Ratio (y) = 0.56336 -0.03773
# Poissons Ratio (z) = 0.10917 -0.02462
#
# Static dielectric constant tensor:
#      x y z
#    x 1.751870 0.000000 0.000000 
#    y 0.000000 1.816260 0.000000 
#    z 0.000000 0.000000 1.789270 
# 
# From -- ./inp_files/3339.got.cif
#   From: 2010.05.17/outbox.cif.g08.bks.cpg/sg64_2_cif.got.tgz:3339.got - 2010.06.03 16:29:19.
