data_PCOD9478928
_publ_section_title
;
Structure prediction by ZEFSAII (Michael W. Deem and Ramdas Pophale) SiO2 
 PCOD9478928
Probable space group: C M C A
;
_chemical_formula_sum "Si O2"
_cell_formula_units_Z 80
_cell_length_a 11.562894
_cell_length_b 14.912967
_cell_length_c 22.948092
_cell_angle_alpha 90.000000
_cell_angle_beta 90.000000
_cell_angle_gamma 90.000000
_cell_volume 3957.101440
_symmetry_space_group_name_H-M "C M C A"
_symmetry_group_IT_number 64
_symmetry_cell_setting 'orthorhombic'
loop_
_space_group_symop_operation_xyz
x,y,z
-x,1/2-y,1/2+z
x,-y,-z
-x,1/2+y,1/2-z
-x,-y,-z
x,1/2+y,1/2-z
-x,y,z
x,1/2-y,1/2+z
1/2+x,1/2+y,z
1/2-x,-y,1/2+z
1/2+x,1/2-y,-z
1/2-x,y,1/2-z
1/2-x,1/2-y,-z
1/2+x,y,1/2-z
1/2-x,1/2+y,z
1/2+x,-y,1/2+z
loop_
_atom_site_type_symbol
_atom_site_label
_atom_site_fract_x
_atom_site_fract_y
_atom_site_fract_z
Si Si1 0.633062 0.125928 0.466951
Si Si2 0.870355 0.298351 0.095277
Si Si3 0.128206 0.203709 0.220524
Si Si4 0.690403 0.552180 0.910317
Si Si5 0.128038 0.986613 0.218690
O O1 0.500000 0.117876 0.445362
O O2 0.676885 0.223183 0.448872
O O3 0.631256 0.103019 0.535232
O O4 0.703658 0.048904 0.433647
O O5 0.870081 0.249618 0.157572
O O6 0.805273 0.391203 0.098122
O O7 0.000000 0.316669 0.076251
O O8 0.250000 0.230612 0.250000
O O9 0.000000 0.226019 0.247178
O O10 0.130854 0.095385 0.216039
O O11 0.631126 0.548638 0.847559
O O12 0.250000 0.959530 0.250000
O O13 0.000000 0.961936 0.244487
#
# Coordination Sequence:
#
# PCOD9478928 Si02
#       5
#    16  16  16  16  16
#     4  10  20  38  61  84 115 153 194 240 293 350
#     4  10  21  37  58  84 118 155 192 241 300 353
#     4   9  18  36  59  83 115 157 198 242 296 352
#     4  11  20  34  61  90 113 147 198 243 287 346
#     4  10  20  36  60  87 116 153 198 244 292 349
#
# _framework density 20.216818
#
# number of rings (size 3 to 8) (size 9 to 14) (size 15 to 20)
#    0.000    2.000    2.000    3.000    0.000    1.600 
#    0.000    7.000    0.000    4.800    0.000    0.000 
#    0.000    0.000    0.000    0.000    0.000    0.000 
#
# Total GULP energy -222841.823117 kJ/mol
# GULP energy per Si atom -5571.045578 kJ/mol
# Density = 2.017080 g / cm^3
# Si number density = 20.216818 Si / 1000 Ang^3
#
#
#
# Elastic Constant Matrix: (Units=GPa)
#
#
# Indices 1 2 3 4 5 6 
#
# 1 138.9866 52.8075 51.2394 0.0000 0.0000 0.0000
# 2 52.8075 53.8039 9.7597 0.0000 0.0000 0.0000
# 3 51.2394 9.7597 78.9884 0.0000 0.0000 0.0000
# 4 0.0000 0.0000 0.0000 20.6040 0.0000 0.0000
# 5 0.0000 0.0000 0.0000 0.0000 28.6264 0.0000
# 6 0.0000 0.0000 0.0000 0.0000 0.0000 58.0411
#
#
#
# Elastic Compliance Matrix: (Units=1/GPa)
#
#
# Indices 1 2 3 4 5 6 
#
# 1 0.015461 -0.013661 -0.008341 0.000000 0.000000 0.000000
# 2 -0.013661 0.031083 0.005021 0.000000 0.000000 0.000000
# 3 -0.008341 0.005021 0.017451 0.000000 0.000000 0.000000
# 4 0.000000 0.000000 0.000000 0.048534 0.000000 0.000000
# 5 0.000000 0.000000 0.000000 0.000000 0.034933 0.000000
# 6 0.000000 0.000000 0.000000 0.000000 0.000000 0.017229
#
#
# Mechanical properties :
#
#
# Convention : Reuss Voigt Hill
#
# Bulk Modulus (GPa) = 33.29749 55.48802 44.39276
# Shear Modulus (GPa) = 23.96199 31.98579 27.97389
#
# Velocity S-wave (km/s) = 3.44648 3.98192 3.72384
# Velocity P-wave (km/s) = 5.68714 6.97474 6.36359
#
# Compressibility (1/GPa) = 0.03003229
#
# Stress axis : x y z
#
# Youngs Moduli (GPa) = 64.68065 32.17157 57.30469
#
# Poissons Ratio (x) = 0.43950 0.47799
# Poissons Ratio (y) = 0.88361 -0.28775
# Poissons Ratio (z) = 0.53952 -0.16154
#
# Static dielectric constant tensor:
#      x y z
#    x 1.775920 0.000000 0.000000 
#    y 0.000000 1.705090 0.000000 
#    z 0.000000 0.000000 1.723290 
# 
# From -- ./inp_files/43946.got.cif
#   From: 2010.05.17/outbox.cif.g08.bks.cpg/sg64_22_cif.got.tgz:43946.got - 2010.06.03 16:29:19.
