data_PCOD9478184
_publ_section_title
;
Structure prediction by ZEFSAII (Michael W. Deem and Ramdas Pophale) SiO2 
 PCOD9478184
Probable space group: C M C A
;
_chemical_formula_sum "Si O2"
_cell_formula_units_Z 56
_cell_length_a 8.663184
_cell_length_b 15.693044
_cell_length_c 17.506619
_cell_angle_alpha 90.000000
_cell_angle_beta 90.000000
_cell_angle_gamma 90.000000
_cell_volume 2380.055099
_symmetry_space_group_name_H-M "C M C A"
_symmetry_group_IT_number 64
_symmetry_cell_setting 'orthorhombic'
loop_
_space_group_symop_operation_xyz
x,y,z
-x,1/2-y,1/2+z
x,-y,-z
-x,1/2+y,1/2-z
-x,-y,-z
x,1/2+y,1/2-z
-x,y,z
x,1/2-y,1/2+z
1/2+x,1/2+y,z
1/2-x,-y,1/2+z
1/2+x,1/2-y,-z
1/2-x,y,1/2-z
1/2-x,1/2-y,-z
1/2+x,y,1/2-z
1/2-x,1/2+y,z
1/2+x,-y,1/2+z
loop_
_atom_site_type_symbol
_atom_site_label
_atom_site_fract_x
_atom_site_fract_y
_atom_site_fract_z
Si Si1 0.000000 0.330452 0.790818
Si Si2 0.500000 0.145385 0.669589
Si Si3 0.749475 0.863807 0.581707
Si Si4 0.000000 0.960401 0.845690
Si Si5 0.333082 0.830724 0.085427
O O1 0.142105 0.353774 0.844979
O O2 0.000000 0.228917 0.777731
O O3 0.000000 0.383821 0.714570
O O4 0.335320 0.151928 0.623897
O O5 0.500000 0.049046 0.698264
O O6 0.644603 0.944551 0.599697
O O7 0.663897 0.772310 0.577751
O O8 0.827108 0.869587 0.499511
O O9 0.500000 0.857631 0.120046
#
# Coordination Sequence:
#
# PCOD9478184 Si02
#       5
#     8   8  16   8  16
#     4  10  22  44  66  93 134 182 224 271 336 409
#     4  10  25  42  69 101 132 177 230 278 348 397
#     4  10  20  37  67  99 128 176 225 272 341 392
#     4  12  23  42  63  97 140 180 226 285 324 405
#     4  10  19  40  69 102 134 169 226 284 332 399
#
# _framework density 23.528867999999999
#
# number of rings (size 3 to 8) (size 9 to 14) (size 15 to 20)
#    0.000    1.714    2.857    1.714    4.000    2.286 
#    2.571   12.857    0.000    0.000    0.000    0.000 
#    0.000    0.000    0.000    0.000    0.000    0.000 
#
# Total GULP energy -156232.621036 kJ/mol
# GULP energy per Si atom -5579.736466 kJ/mol
# Density = 2.347532 g / cm^3
# Si number density = 23.528868 Si / 1000 Ang^3
#
#
#
# Elastic Constant Matrix: (Units=GPa)
#
#
# Indices 1 2 3 4 5 6 
#
# 1 160.4803 24.3042 30.6074 0.0000 0.0000 0.0000
# 2 24.3042 123.1451 19.0797 0.0000 0.0000 0.0000
# 3 30.6074 19.0797 71.2685 0.0000 0.0000 0.0000
# 4 0.0000 0.0000 0.0000 22.7887 0.0000 0.0000
# 5 0.0000 0.0000 0.0000 0.0000 -3.6777 0.0000
# 6 0.0000 0.0000 0.0000 0.0000 0.0000 23.0279
#
#
#
# Elastic Compliance Matrix: (Units=1/GPa)
#
#
# Indices 1 2 3 4 5 6 
#
# 1 0.006890 -0.000940 -0.002707 0.000000 0.000000 0.000000
# 2 -0.000940 0.008600 -0.001899 0.000000 0.000000 0.000000
# 3 -0.002707 -0.001899 0.015702 0.000000 0.000000 0.000000
# 4 0.000000 0.000000 0.000000 0.043881 0.000000 0.000000
# 5 0.000000 0.000000 0.000000 0.000000 -0.271910 0.000000
# 6 0.000000 0.000000 0.000000 0.000000 0.000000 0.043426
#
#
# Mechanical properties :
#
#
# Convention : Reuss Voigt Hill
#
# Bulk Modulus (GPa) = 49.75062 55.87517 52.81289
# Shear Modulus (GPa) = -36.86827 27.15463 -4.85682
#
# Velocity S-wave (km/s) = -3.96275 3.40089 -1.43829
# Velocity P-wave (km/s) = 0.50254 6.26262 4.44258
#
# Compressibility (1/GPa) = 0.02010025
#
# Stress axis : x y z
#
# Youngs Moduli (GPa) = 145.13673 116.27561 63.68448
#
# Poissons Ratio (x) = 0.10934 0.17241
# Poissons Ratio (y) = 0.13648 0.12091
# Poissons Ratio (z) = 0.39293 0.22076
#
# Static dielectric constant tensor:
#      x y z
#    x 2.044760 0.000000 0.000000 
#    y 0.000000 1.851670 0.000000 
#    z 0.000000 0.000000 1.842620 
# 
# From -- ./inp_files/29112.got.cif
#   From: 2010.05.17/outbox.cif.g08.bks.cpg/sg64_15_cif.got.tgz:29112.got - 2010.06.03 16:29:19.
