data_PCOD9478516
_publ_section_title
;
Structure prediction by ZEFSAII (Michael W. Deem and Ramdas Pophale) SiO2 
 PCOD9478516
Probable space group: C M C A
;
_chemical_formula_sum "Si O2"
_cell_formula_units_Z 104
_cell_length_a 15.002530
_cell_length_b 18.770562
_cell_length_c 21.219705
_cell_angle_alpha 90.000000
_cell_angle_beta 90.000000
_cell_angle_gamma 90.000000
_cell_volume 5975.594539
_symmetry_space_group_name_H-M "C M C A"
_symmetry_group_IT_number 64
_symmetry_cell_setting 'orthorhombic'
loop_
_space_group_symop_operation_xyz
x,y,z
-x,1/2-y,1/2+z
x,-y,-z
-x,1/2+y,1/2-z
-x,-y,-z
x,1/2+y,1/2-z
-x,y,z
x,1/2-y,1/2+z
1/2+x,1/2+y,z
1/2-x,-y,1/2+z
1/2+x,1/2-y,-z
1/2-x,y,1/2-z
1/2-x,1/2-y,-z
1/2+x,y,1/2-z
1/2-x,1/2+y,z
1/2+x,-y,1/2+z
loop_
_atom_site_type_symbol
_atom_site_label
_atom_site_fract_x
_atom_site_fract_y
_atom_site_fract_z
Si Si1 0.212405 0.118950 0.360529
Si Si2 0.348708 0.755767 0.777485
Si Si3 0.896833 0.416877 0.984122
Si Si4 0.893841 0.346792 0.111601
Si Si5 0.603772 0.898850 0.250246
Si Si6 0.099638 0.684837 0.353502
Si Si7 0.250000 0.989753 0.750000
O O1 0.165231 0.191426 0.335543
O O2 0.162692 0.095257 0.423032
O O3 0.317365 0.135282 0.369661
O O4 0.210461 0.060746 0.304641
O O5 0.250000 0.743431 0.750000
O O6 0.388948 0.677342 0.785685
O O7 0.398254 0.797973 0.721454
O O8 0.000000 0.393598 0.972722
O O9 0.899388 0.500000 0.000000
O O10 0.858948 0.377965 0.046424
O O11 0.865229 0.381662 0.177868
O O12 0.881880 0.262252 0.116118
O O13 0.000000 0.360083 0.110393
O O14 0.500000 0.920590 0.249826
O O15 0.670492 0.959178 0.274205
O O16 0.000000 0.660722 0.370720
#
# Coordination Sequence:
#
# PCOD9478516 Si02
#       7
#    16  16  16  16  16  16   8
#     4  11  22  35  54  84 113 149 188 232 279 327
#     4   9  16  34  53  80 112 141 181 230 276 325
#     4  10  21  37  55  80 112 141 181 237 289 334
#     4   8  16  33  56  79 100 137 186 225 274 328
#     4  10  20  34  57  81 110 149 181 228 284 332
#     4   9  17  32  55  78 108 142 183 226 270 332
#     4  12  22  34  48  80 118 146 184 222 272 350
#
# _framework density 17.404126000000002
#
# number of rings (size 3 to 8) (size 9 to 14) (size 15 to 20)
#    0.000    2.308    3.077    2.308    0.000    4.308 
#    0.000    0.000    0.000    0.462    0.000    0.000 
#    0.000    0.000    0.000    0.000    0.000    0.000 
#
# Total GULP energy -289748.811560 kJ/mol
# GULP energy per Si atom -5572.092530 kJ/mol
# Density = 1.736451 g / cm^3
# Si number density = 17.404126 Si / 1000 Ang^3
#
#
#
# Elastic Constant Matrix: (Units=GPa)
#
#
# Indices 1 2 3 4 5 6 
#
# 1 79.0982 31.6103 20.5391 0.0000 0.0000 0.0000
# 2 31.6103 54.0211 38.3746 0.0000 0.0000 0.0000
# 3 20.5391 38.3746 71.2590 0.0000 0.0000 0.0000
# 4 0.0000 0.0000 0.0000 15.7540 0.0000 0.0000
# 5 0.0000 0.0000 0.0000 0.0000 19.6976 0.0000
# 6 0.0000 0.0000 0.0000 0.0000 0.0000 10.5984
#
#
#
# Elastic Compliance Matrix: (Units=1/GPa)
#
#
# Indices 1 2 3 4 5 6 
#
# 1 0.016524 -0.010180 0.000719 0.000000 0.000000 0.000000
# 2 -0.010180 0.036252 -0.016588 0.000000 0.000000 0.000000
# 3 0.000719 -0.016588 0.022759 0.000000 0.000000 0.000000
# 4 0.000000 0.000000 0.000000 0.063476 0.000000 0.000000
# 5 0.000000 0.000000 0.000000 0.000000 0.050767 0.000000
# 6 0.000000 0.000000 0.000000 0.000000 0.000000 0.094354
#
#
# Mechanical properties :
#
#
# Convention : Reuss Voigt Hill
#
# Bulk Modulus (GPa) = 42.66715 42.82516 42.74615
# Shear Modulus (GPa) = 14.53310 16.80029 15.66669
#
# Velocity S-wave (km/s) = 2.89284 3.11031 3.00354
# Velocity P-wave (km/s) = 5.97719 6.12849 6.05331
#
# Compressibility (1/GPa) = 0.02343724
#
# Stress axis : x y z
#
# Youngs Moduli (GPa) = 60.51813 27.58488 43.93849
#
# Poissons Ratio (x) = 0.28081 -0.03161
# Poissons Ratio (y) = 0.61608 0.72886
# Poissons Ratio (z) = -0.04354 0.45758
#
# Static dielectric constant tensor:
#      x y z
#    x 1.625160 0.000000 0.000000 
#    y 0.000000 1.615210 0.000000 
#    z 0.000000 0.000000 1.603070 
# 
# From -- ./inp_files/39467.got.cif
#   From: 2010.05.17/outbox.cif.g08.bks.cpg/sg64_20_cif.got.tgz:39467.got - 2010.06.03 16:29:19.
