data_PCOD9478666
_publ_section_title
;
Structure prediction by ZEFSAII (Michael W. Deem and Ramdas Pophale) SiO2 
 PCOD9478666
Probable space group: C M C A
;
_chemical_formula_sum "Si O2"
_cell_formula_units_Z 64
_cell_length_a 11.981463
_cell_length_b 13.789373
_cell_length_c 15.043174
_cell_angle_alpha 90.000000
_cell_angle_beta 90.000000
_cell_angle_gamma 90.000000
_cell_volume 2485.386009
_symmetry_space_group_name_H-M "C M C A"
_symmetry_group_IT_number 64
_symmetry_cell_setting 'orthorhombic'
loop_
_space_group_symop_operation_xyz
x,y,z
-x,1/2-y,1/2+z
x,-y,-z
-x,1/2+y,1/2-z
-x,-y,-z
x,1/2+y,1/2-z
-x,y,z
x,1/2-y,1/2+z
1/2+x,1/2+y,z
1/2-x,-y,1/2+z
1/2+x,1/2-y,-z
1/2-x,y,1/2-z
1/2-x,1/2-y,-z
1/2+x,y,1/2-z
1/2-x,1/2+y,z
1/2+x,-y,1/2+z
loop_
_atom_site_type_symbol
_atom_site_label
_atom_site_fract_x
_atom_site_fract_y
_atom_site_fract_z
Si Si1 0.657000 0.895978 0.039423
Si Si2 0.620369 0.179283 0.492541
Si Si3 0.878442 0.380972 0.242619
Si Si4 0.872299 0.659260 0.278290
O O1 0.627966 0.795297 0.988669
O O2 0.609815 0.888082 0.136626
O O3 0.789945 0.883833 0.043302
O O4 0.627913 0.000000 0.000000
O O5 0.500000 0.144211 0.517213
O O6 0.634187 0.167536 0.385860
O O7 0.750000 0.417887 0.250000
O O8 0.872673 0.266656 0.264401
O O9 0.000000 0.415874 0.279500
O O10 0.750000 0.617845 0.250000
O O11 0.000000 0.621474 0.257746
#
# Coordination Sequence:
#
# PCOD9478666 Si02
#       4
#    16  16  16  16
#     4  10  20  35  57  83 112 146 187 234 284 336
#     4   9  19  35  54  80 114 149 188 233 282 339
#     4   9  18  33  54  80 109 144 187 233 280 335
#     4   8  14  28  50  75 106 144 185 229 276 327
#
# _framework density 25.750527000000002
#
# number of rings (size 3 to 8) (size 9 to 14) (size 15 to 20)
#    0.000    3.000    0.000    2.250    0.000    3.500 
#    0.000   15.000    0.000    4.500    0.000    3.500 
#    0.000    0.000    0.000    0.000    0.000    0.000 
#
# Total GULP energy -178255.059960 kJ/mol
# GULP energy per Si atom -5570.470624 kJ/mol
# Density = 2.569192 g / cm^3
# Si number density = 25.750527 Si / 1000 Ang^3
#
#
#
# Elastic Constant Matrix: (Units=GPa)
#
#
# Indices 1 2 3 4 5 6 
#
# 1 338.1742 29.6630 35.3228 0.0000 0.0000 0.0000
# 2 29.6630 108.9793 25.6740 0.0000 0.0000 0.0000
# 3 35.3228 25.6740 56.5650 0.0000 0.0000 0.0000
# 4 0.0000 0.0000 0.0000 -3.1988 0.0000 0.0000
# 5 0.0000 0.0000 0.0000 0.0000 31.7089 0.0000
# 6 0.0000 0.0000 0.0000 0.0000 0.0000 -65.2110
#
#
#
# Elastic Compliance Matrix: (Units=1/GPa)
#
#
# Indices 1 2 3 4 5 6 
#
# 1 0.003183 -0.000446 -0.001785 0.000000 0.000000 0.000000
# 2 -0.000446 0.010337 -0.004414 0.000000 0.000000 0.000000
# 3 -0.001785 -0.004414 0.020797 0.000000 0.000000 0.000000
# 4 0.000000 0.000000 0.000000 -0.312618 0.000000 0.000000
# 5 0.000000 0.000000 0.000000 0.000000 0.031537 0.000000
# 6 0.000000 0.000000 0.000000 0.000000 0.000000 -0.015335
#
#
# Mechanical properties :
#
#
# Convention : Reuss Voigt Hill
#
# Bulk Modulus (GPa) = 47.55621 76.11536 61.83579
# Shear Modulus (GPa) = -20.67813 20.19705 -0.24054
#
# Velocity S-wave (km/s) = -2.83683 2.80364 -0.30597
# Velocity P-wave (km/s) = 2.78891 6.33273 4.89293
#
# Compressibility (1/GPa) = 0.02102775
#
# Stress axis : x y z
#
# Youngs Moduli (GPa) = 314.20737 96.73853 48.08442
#
# Poissons Ratio (x) = 0.04312 0.08584
# Poissons Ratio (y) = 0.14005 0.21222
# Poissons Ratio (z) = 0.56090 0.42696
#
# Static dielectric constant tensor:
#      x y z
#    x 2.137210 0.000000 0.000000 
#    y 0.000000 1.991020 0.000000 
#    z 0.000000 0.000000 1.823520 
# 
# From -- ./inp_files/30463.got.cif
#   From: 2010.05.17/outbox.cif.g08.bks.cpg/sg64_16_cif.got.tgz:30463.got - 2010.06.03 16:29:19.
