data_PCOD9478721
_publ_section_title
;
Structure prediction by ZEFSAII (Michael W. Deem and Ramdas Pophale) SiO2 
 PCOD9478721
Probable space group: C M C A
;
_chemical_formula_sum "Si O2"
_cell_formula_units_Z 96
_cell_length_a 8.835422
_cell_length_b 29.565774
_cell_length_c 20.848612
_cell_angle_alpha 90.000000
_cell_angle_beta 90.000000
_cell_angle_gamma 90.000000
_cell_volume 5446.201396
_symmetry_space_group_name_H-M "C M C A"
_symmetry_group_IT_number 64
_symmetry_cell_setting 'orthorhombic'
loop_
_space_group_symop_operation_xyz
x,y,z
-x,1/2-y,1/2+z
x,-y,-z
-x,1/2+y,1/2-z
-x,-y,-z
x,1/2+y,1/2-z
-x,y,z
x,1/2-y,1/2+z
1/2+x,1/2+y,z
1/2-x,-y,1/2+z
1/2+x,1/2-y,-z
1/2-x,y,1/2-z
1/2-x,1/2-y,-z
1/2+x,y,1/2-z
1/2-x,1/2+y,z
1/2+x,-y,1/2+z
loop_
_atom_site_type_symbol
_atom_site_label
_atom_site_fract_x
_atom_site_fract_y
_atom_site_fract_z
Si Si1 0.817531 0.722339 0.940610
Si Si2 0.682015 0.621948 0.522263
Si Si3 0.681544 0.373356 0.629194
Si Si4 0.818506 0.527508 0.180846
Si Si5 0.318914 0.528250 0.936063
Si Si6 0.818885 0.718920 0.318542
O O1 0.773923 0.669852 0.946700
O O2 0.771724 0.746388 0.874583
O O3 0.000000 0.724346 0.945240
O O4 0.750000 0.750000 0.000000
O O5 0.500000 0.616557 0.527483
O O6 0.718797 0.624087 0.446403
O O7 0.761924 0.579142 0.553728
O O8 0.500000 0.367286 0.634695
O O9 0.722859 0.420825 0.661964
O O10 0.762385 0.330811 0.661122
O O11 0.750000 0.516549 0.250000
O O12 0.755332 0.495183 0.125423
O O13 0.000000 0.524600 0.182531
O O14 0.500000 0.526984 0.930131
O O15 0.275773 0.500000 0.000000
O O16 0.750000 0.730919 0.250000
O O17 0.000000 0.718821 0.314571
#
# Coordination Sequence:
#
# PCOD9478721 Si02
#       6
#    16  16  16  16  16  16
#     4  10  21  37  59  85 114 150 193 239 287 340
#     4  10  20  37  60  87 117 150 192 238 290 344
#     4  10  20  35  59  88 118 153 189 235 291 346
#     4  11  23  39  59  85 118 155 194 236 291 349
#     4  11  23  38  59  87 118 152 194 241 287 342
#     4  11  23  37  56  84 118 155 192 235 288 342
#
# _framework density 17.626964000000001
#
# number of rings (size 3 to 8) (size 9 to 14) (size 15 to 20)
#    0.000    1.500    3.333    2.000    0.000    5.333 
#    0.000    0.833    0.000    2.000    0.000    0.000 
#    0.000    0.000    0.000    0.000    0.000    0.000 
#
# Total GULP energy -268248.608778 kJ/mol
# GULP energy per Si atom -5588.512683 kJ/mol
# Density = 1.758684 g / cm^3
# Si number density = 17.626964 Si / 1000 Ang^3
#
#
#
# Elastic Constant Matrix: (Units=GPa)
#
#
# Indices 1 2 3 4 5 6 
#
# 1 36.3624 47.8577 55.9008 0.0000 0.0000 0.0000
# 2 47.8577 153.0481 94.0551 0.0000 0.0000 0.0000
# 3 55.9008 94.0551 178.1437 0.0000 0.0000 0.0000
# 4 0.0000 0.0000 0.0000 20.4115 0.0000 0.0000
# 5 0.0000 0.0000 0.0000 0.0000 24.9085 0.0000
# 6 0.0000 0.0000 0.0000 0.0000 0.0000 27.6355
#
#
#
# Elastic Compliance Matrix: (Units=1/GPa)
#
#
# Indices 1 2 3 4 5 6 
#
# 1 0.064241 -0.011398 -0.014141 0.000000 0.000000 0.000000
# 2 -0.011398 0.011694 -0.002598 0.000000 0.000000 0.000000
# 3 -0.014141 -0.002598 0.011422 0.000000 0.000000 0.000000
# 4 0.000000 0.000000 0.000000 0.048992 0.000000 0.000000
# 5 0.000000 0.000000 0.000000 0.000000 0.040147 0.000000
# 6 0.000000 0.000000 0.000000 0.000000 0.000000 0.036185
#
#
# Mechanical properties :
#
#
# Convention : Reuss Voigt Hill
#
# Bulk Modulus (GPa) = 32.16993 84.79793 58.48393
# Shear Modulus (GPa) = 17.90086 25.90713 21.90399
#
# Velocity S-wave (km/s) = 3.19021 3.83788 3.52894
# Velocity P-wave (km/s) = 5.64446 8.23714 7.06082
#
# Compressibility (1/GPa) = 0.03108493
#
# Stress axis : x y z
#
# Youngs Moduli (GPa) = 15.56642 85.51118 87.54793
#
# Poissons Ratio (x) = 0.97464 1.23800
# Poissons Ratio (y) = 0.17742 0.22743
# Poissons Ratio (z) = 0.22012 0.22214
#
# Static dielectric constant tensor:
#      x y z
#    x 1.592800 0.000000 0.000000 
#    y 0.000000 1.576370 0.000000 
#    z 0.000000 0.000000 1.579230 
# 
# From -- ./inp_files/37000.got.cif
#   From: 2010.05.17/outbox.cif.g08.bks.cpg/sg64_19_cif.got.tgz:37000.got - 2010.06.03 16:29:19.
