data_PCOD9478128
_publ_section_title
;
Structure prediction by ZEFSAII (Michael W. Deem and Ramdas Pophale) SiO2 
 PCOD9478128
Probable space group: C M C A
;
_chemical_formula_sum "Si O2"
_cell_formula_units_Z 88
_cell_length_a 20.839301
_cell_length_b 14.564335
_cell_length_c 13.305593
_cell_angle_alpha 90.000000
_cell_angle_beta 90.000000
_cell_angle_gamma 90.000000
_cell_volume 4038.387995
_symmetry_space_group_name_H-M "C M C A"
_symmetry_group_IT_number 64
_symmetry_cell_setting 'orthorhombic'
loop_
_space_group_symop_operation_xyz
x,y,z
-x,1/2-y,1/2+z
x,-y,-z
-x,1/2+y,1/2-z
-x,-y,-z
x,1/2+y,1/2-z
-x,y,z
x,1/2-y,1/2+z
1/2+x,1/2+y,z
1/2-x,-y,1/2+z
1/2+x,1/2-y,-z
1/2-x,y,1/2-z
1/2-x,1/2-y,-z
1/2+x,y,1/2-z
1/2-x,1/2+y,z
1/2+x,-y,1/2+z
loop_
_atom_site_type_symbol
_atom_site_label
_atom_site_fract_x
_atom_site_fract_y
_atom_site_fract_z
Si Si1 0.000000 0.017004 0.757020
Si Si2 0.500000 0.198048 0.258483
Si Si3 0.261278 0.593307 0.964640
Si Si4 0.403745 0.780379 0.921262
Si Si5 0.254064 0.722748 0.367196
Si Si6 0.500000 0.858023 0.074002
Si Si7 0.097051 0.573463 0.581948
O O1 0.061451 0.058858 0.813589
O O2 0.000000 0.050339 0.641878
O O3 0.000000 0.909596 0.781894
O O4 0.438717 0.211392 0.185880
O O5 0.500000 0.272344 0.347210
O O6 0.231329 0.674338 0.897058
O O7 0.326261 0.564047 0.908216
O O8 0.226647 0.500000 0.000000
O O9 0.281891 0.647704 0.065922
O O10 0.328030 0.789242 0.902918
O O11 0.416615 0.676015 0.955419
O O12 0.438259 0.846492 0.001045
O O13 0.250000 0.708114 0.250000
O O14 0.075392 0.500000 0.500000
#
# Coordination Sequence:
#
# PCOD9478128 Si02
#       7
#     8   8  16  16  16   8  16
#     4  12  22  36  62  95 117 170 210 253 323 378
#     4  11  23  40  62  94 124 164 207 259 319 377
#     4   9  21  41  61  91 127 162 209 266 315 368
#     4  10  22  40  61  91 126 163 206 260 322 376
#     4  10  22  41  65  92 125 166 214 257 319 387
#     4  11  22  41  62  87 132 161 205 264 310 387
#     4  10  19  38  62  89 121 157 221 261 302 368
#
# _framework density 21.790872
#
# number of rings (size 3 to 8) (size 9 to 14) (size 15 to 20)
#    0.000    1.818    1.818    1.909    0.000    9.455 
#    3.273    0.000    0.000    0.000    0.000    0.000 
#    0.000    0.000    0.000    0.000    0.000    0.000 
#
# Total GULP energy -245600.358825 kJ/mol
# GULP energy per Si atom -5581.826337 kJ/mol
# Density = 2.174128 g / cm^3
# Si number density = 21.790872 Si / 1000 Ang^3
#
#
#
# Elastic Constant Matrix: (Units=GPa)
#
#
# Indices 1 2 3 4 5 6 
#
# 1 73.4641 5.3115 19.0556 0.0000 0.0000 0.0000
# 2 5.3115 85.5501 3.7474 0.0000 0.0000 0.0000
# 3 19.0556 3.7474 105.6753 0.0000 0.0000 0.0000
# 4 0.0000 0.0000 0.0000 34.8089 0.0000 0.0000
# 5 0.0000 0.0000 0.0000 0.0000 9.4413 0.0000
# 6 0.0000 0.0000 0.0000 0.0000 0.0000 17.5676
#
#
#
# Elastic Compliance Matrix: (Units=1/GPa)
#
#
# Indices 1 2 3 4 5 6 
#
# 1 0.014332 -0.000778 -0.002557 0.000000 0.000000 0.000000
# 2 -0.000778 0.011749 -0.000276 0.000000 0.000000 0.000000
# 3 -0.002557 -0.000276 0.009934 0.000000 0.000000 0.000000
# 4 0.000000 0.000000 0.000000 0.028728 0.000000 0.000000
# 5 0.000000 0.000000 0.000000 0.000000 0.105918 0.000000
# 6 0.000000 0.000000 0.000000 0.000000 0.000000 0.056923
#
#
# Mechanical properties :
#
#
# Convention : Reuss Voigt Hill
#
# Bulk Modulus (GPa) = 34.73073 35.65760 35.19416
# Shear Modulus (GPa) = 20.45799 28.13523 24.29661
#
# Velocity S-wave (km/s) = 3.06736 3.59715 3.34277
# Velocity P-wave (km/s) = 5.34020 5.80101 5.57537
#
# Compressibility (1/GPa) = 0.02879295
#
# Stress axis : x y z
#
# Youngs Moduli (GPa) = 69.77634 85.11037 100.66659
#
# Poissons Ratio (x) = 0.06620 0.25737
# Poissons Ratio (y) = 0.05427 0.02782
# Poissons Ratio (z) = 0.17840 0.02352
#
# Static dielectric constant tensor:
#      x y z
#    x 1.858900 0.000000 0.000000 
#    y 0.000000 1.855580 0.000000 
#    z 0.000000 0.000000 1.768970 
# 
# From -- ./inp_files/18260.got.cif
#   From: 2010.05.17/outbox.cif.g08.bks.cpg/sg64_10_cif.got.tgz:18260.got - 2010.06.03 16:29:19.
