data_PCOD9478895
_publ_section_title
;
Structure prediction by ZEFSAII (Michael W. Deem and Ramdas Pophale) SiO2 
 PCOD9478895
Probable space group: C M C A
;
_chemical_formula_sum "Si O2"
_cell_formula_units_Z 72
_cell_length_a 9.403175
_cell_length_b 13.807425
_cell_length_c 22.445318
_cell_angle_alpha 90.000000
_cell_angle_beta 90.000000
_cell_angle_gamma 90.000000
_cell_volume 2914.157193
_symmetry_space_group_name_H-M "C M C A"
_symmetry_group_IT_number 64
_symmetry_cell_setting 'orthorhombic'
loop_
_space_group_symop_operation_xyz
x,y,z
-x,1/2-y,1/2+z
x,-y,-z
-x,1/2+y,1/2-z
-x,-y,-z
x,1/2+y,1/2-z
-x,y,z
x,1/2-y,1/2+z
1/2+x,1/2+y,z
1/2-x,-y,1/2+z
1/2+x,1/2-y,-z
1/2-x,y,1/2-z
1/2-x,1/2-y,-z
1/2+x,y,1/2-z
1/2-x,1/2+y,z
1/2+x,-y,1/2+z
loop_
_atom_site_type_symbol
_atom_site_label
_atom_site_fract_x
_atom_site_fract_y
_atom_site_fract_z
Si Si1 0.163307 0.117681 0.959100
Si Si2 0.500000 0.848649 0.251604
Si Si3 0.267262 0.589896 0.828306
Si Si4 0.662648 0.655940 0.428403
Si Si5 0.837243 0.629840 0.308305
O O1 0.242278 0.084451 0.899225
O O2 0.152659 0.233736 0.950737
O O3 0.000000 0.081574 0.959010
O O4 0.249366 0.101192 0.019864
O O5 0.621171 0.832958 0.304072
O O6 0.623075 0.884344 0.204130
O O7 0.336994 0.487279 0.808661
O O8 0.500000 0.620332 0.418816
O O9 0.757710 0.655818 0.368903
O O10 0.750000 0.657465 0.250000
O O11 0.000000 0.669377 0.303675
#
# Coordination Sequence:
#
# PCOD9478895 Si02
#       5
#    16   8  16  16  16
#     4  10  21  43  63  85 117 158 200 246 290 349
#     4  10  20  36  58  92 122 150 190 246 296 346
#     4  11  20  38  63  89 115 158 194 244 293 350
#     4  10  24  41  61  86 121 157 198 242 296 350
#     4  12  22  40  62  89 122 156 191 243 295 352
#
# _framework density 24.706970999999999
#
# number of rings (size 3 to 8) (size 9 to 14) (size 15 to 20)
#    0.000    1.333    4.444    1.333    3.111    1.778 
#    4.000    3.333    0.000    0.000    0.000    0.000 
#    0.000    0.000    0.000    0.000    0.000    0.000 
#
# Total GULP energy -200598.617452 kJ/mol
# GULP energy per Si atom -5572.183818 kJ/mol
# Density = 2.465074 g / cm^3
# Si number density = 24.706971 Si / 1000 Ang^3
#
#
#
# Elastic Constant Matrix: (Units=GPa)
#
#
# Indices 1 2 3 4 5 6 
#
# 1 234.0337 -16.3460 104.8596 0.0000 0.0000 0.0000
# 2 -16.3460 51.6412 0.9386 0.0000 0.0000 0.0000
# 3 104.8596 0.9386 256.8476 0.0000 0.0000 0.0000
# 4 0.0000 0.0000 0.0000 22.4346 0.0000 0.0000
# 5 0.0000 0.0000 0.0000 0.0000 35.8094 0.0000
# 6 0.0000 0.0000 0.0000 0.0000 0.0000 38.9326
#
#
#
# Elastic Compliance Matrix: (Units=1/GPa)
#
#
# Indices 1 2 3 4 5 6 
#
# 1 0.005382 0.001744 -0.002204 0.000000 0.000000 0.000000
# 2 0.001744 0.019931 -0.000785 0.000000 0.000000 0.000000
# 3 -0.002204 -0.000785 0.004796 0.000000 0.000000 0.000000
# 4 0.000000 0.000000 0.000000 0.044574 0.000000 0.000000
# 5 0.000000 0.000000 0.000000 0.000000 0.027926 0.000000
# 6 0.000000 0.000000 0.000000 0.000000 0.000000 0.025685
#
#
# Mechanical properties :
#
#
# Convention : Reuss Voigt Hill
#
# Bulk Modulus (GPa) = 36.20686 80.15856 58.18271
# Shear Modulus (GPa) = 35.71702 49.63999 42.67850
#
# Velocity S-wave (km/s) = 3.80626 4.48722 4.16069
# Velocity P-wave (km/s) = 5.83122 7.70461 6.83243
#
# Compressibility (1/GPa) = 0.02761908
#
# Stress axis : x y z
#
# Youngs Moduli (GPa) = 185.80441 50.17425 208.51305
#
# Poissons Ratio (x) = -0.08748 0.45948
# Poissons Ratio (y) = -0.32397 0.16361
# Poissons Ratio (z) = 0.40944 0.03937
#
# Static dielectric constant tensor:
#      x y z
#    x 1.077840 0.000000 0.000000 
#    y 0.000000 2.270190 0.000000 
#    z 0.000000 0.000000 1.924800 
# 
# From -- ./inp_files/36555.got.cif
#   From: 2010.05.17/outbox.cif.g08.bks.cpg/sg64_19_cif.got.tgz:36555.got - 2010.06.03 16:29:19.
