data_PCOD9478526
_publ_section_title
;
Structure prediction by ZEFSAII (Michael W. Deem and Ramdas Pophale) SiO2 
 PCOD9478526
Probable space group: C M C A
;
_chemical_formula_sum "Si O2"
_cell_formula_units_Z 96
_cell_length_a 8.928999
_cell_length_b 20.428070
_cell_length_c 28.164603
_cell_angle_alpha 90.000000
_cell_angle_beta 90.000000
_cell_angle_gamma 90.000000
_cell_volume 5137.286017
_symmetry_space_group_name_H-M "C M C A"
_symmetry_group_IT_number 64
_symmetry_cell_setting 'orthorhombic'
loop_
_space_group_symop_operation_xyz
x,y,z
-x,1/2-y,1/2+z
x,-y,-z
-x,1/2+y,1/2-z
-x,-y,-z
x,1/2+y,1/2-z
-x,y,z
x,1/2-y,1/2+z
1/2+x,1/2+y,z
1/2-x,-y,1/2+z
1/2+x,1/2-y,-z
1/2-x,y,1/2-z
1/2-x,1/2-y,-z
1/2+x,y,1/2-z
1/2-x,1/2+y,z
1/2+x,-y,1/2+z
loop_
_atom_site_type_symbol
_atom_site_label
_atom_site_fract_x
_atom_site_fract_y
_atom_site_fract_z
Si Si1 0.177516 0.332716 0.543716
Si Si2 0.177928 0.191704 0.936292
Si Si3 0.820636 0.156307 0.660981
Si Si4 0.821353 0.596410 0.126056
Si Si5 0.177963 0.211941 0.299190
Si Si6 0.319772 0.014215 0.800371
O O1 0.204789 0.341268 0.487540
O O2 0.261669 0.265940 0.558834
O O3 0.237105 0.390345 0.577023
O O4 0.000000 0.323338 0.550451
O O5 0.261062 0.157503 0.892871
O O6 0.000000 0.193727 0.927171
O O7 0.748466 0.218714 0.686606
O O8 0.779206 0.088664 0.686597
O O9 0.000000 0.162481 0.661359
O O10 0.793268 0.659284 0.159658
O O11 0.773908 0.533746 0.156825
O O12 0.000000 0.592449 0.117488
O O13 0.250000 0.189211 0.250000
O O14 0.000000 0.218642 0.293710
O O15 0.500000 0.009664 0.796650
O O16 0.250000 0.995286 0.750000
#
# Coordination Sequence:
#
# PCOD9478526 Si02
#       6
#    16  16  16  16  16  16
#     4  10  20  34  57  87 116 148 188 232 284 341
#     4  10  20  35  56  85 118 150 186 232 286 341
#     4  11  22  37  58  84 114 149 193 237 282 339
#     4  10  21  38  58  82 114 150 190 234 283 338
#     4  11  22  35  55  82 111 144 186 237 288 337
#     4  10  23  41  59  82 113 154 195 233 283 339
#
# _framework density 18.686910000000001
#
# number of rings (size 3 to 8) (size 9 to 14) (size 15 to 20)
#    0.000    1.667    1.667    3.000    0.000    6.000 
#    0.000    0.833    0.000    5.000    0.000    0.000 
#    0.000    0.000    0.000    0.000    0.000    0.000 
#
# Total GULP energy -268211.400238 kJ/mol
# GULP energy per Si atom -5587.737505 kJ/mol
# Density = 1.864438 g / cm^3
# Si number density = 18.686910 Si / 1000 Ang^3
#
#
#
# Elastic Constant Matrix: (Units=GPa)
#
#
# Indices 1 2 3 4 5 6 
#
# 1 27.8963 8.7942 15.2236 0.0000 0.0000 0.0000
# 2 8.7942 37.1910 -13.4868 0.0000 0.0000 0.0000
# 3 15.2236 -13.4868 62.0467 0.0000 0.0000 0.0000
# 4 0.0000 0.0000 0.0000 26.7514 0.0000 0.0000
# 5 0.0000 0.0000 0.0000 0.0000 34.3954 0.0000
# 6 0.0000 0.0000 0.0000 0.0000 0.0000 21.7189
#
#
#
# Elastic Compliance Matrix: (Units=1/GPa)
#
#
# Indices 1 2 3 4 5 6 
#
# 1 0.050289 -0.017766 -0.016200 0.000000 0.000000 0.000000
# 2 -0.017766 0.035465 0.012068 0.000000 0.000000 0.000000
# 3 -0.016200 0.012068 0.022715 0.000000 0.000000 0.000000
# 4 0.000000 0.000000 0.000000 0.037381 0.000000 0.000000
# 5 0.000000 0.000000 0.000000 0.000000 0.029074 0.000000
# 6 0.000000 0.000000 0.000000 0.000000 0.000000 0.046043
#
#
# Mechanical properties :
#
#
# Convention : Reuss Voigt Hill
#
# Bulk Modulus (GPa) = 15.46264 16.46623 15.96443
# Shear Modulus (GPa) = 17.46292 24.34668 20.90480
#
# Velocity S-wave (km/s) = 3.06028 3.61345 3.34831
# Velocity P-wave (km/s) = 4.55846 5.12251 4.84870
#
# Compressibility (1/GPa) = 0.06467202
#
# Stress axis : x y z
#
# Youngs Moduli (GPa) = 19.88525 28.19646 44.02394
#
# Poissons Ratio (x) = 0.50094 0.71320
# Poissons Ratio (y) = 0.35328 -0.53128
# Poissons Ratio (z) = 0.32215 -0.34027
#
# Static dielectric constant tensor:
#      x y z
#    x 1.622880 0.000000 0.000000 
#    y 0.000000 1.633350 0.000000 
#    z 0.000000 0.000000 1.652320 
# 
# From -- ./inp_files/48160.got.cif
#   From: 2010.05.17/outbox.cif.g08.bks.cpg/sg64_25_cif.got.tgz:48160.got - 2010.06.03 16:29:19.
