data_PCOD9478049
_publ_section_title
;
Structure prediction by ZEFSAII (Michael W. Deem and Ramdas Pophale) SiO2 
 PCOD9478049
Probable space group: C M C A
;
_chemical_formula_sum "Si O2"
_cell_formula_units_Z 88
_cell_length_a 7.423665
_cell_length_b 26.701417
_cell_length_c 18.590394
_cell_angle_alpha 90.000000
_cell_angle_beta 90.000000
_cell_angle_gamma 90.000000
_cell_volume 3685.032048
_symmetry_space_group_name_H-M "C M C A"
_symmetry_group_IT_number 64
_symmetry_cell_setting 'orthorhombic'
loop_
_space_group_symop_operation_xyz
x,y,z
-x,1/2-y,1/2+z
x,-y,-z
-x,1/2+y,1/2-z
-x,-y,-z
x,1/2+y,1/2-z
-x,y,z
x,1/2-y,1/2+z
1/2+x,1/2+y,z
1/2-x,-y,1/2+z
1/2+x,1/2-y,-z
1/2-x,y,1/2-z
1/2-x,1/2-y,-z
1/2+x,y,1/2-z
1/2-x,1/2+y,z
1/2+x,-y,1/2+z
loop_
_atom_site_type_symbol
_atom_site_label
_atom_site_fract_x
_atom_site_fract_y
_atom_site_fract_z
Si Si1 0.718085 0.346323 0.073919
Si Si2 0.213792 0.056914 0.834723
Si Si3 0.295108 0.041348 0.418752
Si Si4 0.215162 0.139534 0.334967
Si Si5 0.000000 0.398669 0.991271
Si Si6 0.714618 0.249763 0.165263
O O1 0.500000 0.347775 0.062847
O O2 0.778177 0.392834 0.125663
O O3 0.769184 0.295420 0.114911
O O4 0.839403 0.356326 0.004890
O O5 0.250000 0.057579 0.750000
O O6 0.000000 0.057496 0.843303
O O7 0.274142 0.005683 0.872328
O O8 0.500000 0.033197 0.442854
O O9 0.298553 0.090322 0.368142
O O10 0.158386 0.058437 0.479624
O O11 0.250000 0.137679 0.250000
O O12 0.284318 0.194719 0.355432
O O13 0.000000 0.134533 0.352534
O O14 0.500000 0.246084 0.159331
O O15 0.750000 0.259630 0.250000
#
# Coordination Sequence:
#
# PCOD9478049 Si02
#       6
#    16  16  16  16   8  16
#     4  10  23  43  62  92 128 162 209 258 303 370
#     4  10  23  39  65  97 129 158 198 254 318 370
#     4  11  24  42  62  92 127 164 213 259 302 370
#     4  10  19  36  62  95 124 163 205 259 324 374
#     4  12  26  43  68  86 126 172 218 241 308 372
#     4   9  19  35  63  92 126 159 203 262 321 374
#
# _framework density 23.880390999999999
#
# number of rings (size 3 to 8) (size 9 to 14) (size 15 to 20)
#    0.000    1.818    0.909    2.182    3.818    3.636 
#    0.000    3.636    0.000    0.000    0.000    0.000 
#    0.000    0.000    0.000    0.000    0.000    0.000 
#
# Total GULP energy -245104.015073 kJ/mol
# GULP energy per Si atom -5570.545797 kJ/mol
# Density = 2.382604 g / cm^3
# Si number density = 23.880391 Si / 1000 Ang^3
#
#
#
# Elastic Constant Matrix: (Units=GPa)
#
#
# Indices 1 2 3 4 5 6 
#
# 1 122.0441 22.5804 12.9789 0.0000 0.0000 0.0000
# 2 22.5804 181.6358 52.4094 0.0000 0.0000 0.0000
# 3 12.9789 52.4094 56.7593 0.0000 0.0000 0.0000
# 4 0.0000 0.0000 0.0000 51.0400 0.0000 0.0000
# 5 0.0000 0.0000 0.0000 0.0000 27.0304 0.0000
# 6 0.0000 0.0000 0.0000 0.0000 0.0000 5.2247
#
#
#
# Elastic Compliance Matrix: (Units=1/GPa)
#
#
# Indices 1 2 3 4 5 6 
#
# 1 0.008458 -0.000673 -0.001313 0.000000 0.000000 0.000000
# 2 -0.000673 0.007559 -0.006826 0.000000 0.000000 0.000000
# 3 -0.001313 -0.006826 0.024221 0.000000 0.000000 0.000000
# 4 0.000000 0.000000 0.000000 0.019592 0.000000 0.000000
# 5 0.000000 0.000000 0.000000 0.000000 0.036995 0.000000
# 6 0.000000 0.000000 0.000000 0.000000 0.000000 0.191400
#
#
# Mechanical properties :
#
#
# Convention : Reuss Voigt Hill
#
# Bulk Modulus (GPa) = 44.21807 59.59740 51.90773
# Shear Modulus (GPa) = 15.95478 34.82371 25.38925
#
# Velocity S-wave (km/s) = 2.58759 3.82285 3.26419
# Velocity P-wave (km/s) = 5.24254 6.67056 5.99919
#
# Compressibility (1/GPa) = 0.02261519
#
# Stress axis : x y z
#
# Youngs Moduli (GPa) = 118.23361 132.29993 41.28664
#
# Poissons Ratio (x) = 0.08899 0.05421
# Poissons Ratio (y) = 0.07953 0.28180
# Poissons Ratio (z) = 0.15523 0.90301
#
# Static dielectric constant tensor:
#      x y z
#    x 1.929600 0.000000 0.000000 
#    y 0.000000 1.905110 0.000000 
#    z 0.000000 0.000000 1.969710 
# 
# From -- ./inp_files/36832.got.cif
#   From: 2010.05.17/outbox.cif.g08.bks.cpg/sg64_19_cif.got.tgz:36832.got - 2010.06.03 16:29:19.
