data_PCOD9478871
_publ_section_title
;
Structure prediction by ZEFSAII (Michael W. Deem and Ramdas Pophale) SiO2 
 PCOD9478871
Probable space group: C M C A
;
_chemical_formula_sum "Si O2"
_cell_formula_units_Z 96
_cell_length_a 23.661323
_cell_length_b 14.312005
_cell_length_c 14.337118
_cell_angle_alpha 90.000000
_cell_angle_beta 90.000000
_cell_angle_gamma 90.000000
_cell_volume 4855.135591
_symmetry_space_group_name_H-M "C M C A"
_symmetry_group_IT_number 64
_symmetry_cell_setting 'orthorhombic'
loop_
_space_group_symop_operation_xyz
x,y,z
-x,1/2-y,1/2+z
x,-y,-z
-x,1/2+y,1/2-z
-x,-y,-z
x,1/2+y,1/2-z
-x,y,z
x,1/2-y,1/2+z
1/2+x,1/2+y,z
1/2-x,-y,1/2+z
1/2+x,1/2-y,-z
1/2-x,y,1/2-z
1/2-x,1/2-y,-z
1/2+x,y,1/2-z
1/2-x,1/2+y,z
1/2+x,-y,1/2+z
loop_
_atom_site_type_symbol
_atom_site_label
_atom_site_fract_x
_atom_site_fract_y
_atom_site_fract_z
Si Si1 0.000000 0.359502 0.071166
Si Si2 0.309151 0.431024 0.303359
Si Si3 0.381339 0.731660 0.620048
Si Si4 0.183668 0.223962 0.423479
Si Si5 0.619059 0.887636 0.764278
Si Si6 0.262833 0.593347 0.971870
Si Si7 0.000000 0.426140 0.860785
O O1 0.944232 0.307465 0.106922
O O2 0.000000 0.465056 0.110105
O O3 0.000000 0.368879 0.958411
O O4 0.250000 0.425551 0.250000
O O5 0.345953 0.337507 0.312565
O O6 0.346364 0.515814 0.265045
O O7 0.289034 0.446800 0.410511
O O8 0.352315 0.727528 0.518775
O O9 0.380657 0.833363 0.666526
O O10 0.149428 0.179127 0.340006
O O11 0.237506 0.156814 0.444944
O O12 0.204325 0.330014 0.410614
O O13 0.556004 0.904841 0.801874
O O14 0.295828 0.500000 0.000000
#
# Coordination Sequence:
#
# PCOD9478871 Si02
#       7
#     8  16  16  16  16  16   8
#     4  11  21  42  70  98 119 161 218 280 318 383
#     4  11  24  38  61  93 127 170 211 259 316 390
#     4  11  24  40  65  92 132 164 213 268 325 379
#     4  10  22  38  60  93 119 171 213 255 321 377
#     4  12  23  41  64  92 126 167 211 270 324 381
#     4  10  20  36  58  84 128 166 209 253 304 378
#     4  11  23  40  74  92 119 163 222 274 332 363
#
# _framework density 19.772877999999999
#
# number of rings (size 3 to 8) (size 9 to 14) (size 15 to 20)
#    0.000    1.167    5.000    1.500    2.333    2.000 
#    0.000    0.000    0.000    0.000    0.000    3.500 
#    0.000    0.000    0.000    0.000    0.000    0.000 
#
# Total GULP energy -268103.196988 kJ/mol
# GULP energy per Si atom -5585.483271 kJ/mol
# Density = 1.972787 g / cm^3
# Si number density = 19.772878 Si / 1000 Ang^3
#
#
#
# Elastic Constant Matrix: (Units=GPa)
#
#
# Indices 1 2 3 4 5 6 
#
# 1 110.8152 26.8990 9.8337 0.0000 0.0000 0.0000
# 2 26.8990 108.0903 8.2096 0.0000 0.0000 0.0000
# 3 9.8337 8.2096 50.2736 0.0000 0.0000 0.0000
# 4 0.0000 0.0000 0.0000 32.4263 0.0000 0.0000
# 5 0.0000 0.0000 0.0000 0.0000 29.4740 0.0000
# 6 0.0000 0.0000 0.0000 0.0000 0.0000 34.7559
#
#
#
# Elastic Compliance Matrix: (Units=1/GPa)
#
#
# Indices 1 2 3 4 5 6 
#
# 1 0.009718 -0.002303 -0.001525 0.000000 0.000000 0.000000
# 2 -0.002303 0.009913 -0.001168 0.000000 0.000000 0.000000
# 3 -0.001525 -0.001168 0.020380 0.000000 0.000000 0.000000
# 4 0.000000 0.000000 0.000000 0.030839 0.000000 0.000000
# 5 0.000000 0.000000 0.000000 0.000000 0.033928 0.000000
# 6 0.000000 0.000000 0.000000 0.000000 0.000000 0.028772
#
#
# Mechanical properties :
#
#
# Convention : Reuss Voigt Hill
#
# Bulk Modulus (GPa) = 33.31128 39.89596 36.60362
# Shear Modulus (GPa) = 32.56272 34.28037 33.42155
#
# Velocity S-wave (km/s) = 4.06253 4.16830 4.11575
# Velocity P-wave (km/s) = 6.23611 6.58690 6.41390
#
# Compressibility (1/GPa) = 0.03001986
#
# Stress axis : x y z
#
# Youngs Moduli (GPa) = 102.89878 100.87468 49.06716
#
# Poissons Ratio (x) = 0.23228 0.07482
# Poissons Ratio (y) = 0.23694 0.05733
# Poissons Ratio (z) = 0.15691 0.11787
#
# Static dielectric constant tensor:
#      x y z
#    x 1.679890 0.000000 0.000000 
#    y 0.000000 1.711340 0.000000 
#    z 0.000000 0.000000 1.733650 
# 
# From -- ./inp_files/26373.got.cif
#   From: 2010.05.17/outbox.cif.g08.bks.cpg/sg64_14_cif.got.tgz:26373.got - 2010.06.03 16:29:19.
