data_PCOD9478609
_publ_section_title
;
Structure prediction by ZEFSAII (Michael W. Deem and Ramdas Pophale) SiO2 
 PCOD9478609
Probable space group: C M C A
;
_chemical_formula_sum "Si O2"
_cell_formula_units_Z 112
_cell_length_a 15.584212
_cell_length_b 25.712378
_cell_length_c 10.617355
_cell_angle_alpha 90.000000
_cell_angle_beta 90.000000
_cell_angle_gamma 90.000000
_cell_volume 4254.450060
_symmetry_space_group_name_H-M "C M C A"
_symmetry_group_IT_number 64
_symmetry_cell_setting 'orthorhombic'
loop_
_space_group_symop_operation_xyz
x,y,z
-x,1/2-y,1/2+z
x,-y,-z
-x,1/2+y,1/2-z
-x,-y,-z
x,1/2+y,1/2-z
-x,y,z
x,1/2-y,1/2+z
1/2+x,1/2+y,z
1/2-x,-y,1/2+z
1/2+x,1/2-y,-z
1/2-x,y,1/2-z
1/2-x,1/2-y,-z
1/2+x,y,1/2-z
1/2-x,1/2+y,z
1/2+x,-y,1/2+z
loop_
_atom_site_type_symbol
_atom_site_label
_atom_site_fract_x
_atom_site_fract_y
_atom_site_fract_z
Si Si1 0.397790 0.300625 0.085258
Si Si2 0.851630 0.099599 0.753189
Si Si3 0.093137 0.343591 0.012904
Si Si4 0.226473 0.908396 0.604968
Si Si5 0.400662 0.262314 0.827078
Si Si6 0.404005 0.514190 0.311677
Si Si7 0.907157 0.059220 0.047223
O O1 0.500000 0.291017 0.076820
O O2 0.385243 0.356099 0.152093
O O3 0.364579 0.299770 0.939310
O O4 0.365245 0.257292 0.189931
O O5 0.750000 0.107057 0.750000
O O6 0.896835 0.114169 0.622279
O O7 0.870986 0.038308 0.756517
O O8 0.000000 0.347623 0.950875
O O9 0.172602 0.357271 0.926725
O O10 0.098913 0.290141 0.088459
O O11 0.250000 0.905169 0.750000
O O12 0.312014 0.918372 0.523883
O O13 0.163087 0.958374 0.595521
O O14 0.500000 0.278153 0.803436
O O15 0.500000 0.505763 0.360380
O O16 0.411508 0.555496 0.197851
O O17 0.000000 0.081856 0.004988
O O18 0.907562 0.000000 0.000000
#
# Coordination Sequence:
#
# PCOD9478609 Si02
#       7
#    16  16  16  16  16  16  16
#     4   9  17  35  60  85 115 153 201 252 311 373
#     4  11  22  35  53  84 118 153 193 250 305 366
#     4  10  21  38  60  87 120 157 200 253 313 364
#     4  10  21  35  56  85 115 155 199 248 293 361
#     4   8  16  33  60  87 116 155 197 253 315 376
#     4  10  20  35  55  82 115 152 197 247 299 356
#     4   9  19  34  52  74 108 157 197 235 289 350
#
# _framework density 26.325377
#
# number of rings (size 3 to 8) (size 9 to 14) (size 15 to 20)
#    0.000    2.429    0.000    3.857    4.000    0.571 
#    0.000    6.429    0.000    0.000    0.000    0.000 
#    0.000    0.000    0.000    0.429    0.000    0.000 
#
# Total GULP energy -312605.361594 kJ/mol
# GULP energy per Si atom -5582.238600 kJ/mol
# Density = 2.626546 g / cm^3
# Si number density = 26.325377 Si / 1000 Ang^3
#
#
#
# Elastic Constant Matrix: (Units=GPa)
#
#
# Indices 1 2 3 4 5 6 
#
# 1 162.2367 43.6538 20.7384 0.0000 0.0000 0.0000
# 2 43.6538 77.5490 25.8682 0.0000 0.0000 0.0000
# 3 20.7384 25.8682 97.0149 0.0000 0.0000 0.0000
# 4 0.0000 0.0000 0.0000 51.3227 0.0000 0.0000
# 5 0.0000 0.0000 0.0000 0.0000 14.6839 0.0000
# 6 0.0000 0.0000 0.0000 0.0000 0.0000 -133.4444
#
#
#
# Elastic Compliance Matrix: (Units=1/GPa)
#
#
# Indices 1 2 3 4 5 6 
#
# 1 0.007287 -0.003932 -0.000509 0.000000 0.000000 0.000000
# 2 -0.003932 0.016276 -0.003499 0.000000 0.000000 0.000000
# 3 -0.000509 -0.003499 0.011350 0.000000 0.000000 0.000000
# 4 0.000000 0.000000 0.000000 0.019485 0.000000 0.000000
# 5 0.000000 0.000000 0.000000 0.000000 0.068102 0.000000
# 6 0.000000 0.000000 0.000000 0.000000 0.000000 -0.007494
#
#
# Mechanical properties :
#
#
# Convention : Reuss Voigt Hill
#
# Bulk Modulus (GPa) = 52.54541 57.48016 55.01279
# Shear Modulus (GPa) = 36.43528 2.94846 19.69187
#
# Velocity S-wave (km/s) = 3.72430 1.05945 2.73796
# Velocity P-wave (km/s) = 6.20461 4.83513 5.56218
#
# Compressibility (1/GPa) = 0.01903116
#
# Stress axis : x y z
#
# Youngs Moduli (GPa) = 137.23149 61.44099 88.10890
#
# Poissons Ratio (x) = 0.24159 0.04487
# Poissons Ratio (y) = 0.53961 0.30832
# Poissons Ratio (z) = 0.06988 0.21500
#
# Static dielectric constant tensor:
#      x y z
#    x 2.081850 0.000000 0.000000 
#    y 0.000000 2.082910 0.000000 
#    z 0.000000 0.000000 2.195030 
# 
# From -- ./inp_files/14951.got.cif
#   From: 2010.05.17/outbox.cif.g08.bks.cpg/sg64_8_cif.got.tgz:14951.got - 2010.06.03 16:29:19.
