data_PCOD9478376
_publ_section_title
;
Structure prediction by ZEFSAII (Michael W. Deem and Ramdas Pophale) SiO2 
 PCOD9478376
Probable space group: C M C A
;
_chemical_formula_sum "Si O2"
_cell_formula_units_Z 96
_cell_length_a 23.636207
_cell_length_b 8.652877
_cell_length_c 22.968631
_cell_angle_alpha 90.000000
_cell_angle_beta 90.000000
_cell_angle_gamma 90.000000
_cell_volume 4697.571789
_symmetry_space_group_name_H-M "C M C A"
_symmetry_group_IT_number 64
_symmetry_cell_setting 'orthorhombic'
loop_
_space_group_symop_operation_xyz
x,y,z
-x,1/2-y,1/2+z
x,-y,-z
-x,1/2+y,1/2-z
-x,-y,-z
x,1/2+y,1/2-z
-x,y,z
x,1/2-y,1/2+z
1/2+x,1/2+y,z
1/2-x,-y,1/2+z
1/2+x,1/2-y,-z
1/2-x,y,1/2-z
1/2-x,1/2-y,-z
1/2+x,y,1/2-z
1/2-x,1/2+y,z
1/2+x,-y,1/2+z
loop_
_atom_site_type_symbol
_atom_site_label
_atom_site_fract_x
_atom_site_fract_y
_atom_site_fract_z
Si Si1 0.248674 0.580205 0.357587
Si Si2 0.935117 0.341492 0.331153
Si Si3 0.564574 0.014470 0.792571
Si Si4 0.689076 0.321179 0.481372
Si Si5 0.829649 0.677609 0.842582
Si Si6 0.170001 0.156375 0.912812
O O1 0.199935 0.665899 0.321520
O O2 0.286259 0.457004 0.324176
O O3 0.213900 0.485995 0.407445
O O4 0.293574 0.703318 0.383281
O O5 0.930179 0.454522 0.276032
O O6 0.885780 0.377359 0.376201
O O7 0.000000 0.350928 0.353040
O O8 0.926004 0.164308 0.309258
O O9 0.500000 0.053708 0.808903
O O10 0.609063 0.127336 0.823197
O O11 0.684778 0.500000 0.500000
O O12 0.750000 0.250000 0.500000
O O13 0.674777 0.312757 0.413265
O O14 0.651595 0.214588 0.523696
#
# Coordination Sequence:
#
# PCOD9478376 Si02
#       6
#    16  16  16  16  16  16
#     4  10  20  33  57  80 120 144 181 221 278 326
#     4  10  22  41  61  79 106 146 190 231 271 323
#     4  10  22  41  61  79 106 146 190 231 271 323
#     4  12  18  30  55  81 116 148 179 215 270 335
#     4  11  20  36  55  86 113 147 183 224 272 330
#     4  11  20  36  55  86 113 147 183 224 272 330
#
# _framework density 20.436091000000001
#
# number of rings (size 3 to 8) (size 9 to 14) (size 15 to 20)
#    0.000    1.333    6.667    0.000    2.333    0.000 
#    0.000    5.833    0.000    3.000    0.000    2.333 
#    0.000    0.000    0.000    0.000    0.000    0.000 
#
# Total GULP energy -267894.896078 kJ/mol
# GULP energy per Si atom -5581.143668 kJ/mol
# Density = 2.038958 g / cm^3
# Si number density = 20.436091 Si / 1000 Ang^3
#
#
#
# Elastic Constant Matrix: (Units=GPa)
#
#
# Indices 1 2 3 4 5 6 
#
# 1 101.6894 8.1213 41.6118 0.0000 0.0000 0.0000
# 2 8.1213 53.2192 -9.4484 0.0000 0.0000 0.0000
# 3 41.6118 -9.4484 39.4990 0.0000 0.0000 0.0000
# 4 0.0000 0.0000 0.0000 18.8980 0.0000 0.0000
# 5 0.0000 0.0000 0.0000 0.0000 46.8935 0.0000
# 6 0.0000 0.0000 0.0000 0.0000 0.0000 26.1190
#
#
#
# Elastic Compliance Matrix: (Units=1/GPa)
#
#
# Indices 1 2 3 4 5 6 
#
# 1 0.019440 -0.006895 -0.022129 0.000000 0.000000 0.000000
# 2 -0.006895 0.022069 0.012543 0.000000 0.000000 0.000000
# 3 -0.022129 0.012543 0.051630 0.000000 0.000000 0.000000
# 4 0.000000 0.000000 0.000000 0.052916 0.000000 0.000000
# 5 0.000000 0.000000 0.000000 0.000000 0.021325 0.000000
# 6 0.000000 0.000000 0.000000 0.000000 0.000000 0.038286
#
#
# Mechanical properties :
#
#
# Convention : Reuss Voigt Hill
#
# Bulk Modulus (GPa) = 16.61762 30.55302 23.58532
# Shear Modulus (GPa) = 19.32832 28.65697 23.99265
#
# Velocity S-wave (km/s) = 3.07871 3.74876 3.43013
# Velocity P-wave (km/s) = 4.55929 5.80694 5.22052
#
# Compressibility (1/GPa) = 0.06017710
#
# Stress axis : x y z
#
# Youngs Moduli (GPa) = 51.44057 45.31178 19.36848
#
# Poissons Ratio (x) = 0.31244 0.42861
# Poissons Ratio (y) = 0.35470 -0.24294
# Poissons Ratio (z) = 1.13834 -0.56836
#
# Static dielectric constant tensor:
#      x y z
#    x 1.727570 0.000000 0.000000 
#    y 0.000000 1.802640 0.000000 
#    z 0.000000 0.000000 1.793210 
# 
# From -- ./inp_files/46600.got.cif
#   From: 2010.05.17/outbox.cif.g08.bks.cpg/sg64_24_cif.got.tgz:46600.got - 2010.06.03 16:29:19.
