data_PCOD9478442
_publ_section_title
;
Structure prediction by ZEFSAII (Michael W. Deem and Ramdas Pophale) SiO2 
 PCOD9478442
Probable space group: C M C A
;
_chemical_formula_sum "Si O2"
_cell_formula_units_Z 112
_cell_length_a 33.616614
_cell_length_b 14.928552
_cell_length_c 13.620024
_cell_angle_alpha 90.000000
_cell_angle_beta 90.000000
_cell_angle_gamma 90.000000
_cell_volume 6835.173226
_symmetry_space_group_name_H-M "C M C A"
_symmetry_group_IT_number 64
_symmetry_cell_setting 'orthorhombic'
loop_
_space_group_symop_operation_xyz
x,y,z
-x,1/2-y,1/2+z
x,-y,-z
-x,1/2+y,1/2-z
-x,-y,-z
x,1/2+y,1/2-z
-x,y,z
x,1/2-y,1/2+z
1/2+x,1/2+y,z
1/2-x,-y,1/2+z
1/2+x,1/2-y,-z
1/2-x,y,1/2-z
1/2-x,1/2-y,-z
1/2+x,y,1/2-z
1/2-x,1/2+y,z
1/2+x,-y,1/2+z
loop_
_atom_site_type_symbol
_atom_site_label
_atom_site_fract_x
_atom_site_fract_y
_atom_site_fract_z
Si Si1 0.304272 0.421620 0.579130
Si Si2 0.835580 0.732933 0.511819
Si Si3 0.047026 0.106365 0.987611
Si Si4 0.145607 0.531414 0.266284
Si Si5 0.214919 0.923264 0.918857
Si Si6 0.108312 0.658929 0.681039
Si Si7 0.597826 0.802653 0.650442
O O1 0.303048 0.500000 0.500000
O O2 0.317351 0.329660 0.528946
O O3 0.336141 0.448834 0.660596
O O4 0.259489 0.409654 0.620676
O O5 0.802285 0.664369 0.472897
O O6 0.856617 0.700877 0.612908
O O7 0.869313 0.731198 0.427867
O O8 0.061414 0.162906 0.082834
O O9 0.000000 0.116205 0.973147
O O10 0.072505 0.138798 0.894420
O O11 0.056046 0.000000 0.000000
O O12 0.182764 0.543940 0.340087
O O13 0.125554 0.434404 0.277059
O O14 0.114742 0.608593 0.296760
O O15 0.216773 0.000000 0.000000
O O16 0.094222 0.726155 0.766863
#
# Coordination Sequence:
#
# PCOD9478442 Si02
#       7
#    16  16  16  16  16  16  16
#     4  11  22  35  50  76 112 147 182 235 286 329
#     4  10  20  35  54  78 106 144 196 229 272 340
#     4  10  21  38  62  91 116 144 185 227 275 341
#     4  11  20  35  55  80 106 144 191 234 268 340
#     4  10  20  34  54  73 106 146 189 240 284 312
#     4  11  20  36  61  85 110 150 185 229 282 332
#     4  10  21  35  59  85 109 147 182 226 279 329
#
# _framework density 16.385832000000001
#
# number of rings (size 3 to 8) (size 9 to 14) (size 15 to 20)
#    0.000    1.571    4.286    1.714    0.000    0.571 
#    0.000    0.000    0.000    0.000    0.000    1.000 
#    0.000    0.000    0.000    0.000    0.000    0.000 
#
# Total GULP energy -312356.271139 kJ/mol
# GULP energy per Si atom -5577.790556 kJ/mol
# Density = 1.634854 g / cm^3
# Si number density = 16.385832 Si / 1000 Ang^3
#
#
#
# Elastic Constant Matrix: (Units=GPa)
#
#
# Indices 1 2 3 4 5 6 
#
# 1 75.0155 48.4027 25.7519 0.0000 0.0000 0.0000
# 2 48.4027 128.8995 48.5031 0.0000 0.0000 0.0000
# 3 25.7519 48.5031 76.4139 0.0000 0.0000 0.0000
# 4 0.0000 0.0000 0.0000 34.6413 0.0000 0.0000
# 5 0.0000 0.0000 0.0000 0.0000 19.0686 0.0000
# 6 0.0000 0.0000 0.0000 0.0000 0.0000 -11.1769
#
#
#
# Elastic Compliance Matrix: (Units=1/GPa)
#
#
# Indices 1 2 3 4 5 6 
#
# 1 0.017901 -0.005849 -0.002320 0.000000 0.000000 0.000000
# 2 -0.005849 0.012103 -0.005711 0.000000 0.000000 0.000000
# 3 -0.002320 -0.005711 0.017494 0.000000 0.000000 0.000000
# 4 0.000000 0.000000 0.000000 0.028867 0.000000 0.000000
# 5 0.000000 0.000000 0.000000 0.000000 0.052442 0.000000
# 6 0.000000 0.000000 0.000000 0.000000 0.000000 -0.089470
#
#
# Mechanical properties :
#
#
# Convention : Reuss Voigt Hill
#
# Bulk Modulus (GPa) = 50.66580 58.40493 54.53536
# Shear Modulus (GPa) = 67.86318 19.01801 43.44060
#
# Velocity S-wave (km/s) = 6.44249 3.41051 5.15448
# Velocity P-wave (km/s) = 9.29131 7.15749 8.29332
#
# Compressibility (1/GPa) = 0.01973718
#
# Stress axis : x y z
#
# Youngs Moduli (GPa) = 55.86282 82.62130 57.16307
#
# Poissons Ratio (x) = 0.48324 0.13263
# Poissons Ratio (y) = 0.32674 0.32648
# Poissons Ratio (z) = 0.12961 0.47189
#
# Static dielectric constant tensor:
#      x y z
#    x 1.533940 0.000000 0.000000 
#    y 0.000000 1.556190 0.000000 
#    z 0.000000 0.000000 1.552290 
# 
# From -- ./inp_files/19868.got.cif
#   From: 2010.05.17/outbox.cif.g08.bks.cpg/sg64_10_cif.got.tgz:19868.got - 2010.06.03 16:29:19.
