data_PCOD9478745
_publ_section_title
;
Structure prediction by ZEFSAII (Michael W. Deem and Ramdas Pophale) SiO2 
 PCOD9478745
Probable space group: C M C A
;
_chemical_formula_sum "Si O2"
_cell_formula_units_Z 120
_cell_length_a 23.694502
_cell_length_b 22.790551
_cell_length_c 11.984985
_cell_angle_alpha 90.000000
_cell_angle_beta 90.000000
_cell_angle_gamma 90.000000
_cell_volume 6472.020814
_symmetry_space_group_name_H-M "C M C A"
_symmetry_group_IT_number 64
_symmetry_cell_setting 'orthorhombic'
loop_
_space_group_symop_operation_xyz
x,y,z
-x,1/2-y,1/2+z
x,-y,-z
-x,1/2+y,1/2-z
-x,-y,-z
x,1/2+y,1/2-z
-x,y,z
x,1/2-y,1/2+z
1/2+x,1/2+y,z
1/2-x,-y,1/2+z
1/2+x,1/2-y,-z
1/2-x,y,1/2-z
1/2-x,1/2-y,-z
1/2+x,y,1/2-z
1/2-x,1/2+y,z
1/2+x,-y,1/2+z
loop_
_atom_site_type_symbol
_atom_site_label
_atom_site_fract_x
_atom_site_fract_y
_atom_site_fract_z
Si Si1 0.383308 0.560957 0.935889
Si Si2 0.236728 0.569836 0.488084
Si Si3 0.750000 0.373579 0.750000
Si Si4 0.063969 0.654025 0.419468
Si Si5 0.067493 0.774963 0.130380
Si Si6 0.870567 0.156448 0.304829
Si Si7 0.432159 0.607616 0.725556
Si Si8 0.364751 0.571286 0.509179
O O1 0.320921 0.589780 0.951224
O O2 0.402646 0.560653 0.808459
O O3 0.380978 0.500000 0.000000
O O4 0.430317 0.598799 0.999201
O O5 0.237371 0.500000 0.500000
O O6 0.233808 0.587564 0.357871
O O7 0.298702 0.587842 0.531991
O O8 0.803857 0.336681 0.787064
O O9 0.081066 0.706074 0.503258
O O10 0.102798 0.642800 0.314755
O O11 0.000000 0.663816 0.382509
O O12 0.100418 0.716264 0.157362
O O13 0.079850 0.828794 0.216203
O O14 0.000000 0.765760 0.135977
O O15 0.879098 0.103731 0.392776
O O16 0.500000 0.600831 0.722064
O O17 0.404444 0.597308 0.605486
O O18 0.369494 0.500000 0.500000
#
# Coordination Sequence:
#
# PCOD9478745 Si02
#       8
#    16  16   8  16  16  16  16  16
#     4  10  20  35  61  89 116 157 194 246 302 354
#     4   9  19  35  60  84 118 161 203 242 289 366
#     4  10  20  38  56  90 126 150 198 260 306 360
#     4  10  21  37  59  88 115 150 206 250 291 363
#     4   9  21  41  62  85 111 154 208 251 296 356
#     4  11  22  39  64  86 119 162 198 253 309 362
#     4  10  23  41  59  85 125 157 197 258 303 358
#     4  10  24  40  59  91 123 163 202 243 309 378
#
# _framework density 18.541349
#
# number of rings (size 3 to 8) (size 9 to 14) (size 15 to 20)
#    0.000    2.133    1.333    1.600    3.733    6.133 
#    0.000    3.333    0.000    0.000    0.000    0.000 
#    0.000    0.000    0.000    0.000    0.000    0.000 
#
# Total GULP energy -334361.052977 kJ/mol
# GULP energy per Si atom -5572.684216 kJ/mol
# Density = 1.849915 g / cm^3
# Si number density = 18.541349 Si / 1000 Ang^3
#
#
#
# Elastic Constant Matrix: (Units=GPa)
#
#
# Indices 1 2 3 4 5 6 
#
# 1 79.6095 25.0303 57.1993 0.0000 0.0000 0.0000
# 2 25.0303 65.5897 25.5693 0.0000 0.0000 0.0000
# 3 57.1993 25.5693 107.4381 0.0000 0.0000 0.0000
# 4 0.0000 0.0000 0.0000 16.5157 0.0000 0.0000
# 5 0.0000 0.0000 0.0000 0.0000 39.3455 0.0000
# 6 0.0000 0.0000 0.0000 0.0000 0.0000 26.1910
#
#
#
# Elastic Compliance Matrix: (Units=1/GPa)
#
#
# Indices 1 2 3 4 5 6 
#
# 1 0.021292 -0.004085 -0.010363 0.000000 0.000000 0.000000
# 2 -0.004085 0.017589 -0.002011 0.000000 0.000000 0.000000
# 3 -0.010363 -0.002011 0.015304 0.000000 0.000000 0.000000
# 4 0.000000 0.000000 0.000000 0.060548 0.000000 0.000000
# 5 0.000000 0.000000 0.000000 0.000000 0.025416 0.000000
# 6 0.000000 0.000000 0.000000 0.000000 0.000000 0.038181
#
#
# Mechanical properties :
#
#
# Convention : Reuss Voigt Hill
#
# Bulk Modulus (GPa) = 47.02503 52.02613 49.52558
# Shear Modulus (GPa) = 22.90025 26.06635 24.48330
#
# Velocity S-wave (km/s) = 3.51820 3.75353 3.63777
# Velocity P-wave (km/s) = 6.47464 6.84878 6.66434
#
# Compressibility (1/GPa) = 0.02126527
#
# Stress axis : x y z
#
# Youngs Moduli (GPa) = 46.96633 56.85265 65.34375
#
# Poissons Ratio (x) = 0.23226 0.67718
# Poissons Ratio (y) = 0.19187 0.13141
# Poissons Ratio (z) = 0.48673 0.11434
#
# Static dielectric constant tensor:
#      x y z
#    x 1.668380 0.000000 0.000000 
#    y 0.000000 1.645170 0.000000 
#    z 0.000000 0.000000 1.675960 
# 
# From -- ./inp_files/18573.got.cif
#   From: 2010.05.17/outbox.cif.g08.bks.cpg/sg64_10_cif.got.tgz:18573.got - 2010.06.03 16:29:19.
