data_PCOD9478409
_publ_section_title
;
Structure prediction by ZEFSAII (Michael W. Deem and Ramdas Pophale) SiO2 
 PCOD9478409
Probable space group: C M C A
;
_chemical_formula_sum "Si O2"
_cell_formula_units_Z 88
_cell_length_a 14.495787
_cell_length_b 24.089501
_cell_length_c 12.821747
_cell_angle_alpha 90.000000
_cell_angle_beta 90.000000
_cell_angle_gamma 90.000000
_cell_volume 4477.306297
_symmetry_space_group_name_H-M "C M C A"
_symmetry_group_IT_number 64
_symmetry_cell_setting 'orthorhombic'
loop_
_space_group_symop_operation_xyz
x,y,z
-x,1/2-y,1/2+z
x,-y,-z
-x,1/2+y,1/2-z
-x,-y,-z
x,1/2+y,1/2-z
-x,y,z
x,1/2-y,1/2+z
1/2+x,1/2+y,z
1/2-x,-y,1/2+z
1/2+x,1/2-y,-z
1/2-x,y,1/2-z
1/2-x,1/2-y,-z
1/2+x,y,1/2-z
1/2-x,1/2+y,z
1/2+x,-y,1/2+z
loop_
_atom_site_type_symbol
_atom_site_label
_atom_site_fract_x
_atom_site_fract_y
_atom_site_fract_z
Si Si1 0.389991 0.308868 0.034487
Si Si2 0.653481 0.963089 0.590190
Si Si3 0.109962 0.817722 0.588704
Si Si4 0.250000 0.042438 0.750000
Si Si5 0.731426 0.389853 0.440704
Si Si6 0.394421 0.653579 0.184780
O O1 0.500000 0.321924 0.038756
O O2 0.375802 0.248270 0.081280
O O3 0.325535 0.355768 0.084447
O O4 0.358923 0.310145 0.912334
O O5 0.739521 0.935958 0.526616
O O6 0.607194 0.909272 0.641680
O O7 0.605425 0.000000 0.500000
O O8 0.683468 0.003559 0.682399
O O9 0.160526 0.848621 0.494757
O O10 0.146887 0.839938 0.700368
O O11 0.000000 0.828142 0.580327
O O12 0.300288 0.080384 0.835763
O O13 0.500000 0.671835 0.198505
#
# Coordination Sequence:
#
# PCOD9478409 Si02
#       6
#    16  16  16   8  16  16
#     4   9  19  35  54  78 105 134 173 215 253 303
#     4   9  18  33  53  73  99 138 180 221 259 297
#     4  10  20  34  53  79 110 139 168 207 258 316
#     4  10  20  34  52  78 104 134 174 216 264 308
#     4  10  20  35  55  77 105 137 173 213 258 311
#     4   9  18  33  53  77 104 137 176 213 256 311
#
# _framework density 19.654674
#
# number of rings (size 3 to 8) (size 9 to 14) (size 15 to 20)
#    0.000    2.545    0.000    1.636    0.000    4.000 
#    0.000    6.364    0.000    8.182    0.000    0.000 
#    0.000    0.000    0.000    0.000    0.000    0.000 
#
# Total GULP energy -245190.891116 kJ/mol
# GULP energy per Si atom -5572.520253 kJ/mol
# Density = 1.960994 g / cm^3
# Si number density = 19.654674 Si / 1000 Ang^3
#
#
#
# Elastic Constant Matrix: (Units=GPa)
#
#
# Indices 1 2 3 4 5 6 
#
# 1 49.4583 29.9148 26.7729 0.0000 0.0000 0.0000
# 2 29.9148 97.7934 50.1143 0.0000 0.0000 0.0000
# 3 26.7729 50.1143 113.5670 0.0000 0.0000 0.0000
# 4 0.0000 0.0000 0.0000 34.3010 0.0000 0.0000
# 5 0.0000 0.0000 0.0000 0.0000 13.5544 0.0000
# 6 0.0000 0.0000 0.0000 0.0000 0.0000 13.1489
#
#
#
# Elastic Compliance Matrix: (Units=1/GPa)
#
#
# Indices 1 2 3 4 5 6 
#
# 1 0.025762 -0.006162 -0.003354 0.000000 0.000000 0.000000
# 2 -0.006162 0.014687 -0.005029 0.000000 0.000000 0.000000
# 3 -0.003354 -0.005029 0.011815 0.000000 0.000000 0.000000
# 4 0.000000 0.000000 0.000000 0.029154 0.000000 0.000000
# 5 0.000000 0.000000 0.000000 0.000000 0.073777 0.000000
# 6 0.000000 0.000000 0.000000 0.000000 0.000000 0.076052
#
#
# Mechanical properties :
#
#
# Convention : Reuss Voigt Hill
#
# Bulk Modulus (GPa) = 43.14943 52.71365 47.93154
# Shear Modulus (GPa) = 18.65250 22.46864 20.56057
#
# Velocity S-wave (km/s) = 3.08394 3.38475 3.23784
# Velocity P-wave (km/s) = 5.88917 6.49257 6.19822
#
# Compressibility (1/GPa) = 0.02317528
#
# Stress axis : x y z
#
# Youngs Moduli (GPa) = 38.81749 68.08578 84.63725
#
# Poissons Ratio (x) = 0.41951 0.28389
# Poissons Ratio (y) = 0.23918 0.42561
# Poissons Ratio (z) = 0.13020 0.34238
#
# Static dielectric constant tensor:
#      x y z
#    x 1.707870 0.000000 0.000000 
#    y 0.000000 1.690420 0.000000 
#    z 0.000000 0.000000 1.717230 
# 
# From -- ./inp_files/14576.got.cif
#   From: 2010.05.17/outbox.cif.g08.bks.cpg/sg64_8_cif.got.tgz:14576.got - 2010.06.03 16:29:19.
