data_PCOD9478919
_publ_section_title
;
Structure prediction by ZEFSAII (Michael W. Deem and Ramdas Pophale) SiO2 
 PCOD9478919
Probable space group: C M C A
;
_chemical_formula_sum "Si O2"
_cell_formula_units_Z 88
_cell_length_a 16.768846
_cell_length_b 16.237177
_cell_length_c 13.243637
_cell_angle_alpha 90.000000
_cell_angle_beta 90.000000
_cell_angle_gamma 90.000000
_cell_volume 3605.960538
_symmetry_space_group_name_H-M "C M C A"
_symmetry_group_IT_number 64
_symmetry_cell_setting 'orthorhombic'
loop_
_space_group_symop_operation_xyz
x,y,z
-x,1/2-y,1/2+z
x,-y,-z
-x,1/2+y,1/2-z
-x,-y,-z
x,1/2+y,1/2-z
-x,y,z
x,1/2-y,1/2+z
1/2+x,1/2+y,z
1/2-x,-y,1/2+z
1/2+x,1/2-y,-z
1/2-x,y,1/2-z
1/2-x,1/2-y,-z
1/2+x,y,1/2-z
1/2-x,1/2+y,z
1/2+x,-y,1/2+z
loop_
_atom_site_type_symbol
_atom_site_label
_atom_site_fract_x
_atom_site_fract_y
_atom_site_fract_z
Si Si1 0.912477 0.740197 0.986798
Si Si2 0.407395 0.988243 0.713090
Si Si3 0.910054 0.817896 0.254414
Si Si4 0.250000 0.273906 0.750000
Si Si5 0.306755 0.115607 0.435479
Si Si6 0.635018 0.427853 0.567384
O O1 0.905094 0.699482 0.875071
O O2 0.853193 0.816499 0.999959
O O3 0.000000 0.776979 0.993087
O O4 0.903945 0.661514 0.057952
O O5 0.500000 0.960906 0.710741
O O6 0.362183 0.954465 0.614203
O O7 0.367158 0.954213 0.815886
O O8 0.406411 0.086477 0.725052
O O9 0.828079 0.776972 0.218077
O O10 0.000000 0.787856 0.225254
O O11 0.277516 0.330831 0.840587
O O12 0.223742 0.084087 0.478933
O O13 0.595968 0.500000 0.500000
#
# Coordination Sequence:
#
# PCOD9478919 Si02
#       6
#    16  16  16   8  16  16
#     4  10  21  39  60  85 123 160 199 251 311 366
#     4  11  22  39  63  90 122 159 209 258 303 369
#     4   9  20  35  58  88 119 158 200 248 303 358
#     4  10  20  36  60  82 126 156 196 254 302 368
#     4  11  23  40  59  91 120 162 205 250 314 369
#     4  12  23  38  62  91 123 159 204 254 308 373
#
# _framework density 24.404038
#
# number of rings (size 3 to 8) (size 9 to 14) (size 15 to 20)
#    0.000    1.455    3.636    1.636    2.545    1.455 
#    0.000    0.000    0.000    4.364    0.000    0.000 
#    0.000    0.000    0.000    0.000    0.000    0.000 
#
# Total GULP energy -246152.301969 kJ/mol
# GULP energy per Si atom -5594.370499 kJ/mol
# Density = 2.434849 g / cm^3
# Si number density = 24.404038 Si / 1000 Ang^3
#
#
#
# Elastic Constant Matrix: (Units=GPa)
#
#
# Indices 1 2 3 4 5 6 
#
# 1 148.1526 53.2890 -4.8158 0.0000 0.0000 0.0000
# 2 53.2890 83.1195 16.0421 0.0000 0.0000 0.0000
# 3 -4.8158 16.0421 71.5106 0.0000 0.0000 0.0000
# 4 0.0000 0.0000 0.0000 22.9741 0.0000 0.0000
# 5 0.0000 0.0000 0.0000 0.0000 15.6986 0.0000
# 6 0.0000 0.0000 0.0000 0.0000 0.0000 56.6851
#
#
#
# Elastic Compliance Matrix: (Units=1/GPa)
#
#
# Indices 1 2 3 4 5 6 
#
# 1 0.009037 -0.006179 0.001995 0.000000 0.000000 0.000000
# 2 -0.006179 0.016800 -0.004185 0.000000 0.000000 0.000000
# 3 0.001995 -0.004185 0.015057 0.000000 0.000000 0.000000
# 4 0.000000 0.000000 0.000000 0.043527 0.000000 0.000000
# 5 0.000000 0.000000 0.000000 0.000000 0.063700 0.000000
# 6 0.000000 0.000000 0.000000 0.000000 0.000000 0.017641
#
#
# Mechanical properties :
#
#
# Convention : Reuss Voigt Hill
#
# Bulk Modulus (GPa) = 41.39734 47.97926 44.68830
# Shear Modulus (GPa) = 26.23952 34.95605 30.59778
#
# Velocity S-wave (km/s) = 3.28260 3.78880 3.54475
# Velocity P-wave (km/s) = 5.60066 6.23242 5.92497
#
# Compressibility (1/GPa) = 0.02415614
#
# Stress axis : x y z
#
# Youngs Moduli (GPa) = 110.65531 59.52443 66.41398
#
# Poissons Ratio (x) = 0.36779 -0.13247
# Poissons Ratio (y) = 0.68371 0.27793
# Poissons Ratio (z) = -0.22072 0.24910
#
# Static dielectric constant tensor:
#      x y z
#    x 1.990110 0.000000 0.000000 
#    y 0.000000 1.905350 0.000000 
#    z 0.000000 0.000000 1.999140 
# 
# From -- ./inp_files/32147.got.cif
#   From: 2010.05.17/outbox.cif.g08.bks.cpg/sg64_17_cif.got.tgz:32147.got - 2010.06.03 16:29:19.
