data_PCOD9478399
_publ_section_title
;
Structure prediction by ZEFSAII (Michael W. Deem and Ramdas Pophale) SiO2 
 PCOD9478399
Probable space group: C M C A
;
_chemical_formula_sum "Si O2"
_cell_formula_units_Z 80
_cell_length_a 17.366960
_cell_length_b 24.520468
_cell_length_c 9.098420
_cell_angle_alpha 90.000000
_cell_angle_beta 90.000000
_cell_angle_gamma 90.000000
_cell_volume 3874.525644
_symmetry_space_group_name_H-M "C M C A"
_symmetry_group_IT_number 64
_symmetry_cell_setting 'orthorhombic'
loop_
_space_group_symop_operation_xyz
x,y,z
-x,1/2-y,1/2+z
x,-y,-z
-x,1/2+y,1/2-z
-x,-y,-z
x,1/2+y,1/2-z
-x,y,z
x,1/2-y,1/2+z
1/2+x,1/2+y,z
1/2-x,-y,1/2+z
1/2+x,1/2-y,-z
1/2-x,y,1/2-z
1/2-x,1/2-y,-z
1/2+x,y,1/2-z
1/2-x,1/2+y,z
1/2+x,-y,1/2+z
loop_
_atom_site_type_symbol
_atom_site_label
_atom_site_fract_x
_atom_site_fract_y
_atom_site_fract_z
Si Si1 0.219756 0.603830 0.407508
Si Si2 0.675499 0.271017 0.915374
Si Si3 0.586217 0.706728 0.817093
Si Si4 0.184998 0.454205 0.125378
Si Si5 0.087474 0.421906 0.380693
O O1 0.250000 0.583172 0.250000
O O2 0.191818 0.665604 0.380321
O O3 0.287608 0.598595 0.529745
O O4 0.148763 0.571508 0.485659
O O5 0.652102 0.233136 0.781563
O O6 0.750000 0.250000 0.000000
O O7 0.602252 0.269522 0.022424
O O8 0.500000 0.719134 0.766369
O O9 0.594371 0.641885 0.835506
O O10 0.250000 0.461506 0.250000
O O11 0.110374 0.451233 0.228494
O O12 0.182182 0.500000 0.000000
O O13 0.000000 0.433486 0.425631
#
# Coordination Sequence:
#
# PCOD9478399 Si02
#       5
#    16  16  16  16  16
#     4  10  20  35  55  80 109 145 186 229 275 327
#     4  11  20  32  51  77 106 141 186 229 264 314
#     4  10  20  34  51  75 111 149 182 220 273 325
#     4  10  20  36  60  83 109 145 186 230 279 332
#     4   9  20  37  56  81 114 148 182 227 279 329
#
# _framework density 20.647689
#
# number of rings (size 3 to 8) (size 9 to 14) (size 15 to 20)
#    0.000    2.000    0.000    4.200    0.000    4.400 
#    0.000    1.000    0.000   20.400    0.000    0.000 
#    0.000    0.000    0.000    0.000    0.000    0.000 
#
# Total GULP energy -223026.338230 kJ/mol
# GULP energy per Si atom -5575.658456 kJ/mol
# Density = 2.060069 g / cm^3
# Si number density = 20.647689 Si / 1000 Ang^3
#
#
#
# Elastic Constant Matrix: (Units=GPa)
#
#
# Indices 1 2 3 4 5 6 
#
# 1 88.5513 9.7668 58.0387 0.0000 0.0000 0.0000
# 2 9.7668 37.9232 27.5036 0.0000 0.0000 0.0000
# 3 58.0387 27.5036 150.8971 0.0000 0.0000 0.0000
# 4 0.0000 0.0000 0.0000 22.8007 0.0000 0.0000
# 5 0.0000 0.0000 0.0000 0.0000 38.7066 0.0000
# 6 0.0000 0.0000 0.0000 0.0000 0.0000 2.3467
#
#
#
# Elastic Compliance Matrix: (Units=1/GPa)
#
#
# Indices 1 2 3 4 5 6 
#
# 1 0.015104 0.000373 -0.005877 0.000000 0.000000 0.000000
# 2 0.000373 0.030395 -0.005683 0.000000 0.000000 0.000000
# 3 -0.005877 -0.005683 0.009923 0.000000 0.000000 0.000000
# 4 0.000000 0.000000 0.000000 0.043858 0.000000 0.000000
# 5 0.000000 0.000000 0.000000 0.000000 0.025835 0.000000
# 6 0.000000 0.000000 0.000000 0.000000 0.000000 0.426136
#
#
# Mechanical properties :
#
#
# Convention : Reuss Voigt Hill
#
# Bulk Modulus (GPa) = 30.26053 51.99885 41.12969
# Shear Modulus (GPa) = 8.55222 24.90828 16.73025
#
# Velocity S-wave (km/s) = 2.03739 3.47702 2.84962
# Velocity P-wave (km/s) = 4.49690 6.43102 5.54888
#
# Compressibility (1/GPa) = 0.03304635
#
# Stress axis : x y z
#
# Youngs Moduli (GPa) = 66.20815 32.90018 100.77148
#
# Poissons Ratio (x) = -0.01226 0.59226
# Poissons Ratio (y) = -0.02467 0.57272
# Poissons Ratio (z) = 0.38912 0.18698
#
# Static dielectric constant tensor:
#      x y z
#    x 1.747550 0.000000 0.000000 
#    y 0.000000 1.776720 0.000000 
#    z 0.000000 0.000000 1.851660 
# 
# From -- ./inp_files/7101.got.cif
#   From: 2010.05.17/outbox.cif.g08.bks.cpg/sg64_4_cif.got.tgz:7101.got - 2010.06.03 16:29:19.
