data_PCOD9478369
_publ_section_title
;
Structure prediction by ZEFSAII (Michael W. Deem and Ramdas Pophale) SiO2 
 PCOD9478369
Probable space group: C M C A
;
_chemical_formula_sum "Si O2"
_cell_formula_units_Z 52
_cell_length_a 7.767559
_cell_length_b 19.015796
_cell_length_c 13.595649
_cell_angle_alpha 90.000000
_cell_angle_beta 90.000000
_cell_angle_gamma 90.000000
_cell_volume 2008.163246
_symmetry_space_group_name_H-M "C M C A"
_symmetry_group_IT_number 64
_symmetry_cell_setting 'orthorhombic'
loop_
_space_group_symop_operation_xyz
x,y,z
-x,1/2-y,1/2+z
x,-y,-z
-x,1/2+y,1/2-z
-x,-y,-z
x,1/2+y,1/2-z
-x,y,z
x,1/2-y,1/2+z
1/2+x,1/2+y,z
1/2-x,-y,1/2+z
1/2+x,1/2-y,-z
1/2-x,y,1/2-z
1/2-x,1/2-y,-z
1/2+x,y,1/2-z
1/2-x,1/2+y,z
1/2+x,-y,1/2+z
loop_
_atom_site_type_symbol
_atom_site_label
_atom_site_fract_x
_atom_site_fract_y
_atom_site_fract_z
Si Si1 0.000000 0.000000 0.000000
Si Si2 0.308752 0.002258 0.139079
Si Si3 0.205830 0.211344 0.142038
Si Si4 0.299939 0.857995 0.437152
O O1 0.154397 0.029855 0.073296
O O2 0.500000 0.030423 0.121214
O O3 0.250000 0.010572 0.250000
O O4 0.308052 0.919078 0.112757
O O5 0.250000 0.182341 0.250000
O O6 0.291772 0.287802 0.128568
O O7 0.000000 0.219309 0.134427
O O8 0.258738 0.168182 0.044736
O O9 0.500000 0.886622 0.438288
#
# Coordination Sequence:
#
# PCOD9478369 Si02
#       4
#     4  16  16  16
#     4  12  26  48  72 104 132 168 226 292 344 406
#     4  12  24  45  75 100 134 173 225 284 345 407
#     4  10  20  33  55  87 132 171 214 261 323 390
#     4  10  20  37  60  90 127 172 219 270 319 399
#
# _framework density 25.894307999999999
#
# number of rings (size 3 to 8) (size 9 to 14) (size 15 to 20)
#    0.000    1.231    3.077    3.231    0.000    3.692 
#    0.000    1.538    0.000    0.000    0.000    0.000 
#    0.000    0.000    0.000    0.000    0.000    0.000 
#
# Total GULP energy -145365.217580 kJ/mol
# GULP energy per Si atom -5590.969907 kJ/mol
# Density = 2.583537 g / cm^3
# Si number density = 25.894308 Si / 1000 Ang^3
#
#
#
# Elastic Constant Matrix: (Units=GPa)
#
#
# Indices 1 2 3 4 5 6 
#
# 1 226.4339 23.5613 50.0219 0.0000 0.0000 0.0000
# 2 23.5613 95.0763 2.0427 0.0000 0.0000 0.0000
# 3 50.0219 2.0427 178.1371 0.0000 0.0000 0.0000
# 4 0.0000 0.0000 0.0000 21.7171 0.0000 0.0000
# 5 0.0000 0.0000 0.0000 0.0000 42.8771 0.0000
# 6 0.0000 0.0000 0.0000 0.0000 0.0000 39.6922
#
#
#
# Elastic Compliance Matrix: (Units=1/GPa)
#
#
# Indices 1 2 3 4 5 6 
#
# 1 0.004835 -0.001169 -0.001344 0.000000 0.000000 0.000000
# 2 -0.001169 0.010803 0.000204 0.000000 0.000000 0.000000
# 3 -0.001344 0.000204 0.005989 0.000000 0.000000 0.000000
# 4 0.000000 0.000000 0.000000 0.046047 0.000000 0.000000
# 5 0.000000 0.000000 0.000000 0.000000 0.023322 0.000000
# 6 0.000000 0.000000 0.000000 0.000000 0.000000 0.025194
#
#
# Mechanical properties :
#
#
# Convention : Reuss Voigt Hill
#
# Bulk Modulus (GPa) = 58.79318 72.32214 65.55766
# Shear Modulus (GPa) = 39.53262 49.12536 44.32899
#
# Velocity S-wave (km/s) = 3.91153 4.36035 4.14202
# Velocity P-wave (km/s) = 6.56920 7.30347 6.94604
#
# Compressibility (1/GPa) = 0.01700877
#
# Stress axis : x y z
#
# Youngs Moduli (GPa) = 206.82808 92.56477 166.97869
#
# Poissons Ratio (x) = 0.10823 0.22446
# Poissons Ratio (y) = 0.24184 -0.03414
# Poissons Ratio (z) = 0.27803 -0.01893
#
# Static dielectric constant tensor:
#      x y z
#    x 1.948710 0.000000 0.000000 
#    y 0.000000 1.946360 0.000000 
#    z 0.000000 0.000000 1.942760 
# 
# From -- ./inp_files/11873.got.cif
#   From: 2010.05.17/outbox.cif.g08.bks.cpg/sg64_6_cif.got.tgz:11873.got - 2010.06.03 16:29:19.
