data_PCOD9478794
_publ_section_title
;
Structure prediction by ZEFSAII (Michael W. Deem and Ramdas Pophale) SiO2 
 PCOD9478794
Probable space group: C M C A
;
_chemical_formula_sum "Si O2"
_cell_formula_units_Z 116
_cell_length_a 7.765932
_cell_length_b 24.848708
_cell_length_c 30.629841
_cell_angle_alpha 90.000000
_cell_angle_beta 90.000000
_cell_angle_gamma 90.000000
_cell_volume 5910.743843
_symmetry_space_group_name_H-M "C M C A"
_symmetry_group_IT_number 64
_symmetry_cell_setting 'orthorhombic'
loop_
_space_group_symop_operation_xyz
x,y,z
-x,1/2-y,1/2+z
x,-y,-z
-x,1/2+y,1/2-z
-x,-y,-z
x,1/2+y,1/2-z
-x,y,z
x,1/2-y,1/2+z
1/2+x,1/2+y,z
1/2-x,-y,1/2+z
1/2+x,1/2-y,-z
1/2-x,y,1/2-z
1/2-x,1/2-y,-z
1/2+x,y,1/2-z
1/2-x,1/2+y,z
1/2+x,-y,1/2+z
loop_
_atom_site_type_symbol
_atom_site_label
_atom_site_fract_x
_atom_site_fract_y
_atom_site_fract_z
Si Si1 0.797434 0.421400 0.105335
Si Si2 0.199488 0.211473 0.051605
Si Si3 0.200514 0.630533 0.121065
Si Si4 0.297325 0.029564 0.056634
Si Si5 0.293210 0.067556 0.201527
Si Si6 0.500000 0.000000 0.500000
Si Si7 0.697314 0.330716 0.037957
Si Si8 0.792946 0.443736 0.200705
O O1 0.730768 0.475072 0.080967
O O2 0.777018 0.370990 0.073160
O O3 0.732123 0.415586 0.155449
O O4 0.000000 0.432233 0.109636
O O5 0.211031 0.178729 0.095904
O O6 0.290341 0.268937 0.054012
O O7 0.000000 0.222580 0.040860
O O8 0.271028 0.175154 0.011356
O O9 0.207201 0.578083 0.090453
O O10 0.275056 0.609505 0.166439
O O11 0.000000 0.645726 0.126525
O O12 0.500000 0.023718 0.043696
O O13 0.156345 0.038907 0.019382
O O14 0.500000 0.064980 0.195368
O O15 0.250000 0.084937 0.250000
O O16 0.230662 0.005901 0.196723
O O17 0.500000 0.348067 0.034717
O O18 0.750000 0.424306 0.250000
O O19 0.000000 0.443798 0.200092
#
# Coordination Sequence:
#
# PCOD9478794 Si02
#       8
#    16  16  16  16  16   4  16  16
#     4  10  20  36  56  78 113 150 185 228 283 337
#     4  10  22  38  57  80 107 141 188 236 279 330
#     4  10  20  36  56  78 113 150 185 228 283 337
#     4  10  23  39  54  79 117 157 189 233 285 337
#     4   9  17  32  52  78 110 146 183 223 274 335
#     4  12  26  36  52  78 120 152 206 224 280 348
#     4  10  22  38  57  80 107 141 188 236 279 330
#     4   9  17  32  52  78 110 146 183 223 274 335
#
# _framework density 19.62528
#
# number of rings (size 3 to 8) (size 9 to 14) (size 15 to 20)
#    0.000    2.207    1.379    1.034    3.862    2.759 
#    0.000    0.000    0.000    0.828    0.000    5.793 
#    0.000    0.000    0.000    0.000    0.000    0.000 
#
# Total GULP energy -322885.114106 kJ/mol
# GULP energy per Si atom -5566.984726 kJ/mol
# Density = 1.958061 g / cm^3
# Si number density = 19.625280 Si / 1000 Ang^3
#
#
#
# Elastic Constant Matrix: (Units=GPa)
#
#
# Indices 1 2 3 4 5 6 
#
# 1 59.5154 -2.2437 7.2147 0.0000 0.0000 0.0000
# 2 -2.2437 53.4148 27.5673 0.0000 0.0000 0.0000
# 3 7.2147 27.5673 81.7059 0.0000 0.0000 0.0000
# 4 0.0000 0.0000 0.0000 20.9461 0.0000 0.0000
# 5 0.0000 0.0000 0.0000 0.0000 18.1927 0.0000
# 6 0.0000 0.0000 0.0000 0.0000 0.0000 22.7772
#
#
#
# Elastic Compliance Matrix: (Units=1/GPa)
#
#
# Indices 1 2 3 4 5 6 
#
# 1 0.017128 0.001816 -0.002125 0.000000 0.000000 0.000000
# 2 0.001816 0.022861 -0.007874 0.000000 0.000000 0.000000
# 3 -0.002125 -0.007874 0.015083 0.000000 0.000000 0.000000
# 4 0.000000 0.000000 0.000000 0.047741 0.000000 0.000000
# 5 0.000000 0.000000 0.000000 0.000000 0.054967 0.000000
# 6 0.000000 0.000000 0.000000 0.000000 0.000000 0.043904
#
#
# Mechanical properties :
#
#
# Convention : Reuss Voigt Hill
#
# Bulk Modulus (GPa) = 25.83461 28.85694 27.34578
# Shear Modulus (GPa) = 21.64941 23.18972 22.41957
#
# Velocity S-wave (km/s) = 3.32496 3.44121 3.38358
# Velocity P-wave (km/s) = 5.28517 5.52495 5.40639
#
# Compressibility (1/GPa) = 0.03870776
#
# Stress axis : x y z
#
# Youngs Moduli (GPa) = 58.38230 43.74203 66.29875
#
# Poissons Ratio (x) = -0.07945 0.14090
# Poissons Ratio (y) = -0.10604 0.52202
# Poissons Ratio (z) = 0.12408 0.34441
#
# Static dielectric constant tensor:
#      x y z
#    x 1.725320 0.000000 0.000000 
#    y 0.000000 1.674740 0.000000 
#    z 0.000000 0.000000 1.759300 
# 
# From -- ./inp_files/52274.got.cif
#   From: 2010.05.17/outbox.cif.g08.bks.cpg/sg64_27_cif.got.tgz:52274.got - 2010.06.03 16:29:19.
