data_PCOD9478664
_publ_section_title
;
Structure prediction by ZEFSAII (Michael W. Deem and Ramdas Pophale) SiO2 
 PCOD9478664
Probable space group: C M C A
;
_chemical_formula_sum "Si O2"
_cell_formula_units_Z 96
_cell_length_a 8.839755
_cell_length_b 19.583811
_cell_length_c 31.017220
_cell_angle_alpha 90.000000
_cell_angle_beta 90.000000
_cell_angle_gamma 90.000000
_cell_volume 5369.579886
_symmetry_space_group_name_H-M "C M C A"
_symmetry_group_IT_number 64
_symmetry_cell_setting 'orthorhombic'
loop_
_space_group_symop_operation_xyz
x,y,z
-x,1/2-y,1/2+z
x,-y,-z
-x,1/2+y,1/2-z
-x,-y,-z
x,1/2+y,1/2-z
-x,y,z
x,1/2-y,1/2+z
1/2+x,1/2+y,z
1/2-x,-y,1/2+z
1/2+x,1/2-y,-z
1/2-x,y,1/2-z
1/2-x,1/2-y,-z
1/2+x,y,1/2-z
1/2-x,1/2+y,z
1/2+x,-y,1/2+z
loop_
_atom_site_type_symbol
_atom_site_label
_atom_site_fract_x
_atom_site_fract_y
_atom_site_fract_z
Si Si1 0.179598 0.576962 0.982627
Si Si2 0.680826 0.256022 0.368463
Si Si3 0.180656 0.638477 0.435093
Si Si4 0.179941 0.842715 0.702736
Si Si5 0.820204 0.461044 0.863737
Si Si6 0.180160 0.098644 0.888680
O O1 0.263479 0.587985 0.937699
O O2 0.000000 0.585389 0.976352
O O3 0.206508 0.500000 0.000000
O O4 0.240219 0.628085 0.019163
O O5 0.500000 0.262577 0.365119
O O6 0.713747 0.209580 0.410769
O O7 0.744336 0.213949 0.327897
O O8 0.757306 0.329167 0.372600
O O9 0.243550 0.579881 0.403189
O O10 0.000000 0.631399 0.439412
O O11 0.250000 0.842237 0.750000
O O12 0.205435 0.914928 0.678458
O O13 0.000000 0.831253 0.704547
O O14 0.749777 0.535770 0.861964
O O15 0.000000 0.465229 0.871872
O O16 0.000000 0.096860 0.886876
#
# Coordination Sequence:
#
# PCOD9478664 Si02
#       6
#    16  16  16  16  16  16
#     4  11  22  35  55  81 113 155 198 241 288 339
#     4  10  22  40  60  84 118 154 191 236 291 346
#     4  10  20  35  57  83 110 149 196 241 283 333
#     4  10  21  39  65  92 117 147 186 229 280 343
#     4  10  20  36  58  84 115 149 186 232 284 338
#     4  12  24  37  57  84 116 153 195 241 289 341
#
# _framework density 17.878492999999999
#
# number of rings (size 3 to 8) (size 9 to 14) (size 15 to 20)
#    0.000    1.500    1.667    4.000    0.000    5.333 
#    0.000    0.833    0.000    2.000    0.000    0.000 
#    0.000    0.000    0.000    0.000    0.000    0.000 
#
# Total GULP energy -268295.836334 kJ/mol
# GULP energy per Si atom -5589.496590 kJ/mol
# Density = 1.783780 g / cm^3
# Si number density = 17.878493 Si / 1000 Ang^3
#
#
#
# Elastic Constant Matrix: (Units=GPa)
#
#
# Indices 1 2 3 4 5 6 
#
# 1 91.1771 70.2471 38.9065 0.0000 0.0000 0.0000
# 2 70.2471 144.5704 39.8284 0.0000 0.0000 0.0000
# 3 38.9065 39.8284 78.4613 0.0000 0.0000 0.0000
# 4 0.0000 0.0000 0.0000 12.3902 0.0000 0.0000
# 5 0.0000 0.0000 0.0000 0.0000 33.2175 0.0000
# 6 0.0000 0.0000 0.0000 0.0000 0.0000 32.4519
#
#
#
# Elastic Compliance Matrix: (Units=1/GPa)
#
#
# Indices 1 2 3 4 5 6 
#
# 1 0.019463 -0.007904 -0.005639 0.000000 0.000000 0.000000
# 2 -0.007904 0.011251 -0.001792 0.000000 0.000000 0.000000
# 3 -0.005639 -0.001792 0.016451 0.000000 0.000000 0.000000
# 4 0.000000 0.000000 0.000000 0.080709 0.000000 0.000000
# 5 0.000000 0.000000 0.000000 0.000000 0.030105 0.000000
# 6 0.000000 0.000000 0.000000 0.000000 0.000000 0.030815
#
#
# Mechanical properties :
#
#
# Convention : Reuss Voigt Hill
#
# Bulk Modulus (GPa) = 60.62203 68.01921 64.32062
# Shear Modulus (GPa) = 22.22589 26.62704 24.42646
#
# Velocity S-wave (km/s) = 3.52968 3.86338 3.70029
# Velocity P-wave (km/s) = 7.11287 7.61766 7.36959
#
# Compressibility (1/GPa) = 0.01649565
#
# Stress axis : x y z
#
# Youngs Moduli (GPa) = 51.37850 88.87942 60.78600
#
# Poissons Ratio (x) = 0.70248 0.34279
# Poissons Ratio (y) = 0.40608 0.10894
# Poissons Ratio (z) = 0.28973 0.15928
#
# Static dielectric constant tensor:
#      x y z
#    x 1.590970 0.000000 0.000000 
#    y 0.000000 1.606320 0.000000 
#    z 0.000000 0.000000 1.580860 
# 
# From -- ./inp_files/48100.got.cif
#   From: 2010.05.17/outbox.cif.g08.bks.cpg/sg64_25_cif.got.tgz:48100.got - 2010.06.03 16:29:19.
