data_PCOD9478039
_publ_section_title
;
Structure prediction by ZEFSAII (Michael W. Deem and Ramdas Pophale) SiO2 
 PCOD9478039
Probable space group: C M C A
;
_chemical_formula_sum "Si O2"
_cell_formula_units_Z 96
_cell_length_a 19.592790
_cell_length_b 11.479513
_cell_length_c 23.041161
_cell_angle_alpha 90.000000
_cell_angle_beta 90.000000
_cell_angle_gamma 90.000000
_cell_volume 5182.318567
_symmetry_space_group_name_H-M "C M C A"
_symmetry_group_IT_number 64
_symmetry_cell_setting 'orthorhombic'
loop_
_space_group_symop_operation_xyz
x,y,z
-x,1/2-y,1/2+z
x,-y,-z
-x,1/2+y,1/2-z
-x,-y,-z
x,1/2+y,1/2-z
-x,y,z
x,1/2-y,1/2+z
1/2+x,1/2+y,z
1/2-x,-y,1/2+z
1/2+x,1/2-y,-z
1/2-x,y,1/2-z
1/2-x,1/2-y,-z
1/2+x,y,1/2-z
1/2-x,1/2+y,z
1/2+x,-y,1/2+z
loop_
_atom_site_type_symbol
_atom_site_label
_atom_site_fract_x
_atom_site_fract_y
_atom_site_fract_z
Si Si1 0.078334 0.315598 0.838639
Si Si2 0.323404 0.717887 0.627066
Si Si3 0.714755 0.567589 0.058769
Si Si4 0.178241 0.896061 0.157239
Si Si5 0.374235 0.510304 0.432221
Si Si6 0.671581 0.888764 0.732696
O O1 0.118411 0.195877 0.849560
O O2 0.083296 0.398721 0.894583
O O3 0.121646 0.372259 0.786476
O O4 0.000000 0.297086 0.822642
O O5 0.307005 0.800526 0.571500
O O6 0.251634 0.665625 0.650232
O O7 0.369215 0.612399 0.602671
O O8 0.348247 0.800421 0.680045
O O9 0.677910 0.491128 0.106963
O O10 0.796203 0.558382 0.067524
O O11 0.699476 0.500000 0.000000
O O12 0.171497 0.975908 0.213949
O O13 0.394705 0.500000 0.500000
O O14 0.750000 0.861435 0.750000
#
# Coordination Sequence:
#
# PCOD9478039 Si02
#       6
#    16  16  16  16  16  16
#     4  12  26  41  59  86 121 161 201 244 301 364
#     4  10  19  36  61  94 121 149 196 250 304 351
#     4   9  18  32  62  95 119 147 191 253 304 344
#     4  10  21  36  57  87 121 151 195 244 302 356
#     4  10  22  37  60  90 123 158 199 247 303 360
#     4  11  22  38  63  90 117 156 199 250 304 359
#
# _framework density 18.524526999999999
#
# number of rings (size 3 to 8) (size 9 to 14) (size 15 to 20)
#    0.000    1.667    3.333    2.000    7.000    3.000 
#    0.000    0.000    0.000    1.500    0.000    0.000 
#    0.000    0.000    0.000    0.000    0.000    0.000 
#
# Total GULP energy -267729.489717 kJ/mol
# GULP energy per Si atom -5577.697702 kJ/mol
# Density = 1.848236 g / cm^3
# Si number density = 18.524527 Si / 1000 Ang^3
#
#
#
# Elastic Constant Matrix: (Units=GPa)
#
#
# Indices 1 2 3 4 5 6 
#
# 1 65.6990 18.9811 33.1355 0.0000 0.0000 0.0000
# 2 18.9811 82.3284 10.3508 0.0000 0.0000 0.0000
# 3 33.1355 10.3508 59.1834 0.0000 0.0000 0.0000
# 4 0.0000 0.0000 0.0000 20.3629 0.0000 0.0000
# 5 0.0000 0.0000 0.0000 0.0000 18.4748 0.0000
# 6 0.0000 0.0000 0.0000 0.0000 0.0000 -9.3910
#
#
#
# Elastic Compliance Matrix: (Units=1/GPa)
#
#
# Indices 1 2 3 4 5 6 
#
# 1 0.022228 -0.003640 -0.011808 0.000000 0.000000 0.000000
# 2 -0.003640 0.013016 -0.000238 0.000000 0.000000 0.000000
# 3 -0.011808 -0.000238 0.023550 0.000000 0.000000 0.000000
# 4 0.000000 0.000000 0.000000 0.049109 0.000000 0.000000
# 5 0.000000 0.000000 0.000000 0.000000 0.054128 0.000000
# 6 0.000000 0.000000 0.000000 0.000000 0.000000 -0.106485
#
#
# Mechanical properties :
#
#
# Convention : Reuss Voigt Hill
#
# Bulk Modulus (GPa) = 36.47021 36.90508 36.68765
# Shear Modulus (GPa) = 52.05137 15.53890 33.79514
#
# Velocity S-wave (km/s) = 5.30656 2.89940 4.27587
# Velocity P-wave (km/s) = 7.56812 5.58339 6.65021
#
# Compressibility (1/GPa) = 0.02741964
#
# Stress axis : x y z
#
# Youngs Moduli (GPa) = 44.98775 76.83026 42.46355
#
# Poissons Ratio (x) = 0.27968 0.50143
# Poissons Ratio (y) = 0.16376 0.01012
# Poissons Ratio (z) = 0.53124 0.01831
#
# Static dielectric constant tensor:
#      x y z
#    x 1.588620 0.000000 0.000000 
#    y 0.000000 1.722730 0.000000 
#    z 0.000000 0.000000 1.713190 
# 
# From -- ./inp_files/46298.got.cif
#   From: 2010.05.17/outbox.cif.g08.bks.cpg/sg64_24_cif.got.tgz:46298.got - 2010.06.03 16:29:19.
