data_PCOD9478503
_publ_section_title
;
Structure prediction by ZEFSAII (Michael W. Deem and Ramdas Pophale) SiO2 
 PCOD9478503
Probable space group: C M C A
;
_chemical_formula_sum "Si O2"
_cell_formula_units_Z 56
_cell_length_a 9.798846
_cell_length_b 9.363394
_cell_length_c 30.331271
_cell_angle_alpha 90.000000
_cell_angle_beta 90.000000
_cell_angle_gamma 90.000000
_cell_volume 2782.907941
_symmetry_space_group_name_H-M "C M C A"
_symmetry_group_IT_number 64
_symmetry_cell_setting 'orthorhombic'
loop_
_space_group_symop_operation_xyz
x,y,z
-x,1/2-y,1/2+z
x,-y,-z
-x,1/2+y,1/2-z
-x,-y,-z
x,1/2+y,1/2-z
-x,y,z
x,1/2-y,1/2+z
1/2+x,1/2+y,z
1/2-x,-y,1/2+z
1/2+x,1/2-y,-z
1/2-x,y,1/2-z
1/2-x,1/2-y,-z
1/2+x,y,1/2-z
1/2-x,1/2+y,z
1/2+x,-y,1/2+z
loop_
_atom_site_type_symbol
_atom_site_label
_atom_site_fract_x
_atom_site_fract_y
_atom_site_fract_z
Si Si1 0.158539 0.025369 0.093232
Si Si2 0.658610 0.189171 0.960183
Si Si3 0.153241 0.067945 0.189261
Si Si4 0.750000 0.176425 0.750000
O O1 0.258533 0.941473 0.060685
O O2 0.218335 0.021657 0.142975
O O3 0.000000 0.969542 0.090928
O O4 0.154566 0.187589 0.076817
O O5 0.500000 0.158874 0.972457
O O6 0.750000 0.250000 0.000000
O O7 0.156345 0.937223 0.223921
O O8 0.000000 0.099188 0.175952
O O9 0.203036 0.211920 0.212667
#
# Coordination Sequence:
#
# PCOD9478503 Si02
#       4
#    16  16  16   8
#     4  10  22  39  58  83 116 151 188 234 284 335
#     4  11  23  39  60  86 115 149 190 235 285 342
#     4  10  20  36  56  80 112 147 185 230 279 330
#     4  10  20  34  56  84 110 144 188 228 276 332
#
# _framework density 20.122834999999998
#
# number of rings (size 3 to 8) (size 9 to 14) (size 15 to 20)
#    0.000    1.714    0.000    4.286    0.000    5.714 
#    0.000    7.143    0.000    0.000    0.000    0.000 
#    0.000    0.000    0.000    0.000    0.000    0.000 
#
# Total GULP energy -155937.763799 kJ/mol
# GULP energy per Si atom -5569.205850 kJ/mol
# Density = 2.007703 g / cm^3
# Si number density = 20.122835 Si / 1000 Ang^3
#
#
#
# Elastic Constant Matrix: (Units=GPa)
#
#
# Indices 1 2 3 4 5 6 
#
# 1 85.0321 21.1645 14.2181 0.0000 0.0000 0.0000
# 2 21.1645 97.3377 3.1835 0.0000 0.0000 0.0000
# 3 14.2181 3.1835 78.2620 0.0000 0.0000 0.0000
# 4 0.0000 0.0000 0.0000 38.3128 0.0000 0.0000
# 5 0.0000 0.0000 0.0000 0.0000 27.1150 0.0000
# 6 0.0000 0.0000 0.0000 0.0000 0.0000 17.8435
#
#
#
# Elastic Compliance Matrix: (Units=1/GPa)
#
#
# Indices 1 2 3 4 5 6 
#
# 1 0.012806 -0.002712 -0.002216 0.000000 0.000000 0.000000
# 2 -0.002712 0.010862 0.000051 0.000000 0.000000 0.000000
# 3 -0.002216 0.000051 0.013178 0.000000 0.000000 0.000000
# 4 0.000000 0.000000 0.000000 0.026101 0.000000 0.000000
# 5 0.000000 0.000000 0.000000 0.000000 0.036880 0.000000
# 6 0.000000 0.000000 0.000000 0.000000 0.000000 0.056043
#
#
# Mechanical properties :
#
#
# Convention : Reuss Voigt Hill
#
# Bulk Modulus (GPa) = 36.91261 37.52934 37.22097
# Shear Modulus (GPa) = 28.62806 31.45867 30.04336
#
# Velocity S-wave (km/s) = 3.77592 3.95819 3.86813
# Velocity P-wave (km/s) = 6.11502 6.29129 6.20378
#
# Compressibility (1/GPa) = 0.02709102
#
# Stress axis : x y z
#
# Youngs Moduli (GPa) = 78.08950 92.06817 75.88328
#
# Poissons Ratio (x) = 0.24968 0.16817
# Poissons Ratio (y) = 0.21177 -0.00386
# Poissons Ratio (z) = 0.17306 -0.00468
#
# Static dielectric constant tensor:
#      x y z
#    x 1.731800 0.000000 0.000000 
#    y 0.000000 1.687030 0.000000 
#    z 0.000000 0.000000 1.844010 
# 
# From -- ./inp_files/48945.got.cif
#   From: 2010.05.17/outbox.cif.g08.bks.cpg/sg64_25_cif.got.tgz:48945.got - 2010.06.03 16:29:19.
