data_PCOD9478041
_publ_section_title
;
Structure prediction by ZEFSAII (Michael W. Deem and Ramdas Pophale) SiO2 
 PCOD9478041
Probable space group: C M C A
;
_chemical_formula_sum "Si O2"
_cell_formula_units_Z 104
_cell_length_a 25.162373
_cell_length_b 20.381889
_cell_length_c 8.694436
_cell_angle_alpha 90.000000
_cell_angle_beta 90.000000
_cell_angle_gamma 90.000000
_cell_volume 4458.999698
_symmetry_space_group_name_H-M "C M C A"
_symmetry_group_IT_number 64
_symmetry_cell_setting 'orthorhombic'
loop_
_space_group_symop_operation_xyz
x,y,z
-x,1/2-y,1/2+z
x,-y,-z
-x,1/2+y,1/2-z
-x,-y,-z
x,1/2+y,1/2-z
-x,y,z
x,1/2-y,1/2+z
1/2+x,1/2+y,z
1/2-x,-y,1/2+z
1/2+x,1/2-y,-z
1/2-x,y,1/2-z
1/2-x,1/2-y,-z
1/2+x,y,1/2-z
1/2-x,1/2+y,z
1/2+x,-y,1/2+z
loop_
_atom_site_type_symbol
_atom_site_label
_atom_site_fract_x
_atom_site_fract_y
_atom_site_fract_z
Si Si1 0.712827 0.658318 0.883108
Si Si2 0.788238 0.888121 0.621121
Si Si3 0.059677 0.546235 0.214506
Si Si4 0.878442 0.260360 0.234149
Si Si5 0.631927 0.628544 0.105908
Si Si6 0.144789 0.500000 0.000000
Si Si7 0.940017 0.677367 0.011921
O O1 0.750000 0.631230 0.750000
O O2 0.678135 0.716514 0.804443
O O3 0.754267 0.666060 0.027613
O O4 0.669263 0.611321 0.963198
O O5 0.750000 0.920211 0.750000
O O6 0.835961 0.867766 0.732240
O O7 0.815971 0.938391 0.507623
O O8 0.082333 0.581742 0.367115
O O9 0.058003 0.605697 0.089755
O O10 0.000000 0.519693 0.229289
O O11 0.105469 0.499980 0.146765
O O12 0.877338 0.206005 0.097466
O O13 0.917400 0.225715 0.355923
O O14 0.904446 0.320691 0.141418
O O15 0.000000 0.697306 0.971771
#
# Coordination Sequence:
#
# PCOD9478041 Si02
#       7
#    16  16  16  16  16   8  16
#     4  11  24  35  55  83 118 158 201 238 290 347
#     4   9  21  39  56  79 117 157 197 246 296 352
#     4   9  19  36  64  90 115 147 198 255 303 355
#     4  11  21  36  56  84 119 155 196 234 286 353
#     4   9  20  39  54  81 120 155 195 239 287 362
#     4  10  19  36  62  86 114 146 199 250 300 358
#     4  10  21  38  58  86 119 153 191 238 292 352
#
# _framework density 23.323616999999999
#
# number of rings (size 3 to 8) (size 9 to 14) (size 15 to 20)
#    0.000    2.154    1.538    0.692    6.462    4.308 
#    0.000    0.000    0.000    0.000    0.000    1.077 
#    0.000    0.000    0.000    0.000    0.000    0.000 
#
# Total GULP energy -289504.047581 kJ/mol
# GULP energy per Si atom -5567.385530 kJ/mol
# Density = 2.327053 g / cm^3
# Si number density = 23.323617 Si / 1000 Ang^3
#
#
#
# Elastic Constant Matrix: (Units=GPa)
#
#
# Indices 1 2 3 4 5 6 
#
# 1 140.9710 26.6726 43.2402 0.0000 0.0000 0.0000
# 2 26.6726 34.1345 18.0845 0.0000 0.0000 0.0000
# 3 43.2402 18.0845 79.0365 0.0000 0.0000 0.0000
# 4 0.0000 0.0000 0.0000 2.8240 0.0000 0.0000
# 5 0.0000 0.0000 0.0000 0.0000 36.0278 0.0000
# 6 0.0000 0.0000 0.0000 0.0000 0.0000 16.1634
#
#
#
# Elastic Compliance Matrix: (Units=1/GPa)
#
#
# Indices 1 2 3 4 5 6 
#
# 1 0.009265 -0.005183 -0.003883 0.000000 0.000000 0.000000
# 2 -0.005183 0.036236 -0.005456 0.000000 0.000000 0.000000
# 3 -0.003883 -0.005456 0.016025 0.000000 0.000000 0.000000
# 4 0.000000 0.000000 0.000000 0.354108 0.000000 0.000000
# 5 0.000000 0.000000 0.000000 0.000000 0.027756 0.000000
# 6 0.000000 0.000000 0.000000 0.000000 0.000000 0.061868
#
#
# Mechanical properties :
#
#
# Convention : Reuss Voigt Hill
#
# Bulk Modulus (GPa) = 30.78504 47.79294 39.28899
# Shear Modulus (GPa) = 9.17212 22.07936 15.62574
#
# Velocity S-wave (km/s) = 1.98522 3.08011 2.59115
# Velocity P-wave (km/s) = 4.29913 5.76065 5.08270
#
# Compressibility (1/GPa) = 0.03248331
#
# Stress axis : x y z
#
# Youngs Moduli (GPa) = 107.92947 27.59686 62.40177
#
# Poissons Ratio (x) = 0.14302 0.24231
# Poissons Ratio (y) = 0.55935 0.34046
# Poissons Ratio (z) = 0.41910 0.15056
#
# Static dielectric constant tensor:
#      x y z
#    x 1.948000 0.000000 0.000000 
#    y 0.000000 2.045990 0.000000 
#    z 0.000000 0.000000 1.913680 
# 
# From -- ./inp_files/10597.got.cif
#   From: 2010.05.17/outbox.cif.g08.bks.cpg/sg64_6_cif.got.tgz:10597.got - 2010.06.03 16:29:19.
