data_PCOD9478520
_publ_section_title
;
Structure prediction by ZEFSAII (Michael W. Deem and Ramdas Pophale) SiO2 
 PCOD9478520
Probable space group: C M C A
;
_chemical_formula_sum "Si O2"
_cell_formula_units_Z 80
_cell_length_a 16.754626
_cell_length_b 16.992441
_cell_length_c 14.809668
_cell_angle_alpha 90.000000
_cell_angle_beta 90.000000
_cell_angle_gamma 90.000000
_cell_volume 4216.342007
_symmetry_space_group_name_H-M "C M C A"
_symmetry_group_IT_number 64
_symmetry_cell_setting 'orthorhombic'
loop_
_space_group_symop_operation_xyz
x,y,z
-x,1/2-y,1/2+z
x,-y,-z
-x,1/2+y,1/2-z
-x,-y,-z
x,1/2+y,1/2-z
-x,y,z
x,1/2-y,1/2+z
1/2+x,1/2+y,z
1/2-x,-y,1/2+z
1/2+x,1/2-y,-z
1/2-x,y,1/2-z
1/2-x,1/2-y,-z
1/2+x,y,1/2-z
1/2-x,1/2+y,z
1/2+x,-y,1/2+z
loop_
_atom_site_type_symbol
_atom_site_label
_atom_site_fract_x
_atom_site_fract_y
_atom_site_fract_z
Si Si1 0.594337 0.199171 0.159379
Si Si2 0.814671 0.313947 0.468326
Si Si3 0.907108 0.026264 0.395966
Si Si4 0.905509 0.733643 0.364464
Si Si5 0.797520 0.389255 0.156713
O O1 0.500000 0.209236 0.144677
O O2 0.638257 0.271572 0.112893
O O3 0.618309 0.116779 0.114380
O O4 0.608544 0.196062 0.266287
O O5 0.750000 0.250000 0.500000
O O6 0.627883 0.179747 0.445438
O O7 0.766554 0.386145 0.425290
O O8 0.000000 0.020467 0.365661
O O9 0.904713 0.000000 0.500000
O O10 0.849297 0.968093 0.342761
O O11 0.858222 0.816538 0.361330
O O12 0.000000 0.747573 0.376662
O O13 0.750000 0.378157 0.250000
#
# Coordination Sequence:
#
# PCOD9478520 Si02
#       5
#    16  16  16  16  16
#     4  10  20  37  60  85 112 151 200 242 280 338
#     4  10  20  34  57  84 120 145 186 240 289 345
#     4  10  21  39  60  83 112 151 201 243 283 341
#     4  10  20  36  61  85 113 156 196 236 285 342
#     4  11  21  38  54  87 123 150 185 237 299 347
#
# _framework density 18.973793000000001
#
# number of rings (size 3 to 8) (size 9 to 14) (size 15 to 20)
#    0.000    1.800    2.000    3.600    0.000    1.600 
#   10.800    0.000    0.000    0.000    0.000    4.200 
#    0.000    0.000    0.000    0.000    0.000    0.000 
#
# Total GULP energy -223230.795169 kJ/mol
# GULP energy per Si atom -5580.769879 kJ/mol
# Density = 1.893061 g / cm^3
# Si number density = 18.973793 Si / 1000 Ang^3
#
#
#
# Elastic Constant Matrix: (Units=GPa)
#
#
# Indices 1 2 3 4 5 6 
#
# 1 68.3608 16.1995 38.0916 0.0000 0.0000 0.0000
# 2 16.1995 37.6295 -10.2220 0.0000 0.0000 0.0000
# 3 38.0916 -10.2220 77.0319 0.0000 0.0000 0.0000
# 4 0.0000 0.0000 0.0000 12.6789 0.0000 0.0000
# 5 0.0000 0.0000 0.0000 0.0000 38.0274 0.0000
# 6 0.0000 0.0000 0.0000 0.0000 0.0000 8.7253
#
#
#
# Elastic Compliance Matrix: (Units=1/GPa)
#
#
# Indices 1 2 3 4 5 6 
#
# 1 0.026975 -0.015806 -0.015436 0.000000 0.000000 0.000000
# 2 -0.015806 0.036830 0.012703 0.000000 0.000000 0.000000
# 3 -0.015436 0.012703 0.022301 0.000000 0.000000 0.000000
# 4 0.000000 0.000000 0.000000 0.078871 0.000000 0.000000
# 5 0.000000 0.000000 0.000000 0.000000 0.026297 0.000000
# 6 0.000000 0.000000 0.000000 0.000000 0.000000 0.114609
#
#
# Mechanical properties :
#
#
# Convention : Reuss Voigt Hill
#
# Bulk Modulus (GPa) = 20.39673 30.12895 25.26284
# Shear Modulus (GPa) = 13.91577 21.14986 17.53281
#
# Velocity S-wave (km/s) = 2.71111 3.34232 3.04312
# Velocity P-wave (km/s) = 4.53580 5.55054 5.06863
#
# Compressibility (1/GPa) = 0.04902746
#
# Stress axis : x y z
#
# Youngs Moduli (GPa) = 37.07096 27.15156 44.84192
#
# Poissons Ratio (x) = 0.42916 0.69220
# Poissons Ratio (y) = 0.58595 -0.56964
# Poissons Ratio (z) = 0.57225 -0.34492
#
# Static dielectric constant tensor:
#      x y z
#    x 1.698010 0.000000 0.000000 
#    y 0.000000 1.630910 0.000000 
#    z 0.000000 0.000000 1.682200 
# 
# From -- ./inp_files/32065.got.cif
#   From: 2010.05.17/outbox.cif.g08.bks.cpg/sg64_17_cif.got.tgz:32065.got - 2010.06.03 16:29:19.
