data_PCOD9478820
_publ_section_title
;
Structure prediction by ZEFSAII (Michael W. Deem and Ramdas Pophale) SiO2 
 PCOD9478820
Probable space group: C M C A
;
_chemical_formula_sum "Si O2"
_cell_formula_units_Z 72
_cell_length_a 13.704367
_cell_length_b 28.116760
_cell_length_c 6.800799
_cell_angle_alpha 90.000000
_cell_angle_beta 90.000000
_cell_angle_gamma 90.000000
_cell_volume 2620.500178
_symmetry_space_group_name_H-M "C M C A"
_symmetry_group_IT_number 64
_symmetry_cell_setting 'orthorhombic'
loop_
_space_group_symop_operation_xyz
x,y,z
-x,1/2-y,1/2+z
x,-y,-z
-x,1/2+y,1/2-z
-x,-y,-z
x,1/2+y,1/2-z
-x,y,z
x,1/2-y,1/2+z
1/2+x,1/2+y,z
1/2-x,-y,1/2+z
1/2+x,1/2-y,-z
1/2-x,y,1/2-z
1/2-x,1/2-y,-z
1/2+x,y,1/2-z
1/2-x,1/2+y,z
1/2+x,-y,1/2+z
loop_
_atom_site_type_symbol
_atom_site_label
_atom_site_fract_x
_atom_site_fract_y
_atom_site_fract_z
Si Si1 0.610717 0.314582 0.849827
Si Si2 0.674675 0.945674 0.000618
Si Si3 0.887291 0.422109 0.556014
Si Si4 0.888526 0.655986 0.887309
Si Si5 0.750000 0.264707 0.250000
O O1 0.500000 0.296986 0.880183
O O2 0.622781 0.365080 0.957459
O O3 0.620881 0.327879 0.616780
O O4 0.691955 0.274856 0.886261
O O5 0.792122 0.947378 0.033710
O O6 0.635693 0.930838 0.785705
O O7 0.640898 0.899666 0.125191
O O8 0.638872 0.000000 0.000000
O O9 0.000000 0.435810 0.508415
O O10 0.835542 0.695693 0.760626
O O11 0.000000 0.657834 0.835397
#
# Coordination Sequence:
#
# PCOD9478820 Si02
#       5
#    16  16  16  16   8
#     4   9  18  34  55  76 103 144 181 209 257 322
#     4  10  20  36  57  79 105 142 183 224 273 322
#     4   9  19  36  57  80 106 141 187 226 258 317
#     4  10  22  37  52  76 107 139 179 220 265 325
#     4  12  20  32  54  82 112 136 166 222 274 320
#
# _framework density 27.475670000000001
#
# number of rings (size 3 to 8) (size 9 to 14) (size 15 to 20)
#    0.000    2.222    0.000    6.000    0.000    4.000 
#    0.000    4.444    0.000    0.000    0.000    0.000 
#    0.000    0.000    0.000    0.000    0.000    0.000 
#
# Total GULP energy -201153.587516 kJ/mol
# GULP energy per Si atom -5587.599653 kJ/mol
# Density = 2.741313 g / cm^3
# Si number density = 27.475670 Si / 1000 Ang^3
#
#
#
# Elastic Constant Matrix: (Units=GPa)
#
#
# Indices 1 2 3 4 5 6 
#
# 1 208.4308 117.4956 9.7692 0.0000 0.0000 0.0000
# 2 117.4956 235.7576 55.0090 0.0000 0.0000 0.0000
# 3 9.7692 55.0090 85.1607 0.0000 0.0000 0.0000
# 4 0.0000 0.0000 0.0000 30.2976 0.0000 0.0000
# 5 0.0000 0.0000 0.0000 0.0000 40.9680 0.0000
# 6 0.0000 0.0000 0.0000 0.0000 0.0000 -41.8937
#
#
#
# Elastic Compliance Matrix: (Units=1/GPa)
#
#
# Indices 1 2 3 4 5 6 
#
# 1 0.006870 -0.003815 0.001676 0.000000 0.000000 0.000000
# 2 -0.003815 0.007113 -0.004157 0.000000 0.000000 0.000000
# 3 0.001676 -0.004157 0.014235 0.000000 0.000000 0.000000
# 4 0.000000 0.000000 0.000000 0.033006 0.000000 0.000000
# 5 0.000000 0.000000 0.000000 0.000000 0.024409 0.000000
# 6 0.000000 0.000000 0.000000 0.000000 0.000000 -0.023870
#
#
# Mechanical properties :
#
#
# Convention : Reuss Voigt Hill
#
# Bulk Modulus (GPa) = 63.99316 99.32185 81.65750
# Shear Modulus (GPa) = 62.84352 29.01273 45.92813
#
# Velocity S-wave (km/s) = 4.78770 3.25305 4.09295
# Velocity P-wave (km/s) = 7.34195 7.09488 7.21947
#
# Compressibility (1/GPa) = 0.01562667
#
# Stress axis : x y z
#
# Youngs Moduli (GPa) = 145.56886 140.59379 70.24795
#
# Poissons Ratio (x) = 0.53632 -0.11774
# Poissons Ratio (y) = 0.55530 0.29201
# Poissons Ratio (z) = -0.24398 0.58442
#
# Static dielectric constant tensor:
#      x y z
#    x 2.133080 0.000000 0.000000 
#    y 0.000000 2.064370 0.000000 
#    z 0.000000 0.000000 2.192490 
# 
# From -- ./inp_files/5854.got.cif
#   From: 2010.05.17/outbox.cif.g08.bks.cpg/sg64_3_cif.got.tgz:5854.got - 2010.06.03 16:29:19.
