data_PCOD9478149
_publ_section_title
;
Structure prediction by ZEFSAII (Michael W. Deem and Ramdas Pophale) SiO2 
 PCOD9478149
Probable space group: C M C A
;
_chemical_formula_sum "Si O2"
_cell_formula_units_Z 88
_cell_length_a 24.663143
_cell_length_b 15.030964
_cell_length_c 11.690430
_cell_angle_alpha 90.000000
_cell_angle_beta 90.000000
_cell_angle_gamma 90.000000
_cell_volume 4333.768828
_symmetry_space_group_name_H-M "C M C A"
_symmetry_group_IT_number 64
_symmetry_cell_setting 'orthorhombic'
loop_
_space_group_symop_operation_xyz
x,y,z
-x,1/2-y,1/2+z
x,-y,-z
-x,1/2+y,1/2-z
-x,-y,-z
x,1/2+y,1/2-z
-x,y,z
x,1/2-y,1/2+z
1/2+x,1/2+y,z
1/2-x,-y,1/2+z
1/2+x,1/2-y,-z
1/2-x,y,1/2-z
1/2-x,1/2-y,-z
1/2+x,y,1/2-z
1/2-x,1/2+y,z
1/2+x,-y,1/2+z
loop_
_atom_site_type_symbol
_atom_site_label
_atom_site_fract_x
_atom_site_fract_y
_atom_site_fract_z
Si Si1 0.382214 0.896161 0.523717
Si Si2 0.000000 0.744884 0.677956
Si Si3 0.000000 0.394953 0.530659
Si Si4 0.883571 0.688834 0.726851
Si Si5 0.186057 0.860483 0.765702
Si Si6 0.617961 0.511288 0.637752
Si Si7 0.000000 0.046627 0.375130
O O1 0.440799 0.878910 0.584086
O O2 0.382054 0.850234 0.400958
O O3 0.332978 0.869288 0.603390
O O4 0.378671 0.000000 0.500000
O O5 0.000000 0.671282 0.577333
O O6 0.055409 0.725519 0.745356
O O7 0.000000 0.845730 0.628327
O O8 0.000000 0.500000 0.500000
O O9 0.841007 0.768321 0.728233
O O10 0.871438 0.610988 0.817846
O O11 0.250000 0.861629 0.750000
O O12 0.158257 0.941610 0.696902
O O13 0.620829 0.500000 0.500000
O O14 0.556409 0.487323 0.677336
O O15 0.000000 0.000000 0.500000
#
# Coordination Sequence:
#
# PCOD9478149 Si02
#       7
#    16   8   8  16  16  16   8
#     4  10  21  43  68  98 135 171 225 283 340 412
#     4  10  19  38  71 104 139 174 219 277 356 433
#     4   8  18  33  66 104 133 171 217 278 346 403
#     4  11  24  44  71 102 135 178 227 283 355 418
#     4  12  28  45  67  97 134 189 239 281 336 398
#     4  11  25  46  70 102 141 176 225 289 358 422
#     4  10  21  39  70 101 142 176 213 281 368 431
#
# _framework density 20.305651000000001
#
# number of rings (size 3 to 8) (size 9 to 14) (size 15 to 20)
#    0.000    1.455    3.636    0.545    2.545    5.091 
#    0.000    0.000    0.000    0.000    0.000    0.000 
#    0.000    0.000    0.000    0.000    0.000    0.000 
#
# Total GULP energy -245744.919355 kJ/mol
# GULP energy per Si atom -5585.111804 kJ/mol
# Density = 2.025943 g / cm^3
# Si number density = 20.305651 Si / 1000 Ang^3
#
#
#
# Elastic Constant Matrix: (Units=GPa)
#
#
# Indices 1 2 3 4 5 6 
#
# 1 177.5442 48.3968 26.2033 0.0000 0.0000 0.0000
# 2 48.3968 150.7610 29.3363 0.0000 0.0000 0.0000
# 3 26.2033 29.3363 87.8035 0.0000 0.0000 0.0000
# 4 0.0000 0.0000 0.0000 36.1801 0.0000 0.0000
# 5 0.0000 0.0000 0.0000 0.0000 25.9937 0.0000
# 6 0.0000 0.0000 0.0000 0.0000 0.0000 206.6271
#
#
#
# Elastic Compliance Matrix: (Units=1/GPa)
#
#
# Indices 1 2 3 4 5 6 
#
# 1 0.006306 -0.001773 -0.001289 0.000000 0.000000 0.000000
# 2 -0.001773 0.007593 -0.002008 0.000000 0.000000 0.000000
# 3 -0.001289 -0.002008 0.012445 0.000000 0.000000 0.000000
# 4 0.000000 0.000000 0.000000 0.027639 0.000000 0.000000
# 5 0.000000 0.000000 0.000000 0.000000 0.038471 0.000000
# 6 0.000000 0.000000 0.000000 0.000000 0.000000 0.004840
#
#
# Mechanical properties :
#
#
# Convention : Reuss Voigt Hill
#
# Bulk Modulus (GPa) = 61.71810 69.33129 65.52469
# Shear Modulus (GPa) = 44.31217 74.57165 59.44191
#
# Velocity S-wave (km/s) = 4.67653 6.06666 5.41638
# Velocity P-wave (km/s) = 7.72143 9.12636 8.45313
#
# Compressibility (1/GPa) = 0.01620270
#
# Stress axis : x y z
#
# Youngs Moduli (GPa) = 158.57580 131.70025 80.35576
#
# Poissons Ratio (x) = 0.23357 0.10361
# Poissons Ratio (y) = 0.28123 0.16133
# Poissons Ratio (z) = 0.20447 0.26441
#
# Static dielectric constant tensor:
#      x y z
#    x 1.714650 0.000000 0.000000 
#    y 0.000000 1.659080 0.000000 
#    z 0.000000 0.000000 1.798860 
# 
# From -- ./inp_files/18247.got.cif
#   From: 2010.05.17/outbox.cif.g08.bks.cpg/sg64_10_cif.got.tgz:18247.got - 2010.06.03 16:29:19.
