data_PCOD9478282
_publ_section_title
;
Structure prediction by ZEFSAII (Michael W. Deem and Ramdas Pophale) SiO2 
 PCOD9478282
Probable space group: C M C A
;
_chemical_formula_sum "Si O2"
_cell_formula_units_Z 80
_cell_length_a 24.275571
_cell_length_b 9.086034
_cell_length_c 15.128443
_cell_angle_alpha 90.000000
_cell_angle_beta 90.000000
_cell_angle_gamma 90.000000
_cell_volume 3336.860453
_symmetry_space_group_name_H-M "C M C A"
_symmetry_group_IT_number 64
_symmetry_cell_setting 'orthorhombic'
loop_
_space_group_symop_operation_xyz
x,y,z
-x,1/2-y,1/2+z
x,-y,-z
-x,1/2+y,1/2-z
-x,-y,-z
x,1/2+y,1/2-z
-x,y,z
x,1/2-y,1/2+z
1/2+x,1/2+y,z
1/2-x,-y,1/2+z
1/2+x,1/2-y,-z
1/2-x,y,1/2-z
1/2-x,1/2-y,-z
1/2+x,y,1/2-z
1/2-x,1/2+y,z
1/2+x,-y,1/2+z
loop_
_atom_site_type_symbol
_atom_site_label
_atom_site_fract_x
_atom_site_fract_y
_atom_site_fract_z
Si Si1 0.000000 0.212295 0.623271
Si Si2 0.881659 0.133594 0.565059
Si Si3 0.000000 0.067849 0.262476
Si Si4 0.780619 0.811953 0.160624
Si Si5 0.315995 0.899191 0.601013
Si Si6 0.124917 0.090843 0.287047
O O1 0.945871 0.171932 0.569686
O O2 0.000000 0.103625 0.709577
O O3 0.000000 0.377238 0.661273
O O4 0.865501 0.061617 0.659796
O O5 0.870358 0.000000 0.500000
O O6 0.850756 0.283971 0.543893
O O7 0.940341 0.123123 0.297296
O O8 0.750000 0.874431 0.250000
O O9 0.791854 0.938417 0.089102
O O10 0.736835 0.694696 0.127606
O O11 0.836165 0.721104 0.179061
O O12 0.356869 0.926096 0.685538
#
# Coordination Sequence:
#
# PCOD9478282 Si02
#       6
#     8  16   8  16  16  16
#     4  10  21  38  60  90 125 158 194 244 299 354
#     4  11  23  39  60  90 126 162 197 243 302 358
#     4  10  20  32  58  90 116 148 202 252 282 348
#     4  10  20  34  59  87 117 152 200 255 301 345
#     4  11  20  36  59  85 115 157 203 247 293 356
#     4  10  20  36  57  86 119 153 201 246 295 350
#
# _framework density 23.974632
#
# number of rings (size 3 to 8) (size 9 to 14) (size 15 to 20)
#    0.000    1.600    2.000    5.700    2.800    0.000 
#    0.000    5.000    0.000    0.000    0.000    8.400 
#    0.000    0.000    0.000    0.000    0.000    0.000 
#
# Total GULP energy -223476.433315 kJ/mol
# GULP energy per Si atom -5586.910833 kJ/mol
# Density = 2.392006 g / cm^3
# Si number density = 23.974632 Si / 1000 Ang^3
#
#
#
# Elastic Constant Matrix: (Units=GPa)
#
#
# Indices 1 2 3 4 5 6 
#
# 1 171.7679 67.2604 24.9865 0.0000 0.0000 0.0000
# 2 67.2604 111.8096 28.8497 0.0000 0.0000 0.0000
# 3 24.9865 28.8497 41.1384 0.0000 0.0000 0.0000
# 4 0.0000 0.0000 0.0000 48.4150 0.0000 0.0000
# 5 0.0000 0.0000 0.0000 0.0000 9.3124 0.0000
# 6 0.0000 0.0000 0.0000 0.0000 0.0000 39.4519
#
#
#
# Elastic Compliance Matrix: (Units=1/GPa)
#
#
# Indices 1 2 3 4 5 6 
#
# 1 0.007717 -0.004191 -0.001748 0.000000 0.000000 0.000000
# 2 -0.004191 0.013196 -0.006708 0.000000 0.000000 0.000000
# 3 -0.001748 -0.006708 0.030074 0.000000 0.000000 0.000000
# 4 0.000000 0.000000 0.000000 0.020655 0.000000 0.000000
# 5 0.000000 0.000000 0.000000 0.000000 0.107384 0.000000
# 6 0.000000 0.000000 0.000000 0.000000 0.000000 0.025347
#
#
# Mechanical properties :
#
#
# Convention : Reuss Voigt Hill
#
# Bulk Modulus (GPa) = 38.92233 62.98989 50.95611
# Shear Modulus (GPa) = 20.98781 33.01048 26.99914
#
# Velocity S-wave (km/s) = 2.96196 3.71468 3.35946
# Velocity P-wave (km/s) = 5.28844 6.68797 6.02896
#
# Compressibility (1/GPa) = 0.02569219
#
# Stress axis : x y z
#
# Youngs Moduli (GPa) = 129.57809 75.77971 33.25087
#
# Poissons Ratio (x) = 0.31763 0.05812
# Poissons Ratio (y) = 0.54312 0.22306
# Poissons Ratio (z) = 0.22650 0.50836
#
# Static dielectric constant tensor:
#      x y z
#    x 1.880240 0.000000 0.000000 
#    y 0.000000 1.916970 0.000000 
#    z 0.000000 0.000000 2.089230 
# 
# From -- ./inp_files/41318.got.cif
#   From: 2010.05.17/outbox.cif.g08.bks.cpg/sg64_21_cif.got.tgz:41318.got - 2010.06.03 16:29:19.
