data_PCOD9478640
_publ_section_title
;
Structure prediction by ZEFSAII (Michael W. Deem and Ramdas Pophale) SiO2 
 PCOD9478640
Probable space group: C M C A
;
_chemical_formula_sum "Si O2"
_cell_formula_units_Z 116
_cell_length_a 8.892690
_cell_length_b 26.161384
_cell_length_c 25.763533
_cell_angle_alpha 90.000000
_cell_angle_beta 90.000000
_cell_angle_gamma 90.000000
_cell_volume 5993.759141
_symmetry_space_group_name_H-M "C M C A"
_symmetry_group_IT_number 64
_symmetry_cell_setting 'orthorhombic'
loop_
_space_group_symop_operation_xyz
x,y,z
-x,1/2-y,1/2+z
x,-y,-z
-x,1/2+y,1/2-z
-x,-y,-z
x,1/2+y,1/2-z
-x,y,z
x,1/2-y,1/2+z
1/2+x,1/2+y,z
1/2-x,-y,1/2+z
1/2+x,1/2-y,-z
1/2-x,y,1/2-z
1/2-x,1/2-y,-z
1/2+x,y,1/2-z
1/2-x,1/2+y,z
1/2+x,-y,1/2+z
loop_
_atom_site_type_symbol
_atom_site_label
_atom_site_fract_x
_atom_site_fract_y
_atom_site_fract_z
Si Si1 0.322232 0.865857 0.047388
Si Si2 0.833042 0.039553 0.900524
Si Si3 0.824871 0.377743 0.673393
Si Si4 0.321444 0.483783 0.696108
Si Si5 0.674696 0.347489 0.945099
Si Si6 0.177446 0.239948 0.916980
Si Si7 0.500000 0.500000 0.000000
Si Si8 0.176944 0.769899 0.699999
O O1 0.500000 0.861803 0.051199
O O2 0.258152 0.910342 0.083325
O O3 0.246350 0.811804 0.061367
O O4 0.270140 0.876040 0.988423
O O5 0.000000 0.054676 0.881040
O O6 0.871154 0.008649 0.953690
O O7 0.750107 0.009229 0.855107
O O8 0.724470 0.424200 0.692355
O O9 0.816862 0.373922 0.610864
O O10 0.762578 0.323758 0.693130
O O11 0.000000 0.384955 0.687966
O O12 0.500000 0.489878 0.696802
O O13 0.250000 0.503703 0.750000
O O14 0.500000 0.346884 0.961259
O O15 0.737467 0.289997 0.938385
O O16 0.194851 0.241167 0.854577
O O17 0.000000 0.244154 0.929186
O O18 0.250000 0.743585 0.750000
O O19 0.000000 0.778663 0.708118
#
# Coordination Sequence:
#
# PCOD9478640 Si02
#       8
#    16  16  16  16  16  16   4  16
#     4  12  24  38  59  87 120 157 200 246 300 365
#     4  10  23  44  67  92 121 161 204 254 315 372
#     4  10  21  36  58  86 120 158 200 245 302 367
#     4  12  25  42  64  92 126 166 210 261 315 375
#     4  10  21  36  58  86 121 161 198 244 302 362
#     4  10  21  38  57  83 116 155 198 245 293 355
#     4   8  24  44  74  92 128 160 202 262 320 376
#     4  10  20  35  56  82 114 150 194 243 297 353
#
# _framework density 19.353465
#
# number of rings (size 3 to 8) (size 9 to 14) (size 15 to 20)
#    0.414    1.103    0.000    5.379    1.931    3.310 
#    0.000    1.379    0.000    1.655    0.000    0.000 
#    0.000    0.000    0.000    0.000    0.000    0.000 
#
# Total GULP energy -323529.939784 kJ/mol
# GULP energy per Si atom -5578.102410 kJ/mol
# Density = 1.930942 g / cm^3
# Si number density = 19.353465 Si / 1000 Ang^3
#
#
#
# Elastic Constant Matrix: (Units=GPa)
#
#
# Indices 1 2 3 4 5 6 
#
# 1 113.4976 10.5222 42.2231 0.0000 0.0000 0.0000
# 2 10.5222 30.4762 24.5619 0.0000 0.0000 0.0000
# 3 42.2231 24.5619 101.7864 0.0000 0.0000 0.0000
# 4 0.0000 0.0000 0.0000 10.1535 0.0000 0.0000
# 5 0.0000 0.0000 0.0000 0.0000 34.5072 0.0000
# 6 0.0000 0.0000 0.0000 0.0000 0.0000 19.9437
#
#
#
# Elastic Compliance Matrix: (Units=1/GPa)
#
#
# Indices 1 2 3 4 5 6 
#
# 1 0.010419 -0.000142 -0.004288 0.000000 0.000000 0.000000
# 2 -0.000142 0.040736 -0.009771 0.000000 0.000000 0.000000
# 3 -0.004288 -0.009771 0.013961 0.000000 0.000000 0.000000
# 4 0.000000 0.000000 0.000000 0.098489 0.000000 0.000000
# 5 0.000000 0.000000 0.000000 0.000000 0.028979 0.000000
# 6 0.000000 0.000000 0.000000 0.000000 0.000000 0.050141
#
#
# Mechanical properties :
#
#
# Convention : Reuss Voigt Hill
#
# Bulk Modulus (GPa) = 27.23677 44.48608 35.86142
# Shear Modulus (GPa) = 17.64504 24.15106 20.89805
#
# Velocity S-wave (km/s) = 3.02275 3.53639 3.28961
# Velocity P-wave (km/s) = 5.12705 6.30164 5.74445
#
# Compressibility (1/GPa) = 0.03671508
#
# Stress axis : x y z
#
# Youngs Moduli (GPa) = 95.97804 24.54807 71.62756
#
# Poissons Ratio (x) = 0.00347 0.30713
# Poissons Ratio (y) = 0.01358 0.69990
# Poissons Ratio (z) = 0.41154 0.23987
#
# Static dielectric constant tensor:
#      x y z
#    x 1.645300 0.000000 0.000000 
#    y 0.000000 1.657310 0.000000 
#    z 0.000000 0.000000 1.743290 
# 
# From -- ./inp_files/48567.got.cif
#   From: 2010.05.17/outbox.cif.g08.bks.cpg/sg64_25_cif.got.tgz:48567.got - 2010.06.03 16:29:19.
