data_PCOD9478422
_publ_section_title
;
Structure prediction by ZEFSAII (Michael W. Deem and Ramdas Pophale) SiO2 
 PCOD9478422
Probable space group: C M C A
;
_chemical_formula_sum "Si O2"
_cell_formula_units_Z 96
_cell_length_a 8.599227
_cell_length_b 20.219905
_cell_length_c 31.263314
_cell_angle_alpha 90.000000
_cell_angle_beta 90.000000
_cell_angle_gamma 90.000000
_cell_volume 5435.926011
_symmetry_space_group_name_H-M "C M C A"
_symmetry_group_IT_number 64
_symmetry_cell_setting 'orthorhombic'
loop_
_space_group_symop_operation_xyz
x,y,z
-x,1/2-y,1/2+z
x,-y,-z
-x,1/2+y,1/2-z
-x,-y,-z
x,1/2+y,1/2-z
-x,y,z
x,1/2-y,1/2+z
1/2+x,1/2+y,z
1/2-x,-y,1/2+z
1/2+x,1/2-y,-z
1/2-x,y,1/2-z
1/2-x,1/2-y,-z
1/2+x,y,1/2-z
1/2-x,1/2+y,z
1/2+x,-y,1/2+z
loop_
_atom_site_type_symbol
_atom_site_label
_atom_site_fract_x
_atom_site_fract_y
_atom_site_fract_z
Si Si1 0.687571 0.548722 0.796491
Si Si2 0.812724 0.801120 0.629172
Si Si3 0.685715 0.800049 0.535230
Si Si4 0.312739 0.947972 0.629518
Si Si5 0.187582 0.200856 0.796507
Si Si6 0.186744 0.553106 0.036082
O O1 0.500000 0.547964 0.795162
O O2 0.750000 0.528549 0.750000
O O3 0.737066 0.499648 0.834142
O O4 0.737481 0.624782 0.804250
O O5 0.748482 0.782412 0.582476
O O6 0.750878 0.874631 0.638857
O O7 0.763006 0.749706 0.665704
O O8 0.000000 0.802638 0.627271
O O9 0.500000 0.799192 0.535535
O O10 0.750000 0.750000 0.500000
O O11 0.744501 0.874558 0.526365
O O12 0.500000 0.945705 0.628029
O O13 0.249832 0.966902 0.582709
O O14 0.250000 0.221054 0.750000
O O15 0.000000 0.201665 0.795138
O O16 0.000000 0.558296 0.038016
O O17 0.229185 0.500000 0.000000
#
# Coordination Sequence:
#
# PCOD9478422 Si02
#       6
#    16  16  16  16  16  16
#     4   9  19  35  53  75 102 133 172 213 256 307
#     4  10  20  35  54  77 106 138 174 216 262 311
#     4  11  22  37  57  80 108 141 178 219 265 316
#     4  10  20  34  53  77 105 137 174 214 258 311
#     4   9  19  35  54  76 103 136 173 215 260 308
#     4  10  21  37  56  80 109 139 176 219 263 314
#
# _framework density 17.660284999999998
#
# number of rings (size 3 to 8) (size 9 to 14) (size 15 to 20)
#    0.000    2.167    0.000    5.000    0.000    6.000 
#    0.000    5.000    0.000    0.000    0.000    0.000 
#    0.000    0.000    0.000    0.000    0.000    0.000 
#
# Total GULP energy -267951.220414 kJ/mol
# GULP energy per Si atom -5582.317092 kJ/mol
# Density = 1.762009 g / cm^3
# Si number density = 17.660285 Si / 1000 Ang^3
#
#
#
# Elastic Constant Matrix: (Units=GPa)
#
#
# Indices 1 2 3 4 5 6 
#
# 1 63.9151 43.0966 54.5346 0.0000 0.0000 0.0000
# 2 43.0966 114.3368 139.8304 0.0000 0.0000 0.0000
# 3 54.5346 139.8304 193.2117 0.0000 0.0000 0.0000
# 4 0.0000 0.0000 0.0000 45.0700 0.0000 0.0000
# 5 0.0000 0.0000 0.0000 0.0000 32.4779 0.0000
# 6 0.0000 0.0000 0.0000 0.0000 0.0000 25.8116
#
#
#
# Elastic Compliance Matrix: (Units=1/GPa)
#
#
# Indices 1 2 3 4 5 6 
#
# 1 0.021044 -0.005812 -0.001733 0.000000 0.000000 0.000000
# 2 -0.005812 0.077713 -0.054602 0.000000 0.000000 0.000000
# 3 -0.001733 -0.054602 0.045181 0.000000 0.000000 0.000000
# 4 0.000000 0.000000 0.000000 0.022188 0.000000 0.000000
# 5 0.000000 0.000000 0.000000 0.000000 0.030790 0.000000
# 6 0.000000 0.000000 0.000000 0.000000 0.000000 0.038742
#
#
# Mechanical properties :
#
#
# Convention : Reuss Voigt Hill
#
# Bulk Modulus (GPa) = 50.90757 94.04299 72.47528
# Shear Modulus (GPa) = 13.64255 29.60534 21.62395
#
# Velocity S-wave (km/s) = 2.78240 4.09880 3.50300
# Velocity P-wave (km/s) = 6.26186 8.70442 7.58215
#
# Compressibility (1/GPa) = 0.01964344
#
# Stress axis : x y z
#
# Youngs Moduli (GPa) = 47.52023 12.86783 22.13317
#
# Poissons Ratio (x) = 0.07479 0.03836
# Poissons Ratio (y) = 0.27620 1.20851
# Poissons Ratio (z) = 0.08236 0.70261
#
# Static dielectric constant tensor:
#      x y z
#    x 1.598790 0.000000 0.000000 
#    y 0.000000 1.588400 0.000000 
#    z 0.000000 0.000000 1.577820 
# 
# From -- ./inp_files/48057.got.cif
#   From: 2010.05.17/outbox.cif.g08.bks.cpg/sg64_25_cif.got.tgz:48057.got - 2010.06.03 16:29:19.
