data_PCOD9478392
_publ_section_title
;
Structure prediction by ZEFSAII (Michael W. Deem and Ramdas Pophale) SiO2 
 PCOD9478392
Probable space group: C M C A
;
_chemical_formula_sum "Si O2"
_cell_formula_units_Z 96
_cell_length_a 9.251150
_cell_length_b 27.752411
_cell_length_c 21.736574
_cell_angle_alpha 90.000000
_cell_angle_beta 90.000000
_cell_angle_gamma 90.000000
_cell_volume 5580.685331
_symmetry_space_group_name_H-M "C M C A"
_symmetry_group_IT_number 64
_symmetry_cell_setting 'orthorhombic'
loop_
_space_group_symop_operation_xyz
x,y,z
-x,1/2-y,1/2+z
x,-y,-z
-x,1/2+y,1/2-z
-x,-y,-z
x,1/2+y,1/2-z
-x,y,z
x,1/2-y,1/2+z
1/2+x,1/2+y,z
1/2-x,-y,1/2+z
1/2+x,1/2-y,-z
1/2-x,y,1/2-z
1/2-x,1/2-y,-z
1/2+x,y,1/2-z
1/2-x,1/2+y,z
1/2+x,-y,1/2+z
loop_
_atom_site_type_symbol
_atom_site_label
_atom_site_fract_x
_atom_site_fract_y
_atom_site_fract_z
Si Si1 0.669451 0.917799 0.911854
Si Si2 0.331848 0.389712 0.032827
Si Si3 0.832288 0.252929 0.187329
Si Si4 0.337808 0.990125 0.425916
Si Si5 0.327465 0.276482 0.058526
Si Si6 0.663926 0.863001 0.690693
O O1 0.500000 0.914298 0.904577
O O2 0.752354 0.881656 0.867846
O O3 0.724737 0.972100 0.899622
O O4 0.720040 0.902264 0.979507
O O5 0.500000 0.395305 0.011117
O O6 0.311655 0.433070 0.081806
O O7 0.315042 0.334468 0.051729
O O8 0.750000 0.269539 0.250000
O O9 0.747907 0.264066 0.123787
O O10 0.837652 0.194861 0.191122
O O11 0.000000 0.269970 0.185472
O O12 0.500000 0.001625 0.404339
O O13 0.336318 0.000000 0.500000
O O14 0.500000 0.264463 0.058975
O O15 0.250000 0.250000 0.000000
O O16 0.500000 0.880352 0.690813
O O17 0.750000 0.880273 0.750000
#
# Coordination Sequence:
#
# PCOD9478392 Si02
#       6
#    16  16  16  16  16  16
#     4  11  20  29  47  75 103 129 160 201 250 301
#     4   9  19  34  50  70  99 135 170 205 248 296
#     4  10  21  37  56  77 103 138 177 214 257 311
#     4   8  15  30  49  67  92 128 164 197 240 294
#     4  11  22  35  53  79 109 139 175 219 264 307
#     4  10  20  34  51  71  97 129 165 203 245 297
#
# _framework density 17.202186999999999
#
# number of rings (size 3 to 8) (size 9 to 14) (size 15 to 20)
#    0.000    2.167    0.000    5.000    0.000   10.333 
#    0.000    0.000    0.000    1.000    0.000    4.667 
#    0.000    0.000    0.000    0.000    0.000    0.000 
#
# Total GULP energy -267422.168980 kJ/mol
# GULP energy per Si atom -5571.295187 kJ/mol
# Density = 1.716303 g / cm^3
# Si number density = 17.202187 Si / 1000 Ang^3
#
#
#
# Elastic Constant Matrix: (Units=GPa)
#
#
# Indices 1 2 3 4 5 6 
#
# 1 155.9768 31.9599 55.5742 0.0000 0.0000 0.0000
# 2 31.9599 48.8277 10.8246 0.0000 0.0000 0.0000
# 3 55.5742 10.8246 74.0496 0.0000 0.0000 0.0000
# 4 0.0000 0.0000 0.0000 16.1593 0.0000 0.0000
# 5 0.0000 0.0000 0.0000 0.0000 22.9543 0.0000
# 6 0.0000 0.0000 0.0000 0.0000 0.0000 39.2474
#
#
#
# Elastic Compliance Matrix: (Units=1/GPa)
#
#
# Indices 1 2 3 4 5 6 
#
# 1 0.009781 -0.004935 -0.006619 0.000000 0.000000 0.000000
# 2 -0.004935 0.023656 0.000245 0.000000 0.000000 0.000000
# 3 -0.006619 0.000245 0.018436 0.000000 0.000000 0.000000
# 4 0.000000 0.000000 0.000000 0.061884 0.000000 0.000000
# 5 0.000000 0.000000 0.000000 0.000000 0.043565 0.000000
# 6 0.000000 0.000000 0.000000 0.000000 0.000000 0.025479
#
#
# Mechanical properties :
#
#
# Convention : Reuss Voigt Hill
#
# Bulk Modulus (GPa) = 34.18090 52.84127 43.51109
# Shear Modulus (GPa) = 23.23752 27.70521 25.47136
#
# Velocity S-wave (km/s) = 3.67937 4.01754 3.85217
# Velocity P-wave (km/s) = 6.16146 7.23224 6.71822
#
# Compressibility (1/GPa) = 0.02925610
#
# Stress axis : x y z
#
# Youngs Moduli (GPa) = 102.24261 42.27318 54.24110
#
# Poissons Ratio (x) = 0.20860 0.35902
# Poissons Ratio (y) = 0.50452 -0.01331
# Poissons Ratio (z) = 0.67675 -0.01037
#
# Static dielectric constant tensor:
#      x y z
#    x 1.587860 0.000000 0.000000 
#    y 0.000000 1.609750 0.000000 
#    z 0.000000 0.000000 1.424400 
# 
# From -- ./inp_files/37113.got.cif
#   From: 2010.05.17/outbox.cif.g08.bks.cpg/sg64_19_cif.got.tgz:37113.got - 2010.06.03 16:29:19.
