data_PCOD9478057
_publ_section_title
;
Structure prediction by ZEFSAII (Michael W. Deem and Ramdas Pophale) SiO2 
 PCOD9478057
Probable space group: C M C A
;
_chemical_formula_sum "Si O2"
_cell_formula_units_Z 64
_cell_length_a 17.607876
_cell_length_b 7.425194
_cell_length_c 21.554169
_cell_angle_alpha 90.000000
_cell_angle_beta 90.000000
_cell_angle_gamma 90.000000
_cell_volume 2818.032905
_symmetry_space_group_name_H-M "C M C A"
_symmetry_group_IT_number 64
_symmetry_cell_setting 'orthorhombic'
loop_
_space_group_symop_operation_xyz
x,y,z
-x,1/2-y,1/2+z
x,-y,-z
-x,1/2+y,1/2-z
-x,-y,-z
x,1/2+y,1/2-z
-x,y,z
x,1/2-y,1/2+z
1/2+x,1/2+y,z
1/2-x,-y,1/2+z
1/2+x,1/2-y,-z
1/2-x,y,1/2-z
1/2-x,1/2-y,-z
1/2+x,y,1/2-z
1/2-x,1/2+y,z
1/2+x,-y,1/2+z
loop_
_atom_site_type_symbol
_atom_site_label
_atom_site_fract_x
_atom_site_fract_y
_atom_site_fract_z
Si Si1 0.839596 0.213253 0.997165
Si Si2 0.150747 0.176415 0.130334
Si Si3 0.587113 0.291564 0.134345
Si Si4 0.203333 0.533345 0.186612
O O1 0.869107 0.270181 0.064715
O O2 0.750000 0.250000 0.000000
O O3 0.881362 0.265926 0.934018
O O4 0.850084 0.000000 0.000000
O O5 0.162795 0.342773 0.176129
O O6 0.233488 0.075191 0.133176
O O7 0.095996 0.007894 0.142097
O O8 0.500000 0.240434 0.140823
O O9 0.641668 0.189980 0.182100
O O10 0.250000 0.532615 0.250000
#
# Coordination Sequence:
#
# PCOD9478057 Si02
#       4
#    16  16  16  16
#     4  10  19  36  67 102 140 180 235 287 355 436
#     4  11  22  40  71 103 136 186 243 290 352 433
#     4  11  26  45  70 110 151 182 231 307 373 421
#     4  12  24  42  74 102 133 193 254 295 341 433
#
# _framework density 22.710875999999999
#
# number of rings (size 3 to 8) (size 9 to 14) (size 15 to 20)
#    0.000    1.000    5.000    2.250    0.000    6.500 
#    0.000    2.500    0.000    0.000    0.000    0.000 
#    0.000    0.000    0.000    0.000    0.000    0.000 
#
# Total GULP energy -178744.451363 kJ/mol
# GULP energy per Si atom -5585.764105 kJ/mol
# Density = 2.265919 g / cm^3
# Si number density = 22.710876 Si / 1000 Ang^3
#
#
#
# Elastic Constant Matrix: (Units=GPa)
#
#
# Indices 1 2 3 4 5 6 
#
# 1 102.0776 17.2710 39.5292 0.0000 0.0000 0.0000
# 2 17.2710 101.5762 56.5801 0.0000 0.0000 0.0000
# 3 39.5292 56.5801 147.5768 0.0000 0.0000 0.0000
# 4 0.0000 0.0000 0.0000 31.1773 0.0000 0.0000
# 5 0.0000 0.0000 0.0000 0.0000 17.6122 0.0000
# 6 0.0000 0.0000 0.0000 0.0000 0.0000 27.1052
#
#
#
# Elastic Compliance Matrix: (Units=1/GPa)
#
#
# Indices 1 2 3 4 5 6 
#
# 1 0.010937 -0.000290 -0.002818 0.000000 0.000000 0.000000
# 2 -0.000290 0.012526 -0.004725 0.000000 0.000000 0.000000
# 3 -0.002818 -0.004725 0.009343 0.000000 0.000000 0.000000
# 4 0.000000 0.000000 0.000000 0.032075 0.000000 0.000000
# 5 0.000000 0.000000 0.000000 0.000000 0.056779 0.000000
# 6 0.000000 0.000000 0.000000 0.000000 0.000000 0.036893
#
#
# Mechanical properties :
#
#
# Convention : Reuss Voigt Hill
#
# Bulk Modulus (GPa) = 58.34461 64.22124 61.28292
# Shear Modulus (GPa) = 27.78842 31.03563 29.41203
#
# Velocity S-wave (km/s) = 3.50176 3.70070 3.60260
# Velocity P-wave (km/s) = 6.48812 6.82638 6.65939
#
# Compressibility (1/GPa) = 0.01713954
#
# Stress axis : x y z
#
# Youngs Moduli (GPa) = 91.43350 79.83480 107.03763
#
# Poissons Ratio (x) = 0.02313 0.30168
# Poissons Ratio (y) = 0.02649 0.50573
# Poissons Ratio (z) = 0.25770 0.37720
#
# Static dielectric constant tensor:
#      x y z
#    x 1.774630 0.000000 0.000000 
#    y 0.000000 1.897940 0.000000 
#    z 0.000000 0.000000 2.011440 
# 
# From -- ./inp_files/44794.got.cif
#   From: 2010.05.17/outbox.cif.g08.bks.cpg/sg64_23_cif.got.tgz:44794.got - 2010.06.03 16:29:19.
