data_PCOD9478370
_publ_section_title
;
Structure prediction by ZEFSAII (Michael W. Deem and Ramdas Pophale) SiO2 
 PCOD9478370
Probable space group: C M C A
;
_chemical_formula_sum "Si O2"
_cell_formula_units_Z 52
_cell_length_a 7.915028
_cell_length_b 19.265923
_cell_length_c 13.543903
_cell_angle_alpha 90.000000
_cell_angle_beta 90.000000
_cell_angle_gamma 90.000000
_cell_volume 2065.314102
_symmetry_space_group_name_H-M "C M C A"
_symmetry_group_IT_number 64
_symmetry_cell_setting 'orthorhombic'
loop_
_space_group_symop_operation_xyz
x,y,z
-x,1/2-y,1/2+z
x,-y,-z
-x,1/2+y,1/2-z
-x,-y,-z
x,1/2+y,1/2-z
-x,y,z
x,1/2-y,1/2+z
1/2+x,1/2+y,z
1/2-x,-y,1/2+z
1/2+x,1/2-y,-z
1/2-x,y,1/2-z
1/2-x,1/2-y,-z
1/2+x,y,1/2-z
1/2-x,1/2+y,z
1/2+x,-y,1/2+z
loop_
_atom_site_type_symbol
_atom_site_label
_atom_site_fract_x
_atom_site_fract_y
_atom_site_fract_z
Si Si1 0.310065 0.357455 0.561704
Si Si2 0.309328 0.996722 0.637585
Si Si3 0.000000 0.000000 0.500000
Si Si4 0.694996 0.794564 0.359181
O O1 0.500000 0.390607 0.570942
O O2 0.188812 0.416361 0.601975
O O3 0.292445 0.288903 0.628738
O O4 0.289448 0.327730 0.451913
O O5 0.500000 0.024713 0.624188
O O6 0.250000 0.999362 0.750000
O O7 0.154985 0.027553 0.575133
O O8 0.500000 0.811980 0.373002
O O9 0.750000 0.815838 0.250000
#
# Coordination Sequence:
#
# PCOD9478370 Si02
#       4
#    16  16   4  16
#     4  10  20  37  61  92 128 172 218 271 321 397
#     4  12  24  45  75 101 134 173 226 283 346 407
#     4  12  26  48  72 104 132 172 222 296 340 406
#     4  10  20  33  55  88 133 174 215 262 324 390
#
# _framework density 25.177769000000001
#
# number of rings (size 3 to 8) (size 9 to 14) (size 15 to 20)
#    0.000    1.231    3.077    3.231    0.000    6.154 
#    0.000    1.538    0.000    0.000    0.000    0.000 
#    0.000    0.000    0.000    0.000    0.000    0.000 
#
# Total GULP energy -145205.592453 kJ/mol
# GULP energy per Si atom -5584.830479 kJ/mol
# Density = 2.512046 g / cm^3
# Si number density = 25.177769 Si / 1000 Ang^3
#
#
#
# Elastic Constant Matrix: (Units=GPa)
#
#
# Indices 1 2 3 4 5 6 
#
# 1 189.0195 39.9928 24.4413 0.0000 0.0000 0.0000
# 2 39.9928 99.0107 4.4619 0.0000 0.0000 0.0000
# 3 24.4413 4.4619 164.9428 0.0000 0.0000 0.0000
# 4 0.0000 0.0000 0.0000 6.3859 0.0000 0.0000
# 5 0.0000 0.0000 0.0000 0.0000 28.3293 0.0000
# 6 0.0000 0.0000 0.0000 0.0000 0.0000 6.1552
#
#
#
# Elastic Compliance Matrix: (Units=1/GPa)
#
#
# Indices 1 2 3 4 5 6 
#
# 1 0.005891 -0.002343 -0.000810 0.000000 0.000000 0.000000
# 2 -0.002343 0.011044 0.000048 0.000000 0.000000 0.000000
# 3 -0.000810 0.000048 0.006181 0.000000 0.000000 0.000000
# 4 0.000000 0.000000 0.000000 0.156596 0.000000 0.000000
# 5 0.000000 0.000000 0.000000 0.000000 0.035299 0.000000
# 6 0.000000 0.000000 0.000000 0.000000 0.000000 0.162465
#
#
# Mechanical properties :
#
#
# Convention : Reuss Voigt Hill
#
# Bulk Modulus (GPa) = 59.14301 65.64056 62.39178
# Shear Modulus (GPa) = 12.84288 33.77920 23.31104
#
# Velocity S-wave (km/s) = 2.26096 3.66680 3.04609
# Velocity P-wave (km/s) = 5.50973 6.63737 6.09966
#
# Compressibility (1/GPa) = 0.01690817
#
# Stress axis : x y z
#
# Youngs Moduli (GPa) = 169.75438 90.54596 161.77688
#
# Poissons Ratio (x) = 0.21215 0.13096
# Poissons Ratio (y) = 0.39773 -0.00783
# Poissons Ratio (z) = 0.13742 -0.00438
#
# Static dielectric constant tensor:
#      x y z
#    x 1.941120 0.000000 0.000000 
#    y 0.000000 1.828760 0.000000 
#    z 0.000000 0.000000 1.961160 
# 
# From -- ./inp_files/11863.got.cif
#   From: 2010.05.17/outbox.cif.g08.bks.cpg/sg64_6_cif.got.tgz:11863.got - 2010.06.03 16:29:19.
