data_PCOD9478622
_publ_section_title
;
Structure prediction by ZEFSAII (Michael W. Deem and Ramdas Pophale) SiO2 
 PCOD9478622
Probable space group: C M C A
;
_chemical_formula_sum "Si O2"
_cell_formula_units_Z 80
_cell_length_a 7.401913
_cell_length_b 31.901462
_cell_length_c 14.325736
_cell_angle_alpha 90.000000
_cell_angle_beta 90.000000
_cell_angle_gamma 90.000000
_cell_volume 3382.762491
_symmetry_space_group_name_H-M "C M C A"
_symmetry_group_IT_number 64
_symmetry_cell_setting 'orthorhombic'
loop_
_space_group_symop_operation_xyz
x,y,z
-x,1/2-y,1/2+z
x,-y,-z
-x,1/2+y,1/2-z
-x,-y,-z
x,1/2+y,1/2-z
-x,y,z
x,1/2-y,1/2+z
1/2+x,1/2+y,z
1/2-x,-y,1/2+z
1/2+x,1/2-y,-z
1/2-x,y,1/2-z
1/2-x,1/2-y,-z
1/2+x,y,1/2-z
1/2-x,1/2+y,z
1/2+x,-y,1/2+z
loop_
_atom_site_type_symbol
_atom_site_label
_atom_site_fract_x
_atom_site_fract_y
_atom_site_fract_z
Si Si1 0.715968 0.288477 0.361785
Si Si2 0.214984 0.107841 0.140061
Si Si3 0.783470 0.379457 0.139503
Si Si4 0.705759 0.545609 0.515492
Si Si5 0.215769 0.198800 0.138401
O O1 0.500000 0.288251 0.375898
O O2 0.750000 0.288511 0.250000
O O3 0.786990 0.333739 0.393903
O O4 0.788355 0.243551 0.396955
O O5 0.250000 0.104148 0.250000
O O6 0.296943 0.070278 0.081890
O O7 0.285668 0.153549 0.106804
O O8 0.000000 0.106973 0.125749
O O9 0.750000 0.382804 0.250000
O O10 0.000000 0.378621 0.125132
O O11 0.711697 0.420141 0.085948
O O12 0.789870 0.500000 0.500000
O O13 0.500000 0.537951 0.548996
O O14 0.250000 0.198830 0.250000
O O15 0.000000 0.198832 0.124243
#
# Coordination Sequence:
#
# PCOD9478622 Si02
#       5
#    16  16  16  16  16
#     4   8  13  24  44  70  99 130 163 199 244 298
#     4  10  20  35  56  80 106 137 172 211 256 307
#     4   9  18  33  54  77 102 134 170 211 258 308
#     4  10  22  39  55  74 103 137 175 220 266 310
#     4   8  14  25  44  71 101 131 163 200 243 296
#
# _framework density 23.649308999999999
#
# number of rings (size 3 to 8) (size 9 to 14) (size 15 to 20)
#    0.000    3.000    0.000    0.600    0.000    2.800 
#    0.000    3.000    0.000    0.000    0.000    0.000 
#    0.000    0.000    0.000    0.000    0.000    0.000 
#
# Total GULP energy -223198.423572 kJ/mol
# GULP energy per Si atom -5579.960589 kJ/mol
# Density = 2.359548 g / cm^3
# Si number density = 23.649309 Si / 1000 Ang^3
#
#
#
# Elastic Constant Matrix: (Units=GPa)
#
#
# Indices 1 2 3 4 5 6 
#
# 1 102.9032 11.3406 -14.9389 0.0000 0.0000 0.0000
# 2 11.3406 285.9147 51.9775 0.0000 0.0000 0.0000
# 3 -14.9389 51.9775 87.3365 0.0000 0.0000 0.0000
# 4 0.0000 0.0000 0.0000 37.8129 0.0000 0.0000
# 5 0.0000 0.0000 0.0000 0.0000 7.4606 0.0000
# 6 0.0000 0.0000 0.0000 0.0000 0.0000 -9.3096
#
#
#
# Elastic Compliance Matrix: (Units=1/GPa)
#
#
# Indices 1 2 3 4 5 6 
#
# 1 0.010127 -0.000804 0.002211 0.000000 0.000000 0.000000
# 2 -0.000804 0.003986 -0.002509 0.000000 0.000000 0.000000
# 3 0.002211 -0.002509 0.013322 0.000000 0.000000 0.000000
# 4 0.000000 0.000000 0.000000 0.026446 0.000000 0.000000
# 5 0.000000 0.000000 0.000000 0.000000 0.134037 0.000000
# 6 0.000000 0.000000 0.000000 0.000000 0.000000 -0.107416
#
#
# Mechanical properties :
#
#
# Convention : Reuss Voigt Hill
#
# Bulk Modulus (GPa) = 39.63611 63.65696 51.64654
# Shear Modulus (GPa) = 54.87474 35.71112 45.29293
#
# Velocity S-wave (km/s) = 4.82223 3.89012 4.38104
# Velocity P-wave (km/s) = 6.91387 6.86680 6.89037
#
# Compressibility (1/GPa) = 0.02522952
#
# Stress axis : x y z
#
# Youngs Moduli (GPa) = 98.74263 250.90192 75.06632
#
# Poissons Ratio (x) = 0.20161 -0.16593
# Poissons Ratio (y) = 0.07934 0.18838
# Poissons Ratio (z) = -0.21827 0.62963
#
# Static dielectric constant tensor:
#      x y z
#    x 1.895660 0.000000 0.000000 
#    y 0.000000 1.950110 0.000000 
#    z 0.000000 0.000000 1.520810 
# 
# From -- ./inp_files/29972.got.cif
#   From: 2010.05.17/outbox.cif.g08.bks.cpg/sg64_15_cif.got.tgz:29972.got - 2010.06.03 16:29:19.
