data_PCOD9478943
_publ_section_title
;
Structure prediction by ZEFSAII (Michael W. Deem and Ramdas Pophale) SiO2 
 PCOD9478943
Probable space group: C M C A
;
_chemical_formula_sum "Si O2"
_cell_formula_units_Z 80
_cell_length_a 16.126802
_cell_length_b 29.093443
_cell_length_c 7.904403
_cell_angle_alpha 90.000000
_cell_angle_beta 90.000000
_cell_angle_gamma 90.000000
_cell_volume 3708.620957
_symmetry_space_group_name_H-M "C M C A"
_symmetry_group_IT_number 64
_symmetry_cell_setting 'orthorhombic'
loop_
_space_group_symop_operation_xyz
x,y,z
-x,1/2-y,1/2+z
x,-y,-z
-x,1/2+y,1/2-z
-x,-y,-z
x,1/2+y,1/2-z
-x,y,z
x,1/2-y,1/2+z
1/2+x,1/2+y,z
1/2-x,-y,1/2+z
1/2+x,1/2-y,-z
1/2-x,y,1/2-z
1/2-x,1/2-y,-z
1/2+x,y,1/2-z
1/2-x,1/2+y,z
1/2+x,-y,1/2+z
loop_
_atom_site_type_symbol
_atom_site_label
_atom_site_fract_x
_atom_site_fract_y
_atom_site_fract_z
Si Si1 0.829914 0.217597 0.039910
Si Si2 0.656673 0.108849 0.049661
Si Si3 0.906608 0.798163 0.606545
Si Si4 0.660469 0.887804 0.535463
Si Si5 0.500000 0.552047 0.446206
Si Si6 0.500000 0.554430 0.038665
O O1 0.845706 0.209615 0.236834
O O2 0.836306 0.165390 0.972607
O O3 0.750000 0.250000 0.000000
O O4 0.905793 0.249573 0.984342
O O5 0.633026 0.160800 0.997807
O O6 0.655897 0.111462 0.257017
O O7 0.747754 0.093856 0.993826
O O8 0.583217 0.076440 0.991167
O O9 0.000000 0.812111 0.656544
O O10 0.582382 0.918137 0.477854
O O11 0.500000 0.500000 0.500000
O O12 0.500000 0.556774 0.242994
O O13 0.500000 0.500000 0.000000
#
# Coordination Sequence:
#
# PCOD9478943 Si02
#       6
#    16  16  16  16   8   8
#     4  11  21  35  56  85 117 156 196 238 283 344
#     4   9  17  34  56  84 108 146 190 237 279 353
#     4  11  21  34  55  84 120 155 198 233 287 350
#     4   9  19  34  58  81 110 151 195 229 281 348
#     4  10  20  36  61  84 106 134 187 250 299 334
#     4  10  22  40  61  80 110 152 197 240 293 362
#
# _framework density 21.571362000000001
#
# number of rings (size 3 to 8) (size 9 to 14) (size 15 to 20)
#    0.000    2.000    3.000    1.200    5.600    0.800 
#    0.000    2.000    0.000    0.000    0.000    0.000 
#    0.000    0.000    0.000    0.000    0.000    0.000 
#
# Total GULP energy -222931.713829 kJ/mol
# GULP energy per Si atom -5573.292846 kJ/mol
# Density = 2.152226 g / cm^3
# Si number density = 21.571362 Si / 1000 Ang^3
#
#
#
# Elastic Constant Matrix: (Units=GPa)
#
#
# Indices 1 2 3 4 5 6 
#
# 1 230.3343 111.5538 12.0140 0.0000 0.0000 0.0000
# 2 111.5538 170.8249 8.8281 0.0000 0.0000 0.0000
# 3 12.0140 8.8281 11.0395 0.0000 0.0000 0.0000
# 4 0.0000 0.0000 0.0000 27.3834 0.0000 0.0000
# 5 0.0000 0.0000 0.0000 0.0000 11.0282 0.0000
# 6 0.0000 0.0000 0.0000 0.0000 0.0000 28.4300
#
#
#
# Elastic Compliance Matrix: (Units=1/GPa)
#
#
# Indices 1 2 3 4 5 6 
#
# 1 0.006502 -0.004048 -0.003839 0.000000 0.000000 0.000000
# 2 -0.004048 0.008626 -0.002493 0.000000 0.000000 0.000000
# 3 -0.003839 -0.002493 0.096755 0.000000 0.000000 0.000000
# 4 0.000000 0.000000 0.000000 0.036518 0.000000 0.000000
# 5 0.000000 0.000000 0.000000 0.000000 0.090676 0.000000
# 6 0.000000 0.000000 0.000000 0.000000 0.000000 0.035174
#
#
# Mechanical properties :
#
#
# Convention : Reuss Voigt Hill
#
# Bulk Modulus (GPa) = 10.97411 75.22117 43.09764
# Shear Modulus (GPa) = 15.36632 32.02185 23.69409
#
# Velocity S-wave (km/s) = 2.67188 3.85705 3.31781
# Velocity P-wave (km/s) = 3.82322 7.40151 5.89064
#
# Compressibility (1/GPa) = 0.09112354
#
# Stress axis : x y z
#
# Youngs Moduli (GPa) = 153.79655 115.92809 10.33534
#
# Poissons Ratio (x) = 0.46924 0.03968
# Poissons Ratio (y) = 0.62252 0.02577
# Poissons Ratio (z) = 0.59046 0.28902
#
# Static dielectric constant tensor:
#      x y z
#    x 1.811520 0.000000 0.000000 
#    y 0.000000 1.828240 0.000000 
#    z 0.000000 0.000000 1.837110 
# 
# From -- ./inp_files/14742.got.cif
#   From: 2010.05.17/outbox.cif.g08.bks.cpg/sg64_8_cif.got.tgz:14742.got - 2010.06.03 16:29:19.
