data_PCOD9478320
_publ_section_title
;
Structure prediction by ZEFSAII (Michael W. Deem and Ramdas Pophale) SiO2 
 PCOD9478320
Probable space group: C M C A
;
_chemical_formula_sum "Si O2"
_cell_formula_units_Z 96
_cell_length_a 8.544767
_cell_length_b 23.594481
_cell_length_c 26.540083
_cell_angle_alpha 90.000000
_cell_angle_beta 90.000000
_cell_angle_gamma 90.000000
_cell_volume 5350.728687
_symmetry_space_group_name_H-M "C M C A"
_symmetry_group_IT_number 64
_symmetry_cell_setting 'orthorhombic'
loop_
_space_group_symop_operation_xyz
x,y,z
-x,1/2-y,1/2+z
x,-y,-z
-x,1/2+y,1/2-z
-x,-y,-z
x,1/2+y,1/2-z
-x,y,z
x,1/2-y,1/2+z
1/2+x,1/2+y,z
1/2-x,-y,1/2+z
1/2+x,1/2-y,-z
1/2-x,y,1/2-z
1/2-x,1/2-y,-z
1/2+x,y,1/2-z
1/2-x,1/2+y,z
1/2+x,-y,1/2+z
loop_
_atom_site_type_symbol
_atom_site_label
_atom_site_fract_x
_atom_site_fract_y
_atom_site_fract_z
Si Si1 0.317663 0.367394 0.098648
Si Si2 0.682250 0.256344 0.444840
Si Si3 0.314580 0.641752 0.408044
Si Si4 0.185779 0.815972 0.305542
Si Si5 0.812470 0.932901 0.997849
Si Si6 0.185220 0.311103 0.804547
O O1 0.500000 0.380690 0.105234
O O2 0.289714 0.303462 0.080199
O O3 0.238244 0.362759 0.153386
O O4 0.258366 0.404911 0.051128
O O5 0.500000 0.273281 0.443192
O O6 0.750000 0.250000 0.500000
O O7 0.707831 0.195110 0.421855
O O8 0.500000 0.653815 0.415639
O O9 0.266854 0.593551 0.447964
O O10 0.289712 0.641137 0.347568
O O11 0.250000 0.829189 0.250000
O O12 0.243872 0.751331 0.317234
O O13 0.000000 0.813676 0.304994
O O14 0.000000 0.921903 0.994263
O O15 0.787142 0.000000 0.000000
O O16 0.250000 0.327597 0.750000
O O17 0.000000 0.301836 0.800684
#
# Coordination Sequence:
#
# PCOD9478320 Si02
#       6
#    16  16  16  16  16  16
#     4  11  21  35  55  80 113 146 184 228 274 335
#     4  12  22  32  50  79 113 147 182 221 276 336
#     4  11  22  35  55  81 113 148 184 228 277 330
#     4  11  21  33  52  79 114 151 186 221 272 328
#     4  10  23  41  60  81 107 144 188 234 285 336
#     4  10  20  33  51  78 114 149 184 221 268 325
#
# _framework density 17.941483000000002
#
# number of rings (size 3 to 8) (size 9 to 14) (size 15 to 20)
#    0.000    1.167    3.333    5.500    0.000    3.000 
#    0.000    0.000    0.000    1.000    0.000    2.333 
#    0.000    0.000    0.000    0.000    0.000    0.000 
#
# Total GULP energy -267495.678054 kJ/mol
# GULP energy per Si atom -5572.826626 kJ/mol
# Density = 1.790065 g / cm^3
# Si number density = 17.941483 Si / 1000 Ang^3
#
#
#
# Elastic Constant Matrix: (Units=GPa)
#
#
# Indices 1 2 3 4 5 6 
#
# 1 81.5349 16.8764 49.7604 0.0000 0.0000 0.0000
# 2 16.8764 55.8362 47.4432 0.0000 0.0000 0.0000
# 3 49.7604 47.4432 167.4417 0.0000 0.0000 0.0000
# 4 0.0000 0.0000 0.0000 12.2694 0.0000 0.0000
# 5 0.0000 0.0000 0.0000 0.0000 21.3718 0.0000
# 6 0.0000 0.0000 0.0000 0.0000 0.0000 15.6177
#
#
#
# Elastic Compliance Matrix: (Units=1/GPa)
#
#
# Indices 1 2 3 4 5 6 
#
# 1 0.015023 -0.000984 -0.004186 0.000000 0.000000 0.000000
# 2 -0.000984 0.023653 -0.006409 0.000000 0.000000 0.000000
# 3 -0.004186 -0.006409 0.009032 0.000000 0.000000 0.000000
# 4 0.000000 0.000000 0.000000 0.081504 0.000000 0.000000
# 5 0.000000 0.000000 0.000000 0.000000 0.046791 0.000000
# 6 0.000000 0.000000 0.000000 0.000000 0.000000 0.064030
#
#
# Mechanical properties :
#
#
# Convention : Reuss Voigt Hill
#
# Bulk Modulus (GPa) = 40.73385 59.21919 49.97652
# Shear Modulus (GPa) = 18.42478 22.56731 20.49605
#
# Velocity S-wave (km/s) = 3.20806 3.55044 3.38358
# Velocity P-wave (km/s) = 6.03947 7.06300 6.57119
#
# Compressibility (1/GPa) = 0.02454961
#
# Stress axis : x y z
#
# Youngs Moduli (GPa) = 66.56520 42.27803 110.71535
#
# Poissons Ratio (x) = 0.04161 0.46342
# Poissons Ratio (y) = 0.06551 0.70962
# Poissons Ratio (z) = 0.27862 0.27098
#
# Static dielectric constant tensor:
#      x y z
#    x 1.611500 0.000000 0.000000 
#    y 0.000000 1.595180 0.000000 
#    z 0.000000 0.000000 1.671490 
# 
# From -- ./inp_files/48380.got.cif
#   From: 2010.05.17/outbox.cif.g08.bks.cpg/sg64_25_cif.got.tgz:48380.got - 2010.06.03 16:29:19.
