data_PCOD9478311
_publ_section_title
;
Structure prediction by ZEFSAII (Michael W. Deem and Ramdas Pophale) SiO2 
 PCOD9478311
Probable space group: C M C A
;
_chemical_formula_sum "Si O2"
_cell_formula_units_Z 96
_cell_length_a 8.714968
_cell_length_b 27.863239
_cell_length_c 24.277104
_cell_angle_alpha 90.000000
_cell_angle_beta 90.000000
_cell_angle_gamma 90.000000
_cell_volume 5895.142069
_symmetry_space_group_name_H-M "C M C A"
_symmetry_group_IT_number 64
_symmetry_cell_setting 'orthorhombic'
loop_
_space_group_symop_operation_xyz
x,y,z
-x,1/2-y,1/2+z
x,-y,-z
-x,1/2+y,1/2-z
-x,-y,-z
x,1/2+y,1/2-z
-x,y,z
x,1/2-y,1/2+z
1/2+x,1/2+y,z
1/2-x,-y,1/2+z
1/2+x,1/2-y,-z
1/2-x,y,1/2-z
1/2-x,1/2-y,-z
1/2+x,y,1/2-z
1/2-x,1/2+y,z
1/2+x,-y,1/2+z
loop_
_atom_site_type_symbol
_atom_site_label
_atom_site_fract_x
_atom_site_fract_y
_atom_site_fract_z
Si Si1 0.316589 0.319965 0.190094
Si Si2 0.683559 0.981267 0.082832
Si Si3 0.683748 0.067142 0.690056
Si Si4 0.816568 0.733054 0.915069
Si Si5 0.816791 0.175965 0.473506
Si Si6 0.683256 0.071332 0.477296
O O1 0.500000 0.314853 0.190460
O O2 0.250000 0.307208 0.250000
O O3 0.280437 0.376383 0.180430
O O4 0.245150 0.288707 0.141459
O O5 0.500000 0.981482 0.079859
O O6 0.741069 0.963758 0.141891
O O7 0.748661 0.033295 0.066120
O O8 0.749362 0.945307 0.036273
O O9 0.500000 0.061696 0.689542
O O10 0.750000 0.054593 0.750000
O O11 0.740670 0.783619 0.931149
O O12 0.000000 0.738366 0.913208
O O13 0.779521 0.696871 0.965619
O O14 0.735712 0.125211 0.465374
O O15 0.000000 0.170411 0.469745
O O16 0.500000 0.067416 0.478634
#
# Coordination Sequence:
#
# PCOD9478311 Si02
#       6
#    16  16  16  16  16  16
#     4  10  20  33  51  74 102 134 168 207 250 297
#     4  11  21  34  52  75 103 135 170 208 252 300
#     4  10  20  34  52  76 104 135 170 208 252 299
#     4  10  20  33  51  75 103 134 168 206 249 297
#     4  10  20  34  52  75 103 134 168 206 250 299
#     4  11  21  34  52  75 103 134 169 209 253 300
#
# _framework density 16.284596000000001
#
# number of rings (size 3 to 8) (size 9 to 14) (size 15 to 20)
#    0.000    1.667    0.000    7.000    0.000    6.667 
#    0.000    0.000    0.000    1.000    0.000    7.000 
#    0.000    0.000    0.000    0.000    0.000    0.000 
#
# Total GULP energy -268174.072916 kJ/mol
# GULP energy per Si atom -5586.959852 kJ/mol
# Density = 1.624753 g / cm^3
# Si number density = 16.284596 Si / 1000 Ang^3
#
#
#
# Elastic Constant Matrix: (Units=GPa)
#
#
# Indices 1 2 3 4 5 6 
#
# 1 116.3464 66.4623 68.3394 0.0000 0.0000 0.0000
# 2 66.4623 113.8592 81.9402 0.0000 0.0000 0.0000
# 3 68.3394 81.9402 142.6563 0.0000 0.0000 0.0000
# 4 0.0000 0.0000 0.0000 19.3656 0.0000 0.0000
# 5 0.0000 0.0000 0.0000 0.0000 30.8352 0.0000
# 6 0.0000 0.0000 0.0000 0.0000 0.0000 28.8057
#
#
#
# Elastic Compliance Matrix: (Units=1/GPa)
#
#
# Indices 1 2 3 4 5 6 
#
# 1 0.013788 -0.005617 -0.003379 0.000000 0.000000 0.000000
# 2 -0.005617 0.017260 -0.007223 0.000000 0.000000 0.000000
# 3 -0.003379 -0.007223 0.012777 0.000000 0.000000 0.000000
# 4 0.000000 0.000000 0.000000 0.051638 0.000000 0.000000
# 5 0.000000 0.000000 0.000000 0.000000 0.032430 0.000000
# 6 0.000000 0.000000 0.000000 0.000000 0.000000 0.034715
#
#
# Mechanical properties :
#
#
# Convention : Reuss Voigt Hill
#
# Bulk Modulus (GPa) = 87.81468 89.59394 88.70431
# Shear Modulus (GPa) = 25.14552 26.20931 25.67741
#
# Velocity S-wave (km/s) = 3.93380 4.01615 3.97519
# Velocity P-wave (km/s) = 8.64148 8.75460 8.69822
#
# Compressibility (1/GPa) = 0.01138762
#
# Stress axis : x y z
#
# Youngs Moduli (GPa) = 72.52470 57.93900 78.26323
#
# Poissons Ratio (x) = 0.32543 0.26446
# Poissons Ratio (y) = 0.40736 0.56529
# Poissons Ratio (z) = 0.24507 0.41849
#
# Static dielectric constant tensor:
#      x y z
#    x 1.539340 0.000000 0.000000 
#    y 0.000000 1.527100 0.000000 
#    z 0.000000 0.000000 1.520410 
# 
# From -- ./inp_files/37105.got.cif
#   From: 2010.05.17/outbox.cif.g08.bks.cpg/sg64_19_cif.got.tgz:37105.got - 2010.06.03 16:29:19.
