data_PCOD9478817
_publ_section_title
;
Structure prediction by ZEFSAII (Michael W. Deem and Ramdas Pophale) SiO2 
 PCOD9478817
Probable space group: C M C A
;
_chemical_formula_sum "Si O2"
_cell_formula_units_Z 80
_cell_length_a 23.133819
_cell_length_b 11.000853
_cell_length_c 14.856444
_cell_angle_alpha 90.000000
_cell_angle_beta 90.000000
_cell_angle_gamma 90.000000
_cell_volume 3780.842316
_symmetry_space_group_name_H-M "C M C A"
_symmetry_group_IT_number 64
_symmetry_cell_setting 'orthorhombic'
loop_
_space_group_symop_operation_xyz
x,y,z
-x,1/2-y,1/2+z
x,-y,-z
-x,1/2+y,1/2-z
-x,-y,-z
x,1/2+y,1/2-z
-x,y,z
x,1/2-y,1/2+z
1/2+x,1/2+y,z
1/2-x,-y,1/2+z
1/2+x,1/2-y,-z
1/2-x,y,1/2-z
1/2-x,1/2-y,-z
1/2+x,y,1/2-z
1/2-x,1/2+y,z
1/2+x,-y,1/2+z
loop_
_atom_site_type_symbol
_atom_site_label
_atom_site_fract_x
_atom_site_fract_y
_atom_site_fract_z
Si Si1 0.113612 0.626138 0.051599
Si Si2 0.684403 0.378594 0.718315
Si Si3 0.000000 0.367736 0.214816
Si Si4 0.500000 0.120968 0.177197
Si Si5 0.119406 0.366623 0.246319
Si Si6 0.930105 0.874147 0.048955
O O1 0.170806 0.639928 0.112566
O O2 0.056950 0.615053 0.116283
O O3 0.100340 0.755842 0.005634
O O4 0.117868 0.500000 0.000000
O O5 0.750000 0.379739 0.750000
O O6 0.653193 0.260322 0.761485
O O7 0.656326 0.510937 0.736757
O O8 0.000000 0.508748 0.246513
O O9 0.065098 0.364049 0.177100
O O10 0.000000 0.244761 0.270130
O O11 0.092076 0.375065 0.347430
O O12 0.000000 0.860336 0.046186
O O13 0.915681 0.000000 0.000000
#
# Coordination Sequence:
#
# PCOD9478817 Si02
#       6
#    16  16   8   8  16  16
#     4  11  22  40  61  91 131 168 209 261 323 389
#     4  11  24  41  63  88 120 168 217 262 308 370
#     4  12  18  38  62  98 127 160 201 272 318 375
#     4  12  21  38  60 100 135 163 207 264 335 389
#     4  11  20  39  62  89 125 156 213 266 316 370
#     4  10  20  36  56  90 130 162 193 248 319 392
#
# _framework density 21.159307999999999
#
# number of rings (size 3 to 8) (size 9 to 14) (size 15 to 20)
#    0.000    1.000    8.000    0.900    0.000    1.600 
#    3.600    1.000    0.000    6.000    0.000    0.000 
#    0.000    0.000    0.000    0.000    0.000    0.000 
#
# Total GULP energy -222813.756881 kJ/mol
# GULP energy per Si atom -5570.343922 kJ/mol
# Density = 2.111115 g / cm^3
# Si number density = 21.159308 Si / 1000 Ang^3
#
#
#
# Elastic Constant Matrix: (Units=GPa)
#
#
# Indices 1 2 3 4 5 6 
#
# 1 160.6281 69.9187 22.2370 0.0000 0.0000 0.0000
# 2 69.9187 232.0060 38.0681 0.0000 0.0000 0.0000
# 3 22.2370 38.0681 37.4555 0.0000 0.0000 0.0000
# 4 0.0000 0.0000 0.0000 43.2333 0.0000 0.0000
# 5 0.0000 0.0000 0.0000 0.0000 13.7488 0.0000
# 6 0.0000 0.0000 0.0000 0.0000 0.0000 -2.8726
#
#
#
# Elastic Compliance Matrix: (Units=1/GPa)
#
#
# Indices 1 2 3 4 5 6 
#
# 1 0.007361 -0.001802 -0.002539 0.000000 0.000000 0.000000
# 2 -0.001802 0.005614 -0.004636 0.000000 0.000000 0.000000
# 3 -0.002539 -0.004636 0.032918 0.000000 0.000000 0.000000
# 4 0.000000 0.000000 0.000000 0.023130 0.000000 0.000000
# 5 0.000000 0.000000 0.000000 0.000000 0.072733 0.000000
# 6 0.000000 0.000000 0.000000 0.000000 0.000000 -0.348112
#
#
# Mechanical properties :
#
#
# Convention : Reuss Voigt Hill
#
# Bulk Modulus (GPa) = 35.79214 76.72634 56.25924
# Shear Modulus (GPa) = -27.91920 30.81296 1.44688
#
# Velocity S-wave (km/s) = -3.63640 3.82021 0.82782
# Velocity P-wave (km/s) = 0.82398 7.46985 5.24975
#
# Compressibility (1/GPa) = 0.02793910
#
# Stress axis : x y z
#
# Youngs Moduli (GPa) = 135.84417 178.12804 30.37885
#
# Poissons Ratio (x) = 0.32096 0.07713
# Poissons Ratio (y) = 0.24477 0.14084
# Poissons Ratio (z) = 0.34492 0.82580
#
# Static dielectric constant tensor:
#      x y z
#    x 1.779020 0.000000 0.000000 
#    y 0.000000 1.797290 0.000000 
#    z 0.000000 0.000000 1.862640 
# 
# From -- ./inp_files/34063.got.cif
#   From: 2010.05.17/outbox.cif.g08.bks.cpg/sg64_18_cif.got.tgz:34063.got - 2010.06.03 16:29:19.
