data_PCOD9478142
_publ_section_title
;
Structure prediction by ZEFSAII (Michael W. Deem and Ramdas Pophale) SiO2 
 PCOD9478142
Probable space group: C M C A
;
_chemical_formula_sum "Si O2"
_cell_formula_units_Z 64
_cell_length_a 17.416406
_cell_length_b 19.446351
_cell_length_c 9.239101
_cell_angle_alpha 90.000000
_cell_angle_beta 90.000000
_cell_angle_gamma 90.000000
_cell_volume 3129.149950
_symmetry_space_group_name_H-M "C M C A"
_symmetry_group_IT_number 64
_symmetry_cell_setting 'orthorhombic'
loop_
_space_group_symop_operation_xyz
x,y,z
-x,1/2-y,1/2+z
x,-y,-z
-x,1/2+y,1/2-z
-x,-y,-z
x,1/2+y,1/2-z
-x,y,z
x,1/2-y,1/2+z
1/2+x,1/2+y,z
1/2-x,-y,1/2+z
1/2+x,1/2-y,-z
1/2-x,y,1/2-z
1/2-x,1/2-y,-z
1/2+x,y,1/2-z
1/2-x,1/2+y,z
1/2+x,-y,1/2+z
loop_
_atom_site_type_symbol
_atom_site_label
_atom_site_fract_x
_atom_site_fract_y
_atom_site_fract_z
Si Si1 0.410264 0.947336 0.135222
Si Si2 0.592654 0.670961 0.148701
Si Si3 0.184081 0.463915 0.642467
Si Si4 0.906611 0.691760 0.015422
O O1 0.500000 0.939987 0.176324
O O2 0.364260 0.980443 0.266354
O O3 0.380655 0.873862 0.078215
O O4 0.407698 0.000000 0.000000
O O5 0.500000 0.665293 0.141132
O O6 0.630621 0.599940 0.101435
O O7 0.613955 0.683581 0.316730
O O8 0.617417 0.736030 0.053173
O O9 0.216566 0.500000 0.500000
O O10 0.250000 0.438956 0.750000
O O11 0.000000 0.690090 0.010581
#
# Coordination Sequence:
#
# PCOD9478142 Si02
#       4
#    16  16  16  16
#     4  10  19  38  67  93 121 162 205 254 315 373
#     4  10  21  40  65  95 127 160 202 255 312 375
#     4  12  27  43  61  88 124 170 215 265 309 366
#     4   9  19  35  62  95 126 158 197 252 310 367
#
# _framework density 20.452839999999998
#
# number of rings (size 3 to 8) (size 9 to 14) (size 15 to 20)
#    0.000    1.750    2.500    1.500    3.500    2.000 
#    0.000    2.500    0.000    0.000    0.000    0.000 
#    0.000    0.000    0.000    0.000    0.000    0.000 
#
# Total GULP energy -178871.031475 kJ/mol
# GULP energy per Si atom -5589.719734 kJ/mol
# Density = 2.040629 g / cm^3
# Si number density = 20.452840 Si / 1000 Ang^3
#
#
#
# Elastic Constant Matrix: (Units=GPa)
#
#
# Indices 1 2 3 4 5 6 
#
# 1 31.8445 11.4833 7.8959 0.0000 0.0000 0.0000
# 2 11.4833 112.7928 29.8689 0.0000 0.0000 0.0000
# 3 7.8959 29.8689 24.9362 0.0000 0.0000 0.0000
# 4 0.0000 0.0000 0.0000 35.9233 0.0000 0.0000
# 5 0.0000 0.0000 0.0000 0.0000 41.2417 0.0000
# 6 0.0000 0.0000 0.0000 0.0000 0.0000 1.5325
#
#
#
# Elastic Compliance Matrix: (Units=1/GPa)
#
#
# Indices 1 2 3 4 5 6 
#
# 1 0.034140 -0.000898 -0.009735 0.000000 0.000000 0.000000
# 2 -0.000898 0.013008 -0.015297 0.000000 0.000000 0.000000
# 3 -0.009735 -0.015297 0.061508 0.000000 0.000000 0.000000
# 4 0.000000 0.000000 0.000000 0.027837 0.000000 0.000000
# 5 0.000000 0.000000 0.000000 0.000000 0.024247 0.000000
# 6 0.000000 0.000000 0.000000 0.000000 0.000000 0.652540
#
#
# Mechanical properties :
#
#
# Convention : Reuss Voigt Hill
#
# Bulk Modulus (GPa) = 17.60666 29.78551 23.69609
# Shear Modulus (GPa) = 5.65565 23.76118 14.70842
#
# Velocity S-wave (km/s) = 1.66470 3.41215 2.68458
# Velocity P-wave (km/s) = 3.51028 5.48802 4.60654
#
# Compressibility (1/GPa) = 0.05679669
#
# Stress axis : x y z
#
# Youngs Moduli (GPa) = 29.29105 76.87571 16.25817
#
# Poissons Ratio (x) = 0.06903 0.15827
# Poissons Ratio (y) = 0.02630 0.24870
# Poissons Ratio (z) = 0.28514 1.17596
#
# Static dielectric constant tensor:
#      x y z
#    x 1.726040 0.000000 0.000000 
#    y 0.000000 1.698620 0.000000 
#    z 0.000000 0.000000 1.702880 
# 
# From -- ./inp_files/6571.got.cif
#   From: 2010.05.17/outbox.cif.g08.bks.cpg/sg64_4_cif.got.tgz:6571.got - 2010.06.03 16:29:19.
