data_PCOD9478918
_publ_section_title
;
Structure prediction by ZEFSAII (Michael W. Deem and Ramdas Pophale) SiO2 
 PCOD9478918
Probable space group: C M C A
;
_chemical_formula_sum "Si O2"
_cell_formula_units_Z 104
_cell_length_a 14.033112
_cell_length_b 21.273836
_cell_length_c 18.576585
_cell_angle_alpha 90.000000
_cell_angle_beta 90.000000
_cell_angle_gamma 90.000000
_cell_volume 5545.818822
_symmetry_space_group_name_H-M "C M C A"
_symmetry_group_IT_number 64
_symmetry_cell_setting 'orthorhombic'
loop_
_space_group_symop_operation_xyz
x,y,z
-x,1/2-y,1/2+z
x,-y,-z
-x,1/2+y,1/2-z
-x,-y,-z
x,1/2+y,1/2-z
-x,y,z
x,1/2-y,1/2+z
1/2+x,1/2+y,z
1/2-x,-y,1/2+z
1/2+x,1/2-y,-z
1/2-x,y,1/2-z
1/2-x,1/2-y,-z
1/2+x,y,1/2-z
1/2-x,1/2+y,z
1/2+x,-y,1/2+z
loop_
_atom_site_type_symbol
_atom_site_label
_atom_site_fract_x
_atom_site_fract_y
_atom_site_fract_z
Si Si1 0.891924 0.534273 0.696608
Si Si2 0.774590 0.160855 0.832167
Si Si3 0.608486 0.949572 0.553702
Si Si4 0.774550 0.651954 0.380141
Si Si5 0.388069 0.260868 0.571966
Si Si6 0.111985 0.228288 0.599399
Si Si7 0.250000 0.443687 0.750000
O O1 0.825663 0.593511 0.676747
O O2 0.897233 0.487203 0.628535
O O3 0.839686 0.490997 0.755646
O O4 0.000000 0.553717 0.714700
O O5 0.750000 0.181957 0.750000
O O6 0.845374 0.204560 0.879441
O O7 0.674745 0.168829 0.875176
O O8 0.500000 0.933929 0.530743
O O9 0.669744 0.887359 0.559472
O O10 0.651375 0.000000 0.500000
O O11 0.674523 0.679573 0.404784
O O12 0.841793 0.711263 0.360777
O O13 0.760098 0.602800 0.316672
O O14 0.500000 0.267059 0.585368
O O15 0.374280 0.256307 0.485535
O O16 0.000000 0.221413 0.613516
#
# Coordination Sequence:
#
# PCOD9478918 Si02
#       7
#    16  16  16  16  16  16   8
#     4  10  21  38  57  81 118 154 190 238 292 350
#     4  11  22  38  61  89 117 153 197 243 300 355
#     4   9  19  32  55  87 111 145 195 243 290 341
#     4  10  20  36  60  82 117 154 196 247 294 353
#     4  10  23  40  60  89 120 158 199 245 305 363
#     4  10  23  40  61  89 121 155 196 248 308 362
#     4  10  22  40  54  86 116 154 202 240 294 346
#
# _framework density 18.752866999999998
#
# number of rings (size 3 to 8) (size 9 to 14) (size 15 to 20)
#    0.000    2.000    0.769    2.769    8.615    2.462 
#    0.000    0.000    0.000    0.462    0.000    0.000 
#    0.000    0.000    0.000    0.000    0.000    0.000 
#
# Total GULP energy -289772.949188 kJ/mol
# GULP energy per Si atom -5572.556715 kJ/mol
# Density = 1.871018 g / cm^3
# Si number density = 18.752867 Si / 1000 Ang^3
#
#
#
# Elastic Constant Matrix: (Units=GPa)
#
#
# Indices 1 2 3 4 5 6 
#
# 1 159.0955 70.9553 40.8578 0.0000 0.0000 0.0000
# 2 70.9553 112.7605 25.6094 0.0000 0.0000 0.0000
# 3 40.8578 25.6094 47.3034 0.0000 0.0000 0.0000
# 4 0.0000 0.0000 0.0000 -8.3273 0.0000 0.0000
# 5 0.0000 0.0000 0.0000 0.0000 25.5383 0.0000
# 6 0.0000 0.0000 0.0000 0.0000 0.0000 12.8638
#
#
#
# Elastic Compliance Matrix: (Units=1/GPa)
#
#
# Indices 1 2 3 4 5 6 
#
# 1 0.010031 -0.004953 -0.005983 0.000000 0.000000 0.000000
# 2 -0.004953 0.012558 -0.002520 0.000000 0.000000 0.000000
# 3 -0.005983 -0.002520 0.027672 0.000000 0.000000 0.000000
# 4 0.000000 0.000000 0.000000 -0.120087 0.000000 0.000000
# 5 0.000000 0.000000 0.000000 0.000000 0.039157 0.000000
# 6 0.000000 0.000000 0.000000 0.000000 0.000000 0.077737
#
#
# Mechanical properties :
#
#
# Convention : Reuss Voigt Hill
#
# Bulk Modulus (GPa) = 42.82929 66.00050 54.41489
# Shear Modulus (GPa) = 61.15219 18.13074 39.64147
#
# Velocity S-wave (km/s) = 5.71667 3.11275 4.60269
# Velocity P-wave (km/s) = 8.15243 6.94192 7.57141
#
# Compressibility (1/GPa) = 0.02334851
#
# Stress axis : x y z
#
# Youngs Moduli (GPa) = 99.68973 79.63257 36.13778
#
# Poissons Ratio (x) = 0.39445 0.21620
# Poissons Ratio (y) = 0.49381 0.09107
# Poissons Ratio (z) = 0.59640 0.20068
#
# Static dielectric constant tensor:
#      x y z
#    x 1.670510 0.000000 0.000000 
#    y 0.000000 1.662340 0.000000 
#    z 0.000000 0.000000 1.692790 
# 
# From -- ./inp_files/32374.got.cif
#   From: 2010.05.17/outbox.cif.g08.bks.cpg/sg64_17_cif.got.tgz:32374.got - 2010.06.03 16:29:19.
