data_PCOD9478319
_publ_section_title
;
Structure prediction by ZEFSAII (Michael W. Deem and Ramdas Pophale) SiO2 
 PCOD9478319
Probable space group: C M C A
;
_chemical_formula_sum "Si O2"
_cell_formula_units_Z 116
_cell_length_a 9.090281
_cell_length_b 24.713566
_cell_length_c 29.252869
_cell_angle_alpha 90.000000
_cell_angle_beta 90.000000
_cell_angle_gamma 90.000000
_cell_volume 6571.752369
_symmetry_space_group_name_H-M "C M C A"
_symmetry_group_IT_number 64
_symmetry_cell_setting 'orthorhombic'
loop_
_space_group_symop_operation_xyz
x,y,z
-x,1/2-y,1/2+z
x,-y,-z
-x,1/2+y,1/2-z
-x,-y,-z
x,1/2+y,1/2-z
-x,y,z
x,1/2-y,1/2+z
1/2+x,1/2+y,z
1/2-x,-y,1/2+z
1/2+x,1/2-y,-z
1/2-x,y,1/2-z
1/2-x,1/2-y,-z
1/2+x,y,1/2-z
1/2-x,1/2+y,z
1/2+x,-y,1/2+z
loop_
_atom_site_type_symbol
_atom_site_label
_atom_site_fract_x
_atom_site_fract_y
_atom_site_fract_z
Si Si1 0.668928 0.692191 0.445403
Si Si2 0.000000 0.000000 0.000000
Si Si3 0.175810 0.682976 0.700472
Si Si4 0.676292 0.807112 0.799681
Si Si5 0.162591 0.998335 0.096312
Si Si6 0.328150 0.607762 0.626622
Si Si7 0.667425 0.200437 0.946421
Si Si8 0.824798 0.881169 0.875503
O O1 0.500000 0.682690 0.431763
O O2 0.682091 0.687713 0.500008
O O3 0.718239 0.753035 0.433750
O O4 0.776377 0.651289 0.420520
O O5 0.873259 0.000831 0.041722
O O6 0.250000 0.677160 0.750000
O O7 0.208861 0.745034 0.684710
O O8 0.240445 0.638202 0.666640
O O9 0.000000 0.678185 0.703991
O O10 0.500000 0.812484 0.796505
O O11 0.750000 0.813462 0.750000
O O12 0.742535 0.850861 0.834340
O O13 0.213606 0.056309 0.115305
O O14 0.000000 0.987439 0.116970
O O15 0.266536 0.950119 0.111880
O O16 0.500000 0.604636 0.638843
O O17 0.312444 0.647313 0.583129
O O18 0.500000 0.220954 0.939082
O O19 0.000000 0.877703 0.868908
#
# Coordination Sequence:
#
# PCOD9478319 Si02
#       8
#    16   4  16  16  16  16  16  16
#     4  10  20  33  51  78 109 145 185 231 283 344
#     4   8  20  44  62  80 112 152 210 252 284 342
#     4  10  21  38  61  89 118 153 191 234 288 349
#     4  10  21  38  62  90 120 154 192 235 290 350
#     4   9  22  39  60  81 110 152 200 240 291 341
#     4  11  22  36  57  84 115 149 190 242 292 346
#     4   9  20  35  50  76 111 146 183 227 287 349
#     4  11  22  36  56  82 112 148 191 239 289 343
#
# _framework density 17.651305000000001
#
# number of rings (size 3 to 8) (size 9 to 14) (size 15 to 20)
#    0.414    1.655    0.000    2.897    1.931    6.621 
#    0.000    1.034    0.000    3.310    0.000    0.000 
#    0.000    0.000    0.000    0.000    0.000    0.000 
#
# Total GULP energy -322965.173364 kJ/mol
# GULP energy per Si atom -5568.365058 kJ/mol
# Density = 1.761113 g / cm^3
# Si number density = 17.651305 Si / 1000 Ang^3
#
#
#
# Elastic Constant Matrix: (Units=GPa)
#
#
# Indices 1 2 3 4 5 6 
#
# 1 82.1661 71.2552 50.3939 0.0000 0.0000 0.0000
# 2 71.2552 121.9100 69.6224 0.0000 0.0000 0.0000
# 3 50.3939 69.6224 79.2470 0.0000 0.0000 0.0000
# 4 0.0000 0.0000 0.0000 41.0362 0.0000 0.0000
# 5 0.0000 0.0000 0.0000 0.0000 31.8105 0.0000
# 6 0.0000 0.0000 0.0000 0.0000 0.0000 30.9618
#
#
#
# Elastic Compliance Matrix: (Units=1/GPa)
#
#
# Indices 1 2 3 4 5 6 
#
# 1 0.026223 -0.011648 -0.006442 0.000000 0.000000 0.000000
# 2 -0.011648 0.021637 -0.011602 0.000000 0.000000 0.000000
# 3 -0.006442 -0.011602 0.026908 0.000000 0.000000 0.000000
# 4 0.000000 0.000000 0.000000 0.024369 0.000000 0.000000
# 5 0.000000 0.000000 0.000000 0.000000 0.031436 0.000000
# 6 0.000000 0.000000 0.000000 0.000000 0.000000 0.032298
#
#
# Mechanical properties :
#
#
# Convention : Reuss Voigt Hill
#
# Bulk Modulus (GPa) = 65.00293 73.98514 69.49403
# Shear Modulus (GPa) = 21.98947 26.89846 24.44397
#
# Velocity S-wave (km/s) = 3.53338 3.90792 3.72536
# Velocity P-wave (km/s) = 7.31795 7.89736 7.61317
#
# Compressibility (1/GPa) = 0.01538392
#
# Stress axis : x y z
#
# Youngs Moduli (GPa) = 38.13502 46.21788 37.16355
#
# Poissons Ratio (x) = 0.53834 0.23941
# Poissons Ratio (y) = 0.44419 0.43117
# Poissons Ratio (z) = 0.24566 0.53621
#
# Static dielectric constant tensor:
#      x y z
#    x 1.598230 0.000000 0.000000 
#    y 0.000000 1.597740 0.000000 
#    z 0.000000 0.000000 1.598140 
# 
# From -- ./inp_files/48602.got.cif
#   From: 2010.05.17/outbox.cif.g08.bks.cpg/sg64_25_cif.got.tgz:48602.got - 2010.06.03 16:29:19.
