data_PCOD9478510
_publ_section_title
;
Structure prediction by ZEFSAII (Michael W. Deem and Ramdas Pophale) SiO2 
 PCOD9478510
Probable space group: C M C A
;
_chemical_formula_sum "Si O2"
_cell_formula_units_Z 48
_cell_length_a 17.151238
_cell_length_b 9.430074
_cell_length_c 12.845635
_cell_angle_alpha 90.000000
_cell_angle_beta 90.000000
_cell_angle_gamma 90.000000
_cell_volume 2077.620165
_symmetry_space_group_name_H-M "C M C A"
_symmetry_group_IT_number 64
_symmetry_cell_setting 'orthorhombic'
loop_
_space_group_symop_operation_xyz
x,y,z
-x,1/2-y,1/2+z
x,-y,-z
-x,1/2+y,1/2-z
-x,-y,-z
x,1/2+y,1/2-z
-x,y,z
x,1/2-y,1/2+z
1/2+x,1/2+y,z
1/2-x,-y,1/2+z
1/2+x,1/2-y,-z
1/2-x,y,1/2-z
1/2-x,1/2-y,-z
1/2+x,y,1/2-z
1/2-x,1/2+y,z
1/2+x,-y,1/2+z
loop_
_atom_site_type_symbol
_atom_site_label
_atom_site_fract_x
_atom_site_fract_y
_atom_site_fract_z
Si Si1 0.414261 0.069754 0.383860
Si Si2 0.640051 0.650177 0.517689
Si Si3 0.706151 0.845335 0.351202
O O1 0.500000 0.048293 0.337815
O O2 0.398645 0.234996 0.405646
O O3 0.413762 0.000000 0.500000
O O4 0.345841 0.983813 0.327384
O O5 0.599985 0.500000 0.500000
O O6 0.653000 0.728682 0.407601
O O7 0.725285 0.620459 0.567085
O O8 0.750000 0.792097 0.250000
#
# Coordination Sequence:
#
# PCOD9478510 Si02
#       3
#    16  16  16
#     4   9  19  37  59  83 116 155 194 244 304 358
#     4  10  20  34  56  89 120 152 201 249 297 361
#     4  10  20  36  59  85 115 158 206 250 296 354
#
# _framework density 23.103355000000001
#
# number of rings (size 3 to 8) (size 9 to 14) (size 15 to 20)
#    0.000    2.333    0.000    5.000    0.000    6.000 
#    0.000    1.667    0.000   10.000    0.000    0.000 
#    0.000    0.000    0.000    0.000    0.000    0.000 
#
# Total GULP energy -134086.242723 kJ/mol
# GULP energy per Si atom -5586.926780 kJ/mol
# Density = 2.305077 g / cm^3
# Si number density = 23.103355 Si / 1000 Ang^3
#
#
#
# Elastic Constant Matrix: (Units=GPa)
#
#
# Indices 1 2 3 4 5 6 
#
# 1 95.6642 38.8244 -3.5256 0.0000 0.0000 0.0000
# 2 38.8244 143.6110 14.7055 0.0000 0.0000 0.0000
# 3 -3.5256 14.7055 51.4478 0.0000 0.0000 0.0000
# 4 0.0000 0.0000 0.0000 9.7724 0.0000 0.0000
# 5 0.0000 0.0000 0.0000 0.0000 5.8402 0.0000
# 6 0.0000 0.0000 0.0000 0.0000 0.0000 10.0783
#
#
#
# Elastic Compliance Matrix: (Units=1/GPa)
#
#
# Indices 1 2 3 4 5 6 
#
# 1 0.011899 -0.003400 0.001787 0.000000 0.000000 0.000000
# 2 -0.003400 0.008145 -0.002561 0.000000 0.000000 0.000000
# 3 0.001787 -0.002561 0.020292 0.000000 0.000000 0.000000
# 4 0.000000 0.000000 0.000000 0.102329 0.000000 0.000000
# 5 0.000000 0.000000 0.000000 0.000000 0.171226 0.000000
# 6 0.000000 0.000000 0.000000 0.000000 0.000000 0.099224
#
#
# Mechanical properties :
#
#
# Convention : Reuss Voigt Hill
#
# Bulk Modulus (GPa) = 31.26178 43.41464 37.33821
# Shear Modulus (GPa) = 11.57077 21.18609 16.37843
#
# Velocity S-wave (km/s) = 2.24034 3.03151 2.66544
# Velocity P-wave (km/s) = 4.50031 5.57545 5.06648
#
# Compressibility (1/GPa) = 0.03198794
#
# Stress axis : x y z
#
# Youngs Moduli (GPa) = 84.04160 122.78063 49.28128
#
# Poissons Ratio (x) = 0.41743 -0.08807
# Poissons Ratio (y) = 0.28572 0.12621
# Poissons Ratio (z) = -0.15020 0.31444
#
# Static dielectric constant tensor:
#      x y z
#    x 1.867740 0.000000 0.000000 
#    y 0.000000 1.929060 0.000000 
#    z 0.000000 0.000000 1.885130 
# 
# From -- ./inp_files/24681.got.cif
#   From: 2010.05.17/outbox.cif.g08.bks.cpg/sg64_13_cif.got.tgz:24681.got - 2010.06.03 16:29:19.
