data_PCOD9478686
_publ_section_title
;
Structure prediction by ZEFSAII (Michael W. Deem and Ramdas Pophale) SiO2 
 PCOD9478686
Probable space group: C M C A
;
_chemical_formula_sum "Si O2"
_cell_formula_units_Z 96
_cell_length_a 7.820295
_cell_length_b 22.930150
_cell_length_c 24.035460
_cell_angle_alpha 90.000000
_cell_angle_beta 90.000000
_cell_angle_gamma 90.000000
_cell_volume 4310.051604
_symmetry_space_group_name_H-M "C M C A"
_symmetry_group_IT_number 64
_symmetry_cell_setting 'orthorhombic'
loop_
_space_group_symop_operation_xyz
x,y,z
-x,1/2-y,1/2+z
x,-y,-z
-x,1/2+y,1/2-z
-x,-y,-z
x,1/2+y,1/2-z
-x,y,z
x,1/2-y,1/2+z
1/2+x,1/2+y,z
1/2-x,-y,1/2+z
1/2+x,1/2-y,-z
1/2-x,y,1/2-z
1/2-x,1/2-y,-z
1/2+x,y,1/2-z
1/2-x,1/2+y,z
1/2+x,-y,1/2+z
loop_
_atom_site_type_symbol
_atom_site_label
_atom_site_fract_x
_atom_site_fract_y
_atom_site_fract_z
Si Si1 0.299153 0.117427 0.314243
Si Si2 0.297611 0.831396 0.314249
Si Si3 0.290673 0.349737 0.516953
Si Si4 0.705687 0.038503 0.089676
Si Si5 0.205302 0.591382 0.909348
Si Si6 0.801348 0.726410 0.113384
O O1 0.500000 0.128825 0.318918
O O2 0.250000 0.114231 0.250000
O O3 0.254781 0.059355 0.348630
O O4 0.205463 0.170112 0.346121
O O5 0.500000 0.824835 0.315571
O O6 0.250000 0.829630 0.250000
O O7 0.249604 0.889607 0.347243
O O8 0.220374 0.778806 0.351494
O O9 0.500000 0.346835 0.517857
O O10 0.238982 0.409497 0.548807
O O11 0.232931 0.360274 0.453886
O O12 0.226106 0.296077 0.554611
O O13 0.500000 0.037012 0.085515
O O14 0.769445 0.973593 0.077260
O O15 0.000000 0.589872 0.914384
O O16 0.000000 0.740433 0.102764
#
# Coordination Sequence:
#
# PCOD9478686 Si02
#       6
#    16  16  16  16  16  16
#     4  11  21  33  53  80 108 140 180 229 281 327
#     4  11  24  40  57  78 108 147 187 228 272 319
#     4   8  15  32  59  87 111 138 176 219 267 325
#     4   9  18  34  55  80 111 146 183 221 264 319
#     4  10  20  35  58  84 111 147 184 218 262 321
#     4   9  19  37  59  82 109 141 179 224 273 325
#
# _framework density 22.273515
#
# number of rings (size 3 to 8) (size 9 to 14) (size 15 to 20)
#    0.000    2.333    0.000    4.000    0.000    6.667 
#    0.000    3.333    0.000    5.000    0.000    0.000 
#    0.000    0.000    0.000    0.000    0.000    0.000 
#
# Total GULP energy -268004.972359 kJ/mol
# GULP energy per Si atom -5583.436924 kJ/mol
# Density = 2.222282 g / cm^3
# Si number density = 22.273515 Si / 1000 Ang^3
#
#
#
# Elastic Constant Matrix: (Units=GPa)
#
#
# Indices 1 2 3 4 5 6 
#
# 1 37.7279 4.5511 -7.5939 0.0000 0.0000 0.0000
# 2 4.5511 31.6082 26.6681 0.0000 0.0000 0.0000
# 3 -7.5939 26.6681 118.0526 0.0000 0.0000 0.0000
# 4 0.0000 0.0000 0.0000 24.7763 0.0000 0.0000
# 5 0.0000 0.0000 0.0000 0.0000 10.4355 0.0000
# 6 0.0000 0.0000 0.0000 0.0000 0.0000 11.5979
#
#
#
# Elastic Compliance Matrix: (Units=1/GPa)
#
#
# Indices 1 2 3 4 5 6 
#
# 1 0.028008 -0.006860 0.003351 0.000000 0.000000 0.000000
# 2 -0.006860 0.040768 -0.009651 0.000000 0.000000 0.000000
# 3 0.003351 -0.009651 0.010866 0.000000 0.000000 0.000000
# 4 0.000000 0.000000 0.000000 0.040361 0.000000 0.000000
# 5 0.000000 0.000000 0.000000 0.000000 0.095826 0.000000
# 6 0.000000 0.000000 0.000000 0.000000 0.000000 0.086222
#
#
# Mechanical properties :
#
#
# Convention : Reuss Voigt Hill
#
# Bulk Modulus (GPa) = 18.75379 26.07104 22.41242
# Shear Modulus (GPa) = 14.44483 20.27952 17.36217
#
# Velocity S-wave (km/s) = 2.54937 3.02068 2.79498
# Velocity P-wave (km/s) = 4.13567 4.88840 4.52770
#
# Compressibility (1/GPa) = 0.05332255
#
# Stress axis : x y z
#
# Youngs Moduli (GPa) = 35.70448 24.52934 92.02615
#
# Poissons Ratio (x) = 0.16828 -0.30841
# Poissons Ratio (y) = 0.24494 0.88812
# Poissons Ratio (z) = -0.11966 0.23673
#
# Static dielectric constant tensor:
#      x y z
#    x 1.789810 0.000000 0.000000 
#    y 0.000000 1.843800 0.000000 
#    z 0.000000 0.000000 1.758820 
# 
# From -- ./inp_files/42995.got.cif
#   From: 2010.05.17/outbox.cif.g08.bks.cpg/sg64_22_cif.got.tgz:42995.got - 2010.06.03 16:29:19.
