data_PCOD9478646
_publ_section_title
;
Structure prediction by ZEFSAII (Michael W. Deem and Ramdas Pophale) SiO2 
 PCOD9478646
Probable space group: C M C A
;
_chemical_formula_sum "Si O2"
_cell_formula_units_Z 96
_cell_length_a 13.472657
_cell_length_b 17.481136
_cell_length_c 23.453168
_cell_angle_alpha 90.000000
_cell_angle_beta 90.000000
_cell_angle_gamma 90.000000
_cell_volume 5523.627960
_symmetry_space_group_name_H-M "C M C A"
_symmetry_group_IT_number 64
_symmetry_cell_setting 'orthorhombic'
loop_
_space_group_symop_operation_xyz
x,y,z
-x,1/2-y,1/2+z
x,-y,-z
-x,1/2+y,1/2-z
-x,-y,-z
x,1/2+y,1/2-z
-x,y,z
x,1/2-y,1/2+z
1/2+x,1/2+y,z
1/2-x,-y,1/2+z
1/2+x,1/2-y,-z
1/2-x,y,1/2-z
1/2-x,1/2-y,-z
1/2+x,y,1/2-z
1/2-x,1/2+y,z
1/2+x,-y,1/2+z
loop_
_atom_site_type_symbol
_atom_site_label
_atom_site_fract_x
_atom_site_fract_y
_atom_site_fract_z
Si Si1 0.776685 0.238739 0.565420
Si Si2 0.618401 0.238906 0.771526
Si Si3 0.779652 0.521239 0.682400
Si Si4 0.119547 0.633114 0.359545
Si Si5 0.883591 0.614289 0.867929
Si Si6 0.881452 0.181222 0.846242
O O1 0.750000 0.250000 0.500000
O O2 0.827632 0.315216 0.591732
O O3 0.849875 0.166973 0.579094
O O4 0.678209 0.213648 0.600127
O O5 0.500000 0.233999 0.765642
O O6 0.638463 0.317240 0.802780
O O7 0.641395 0.168826 0.813597
O O8 0.656111 0.230264 0.708061
O O9 0.750000 0.513876 0.750000
O O10 0.833877 0.448495 0.654909
O O11 0.681491 0.540211 0.645136
O O12 0.850252 0.594954 0.671086
O O13 0.000000 0.629525 0.369517
O O14 0.000000 0.599491 0.869761
O O15 0.000000 0.185819 0.853916
#
# Coordination Sequence:
#
# PCOD9478646 Si02
#       6
#    16  16  16  16  16  16
#     4  10  22  38  60  83 107 151 207 245 279 329
#     4   8  15  31  54  78 105 144 184 222 282 345
#     4  11  21  32  56  89 123 153 183 226 286 359
#     4  10  22  37  57  85 119 151 184 235 294 343
#     4   9  18  35  58  81 112 154 191 229 285 346
#     4  10  20  35  56  83 116 150 192 238 285 344
#
# _framework density 17.379881000000001
#
# number of rings (size 3 to 8) (size 9 to 14) (size 15 to 20)
#    0.000    2.333    1.667    2.000    2.333    2.000 
#    0.000    4.167    0.000    6.000    0.000    0.000 
#    0.000    0.000    0.000    0.000    0.000    0.000 
#
# Total GULP energy -267442.324862 kJ/mol
# GULP energy per Si atom -5571.715101 kJ/mol
# Density = 1.734032 g / cm^3
# Si number density = 17.379881 Si / 1000 Ang^3
#
#
#
# Elastic Constant Matrix: (Units=GPa)
#
#
# Indices 1 2 3 4 5 6 
#
# 1 143.9432 62.8000 53.8369 0.0000 0.0000 0.0000
# 2 62.8000 108.0430 62.5629 0.0000 0.0000 0.0000
# 3 53.8369 62.5629 123.9505 0.0000 0.0000 0.0000
# 4 0.0000 0.0000 0.0000 8.6935 0.0000 0.0000
# 5 0.0000 0.0000 0.0000 0.0000 21.6886 0.0000
# 6 0.0000 0.0000 0.0000 0.0000 0.0000 28.9356
#
#
#
# Elastic Compliance Matrix: (Units=1/GPa)
#
#
# Indices 1 2 3 4 5 6 
#
# 1 0.009619 -0.004482 -0.001916 0.000000 0.000000 0.000000
# 2 -0.004482 0.015166 -0.005708 0.000000 0.000000 0.000000
# 3 -0.001916 -0.005708 0.011781 0.000000 0.000000 0.000000
# 4 0.000000 0.000000 0.000000 0.115028 0.000000 0.000000
# 5 0.000000 0.000000 0.000000 0.000000 0.046107 0.000000
# 6 0.000000 0.000000 0.000000 0.000000 0.000000 0.034559
#
#
# Mechanical properties :
#
#
# Convention : Reuss Voigt Hill
#
# Bulk Modulus (GPa) = 80.94278 81.59292 81.26785
# Shear Modulus (GPa) = 19.18721 24.97936 22.08329
#
# Velocity S-wave (km/s) = 3.32624 3.79523 3.56845
# Velocity P-wave (km/s) = 7.83745 8.13964 7.98997
#
# Compressibility (1/GPa) = 0.01235441
#
# Stress axis : x y z
#
# Youngs Moduli (GPa) = 103.96069 65.93715 84.88180
#
# Poissons Ratio (x) = 0.29551 0.16262
# Poissons Ratio (y) = 0.46592 0.48453
# Poissons Ratio (z) = 0.19917 0.37639
#
# Static dielectric constant tensor:
#      x y z
#    x 1.637100 0.000000 0.000000 
#    y 0.000000 1.608620 0.000000 
#    z 0.000000 0.000000 1.583150 
# 
# From -- ./inp_files/39180.got.cif
#   From: 2010.05.17/outbox.cif.g08.bks.cpg/sg64_20_cif.got.tgz:39180.got - 2010.06.03 16:29:19.
