data_PCOD9478381
_publ_section_title
;
Structure prediction by ZEFSAII (Michael W. Deem and Ramdas Pophale) SiO2 
 PCOD9478381
Probable space group: C M C A
;
_chemical_formula_sum "Si O2"
_cell_formula_units_Z 88
_cell_length_a 13.317187
_cell_length_b 12.165803
_cell_length_c 30.045350
_cell_angle_alpha 90.000000
_cell_angle_beta 90.000000
_cell_angle_gamma 90.000000
_cell_volume 4867.775554
_symmetry_space_group_name_H-M "C M C A"
_symmetry_group_IT_number 64
_symmetry_cell_setting 'orthorhombic'
loop_
_space_group_symop_operation_xyz
x,y,z
-x,1/2-y,1/2+z
x,-y,-z
-x,1/2+y,1/2-z
-x,-y,-z
x,1/2+y,1/2-z
-x,y,z
x,1/2-y,1/2+z
1/2+x,1/2+y,z
1/2-x,-y,1/2+z
1/2+x,1/2-y,-z
1/2-x,y,1/2-z
1/2-x,1/2-y,-z
1/2+x,y,1/2-z
1/2-x,1/2+y,z
1/2+x,-y,1/2+z
loop_
_atom_site_type_symbol
_atom_site_label
_atom_site_fract_x
_atom_site_fract_y
_atom_site_fract_z
Si Si1 0.385692 0.748093 0.319802
Si Si2 0.800507 0.483553 0.830589
Si Si3 0.264591 0.832449 0.104594
Si Si4 0.250000 0.638182 0.750000
Si Si5 0.386182 0.617888 0.124856
Si Si6 0.886971 0.937351 0.046324
O O1 0.500000 0.784632 0.321186
O O2 0.375532 0.617330 0.325290
O O3 0.323000 0.801940 0.359980
O O4 0.331592 0.787090 0.274825
O O5 0.816377 0.559655 0.874061
O O6 0.798344 0.561277 0.787790
O O7 0.690844 0.426955 0.837992
O O8 0.340409 0.730744 0.105562
O O9 0.204708 0.857655 0.059361
O O10 0.500000 0.632701 0.140962
O O11 0.386823 0.527925 0.085648
O O12 0.000000 0.887166 0.045609
O O13 0.871908 0.000000 0.000000
#
# Coordination Sequence:
#
# PCOD9478381 Si02
#       6
#    16  16  16   8  16  16
#     4  10  20  34  51  70  95 127 161 198 243 292
#     4   9  19  34  49  69  96 123 160 201 239 287
#     4   9  18  33  52  73  99 129 165 206 245 289
#     4  10  20  34  48  70  96 122 158 200 242 288
#     4   9  18  33  53  74  98 132 167 201 246 296
#     4   9  17  30  50  76 103 132 167 204 245 295
#
# _framework density 18.078073
#
# number of rings (size 3 to 8) (size 9 to 14) (size 15 to 20)
#    0.000    2.727    0.000    1.091    0.000    6.545 
#    0.000   12.727    0.000    0.545    0.000    0.000 
#    0.000    0.000    0.000    0.000    0.000    0.000 
#
# Total GULP energy -245275.963744 kJ/mol
# GULP energy per Si atom -5574.453721 kJ/mol
# Density = 1.803693 g / cm^3
# Si number density = 18.078073 Si / 1000 Ang^3
#
#
#
# Elastic Constant Matrix: (Units=GPa)
#
#
# Indices 1 2 3 4 5 6 
#
# 1 64.6187 4.4507 2.3598 0.0000 0.0000 0.0000
# 2 4.4507 63.3248 -14.9609 0.0000 0.0000 0.0000
# 3 2.3598 -14.9609 30.0082 0.0000 0.0000 0.0000
# 4 0.0000 0.0000 0.0000 9.2689 0.0000 0.0000
# 5 0.0000 0.0000 0.0000 0.0000 20.7452 0.0000
# 6 0.0000 0.0000 0.0000 0.0000 0.0000 13.5714
#
#
#
# Elastic Compliance Matrix: (Units=1/GPa)
#
#
# Indices 1 2 3 4 5 6 
#
# 1 0.015658 -0.001577 -0.002018 0.000000 0.000000 0.000000
# 2 -0.001577 0.018059 0.009128 0.000000 0.000000 0.000000
# 3 -0.002018 0.009128 0.038034 0.000000 0.000000 0.000000
# 4 0.000000 0.000000 0.000000 0.107888 0.000000 0.000000
# 5 0.000000 0.000000 0.000000 0.000000 0.048204 0.000000
# 6 0.000000 0.000000 0.000000 0.000000 0.000000 0.073684
#
#
# Mechanical properties :
#
#
# Convention : Reuss Voigt Hill
#
# Bulk Modulus (GPa) = 12.07500 15.73895 13.90698
# Shear Modulus (GPa) = 15.72003 19.79059 17.75531
#
# Velocity S-wave (km/s) = 2.95204 3.31226 3.13732
# Velocity P-wave (km/s) = 4.27939 4.83250 4.56433
#
# Compressibility (1/GPa) = 0.08281572
#
# Stress axis : x y z
#
# Youngs Moduli (GPa) = 63.86632 55.37438 26.29258
#
# Poissons Ratio (x) = 0.08733 0.05305
# Poissons Ratio (y) = 0.10073 -0.23999
# Poissons Ratio (z) = 0.12886 -0.50543
#
# Static dielectric constant tensor:
#      x y z
#    x 1.624430 0.000000 0.000000 
#    y 0.000000 1.645220 0.000000 
#    z 0.000000 0.000000 1.607840 
# 
# From -- ./inp_files/52645.got.cif
#   From: 2010.05.17/outbox.cif.g08.bks.cpg/sg64_27_cif.got.tgz:52645.got - 2010.06.03 16:29:19.
