data_PCOD9478217
_publ_section_title
;
Structure prediction by ZEFSAII (Michael W. Deem and Ramdas Pophale) SiO2 
 PCOD9478217
Probable space group: C M C A
;
_chemical_formula_sum "Si O2"
_cell_formula_units_Z 116
_cell_length_a 17.314804
_cell_length_b 15.166079
_cell_length_c 24.695761
_cell_angle_alpha 90.000000
_cell_angle_beta 90.000000
_cell_angle_gamma 90.000000
_cell_volume 6485.049676
_symmetry_space_group_name_H-M "C M C A"
_symmetry_group_IT_number 64
_symmetry_cell_setting 'orthorhombic'
loop_
_space_group_symop_operation_xyz
x,y,z
-x,1/2-y,1/2+z
x,-y,-z
-x,1/2+y,1/2-z
-x,-y,-z
x,1/2+y,1/2-z
-x,y,z
x,1/2-y,1/2+z
1/2+x,1/2+y,z
1/2-x,-y,1/2+z
1/2+x,1/2-y,-z
1/2-x,y,1/2-z
1/2-x,1/2-y,-z
1/2+x,y,1/2-z
1/2-x,1/2+y,z
1/2+x,-y,1/2+z
loop_
_atom_site_type_symbol
_atom_site_label
_atom_site_fract_x
_atom_site_fract_y
_atom_site_fract_z
Si Si1 0.200851 0.638617 0.086821
Si Si2 0.407388 0.944227 0.194094
Si Si3 0.907748 0.195070 0.786689
Si Si4 0.289731 0.896460 0.487513
Si Si5 0.140233 0.438943 0.073819
Si Si6 0.684294 0.625839 0.292660
Si Si7 0.908359 0.697858 0.587577
Si Si8 0.000000 0.500000 0.000000
O O1 0.169643 0.540182 0.077803
O O2 0.223799 0.644201 0.149278
O O3 0.129967 0.705968 0.080476
O O4 0.268569 0.652331 0.043549
O O5 0.500000 0.952036 0.194109
O O6 0.384462 0.878540 0.242850
O O7 0.381433 0.910924 0.134700
O O8 0.370601 0.040824 0.201893
O O9 0.864017 0.287065 0.777681
O O10 0.893904 0.169424 0.849761
O O11 0.000000 0.208790 0.781479
O O12 0.212239 0.886803 0.451233
O O13 0.362532 0.862025 0.454602
O O14 0.300045 0.000000 0.500000
O O15 0.067654 0.445545 0.034055
O O16 0.750000 0.606943 0.250000
O O17 0.000000 0.700146 0.578943
#
# Coordination Sequence:
#
# PCOD9478217 Si02
#       8
#    16  16  16  16  16  16  16   4
#     4   9  19  35  53  78 106 134 173 230 273 314
#     4  10  20  34  55  81 110 142 181 224 275 325
#     4   9  20  38  55  78 106 140 182 230 266 315
#     4  10  20  36  52  79 112 140 173 224 274 315
#     4  10  20  31  56  84 109 138 170 226 279 334
#     4  10  21  34  55  80 106 140 182 218 272 332
#     4  10  21  35  57  78 103 147 188 218 263 326
#     4  12  16  32  56  84 110 136 178 212 286 344
#
# _framework density 17.887295000000002
#
# number of rings (size 3 to 8) (size 9 to 14) (size 15 to 20)
#    0.000    2.207    2.759    0.828    0.966    8.000 
#    0.000    0.000    0.000    1.655    0.000    0.000 
#    0.000    0.000    0.000    0.000    0.000    0.000 
#
# Total GULP energy -322898.608138 kJ/mol
# GULP energy per Si atom -5567.217382 kJ/mol
# Density = 1.784658 g / cm^3
# Si number density = 17.887295 Si / 1000 Ang^3
#
#
#
# Elastic Constant Matrix: (Units=GPa)
#
#
# Indices 1 2 3 4 5 6 
#
# 1 26.1108 5.4543 31.8825 0.0000 0.0000 0.0000
# 2 5.4543 51.7278 40.8338 0.0000 0.0000 0.0000
# 3 31.8825 40.8338 106.6604 0.0000 0.0000 0.0000
# 4 0.0000 0.0000 0.0000 23.1786 0.0000 0.0000
# 5 0.0000 0.0000 0.0000 0.0000 29.6654 0.0000
# 6 0.0000 0.0000 0.0000 0.0000 0.0000 3.0500
#
#
#
# Elastic Compliance Matrix: (Units=1/GPa)
#
#
# Indices 1 2 3 4 5 6 
#
# 1 0.065284 0.012211 -0.024189 0.000000 0.000000 0.000000
# 2 0.012211 0.029989 -0.015131 0.000000 0.000000 0.000000
# 3 -0.024189 -0.015131 0.022399 0.000000 0.000000 0.000000
# 4 0.000000 0.000000 0.000000 0.043143 0.000000 0.000000
# 5 0.000000 0.000000 0.000000 0.000000 0.033709 0.000000
# 6 0.000000 0.000000 0.000000 0.000000 0.000000 0.327869
#
#
# Mechanical properties :
#
#
# Convention : Reuss Voigt Hill
#
# Bulk Modulus (GPa) = 15.75960 37.87115 26.81538
# Shear Modulus (GPa) = 8.36452 18.26736 13.31594
#
# Velocity S-wave (km/s) = 2.16481 3.19916 2.73139
# Velocity P-wave (km/s) = 3.88306 5.90460 4.99712
#
# Compressibility (1/GPa) = 0.06345338
#
# Stress axis : x y z
#
# Youngs Moduli (GPa) = 15.31772 33.34581 44.64500
#
# Poissons Ratio (x) = -0.40720 1.07994
# Poissons Ratio (y) = -0.18705 0.67553
# Poissons Ratio (z) = 0.37053 0.50456
#
# Static dielectric constant tensor:
#      x y z
#    x 1.577500 0.000000 0.000000 
#    y 0.000000 1.611590 0.000000 
#    z 0.000000 0.000000 1.650300 
# 
# From -- ./inp_files/45918.got.cif
#   From: 2010.05.17/outbox.cif.g08.bks.cpg/sg64_23_cif.got.tgz:45918.got - 2010.06.03 16:29:19.
