data_PCOD9478478
_publ_section_title
;
Structure prediction by ZEFSAII (Michael W. Deem and Ramdas Pophale) SiO2 
 PCOD9478478
Probable space group: C M C A
;
_chemical_formula_sum "Si O2"
_cell_formula_units_Z 112
_cell_length_a 7.752424
_cell_length_b 18.761615
_cell_length_c 36.981190
_cell_angle_alpha 90.000000
_cell_angle_beta 90.000000
_cell_angle_gamma 90.000000
_cell_volume 5378.839916
_symmetry_space_group_name_H-M "C M C A"
_symmetry_group_IT_number 64
_symmetry_cell_setting 'orthorhombic'
loop_
_space_group_symop_operation_xyz
x,y,z
-x,1/2-y,1/2+z
x,-y,-z
-x,1/2+y,1/2-z
-x,-y,-z
x,1/2+y,1/2-z
-x,y,z
x,1/2-y,1/2+z
1/2+x,1/2+y,z
1/2-x,-y,1/2+z
1/2+x,1/2-y,-z
1/2-x,y,1/2-z
1/2-x,1/2-y,-z
1/2+x,y,1/2-z
1/2-x,1/2+y,z
1/2+x,-y,1/2+z
loop_
_atom_site_type_symbol
_atom_site_label
_atom_site_fract_x
_atom_site_fract_y
_atom_site_fract_z
Si Si1 0.292342 0.666825 0.998674
Si Si2 0.202886 0.577828 0.569475
Si Si3 0.711494 0.171707 0.358795
Si Si4 0.211457 0.915928 0.929583
Si Si5 0.792862 0.081334 0.209489
Si Si6 0.206019 0.918062 0.209286
Si Si7 0.201459 0.666334 0.861437
O O1 0.500000 0.662193 0.998524
O O2 0.232132 0.625659 0.034522
O O3 0.250000 0.750000 0.000000
O O4 0.225630 0.627532 0.962578
O O5 0.273311 0.497557 0.570378
O O6 0.218724 0.616443 0.607886
O O7 0.000000 0.569527 0.561682
O O8 0.500000 0.172869 0.358017
O O9 0.764342 0.126089 0.393614
O O10 0.770073 0.132696 0.322192
O O11 0.771240 0.253180 0.361554
O O12 0.000000 0.916364 0.929291
O O13 0.750000 0.105668 0.250000
O O14 0.000000 0.078257 0.206678
O O15 0.728996 0.999779 0.205252
O O16 0.250000 0.894594 0.250000
O O17 0.277823 0.868548 0.177865
O O18 0.000000 0.918854 0.205454
O O19 0.000000 0.670517 0.870406
#
# Coordination Sequence:
#
# PCOD9478478 Si02
#       7
#    16  16  16  16  16  16  16
#     4  10  20  34  55  82 110 140 175 218 270 323
#     4  10  20  35  56  80 105 137 181 225 262 311
#     4   9  18  32  51  75 103 136 174 216 264 316
#     4   9  17  33  56  78 102 137 181 224 265 314
#     4   9  18  34  55  77 101 133 173 215 258 306
#     4  10  20  36  58  81 107 140 179 222 265 313
#     4  11  22  35  53  79 111 143 175 215 267 322
#
# _framework density 20.822334999999999
#
# number of rings (size 3 to 8) (size 9 to 14) (size 15 to 20)
#    0.000    2.286    0.000    3.000    0.000    6.857 
#    0.000    3.571    0.000    6.000    0.000    0.000 
#    0.000    0.000    0.000    0.000    0.000    0.000 
#
# Total GULP energy -312826.173370 kJ/mol
# GULP energy per Si atom -5586.181667 kJ/mol
# Density = 2.077494 g / cm^3
# Si number density = 20.822335 Si / 1000 Ang^3
#
#
#
# Elastic Constant Matrix: (Units=GPa)
#
#
# Indices 1 2 3 4 5 6 
#
# 1 28.2545 -0.3131 -9.6540 0.0000 0.0000 0.0000
# 2 -0.3131 195.2282 121.9868 0.0000 0.0000 0.0000
# 3 -9.6540 121.9868 173.1759 0.0000 0.0000 0.0000
# 4 0.0000 0.0000 0.0000 57.8480 0.0000 0.0000
# 5 0.0000 0.0000 0.0000 0.0000 16.1204 0.0000
# 6 0.0000 0.0000 0.0000 0.0000 0.0000 63.7476
#
#
#
# Elastic Compliance Matrix: (Units=1/GPa)
#
#
# Indices 1 2 3 4 5 6 
#
# 1 0.036588 -0.002172 0.003569 0.000000 0.000000 0.000000
# 2 -0.002172 0.009278 -0.006657 0.000000 0.000000 0.000000
# 3 0.003569 -0.006657 0.010662 0.000000 0.000000 0.000000
# 4 0.000000 0.000000 0.000000 0.017287 0.000000 0.000000
# 5 0.000000 0.000000 0.000000 0.000000 0.062033 0.000000
# 6 0.000000 0.000000 0.000000 0.000000 0.000000 0.015687
#
#
# Mechanical properties :
#
#
# Convention : Reuss Voigt Hill
#
# Bulk Modulus (GPa) = 21.73398 68.96645 45.35021
# Shear Modulus (GPa) = 28.18647 46.51914 37.35281
#
# Velocity S-wave (km/s) = 3.68321 4.73175 4.24002
# Velocity P-wave (km/s) = 5.34308 7.94015 6.76737
#
# Compressibility (1/GPa) = 0.04601090
#
# Stress axis : x y z
#
# Youngs Moduli (GPa) = 27.33129 107.78105 93.78706
#
# Poissons Ratio (x) = 0.23406 -0.33476
# Poissons Ratio (y) = 0.05935 0.62431
# Poissons Ratio (z) = -0.09756 0.71746
#
# Static dielectric constant tensor:
#      x y z
#    x 1.792090 0.000000 0.000000 
#    y 0.000000 1.722730 0.000000 
#    z 0.000000 0.000000 1.707020 
# 
# From -- ./inp_files/52828.got.cif
#   From: 2010.05.17/outbox.cif.g08.bks.cpg/sg64_27_cif.got.tgz:52828.got - 2010.06.03 16:29:19.
