data_PCOD9478255
_publ_section_title
;
Structure prediction by ZEFSAII (Michael W. Deem and Ramdas Pophale) SiO2 
 PCOD9478255
Probable space group: C M C A
;
_chemical_formula_sum "Si O2"
_cell_formula_units_Z 112
_cell_length_a 22.484998
_cell_length_b 25.251843
_cell_length_c 11.577269
_cell_angle_alpha 90.000000
_cell_angle_beta 90.000000
_cell_angle_gamma 90.000000
_cell_volume 6573.430236
_symmetry_space_group_name_H-M "C M C A"
_symmetry_group_IT_number 64
_symmetry_cell_setting 'orthorhombic'
loop_
_space_group_symop_operation_xyz
x,y,z
-x,1/2-y,1/2+z
x,-y,-z
-x,1/2+y,1/2-z
-x,-y,-z
x,1/2+y,1/2-z
-x,y,z
x,1/2-y,1/2+z
1/2+x,1/2+y,z
1/2-x,-y,1/2+z
1/2+x,1/2-y,-z
1/2-x,y,1/2-z
1/2-x,1/2-y,-z
1/2+x,y,1/2-z
1/2-x,1/2+y,z
1/2+x,-y,1/2+z
loop_
_atom_site_type_symbol
_atom_site_label
_atom_site_fract_x
_atom_site_fract_y
_atom_site_fract_z
Si Si1 0.068716 0.996516 0.139988
Si Si2 0.159213 0.711001 0.003440
Si Si3 0.570685 0.611460 0.108101
Si Si4 0.224816 0.691859 0.627270
Si Si5 0.622151 0.886161 0.352032
Si Si6 0.432866 0.813687 0.819245
Si Si7 0.566707 0.204392 0.799241
O O1 0.087939 0.056114 0.170133
O O2 0.000000 0.986743 0.175920
O O3 0.109977 0.947677 0.175951
O O4 0.068576 0.000000 0.000000
O O5 0.182309 0.764536 0.066468
O O6 0.119530 0.676844 0.091006
O O7 0.218738 0.683888 0.955300
O O8 0.115113 0.719493 0.895396
O O9 0.500000 0.607198 0.084608
O O10 0.579957 0.658330 0.197768
O O11 0.601240 0.619939 0.985191
O O12 0.250000 0.712641 0.750000
O O13 0.187705 0.638868 0.652500
O O14 0.584066 0.849465 0.265763
O O15 0.500000 0.829824 0.855167
O O16 0.433695 0.751001 0.795153
O O17 0.500000 0.201693 0.848957
#
# Coordination Sequence:
#
# PCOD9478255 Si02
#       7
#    16  16  16  16  16  16  16
#     4   8  15  29  52  80 106 134 172 218 268 318
#     4  11  21  37  51  72 109 146 182 210 254 322
#     4   9  18  33  54  81 110 140 172 213 270 327
#     4  11  22  36  53  72 104 148 187 219 249 309
#     4  11  18  32  54  80 107 134 178 227 262 303
#     4  10  20  32  51  78 112 141 168 215 267 319
#     4  11  21  32  52  83 112 136 168 219 279 320
#
# _framework density 17.038288000000001
#
# number of rings (size 3 to 8) (size 9 to 14) (size 15 to 20)
#    0.000    1.857    2.857    3.429    0.000    1.143 
#    0.000    0.000    0.000    6.000    0.000    4.000 
#    0.000    0.000    0.000    0.000    0.000    0.000 
#
# Total GULP energy -311999.619769 kJ/mol
# GULP energy per Si atom -5571.421782 kJ/mol
# Density = 1.699951 g / cm^3
# Si number density = 17.038288 Si / 1000 Ang^3
#
#
#
# Elastic Constant Matrix: (Units=GPa)
#
#
# Indices 1 2 3 4 5 6 
#
# 1 103.1509 20.9679 34.3083 0.0000 0.0000 0.0000
# 2 20.9679 68.6673 11.9583 0.0000 0.0000 0.0000
# 3 34.3083 11.9583 51.4721 0.0000 0.0000 0.0000
# 4 0.0000 0.0000 0.0000 18.2938 0.0000 0.0000
# 5 0.0000 0.0000 0.0000 0.0000 37.5188 0.0000
# 6 0.0000 0.0000 0.0000 0.0000 0.0000 -2.0887
#
#
#
# Elastic Compliance Matrix: (Units=1/GPa)
#
#
# Indices 1 2 3 4 5 6 
#
# 1 0.012867 -0.002538 -0.007987 0.000000 0.000000 0.000000
# 2 -0.002538 0.015678 -0.001951 0.000000 0.000000 0.000000
# 3 -0.007987 -0.001951 0.025205 0.000000 0.000000 0.000000
# 4 0.000000 0.000000 0.000000 0.054663 0.000000 0.000000
# 5 0.000000 0.000000 0.000000 0.000000 0.026653 0.000000
# 6 0.000000 0.000000 0.000000 0.000000 0.000000 -0.478759
#
#
# Mechanical properties :
#
#
# Convention : Reuss Voigt Hill
#
# Bulk Modulus (GPa) = 34.72403 39.75105 37.23754
# Shear Modulus (GPa) = -16.17376 21.14848 2.48736
#
# Velocity S-wave (km/s) = -3.08435 3.52694 1.20956
# Velocity P-wave (km/s) = 2.78208 6.32193 4.88399
#
# Compressibility (1/GPa) = 0.02879850
#
# Stress axis : x y z
#
# Youngs Moduli (GPa) = 77.71913 63.78486 39.67528
#
# Poissons Ratio (x) = 0.16189 0.31687
# Poissons Ratio (y) = 0.19726 0.07739
# Poissons Ratio (z) = 0.62071 0.12442
#
# Static dielectric constant tensor:
#      x y z
#    x 1.599810 0.000000 0.000000 
#    y 0.000000 1.593050 0.000000 
#    z 0.000000 0.000000 1.587100 
# 
# From -- ./inp_files/17543.got.cif
#   From: 2010.05.17/outbox.cif.g08.bks.cpg/sg64_9_cif.got.tgz:17543.got - 2010.06.03 16:29:19.
