data_PCOD9478294
_publ_section_title
;
Structure prediction by ZEFSAII (Michael W. Deem and Ramdas Pophale) SiO2 
 PCOD9478294
Probable space group: C M C A
;
_chemical_formula_sum "Si O2"
_cell_formula_units_Z 96
_cell_length_a 7.637722
_cell_length_b 19.736679
_cell_length_c 31.145533
_cell_angle_alpha 90.000000
_cell_angle_beta 90.000000
_cell_angle_gamma 90.000000
_cell_volume 4694.979409
_symmetry_space_group_name_H-M "C M C A"
_symmetry_group_IT_number 64
_symmetry_cell_setting 'orthorhombic'
loop_
_space_group_symop_operation_xyz
x,y,z
-x,1/2-y,1/2+z
x,-y,-z
-x,1/2+y,1/2-z
-x,-y,-z
x,1/2+y,1/2-z
-x,y,z
x,1/2-y,1/2+z
1/2+x,1/2+y,z
1/2-x,-y,1/2+z
1/2+x,1/2-y,-z
1/2-x,y,1/2-z
1/2-x,1/2-y,-z
1/2+x,y,1/2-z
1/2-x,1/2+y,z
1/2+x,-y,1/2+z
loop_
_atom_site_type_symbol
_atom_site_label
_atom_site_fract_x
_atom_site_fract_y
_atom_site_fract_z
Si Si1 0.211922 0.823779 0.050038
Si Si2 0.789965 0.323608 0.700822
Si Si3 0.291449 0.329895 0.299254
Si Si4 0.794445 0.075350 0.877361
Si Si5 0.784508 0.421934 0.625345
Si Si6 0.291452 0.330263 0.952710
O O1 0.278990 0.877990 0.084367
O O2 0.259543 0.746852 0.062078
O O3 0.000000 0.826474 0.049342
O O4 0.277016 0.836442 0.001415
O O5 0.750000 0.341980 0.750000
O O6 0.723372 0.246859 0.693102
O O7 0.726239 0.377747 0.666222
O O8 0.000000 0.320530 0.696773
O O9 0.500000 0.328679 0.304241
O O10 0.250000 0.347537 0.250000
O O11 0.221203 0.383093 0.333377
O O12 0.000000 0.067298 0.887085
O O13 0.723304 0.999433 0.873680
O O14 0.726300 0.383521 0.582167
O O15 0.000000 0.421734 0.626026
O O16 0.500000 0.339830 0.955255
#
# Coordination Sequence:
#
# PCOD9478294 Si02
#       6
#    16  16  16  16  16  16
#     4   9  18  31  50  76 101 128 165 209 253 293
#     4   9  18  33  52  72  93 122 161 202 242 286
#     4  10  20  35  55  76  98 128 166 205 245 290
#     4  10  20  33  49  73 105 134 162 201 247 297
#     4   9  18  32  50  72  99 131 165 201 243 293
#     4   9  17  32  53  73  96 130 170 209 249 295
#
# _framework density 20.447372999999999
#
# number of rings (size 3 to 8) (size 9 to 14) (size 15 to 20)
#    0.000    2.667    0.000    1.500    0.000    4.000 
#    0.000    7.500    0.000    0.000    0.000    5.833 
#    0.000    0.000    0.000    0.000    0.000    0.000 
#
# Total GULP energy -267928.191291 kJ/mol
# GULP energy per Si atom -5581.837319 kJ/mol
# Density = 2.040083 g / cm^3
# Si number density = 20.447373 Si / 1000 Ang^3
#
#
#
# Elastic Constant Matrix: (Units=GPa)
#
#
# Indices 1 2 3 4 5 6 
#
# 1 34.0536 -6.7227 -10.8717 0.0000 0.0000 0.0000
# 2 -6.7227 183.5152 130.3243 0.0000 0.0000 0.0000
# 3 -10.8717 130.3243 131.5335 0.0000 0.0000 0.0000
# 4 0.0000 0.0000 0.0000 9.8668 0.0000 0.0000
# 5 0.0000 0.0000 0.0000 0.0000 14.7780 0.0000
# 6 0.0000 0.0000 0.0000 0.0000 0.0000 27.5770
#
#
#
# Elastic Compliance Matrix: (Units=1/GPa)
#
#
# Indices 1 2 3 4 5 6 
#
# 1 0.030438 -0.002266 0.004761 0.000000 0.000000 0.000000
# 2 -0.002266 0.018555 -0.018572 0.000000 0.000000 0.000000
# 3 0.004761 -0.018572 0.026397 0.000000 0.000000 0.000000
# 4 0.000000 0.000000 0.000000 0.101349 0.000000 0.000000
# 5 0.000000 0.000000 0.000000 0.000000 0.067668 0.000000
# 6 0.000000 0.000000 0.000000 0.000000 0.000000 0.036262
#
#
# Mechanical properties :
#
#
# Convention : Reuss Voigt Hill
#
# Bulk Modulus (GPa) = 23.12844 63.84022 43.48433
# Shear Modulus (GPa) = 15.27954 26.20252 20.74103
#
# Velocity S-wave (km/s) = 2.73657 3.58363 3.18836
# Velocity P-wave (km/s) = 4.61745 6.95793 5.90481
#
# Compressibility (1/GPa) = 0.04323680
#
# Stress axis : x y z
#
# Youngs Moduli (GPa) = 32.85353 53.89440 37.88317
#
# Poissons Ratio (x) = 0.12213 -0.18036
# Poissons Ratio (y) = 0.07445 0.70355
# Poissons Ratio (z) = -0.15642 1.00090
#
# Static dielectric constant tensor:
#      x y z
#    x 1.780570 0.000000 0.000000 
#    y 0.000000 1.704520 0.000000 
#    z 0.000000 0.000000 1.707510 
# 
# From -- ./inp_files/44235.got.cif
#   From: 2010.05.17/outbox.cif.g08.bks.cpg/sg64_23_cif.got.tgz:44235.got - 2010.06.03 16:29:19.
