data_PCOD9478867
_publ_section_title
;
Structure prediction by ZEFSAII (Michael W. Deem and Ramdas Pophale) SiO2 
 PCOD9478867
Probable space group: C M C A
;
_chemical_formula_sum "Si O2"
_cell_formula_units_Z 96
_cell_length_a 15.489073
_cell_length_b 13.974746
_cell_length_c 20.542377
_cell_angle_alpha 90.000000
_cell_angle_beta 90.000000
_cell_angle_gamma 90.000000
_cell_volume 4446.517900
_symmetry_space_group_name_H-M "C M C A"
_symmetry_group_IT_number 64
_symmetry_cell_setting 'orthorhombic'
loop_
_space_group_symop_operation_xyz
x,y,z
-x,1/2-y,1/2+z
x,-y,-z
-x,1/2+y,1/2-z
-x,-y,-z
x,1/2+y,1/2-z
-x,y,z
x,1/2-y,1/2+z
1/2+x,1/2+y,z
1/2-x,-y,1/2+z
1/2+x,1/2-y,-z
1/2-x,y,1/2-z
1/2-x,1/2-y,-z
1/2+x,y,1/2-z
1/2-x,1/2+y,z
1/2+x,-y,1/2+z
loop_
_atom_site_type_symbol
_atom_site_label
_atom_site_fract_x
_atom_site_fract_y
_atom_site_fract_z
Si Si1 0.810057 0.528822 0.187941
Si Si2 0.400231 0.213329 0.386717
Si Si3 0.596012 0.777980 0.851826
Si Si4 0.901630 0.660088 0.013010
Si Si5 0.352261 0.660746 0.736167
Si Si6 0.769716 0.946759 0.939397
O O1 0.750000 0.543569 0.250000
O O2 0.845318 0.632690 0.168924
O O3 0.874754 0.444188 0.208661
O O4 0.759510 0.492554 0.123621
O O5 0.500000 0.179709 0.384679
O O6 0.394516 0.294522 0.442368
O O7 0.376436 0.260129 0.317503
O O8 0.332632 0.133219 0.409362
O O9 0.500000 0.814667 0.841352
O O10 0.605740 0.761117 0.928880
O O11 0.608269 0.688675 0.805215
O O12 0.819752 0.594434 0.029505
O O13 0.000000 0.618922 0.018945
O O14 0.250000 0.661696 0.750000
O O15 0.813011 0.000000 0.000000
#
# Coordination Sequence:
#
# PCOD9478867 Si02
#       6
#    16  16  16  16  16  16
#     4  10  22  38  57  85 116 152 198 249 305 365
#     4  11  23  39  61  88 121 162 206 254 310 371
#     4  10  20  36  58  84 118 156 195 246 302 362
#     4   9  20  38  60  88 120 157 203 254 308 363
#     4  11  22  38  61  85 115 155 201 253 308 365
#     4  11  22  37  60  87 119 161 205 253 308 365
#
# _framework density 21.589928
#
# number of rings (size 3 to 8) (size 9 to 14) (size 15 to 20)
#    0.000    1.667    0.000    5.500    0.000    4.667 
#    0.000    3.333    0.000    6.000    0.000    0.000 
#    0.000    0.000    0.000    0.000    0.000    0.000 
#
# Total GULP energy -267797.367265 kJ/mol
# GULP energy per Si atom -5579.111818 kJ/mol
# Density = 2.154079 g / cm^3
# Si number density = 21.589928 Si / 1000 Ang^3
#
#
#
# Elastic Constant Matrix: (Units=GPa)
#
#
# Indices 1 2 3 4 5 6 
#
# 1 84.4444 6.7080 6.5399 0.0000 0.0000 0.0000
# 2 6.7080 30.3226 -6.0146 0.0000 0.0000 0.0000
# 3 6.5399 -6.0146 90.0035 0.0000 0.0000 0.0000
# 4 0.0000 0.0000 0.0000 27.1046 0.0000 0.0000
# 5 0.0000 0.0000 0.0000 0.0000 19.9809 0.0000
# 6 0.0000 0.0000 0.0000 0.0000 0.0000 -225.6564
#
#
#
# Elastic Compliance Matrix: (Units=1/GPa)
#
#
# Indices 1 2 3 4 5 6 
#
# 1 0.012156 -0.002903 -0.001077 0.000000 0.000000 0.000000
# 2 -0.002903 0.034115 0.002491 0.000000 0.000000 0.000000
# 3 -0.001077 0.002491 0.011355 0.000000 0.000000 0.000000
# 4 0.000000 0.000000 0.000000 0.036894 0.000000 0.000000
# 5 0.000000 0.000000 0.000000 0.000000 0.050048 0.000000
# 6 0.000000 0.000000 0.000000 0.000000 0.000000 -0.004432
#
#
# Mechanical properties :
#
#
# Convention : Reuss Voigt Hill
#
# Bulk Modulus (GPa) = 18.29911 24.35969 21.32940
# Shear Modulus (GPa) = 30.99205 -22.54505 4.22350
#
# Velocity S-wave (km/s) = 3.79289 -3.23497 1.40017
# Velocity P-wave (km/s) = 5.26075 1.62666 3.53762
#
# Compressibility (1/GPa) = 0.05464748
#
# Stress axis : x y z
#
# Youngs Moduli (GPa) = 82.26295 29.31271 88.06386
#
# Poissons Ratio (x) = 0.08509 0.09487
# Poissons Ratio (y) = 0.23880 -0.21934
# Poissons Ratio (z) = 0.08862 -0.07301
#
# Static dielectric constant tensor:
#      x y z
#    x 1.827280 0.000000 0.000000 
#    y 0.000000 1.804740 0.000000 
#    z 0.000000 0.000000 1.803020 
# 
# From -- ./inp_files/39247.got.cif
#   From: 2010.05.17/outbox.cif.g08.bks.cpg/sg64_20_cif.got.tgz:39247.got - 2010.06.03 16:29:19.
