data_PCOD9478380
_publ_section_title
;
Structure prediction by ZEFSAII (Michael W. Deem and Ramdas Pophale) SiO2 
 PCOD9478380
Probable space group: C M C A
;
_chemical_formula_sum "Si O2"
_cell_formula_units_Z 96
_cell_length_a 22.874069
_cell_length_b 25.923943
_cell_length_c 8.563478
_cell_angle_alpha 90.000000
_cell_angle_beta 90.000000
_cell_angle_gamma 90.000000
_cell_volume 5078.023087
_symmetry_space_group_name_H-M "C M C A"
_symmetry_group_IT_number 64
_symmetry_cell_setting 'orthorhombic'
loop_
_space_group_symop_operation_xyz
x,y,z
-x,1/2-y,1/2+z
x,-y,-z
-x,1/2+y,1/2-z
-x,-y,-z
x,1/2+y,1/2-z
-x,y,z
x,1/2-y,1/2+z
1/2+x,1/2+y,z
1/2-x,-y,1/2+z
1/2+x,1/2-y,-z
1/2-x,y,1/2-z
1/2-x,1/2-y,-z
1/2+x,y,1/2-z
1/2-x,1/2+y,z
1/2+x,-y,1/2+z
loop_
_atom_site_type_symbol
_atom_site_label
_atom_site_fract_x
_atom_site_fract_y
_atom_site_fract_z
Si Si1 0.571053 0.107146 0.793469
Si Si2 0.000000 0.323033 0.808552
Si Si3 0.182571 0.704119 0.280873
Si Si4 0.379912 0.202762 0.603416
Si Si5 0.500000 0.254564 0.963616
Si Si6 0.111233 0.614463 0.154030
Si Si7 0.067347 0.007705 0.311325
O O1 0.500000 0.111407 0.786712
O O2 0.603570 0.150538 0.693476
O O3 0.583622 0.047891 0.742491
O O4 0.594760 0.112083 0.970948
O O5 0.000000 0.269394 0.716617
O O6 0.056580 0.355462 0.769560
O O7 0.000000 0.304926 0.988076
O O8 0.250000 0.715641 0.250000
O O9 0.144513 0.752084 0.215331
O O10 0.165821 0.696318 0.461847
O O11 0.165028 0.651576 0.190009
O O12 0.440409 0.221808 0.527868
O O13 0.109222 0.556263 0.217978
O O14 0.000000 0.020690 0.267419
O O15 0.066268 0.000000 0.500000
#
# Coordination Sequence:
#
# PCOD9478380 Si02
#       7
#    16   8  16  16   8  16  16
#     4  10  20  33  60  95 125 149 184 237 310 377
#     4  12  22  32  54  87 122 156 188 234 313 358
#     4  12  27  43  59  80 114 165 210 246 285 346
#     4  12  23  39  60  85 121 151 193 246 306 363
#     4  12  22  34  53  89 121 143 184 247 315 360
#     4  11  19  35  61  84 120 158 197 243 294 359
#     4   8  15  30  54  89 122 151 183 230 294 370
#
# _framework density 18.904993999999999
#
# number of rings (size 3 to 8) (size 9 to 14) (size 15 to 20)
#    0.000    1.167    5.833    2.500    2.333    0.000 
#    0.000    0.833    0.000   10.000    0.000    0.000 
#    0.000    0.000    0.000    0.000    0.000    0.000 
#
# Total GULP energy -267868.758932 kJ/mol
# GULP energy per Si atom -5580.599144 kJ/mol
# Density = 1.886197 g / cm^3
# Si number density = 18.904994 Si / 1000 Ang^3
#
#
#
# Elastic Constant Matrix: (Units=GPa)
#
#
# Indices 1 2 3 4 5 6 
#
# 1 72.3149 33.5044 23.7309 0.0000 0.0000 0.0000
# 2 33.5044 158.6857 49.3072 0.0000 0.0000 0.0000
# 3 23.7309 49.3072 61.9235 0.0000 0.0000 0.0000
# 4 0.0000 0.0000 0.0000 22.7382 0.0000 0.0000
# 5 0.0000 0.0000 0.0000 0.0000 19.5274 0.0000
# 6 0.0000 0.0000 0.0000 0.0000 0.0000 13.4134
#
#
#
# Elastic Compliance Matrix: (Units=1/GPa)
#
#
# Indices 1 2 3 4 5 6 
#
# 1 0.016278 -0.001991 -0.004653 0.000000 0.000000 0.000000
# 2 -0.001991 0.008617 -0.006098 0.000000 0.000000 0.000000
# 3 -0.004653 -0.006098 0.022788 0.000000 0.000000 0.000000
# 4 0.000000 0.000000 0.000000 0.043979 0.000000 0.000000
# 5 0.000000 0.000000 0.000000 0.000000 0.051210 0.000000
# 6 0.000000 0.000000 0.000000 0.000000 0.000000 0.074552
#
#
# Mechanical properties :
#
#
# Convention : Reuss Voigt Hill
#
# Bulk Modulus (GPa) = 45.04836 56.22325 50.63580
# Shear Modulus (GPa) = 19.97541 23.56124 21.76832
#
# Velocity S-wave (km/s) = 3.25410 3.53412 3.39700
# Velocity P-wave (km/s) = 6.16437 6.81600 6.49835
#
# Compressibility (1/GPa) = 0.02219837
#
# Stress axis : x y z
#
# Youngs Moduli (GPa) = 61.43355 116.04888 43.88306
#
# Poissons Ratio (x) = 0.23107 0.20417
# Poissons Ratio (y) = 0.12232 0.26761
# Poissons Ratio (z) = 0.28583 0.70771
#
# Static dielectric constant tensor:
#      x y z
#    x 1.628530 0.000000 0.000000 
#    y 0.000000 1.688520 0.000000 
#    z 0.000000 0.000000 1.704540 
# 
# From -- ./inp_files/9626.got.cif
#   From: 2010.05.17/outbox.cif.g08.bks.cpg/sg64_5_cif.got.tgz:9626.got - 2010.06.03 16:29:19.
