data_PCOD9478753
_publ_section_title
;
Structure prediction by ZEFSAII (Michael W. Deem and Ramdas Pophale) SiO2 
 PCOD9478753
Probable space group: C M C A
;
_chemical_formula_sum "Si O2"
_cell_formula_units_Z 112
_cell_length_a 13.675014
_cell_length_b 23.961653
_cell_length_c 16.380714
_cell_angle_alpha 90.000000
_cell_angle_beta 90.000000
_cell_angle_gamma 90.000000
_cell_volume 5367.565862
_symmetry_space_group_name_H-M "C M C A"
_symmetry_group_IT_number 64
_symmetry_cell_setting 'orthorhombic'
loop_
_space_group_symop_operation_xyz
x,y,z
-x,1/2-y,1/2+z
x,-y,-z
-x,1/2+y,1/2-z
-x,-y,-z
x,1/2+y,1/2-z
-x,y,z
x,1/2-y,1/2+z
1/2+x,1/2+y,z
1/2-x,-y,1/2+z
1/2+x,1/2-y,-z
1/2-x,y,1/2-z
1/2-x,1/2-y,-z
1/2+x,y,1/2-z
1/2-x,1/2+y,z
1/2+x,-y,1/2+z
loop_
_atom_site_type_symbol
_atom_site_label
_atom_site_fract_x
_atom_site_fract_y
_atom_site_fract_z
Si Si1 0.109561 0.440111 0.958684
Si Si2 0.616833 0.122856 0.319015
Si Si3 0.885387 0.610219 0.772534
Si Si4 0.883645 0.518444 0.222828
Si Si5 0.744993 0.154814 0.034450
Si Si6 0.788470 0.824761 0.144214
Si Si7 0.616530 0.790938 0.830174
O O1 0.127709 0.450147 0.863059
O O2 0.194501 0.402534 0.994177
O O3 0.000000 0.416010 0.969113
O O4 0.109054 0.500000 0.000000
O O5 0.500000 0.121302 0.331400
O O6 0.671406 0.143653 0.399173
O O7 0.634217 0.165226 0.243343
O O8 0.652226 0.060801 0.292550
O O9 0.852469 0.545857 0.782817
O O10 0.864248 0.629382 0.679472
O O11 0.816221 0.651625 0.824728
O O12 0.000000 0.615228 0.793019
O O13 0.000000 0.514120 0.236346
O O14 0.658981 0.184314 0.085718
O O15 0.783820 0.182954 0.952781
O O16 0.825730 0.766614 0.181420
O O17 0.500000 0.781474 0.834537
#
# Coordination Sequence:
#
# PCOD9478753 Si02
#       7
#    16  16  16  16  16  16  16
#     4  10  20  35  61  98 137 171 215 275 329 382
#     4  10  23  41  67  97 131 173 221 270 332 398
#     4  10  23  44  69  90 131 182 222 267 326 391
#     4   9  18  38  63  94 127 172 223 263 317 393
#     4  12  24  39  65 101 133 167 218 276 334 392
#     4  11  26  43  63  97 133 167 227 270 325 391
#     4  11  24  46  68  92 129 174 218 272 330 393
#
# _framework density 20.866067999999999
#
# number of rings (size 3 to 8) (size 9 to 14) (size 15 to 20)
#    0.000    1.571    1.429    2.571    4.000    6.857 
#    0.000    0.000    0.000    3.000    0.000    0.000 
#    0.000    0.000    0.000    0.000    0.000    0.000 
#
# Total GULP energy -312770.277790 kJ/mol
# GULP energy per Si atom -5585.183532 kJ/mol
# Density = 2.081858 g / cm^3
# Si number density = 20.866068 Si / 1000 Ang^3
#
#
#
# Elastic Constant Matrix: (Units=GPa)
#
#
# Indices 1 2 3 4 5 6 
#
# 1 95.1137 37.0239 21.5782 0.0000 0.0000 0.0000
# 2 37.0239 99.1933 20.8111 0.0000 0.0000 0.0000
# 3 21.5782 20.8111 97.7859 0.0000 0.0000 0.0000
# 4 0.0000 0.0000 0.0000 22.1386 0.0000 0.0000
# 5 0.0000 0.0000 0.0000 0.0000 16.0125 0.0000
# 6 0.0000 0.0000 0.0000 0.0000 0.0000 26.7854
#
#
#
# Elastic Compliance Matrix: (Units=1/GPa)
#
#
# Indices 1 2 3 4 5 6 
#
# 1 0.012618 -0.004318 -0.001865 0.000000 0.000000 0.000000
# 2 -0.004318 0.012030 -0.001607 0.000000 0.000000 0.000000
# 3 -0.001865 -0.001607 0.010980 0.000000 0.000000 0.000000
# 4 0.000000 0.000000 0.000000 0.045170 0.000000 0.000000
# 5 0.000000 0.000000 0.000000 0.000000 0.062451 0.000000
# 6 0.000000 0.000000 0.000000 0.000000 0.000000 0.037334
#
#
# Mechanical properties :
#
#
# Convention : Reuss Voigt Hill
#
# Bulk Modulus (GPa) = 49.88452 50.10214 49.99333
# Shear Modulus (GPa) = 24.64905 27.16594 25.90749
#
# Velocity S-wave (km/s) = 3.44073 3.61213 3.52747
# Velocity P-wave (km/s) = 6.30426 6.43895 6.37196
#
# Compressibility (1/GPa) = 0.02004630
#
# Stress axis : x y z
#
# Youngs Moduli (GPa) = 79.25290 83.12303 91.07352
#
# Poissons Ratio (x) = 0.35895 0.16988
# Poissons Ratio (y) = 0.34223 0.14640
# Poissons Ratio (z) = 0.14783 0.13362
#
# Static dielectric constant tensor:
#      x y z
#    x 1.757520 0.000000 0.000000 
#    y 0.000000 1.811040 0.000000 
#    z 0.000000 0.000000 1.766000 
# 
# From -- ./inp_files/24286.got.cif
#   From: 2010.05.17/outbox.cif.g08.bks.cpg/sg64_13_cif.got.tgz:24286.got - 2010.06.03 16:29:19.
