data_PCOD9478033
_publ_section_title
;
Structure prediction by ZEFSAII (Michael W. Deem and Ramdas Pophale) SiO2 
 PCOD9478033
Probable space group: C M C A
;
_chemical_formula_sum "Si O2"
_cell_formula_units_Z 112
_cell_length_a 22.451719
_cell_length_b 12.748079
_cell_length_c 20.144380
_cell_angle_alpha 90.000000
_cell_angle_beta 90.000000
_cell_angle_gamma 90.000000
_cell_volume 5765.649658
_symmetry_space_group_name_H-M "C M C A"
_symmetry_group_IT_number 64
_symmetry_cell_setting 'orthorhombic'
loop_
_space_group_symop_operation_xyz
x,y,z
-x,1/2-y,1/2+z
x,-y,-z
-x,1/2+y,1/2-z
-x,-y,-z
x,1/2+y,1/2-z
-x,y,z
x,1/2-y,1/2+z
1/2+x,1/2+y,z
1/2-x,-y,1/2+z
1/2+x,1/2-y,-z
1/2-x,y,1/2-z
1/2-x,1/2-y,-z
1/2+x,y,1/2-z
1/2-x,1/2+y,z
1/2+x,-y,1/2+z
loop_
_atom_site_type_symbol
_atom_site_label
_atom_site_fract_x
_atom_site_fract_y
_atom_site_fract_z
Si Si1 0.069215 0.465386 0.155823
Si Si2 0.311670 0.876656 0.992228
Si Si3 0.570684 0.549799 0.197699
Si Si4 0.433106 0.838629 0.939545
Si Si5 0.118059 0.672586 0.661165
Si Si6 0.862823 0.261232 0.186783
Si Si7 0.243942 0.764058 0.111450
O O1 0.084356 0.527097 0.224206
O O2 0.073572 0.548466 0.096506
O O3 0.110007 0.363249 0.150223
O O4 0.000000 0.432179 0.161971
O O5 0.378696 0.831540 0.990091
O O6 0.281040 0.842194 0.922561
O O7 0.275445 0.825782 0.051880
O O8 0.312590 0.000000 0.000000
O O9 0.500000 0.565074 0.192089
O O10 0.590834 0.443243 0.161834
O O11 0.604653 0.651895 0.171754
O O12 0.500000 0.830337 0.966436
O O13 0.421366 0.750453 0.883612
O O14 0.122941 0.714957 0.736205
O O15 0.185510 0.674734 0.634877
O O16 0.793414 0.250573 0.168161
#
# Coordination Sequence:
#
# PCOD9478033 Si02
#       7
#    16  16  16  16  16  16  16
#     4   9  18  32  53  83 117 149 181 228 283 337
#     4  10  22  40  59  79 107 149 194 243 287 326
#     4  10  20  33  55  86 120 156 185 227 288 347
#     4  10  19  36  61  84 111 146 191 239 285 340
#     4  10  21  37  57  87 118 153 190 230 284 354
#     4  11  20  35  56  88 120 151 187 231 284 349
#     4  10  23  39  56  82 113 151 196 234 287 336
#
# _framework density 19.425391000000001
#
# number of rings (size 3 to 8) (size 9 to 14) (size 15 to 20)
#    0.000    2.000    1.429    2.143    2.000    1.429 
#    0.000    2.857    0.000    0.000    0.000    4.000 
#    0.000    0.000    0.000    0.000    0.000    0.000 
#
# Total GULP energy -312735.907951 kJ/mol
# GULP energy per Si atom -5584.569785 kJ/mol
# Density = 1.938118 g / cm^3
# Si number density = 19.425391 Si / 1000 Ang^3
#
#
#
# Elastic Constant Matrix: (Units=GPa)
#
#
# Indices 1 2 3 4 5 6 
#
# 1 82.3401 36.1941 -6.7912 0.0000 0.0000 0.0000
# 2 36.1941 75.7403 2.1290 0.0000 0.0000 0.0000
# 3 -6.7912 2.1290 14.1511 0.0000 0.0000 0.0000
# 4 0.0000 0.0000 0.0000 13.1696 0.0000 0.0000
# 5 0.0000 0.0000 0.0000 0.0000 -5.8765 0.0000
# 6 0.0000 0.0000 0.0000 0.0000 0.0000 25.6791
#
#
#
# Elastic Compliance Matrix: (Units=1/GPa)
#
#
# Indices 1 2 3 4 5 6 
#
# 1 0.016470 -0.008127 0.009127 0.000000 0.000000 0.000000
# 2 -0.008127 0.017269 -0.006498 0.000000 0.000000 0.000000
# 3 0.009127 -0.006498 0.076023 0.000000 0.000000 0.000000
# 4 0.000000 0.000000 0.000000 0.075932 0.000000 0.000000
# 5 0.000000 0.000000 0.000000 0.000000 -0.170170 0.000000
# 6 0.000000 0.000000 0.000000 0.000000 0.000000 0.038942
#
#
# Mechanical properties :
#
#
# Convention : Reuss Voigt Hill
#
# Bulk Modulus (GPa) = 10.12500 26.14389 18.13444
# Shear Modulus (GPa) = 50.82011 15.97441 33.39726
#
# Velocity S-wave (km/s) = 5.12040 2.87077 4.15089
# Velocity P-wave (km/s) = 6.33889 4.94735 5.68585
#
# Compressibility (1/GPa) = 0.09876545
#
# Stress axis : x y z
#
# Youngs Moduli (GPa) = 60.71686 57.90608 13.15383
#
# Poissons Ratio (x) = 0.47060 -0.12005
# Poissons Ratio (y) = 0.49345 0.08548
# Poissons Ratio (z) = -0.55414 0.37629
#
# Static dielectric constant tensor:
#      x y z
#    x 1.673220 0.000000 0.000000 
#    y 0.000000 1.645860 0.000000 
#    z 0.000000 0.000000 1.706830 
# 
# From -- ./inp_files/41496.got.cif
#   From: 2010.05.17/outbox.cif.g08.bks.cpg/sg64_21_cif.got.tgz:41496.got - 2010.06.03 16:29:19.
