data_PCOD9478307
_publ_section_title
;
Structure prediction by ZEFSAII (Michael W. Deem and Ramdas Pophale) SiO2 
 PCOD9478307
Probable space group: C M C A
;
_chemical_formula_sum "Si O2"
_cell_formula_units_Z 104
_cell_length_a 23.034424
_cell_length_b 25.442487
_cell_length_c 9.615121
_cell_angle_alpha 90.000000
_cell_angle_beta 90.000000
_cell_angle_gamma 90.000000
_cell_volume 5634.970826
_symmetry_space_group_name_H-M "C M C A"
_symmetry_group_IT_number 64
_symmetry_cell_setting 'orthorhombic'
loop_
_space_group_symop_operation_xyz
x,y,z
-x,1/2-y,1/2+z
x,-y,-z
-x,1/2+y,1/2-z
-x,-y,-z
x,1/2+y,1/2-z
-x,y,z
x,1/2-y,1/2+z
1/2+x,1/2+y,z
1/2-x,-y,1/2+z
1/2+x,1/2-y,-z
1/2-x,y,1/2-z
1/2-x,1/2-y,-z
1/2+x,y,1/2-z
1/2-x,1/2+y,z
1/2+x,-y,1/2+z
loop_
_atom_site_type_symbol
_atom_site_label
_atom_site_fract_x
_atom_site_fract_y
_atom_site_fract_z
Si Si1 0.435510 0.860067 0.999929
Si Si2 0.141860 0.560143 0.516553
Si Si3 0.066234 0.069346 0.232887
Si Si4 0.750000 0.746741 0.250000
Si Si5 0.684769 0.809352 0.003347
Si Si6 0.269177 0.419712 0.407828
Si Si7 0.611480 0.545579 0.680239
O O1 0.500000 0.839318 0.027162
O O2 0.432755 0.885380 0.847132
O O3 0.384435 0.817575 0.015073
O O4 0.424657 0.912298 0.093391
O O5 0.123568 0.500000 0.500000
O O6 0.109800 0.586636 0.389108
O O7 0.211338 0.561839 0.515016
O O8 0.120662 0.573623 0.670114
O O9 0.000000 0.062511 0.181941
O O10 0.085786 0.012783 0.298748
O O11 0.708268 0.715148 0.358412
O O12 0.789063 0.779596 0.360951
O O13 0.708554 0.868548 0.014239
O O14 0.250000 0.406042 0.250000
O O15 0.324007 0.457853 0.386298
#
# Coordination Sequence:
#
# PCOD9478307 Si02
#       7
#    16  16  16   8  16  16  16
#     4  10  21  36  55  81 112 146 183 218 261 321
#     4   9  19  31  48  76 111 149 188 231 262 300
#     4  10  20  33  50  77 113 153 194 225 255 304
#     4  10  22  40  62  86 102 130 170 222 282 348
#     4  10  21  38  61  83 106 134 171 221 277 338
#     4   9  17  32  52  77 109 139 176 223 272 318
#     4   9  18  32  51  75 110 154 188 221 258 307
#
# _framework density 18.456173
#
# number of rings (size 3 to 8) (size 9 to 14) (size 15 to 20)
#    0.000    2.462    0.769    0.923    2.154    7.077 
#    0.000    3.846    0.000    0.000    0.000    0.000 
#    0.000    0.000    0.000    0.000    0.000    0.000 
#
# Total GULP energy -289552.674721 kJ/mol
# GULP energy per Si atom -5568.320668 kJ/mol
# Density = 1.841417 g / cm^3
# Si number density = 18.456173 Si / 1000 Ang^3
#
#
#
# Elastic Constant Matrix: (Units=GPa)
#
#
# Indices 1 2 3 4 5 6 
#
# 1 141.3682 25.7263 55.0944 0.0000 0.0000 0.0000
# 2 25.7263 22.6535 20.1038 0.0000 0.0000 0.0000
# 3 55.0944 20.1038 99.4138 0.0000 0.0000 0.0000
# 4 0.0000 0.0000 0.0000 12.4123 0.0000 0.0000
# 5 0.0000 0.0000 0.0000 0.0000 38.5856 0.0000
# 6 0.0000 0.0000 0.0000 0.0000 0.0000 22.7265
#
#
#
# Elastic Compliance Matrix: (Units=1/GPa)
#
#
# Indices 1 2 3 4 5 6 
#
# 1 0.010061 -0.007894 -0.003979 0.000000 0.000000 0.000000
# 2 -0.007894 0.059993 -0.007757 0.000000 0.000000 0.000000
# 3 -0.003979 -0.007757 0.013833 0.000000 0.000000 0.000000
# 4 0.000000 0.000000 0.000000 0.080565 0.000000 0.000000
# 5 0.000000 0.000000 0.000000 0.000000 0.025916 0.000000
# 6 0.000000 0.000000 0.000000 0.000000 0.000000 0.044002
#
#
# Mechanical properties :
#
#
# Convention : Reuss Voigt Hill
#
# Bulk Modulus (GPa) = 22.40885 51.69828 37.05356
# Shear Modulus (GPa) = 17.33064 25.57894 21.45479
#
# Velocity S-wave (km/s) = 3.06766 3.72685 3.41320
# Velocity P-wave (km/s) = 4.97146 6.82579 5.97105
#
# Compressibility (1/GPa) = 0.04462523
#
# Stress axis : x y z
#
# Youngs Moduli (GPa) = 99.39128 16.66874 72.29115
#
# Poissons Ratio (x) = 0.13159 0.28768
# Poissons Ratio (y) = 0.78464 0.56075
# Poissons Ratio (z) = 0.39552 0.12930
#
# Static dielectric constant tensor:
#      x y z
#    x 1.670300 0.000000 0.000000 
#    y 0.000000 1.618110 0.000000 
#    z 0.000000 0.000000 1.712520 
# 
# From -- ./inp_files/9676.got.cif
#   From: 2010.05.17/outbox.cif.g08.bks.cpg/sg64_5_cif.got.tgz:9676.got - 2010.06.03 16:29:19.
