data_PCOD9478811
_publ_section_title
;
Structure prediction by ZEFSAII (Michael W. Deem and Ramdas Pophale) SiO2 
 PCOD9478811
Probable space group: C M C A
;
_chemical_formula_sum "Si O2"
_cell_formula_units_Z 120
_cell_length_a 21.166269
_cell_length_b 28.763629
_cell_length_c 10.780492
_cell_angle_alpha 90.000000
_cell_angle_beta 90.000000
_cell_angle_gamma 90.000000
_cell_volume 6563.365220
_symmetry_space_group_name_H-M "C M C A"
_symmetry_group_IT_number 64
_symmetry_cell_setting 'orthorhombic'
loop_
_space_group_symop_operation_xyz
x,y,z
-x,1/2-y,1/2+z
x,-y,-z
-x,1/2+y,1/2-z
-x,-y,-z
x,1/2+y,1/2-z
-x,y,z
x,1/2-y,1/2+z
1/2+x,1/2+y,z
1/2-x,-y,1/2+z
1/2+x,1/2-y,-z
1/2-x,y,1/2-z
1/2-x,1/2-y,-z
1/2+x,y,1/2-z
1/2-x,1/2+y,z
1/2+x,-y,1/2+z
loop_
_atom_site_type_symbol
_atom_site_label
_atom_site_fract_x
_atom_site_fract_y
_atom_site_fract_z
Si Si1 0.573390 0.719129 0.370440
Si Si2 0.717921 0.413816 0.463478
Si Si3 0.072392 0.673519 0.643692
Si Si4 0.854223 0.179926 0.597683
Si Si5 0.250000 0.015835 0.750000
Si Si6 0.686250 0.721127 0.171180
Si Si7 0.681236 0.572935 0.267240
Si Si8 0.653709 0.872711 0.552737
O O1 0.500000 0.709637 0.336143
O O2 0.575973 0.773688 0.409371
O O3 0.597271 0.687542 0.483947
O O4 0.624080 0.715539 0.259040
O O5 0.689092 0.364796 0.421762
O O6 0.721741 0.452384 0.357511
O O7 0.677482 0.429144 0.584573
O O8 0.790910 0.404641 0.498273
O O9 0.111105 0.673680 0.771082
O O10 0.099612 0.637214 0.545600
O O11 0.000000 0.663864 0.672052
O O12 0.816811 0.228640 0.606759
O O13 0.304893 0.978583 0.714400
O O14 0.750000 0.718686 0.250000
O O15 0.683486 0.677781 0.079512
O O16 0.750000 0.598263 0.250000
O O17 0.634836 0.602883 0.183054
#
# Coordination Sequence:
#
# PCOD9478811 Si02
#       8
#    16  16  16  16   8  16  16  16
#     4  10  21  38  56  75 111 168 217 244 278 341
#     4  11  21  34  57  87 117 147 189 231 294 361
#     4  10  22  36  52  78 112 156 206 252 281 330
#     4  11  22  35  54  81 116 155 199 240 293 346
#     4  10  20  36  56  86 116 150 178 232 296 360
#     4  11  23  34  52  82 122 158 193 240 299 348
#     4   8  19  34  55  80 113 148 181 228 282 351
#     4  11  20  36  54  81 115 154 190 231 287 352
#
# _framework density 18.283303
#
# number of rings (size 3 to 8) (size 9 to 14) (size 15 to 20)
#    0.400    1.333    1.333    4.400    4.667    2.133 
#    0.000    0.000    0.000    0.000    0.000    8.400 
#    0.000   11.733    0.000    0.000    0.000    0.000 
#
# Total GULP energy -334427.151895 kJ/mol
# GULP energy per Si atom -5573.785865 kJ/mol
# Density = 1.824169 g / cm^3
# Si number density = 18.283303 Si / 1000 Ang^3
#
#
#
# Elastic Constant Matrix: (Units=GPa)
#
#
# Indices 1 2 3 4 5 6 
#
# 1 34.5533 12.8890 6.8823 0.0000 0.0000 0.0000
# 2 12.8890 97.5267 41.7625 0.0000 0.0000 0.0000
# 3 6.8823 41.7625 61.3613 0.0000 0.0000 0.0000
# 4 0.0000 0.0000 0.0000 13.7249 0.0000 0.0000
# 5 0.0000 0.0000 0.0000 0.0000 19.2454 0.0000
# 6 0.0000 0.0000 0.0000 0.0000 0.0000 3.6551
#
#
#
# Elastic Compliance Matrix: (Units=1/GPa)
#
#
# Indices 1 2 3 4 5 6 
#
# 1 0.030481 -0.003619 -0.000956 0.000000 0.000000 0.000000
# 2 -0.003619 0.014901 -0.009736 0.000000 0.000000 0.000000
# 3 -0.000956 -0.009736 0.023030 0.000000 0.000000 0.000000
# 4 0.000000 0.000000 0.000000 0.072861 0.000000 0.000000
# 5 0.000000 0.000000 0.000000 0.000000 0.051960 0.000000
# 6 0.000000 0.000000 0.000000 0.000000 0.000000 0.273587
#
#
# Mechanical properties :
#
#
# Convention : Reuss Voigt Hill
#
# Bulk Modulus (GPa) = 25.13099 35.16765 30.14932
# Shear Modulus (GPa) = 9.82888 16.11891 12.97390
#
# Velocity S-wave (km/s) = 2.32111 2.97243 2.66673
# Velocity P-wave (km/s) = 4.57805 5.57288 5.09978
#
# Compressibility (1/GPa) = 0.03979150
#
# Stress axis : x y z
#
# Youngs Moduli (GPa) = 32.80718 67.11029 43.42135
#
# Poissons Ratio (x) = 0.24288 0.04149
# Poissons Ratio (y) = 0.11873 0.42273
# Poissons Ratio (z) = 0.03135 0.65336
#
# Static dielectric constant tensor:
#      x y z
#    x 1.631590 0.000000 0.000000 
#    y 0.000000 1.627440 0.000000 
#    z 0.000000 0.000000 1.706080 
# 
# From -- ./inp_files/17721.got.cif
#   From: 2010.05.17/outbox.cif.g08.bks.cpg/sg64_9_cif.got.tgz:17721.got - 2010.06.03 16:29:19.
