data_PCOD9478717
_publ_section_title
;
Structure prediction by ZEFSAII (Michael W. Deem and Ramdas Pophale) SiO2 
 PCOD9478717
Probable space group: C M C A
;
_chemical_formula_sum "Si O2"
_cell_formula_units_Z 88
_cell_length_a 32.182003
_cell_length_b 8.499801
_cell_length_c 14.060617
_cell_angle_alpha 90.000000
_cell_angle_beta 90.000000
_cell_angle_gamma 90.000000
_cell_volume 3846.149910
_symmetry_space_group_name_H-M "C M C A"
_symmetry_group_IT_number 64
_symmetry_cell_setting 'orthorhombic'
loop_
_space_group_symop_operation_xyz
x,y,z
-x,1/2-y,1/2+z
x,-y,-z
-x,1/2+y,1/2-z
-x,-y,-z
x,1/2+y,1/2-z
-x,y,z
x,1/2-y,1/2+z
1/2+x,1/2+y,z
1/2-x,-y,1/2+z
1/2+x,1/2-y,-z
1/2-x,y,1/2-z
1/2-x,1/2-y,-z
1/2+x,y,1/2-z
1/2-x,1/2+y,z
1/2+x,-y,1/2+z
loop_
_atom_site_type_symbol
_atom_site_label
_atom_site_fract_x
_atom_site_fract_y
_atom_site_fract_z
Si Si1 0.250000 0.337783 0.250000
Si Si2 0.366463 0.235561 0.473947
Si Si3 0.546156 0.977274 0.216077
Si Si4 0.367559 0.439145 0.645447
Si Si5 0.189995 0.419578 0.670114
Si Si6 0.953410 0.847788 0.897410
O O1 0.223342 0.441749 0.323104
O O2 0.217681 0.232675 0.192817
O O3 0.355441 0.292549 0.579302
O O4 0.362461 0.396392 0.410865
O O5 0.336623 0.112263 0.422969
O O6 0.414123 0.177769 0.464861
O O7 0.500000 0.037045 0.191809
O O8 0.583607 0.069553 0.167556
O O9 0.551073 0.000847 0.329129
O O10 0.548453 0.800166 0.176428
O O11 0.341941 0.441307 0.742304
O O12 0.000000 0.845329 0.939785
#
# Coordination Sequence:
#
# PCOD9478717 Si02
#       6
#     8  16  16  16  16  16
#     4  10  24  38  66  82 110 144 180 230 310 338
#     4  10  20  35  59  87 117 151 188 232 277 329
#     4   9  17  30  52  82 115 152 190 227 268 318
#     4  10  20  35  59  87 117 151 188 232 277 329
#     4  11  20  42  59  86 110 146 181 238 284 353
#     4   9  17  30  52  82 115 152 190 227 268 318
#
# _framework density 22.880023999999999
#
# number of rings (size 3 to 8) (size 9 to 14) (size 15 to 20)
#    0.000    2.182    3.636    0.000    0.000    0.727 
#    0.000   10.000    0.000    0.000    0.000    5.091 
#    0.000    0.000    0.000    0.000    0.000    0.000 
#
# Total GULP energy -245988.581793 kJ/mol
# GULP energy per Si atom -5590.649586 kJ/mol
# Density = 2.282795 g / cm^3
# Si number density = 22.880024 Si / 1000 Ang^3
#
#
#
# Elastic Constant Matrix: (Units=GPa)
#
#
# Indices 1 2 3 4 5 6 
#
# 1 113.7215 42.2396 27.5422 0.0000 0.0000 0.0000
# 2 42.2396 75.0816 33.7345 0.0000 0.0000 0.0000
# 3 27.5422 33.7345 64.0614 0.0000 0.0000 0.0000
# 4 0.0000 0.0000 0.0000 26.2653 0.0000 0.0000
# 5 0.0000 0.0000 0.0000 0.0000 -18.2811 0.0000
# 6 0.0000 0.0000 0.0000 0.0000 0.0000 -30.6844
#
#
#
# Elastic Compliance Matrix: (Units=1/GPa)
#
#
# Indices 1 2 3 4 5 6 
#
# 1 0.011305 -0.005470 -0.001980 0.000000 0.000000 0.000000
# 2 -0.005470 0.020094 -0.008229 0.000000 0.000000 0.000000
# 3 -0.001980 -0.008229 0.020795 0.000000 0.000000 0.000000
# 4 0.000000 0.000000 0.000000 0.038073 0.000000 0.000000
# 5 0.000000 0.000000 0.000000 0.000000 -0.054701 0.000000
# 6 0.000000 0.000000 0.000000 0.000000 0.000000 -0.032590
#
#
# Mechanical properties :
#
#
# Convention : Reuss Voigt Hill
#
# Bulk Modulus (GPa) = 47.99747 51.09969 49.54858
# Shear Modulus (GPa) = 121.12702 5.41651 63.27177
#
# Velocity S-wave (km/s) = 7.28389 1.54029 5.26438
# Velocity P-wave (km/s) = 9.57932 5.05426 7.65862
#
# Compressibility (1/GPa) = 0.02083443
#
# Stress axis : x y z
#
# Youngs Moduli (GPa) = 88.45864 49.76627 48.08909
#
# Poissons Ratio (x) = 0.27224 0.09520
# Poissons Ratio (y) = 0.48390 0.39575
# Poissons Ratio (z) = 0.17511 0.40955
#
# Static dielectric constant tensor:
#      x y z
#    x 1.826160 0.000000 0.000000 
#    y 0.000000 1.903240 0.000000 
#    z 0.000000 0.000000 1.877970 
# 
# From -- ./inp_files/28305.got.cif
#   From: 2010.05.17/outbox.cif.g08.bks.cpg/sg64_15_cif.got.tgz:28305.got - 2010.06.03 16:29:19.
