data_PCOD9478284
_publ_section_title
;
Structure prediction by ZEFSAII (Michael W. Deem and Ramdas Pophale) SiO2 
 PCOD9478284
Probable space group: C M C A
;
_chemical_formula_sum "Si O2"
_cell_formula_units_Z 104
_cell_length_a 9.325767
_cell_length_b 19.169549
_cell_length_c 28.586005
_cell_angle_alpha 90.000000
_cell_angle_beta 90.000000
_cell_angle_gamma 90.000000
_cell_volume 5110.341481
_symmetry_space_group_name_H-M "C M C A"
_symmetry_group_IT_number 64
_symmetry_cell_setting 'orthorhombic'
loop_
_space_group_symop_operation_xyz
x,y,z
-x,1/2-y,1/2+z
x,-y,-z
-x,1/2+y,1/2-z
-x,-y,-z
x,1/2+y,1/2-z
-x,y,z
x,1/2-y,1/2+z
1/2+x,1/2+y,z
1/2-x,-y,1/2+z
1/2+x,1/2-y,-z
1/2-x,y,1/2-z
1/2-x,1/2-y,-z
1/2+x,y,1/2-z
1/2-x,1/2+y,z
1/2+x,-y,1/2+z
loop_
_atom_site_type_symbol
_atom_site_label
_atom_site_fract_x
_atom_site_fract_y
_atom_site_fract_z
Si Si1 0.166532 0.263172 0.424328
Si Si2 0.170034 0.929200 0.297445
Si Si3 0.271837 0.272479 0.183302
Si Si4 0.500000 0.260666 0.765541
Si Si5 0.331815 0.601421 0.538770
Si Si6 0.170896 0.876394 0.947287
Si Si7 0.663121 0.524059 0.386821
O O1 0.171126 0.256633 0.368155
O O2 0.251118 0.332903 0.438444
O O3 0.253931 0.198885 0.445805
O O4 0.000000 0.265001 0.439754
O O5 0.250000 0.949186 0.250000
O O6 0.234305 0.855272 0.313841
O O7 0.000000 0.917098 0.289014
O O8 0.185842 0.987967 0.336751
O O9 0.379589 0.254501 0.224674
O O10 0.125693 0.232810 0.194681
O O11 0.500000 0.615926 0.528538
O O12 0.244744 0.585922 0.491606
O O13 0.328930 0.538498 0.575615
O O14 0.222588 0.918572 0.901658
O O15 0.000000 0.872775 0.951230
O O16 0.500000 0.553022 0.388447
#
# Coordination Sequence:
#
# PCOD9478284 Si02
#       7
#    16  16  16   8  16  16  16
#     4  12  25  40  65  95 131 167 210 260 319 375
#     4  11  20  35  61  93 129 163 206 256 308 365
#     4  11  19  35  58  94 126 163 200 265 309 371
#     4  10  20  32  58  90 130 160 208 256 320 354
#     4  11  23  43  71  97 124 163 211 263 315 377
#     4  12  27  45  63  90 129 169 210 264 320 379
#     4  10  23  42  67  93 127 169 211 254 314 378
#
# _framework density 20.350891000000001
#
# number of rings (size 3 to 8) (size 9 to 14) (size 15 to 20)
#    0.000    0.923    4.615    3.231    2.154    3.692 
#    0.000    0.000    3.385    0.000    0.000    0.000 
#    0.000    0.000    0.000    0.000    0.000    0.000 
#
# Total GULP energy -289685.034727 kJ/mol
# GULP energy per Si atom -5570.866052 kJ/mol
# Density = 2.030457 g / cm^3
# Si number density = 20.350891 Si / 1000 Ang^3
#
#
#
# Elastic Constant Matrix: (Units=GPa)
#
#
# Indices 1 2 3 4 5 6 
#
# 1 185.7348 28.6926 25.8183 0.0000 0.0000 0.0000
# 2 28.6926 39.6523 3.1199 0.0000 0.0000 0.0000
# 3 25.8183 3.1199 77.8082 0.0000 0.0000 0.0000
# 4 0.0000 0.0000 0.0000 17.6075 0.0000 0.0000
# 5 0.0000 0.0000 0.0000 0.0000 31.2300 0.0000
# 6 0.0000 0.0000 0.0000 0.0000 0.0000 26.9468
#
#
#
# Elastic Compliance Matrix: (Units=1/GPa)
#
#
# Indices 1 2 3 4 5 6 
#
# 1 0.006337 -0.004434 -0.001925 0.000000 0.000000 0.000000
# 2 -0.004434 0.028401 0.000332 0.000000 0.000000 0.000000
# 3 -0.001925 0.000332 0.013477 0.000000 0.000000 0.000000
# 4 0.000000 0.000000 0.000000 0.056794 0.000000 0.000000
# 5 0.000000 0.000000 0.000000 0.000000 0.032020 0.000000
# 6 0.000000 0.000000 0.000000 0.000000 0.000000 0.037110
#
#
# Mechanical properties :
#
#
# Convention : Reuss Voigt Hill
#
# Bulk Modulus (GPa) = 27.65255 46.49522 37.07388
# Shear Modulus (GPa) = 25.22111 31.52782 28.37447
#
# Velocity S-wave (km/s) = 3.52421 3.94027 3.73803
# Velocity P-wave (km/s) = 5.49340 6.60283 6.07350
#
# Compressibility (1/GPa) = 0.03616303
#
# Stress axis : x y z
#
# Youngs Moduli (GPa) = 157.81575 35.20966 74.19784
#
# Poissons Ratio (x) = 0.15611 0.14282
# Poissons Ratio (y) = 0.69970 -0.02466
# Poissons Ratio (z) = 0.30376 -0.01170
#
# Static dielectric constant tensor:
#      x y z
#    x 1.696550 0.000000 0.000000 
#    y 0.000000 1.744270 0.000000 
#    z 0.000000 0.000000 1.739190 
# 
# From -- ./inp_files/48265.got.cif
#   From: 2010.05.17/outbox.cif.g08.bks.cpg/sg64_25_cif.got.tgz:48265.got - 2010.06.03 16:29:19.
