data_PCOD9478288
_publ_section_title
;
Structure prediction by ZEFSAII (Michael W. Deem and Ramdas Pophale) SiO2 
 PCOD9478288
Probable space group: C M C A
;
_chemical_formula_sum "Si O2"
_cell_formula_units_Z 80
_cell_length_a 7.700615
_cell_length_b 26.964210
_cell_length_c 20.220829
_cell_angle_alpha 90.000000
_cell_angle_beta 90.000000
_cell_angle_gamma 90.000000
_cell_volume 4198.673154
_symmetry_space_group_name_H-M "C M C A"
_symmetry_group_IT_number 64
_symmetry_cell_setting 'orthorhombic'
loop_
_space_group_symop_operation_xyz
x,y,z
-x,1/2-y,1/2+z
x,-y,-z
-x,1/2+y,1/2-z
-x,-y,-z
x,1/2+y,1/2-z
-x,y,z
x,1/2-y,1/2+z
1/2+x,1/2+y,z
1/2-x,-y,1/2+z
1/2+x,1/2-y,-z
1/2-x,y,1/2-z
1/2-x,1/2-y,-z
1/2+x,y,1/2-z
1/2-x,1/2+y,z
1/2+x,-y,1/2+z
loop_
_atom_site_type_symbol
_atom_site_label
_atom_site_fract_x
_atom_site_fract_y
_atom_site_fract_z
Si Si1 0.708863 0.304350 0.826167
Si Si2 0.286192 0.890586 0.576660
Si Si3 0.299437 0.500727 0.080484
Si Si4 0.793694 0.307073 0.174075
Si Si5 0.293132 0.606011 0.925786
O O1 0.500000 0.302971 0.832543
O O2 0.750000 0.316093 0.750000
O O3 0.772827 0.346441 0.876020
O O4 0.775942 0.248528 0.839830
O O5 0.500000 0.891291 0.577447
O O6 0.230836 0.883133 0.500389
O O7 0.225465 0.945526 0.598836
O O8 0.500000 0.501489 0.103342
O O9 0.221293 0.447322 0.099009
O O10 0.300531 0.500000 0.000000
O O11 0.750000 0.319299 0.250000
O O12 0.734273 0.349024 0.123738
O O13 0.000000 0.304600 0.168707
O O14 0.500000 0.598457 0.932120
#
# Coordination Sequence:
#
# PCOD9478288 Si02
#       5
#    16  16  16  16  16
#     4   9  18  32  48  65  88 120 154 187 225 268
#     4   8  14  27  48  71  93 118 150 186 223 267
#     4   7  11  22  43  69  92 116 147 179 214 262
#     4  10  20  33  47  64  89 121 154 187 226 270
#     4   9  16  28  49  73  93 117 150 185 222 267
#
# _framework density 19.053636999999998
#
# number of rings (size 3 to 8) (size 9 to 14) (size 15 to 20)
#    0.000    3.400    0.000    3.000    0.000    1.600 
#    0.000    2.000    0.000    9.000    0.000    0.000 
#    0.000    0.000    0.000    0.000    0.000    0.000 
#
# Total GULP energy -222703.322124 kJ/mol
# GULP energy per Si atom -5567.583053 kJ/mol
# Density = 1.901027 g / cm^3
# Si number density = 19.053637 Si / 1000 Ang^3
#
#
#
# Elastic Constant Matrix: (Units=GPa)
#
#
# Indices 1 2 3 4 5 6 
#
# 1 29.0895 5.5373 0.2155 0.0000 0.0000 0.0000
# 2 5.5373 213.7575 122.9305 0.0000 0.0000 0.0000
# 3 0.2155 122.9305 93.9316 0.0000 0.0000 0.0000
# 4 0.0000 0.0000 0.0000 -31.0239 0.0000 0.0000
# 5 0.0000 0.0000 0.0000 0.0000 9.8897 0.0000
# 6 0.0000 0.0000 0.0000 0.0000 0.0000 0.2397
#
#
#
# Elastic Compliance Matrix: (Units=1/GPa)
#
#
# Indices 1 2 3 4 5 6 
#
# 1 0.035006 -0.003479 0.004473 0.000000 0.000000 0.000000
# 2 -0.003479 0.019258 -0.025196 0.000000 0.000000 0.000000
# 3 0.004473 -0.025196 0.043610 0.000000 0.000000 0.000000
# 4 0.000000 0.000000 0.000000 -0.032233 0.000000 0.000000
# 5 0.000000 0.000000 0.000000 0.000000 0.101115 0.000000
# 6 0.000000 0.000000 0.000000 0.000000 0.000000 4.172271
#
#
# Mechanical properties :
#
#
# Convention : Reuss Voigt Hill
#
# Bulk Modulus (GPa) = 20.21416 66.01614 43.11515
# Shear Modulus (GPa) = 1.13535 9.69411 5.41473
#
# Velocity S-wave (km/s) = 0.77276 2.25806 1.68760
# Velocity P-wave (km/s) = 3.38058 6.44369 5.14536
#
# Compressibility (1/GPa) = 0.04947027
#
# Stress axis : x y z
#
# Youngs Moduli (GPa) = 28.56668 51.92590 22.93052
#
# Poissons Ratio (x) = 0.18066 -0.10257
# Poissons Ratio (y) = 0.09939 0.57775
# Poissons Ratio (z) = -0.12778 1.30831
#
# Static dielectric constant tensor:
#      x y z
#    x 1.711210 0.000000 0.000000 
#    y 0.000000 1.725510 0.000000 
#    z 0.000000 0.000000 1.600140 
# 
# From -- ./inp_files/29957.got.cif
#   From: 2010.05.17/outbox.cif.g08.bks.cpg/sg64_15_cif.got.tgz:29957.got - 2010.06.03 16:29:19.
