data_PCOD9478702
_publ_section_title
;
Structure prediction by ZEFSAII (Michael W. Deem and Ramdas Pophale) SiO2 
 PCOD9478702
Probable space group: C M C A
;
_chemical_formula_sum "Si O2"
_cell_formula_units_Z 116
_cell_length_a 30.437602
_cell_length_b 22.965985
_cell_length_c 8.081470
_cell_angle_alpha 90.000000
_cell_angle_beta 90.000000
_cell_angle_gamma 90.000000
_cell_volume 5649.186022
_symmetry_space_group_name_H-M "C M C A"
_symmetry_group_IT_number 64
_symmetry_cell_setting 'orthorhombic'
loop_
_space_group_symop_operation_xyz
x,y,z
-x,1/2-y,1/2+z
x,-y,-z
-x,1/2+y,1/2-z
-x,-y,-z
x,1/2+y,1/2-z
-x,y,z
x,1/2-y,1/2+z
1/2+x,1/2+y,z
1/2-x,-y,1/2+z
1/2+x,1/2-y,-z
1/2-x,y,1/2-z
1/2-x,1/2-y,-z
1/2+x,y,1/2-z
1/2-x,1/2+y,z
1/2+x,-y,1/2+z
loop_
_atom_site_type_symbol
_atom_site_label
_atom_site_fract_x
_atom_site_fract_y
_atom_site_fract_z
Si Si1 0.877338 0.918192 0.827312
Si Si2 0.297869 0.791327 0.334446
Si Si3 0.091458 0.025139 0.665353
Si Si4 0.550375 0.772627 0.476118
Si Si5 0.116773 0.358550 0.311644
Si Si6 0.000000 0.500000 0.000000
Si Si7 0.950252 0.159000 0.323356
Si Si8 0.701102 0.164554 0.286751
O O1 0.885864 0.986453 0.807850
O O2 0.916632 0.891320 0.715990
O O3 0.833104 0.887321 0.763732
O O4 0.879951 0.893827 0.013741
O O5 0.250000 0.799475 0.250000
O O6 0.337185 0.829754 0.258590
O O7 0.308792 0.722650 0.319942
O O8 0.298048 0.810974 0.525237
O O9 0.113640 0.000000 0.500000
O O10 0.099480 0.093189 0.687154
O O11 0.039640 0.014323 0.636430
O O12 0.500000 0.777770 0.416005
O O13 0.583299 0.807424 0.359581
O O14 0.551275 0.801072 0.657241
O O15 0.561003 0.704197 0.467999
O O16 0.000000 0.136074 0.348377
O O17 0.750000 0.144132 0.250000
#
# Coordination Sequence:
#
# PCOD9478702 Si02
#       8
#    16  16  16  16  16   4  16  16
#     4  10  21  37  57  80 109 146 190 235 278 336
#     4  10  20  35  58  87 119 151 191 232 285 343
#     4  10  23  39  58  80 112 143 188 233 283 332
#     4   9  18  31  48  74 104 136 172 215 270 328
#     4  10  21  37  57  80 109 146 190 235 278 336
#     4   8  24  44  54  84 116 140 194 240 280 334
#     4   9  18  31  48  74 104 136 172 215 270 328
#     4  10  20  35  58  87 119 151 191 232 285 343
#
# _framework density 20.533932
#
# number of rings (size 3 to 8) (size 9 to 14) (size 15 to 20)
#    0.414    1.931    0.000    2.897    1.931    3.310 
#    0.000    1.379    0.000    0.000    0.000    0.000 
#    0.000    0.000    0.000    0.000    0.000    0.000 
#
# Total GULP energy -323133.839120 kJ/mol
# GULP energy per Si atom -5571.273088 kJ/mol
# Density = 2.048720 g / cm^3
# Si number density = 20.533932 Si / 1000 Ang^3
#
#
#
# Elastic Constant Matrix: (Units=GPa)
#
#
# Indices 1 2 3 4 5 6 
#
# 1 94.9171 62.7693 17.7351 0.0000 0.0000 0.0000
# 2 62.7693 82.4287 1.2122 0.0000 0.0000 0.0000
# 3 17.7351 1.2122 38.5661 0.0000 0.0000 0.0000
# 4 0.0000 0.0000 0.0000 25.2502 0.0000 0.0000
# 5 0.0000 0.0000 0.0000 0.0000 24.1139 0.0000
# 6 0.0000 0.0000 0.0000 0.0000 0.0000 11.1982
#
#
#
# Elastic Compliance Matrix: (Units=1/GPa)
#
#
# Indices 1 2 3 4 5 6 
#
# 1 0.025134 -0.018979 -0.010962 0.000000 0.000000 0.000000
# 2 -0.018979 0.026468 0.007896 0.000000 0.000000 0.000000
# 3 -0.010962 0.007896 0.030722 0.000000 0.000000 0.000000
# 4 0.000000 0.000000 0.000000 0.039604 0.000000 0.000000
# 5 0.000000 0.000000 0.000000 0.000000 0.041470 0.000000
# 6 0.000000 0.000000 0.000000 0.000000 0.000000 0.089300
#
#
# Mechanical properties :
#
#
# Convention : Reuss Voigt Hill
#
# Bulk Modulus (GPa) = 26.15419 42.14943 34.15181
# Shear Modulus (GPa) = 16.15341 21.05881 18.60611
#
# Velocity S-wave (km/s) = 2.80780 3.20591 3.01344
# Velocity P-wave (km/s) = 4.82456 5.85450 5.36430
#
# Compressibility (1/GPa) = 0.03823480
#
# Stress axis : x y z
#
# Youngs Moduli (GPa) = 39.78626 37.78195 32.54969
#
# Poissons Ratio (x) = 0.71704 0.35680
# Poissons Ratio (y) = 0.75508 -0.25700
# Poissons Ratio (z) = 0.43613 -0.29831
#
# Static dielectric constant tensor:
#      x y z
#    x 1.716630 0.000000 0.000000 
#    y 0.000000 1.761640 0.000000 
#    z 0.000000 0.000000 1.810880 
# 
# From -- ./inp_files/11310.got.cif
#   From: 2010.05.17/outbox.cif.g08.bks.cpg/sg64_6_cif.got.tgz:11310.got - 2010.06.03 16:29:19.
