data_PCOD9478417
_publ_section_title
;
Structure prediction by ZEFSAII (Michael W. Deem and Ramdas Pophale) SiO2 
 PCOD9478417
Probable space group: C M C A
;
_chemical_formula_sum "Si O2"
_cell_formula_units_Z 96
_cell_length_a 7.610304
_cell_length_b 18.672531
_cell_length_c 32.128729
_cell_angle_alpha 90.000000
_cell_angle_beta 90.000000
_cell_angle_gamma 90.000000
_cell_volume 4565.609255
_symmetry_space_group_name_H-M "C M C A"
_symmetry_group_IT_number 64
_symmetry_cell_setting 'orthorhombic'
loop_
_space_group_symop_operation_xyz
x,y,z
-x,1/2-y,1/2+z
x,-y,-z
-x,1/2+y,1/2-z
-x,-y,-z
x,1/2+y,1/2-z
-x,y,z
x,1/2-y,1/2+z
1/2+x,1/2+y,z
1/2-x,-y,1/2+z
1/2+x,1/2-y,-z
1/2-x,y,1/2-z
1/2-x,1/2-y,-z
1/2+x,y,1/2-z
1/2-x,1/2+y,z
1/2+x,-y,1/2+z
loop_
_atom_site_type_symbol
_atom_site_label
_atom_site_fract_x
_atom_site_fract_y
_atom_site_fract_z
Si Si1 0.210895 0.539736 0.623264
Si Si2 0.284707 0.456740 0.959048
Si Si3 0.289018 0.707391 0.042100
Si Si4 0.210848 0.791442 0.796503
Si Si5 0.289110 0.455392 0.796470
Si Si6 0.288678 0.292771 0.377056
O O1 0.274381 0.496986 0.582711
O O2 0.277912 0.504344 0.666018
O O3 0.249143 0.623516 0.620510
O O4 0.000000 0.532067 0.623459
O O5 0.500000 0.456532 0.959046
O O6 0.225421 0.374407 0.959782
O O7 0.229395 0.500000 0.000000
O O8 0.500000 0.703562 0.045934
O O9 0.222100 0.750043 0.082509
O O10 0.250000 0.750000 0.000000
O O11 0.250000 0.764679 0.750000
O O12 0.277272 0.742779 0.834212
O O13 0.000000 0.794609 0.800065
O O14 0.277458 0.873421 0.799841
O O15 0.500000 0.452174 0.800043
O O16 0.250000 0.482152 0.750000
O O17 0.500000 0.285777 0.376978
#
# Coordination Sequence:
#
# PCOD9478417 Si02
#       6
#    16  16  16  16  16  16
#     4  10  20  34  53  76 101 132 172 211 246 295
#     4   9  17  31  53  77  99 127 165 206 245 289
#     4  10  20  35  55  78 104 134 168 207 253 302
#     4   9  18  34  54  75 101 134 172 212 255 303
#     4   9  18  33  53  75  99 130 169 211 252 296
#     4  10  21  35  51  74 106 138 166 205 257 304
#
# _framework density 21.026765999999999
#
# number of rings (size 3 to 8) (size 9 to 14) (size 15 to 20)
#    0.000    2.500    0.000    2.000    0.000    8.000 
#    0.000    4.167    0.000    7.000    0.000    0.000 
#    0.000    0.000    0.000    0.000    0.000    0.000 
#
# Total GULP energy -268100.644714 kJ/mol
# GULP energy per Si atom -5585.430098 kJ/mol
# Density = 2.097891 g / cm^3
# Si number density = 21.026766 Si / 1000 Ang^3
#
#
#
# Elastic Constant Matrix: (Units=GPa)
#
#
# Indices 1 2 3 4 5 6 
#
# 1 43.2721 1.6046 6.2398 0.0000 0.0000 0.0000
# 2 1.6046 192.1605 154.6118 0.0000 0.0000 0.0000
# 3 6.2398 154.6118 254.1859 0.0000 0.0000 0.0000
# 4 0.0000 0.0000 0.0000 44.7857 0.0000 0.0000
# 5 0.0000 0.0000 0.0000 0.0000 19.7666 0.0000
# 6 0.0000 0.0000 0.0000 0.0000 0.0000 24.7612
#
#
#
# Elastic Compliance Matrix: (Units=1/GPa)
#
#
# Indices 1 2 3 4 5 6 
#
# 1 0.023218 0.000518 -0.000885 0.000000 0.000000 0.000000
# 2 0.000518 0.010204 -0.006219 0.000000 0.000000 0.000000
# 3 -0.000885 -0.006219 0.007739 0.000000 0.000000 0.000000
# 4 0.000000 0.000000 0.000000 0.022329 0.000000 0.000000
# 5 0.000000 0.000000 0.000000 0.000000 0.050590 0.000000
# 6 0.000000 0.000000 0.000000 0.000000 0.000000 0.040386
#
#
# Mechanical properties :
#
#
# Convention : Reuss Voigt Hill
#
# Bulk Modulus (GPa) = 35.72928 90.50343 63.11636
# Shear Modulus (GPa) = 28.25392 39.67353 33.96373
#
# Velocity S-wave (km/s) = 3.66964 4.34846 4.02339
# Velocity P-wave (km/s) = 5.91475 8.26726 7.18790
#
# Compressibility (1/GPa) = 0.02798825
#
# Stress axis : x y z
#
# Youngs Moduli (GPa) = 43.07001 98.00465 129.21962
#
# Poissons Ratio (x) = -0.05081 0.11440
# Poissons Ratio (y) = -0.02233 0.80364
# Poissons Ratio (z) = 0.03813 0.60951
#
# Static dielectric constant tensor:
#      x y z
#    x 1.804990 0.000000 0.000000 
#    y 0.000000 1.714780 0.000000 
#    z 0.000000 0.000000 1.736000 
# 
# From -- ./inp_files/49300.got.cif
#   From: 2010.05.17/outbox.cif.g08.bks.cpg/sg64_25_cif.got.tgz:49300.got - 2010.06.03 16:29:19.
