data_PCOD9478190
_publ_section_title
;
Structure prediction by ZEFSAII (Michael W. Deem and Ramdas Pophale) SiO2 
 PCOD9478190
Probable space group: C M C A
;
_chemical_formula_sum "Si O2"
_cell_formula_units_Z 88
_cell_length_a 8.374587
_cell_length_b 16.060457
_cell_length_c 29.268932
_cell_angle_alpha 90.000000
_cell_angle_beta 90.000000
_cell_angle_gamma 90.000000
_cell_volume 3936.662410
_symmetry_space_group_name_H-M "C M C A"
_symmetry_group_IT_number 64
_symmetry_cell_setting 'orthorhombic'
loop_
_space_group_symop_operation_xyz
x,y,z
-x,1/2-y,1/2+z
x,-y,-z
-x,1/2+y,1/2-z
-x,-y,-z
x,1/2+y,1/2-z
-x,y,z
x,1/2-y,1/2+z
1/2+x,1/2+y,z
1/2-x,-y,1/2+z
1/2+x,1/2-y,-z
1/2-x,y,1/2-z
1/2-x,1/2-y,-z
1/2+x,y,1/2-z
1/2-x,1/2+y,z
1/2+x,-y,1/2+z
loop_
_atom_site_type_symbol
_atom_site_label
_atom_site_fract_x
_atom_site_fract_y
_atom_site_fract_z
Si Si1 0.000000 0.233372 0.204255
Si Si2 0.176584 0.790027 0.644701
Si Si3 0.500000 0.947713 0.720958
Si Si4 0.000000 0.084085 0.701064
Si Si5 0.685421 0.276588 0.950771
Si Si6 0.305812 0.039109 0.049518
Si Si7 0.236349 0.986381 0.646436
O O1 0.835233 0.227378 0.174910
O O2 0.000000 0.326198 0.224034
O O3 0.000000 0.149659 0.234693
O O4 0.215037 0.752528 0.594489
O O5 0.166918 0.891649 0.641358
O O6 0.000000 0.761493 0.660364
O O7 0.357856 0.967476 0.686800
O O8 0.500000 0.008948 0.763104
O O9 0.144465 0.064691 0.667271
O O10 0.500000 0.252559 0.945465
O O11 0.708958 0.375496 0.950949
O O12 0.750000 0.250000 0.000000
O O13 0.500000 0.048733 0.055572
O O14 0.235519 0.991294 0.093563
O O15 0.284639 0.000000 0.000000
#
# Coordination Sequence:
#
# PCOD9478190 Si02
#       7
#     8  16   8   8  16  16  16
#     4  10  24  42  72 102 134 178 234 284 354 424
#     4  10  19  41  68  94 131 182 231 282 351 422
#     4  10  24  44  71  99 135 188 229 289 354 425
#     4  12  22  44  69 105 137 180 233 295 356 423
#     4  11  21  35  57  91 132 177 229 284 339 408
#     4  10  21  38  61  91 128 180 231 280 344 414
#     4  10  20  41  67  95 132 179 229 284 354 418
#
# _framework density 22.353961000000002
#
# number of rings (size 3 to 8) (size 9 to 14) (size 15 to 20)
#    0.000    1.636    2.727    3.273    3.818    1.818 
#    1.636    7.273    0.000    0.000    0.000    0.000 
#    0.000    0.000    0.000    0.000    0.000    0.000 
#
# Total GULP energy -245042.465201 kJ/mol
# GULP energy per Si atom -5569.146936 kJ/mol
# Density = 2.230308 g / cm^3
# Si number density = 22.353961 Si / 1000 Ang^3
#
#
#
# Elastic Constant Matrix: (Units=GPa)
#
#
# Indices 1 2 3 4 5 6 
#
# 1 81.7488 13.1202 6.0181 0.0000 0.0000 0.0000
# 2 13.1202 84.6202 33.6339 0.0000 0.0000 0.0000
# 3 6.0181 33.6339 116.1777 0.0000 0.0000 0.0000
# 4 0.0000 0.0000 0.0000 36.9047 0.0000 0.0000
# 5 0.0000 0.0000 0.0000 0.0000 4.2288 0.0000
# 6 0.0000 0.0000 0.0000 0.0000 0.0000 16.4407
#
#
#
# Elastic Compliance Matrix: (Units=1/GPa)
#
#
# Indices 1 2 3 4 5 6 
#
# 1 0.012546 -0.001906 -0.000098 0.000000 0.000000 0.000000
# 2 -0.001906 0.013644 -0.003851 0.000000 0.000000 0.000000
# 3 -0.000098 -0.003851 0.009728 0.000000 0.000000 0.000000
# 4 0.000000 0.000000 0.000000 0.027097 0.000000 0.000000
# 5 0.000000 0.000000 0.000000 0.000000 0.236472 0.000000
# 6 0.000000 0.000000 0.000000 0.000000 0.000000 0.060825
#
#
# Mechanical properties :
#
#
# Convention : Reuss Voigt Hill
#
# Bulk Modulus (GPa) = 41.31174 43.12121 42.21648
# Shear Modulus (GPa) = 13.15477 26.83316 19.99396
#
# Velocity S-wave (km/s) = 2.42848 3.46840 2.99394
# Velocity P-wave (km/s) = 5.13656 5.94742 5.55680
#
# Compressibility (1/GPa) = 0.02420619
#
# Stress axis : x y z
#
# Youngs Moduli (GPa) = 79.70823 73.29345 102.80120
#
# Poissons Ratio (x) = 0.13971 0.01008
# Poissons Ratio (y) = 0.15194 0.39591
# Poissons Ratio (z) = 0.00781 0.28227
#
# Static dielectric constant tensor:
#      x y z
#    x 1.848050 0.000000 0.000000 
#    y 0.000000 1.851920 0.000000 
#    z 0.000000 0.000000 1.860600 
# 
# From -- ./inp_files/51915.got.cif
#   From: 2010.05.17/outbox.cif.g08.bks.cpg/sg64_26_cif.got.tgz:51915.got - 2010.06.03 16:29:19.
