data_PCOD9478152
_publ_section_title
;
Structure prediction by ZEFSAII (Michael W. Deem and Ramdas Pophale) SiO2 
 PCOD9478152
Probable space group: C M C A
;
_chemical_formula_sum "Si O2"
_cell_formula_units_Z 72
_cell_length_a 10.615348
_cell_length_b 25.766417
_cell_length_c 14.991212
_cell_angle_alpha 90.000000
_cell_angle_beta 90.000000
_cell_angle_gamma 90.000000
_cell_volume 4100.388558
_symmetry_space_group_name_H-M "C M C A"
_symmetry_group_IT_number 64
_symmetry_cell_setting 'orthorhombic'
loop_
_space_group_symop_operation_xyz
x,y,z
-x,1/2-y,1/2+z
x,-y,-z
-x,1/2+y,1/2-z
-x,-y,-z
x,1/2+y,1/2-z
-x,y,z
x,1/2-y,1/2+z
1/2+x,1/2+y,z
1/2-x,-y,1/2+z
1/2+x,1/2-y,-z
1/2-x,y,1/2-z
1/2-x,1/2-y,-z
1/2+x,y,1/2-z
1/2-x,1/2+y,z
1/2+x,-y,1/2+z
loop_
_atom_site_type_symbol
_atom_site_label
_atom_site_fract_x
_atom_site_fract_y
_atom_site_fract_z
Si Si1 0.500000 0.116381 0.011715
Si Si2 0.750000 0.629214 0.750000
Si Si3 0.854541 0.795821 0.102667
Si Si4 0.239665 0.319882 0.921012
Si Si5 0.750000 0.390615 0.750000
Si Si6 0.500000 0.949087 0.813434
Si Si7 0.000000 0.572848 0.811562
O O1 0.620842 0.151873 0.032665
O O2 0.500000 0.070349 0.084241
O O3 0.500000 0.093730 0.913001
O O4 0.775902 0.666008 0.665377
O O5 0.874052 0.595014 0.765918
O O6 0.801770 0.737484 0.109282
O O7 0.000000 0.796759 0.130316
O O8 0.840815 0.812879 0.999491
O O9 0.275614 0.354269 0.835904
O O10 0.626147 0.424796 0.730099
O O11 0.500000 0.010805 0.808187
#
# Coordination Sequence:
#
# PCOD9478152 Si02
#       7
#     8   8  16  16   8   8   8
#     4  10  19  39  62  83 113 154 197 244 293 343
#     4  12  24  38  62  84 128 156 198 242 300 350
#     4  11  22  37  58  91 121 161 195 237 289 364
#     4  10  21  38  60  87 121 152 193 239 292 358
#     4  10  22  42  62  88 116 154 194 250 300 346
#     4  10  23  40  64  85 115 152 206 252 296 349
#     4  12  23  41  60  88 114 160 201 251 298 347
#
# _framework density 17.559311999999998
#
# number of rings (size 3 to 8) (size 9 to 14) (size 15 to 20)
#    0.000    1.333    4.444    1.667    1.556    0.000 
#    0.000    0.000    0.000    1.333    0.000    0.000 
#    0.000    0.000    0.000    0.000    0.000    0.000 
#
# Total GULP energy -201047.119241 kJ/mol
# GULP energy per Si atom -5584.642201 kJ/mol
# Density = 1.751935 g / cm^3
# Si number density = 17.559312 Si / 1000 Ang^3
#
#
#
# Elastic Constant Matrix: (Units=GPa)
#
#
# Indices 1 2 3 4 5 6 
#
# 1 98.9217 52.9933 30.5467 0.0000 0.0000 0.0000
# 2 52.9933 156.1226 58.4021 0.0000 0.0000 0.0000
# 3 30.5467 58.4021 83.3812 0.0000 0.0000 0.0000
# 4 0.0000 0.0000 0.0000 15.2075 0.0000 0.0000
# 5 0.0000 0.0000 0.0000 0.0000 27.7523 0.0000
# 6 0.0000 0.0000 0.0000 0.0000 0.0000 13.0060
#
#
#
# Elastic Compliance Matrix: (Units=1/GPa)
#
#
# Indices 1 2 3 4 5 6 
#
# 1 0.012648 -0.003469 -0.002204 0.000000 0.000000 0.000000
# 2 -0.003469 0.009631 -0.005475 0.000000 0.000000 0.000000
# 3 -0.002204 -0.005475 0.016635 0.000000 0.000000 0.000000
# 4 0.000000 0.000000 0.000000 0.065757 0.000000 0.000000
# 5 0.000000 0.000000 0.000000 0.000000 0.036033 0.000000
# 6 0.000000 0.000000 0.000000 0.000000 0.000000 0.076888
#
#
# Mechanical properties :
#
#
# Convention : Reuss Voigt Hill
#
# Bulk Modulus (GPa) = 60.17286 69.14551 64.65919
# Shear Modulus (GPa) = 20.37279 24.29206 22.33242
#
# Velocity S-wave (km/s) = 3.40991 3.72348 3.57014
# Velocity P-wave (km/s) = 7.06017 7.61246 7.34151
#
# Compressibility (1/GPa) = 0.01661879
#
# Stress axis : x y z
#
# Youngs Moduli (GPa) = 79.06539 103.83595 60.11354
#
# Poissons Ratio (x) = 0.36017 0.13249
# Poissons Ratio (y) = 0.27425 0.32911
# Poissons Ratio (z) = 0.17426 0.56848
#
# Static dielectric constant tensor:
#      x y z
#    x 1.583210 0.000000 0.000000 
#    y 0.000000 1.561970 0.000000 
#    z 0.000000 0.000000 1.583810 
# 
# From -- ./inp_files/21205.got.cif
#   From: 2010.05.17/outbox.cif.g08.bks.cpg/sg64_11_cif.got.tgz:21205.got - 2010.06.03 16:29:19.
