data_PCOD9478136
_publ_section_title
;
Structure prediction by ZEFSAII (Michael W. Deem and Ramdas Pophale) SiO2 
 PCOD9478136
Probable space group: C M C A
;
_chemical_formula_sum "Si O2"
_cell_formula_units_Z 104
_cell_length_a 13.818764
_cell_length_b 17.007077
_cell_length_c 22.990777
_cell_angle_alpha 90.000000
_cell_angle_beta 90.000000
_cell_angle_gamma 90.000000
_cell_volume 5403.218458
_symmetry_space_group_name_H-M "C M C A"
_symmetry_group_IT_number 64
_symmetry_cell_setting 'orthorhombic'
loop_
_space_group_symop_operation_xyz
x,y,z
-x,1/2-y,1/2+z
x,-y,-z
-x,1/2+y,1/2-z
-x,-y,-z
x,1/2+y,1/2-z
-x,y,z
x,1/2-y,1/2+z
1/2+x,1/2+y,z
1/2-x,-y,1/2+z
1/2+x,1/2-y,-z
1/2-x,y,1/2-z
1/2-x,1/2-y,-z
1/2+x,y,1/2-z
1/2-x,1/2+y,z
1/2+x,-y,1/2+z
loop_
_atom_site_type_symbol
_atom_site_label
_atom_site_fract_x
_atom_site_fract_y
_atom_site_fract_z
Si Si1 0.884508 0.481837 0.791974
Si Si2 0.610896 0.104157 0.411564
Si Si3 0.386190 0.203890 0.218272
Si Si4 0.206979 0.915409 0.390429
Si Si5 0.108323 0.044056 0.830563
Si Si6 0.307211 0.251259 0.843381
Si Si7 0.735303 0.500000 0.000000
O O1 0.863518 0.389830 0.782820
O O2 0.835429 0.517386 0.848553
O O3 0.857331 0.533116 0.735384
O O4 0.000000 0.488443 0.797201
O O5 0.500000 0.121716 0.428791
O O6 0.666064 0.180159 0.388348
O O7 0.668209 0.057735 0.461587
O O8 0.605579 0.043527 0.357471
O O9 0.500000 0.214738 0.203598
O O10 0.366159 0.235105 0.283444
O O11 0.305488 0.242510 0.176474
O O12 0.319516 0.910124 0.371817
O O13 0.165563 0.831448 0.372708
O O14 0.203038 0.946481 0.455847
O O15 0.000000 0.076478 0.830869
#
# Coordination Sequence:
#
# PCOD9478136 Si02
#       7
#    16  16  16  16  16  16   8
#     4  10  20  36  60  85 114 157 198 233 284 361
#     4  10  19  38  64  91 118 150 198 251 298 347
#     4  10  21  37  56  87 126 160 188 227 295 371
#     4  11  24  38  57  87 120 155 202 245 296 349
#     4   9  18  33  58  87 116 152 193 237 289 353
#     4  11  23  35  58  91 123 155 188 245 308 357
#     4  10  23  42  63  80 110 164 211 256 287 344
#
# _framework density 19.247786999999999
#
# number of rings (size 3 to 8) (size 9 to 14) (size 15 to 20)
#    0.000    1.846    1.538    3.000    6.462    3.077 
#    0.000    0.385    0.000    2.769    0.000    0.000 
#    0.000    0.000    0.000    0.000    0.000    0.000 
#
# Total GULP energy -290281.333202 kJ/mol
# GULP energy per Si atom -5582.333331 kJ/mol
# Density = 1.920398 g / cm^3
# Si number density = 19.247787 Si / 1000 Ang^3
#
#
#
# Elastic Constant Matrix: (Units=GPa)
#
#
# Indices 1 2 3 4 5 6 
#
# 1 40.4119 16.1772 13.5662 0.0000 0.0000 0.0000
# 2 16.1772 99.6584 46.7661 0.0000 0.0000 0.0000
# 3 13.5662 46.7661 112.5324 0.0000 0.0000 0.0000
# 4 0.0000 0.0000 0.0000 16.4515 0.0000 0.0000
# 5 0.0000 0.0000 0.0000 0.0000 16.3998 0.0000
# 6 0.0000 0.0000 0.0000 0.0000 0.0000 2.4250
#
#
#
# Elastic Compliance Matrix: (Units=1/GPa)
#
#
# Indices 1 2 3 4 5 6 
#
# 1 0.026744 -0.003513 -0.001764 0.000000 0.000000 0.000000
# 2 -0.003513 0.012927 -0.004949 0.000000 0.000000 0.000000
# 3 -0.001764 -0.004949 0.011155 0.000000 0.000000 0.000000
# 4 0.000000 0.000000 0.000000 0.060785 0.000000 0.000000
# 5 0.000000 0.000000 0.000000 0.000000 0.060976 0.000000
# 6 0.000000 0.000000 0.000000 0.000000 0.000000 0.412371
#
#
# Mechanical properties :
#
#
# Convention : Reuss Voigt Hill
#
# Bulk Modulus (GPa) = 32.92271 45.06907 38.99589
# Shear Modulus (GPa) = 8.12301 18.79481 13.45891
#
# Velocity S-wave (km/s) = 2.05655 3.12824 2.64719
# Velocity P-wave (km/s) = 4.77294 6.04267 5.44494
#
# Compressibility (1/GPa) = 0.03037417
#
# Stress axis : x y z
#
# Youngs Moduli (GPa) = 37.39187 77.35885 89.64200
#
# Poissons Ratio (x) = 0.27180 0.15812
# Poissons Ratio (y) = 0.13137 0.44360
# Poissons Ratio (z) = 0.06596 0.38281
#
# Static dielectric constant tensor:
#      x y z
#    x 1.707280 0.000000 0.000000 
#    y 0.000000 1.686770 0.000000 
#    z 0.000000 0.000000 1.647620 
# 
# From -- ./inp_files/45251.got.cif
#   From: 2010.05.17/outbox.cif.g08.bks.cpg/sg64_23_cif.got.tgz:45251.got - 2010.06.03 16:29:19.
