data_PCOD9478687
_publ_section_title
;
Structure prediction by ZEFSAII (Michael W. Deem and Ramdas Pophale) SiO2 
 PCOD9478687
Probable space group: C M C A
;
_chemical_formula_sum "Si O2"
_cell_formula_units_Z 48
_cell_length_a 11.292776
_cell_length_b 13.398798
_cell_length_c 12.437128
_cell_angle_alpha 90.000000
_cell_angle_beta 90.000000
_cell_angle_gamma 90.000000
_cell_volume 1881.857167
_symmetry_space_group_name_H-M "C M C A"
_symmetry_group_IT_number 64
_symmetry_cell_setting 'orthorhombic'
loop_
_space_group_symop_operation_xyz
x,y,z
-x,1/2-y,1/2+z
x,-y,-z
-x,1/2+y,1/2-z
-x,-y,-z
x,1/2+y,1/2-z
-x,y,z
x,1/2-y,1/2+z
1/2+x,1/2+y,z
1/2-x,-y,1/2+z
1/2+x,1/2-y,-z
1/2-x,y,1/2-z
1/2-x,1/2-y,-z
1/2+x,y,1/2-z
1/2-x,1/2+y,z
1/2+x,-y,1/2+z
loop_
_atom_site_type_symbol
_atom_site_label
_atom_site_fract_x
_atom_site_fract_y
_atom_site_fract_z
Si Si1 0.219502 0.108679 0.505869
Si Si2 0.371575 0.224212 0.647970
Si Si3 0.631258 0.094048 0.304163
O O1 0.268718 0.146563 0.619178
O O2 0.142187 0.192882 0.447516
O O3 0.335575 0.099030 0.428833
O O4 0.161718 0.000000 0.500000
O O5 0.500000 0.175594 0.643410
O O6 0.370197 0.294117 0.753262
O O7 0.500000 0.052756 0.283304
O O8 0.750000 0.048746 0.250000
#
# Coordination Sequence:
#
# PCOD9478687 Si02
#       3
#    16  16  16
#     4  10  20  35  58  85 111 146 193 237 278 334
#     4   9  19  36  55  79 115 150 181 229 289 340
#     4   9  18  34  54  78 111 147 183 227 279 334
#
# _framework density 25.506717999999999
#
# number of rings (size 3 to 8) (size 9 to 14) (size 15 to 20)
#    0.000    2.667    0.000    1.000    0.000    3.333 
#    0.000   25.000    0.000   12.000    0.000    0.000 
#    0.000    0.000    0.000    0.000    0.000    0.000 
#
# Total GULP energy -133865.261293 kJ/mol
# GULP energy per Si atom -5577.719221 kJ/mol
# Density = 2.544866 g / cm^3
# Si number density = 25.506718 Si / 1000 Ang^3
#
#
#
# Elastic Constant Matrix: (Units=GPa)
#
#
# Indices 1 2 3 4 5 6 
#
# 1 154.1355 3.3656 4.3784 0.0000 0.0000 0.0000
# 2 3.3656 130.0176 22.3248 0.0000 0.0000 0.0000
# 3 4.3784 22.3248 89.6013 0.0000 0.0000 0.0000
# 4 0.0000 0.0000 0.0000 39.4695 0.0000 0.0000
# 5 0.0000 0.0000 0.0000 0.0000 6.3773 0.0000
# 6 0.0000 0.0000 0.0000 0.0000 0.0000 -12.9499
#
#
#
# Elastic Compliance Matrix: (Units=1/GPa)
#
#
# Indices 1 2 3 4 5 6 
#
# 1 0.006499 -0.000119 -0.000288 0.000000 0.000000 0.000000
# 2 -0.000119 0.008037 -0.001997 0.000000 0.000000 0.000000
# 3 -0.000288 -0.001997 0.011672 0.000000 0.000000 0.000000
# 4 0.000000 0.000000 0.000000 0.025336 0.000000 0.000000
# 5 0.000000 0.000000 0.000000 0.000000 0.156806 0.000000
# 6 0.000000 0.000000 0.000000 0.000000 0.000000 -0.077220
#
#
# Mechanical properties :
#
#
# Convention : Reuss Voigt Hill
#
# Bulk Modulus (GPa) = 46.72683 48.21021 47.46852
# Shear Modulus (GPa) = 34.94780 29.49173 32.21977
#
# Velocity S-wave (km/s) = 3.70556 3.40403 3.55799
# Velocity P-wave (km/s) = 6.05536 5.86446 5.96068
#
# Compressibility (1/GPa) = 0.02140098
#
# Stress axis : x y z
#
# Youngs Moduli (GPa) = 153.88001 124.42157 85.67420
#
# Poissons Ratio (x) = 0.01478 0.02467
# Poissons Ratio (y) = 0.01828 0.17107
# Poissons Ratio (z) = 0.04431 0.24843
#
# Static dielectric constant tensor:
#      x y z
#    x 2.006460 0.000000 0.000000 
#    y 0.000000 2.048530 0.000000 
#    z 0.000000 0.000000 2.083040 
# 
# From -- ./inp_files/13602.got.cif
#   From: 2010.05.17/outbox.cif.g08.bks.cpg/sg64_7_cif.got.tgz:13602.got - 2010.06.03 16:29:19.
