data_PCOD9478953
_publ_section_title
;
Structure prediction by ZEFSAII (Michael W. Deem and Ramdas Pophale) SiO2 
 PCOD9478953
Probable space group: C M C A
;
_chemical_formula_sum "Si O2"
_cell_formula_units_Z 112
_cell_length_a 27.046127
_cell_length_b 14.177720
_cell_length_c 13.573463
_cell_angle_alpha 90.000000
_cell_angle_beta 90.000000
_cell_angle_gamma 90.000000
_cell_volume 5204.777177
_symmetry_space_group_name_H-M "C M C A"
_symmetry_group_IT_number 64
_symmetry_cell_setting 'orthorhombic'
loop_
_space_group_symop_operation_xyz
x,y,z
-x,1/2-y,1/2+z
x,-y,-z
-x,1/2+y,1/2-z
-x,-y,-z
x,1/2+y,1/2-z
-x,y,z
x,1/2-y,1/2+z
1/2+x,1/2+y,z
1/2-x,-y,1/2+z
1/2+x,1/2-y,-z
1/2-x,y,1/2-z
1/2-x,1/2-y,-z
1/2+x,y,1/2-z
1/2-x,1/2+y,z
1/2+x,-y,1/2+z
loop_
_atom_site_type_symbol
_atom_site_label
_atom_site_fract_x
_atom_site_fract_y
_atom_site_fract_z
Si Si1 0.774031 0.124852 0.070944
Si Si2 0.055689 0.671632 0.850777
Si Si3 0.869365 0.842427 0.843451
Si Si4 0.599569 0.403176 0.545373
Si Si5 0.321556 0.723755 0.354781
Si Si6 0.058010 0.022808 0.248896
Si Si7 0.722063 0.914474 0.353050
O O1 0.830221 0.161727 0.068442
O O2 0.734357 0.191936 0.121402
O O3 0.782996 0.026510 0.129327
O O4 0.754552 0.110925 0.959709
O O5 0.093181 0.756203 0.842695
O O6 0.065544 0.587189 0.774045
O O7 0.000000 0.704719 0.835628
O O8 0.062483 0.630052 0.960444
O O9 0.835826 0.825439 0.747544
O O10 0.903270 0.935075 0.829433
O O11 0.622277 0.500000 0.500000
O O12 0.640853 0.325729 0.569386
O O13 0.571519 0.425857 0.647371
O O14 0.321935 0.837214 0.345852
O O15 0.000000 0.037579 0.224945
O O16 0.750000 0.901923 0.250000
#
# Coordination Sequence:
#
# PCOD9478953 Si02
#       7
#    16  16  16  16  16  16  16
#     4  11  25  43  60  93 130 167 214 260 312 380
#     4  10  20  36  61  91 121 164 215 270 328 380
#     4  11  22  37  60  89 129 168 213 259 316 386
#     4   9  19  35  61  90 126 161 211 271 326 377
#     4  11  23  40  60  94 127 170 213 257 312 382
#     4   9  19  36  58  89 123 159 209 273 326 373
#     4  11  24  41  65  86 122 174 213 260 312 369
#
# _framework density 21.518692000000001
#
# number of rings (size 3 to 8) (size 9 to 14) (size 15 to 20)
#    0.000    1.714    0.000    4.286    4.000    2.857 
#    5.143    0.000    0.000    0.000    0.000    5.000 
#    0.000    0.000    0.000    0.000    0.000    0.000 
#
# Total GULP energy -312390.844002 kJ/mol
# GULP energy per Si atom -5578.407929 kJ/mol
# Density = 2.146971 g / cm^3
# Si number density = 21.518692 Si / 1000 Ang^3
#
#
#
# Elastic Constant Matrix: (Units=GPa)
#
#
# Indices 1 2 3 4 5 6 
#
# 1 115.4307 44.9568 24.6718 0.0000 0.0000 0.0000
# 2 44.9568 91.1066 10.1887 0.0000 0.0000 0.0000
# 3 24.6718 10.1887 74.3073 0.0000 0.0000 0.0000
# 4 0.0000 0.0000 0.0000 15.3252 0.0000 0.0000
# 5 0.0000 0.0000 0.0000 0.0000 17.1374 0.0000
# 6 0.0000 0.0000 0.0000 0.0000 0.0000 36.7535
#
#
#
# Elastic Compliance Matrix: (Units=1/GPa)
#
#
# Indices 1 2 3 4 5 6 
#
# 1 0.011367 -0.005268 -0.003052 0.000000 0.000000 0.000000
# 2 -0.005268 0.013588 -0.000114 0.000000 0.000000 0.000000
# 3 -0.003052 -0.000114 0.014487 0.000000 0.000000 0.000000
# 4 0.000000 0.000000 0.000000 0.065252 0.000000 0.000000
# 5 0.000000 0.000000 0.000000 0.000000 0.058352 0.000000
# 6 0.000000 0.000000 0.000000 0.000000 0.000000 0.027208
#
#
# Mechanical properties :
#
#
# Convention : Reuss Voigt Hill
#
# Bulk Modulus (GPa) = 44.29795 48.94212 46.62004
# Shear Modulus (GPa) = 23.29405 27.24503 25.26954
#
# Velocity S-wave (km/s) = 3.29371 3.56210 3.43053
# Velocity P-wave (km/s) = 5.92412 6.30171 6.11583
#
# Compressibility (1/GPa) = 0.02257441
#
# Stress axis : x y z
#
# Youngs Moduli (GPa) = 87.97262 73.59247 69.02940
#
# Poissons Ratio (x) = 0.38767 0.21067
# Poissons Ratio (y) = 0.46343 0.00788
# Poissons Ratio (z) = 0.26848 0.00840
#
# Static dielectric constant tensor:
#      x y z
#    x 1.774270 0.000000 0.000000 
#    y 0.000000 1.819050 0.000000 
#    z 0.000000 0.000000 1.787880 
# 
# From -- ./inp_files/28098.got.cif
#   From: 2010.05.17/outbox.cif.g08.bks.cpg/sg64_15_cif.got.tgz:28098.got - 2010.06.03 16:29:19.
