data_PCOD9478621
_publ_section_title
;
Structure prediction by ZEFSAII (Michael W. Deem and Ramdas Pophale) SiO2 
 PCOD9478621
Probable space group: C M C A
;
_chemical_formula_sum "Si O2"
_cell_formula_units_Z 80
_cell_length_a 7.779313
_cell_length_b 18.983812
_cell_length_c 26.291302
_cell_angle_alpha 90.000000
_cell_angle_beta 90.000000
_cell_angle_gamma 90.000000
_cell_volume 3882.726178
_symmetry_space_group_name_H-M "C M C A"
_symmetry_group_IT_number 64
_symmetry_cell_setting 'orthorhombic'
loop_
_space_group_symop_operation_xyz
x,y,z
-x,1/2-y,1/2+z
x,-y,-z
-x,1/2+y,1/2-z
-x,-y,-z
x,1/2+y,1/2-z
-x,y,z
x,1/2-y,1/2+z
1/2+x,1/2+y,z
1/2-x,-y,1/2+z
1/2+x,1/2-y,-z
1/2-x,y,1/2-z
1/2-x,1/2-y,-z
1/2+x,y,1/2-z
1/2-x,1/2+y,z
1/2+x,-y,1/2+z
loop_
_atom_site_type_symbol
_atom_site_label
_atom_site_fract_x
_atom_site_fract_y
_atom_site_fract_z
Si Si1 0.705082 0.087743 0.192599
Si Si2 0.296633 0.824932 0.594780
Si Si3 0.206691 0.573166 0.807285
Si Si4 0.792188 0.334201 0.098727
Si Si5 0.293094 0.579964 0.002544
O O1 0.500000 0.086533 0.187856
O O2 0.750000 0.109762 0.250000
O O3 0.774495 0.138490 0.149201
O O4 0.770761 0.007273 0.185717
O O5 0.500000 0.818421 0.584622
O O6 0.225650 0.745669 0.594547
O O7 0.225184 0.875734 0.550700
O O8 0.250000 0.595796 0.750000
O O9 0.271273 0.625003 0.851063
O O10 0.000000 0.570473 0.811048
O O11 0.746921 0.378522 0.048919
O O12 0.000000 0.331169 0.102381
O O13 0.500000 0.575445 0.007720
O O14 0.226389 0.500000 0.000000
#
# Coordination Sequence:
#
# PCOD9478621 Si02
#       5
#    16  16  16  16  16
#     4  10  20  35  56  79 104 137 176 216 259 309
#     4  10  21  36  53  77 110 141 173 218 265 312
#     4   9  19  35  54  77 103 134 174 216 258 307
#     4  10  21  36  54  78 108 139 174 218 265 314
#     4  10  21  36  55  79 106 139 179 220 264 315
#
# _framework density 20.604078999999999
#
# number of rings (size 3 to 8) (size 9 to 14) (size 15 to 20)
#    0.000    2.200    0.000    2.400    0.000    4.400 
#    0.000    2.000    0.000    0.000    0.000    0.000 
#    0.000    0.000    0.000    0.000    0.000    0.000 
#
# Total GULP energy -223442.758552 kJ/mol
# GULP energy per Si atom -5586.068964 kJ/mol
# Density = 2.055718 g / cm^3
# Si number density = 20.604079 Si / 1000 Ang^3
#
#
#
# Elastic Constant Matrix: (Units=GPa)
#
#
# Indices 1 2 3 4 5 6 
#
# 1 19.4043 -0.0181 -18.2186 0.0000 0.0000 0.0000
# 2 -0.0181 191.8062 134.1944 0.0000 0.0000 0.0000
# 3 -18.2186 134.1944 173.4122 0.0000 0.0000 0.0000
# 4 0.0000 0.0000 0.0000 84.6397 0.0000 0.0000
# 5 0.0000 0.0000 0.0000 0.0000 23.9067 0.0000
# 6 0.0000 0.0000 0.0000 0.0000 0.0000 21.8488
#
#
#
# Elastic Compliance Matrix: (Units=1/GPa)
#
#
# Indices 1 2 3 4 5 6 
#
# 1 0.065633 -0.010506 0.015025 0.000000 0.000000 0.000000
# 2 -0.010506 0.013051 -0.011203 0.000000 0.000000 0.000000
# 3 0.015025 -0.011203 0.016014 0.000000 0.000000 0.000000
# 4 0.000000 0.000000 0.000000 0.011815 0.000000 0.000000
# 5 0.000000 0.000000 0.000000 0.000000 0.041829 0.000000
# 6 0.000000 0.000000 0.000000 0.000000 0.000000 0.045769
#
#
# Mechanical properties :
#
#
# Convention : Reuss Voigt Hill
#
# Bulk Modulus (GPa) = 12.29551 68.50421 40.39986
# Shear Modulus (GPa) = 21.31397 43.99006 32.65202
#
# Velocity S-wave (km/s) = 3.21978 4.62564 3.98519
# Velocity P-wave (km/s) = 4.45007 7.86440 6.38952
#
# Compressibility (1/GPa) = 0.08133052
#
# Stress axis : x y z
#
# Youngs Moduli (GPa) = 15.23633 76.62529 62.44353
#
# Poissons Ratio (x) = 0.80504 -0.93824
# Poissons Ratio (y) = 0.16008 0.69955
# Poissons Ratio (z) = -0.22893 0.85842
#
# Static dielectric constant tensor:
#      x y z
#    x 1.742880 0.000000 0.000000 
#    y 0.000000 1.734620 0.000000 
#    z 0.000000 0.000000 1.628610 
# 
# From -- ./inp_files/47828.got.cif
#   From: 2010.05.17/outbox.cif.g08.bks.cpg/sg64_24_cif.got.tgz:47828.got - 2010.06.03 16:29:19.
