data_PCOD9478281
_publ_section_title
;
Structure prediction by ZEFSAII (Michael W. Deem and Ramdas Pophale) SiO2 
 PCOD9478281
Probable space group: C M C A
;
_chemical_formula_sum "Si O2"
_cell_formula_units_Z 104
_cell_length_a 9.656125
_cell_length_b 18.784883
_cell_length_c 28.299768
_cell_angle_alpha 90.000000
_cell_angle_beta 90.000000
_cell_angle_gamma 90.000000
_cell_volume 5133.271665
_symmetry_space_group_name_H-M "C M C A"
_symmetry_group_IT_number 64
_symmetry_cell_setting 'orthorhombic'
loop_
_space_group_symop_operation_xyz
x,y,z
-x,1/2-y,1/2+z
x,-y,-z
-x,1/2+y,1/2-z
-x,-y,-z
x,1/2+y,1/2-z
-x,y,z
x,1/2-y,1/2+z
1/2+x,1/2+y,z
1/2-x,-y,1/2+z
1/2+x,1/2-y,-z
1/2-x,y,1/2-z
1/2-x,1/2-y,-z
1/2+x,y,1/2-z
1/2-x,1/2+y,z
1/2+x,-y,1/2+z
loop_
_atom_site_type_symbol
_atom_site_label
_atom_site_fract_x
_atom_site_fract_y
_atom_site_fract_z
Si Si1 0.765576 0.024700 0.684882
Si Si2 0.339535 0.021505 0.923539
Si Si3 0.340154 0.111199 0.439598
Si Si4 0.500000 0.991239 0.735453
Si Si5 0.655749 0.349522 0.044973
Si Si6 0.335871 0.685340 0.795818
Si Si7 0.657185 0.215939 0.113304
O O1 0.822580 0.011720 0.632755
O O2 0.624031 0.983255 0.695809
O O3 0.880059 0.007003 0.723966
O O4 0.722902 0.108376 0.689229
O O5 0.500000 0.018088 0.936826
O O6 0.270961 0.096551 0.936704
O O7 0.249138 0.959577 0.947074
O O8 0.500000 0.094640 0.429999
O O9 0.333982 0.155272 0.488584
O O10 0.268490 0.156444 0.398417
O O11 0.500000 0.378238 0.055804
O O12 0.666007 0.275579 0.072459
O O13 0.500000 0.675518 0.785237
O O14 0.250000 0.708298 0.750000
O O15 0.322381 0.742057 0.837732
O O16 0.500000 0.186323 0.113050
#
# Coordination Sequence:
#
# PCOD9478281 Si02
#       7
#    16  16  16   8  16  16  16
#     4  11  19  35  56  92 121 157 196 254 305 358
#     4  12  25  38  62  93 128 161 204 253 310 365
#     4  11  25  43  62  88 124 166 206 253 311 370
#     4  10  20  32  58  86 126 154 200 254 306 348
#     4  10  22  42  67  93 120 158 207 257 309 366
#     4  11  20  34  60  90 124 158 198 248 303 354
#     4  10  22  40  65  90 124 163 202 249 308 364
#
# _framework density 20.259983999999999
#
# number of rings (size 3 to 8) (size 9 to 14) (size 15 to 20)
#    0.000    1.231    4.615    1.846    2.154    4.308 
#    0.000    0.000    3.385    0.000    0.000    0.000 
#    0.000    0.000    0.000    0.000    0.000    0.000 
#
# Total GULP energy -289605.247353 kJ/mol
# GULP energy per Si atom -5569.331680 kJ/mol
# Density = 2.021387 g / cm^3
# Si number density = 20.259984 Si / 1000 Ang^3
#
#
#
# Elastic Constant Matrix: (Units=GPa)
#
#
# Indices 1 2 3 4 5 6 
#
# 1 183.7360 35.8921 26.8141 0.0000 0.0000 0.0000
# 2 35.8921 25.6673 2.8087 0.0000 0.0000 0.0000
# 3 26.8141 2.8087 56.5969 0.0000 0.0000 0.0000
# 4 0.0000 0.0000 0.0000 5.2281 0.0000 0.0000
# 5 0.0000 0.0000 0.0000 0.0000 30.5945 0.0000
# 6 0.0000 0.0000 0.0000 0.0000 0.0000 26.3269
#
#
#
# Elastic Compliance Matrix: (Units=1/GPa)
#
#
# Indices 1 2 3 4 5 6 
#
# 1 0.008049 -0.010897 -0.003273 0.000000 0.000000 0.000000
# 2 -0.010897 0.053926 0.002487 0.000000 0.000000 0.000000
# 3 -0.003273 0.002487 0.019096 0.000000 0.000000 0.000000
# 4 0.000000 0.000000 0.000000 0.191275 0.000000 0.000000
# 5 0.000000 0.000000 0.000000 0.000000 0.032686 0.000000
# 6 0.000000 0.000000 0.000000 0.000000 0.000000 0.037984
#
#
# Mechanical properties :
#
#
# Convention : Reuss Voigt Hill
#
# Bulk Modulus (GPa) = 17.32962 44.11444 30.72203
# Shear Modulus (GPa) = 12.96624 25.79560 19.38092
#
# Velocity S-wave (km/s) = 2.53255 3.57210 3.09627
# Velocity P-wave (km/s) = 4.13811 6.23175 5.28955
#
# Compressibility (1/GPa) = 0.05770467
#
# Stress axis : x y z
#
# Youngs Moduli (GPa) = 124.24074 18.54390 52.36733
#
# Poissons Ratio (x) = 0.20208 0.17138
# Poissons Ratio (y) = 1.35387 -0.13022
# Poissons Ratio (z) = 0.40659 -0.04611
#
# Static dielectric constant tensor:
#      x y z
#    x 1.698060 0.000000 0.000000 
#    y 0.000000 1.722590 0.000000 
#    z 0.000000 0.000000 1.748070 
# 
# From -- ./inp_files/48249.got.cif
#   From: 2010.05.17/outbox.cif.g08.bks.cpg/sg64_25_cif.got.tgz:48249.got - 2010.06.03 16:29:19.
