data_PCOD9478527
_publ_section_title
;
Structure prediction by ZEFSAII (Michael W. Deem and Ramdas Pophale) SiO2 
 PCOD9478527
Probable space group: C M C A
;
_chemical_formula_sum "Si O2"
_cell_formula_units_Z 96
_cell_length_a 8.758586
_cell_length_b 21.032244
_cell_length_c 28.877207
_cell_angle_alpha 90.000000
_cell_angle_beta 90.000000
_cell_angle_gamma 90.000000
_cell_volume 5319.548785
_symmetry_space_group_name_H-M "C M C A"
_symmetry_group_IT_number 64
_symmetry_cell_setting 'orthorhombic'
loop_
_space_group_symop_operation_xyz
x,y,z
-x,1/2-y,1/2+z
x,-y,-z
-x,1/2+y,1/2-z
-x,-y,-z
x,1/2+y,1/2-z
-x,y,z
x,1/2-y,1/2+z
1/2+x,1/2+y,z
1/2-x,-y,1/2+z
1/2+x,1/2-y,-z
1/2-x,y,1/2-z
1/2-x,1/2-y,-z
1/2+x,y,1/2-z
1/2-x,1/2+y,z
1/2+x,-y,1/2+z
loop_
_atom_site_type_symbol
_atom_site_label
_atom_site_fract_x
_atom_site_fract_y
_atom_site_fract_z
Si Si1 0.682966 0.824643 0.300169
Si Si2 0.684543 0.995887 0.445981
Si Si3 0.683869 0.751292 0.551179
Si Si4 0.683175 0.125039 0.892672
Si Si5 0.182498 0.676053 0.200031
Si Si6 0.815810 0.624164 0.391865
O O1 0.500000 0.828457 0.299215
O O2 0.750000 0.841743 0.250000
O O3 0.748910 0.867093 0.341390
O O4 0.726460 0.750287 0.308861
O O5 0.500000 0.990297 0.444954
O O6 0.755573 0.935707 0.420128
O O7 0.730404 0.000000 0.500000
O O8 0.727494 0.060017 0.418591
O O9 0.500000 0.752167 0.548656
O O10 0.750000 0.750000 0.500000
O O11 0.729852 0.688485 0.579243
O O12 0.733049 0.814672 0.578116
O O13 0.500000 0.123160 0.890102
O O14 0.250000 0.658714 0.250000
O O15 0.246213 0.633041 0.158849
O O16 0.000000 0.672898 0.201500
O O17 0.000000 0.625421 0.388168
#
# Coordination Sequence:
#
# PCOD9478527 Si02
#       6
#    16  16  16  16  16  16
#     4  10  20  35  58  87 118 152 189 233 287 345
#     4  10  22  40  61  82 113 158 199 237 288 346
#     4  10  21  35  55  82 111 145 188 238 287 334
#     4  11  22  37  58  85 117 151 190 240 290 342
#     4  10  20  34  57  87 117 150 186 233 286 342
#     4  10  20  37  58  82 114 151 191 236 283 339
#
# _framework density 18.046643
#
# number of rings (size 3 to 8) (size 9 to 14) (size 15 to 20)
#    0.000    1.833    1.667    2.500    0.000    5.667 
#    0.000    0.833    0.000    4.000    0.000    0.000 
#    0.000    0.000    0.000    0.000    0.000    0.000 
#
# Total GULP energy -268136.100898 kJ/mol
# GULP energy per Si atom -5586.168769 kJ/mol
# Density = 1.800557 g / cm^3
# Si number density = 18.046643 Si / 1000 Ang^3
#
#
#
# Elastic Constant Matrix: (Units=GPa)
#
#
# Indices 1 2 3 4 5 6 
#
# 1 29.3850 44.7241 50.5725 0.0000 0.0000 0.0000
# 2 44.7241 140.4604 94.2402 0.0000 0.0000 0.0000
# 3 50.5725 94.2402 195.2172 0.0000 0.0000 0.0000
# 4 0.0000 0.0000 0.0000 33.7471 0.0000 0.0000
# 5 0.0000 0.0000 0.0000 0.0000 36.7658 0.0000
# 6 0.0000 0.0000 0.0000 0.0000 0.0000 25.7643
#
#
#
# Elastic Compliance Matrix: (Units=1/GPa)
#
#
# Indices 1 2 3 4 5 6 
#
# 1 0.083752 -0.017912 -0.013050 0.000000 0.000000 0.000000
# 2 -0.017912 0.014361 -0.002292 0.000000 0.000000 0.000000
# 3 -0.013050 -0.002292 0.009610 0.000000 0.000000 0.000000
# 4 0.000000 0.000000 0.000000 0.029632 0.000000 0.000000
# 5 0.000000 0.000000 0.000000 0.000000 0.027199 0.000000
# 6 0.000000 0.000000 0.000000 0.000000 0.000000 0.038813
#
#
# Mechanical properties :
#
#
# Convention : Reuss Voigt Hill
#
# Bulk Modulus (GPa) = 24.26336 82.68181 53.47259
# Shear Modulus (GPa) = 17.62963 30.95717 24.29340
#
# Velocity S-wave (km/s) = 3.12892 4.14623 3.67297
# Velocity P-wave (km/s) = 5.15049 8.29679 6.90522
#
# Compressibility (1/GPa) = 0.04121441
#
# Stress axis : x y z
#
# Youngs Moduli (GPa) = 11.94003 69.63359 104.06096
#
# Poissons Ratio (x) = 1.24728 1.35796
# Poissons Ratio (y) = 0.21387 0.23855
# Poissons Ratio (z) = 0.15581 0.15963
#
# Static dielectric constant tensor:
#      x y z
#    x 1.607850 0.000000 0.000000 
#    y 0.000000 1.604930 0.000000 
#    z 0.000000 0.000000 1.591840 
# 
# From -- ./inp_files/48042.got.cif
#   From: 2010.05.17/outbox.cif.g08.bks.cpg/sg64_25_cif.got.tgz:48042.got - 2010.06.03 16:29:19.
