data_PCOD9478541
_publ_section_title
;
Structure prediction by ZEFSAII (Michael W. Deem and Ramdas Pophale) SiO2 
 PCOD9478541
Probable space group: C M C A
;
_chemical_formula_sum "Si O2"
_cell_formula_units_Z 80
_cell_length_a 8.674917
_cell_length_b 15.803593
_cell_length_c 29.300374
_cell_angle_alpha 90.000000
_cell_angle_beta 90.000000
_cell_angle_gamma 90.000000
_cell_volume 4016.930600
_symmetry_space_group_name_H-M "C M C A"
_symmetry_group_IT_number 64
_symmetry_cell_setting 'orthorhombic'
loop_
_space_group_symop_operation_xyz
x,y,z
-x,1/2-y,1/2+z
x,-y,-z
-x,1/2+y,1/2-z
-x,-y,-z
x,1/2+y,1/2-z
-x,y,z
x,1/2-y,1/2+z
1/2+x,1/2+y,z
1/2-x,-y,1/2+z
1/2+x,1/2-y,-z
1/2-x,y,1/2-z
1/2-x,1/2-y,-z
1/2+x,y,1/2-z
1/2-x,1/2+y,z
1/2+x,-y,1/2+z
loop_
_atom_site_type_symbol
_atom_site_label
_atom_site_fract_x
_atom_site_fract_y
_atom_site_fract_z
Si Si1 0.316321 0.262901 0.800057
Si Si2 0.682154 0.602135 0.849317
Si Si3 0.813928 0.416431 0.634863
Si Si4 0.682595 0.160756 0.943227
Si Si5 0.183674 0.848242 0.545476
O O1 0.500000 0.266904 0.798148
O O2 0.250000 0.277335 0.750000
O O3 0.266351 0.171825 0.819031
O O4 0.264028 0.335651 0.835400
O O5 0.500000 0.611669 0.842336
O O6 0.725920 0.504717 0.840932
O O7 0.723857 0.620862 0.901946
O O8 0.737158 0.410378 0.585217
O O9 0.000000 0.413776 0.629475
O O10 0.500000 0.153092 0.934120
O O11 0.727710 0.259848 0.946199
O O12 0.716239 0.123932 0.993526
O O13 0.000000 0.833190 0.548436
#
# Coordination Sequence:
#
# PCOD9478541 Si02
#       5
#    16  16  16  16  16
#     4  11  24  44  67  90 119 157 197 252 310 363
#     4  11  23  40  63  93 124 161 204 249 301 360
#     4  10  23  41  62  90 126 160 200 250 303 358
#     4  10  20  35  56  87 125 164 205 251 299 352
#     4  10  20  34  58  88 121 164 209 248 296 357
#
# _framework density 19.915704999999999
#
# number of rings (size 3 to 8) (size 9 to 14) (size 15 to 20)
#    0.000    1.600    2.000    2.400    0.000    6.400 
#    0.000    6.000    0.000    0.000    0.000    0.000 
#    0.000    0.000    0.000    0.000    0.000    0.000 
#
# Total GULP energy -223557.320880 kJ/mol
# GULP energy per Si atom -5588.933022 kJ/mol
# Density = 1.987038 g / cm^3
# Si number density = 19.915705 Si / 1000 Ang^3
#
#
#
# Elastic Constant Matrix: (Units=GPa)
#
#
# Indices 1 2 3 4 5 6 
#
# 1 23.9742 2.3175 6.6232 0.0000 0.0000 0.0000
# 2 2.3175 33.2388 -10.6965 0.0000 0.0000 0.0000
# 3 6.6232 -10.6965 57.5934 0.0000 0.0000 0.0000
# 4 0.0000 0.0000 0.0000 3.8770 0.0000 0.0000
# 5 0.0000 0.0000 0.0000 0.0000 35.7187 0.0000
# 6 0.0000 0.0000 0.0000 0.0000 0.0000 24.1223
#
#
#
# Elastic Compliance Matrix: (Units=1/GPa)
#
#
# Indices 1 2 3 4 5 6 
#
# 1 0.043841 -0.004977 -0.005966 0.000000 0.000000 0.000000
# 2 -0.004977 0.032563 0.006620 0.000000 0.000000 0.000000
# 3 -0.005966 0.006620 0.019279 0.000000 0.000000 0.000000
# 4 0.000000 0.000000 0.000000 0.257932 0.000000 0.000000
# 5 0.000000 0.000000 0.000000 0.000000 0.027997 0.000000
# 6 0.000000 0.000000 0.000000 0.000000 0.000000 0.041455
#
#
# Mechanical properties :
#
#
# Convention : Reuss Voigt Hill
#
# Bulk Modulus (GPa) = 11.48935 12.36608 11.92772
# Shear Modulus (GPa) = 10.85249 20.51441 15.68345
#
# Velocity S-wave (km/s) = 2.33689 3.21294 2.80927
# Velocity P-wave (km/s) = 3.61426 4.47065 4.06507
#
# Compressibility (1/GPa) = 0.08703711
#
# Stress axis : x y z
#
# Youngs Moduli (GPa) = 22.80978 30.70994 51.87081
#
# Poissons Ratio (x) = 0.15283 0.30946
# Poissons Ratio (y) = 0.11352 -0.34339
# Poissons Ratio (z) = 0.13608 -0.20330
#
# Static dielectric constant tensor:
#      x y z
#    x 1.666460 0.000000 0.000000 
#    y 0.000000 1.719230 0.000000 
#    z 0.000000 0.000000 1.687750 
# 
# From -- ./inp_files/51743.got.cif
#   From: 2010.05.17/outbox.cif.g08.bks.cpg/sg64_26_cif.got.tgz:51743.got - 2010.06.03 16:29:19.
