data_PCOD9478290
_publ_section_title
;
Structure prediction by ZEFSAII (Michael W. Deem and Ramdas Pophale) SiO2 
 PCOD9478290
Probable space group: C M C A
;
_chemical_formula_sum "Si O2"
_cell_formula_units_Z 80
_cell_length_a 7.433126
_cell_length_b 27.299671
_cell_length_c 17.523224
_cell_angle_alpha 90.000000
_cell_angle_beta 90.000000
_cell_angle_gamma 90.000000
_cell_volume 3555.845808
_symmetry_space_group_name_H-M "C M C A"
_symmetry_group_IT_number 64
_symmetry_cell_setting 'orthorhombic'
loop_
_space_group_symop_operation_xyz
x,y,z
-x,1/2-y,1/2+z
x,-y,-z
-x,1/2+y,1/2-z
-x,-y,-z
x,1/2+y,1/2-z
-x,y,z
x,1/2-y,1/2+z
1/2+x,1/2+y,z
1/2-x,-y,1/2+z
1/2+x,1/2-y,-z
1/2-x,y,1/2-z
1/2-x,1/2-y,-z
1/2+x,y,1/2-z
1/2-x,1/2+y,z
1/2+x,-y,1/2+z
loop_
_atom_site_type_symbol
_atom_site_label
_atom_site_fract_x
_atom_site_fract_y
_atom_site_fract_z
Si Si1 0.785121 0.806525 0.566435
Si Si2 0.720661 0.100863 0.618220
Si Si3 0.214689 0.086259 0.056123
Si Si4 0.704498 0.705792 0.888603
Si Si5 0.714582 0.996886 0.666547
O O1 0.750214 0.861240 0.595043
O O2 0.703761 0.802796 0.481025
O O3 0.717249 0.760534 0.616368
O O4 0.000000 0.800587 0.557668
O O5 0.500000 0.103362 0.619563
O O6 0.778670 0.090822 0.530803
O O7 0.785137 0.155010 0.642449
O O8 0.782149 0.052700 0.662422
O O9 0.000000 0.080502 0.051116
O O10 0.285819 0.039854 0.102284
O O11 0.500000 0.708511 0.860018
O O12 0.500000 0.000016 0.655316
O O13 0.750000 0.976193 0.750000
#
# Coordination Sequence:
#
# PCOD9478290 Si02
#       5
#    16  16  16  16  16
#     4   9  15  23  40  68  96 118 143 182 227 264
#     4   8  14  28  50  70  87 114 153 187 215 260
#     4   9  17  30  48  68  90 119 153 185 220 267
#     4   8  14  25  42  65  92 120 148 179 220 269
#     4  10  20  33  49  67  89 118 151 188 229 271
#
# _framework density 22.498163999999999
#
# number of rings (size 3 to 8) (size 9 to 14) (size 15 to 20)
#    0.000    3.200    0.000    2.400    0.000    4.000 
#    0.000    4.000    0.000    7.200    0.000    5.600 
#    0.000    0.000    0.000    0.000    0.000    0.000 
#
# Total GULP energy -222868.143482 kJ/mol
# GULP energy per Si atom -5571.703587 kJ/mol
# Density = 2.244696 g / cm^3
# Si number density = 22.498164 Si / 1000 Ang^3
#
#
#
# Elastic Constant Matrix: (Units=GPa)
#
#
# Indices 1 2 3 4 5 6 
#
# 1 77.3542 -11.5586 -6.5832 0.0000 0.0000 0.0000
# 2 -11.5586 123.3171 19.2627 0.0000 0.0000 0.0000
# 3 -6.5832 19.2627 26.7966 0.0000 0.0000 0.0000
# 4 0.0000 0.0000 0.0000 -4.4478 0.0000 0.0000
# 5 0.0000 0.0000 0.0000 0.0000 6.4092 0.0000
# 6 0.0000 0.0000 0.0000 0.0000 0.0000 16.5752
#
#
#
# Elastic Compliance Matrix: (Units=1/GPa)
#
#
# Indices 1 2 3 4 5 6 
#
# 1 0.013278 0.000828 0.002667 0.000000 0.000000 0.000000
# 2 0.000828 0.009187 -0.006400 0.000000 0.000000 0.000000
# 3 0.002667 -0.006400 0.042574 0.000000 0.000000 0.000000
# 4 0.000000 0.000000 0.000000 -0.224831 0.000000 0.000000
# 5 0.000000 0.000000 0.000000 0.000000 0.156026 0.000000
# 6 0.000000 0.000000 0.000000 0.000000 0.000000 0.060331
#
#
# Mechanical properties :
#
#
# Convention : Reuss Voigt Hill
#
# Bulk Modulus (GPa) = 16.88386 25.52330 21.20358
# Shear Modulus (GPa) = 60.88796 18.79713 39.84255
#
# Velocity S-wave (km/s) = 5.20791 2.89363 4.21280
# Velocity P-wave (km/s) = 6.60938 4.74693 5.75401
#
# Compressibility (1/GPa) = 0.05922817
#
# Stress axis : x y z
#
# Youngs Moduli (GPa) = 75.31123 108.85486 23.48840
#
# Poissons Ratio (x) = -0.09013 -0.06264
# Poissons Ratio (y) = -0.06236 0.15033
# Poissons Ratio (z) = -0.20085 0.69671
#
# Static dielectric constant tensor:
#      x y z
#    x 1.916700 0.000000 0.000000 
#    y 0.000000 1.916810 0.000000 
#    z 0.000000 0.000000 1.812990 
# 
# From -- ./inp_files/22353.got.cif
#   From: 2010.05.17/outbox.cif.g08.bks.cpg/sg64_12_cif.got.tgz:22353.got - 2010.06.03 16:29:19.
