data_PCOD9478342
_publ_section_title
;
Structure prediction by ZEFSAII (Michael W. Deem and Ramdas Pophale) SiO2 
 PCOD9478342
Probable space group: C M C A
;
_chemical_formula_sum "Si O2"
_cell_formula_units_Z 112
_cell_length_a 14.347020
_cell_length_b 13.261229
_cell_length_c 29.087964
_cell_angle_alpha 90.000000
_cell_angle_beta 90.000000
_cell_angle_gamma 90.000000
_cell_volume 5534.250366
_symmetry_space_group_name_H-M "C M C A"
_symmetry_group_IT_number 64
_symmetry_cell_setting 'orthorhombic'
loop_
_space_group_symop_operation_xyz
x,y,z
-x,1/2-y,1/2+z
x,-y,-z
-x,1/2+y,1/2-z
-x,-y,-z
x,1/2+y,1/2-z
-x,y,z
x,1/2-y,1/2+z
1/2+x,1/2+y,z
1/2-x,-y,1/2+z
1/2+x,1/2-y,-z
1/2-x,y,1/2-z
1/2-x,1/2-y,-z
1/2+x,y,1/2-z
1/2-x,1/2+y,z
1/2+x,-y,1/2+z
loop_
_atom_site_type_symbol
_atom_site_label
_atom_site_fract_x
_atom_site_fract_y
_atom_site_fract_z
Si Si1 0.109794 0.077009 0.558876
Si Si2 0.764408 0.920796 0.698089
Si Si3 0.887572 0.645794 0.036184
Si Si4 0.607010 0.890355 0.221159
Si Si5 0.611013 0.926586 0.326652
Si Si6 0.105076 0.270718 0.136311
Si Si7 0.196172 0.736062 0.123482
O O1 0.143200 0.149280 0.517295
O O2 0.114454 0.123094 0.609144
O O3 0.000000 0.066042 0.549488
O O4 0.146857 0.964868 0.553107
O O5 0.750000 0.878751 0.750000
O O6 0.819601 0.845198 0.664384
O O7 0.825759 0.020973 0.705708
O O8 0.666998 0.967275 0.677942
O O9 0.851474 0.720098 0.074730
O O10 0.000000 0.652086 0.037787
O O11 0.500000 0.919569 0.211584
O O12 0.616514 0.878490 0.275430
O O13 0.623325 0.792254 0.189918
O O14 0.500000 0.937961 0.337658
O O15 0.664797 0.846466 0.358802
O O16 0.193735 0.216437 0.116189
O O17 0.000000 0.233128 0.129162
#
# Coordination Sequence:
#
# PCOD9478342 Si02
#       7
#    16  16  16  16  16  16  16
#     4   8  16  34  57  78 110 140 170 234 291 330
#     4  10  22  36  54  77 111 147 190 228 276 332
#     4   9  18  33  55  86 111 134 177 232 289 335
#     4   9  18  36  57  75 105 144 181 228 280 326
#     4  10  22  39  55  78 116 151 184 235 288 328
#     4  10  20  33  53  78 106 142 182 222 276 330
#     4  12  23  32  58  85 109 150 192 235 270 340
#
# _framework density 20.23761
#
# number of rings (size 3 to 8) (size 9 to 14) (size 15 to 20)
#    0.000    2.286    1.429    2.143    2.000    3.429 
#    0.000    0.000    0.000    0.000    0.000    2.000 
#    0.000    0.000    0.000    0.000    0.000    0.000 
#
# Total GULP energy -311761.468197 kJ/mol
# GULP energy per Si atom -5567.169075 kJ/mol
# Density = 2.019155 g / cm^3
# Si number density = 20.237610 Si / 1000 Ang^3
#
#
#
# Elastic Constant Matrix: (Units=GPa)
#
#
# Indices 1 2 3 4 5 6 
#
# 1 65.3925 0.9179 0.2376 0.0000 0.0000 0.0000
# 2 0.9179 23.8769 5.8530 0.0000 0.0000 0.0000
# 3 0.2376 5.8530 48.9902 0.0000 0.0000 0.0000
# 4 0.0000 0.0000 0.0000 23.2639 0.0000 0.0000
# 5 0.0000 0.0000 0.0000 0.0000 19.2433 0.0000
# 6 0.0000 0.0000 0.0000 0.0000 0.0000 19.3775
#
#
#
# Elastic Compliance Matrix: (Units=1/GPa)
#
#
# Indices 1 2 3 4 5 6 
#
# 1 0.015301 -0.000587 -0.000004 0.000000 0.000000 0.000000
# 2 -0.000587 0.043168 -0.005155 0.000000 0.000000 0.000000
# 3 -0.000004 -0.005155 0.021028 0.000000 0.000000 0.000000
# 4 0.000000 0.000000 0.000000 0.042985 0.000000 0.000000
# 5 0.000000 0.000000 0.000000 0.000000 0.051966 0.000000
# 6 0.000000 0.000000 0.000000 0.000000 0.000000 0.051606
#
#
# Mechanical properties :
#
#
# Convention : Reuss Voigt Hill
#
# Bulk Modulus (GPa) = 14.70486 16.91962 15.81224
# Shear Modulus (GPa) = 19.21500 21.12701 20.17100
#
# Velocity S-wave (km/s) = 3.08469 3.23452 3.16049
# Velocity P-wave (km/s) = 4.46866 4.72527 4.59876
#
# Compressibility (1/GPa) = 0.06800472
#
# Stress axis : x y z
#
# Youngs Moduli (GPa) = 65.35717 23.16553 47.55544
#
# Poissons Ratio (x) = 0.01360 0.00019
# Poissons Ratio (y) = 0.03838 0.24513
# Poissons Ratio (z) = 0.00027 0.11941
#
# Static dielectric constant tensor:
#      x y z
#    x 1.772690 0.000000 0.000000 
#    y 0.000000 1.754130 0.000000 
#    z 0.000000 0.000000 1.767280 
# 
# From -- ./inp_files/50045.got.cif
#   From: 2010.05.17/outbox.cif.g08.bks.cpg/sg64_26_cif.got.tgz:50045.got - 2010.06.03 16:29:19.
