data_PCOD9478051
_publ_section_title
;
Structure prediction by ZEFSAII (Michael W. Deem and Ramdas Pophale) SiO2 
 PCOD9478051
Probable space group: C M C A
;
_chemical_formula_sum "Si O2"
_cell_formula_units_Z 112
_cell_length_a 14.452721
_cell_length_b 14.079566
_cell_length_c 26.598103
_cell_angle_alpha 90.000000
_cell_angle_beta 90.000000
_cell_angle_gamma 90.000000
_cell_volume 5412.395826
_symmetry_space_group_name_H-M "C M C A"
_symmetry_group_IT_number 64
_symmetry_cell_setting 'orthorhombic'
loop_
_space_group_symop_operation_xyz
x,y,z
-x,1/2-y,1/2+z
x,-y,-z
-x,1/2+y,1/2-z
-x,-y,-z
x,1/2+y,1/2-z
-x,y,z
x,1/2-y,1/2+z
1/2+x,1/2+y,z
1/2-x,-y,1/2+z
1/2+x,1/2-y,-z
1/2-x,y,1/2-z
1/2-x,1/2-y,-z
1/2+x,y,1/2-z
1/2-x,1/2+y,z
1/2+x,-y,1/2+z
loop_
_atom_site_type_symbol
_atom_site_label
_atom_site_fract_x
_atom_site_fract_y
_atom_site_fract_z
Si Si1 0.741263 0.053739 0.635002
Si Si2 0.359223 0.751000 0.744085
Si Si3 0.889907 0.221470 0.462374
Si Si4 0.893720 0.575834 0.319297
Si Si5 0.103662 0.728133 0.649309
Si Si6 0.604145 0.036662 0.781881
Si Si7 0.741870 0.399363 0.022038
O O1 0.673568 0.962882 0.638103
O O2 0.678631 0.143755 0.652685
O O3 0.824483 0.032989 0.672685
O O4 0.771876 0.080279 0.579301
O O5 0.250000 0.748916 0.750000
O O6 0.393814 0.785782 0.798680
O O7 0.396301 0.645937 0.735775
O O8 0.385002 0.815286 0.696775
O O9 0.879431 0.213908 0.401712
O O10 0.827570 0.143820 0.490686
O O11 0.841250 0.322234 0.476425
O O12 0.000000 0.218530 0.473847
O O13 0.866686 0.522533 0.267263
O O14 0.000000 0.553265 0.330578
O O15 0.000000 0.686686 0.644344
O O16 0.500000 0.008120 0.795707
O O17 0.711287 0.500000 0.000000
#
# Coordination Sequence:
#
# PCOD9478051 Si02
#       7
#    16  16  16  16  16  16  16
#     4  11  21  40  60  84 120 165 201 247 313 362
#     4  12  21  35  59  88 126 165 202 243 299 359
#     4   9  21  42  67  94 124 160 207 265 323 377
#     4  11  23  37  56  87 123 159 205 250 295 366
#     4  10  19  36  63  87 117 162 205 245 301 370
#     4  11  22  38  56  84 124 160 202 249 294 355
#     4  10  23  42  66  92 124 160 211 266 315 381
#
# _framework density 20.693238000000001
#
# number of rings (size 3 to 8) (size 9 to 14) (size 15 to 20)
#    0.000    1.429    2.857    3.000    0.000    4.000 
#    2.571    1.429    0.000    0.000    0.000    0.000 
#    0.000    0.000    0.000    0.000    0.000    0.000 
#
# Total GULP energy -312912.516035 kJ/mol
# GULP energy per Si atom -5587.723501 kJ/mol
# Density = 2.064614 g / cm^3
# Si number density = 20.693238 Si / 1000 Ang^3
#
#
#
# Elastic Constant Matrix: (Units=GPa)
#
#
# Indices 1 2 3 4 5 6 
#
# 1 95.1537 -15.0033 23.5909 0.0000 0.0000 0.0000
# 2 -15.0033 49.1680 -1.4882 0.0000 0.0000 0.0000
# 3 23.5909 -1.4882 47.6453 0.0000 0.0000 0.0000
# 4 0.0000 0.0000 0.0000 29.7017 0.0000 0.0000
# 5 0.0000 0.0000 0.0000 0.0000 27.2815 0.0000
# 6 0.0000 0.0000 0.0000 0.0000 0.0000 20.0880
#
#
#
# Elastic Compliance Matrix: (Units=1/GPa)
#
#
# Indices 1 2 3 4 5 6 
#
# 1 0.012606 0.003661 -0.006127 0.000000 0.000000 0.000000
# 2 0.003661 0.021421 -0.001144 0.000000 0.000000 0.000000
# 3 -0.006127 -0.001144 0.023986 0.000000 0.000000 0.000000
# 4 0.000000 0.000000 0.000000 0.033668 0.000000 0.000000
# 5 0.000000 0.000000 0.000000 0.000000 0.036655 0.000000
# 6 0.000000 0.000000 0.000000 0.000000 0.000000 0.049781
#
#
# Mechanical properties :
#
#
# Convention : Reuss Voigt Hill
#
# Bulk Modulus (GPa) = 19.68750 22.90731 21.29741
# Shear Modulus (GPa) = 24.71974 27.73877 26.22925
#
# Velocity S-wave (km/s) = 3.46002 3.66522 3.56410
# Velocity P-wave (km/s) = 5.04945 5.38570 5.22028
#
# Compressibility (1/GPa) = 0.05079365
#
# Stress axis : x y z
#
# Youngs Moduli (GPa) = 79.32960 46.68325 41.69016
#
# Poissons Ratio (x) = -0.17091 0.25544
# Poissons Ratio (y) = -0.29043 0.04768
# Poissons Ratio (z) = 0.48606 0.05339
#
# Static dielectric constant tensor:
#      x y z
#    x 1.736850 0.000000 0.000000 
#    y 0.000000 1.770880 0.000000 
#    z 0.000000 0.000000 1.748220 
# 
# From -- ./inp_files/45219.got.cif
#   From: 2010.05.17/outbox.cif.g08.bks.cpg/sg64_23_cif.got.tgz:45219.got - 2010.06.03 16:29:19.
