data_PCOD9478827
_publ_section_title
;
Structure prediction by ZEFSAII (Michael W. Deem and Ramdas Pophale) SiO2 
 PCOD9478827
Probable space group: C M C A
;
_chemical_formula_sum "Si O2"
_cell_formula_units_Z 96
_cell_length_a 8.675991
_cell_length_b 25.888770
_cell_length_c 24.260962
_cell_angle_alpha 90.000000
_cell_angle_beta 90.000000
_cell_angle_gamma 90.000000
_cell_volume 5449.272519
_symmetry_space_group_name_H-M "C M C A"
_symmetry_group_IT_number 64
_symmetry_cell_setting 'orthorhombic'
loop_
_space_group_symop_operation_xyz
x,y,z
-x,1/2-y,1/2+z
x,-y,-z
-x,1/2+y,1/2-z
-x,-y,-z
x,1/2+y,1/2-z
-x,y,z
x,1/2-y,1/2+z
1/2+x,1/2+y,z
1/2-x,-y,1/2+z
1/2+x,1/2-y,-z
1/2-x,y,1/2-z
1/2-x,1/2-y,-z
1/2+x,y,1/2-z
1/2-x,1/2+y,z
1/2+x,-y,1/2+z
loop_
_atom_site_type_symbol
_atom_site_label
_atom_site_fract_x
_atom_site_fract_y
_atom_site_fract_z
Si Si1 0.313782 0.808170 0.000343
Si Si2 0.185961 0.850297 0.381312
Si Si3 0.313969 0.846696 0.881324
Si Si4 0.183692 0.941905 0.189767
Si Si5 0.685468 0.444398 0.689811
Si Si6 0.315559 0.251555 0.811377
O O1 0.500000 0.805042 0.000952
O O2 0.266774 0.837491 0.056106
O O3 0.250000 0.750000 0.000000
O O4 0.265594 0.837072 0.944388
O O5 0.261959 0.900499 0.354913
O O6 0.226805 0.800463 0.344312
O O7 0.000000 0.856196 0.379852
O O8 0.500000 0.844028 0.879490
O O9 0.269052 0.901388 0.854793
O O10 0.248236 0.800620 0.844286
O O11 0.250000 0.926962 0.250000
O O12 0.000000 0.943868 0.193235
O O13 0.248842 0.998927 0.177304
O O14 0.500000 0.447168 0.692742
O O15 0.750000 0.429230 0.750000
O O16 0.500000 0.254615 0.809361
O O17 0.250000 0.250272 0.750000
#
# Coordination Sequence:
#
# PCOD9478827 Si02
#       6
#    16  16  16  16  16  16
#     4  10  20  37  58  82 112 149 189 228 274 327
#     4  10  21  37  56  81 112 147 187 228 274 330
#     4  10  21  36  57  83 112 146 186 228 275 330
#     4  11  22  37  59  84 110 145 184 230 282 333
#     4  10  20  36  57  82 111 146 183 226 277 332
#     4  11  22  34  52  80 112 146 181 226 280 330
#
# _framework density 17.61703
#
# number of rings (size 3 to 8) (size 9 to 14) (size 15 to 20)
#    0.000    1.667    1.667    4.500    0.000    6.000 
#    0.000    0.833    0.000    5.000    0.000    0.000 
#    0.000    0.000    0.000    0.000    0.000    0.000 
#
# Total GULP energy -268155.226765 kJ/mol
# GULP energy per Si atom -5586.567224 kJ/mol
# Density = 1.757693 g / cm^3
# Si number density = 17.617030 Si / 1000 Ang^3
#
#
#
# Elastic Constant Matrix: (Units=GPa)
#
#
# Indices 1 2 3 4 5 6 
#
# 1 44.3921 44.8319 48.4621 0.0000 0.0000 0.0000
# 2 44.8319 128.8527 111.7419 0.0000 0.0000 0.0000
# 3 48.4621 111.7419 194.6090 0.0000 0.0000 0.0000
# 4 0.0000 0.0000 0.0000 15.8534 0.0000 0.0000
# 5 0.0000 0.0000 0.0000 0.0000 13.9204 0.0000
# 6 0.0000 0.0000 0.0000 0.0000 0.0000 29.1480
#
#
#
# Elastic Compliance Matrix: (Units=1/GPa)
#
#
# Indices 1 2 3 4 5 6 
#
# 1 0.035902 -0.009438 -0.003521 0.000000 0.000000 0.000000
# 2 -0.009438 0.017939 -0.007950 0.000000 0.000000 0.000000
# 3 -0.003521 -0.007950 0.010580 0.000000 0.000000 0.000000
# 4 0.000000 0.000000 0.000000 0.063078 0.000000 0.000000
# 5 0.000000 0.000000 0.000000 0.000000 0.071837 0.000000
# 6 0.000000 0.000000 0.000000 0.000000 0.000000 0.034308
#
#
# Mechanical properties :
#
#
# Convention : Reuss Voigt Hill
#
# Bulk Modulus (GPa) = 44.24235 86.43617 65.33926
# Shear Modulus (GPa) = 17.66811 22.63889 20.15350
#
# Velocity S-wave (km/s) = 3.17029 3.58866 3.38594
# Velocity P-wave (km/s) = 6.21039 8.14505 7.24261
#
# Compressibility (1/GPa) = 0.02260278
#
# Stress axis : x y z
#
# Youngs Moduli (GPa) = 27.85364 55.74529 94.51602
#
# Poissons Ratio (x) = 0.52610 0.33283
# Poissons Ratio (y) = 0.26287 0.75140
# Poissons Ratio (z) = 0.09809 0.44318
#
# Static dielectric constant tensor:
#      x y z
#    x 1.597990 0.000000 0.000000 
#    y 0.000000 1.571360 0.000000 
#    z 0.000000 0.000000 1.593930 
# 
# From -- ./inp_files/36986.got.cif
#   From: 2010.05.17/outbox.cif.g08.bks.cpg/sg64_19_cif.got.tgz:36986.got - 2010.06.03 16:29:19.
