data_PCOD9478968
_publ_section_title
;
Structure prediction by ZEFSAII (Michael W. Deem and Ramdas Pophale) SiO2 
 PCOD9478968
Probable space group: C M C A
;
_chemical_formula_sum "Si O2"
_cell_formula_units_Z 68
_cell_length_a 24.414961
_cell_length_b 27.151101
_cell_length_c 5.237344
_cell_angle_alpha 90.000000
_cell_angle_beta 90.000000
_cell_angle_gamma 90.000000
_cell_volume 3471.799053
_symmetry_space_group_name_H-M "C M C A"
_symmetry_group_IT_number 64
_symmetry_cell_setting 'orthorhombic'
loop_
_space_group_symop_operation_xyz
x,y,z
-x,1/2-y,1/2+z
x,-y,-z
-x,1/2+y,1/2-z
-x,-y,-z
x,1/2+y,1/2-z
-x,y,z
x,1/2-y,1/2+z
1/2+x,1/2+y,z
1/2-x,-y,1/2+z
1/2+x,1/2-y,-z
1/2-x,y,1/2-z
1/2-x,1/2-y,-z
1/2+x,y,1/2-z
1/2-x,1/2+y,z
1/2+x,-y,1/2+z
loop_
_atom_site_type_symbol
_atom_site_label
_atom_site_fract_x
_atom_site_fract_y
_atom_site_fract_z
Si Si1 0.895990 0.552774 0.743388
Si Si2 0.195883 0.500000 0.500000
Si Si3 0.500000 0.500000 0.000000
Si Si4 0.128726 0.384237 0.765455
Si Si5 0.250000 0.587347 0.250000
Si Si6 0.435638 0.717125 0.297665
O O1 0.846418 0.513440 0.724852
O O2 0.884629 0.590456 0.506825
O O3 0.951848 0.525268 0.679329
O O4 0.895442 0.582426 0.006360
O O5 0.232366 0.547953 0.464082
O O6 0.194635 0.383037 0.802789
O O7 0.101543 0.330916 0.777847
O O8 0.500000 0.702470 0.290821
O O9 0.426039 0.746676 0.559129
#
# Coordination Sequence:
#
# PCOD9478968 Si02
#       6
#    16   8   4  16   8  16
#     4  10  23  36  57  87 126 162 204 246 299 360
#     4   9  18  35  54  82 117 166 201 240 278 352
#     4  10  24  38  56  90 132 170 202 250 318 354
#     4  11  23  39  61  91 116 159 205 255 303 369
#     4  10  20  36  62  86 122 162 212 250 296 356
#     4  10  22  41  64  87 116 152 196 253 317 380
#
# _framework density 19.586386999999998
#
# number of rings (size 3 to 8) (size 9 to 14) (size 15 to 20)
#    0.000    1.882    0.000    2.824    3.294   11.294 
#    0.000    1.176    0.000    0.000    0.000    0.000 
#    0.000    0.000    0.000    0.000    0.000    0.000 
#
# Total GULP energy -189395.723257 kJ/mol
# GULP energy per Si atom -5570.462449 kJ/mol
# Density = 1.954181 g / cm^3
# Si number density = 19.586387 Si / 1000 Ang^3
#
#
#
# Elastic Constant Matrix: (Units=GPa)
#
#
# Indices 1 2 3 4 5 6 
#
# 1 146.4633 56.0885 20.3819 0.0000 0.0000 0.0000
# 2 56.0885 93.6277 17.9740 0.0000 0.0000 0.0000
# 3 20.3819 17.9740 89.7773 0.0000 0.0000 0.0000
# 4 0.0000 0.0000 0.0000 20.5706 0.0000 0.0000
# 5 0.0000 0.0000 0.0000 0.0000 13.1640 0.0000
# 6 0.0000 0.0000 0.0000 0.0000 0.0000 41.6708
#
#
#
# Elastic Compliance Matrix: (Units=1/GPa)
#
#
# Indices 1 2 3 4 5 6 
#
# 1 0.008945 -0.005167 -0.000996 0.000000 0.000000 0.000000
# 2 -0.005167 0.014093 -0.001648 0.000000 0.000000 0.000000
# 3 -0.000996 -0.001648 0.011695 0.000000 0.000000 0.000000
# 4 0.000000 0.000000 0.000000 0.048613 0.000000 0.000000
# 5 0.000000 0.000000 0.000000 0.000000 0.075964 0.000000
# 6 0.000000 0.000000 0.000000 0.000000 0.000000 0.023998
#
#
# Mechanical properties :
#
#
# Convention : Reuss Voigt Hill
#
# Bulk Modulus (GPa) = 52.33216 57.63969 54.98592
# Shear Modulus (GPa) = 24.35446 30.77603 27.56524
#
# Velocity S-wave (km/s) = 3.53007 3.96826 3.75556
# Velocity P-wave (km/s) = 6.58725 7.10552 6.85129
#
# Compressibility (1/GPa) = 0.01910871
#
# Stress axis : x y z
#
# Youngs Moduli (GPa) = 111.79218 70.95910 85.50780
#
# Poissons Ratio (x) = 0.36668 0.08519
# Poissons Ratio (y) = 0.57768 0.14094
# Poissons Ratio (z) = 0.11137 0.11696
#
# Static dielectric constant tensor:
#      x y z
#    x 1.697790 0.000000 0.000000 
#    y 0.000000 1.669170 0.000000 
#    z 0.000000 0.000000 1.683470 
# 
# From -- ./inp_files/1862.got.cif
#   From: 2010.05.17/outbox.cif.g08.bks.cpg/sg64_1_cif.got.tgz:1862.got - 2010.06.03 16:29:19.
