data_PCOD9478618
_publ_section_title
;
Structure prediction by ZEFSAII (Michael W. Deem and Ramdas Pophale) SiO2 
 PCOD9478618
Probable space group: C M C A
;
_chemical_formula_sum "Si O2"
_cell_formula_units_Z 96
_cell_length_a 14.295125
_cell_length_b 19.179210
_cell_length_c 16.576709
_cell_angle_alpha 90.000000
_cell_angle_beta 90.000000
_cell_angle_gamma 90.000000
_cell_volume 4544.823117
_symmetry_space_group_name_H-M "C M C A"
_symmetry_group_IT_number 64
_symmetry_cell_setting 'orthorhombic'
loop_
_space_group_symop_operation_xyz
x,y,z
-x,1/2-y,1/2+z
x,-y,-z
-x,1/2+y,1/2-z
-x,-y,-z
x,1/2+y,1/2-z
-x,y,z
x,1/2-y,1/2+z
1/2+x,1/2+y,z
1/2-x,-y,1/2+z
1/2+x,1/2-y,-z
1/2-x,y,1/2-z
1/2-x,1/2-y,-z
1/2+x,y,1/2-z
1/2-x,1/2+y,z
1/2+x,-y,1/2+z
loop_
_atom_site_type_symbol
_atom_site_label
_atom_site_fract_x
_atom_site_fract_y
_atom_site_fract_z
Si Si1 0.607019 0.710127 0.859089
Si Si2 0.887998 0.703578 0.290206
Si Si3 0.733095 0.044125 0.425587
Si Si4 0.155196 0.438320 0.294998
Si Si5 0.604103 0.567876 0.305103
Si Si6 0.385628 0.178370 0.465215
O O1 0.500000 0.734898 0.867203
O O2 0.650919 0.754388 0.786318
O O3 0.606815 0.630304 0.828443
O O4 0.645412 0.711964 0.950049
O O5 0.874771 0.622484 0.266781
O O6 0.857774 0.717131 0.381908
O O7 0.000000 0.716926 0.291654
O O8 0.817269 0.075095 0.372541
O O9 0.662947 0.103114 0.457204
O O10 0.772620 0.000000 0.500000
O O11 0.680266 0.988843 0.368905
O O12 0.250000 0.415455 0.250000
O O13 0.106330 0.489964 0.231211
O O14 0.500000 0.583902 0.335072
O O15 0.500000 0.171420 0.466467
#
# Coordination Sequence:
#
# PCOD9478618 Si02
#       6
#    16  16  16  16  16  16
#     4  10  20  36  59  88 121 154 194 249 304 354
#     4   9  19  37  59  86 119 158 201 240 291 367
#     4  11  21  36  59  89 125 149 202 257 298 358
#     4  10  20  35  55  86 120 152 195 251 302 356
#     4  10  21  38  60  82 116 168 209 240 294 360
#     4  10  20  35  60  91 120 156 197 245 309 361
#
# _framework density 21.122934000000001
#
# number of rings (size 3 to 8) (size 9 to 14) (size 15 to 20)
#    0.000    2.000    3.333    0.500    0.000    1.333 
#    3.000    4.167    0.000    6.000    0.000    0.000 
#    0.000    0.000    0.000    0.000    0.000    0.000 
#
# Total GULP energy -267806.350865 kJ/mol
# GULP energy per Si atom -5579.298976 kJ/mol
# Density = 2.107486 g / cm^3
# Si number density = 21.122934 Si / 1000 Ang^3
#
#
#
# Elastic Constant Matrix: (Units=GPa)
#
#
# Indices 1 2 3 4 5 6 
#
# 1 68.8397 5.4572 32.9393 0.0000 0.0000 0.0000
# 2 5.4572 51.7188 48.1611 0.0000 0.0000 0.0000
# 3 32.9393 48.1611 179.6582 0.0000 0.0000 0.0000
# 4 0.0000 0.0000 0.0000 35.2686 0.0000 0.0000
# 5 0.0000 0.0000 0.0000 0.0000 26.9702 0.0000
# 6 0.0000 0.0000 0.0000 0.0000 0.0000 20.5254
#
#
#
# Elastic Compliance Matrix: (Units=1/GPa)
#
#
# Indices 1 2 3 4 5 6 
#
# 1 0.015998 0.001390 -0.003306 0.000000 0.000000 0.000000
# 2 0.001390 0.025889 -0.007195 0.000000 0.000000 0.000000
# 3 -0.003306 -0.007195 0.008101 0.000000 0.000000 0.000000
# 4 0.000000 0.000000 0.000000 0.028354 0.000000 0.000000
# 5 0.000000 0.000000 0.000000 0.000000 0.037078 0.000000
# 6 0.000000 0.000000 0.000000 0.000000 0.000000 0.048720
#
#
# Mechanical properties :
#
#
# Convention : Reuss Voigt Hill
#
# Bulk Modulus (GPa) = 31.47927 52.59244 42.03586
# Shear Modulus (GPa) = 25.91353 30.79678 28.35515
#
# Velocity S-wave (km/s) = 3.50636 3.82249 3.66783
# Velocity P-wave (km/s) = 5.59714 6.66590 6.15476
#
# Compressibility (1/GPa) = 0.03176694
#
# Stress axis : x y z
#
# Youngs Moduli (GPa) = 62.50732 38.62708 123.44176
#
# Poissons Ratio (x) = -0.05371 0.40809
# Poissons Ratio (y) = -0.08691 0.88815
# Poissons Ratio (z) = 0.20664 0.27792
#
# Static dielectric constant tensor:
#      x y z
#    x 1.780360 0.000000 0.000000 
#    y 0.000000 1.743290 0.000000 
#    z 0.000000 0.000000 1.788750 
# 
# From -- ./inp_files/23860.got.cif
#   From: 2010.05.17/outbox.cif.g08.bks.cpg/sg64_12_cif.got.tgz:23860.got - 2010.06.03 16:29:19.
