data_PCOD9478829
_publ_section_title
;
Structure prediction by ZEFSAII (Michael W. Deem and Ramdas Pophale) SiO2 
 PCOD9478829
Probable space group: C M C A
;
_chemical_formula_sum "Si O2"
_cell_formula_units_Z 116
_cell_length_a 9.187021
_cell_length_b 24.685588
_cell_length_c 29.330038
_cell_angle_alpha 90.000000
_cell_angle_beta 90.000000
_cell_angle_gamma 90.000000
_cell_volume 6651.671778
_symmetry_space_group_name_H-M "C M C A"
_symmetry_group_IT_number 64
_symmetry_cell_setting 'orthorhombic'
loop_
_space_group_symop_operation_xyz
x,y,z
-x,1/2-y,1/2+z
x,-y,-z
-x,1/2+y,1/2-z
-x,-y,-z
x,1/2+y,1/2-z
-x,y,z
x,1/2-y,1/2+z
1/2+x,1/2+y,z
1/2-x,-y,1/2+z
1/2+x,1/2-y,-z
1/2-x,y,1/2-z
1/2-x,1/2-y,-z
1/2+x,y,1/2-z
1/2-x,1/2+y,z
1/2+x,-y,1/2+z
loop_
_atom_site_type_symbol
_atom_site_label
_atom_site_fract_x
_atom_site_fract_y
_atom_site_fract_z
Si Si1 0.174702 0.766728 0.952467
Si Si2 0.672940 0.357714 0.297434
Si Si3 0.172237 0.988025 0.296204
Si Si4 0.170203 0.180002 0.889086
Si Si5 0.169622 0.979340 0.607112
Si Si6 0.000000 0.500000 0.500000
Si Si7 0.260444 0.078102 0.547520
Si Si8 0.831486 0.878659 0.547133
O O1 0.240403 0.727022 0.914453
O O2 0.227659 0.827964 0.944310
O O3 0.000000 0.762732 0.955405
O O4 0.250000 0.750000 0.000000
O O5 0.500000 0.345404 0.297322
O O6 0.750000 0.341417 0.250000
O O7 0.688035 0.423050 0.300900
O O8 0.754574 0.332784 0.340826
O O9 0.250000 0.005501 0.250000
O O10 0.000000 0.998888 0.292514
O O11 0.234313 0.014230 0.342482
O O12 0.179883 0.126589 0.921172
O O13 0.000000 0.194134 0.883845
O O14 0.224835 0.930131 0.576222
O O15 0.000000 0.967750 0.613485
O O16 0.179562 0.036079 0.580622
O O17 0.123534 0.459880 0.477513
O O18 0.172117 0.104991 0.506117
O O19 0.000000 0.865905 0.558797
#
# Coordination Sequence:
#
# PCOD9478829 Si02
#       8
#    16  16  16  16  16   4  16  16
#     4  12  26  41  60  82 114 154 198 248 296 350
#     4  10  20  36  59  86 120 154 193 240 296 355
#     4   9  18  33  52  81 115 149 186 228 279 341
#     4  12  24  38  59  87 118 157 198 243 297 352
#     4  10  20  36  57  82 112 152 191 234 284 344
#     4  12  24  36  46  88 124 164 190 240 278 352
#     4  12  22  34  55  80 122 156 194 234 290 343
#     4  11  23  38  59  82 112 154 201 243 291 349
#
# _framework density 17.439225
#
# number of rings (size 3 to 8) (size 9 to 14) (size 15 to 20)
#    0.000    1.103    4.828    2.483    0.966    2.759 
#    1.241    0.000    0.000    0.828    0.000    3.862 
#    0.000    0.000    0.000    0.000    0.000    0.000 
#
# Total GULP energy -323123.010203 kJ/mol
# GULP energy per Si atom -5571.086383 kJ/mol
# Density = 1.739953 g / cm^3
# Si number density = 17.439225 Si / 1000 Ang^3
#
#
#
# Elastic Constant Matrix: (Units=GPa)
#
#
# Indices 1 2 3 4 5 6 
#
# 1 115.0774 40.9579 61.2979 0.0000 0.0000 0.0000
# 2 40.9579 88.7792 55.4790 0.0000 0.0000 0.0000
# 3 61.2979 55.4790 155.2450 0.0000 0.0000 0.0000
# 4 0.0000 0.0000 0.0000 22.5676 0.0000 0.0000
# 5 0.0000 0.0000 0.0000 0.0000 2.7952 0.0000
# 6 0.0000 0.0000 0.0000 0.0000 0.0000 37.1873
#
#
#
# Elastic Compliance Matrix: (Units=1/GPa)
#
#
# Indices 1 2 3 4 5 6 
#
# 1 0.011681 -0.003228 -0.003459 0.000000 0.000000 0.000000
# 2 -0.003228 0.015394 -0.004227 0.000000 0.000000 0.000000
# 3 -0.003459 -0.004227 0.009318 0.000000 0.000000 0.000000
# 4 0.000000 0.000000 0.000000 0.044311 0.000000 0.000000
# 5 0.000000 0.000000 0.000000 0.000000 0.357750 0.000000
# 6 0.000000 0.000000 0.000000 0.000000 0.000000 0.026891
#
#
# Mechanical properties :
#
#
# Convention : Reuss Voigt Hill
#
# Bulk Modulus (GPa) = 68.65120 74.95235 71.80177
# Shear Modulus (GPa) = 10.16204 25.93446 18.04825
#
# Velocity S-wave (km/s) = 2.41656 3.86052 3.22051
# Velocity P-wave (km/s) = 6.87298 7.93372 7.42232
#
# Compressibility (1/GPa) = 0.01456639
#
# Stress axis : x y z
#
# Youngs Moduli (GPa) = 85.60991 64.95854 107.32253
#
# Poissons Ratio (x) = 0.20965 0.37120
# Poissons Ratio (y) = 0.27631 0.45366
# Poissons Ratio (z) = 0.29610 0.27458
#
# Static dielectric constant tensor:
#      x y z
#    x 1.598530 0.000000 0.000000 
#    y 0.000000 1.583250 0.000000 
#    z 0.000000 0.000000 1.608260 
# 
# From -- ./inp_files/52269.got.cif
#   From: 2010.05.17/outbox.cif.g08.bks.cpg/sg64_27_cif.got.tgz:52269.got - 2010.06.03 16:29:19.
