data_PCOD9478261
_publ_section_title
;
Structure prediction by ZEFSAII (Michael W. Deem and Ramdas Pophale) SiO2 
 PCOD9478261
Probable space group: C M C A
;
_chemical_formula_sum "Si O2"
_cell_formula_units_Z 128
_cell_length_a 17.975570
_cell_length_b 16.692261
_cell_length_c 21.433162
_cell_angle_alpha 90.000000
_cell_angle_beta 90.000000
_cell_angle_gamma 90.000000
_cell_volume 6431.082544
_symmetry_space_group_name_H-M "C M C A"
_symmetry_group_IT_number 64
_symmetry_cell_setting 'orthorhombic'
loop_
_space_group_symop_operation_xyz
x,y,z
-x,1/2-y,1/2+z
x,-y,-z
-x,1/2+y,1/2-z
-x,-y,-z
x,1/2+y,1/2-z
-x,y,z
x,1/2-y,1/2+z
1/2+x,1/2+y,z
1/2-x,-y,1/2+z
1/2+x,1/2-y,-z
1/2-x,y,1/2-z
1/2-x,1/2-y,-z
1/2+x,y,1/2-z
1/2-x,1/2+y,z
1/2+x,-y,1/2+z
loop_
_atom_site_type_symbol
_atom_site_label
_atom_site_fract_x
_atom_site_fract_y
_atom_site_fract_z
Si Si1 0.668694 0.930109 0.238213
Si Si2 0.586913 0.978727 0.669661
Si Si3 0.414935 0.861159 0.789243
Si Si4 0.659478 0.108202 0.080328
Si Si5 0.411003 0.553143 0.608592
Si Si6 0.677483 0.744836 0.215899
Si Si7 0.829659 0.146736 0.088691
Si Si8 0.911504 0.210411 0.527649
O O1 0.750000 0.969760 0.250000
O O2 0.626246 0.941782 0.303822
O O3 0.618965 0.956637 0.179173
O O4 0.683892 0.839382 0.217820
O O5 0.500000 0.989998 0.657565
O O6 0.595654 0.922070 0.731255
O O7 0.625335 0.931169 0.613099
O O8 0.500000 0.866632 0.810248
O O9 0.361879 0.872341 0.848110
O O10 0.394824 0.778045 0.755868
O O11 0.630190 0.017614 0.071293
O O12 0.747178 0.119647 0.069875
O O13 0.615989 0.169028 0.035671
O O14 0.500000 0.540991 0.606769
O O15 0.395873 0.641193 0.580040
O O16 0.750000 0.709794 0.250000
O O17 0.674994 0.705049 0.148778
O O18 0.870891 0.205027 0.039938
O O19 0.000000 0.223136 0.527707
#
# Coordination Sequence:
#
# PCOD9478261 Si02
#       8
#    16  16  16  16  16  16  16  16
#     4  11  21  34  56  85 118 153 189 236 295 356
#     4  10  21  35  55  84 116 153 192 233 291 358
#     4  10  20  32  53  81 109 145 187 236 288 345
#     4  12  22  37  60  86 120 154 201 250 301 353
#     4  11  22  38  59  88 123 156 197 249 304 361
#     4  10  20  36  54  80 115 152 187 236 292 352
#     4  11  22  39  60  85 119 157 198 241 297 360
#     4  11  24  41  61  86 120 162 204 251 304 356
#
# _framework density 19.903335999999999
#
# number of rings (size 3 to 8) (size 9 to 14) (size 15 to 20)
#    0.000    1.250    3.750    3.375    0.000    2.500 
#    0.000    0.000    0.000    0.000    0.000    0.000 
#    0.000    9.000    0.000    0.000    0.000    0.000 
#
# Total GULP energy -356938.026530 kJ/mol
# GULP energy per Si atom -5577.156665 kJ/mol
# Density = 1.985803 g / cm^3
# Si number density = 19.903336 Si / 1000 Ang^3
#
#
#
# Elastic Constant Matrix: (Units=GPa)
#
#
# Indices 1 2 3 4 5 6 
#
# 1 100.2134 23.4589 3.9412 0.0000 0.0000 0.0000
# 2 23.4589 24.8072 5.7224 0.0000 0.0000 0.0000
# 3 3.9412 5.7224 20.1247 0.0000 0.0000 0.0000
# 4 0.0000 0.0000 0.0000 20.7697 0.0000 0.0000
# 5 0.0000 0.0000 0.0000 0.0000 30.0908 0.0000
# 6 0.0000 0.0000 0.0000 0.0000 0.0000 27.6233
#
#
#
# Elastic Compliance Matrix: (Units=1/GPa)
#
#
# Indices 1 2 3 4 5 6 
#
# 1 0.012835 -0.012368 0.001003 0.000000 0.000000 0.000000
# 2 -0.012368 0.055060 -0.013234 0.000000 0.000000 0.000000
# 3 0.001003 -0.013234 0.053257 0.000000 0.000000 0.000000
# 4 0.000000 0.000000 0.000000 0.048147 0.000000 0.000000
# 5 0.000000 0.000000 0.000000 0.000000 0.033233 0.000000
# 6 0.000000 0.000000 0.000000 0.000000 0.000000 0.036201
#
#
# Mechanical properties :
#
#
# Convention : Reuss Voigt Hill
#
# Bulk Modulus (GPa) = 13.89792 23.48781 18.69287
# Shear Modulus (GPa) = 16.03002 23.16494 19.59748
#
# Velocity S-wave (km/s) = 2.84102 3.41526 3.14129
# Velocity P-wave (km/s) = 4.21423 5.23245 4.75070
#
# Compressibility (1/GPa) = 0.07195319
#
# Stress axis : x y z
#
# Youngs Moduli (GPa) = 77.91455 18.16202 18.77699
#
# Poissons Ratio (x) = 0.22464 -0.01884
# Poissons Ratio (y) = 0.96369 0.24849
# Poissons Ratio (z) = -0.07819 0.24036
#
# Static dielectric constant tensor:
#      x y z
#    x 1.710490 0.000000 0.000000 
#    y 0.000000 1.761590 0.000000 
#    z 0.000000 0.000000 1.704340 
# 
# From -- ./inp_files/46006.got.cif
#   From: 2010.05.17/outbox.cif.g08.bks.cpg/sg64_24_cif.got.tgz:46006.got - 2010.06.03 16:29:19.
