data_PCOD9478449
_publ_section_title
;
Structure prediction by ZEFSAII (Michael W. Deem and Ramdas Pophale) SiO2 
 PCOD9478449
Probable space group: C M C A
;
_chemical_formula_sum "Si O2"
_cell_formula_units_Z 80
_cell_length_a 10.621047
_cell_length_b 23.060704
_cell_length_c 16.673356
_cell_angle_alpha 90.000000
_cell_angle_beta 90.000000
_cell_angle_gamma 90.000000
_cell_volume 4083.785428
_symmetry_space_group_name_H-M "C M C A"
_symmetry_group_IT_number 64
_symmetry_cell_setting 'orthorhombic'
loop_
_space_group_symop_operation_xyz
x,y,z
-x,1/2-y,1/2+z
x,-y,-z
-x,1/2+y,1/2-z
-x,-y,-z
x,1/2+y,1/2-z
-x,y,z
x,1/2-y,1/2+z
1/2+x,1/2+y,z
1/2-x,-y,1/2+z
1/2+x,1/2-y,-z
1/2-x,y,1/2-z
1/2-x,1/2-y,-z
1/2+x,y,1/2-z
1/2-x,1/2+y,z
1/2+x,-y,1/2+z
loop_
_atom_site_type_symbol
_atom_site_label
_atom_site_fract_x
_atom_site_fract_y
_atom_site_fract_z
Si Si1 0.635655 0.369682 0.809518
Si Si2 0.644868 0.629785 0.574086
Si Si3 0.852219 0.264427 0.179808
Si Si4 0.142213 0.479775 0.183898
Si Si5 0.279252 0.051917 0.446020
O O1 0.500000 0.371597 0.767315
O O2 0.750000 0.381536 0.750000
O O3 0.653011 0.303822 0.840446
O O4 0.637785 0.415479 0.880888
O O5 0.500000 0.630962 0.546720
O O6 0.679337 0.693020 0.606531
O O7 0.651188 0.585486 0.649353
O O8 0.726978 0.600934 0.505166
O O9 0.750000 0.274280 0.250000
O O10 0.000000 0.276756 0.202468
O O11 0.250000 0.487889 0.250000
O O12 0.170823 0.520597 0.107193
O O13 0.000000 0.489470 0.213960
O O14 0.335565 0.000000 0.500000
#
# Coordination Sequence:
#
# PCOD9478449 Si02
#       5
#    16  16  16  16  16
#     4  10  22  39  59  83 109 140 179 221 266 317
#     4   9  18  34  55  79 109 143 177 218 270 324
#     4   9  18  35  58  82 108 139 178 222 267 318
#     4  10  20  34  54  79 106 140 183 225 266 317
#     4  10  21  35  52  78 111 144 179 220 265 314
#
# _framework density 19.589666999999999
#
# number of rings (size 3 to 8) (size 9 to 14) (size 15 to 20)
#    0.000    2.400    0.000    1.800    0.000    7.600 
#    0.000    4.000    0.000    0.000    0.000    0.000 
#    0.000    0.000    0.000    0.000    0.000    0.000 
#
# Total GULP energy -223057.545126 kJ/mol
# GULP energy per Si atom -5576.438628 kJ/mol
# Density = 1.954508 g / cm^3
# Si number density = 19.589667 Si / 1000 Ang^3
#
#
#
# Elastic Constant Matrix: (Units=GPa)
#
#
# Indices 1 2 3 4 5 6 
#
# 1 114.2997 40.2097 51.4336 0.0000 0.0000 0.0000
# 2 40.2097 96.3200 41.7130 0.0000 0.0000 0.0000
# 3 51.4336 41.7130 76.6468 0.0000 0.0000 0.0000
# 4 0.0000 0.0000 0.0000 38.5707 0.0000 0.0000
# 5 0.0000 0.0000 0.0000 0.0000 15.5058 0.0000
# 6 0.0000 0.0000 0.0000 0.0000 0.0000 20.2610
#
#
#
# Elastic Compliance Matrix: (Units=1/GPa)
#
#
# Indices 1 2 3 4 5 6 
#
# 1 0.012860 -0.002134 -0.007468 0.000000 0.000000 0.000000
# 2 -0.002134 0.013938 -0.006153 0.000000 0.000000 0.000000
# 3 -0.007468 -0.006153 0.021407 0.000000 0.000000 0.000000
# 4 0.000000 0.000000 0.000000 0.025926 0.000000 0.000000
# 5 0.000000 0.000000 0.000000 0.000000 0.064492 0.000000
# 6 0.000000 0.000000 0.000000 0.000000 0.000000 0.049356
#
#
# Mechanical properties :
#
#
# Convention : Reuss Voigt Hill
#
# Bulk Modulus (GPa) = 59.90251 61.55322 60.72787
# Shear Modulus (GPa) = 22.21673 25.12819 23.67246
#
# Velocity S-wave (km/s) = 3.37130 3.58540 3.48000
# Velocity P-wave (km/s) = 6.76751 6.97349 6.87128
#
# Compressibility (1/GPa) = 0.01669379
#
# Stress axis : x y z
#
# Youngs Moduli (GPa) = 77.75750 71.74772 46.71357
#
# Poissons Ratio (x) = 0.15314 0.34887
# Poissons Ratio (y) = 0.16597 0.28743
# Poissons Ratio (z) = 0.58072 0.44146
#
# Static dielectric constant tensor:
#      x y z
#    x 1.695340 0.000000 0.000000 
#    y 0.000000 1.708200 0.000000 
#    z 0.000000 0.000000 1.664570 
# 
# From -- ./inp_files/22327.got.cif
#   From: 2010.05.17/outbox.cif.g08.bks.cpg/sg64_12_cif.got.tgz:22327.got - 2010.06.03 16:29:19.
