data_PCOD9478605
_publ_section_title
;
Structure prediction by ZEFSAII (Michael W. Deem and Ramdas Pophale) SiO2 
 PCOD9478605
Probable space group: C M C A
;
_chemical_formula_sum "Si O2"
_cell_formula_units_Z 96
_cell_length_a 11.559624
_cell_length_b 16.233756
_cell_length_c 24.532646
_cell_angle_alpha 90.000000
_cell_angle_beta 90.000000
_cell_angle_gamma 90.000000
_cell_volume 4603.701051
_symmetry_space_group_name_H-M "C M C A"
_symmetry_group_IT_number 64
_symmetry_cell_setting 'orthorhombic'
loop_
_space_group_symop_operation_xyz
x,y,z
-x,1/2-y,1/2+z
x,-y,-z
-x,1/2+y,1/2-z
-x,-y,-z
x,1/2+y,1/2-z
-x,y,z
x,1/2-y,1/2+z
1/2+x,1/2+y,z
1/2-x,-y,1/2+z
1/2+x,1/2-y,-z
1/2-x,y,1/2-z
1/2-x,1/2-y,-z
1/2+x,y,1/2-z
1/2-x,1/2+y,z
1/2+x,-y,1/2+z
loop_
_atom_site_type_symbol
_atom_site_label
_atom_site_fract_x
_atom_site_fract_y
_atom_site_fract_z
Si Si1 0.381200 0.757051 0.888652
Si Si2 0.288186 0.843251 0.985527
Si Si3 0.703946 0.374798 0.694275
Si Si4 0.130249 0.440822 0.216844
Si Si5 0.714754 0.893726 0.101253
Si Si6 0.861920 0.059444 0.097332
O O1 0.500000 0.709181 0.895352
O O2 0.373425 0.825723 0.935853
O O3 0.375479 0.808458 0.834044
O O4 0.278440 0.692829 0.890334
O O5 0.184553 0.894725 0.957291
O O6 0.250000 0.750000 0.000000
O O7 0.335572 0.886305 0.039940
O O8 0.750000 0.338525 0.750000
O O9 0.642723 0.460392 0.710148
O O10 0.804755 0.395628 0.650093
O O11 0.250000 0.416534 0.250000
O O12 0.138573 0.407835 0.154797
O O13 0.000000 0.421848 0.239338
O O14 0.806533 0.968495 0.098967
O O15 0.000000 0.059178 0.099645
#
# Coordination Sequence:
#
# PCOD9478605 Si02
#       6
#    16  16  16  16  16  16
#     4  10  20  35  55  80 112 150 192 240 292 348
#     4   9  20  36  52  79 114 148 192 240 292 354
#     4   9  20  37  57  81 113 152 196 242 292 351
#     4  10  22  40  62  87 117 155 199 247 299 357
#     4  10  21  36  56  85 117 149 193 243 299 359
#     4  10  20  35  57  85 117 155 201 253 306 360
#
# _framework density 20.852788
#
# number of rings (size 3 to 8) (size 9 to 14) (size 15 to 20)
#    0.000    2.333    0.000    1.500    0.000   12.667 
#    0.000    6.667    0.000    6.000    0.000    0.000 
#    0.000    0.000    0.000    0.000    0.000    0.000 
#
# Total GULP energy -267330.574707 kJ/mol
# GULP energy per Si atom -5569.386973 kJ/mol
# Density = 2.080533 g / cm^3
# Si number density = 20.852788 Si / 1000 Ang^3
#
#
#
# Elastic Constant Matrix: (Units=GPa)
#
#
# Indices 1 2 3 4 5 6 
#
# 1 110.8244 24.2198 35.1072 0.0000 0.0000 0.0000
# 2 24.2198 46.3861 17.6522 0.0000 0.0000 0.0000
# 3 35.1072 17.6522 132.3098 0.0000 0.0000 0.0000
# 4 0.0000 0.0000 0.0000 30.0993 0.0000 0.0000
# 5 0.0000 0.0000 0.0000 0.0000 -3.3195 0.0000
# 6 0.0000 0.0000 0.0000 0.0000 0.0000 5.7617
#
#
#
# Elastic Compliance Matrix: (Units=1/GPa)
#
#
# Indices 1 2 3 4 5 6 
#
# 1 0.010771 -0.004779 -0.002220 0.000000 0.000000 0.000000
# 2 -0.004779 0.024832 -0.002045 0.000000 0.000000 0.000000
# 3 -0.002220 -0.002045 0.008420 0.000000 0.000000 0.000000
# 4 0.000000 0.000000 0.000000 0.033223 0.000000 0.000000
# 5 0.000000 0.000000 0.000000 0.000000 -0.301251 0.000000
# 6 0.000000 0.000000 0.000000 0.000000 0.000000 0.173561
#
#
# Mechanical properties :
#
#
# Convention : Reuss Voigt Hill
#
# Bulk Modulus (GPa) = 38.55912 49.27540 43.91726
# Shear Modulus (GPa) = -210.87198 20.67770 -95.09714
#
# Velocity S-wave (km/s) = -10.06696 3.15239 -6.76040
# Velocity P-wave (km/s) = 10.79785 6.07713 6.31118
#
# Compressibility (1/GPa) = 0.02593420
#
# Stress axis : x y z
#
# Youngs Moduli (GPa) = 92.84118 40.27119 118.76482
#
# Poissons Ratio (x) = 0.19246 0.26371
# Poissons Ratio (y) = 0.44369 0.24286
# Poissons Ratio (z) = 0.20615 0.08235
#
# Static dielectric constant tensor:
#      x y z
#    x 1.835020 0.000000 0.000000 
#    y 0.000000 1.722120 0.000000 
#    z 0.000000 0.000000 1.830770 
# 
# From -- ./inp_files/44233.got.cif
#   From: 2010.05.17/outbox.cif.g08.bks.cpg/sg64_23_cif.got.tgz:44233.got - 2010.06.03 16:29:19.
