data_PCOD9478433
_publ_section_title
;
Structure prediction by ZEFSAII (Michael W. Deem and Ramdas Pophale) SiO2 
 PCOD9478433
Probable space group: C M C A
;
_chemical_formula_sum "Si O2"
_cell_formula_units_Z 112
_cell_length_a 14.305429
_cell_length_b 24.388427
_cell_length_c 16.883663
_cell_angle_alpha 90.000000
_cell_angle_beta 90.000000
_cell_angle_gamma 90.000000
_cell_volume 5890.489028
_symmetry_space_group_name_H-M "C M C A"
_symmetry_group_IT_number 64
_symmetry_cell_setting 'orthorhombic'
loop_
_space_group_symop_operation_xyz
x,y,z
-x,1/2-y,1/2+z
x,-y,-z
-x,1/2+y,1/2-z
-x,-y,-z
x,1/2+y,1/2-z
-x,y,z
x,1/2-y,1/2+z
1/2+x,1/2+y,z
1/2-x,-y,1/2+z
1/2+x,1/2-y,-z
1/2-x,y,1/2-z
1/2-x,1/2-y,-z
1/2+x,y,1/2-z
1/2-x,1/2+y,z
1/2+x,-y,1/2+z
loop_
_atom_site_type_symbol
_atom_site_label
_atom_site_fract_x
_atom_site_fract_y
_atom_site_fract_z
Si Si1 0.888630 0.604258 0.972969
Si Si2 0.773251 0.444010 0.165889
Si Si3 0.222280 0.801542 0.553205
Si Si4 0.889437 0.134697 0.122838
Si Si5 0.609678 0.952602 0.868466
Si Si6 0.605599 0.492944 0.905210
Si Si7 0.890525 0.830126 0.698302
O O1 0.833746 0.592006 0.893338
O O2 0.000000 0.603122 0.963144
O O3 0.854337 0.661742 0.007866
O O4 0.864370 0.558247 0.039650
O O5 0.750000 0.418460 0.250000
O O6 0.831918 0.500593 0.173692
O O7 0.676727 0.463116 0.127875
O O8 0.250000 0.750000 0.500000
O O9 0.316266 0.837196 0.564532
O O10 0.175840 0.794334 0.641024
O O11 0.869772 0.069268 0.121418
O O12 0.873969 0.164204 0.207846
O O13 0.000000 0.140400 0.103139
O O14 0.500000 0.966688 0.865439
O O15 0.622337 0.893191 0.829740
O O16 0.500000 0.502641 0.876964
O O17 0.606991 0.500000 0.000000
O O18 0.000000 0.815811 0.685833
#
# Coordination Sequence:
#
# PCOD9478433 Si02
#       7
#    16  16  16  16  16  16  16
#     4  10  22  40  59  81 111 145 186 236 285 337
#     4  12  22  31  50  80 117 156 188 216 256 317
#     4  11  22  37  60  82 104 140 189 245 299 346
#     4  10  20  34  55  84 116 148 182 229 288 348
#     4   9  17  31  55  83 109 142 182 224 270 323
#     4  10  20  34  53  79 115 153 186 220 264 328
#     4   9  18  34  56  85 116 142 180 236 292 339
#
# _framework density 19.013701000000001
#
# number of rings (size 3 to 8) (size 9 to 14) (size 15 to 20)
#    0.000    1.857    0.000    6.857    0.000    4.571 
#    0.000    1.429    0.000    0.000    0.000    0.000 
#    0.000    0.000    0.000    0.000    0.000    0.000 
#
# Total GULP energy -312602.635859 kJ/mol
# GULP energy per Si atom -5582.189926 kJ/mol
# Density = 1.897043 g / cm^3
# Si number density = 19.013701 Si / 1000 Ang^3
#
#
#
# Elastic Constant Matrix: (Units=GPa)
#
#
# Indices 1 2 3 4 5 6 
#
# 1 76.3936 19.3706 33.8523 0.0000 0.0000 0.0000
# 2 19.3706 32.8871 7.1118 0.0000 0.0000 0.0000
# 3 33.8523 7.1118 60.0235 0.0000 0.0000 0.0000
# 4 0.0000 0.0000 0.0000 26.3658 0.0000 0.0000
# 5 0.0000 0.0000 0.0000 0.0000 17.6618 0.0000
# 6 0.0000 0.0000 0.0000 0.0000 0.0000 13.1903
#
#
#
# Elastic Compliance Matrix: (Units=1/GPa)
#
#
# Indices 1 2 3 4 5 6 
#
# 1 0.020024 -0.009598 -0.010156 0.000000 0.000000 0.000000
# 2 -0.009598 0.035807 0.001171 0.000000 0.000000 0.000000
# 3 -0.010156 0.001171 0.022249 0.000000 0.000000 0.000000
# 4 0.000000 0.000000 0.000000 0.037928 0.000000 0.000000
# 5 0.000000 0.000000 0.000000 0.000000 0.056619 0.000000
# 6 0.000000 0.000000 0.000000 0.000000 0.000000 0.075813
#
#
# Mechanical properties :
#
#
# Convention : Reuss Voigt Hill
#
# Bulk Modulus (GPa) = 24.44177 32.21928 28.33052
# Shear Modulus (GPa) = 16.70863 18.70822 17.70843
#
# Velocity S-wave (km/s) = 2.96762 3.14017 3.05511
# Velocity P-wave (km/s) = 4.96237 5.48905 5.23234
#
# Compressibility (1/GPa) = 0.04091357
#
# Stress axis : x y z
#
# Youngs Moduli (GPa) = 49.93930 27.92730 44.94508
#
# Poissons Ratio (x) = 0.26805 0.45647
# Poissons Ratio (y) = 0.47932 -0.05261
# Poissons Ratio (z) = 0.50719 -0.03269
#
# Static dielectric constant tensor:
#      x y z
#    x 1.681550 0.000000 0.000000 
#    y 0.000000 1.629970 0.000000 
#    z 0.000000 0.000000 1.731050 
# 
# From -- ./inp_files/24230.got.cif
#   From: 2010.05.17/outbox.cif.g08.bks.cpg/sg64_13_cif.got.tgz:24230.got - 2010.06.03 16:29:19.
