data_PCOD9478747
_publ_section_title
;
Structure prediction by ZEFSAII (Michael W. Deem and Ramdas Pophale) SiO2 
 PCOD9478747
Probable space group: C M C A
;
_chemical_formula_sum "Si O2"
_cell_formula_units_Z 116
_cell_length_a 17.183520
_cell_length_b 22.733296
_cell_length_c 16.884177
_cell_angle_alpha 90.000000
_cell_angle_beta 90.000000
_cell_angle_gamma 90.000000
_cell_volume 6595.601920
_symmetry_space_group_name_H-M "C M C A"
_symmetry_group_IT_number 64
_symmetry_cell_setting 'orthorhombic'
loop_
_space_group_symop_operation_xyz
x,y,z
-x,1/2-y,1/2+z
x,-y,-z
-x,1/2+y,1/2-z
-x,-y,-z
x,1/2+y,1/2-z
-x,y,z
x,1/2-y,1/2+z
1/2+x,1/2+y,z
1/2-x,-y,1/2+z
1/2+x,1/2-y,-z
1/2-x,y,1/2-z
1/2-x,1/2-y,-z
1/2+x,y,1/2-z
1/2-x,1/2+y,z
1/2+x,-y,1/2+z
loop_
_atom_site_type_symbol
_atom_site_label
_atom_site_fract_x
_atom_site_fract_y
_atom_site_fract_z
Si Si1 0.000000 0.000000 0.500000
Si Si2 0.614002 0.033935 0.140006
Si Si3 0.412368 0.349093 0.262118
Si Si4 0.312500 0.844240 0.081996
Si Si5 0.406454 0.332948 0.581912
Si Si6 0.234097 0.972757 0.086655
Si Si7 0.699544 0.240082 0.673710
Si Si8 0.583705 0.980141 0.306687
O O1 0.933373 0.000127 0.429178
O O2 0.601595 0.101806 0.118045
O O3 0.700823 0.009887 0.132739
O O4 0.589347 0.021594 0.229799
O O5 0.500000 0.324921 0.262200
O O6 0.376199 0.350793 0.349052
O O7 0.354641 0.311298 0.208670
O O8 0.414647 0.414789 0.229555
O O9 0.262325 0.904716 0.080760
O O10 0.256974 0.790151 0.109250
O O11 0.360504 0.834389 0.001640
O O12 0.500000 0.320461 0.573924
O O13 0.358122 0.287801 0.636164
O O14 0.154363 0.981945 0.133203
O O15 0.228351 0.000000 0.000000
O O16 0.750000 0.261719 0.750000
O O17 0.500000 0.990185 0.346033
#
# Coordination Sequence:
#
# PCOD9478747 Si02
#       8
#     4  16  16  16  16  16  16  16
#     4  12  20  40  60 100 128 152 200 260 310 368
#     4  12  23  36  62  96 131 157 197 258 324 382
#     4  10  20  35  61  90 117 152 204 264 305 354
#     4  11  21  39  60  93 118 160 205 261 308 367
#     4  12  24  40  61  90 127 166 200 250 317 370
#     4  12  23  39  61  91 126 160 209 258 317 374
#     4  10  23  41  62  85 121 162 213 249 299 373
#     4  11  23  38  61  89 123 165 208 258 312 377
#
# _framework density 17.587477
#
# number of rings (size 3 to 8) (size 9 to 14) (size 15 to 20)
#    0.000    0.828    6.207    1.655    0.000    1.379 
#    0.000    0.000    0.000    0.000    0.000    0.000 
#    0.000    0.000    0.000    0.000    0.000    0.000 
#
# Total GULP energy -323191.536409 kJ/mol
# GULP energy per Si atom -5572.267869 kJ/mol
# Density = 1.754745 g / cm^3
# Si number density = 17.587477 Si / 1000 Ang^3
#
#
#
# Elastic Constant Matrix: (Units=GPa)
#
#
# Indices 1 2 3 4 5 6 
#
# 1 157.9830 46.0331 49.4405 0.0000 0.0000 0.0000
# 2 46.0331 50.8375 41.1266 0.0000 0.0000 0.0000
# 3 49.4405 41.1266 56.6493 0.0000 0.0000 0.0000
# 4 0.0000 0.0000 0.0000 18.5504 0.0000 0.0000
# 5 0.0000 0.0000 0.0000 0.0000 410.6963 0.0000
# 6 0.0000 0.0000 0.0000 0.0000 0.0000 13.6106
#
#
#
# Elastic Compliance Matrix: (Units=1/GPa)
#
#
# Indices 1 2 3 4 5 6 
#
# 1 0.009096 -0.004396 -0.004747 0.000000 0.000000 0.000000
# 2 -0.004396 0.049789 -0.032309 0.000000 0.000000 0.000000
# 3 -0.004747 -0.032309 0.045251 0.000000 0.000000 0.000000
# 4 0.000000 0.000000 0.000000 0.053907 0.000000 0.000000
# 5 0.000000 0.000000 0.000000 0.000000 0.002435 0.000000
# 6 0.000000 0.000000 0.000000 0.000000 0.000000 0.073472
#
#
# Mechanical properties :
#
#
# Convention : Reuss Voigt Hill
#
# Bulk Modulus (GPa) = 47.09982 59.85226 53.47604
# Shear Modulus (GPa) = 15.43531 97.16277 56.29904
#
# Velocity S-wave (km/s) = 2.96570 7.44079 5.66395
# Velocity P-wave (km/s) = 6.21012 10.38872 8.55836
#
# Compressibility (1/GPa) = 0.02123151
#
# Stress axis : x y z
#
# Youngs Moduli (GPa) = 109.93312 20.08485 22.09881
#
# Poissons Ratio (x) = 0.08830 0.10491
# Poissons Ratio (y) = 0.48331 0.71399
# Poissons Ratio (z) = 0.52187 0.64892
#
# Static dielectric constant tensor:
#      x y z
#    x 1.626980 0.000000 0.000000 
#    y 0.000000 1.601240 0.000000 
#    z 0.000000 0.000000 1.591180 
# 
# From -- ./inp_files/25761.got.cif
#   From: 2010.05.17/outbox.cif.g08.bks.cpg/sg64_13_cif.got.tgz:25761.got - 2010.06.03 16:29:19.
