data_PCOD9478681
_publ_section_title
;
Structure prediction by ZEFSAII (Michael W. Deem and Ramdas Pophale) SiO2 
 PCOD9478681
Probable space group: C M C A
;
_chemical_formula_sum "Si O2"
_cell_formula_units_Z 72
_cell_length_a 19.685312
_cell_length_b 8.324069
_cell_length_c 19.249743
_cell_angle_alpha 90.000000
_cell_angle_beta 90.000000
_cell_angle_gamma 90.000000
_cell_volume 3154.299373
_symmetry_space_group_name_H-M "C M C A"
_symmetry_group_IT_number 64
_symmetry_cell_setting 'orthorhombic'
loop_
_space_group_symop_operation_xyz
x,y,z
-x,1/2-y,1/2+z
x,-y,-z
-x,1/2+y,1/2-z
-x,-y,-z
x,1/2+y,1/2-z
-x,y,z
x,1/2-y,1/2+z
1/2+x,1/2+y,z
1/2-x,-y,1/2+z
1/2+x,1/2-y,-z
1/2-x,y,1/2-z
1/2-x,1/2-y,-z
1/2+x,y,1/2-z
1/2-x,1/2+y,z
1/2+x,-y,1/2+z
loop_
_atom_site_type_symbol
_atom_site_label
_atom_site_fract_x
_atom_site_fract_y
_atom_site_fract_z
Si Si1 0.200352 0.569485 0.604070
Si Si2 0.750000 0.095090 0.750000
Si Si3 0.109378 0.502587 0.195504
Si Si4 0.338907 0.889273 0.939012
Si Si5 0.425341 0.635071 0.159999
O O1 0.222597 0.663286 0.676194
O O2 0.267534 0.476005 0.580615
O O3 0.178359 0.703742 0.548644
O O4 0.137107 0.453867 0.621851
O O5 0.814122 0.995492 0.724946
O O6 0.109853 0.607408 0.126307
O O7 0.070045 0.561784 0.262365
O O8 0.092150 0.322068 0.172214
O O9 0.367432 0.000000 0.000000
O O10 0.500000 0.618465 0.126698
#
# Coordination Sequence:
#
# PCOD9478681 Si02
#       5
#    16   8  16  16  16
#     4  10  20  35  58  87 117 146 187 237 292 342
#     4   8  16  30  52  82 108 134 172 234 292 330
#     4  10  20  35  57  87 116 146 189 237 291 342
#     4  11  22  37  60  87 117 151 189 238 289 341
#     4  11  22  37  60  87 117 151 189 238 289 341
#
# _framework density 22.825989
#
# number of rings (size 3 to 8) (size 9 to 14) (size 15 to 20)
#    0.000    1.778    0.000    6.667    0.000    7.111 
#    0.000    1.111    0.000   10.667    0.000    0.000 
#    0.000    0.000    0.000    0.000    0.000    0.000 
#
# Total GULP energy -200846.081212 kJ/mol
# GULP energy per Si atom -5579.057811 kJ/mol
# Density = 2.277404 g / cm^3
# Si number density = 22.825989 Si / 1000 Ang^3
#
#
#
# Elastic Constant Matrix: (Units=GPa)
#
#
# Indices 1 2 3 4 5 6 
#
# 1 62.0760 -5.5913 -3.0091 0.0000 0.0000 0.0000
# 2 -5.5913 82.9749 -18.6701 0.0000 0.0000 0.0000
# 3 -3.0091 -18.6701 48.3170 0.0000 0.0000 0.0000
# 4 0.0000 0.0000 0.0000 10.6267 0.0000 0.0000
# 5 0.0000 0.0000 0.0000 0.0000 14.7942 0.0000
# 6 0.0000 0.0000 0.0000 0.0000 0.0000 -103.9478
#
#
#
# Elastic Compliance Matrix: (Units=1/GPa)
#
#
# Indices 1 2 3 4 5 6 
#
# 1 0.016317 0.001455 0.001578 0.000000 0.000000 0.000000
# 2 0.001455 0.013329 0.005241 0.000000 0.000000 0.000000
# 3 0.001578 0.005241 0.022820 0.000000 0.000000 0.000000
# 4 0.000000 0.000000 0.000000 0.094103 0.000000 0.000000
# 5 0.000000 0.000000 0.000000 0.000000 0.067594 0.000000
# 6 0.000000 0.000000 0.000000 0.000000 0.000000 -0.009620
#
#
# Mechanical properties :
#
#
# Convention : Reuss Voigt Hill
#
# Bulk Modulus (GPa) = 14.48980 15.42522 14.95751
# Shear Modulus (GPa) = 23.69675 -0.99617 11.35029
#
# Velocity S-wave (km/s) = 3.22553 -0.66134 2.23234
# Velocity P-wave (km/s) = 4.49819 2.48782 3.63476
#
# Compressibility (1/GPa) = 0.06901406
#
# Stress axis : x y z
#
# Youngs Moduli (GPa) = 61.28647 75.02358 43.82093
#
# Poissons Ratio (x) = -0.10913 -0.06916
# Poissons Ratio (y) = -0.08915 -0.22967
# Poissons Ratio (z) = -0.09673 -0.39320
#
# Static dielectric constant tensor:
#      x y z
#    x 1.833540 0.000000 0.000000 
#    y 0.000000 1.855690 0.000000 
#    z 0.000000 0.000000 2.054410 
# 
# From -- ./inp_files/40703.got.cif
#   From: 2010.05.17/outbox.cif.g08.bks.cpg/sg64_21_cif.got.tgz:40703.got - 2010.06.03 16:29:19.
