data_PCOD9478141
_publ_section_title
;
Structure prediction by ZEFSAII (Michael W. Deem and Ramdas Pophale) SiO2 
 PCOD9478141
Probable space group: C M C A
;
_chemical_formula_sum "Si O2"
_cell_formula_units_Z 64
_cell_length_a 21.923295
_cell_length_b 16.621441
_cell_length_c 7.256630
_cell_angle_alpha 90.000000
_cell_angle_beta 90.000000
_cell_angle_gamma 90.000000
_cell_volume 2644.292420
_symmetry_space_group_name_H-M "C M C A"
_symmetry_group_IT_number 64
_symmetry_cell_setting 'orthorhombic'
loop_
_space_group_symop_operation_xyz
x,y,z
-x,1/2-y,1/2+z
x,-y,-z
-x,1/2+y,1/2-z
-x,-y,-z
x,1/2+y,1/2-z
-x,y,z
x,1/2-y,1/2+z
1/2+x,1/2+y,z
1/2-x,-y,1/2+z
1/2+x,1/2-y,-z
1/2-x,y,1/2-z
1/2-x,1/2-y,-z
1/2+x,y,1/2-z
1/2-x,1/2+y,z
1/2+x,-y,1/2+z
loop_
_atom_site_type_symbol
_atom_site_label
_atom_site_fract_x
_atom_site_fract_y
_atom_site_fract_z
Si Si1 0.256796 0.845430 0.966781
Si Si2 0.112934 0.083495 0.411317
Si Si3 0.374153 0.636927 0.020351
Si Si4 0.567773 0.708815 0.667938
O O1 0.250000 0.857074 0.750000
O O2 0.194266 0.879314 0.051838
O O3 0.250000 0.750000 0.000000
O O4 0.321205 0.888326 0.996789
O O5 0.112325 0.077233 0.189141
O O6 0.069971 0.153172 0.488118
O O7 0.095689 0.000000 0.500000
O O8 0.381630 0.722176 0.133278
O O9 0.416419 0.654129 0.845264
O O10 0.500000 0.743376 0.685276
#
# Coordination Sequence:
#
# PCOD9478141 Si02
#       4
#    16  16  16  16
#     4  10  19  38  66  97 128 168 219 270 339 410
#     4  11  26  45  66 103 143 177 219 287 361 408
#     4  11  22  42  68 102 134 175 233 282 336 407
#     4  12  24  41  72 101 131 185 238 281 329 406
#
# _framework density 24.203071999999999
#
# number of rings (size 3 to 8) (size 9 to 14) (size 15 to 20)
#    0.000    1.000    5.000    2.250    0.000    2.500 
#   13.500    1.250    0.000    0.000    0.000    0.000 
#    0.000    0.000    0.000    0.000    0.000    0.000 
#
# Total GULP energy -178658.920624 kJ/mol
# GULP energy per Si atom -5583.091270 kJ/mol
# Density = 2.414798 g / cm^3
# Si number density = 24.203072 Si / 1000 Ang^3
#
#
#
# Elastic Constant Matrix: (Units=GPa)
#
#
# Indices 1 2 3 4 5 6 
#
# 1 116.1620 -13.1124 10.5383 0.0000 0.0000 0.0000
# 2 -13.1124 23.9498 -22.4211 0.0000 0.0000 0.0000
# 3 10.5383 -22.4211 96.2516 0.0000 0.0000 0.0000
# 4 0.0000 0.0000 0.0000 28.4645 0.0000 0.0000
# 5 0.0000 0.0000 0.0000 0.0000 32.0767 0.0000
# 6 0.0000 0.0000 0.0000 0.0000 0.0000 5.6224
#
#
#
# Elastic Compliance Matrix: (Units=1/GPa)
#
#
# Indices 1 2 3 4 5 6 
#
# 1 0.009179 0.005224 0.000212 0.000000 0.000000 0.000000
# 2 0.005224 0.056372 0.012559 0.000000 0.000000 0.000000
# 3 0.000212 0.012559 0.013292 0.000000 0.000000 0.000000
# 4 0.000000 0.000000 0.000000 0.035131 0.000000 0.000000
# 5 0.000000 0.000000 0.000000 0.000000 0.031175 0.000000
# 6 0.000000 0.000000 0.000000 0.000000 0.000000 0.177860
#
#
# Mechanical properties :
#
#
# Convention : Reuss Voigt Hill
#
# Bulk Modulus (GPa) = 8.70831 20.70813 14.70822
# Shear Modulus (GPa) = 15.37058 30.65663 23.01360
#
# Velocity S-wave (km/s) = 2.52279 3.56285 3.08694
# Velocity P-wave (km/s) = 3.47732 5.04973 4.33541
#
# Compressibility (1/GPa) = 0.11483288
#
# Stress axis : x y z
#
# Youngs Moduli (GPa) = 108.94288 17.73940 75.23406
#
# Poissons Ratio (x) = -0.09267 -0.01594
# Poissons Ratio (y) = -0.56910 -0.94489
# Poissons Ratio (z) = -0.02308 -0.22280
#
# Static dielectric constant tensor:
#      x y z
#    x 0.896980 0.000000 0.000000 
#    y 0.000000 1.920060 0.000000 
#    z 0.000000 0.000000 1.890450 
# 
# From -- ./inp_files/9077.got.cif
#   From: 2010.05.17/outbox.cif.g08.bks.cpg/sg64_5_cif.got.tgz:9077.got - 2010.06.03 16:29:19.
