data_PCOD9478068
_publ_section_title
;
Structure prediction by ZEFSAII (Michael W. Deem and Ramdas Pophale) SiO2 
 PCOD9478068
Probable space group: C M C A
;
_chemical_formula_sum "Si O2"
_cell_formula_units_Z 112
_cell_length_a 30.125895
_cell_length_b 10.896738
_cell_length_c 14.149170
_cell_angle_alpha 90.000000
_cell_angle_beta 90.000000
_cell_angle_gamma 90.000000
_cell_volume 4644.804418
_symmetry_space_group_name_H-M "C M C A"
_symmetry_group_IT_number 64
_symmetry_cell_setting 'orthorhombic'
loop_
_space_group_symop_operation_xyz
x,y,z
-x,1/2-y,1/2+z
x,-y,-z
-x,1/2+y,1/2-z
-x,-y,-z
x,1/2+y,1/2-z
-x,y,z
x,1/2-y,1/2+z
1/2+x,1/2+y,z
1/2-x,-y,1/2+z
1/2+x,1/2-y,-z
1/2-x,y,1/2-z
1/2-x,1/2-y,-z
1/2+x,y,1/2-z
1/2-x,1/2+y,z
1/2+x,-y,1/2+z
loop_
_atom_site_type_symbol
_atom_site_label
_atom_site_fract_x
_atom_site_fract_y
_atom_site_fract_z
Si Si1 0.949938 0.719117 0.249725
Si Si2 0.098601 0.969715 0.189004
Si Si3 0.157660 0.020716 0.643257
Si Si4 0.630273 0.166881 0.511343
Si Si5 0.573161 0.885873 0.948724
Si Si6 0.308102 0.719847 0.138329
Si Si7 0.793843 0.296089 0.863533
O O1 0.925277 0.602981 0.300361
O O2 0.926385 0.853612 0.242664
O O3 0.950928 0.672683 0.140800
O O4 0.000000 0.732832 0.286451
O O5 0.144502 0.977175 0.247008
O O6 0.104934 0.925785 0.081942
O O7 0.167588 0.155233 0.611255
O O8 0.116219 0.954530 0.595427
O O9 0.200028 0.940245 0.619900
O O10 0.592727 0.271900 0.491405
O O11 0.660543 0.128187 0.421255
O O12 0.668924 0.223647 0.579333
O O13 0.549897 0.000000 0.000000
O O14 0.256592 0.732208 0.112169
O O15 0.305649 0.714745 0.251994
#
# Coordination Sequence:
#
# PCOD9478068 Si02
#       7
#    16  16  16  16  16  16  16
#     4  10  21  37  64 100 131 165 209 265 333 398
#     4  10  21  39  67  91 130 170 220 267 323 398
#     4  10  20  38  60  79 120 163 218 261 320 395
#     4  10  19  37  58  90 117 162 223 267 319 391
#     4   9  17  32  58  89 118 163 209 264 318 386
#     4  11  21  36  62  81 120 166 211 275 335 370
#     4  10  23  36  55  86 120 160 219 273 331 375
#
# _framework density 24.112964999999999
#
# number of rings (size 3 to 8) (size 9 to 14) (size 15 to 20)
#    0.000    2.000    2.857    1.714    0.000    2.571 
#    0.000    0.714    0.000    0.000    0.000    1.000 
#    0.000    0.000    0.000    0.000    0.000    0.000 
#
# Total GULP energy -312483.442221 kJ/mol
# GULP energy per Si atom -5580.061468 kJ/mol
# Density = 2.405808 g / cm^3
# Si number density = 24.112965 Si / 1000 Ang^3
#
#
#
# Elastic Constant Matrix: (Units=GPa)
#
#
# Indices 1 2 3 4 5 6 
#
# 1 103.4485 40.1242 18.5974 0.0000 0.0000 0.0000
# 2 40.1242 119.2796 22.6329 0.0000 0.0000 0.0000
# 3 18.5974 22.6329 110.7399 0.0000 0.0000 0.0000
# 4 0.0000 0.0000 0.0000 38.2826 0.0000 0.0000
# 5 0.0000 0.0000 0.0000 0.0000 12.9094 0.0000
# 6 0.0000 0.0000 0.0000 0.0000 0.0000 18.5624
#
#
#
# Elastic Compliance Matrix: (Units=1/GPa)
#
#
# Indices 1 2 3 4 5 6 
#
# 1 0.011259 -0.003567 -0.001162 0.000000 0.000000 0.000000
# 2 -0.003567 0.009852 -0.001415 0.000000 0.000000 0.000000
# 3 -0.001162 -0.001415 0.009514 0.000000 0.000000 0.000000
# 4 0.000000 0.000000 0.000000 0.026122 0.000000 0.000000
# 5 0.000000 0.000000 0.000000 0.000000 0.077463 0.000000
# 6 0.000000 0.000000 0.000000 0.000000 0.000000 0.053872
#
#
# Mechanical properties :
#
#
# Convention : Reuss Voigt Hill
#
# Bulk Modulus (GPa) = 54.52912 55.13075 54.82994
# Shear Modulus (GPa) = 24.21521 30.75843 27.48682
#
# Velocity S-wave (km/s) = 3.17241 3.57543 3.37993
# Velocity P-wave (km/s) = 6.00683 6.32124 6.16604
#
# Compressibility (1/GPa) = 0.01833882
#
# Stress axis : x y z
#
# Youngs Moduli (GPa) = 88.81782 101.50290 105.10410
#
# Poissons Ratio (x) = 0.36205 0.12211
# Poissons Ratio (y) = 0.31681 0.14867
# Poissons Ratio (z) = 0.10319 0.14358
#
# Static dielectric constant tensor:
#      x y z
#    x 1.883600 0.000000 0.000000 
#    y 0.000000 2.003950 0.000000 
#    z 0.000000 0.000000 2.052810 
# 
# From -- ./inp_files/28426.got.cif
#   From: 2010.05.17/outbox.cif.g08.bks.cpg/sg64_15_cif.got.tgz:28426.got - 2010.06.03 16:29:19.
