data_PCOD9478698
_publ_section_title
;
Structure prediction by ZEFSAII (Michael W. Deem and Ramdas Pophale) SiO2 
 PCOD9478698
Probable space group: C M C A
;
_chemical_formula_sum "Si O2"
_cell_formula_units_Z 64
_cell_length_a 10.691308
_cell_length_b 17.866918
_cell_length_c 16.036212
_cell_angle_alpha 90.000000
_cell_angle_beta 90.000000
_cell_angle_gamma 90.000000
_cell_volume 3063.248816
_symmetry_space_group_name_H-M "C M C A"
_symmetry_group_IT_number 64
_symmetry_cell_setting 'orthorhombic'
loop_
_space_group_symop_operation_xyz
x,y,z
-x,1/2-y,1/2+z
x,-y,-z
-x,1/2+y,1/2-z
-x,-y,-z
x,1/2+y,1/2-z
-x,y,z
x,1/2-y,1/2+z
1/2+x,1/2+y,z
1/2-x,-y,1/2+z
1/2+x,1/2-y,-z
1/2-x,y,1/2-z
1/2-x,1/2-y,-z
1/2+x,y,1/2-z
1/2-x,1/2+y,z
1/2+x,-y,1/2+z
loop_
_atom_site_type_symbol
_atom_site_label
_atom_site_fract_x
_atom_site_fract_y
_atom_site_fract_z
Si Si1 0.640648 0.683476 0.817171
Si Si2 0.861287 0.491404 0.814022
Si Si3 0.781153 0.427911 0.452435
Si Si4 0.142260 0.838928 0.591497
O O1 0.500000 0.691251 0.781250
O O2 0.750000 0.672116 0.750000
O O3 0.640800 0.616573 0.884082
O O4 0.671500 0.759859 0.866971
O O5 0.750000 0.505682 0.750000
O O6 0.833287 0.536531 0.899055
O O7 0.856656 0.404174 0.839055
O O8 0.000000 0.509559 0.782148
O O9 0.838269 0.500000 0.500000
O O10 0.733575 0.368228 0.519910
O O11 0.000000 0.834810 0.558355
#
# Coordination Sequence:
#
# PCOD9478698 Si02
#       4
#    16  16  16  16
#     4  11  24  41  62  88 119 154 193 239 289 345
#     4  10  20  35  58  86 117 155 197 241 289 343
#     4  10  21  37  59  87 118 152 192 240 292 344
#     4   9  19  38  61  86 116 153 197 241 289 343
#
# _framework density 20.892849999999999
#
# number of rings (size 3 to 8) (size 9 to 14) (size 15 to 20)
#    0.000    2.000    0.000    3.000    0.000    8.500 
#    0.000    5.000    0.000    0.000    0.000    0.000 
#    0.000    0.000    0.000    0.000    0.000    0.000 
#
# Total GULP energy -178657.460648 kJ/mol
# GULP energy per Si atom -5583.045645 kJ/mol
# Density = 2.084530 g / cm^3
# Si number density = 20.892850 Si / 1000 Ang^3
#
#
#
# Elastic Constant Matrix: (Units=GPa)
#
#
# Indices 1 2 3 4 5 6 
#
# 1 128.5181 37.5147 65.0528 0.0000 0.0000 0.0000
# 2 37.5147 135.5590 46.4641 0.0000 0.0000 0.0000
# 3 65.0528 46.4641 94.1793 0.0000 0.0000 0.0000
# 4 0.0000 0.0000 0.0000 33.2583 0.0000 0.0000
# 5 0.0000 0.0000 0.0000 0.0000 17.8321 0.0000
# 6 0.0000 0.0000 0.0000 0.0000 0.0000 9.1978
#
#
#
# Elastic Compliance Matrix: (Units=1/GPa)
#
#
# Indices 1 2 3 4 5 6 
#
# 1 0.012001 -0.000578 -0.008005 0.000000 0.000000 0.000000
# 2 -0.000578 0.008906 -0.003995 0.000000 0.000000 0.000000
# 3 -0.008005 -0.003995 0.018118 0.000000 0.000000 0.000000
# 4 0.000000 0.000000 0.000000 0.030068 0.000000 0.000000
# 5 0.000000 0.000000 0.000000 0.000000 0.056079 0.000000
# 6 0.000000 0.000000 0.000000 0.000000 0.000000 0.108722
#
#
# Mechanical properties :
#
#
# Convention : Reuss Voigt Hill
#
# Bulk Modulus (GPa) = 72.09291 72.92439 72.50865
# Shear Modulus (GPa) = 18.96294 26.00595 22.48445
#
# Velocity S-wave (km/s) = 3.01596 3.53190 3.28408
# Velocity P-wave (km/s) = 6.83439 7.18416 7.01146
#
# Compressibility (1/GPa) = 0.01387099
#
# Stress axis : x y z
#
# Youngs Moduli (GPa) = 83.32303 112.28409 55.19309
#
# Poissons Ratio (x) = 0.06485 0.44181
# Poissons Ratio (y) = 0.04812 0.22049
# Poissons Ratio (z) = 0.66699 0.44856
#
# Static dielectric constant tensor:
#      x y z
#    x 1.726810 0.000000 0.000000 
#    y 0.000000 1.761110 0.000000 
#    z 0.000000 0.000000 1.738260 
# 
# From -- ./inp_files/21945.got.cif
#   From: 2010.05.17/outbox.cif.g08.bks.cpg/sg64_11_cif.got.tgz:21945.got - 2010.06.03 16:29:19.
