data_PCOD9478763
_publ_section_title
;
Structure prediction by ZEFSAII (Michael W. Deem and Ramdas Pophale) SiO2 
 PCOD9478763
Probable space group: C M C A
;
_chemical_formula_sum "Si O2"
_cell_formula_units_Z 104
_cell_length_a 16.120923
_cell_length_b 24.614035
_cell_length_c 14.996593
_cell_angle_alpha 90.000000
_cell_angle_beta 90.000000
_cell_angle_gamma 90.000000
_cell_volume 5950.662543
_symmetry_space_group_name_H-M "C M C A"
_symmetry_group_IT_number 64
_symmetry_cell_setting 'orthorhombic'
loop_
_space_group_symop_operation_xyz
x,y,z
-x,1/2-y,1/2+z
x,-y,-z
-x,1/2+y,1/2-z
-x,-y,-z
x,1/2+y,1/2-z
-x,y,z
x,1/2-y,1/2+z
1/2+x,1/2+y,z
1/2-x,-y,1/2+z
1/2+x,1/2-y,-z
1/2-x,y,1/2-z
1/2-x,1/2-y,-z
1/2+x,y,1/2-z
1/2-x,1/2+y,z
1/2+x,-y,1/2+z
loop_
_atom_site_type_symbol
_atom_site_label
_atom_site_fract_x
_atom_site_fract_y
_atom_site_fract_z
Si Si1 0.669159 0.670920 0.809593
Si Si2 0.597623 0.953148 0.623910
Si Si3 0.840144 0.156704 0.159013
Si Si4 0.000000 0.793955 0.270407
Si Si5 0.402048 0.073445 0.585950
Si Si6 0.000000 0.277650 0.905299
Si Si7 0.329597 0.795472 0.857674
Si Si8 0.000000 0.790004 0.924667
O O1 0.750000 0.661080 0.750000
O O2 0.585630 0.674915 0.748985
O O3 0.651467 0.623381 0.879581
O O4 0.680181 0.730150 0.855442
O O5 0.500000 0.947112 0.646610
O O6 0.650985 0.907614 0.673056
O O7 0.606505 0.938407 0.519076
O O8 0.619246 0.016387 0.634180
O O9 0.754701 0.175341 0.113538
O O10 0.842594 0.186007 0.254987
O O11 0.918807 0.176598 0.102496
O O12 0.000000 0.746872 0.194492
O O13 0.000000 0.764795 0.365470
O O14 0.500000 0.084769 0.601255
O O15 0.087162 0.308449 0.912545
O O16 0.000000 0.227511 0.973239
#
# Coordination Sequence:
#
# PCOD9478763 Si02
#       8
#    16  16  16   8  16   8  16   8
#     4  11  18  33  53  72 106 145 170 216 268 311
#     4   9  19  33  55  82 104 135 173 226 277 321
#     4  11  19  34  55  76 111 145 177 221 271 322
#     4  10  20  36  49  73 115 140 181 226 256 322
#     4   9  19  35  53  79 108 132 178 225 272 322
#     4  10  22  34  52  75 108 146 182 219 271 321
#     4  10  21  37  50  78 113 143 183 224 264 318
#     4  12  20  32  55  80 108 148 179 214 279 332
#
# _framework density 17.477045
#
# number of rings (size 3 to 8) (size 9 to 14) (size 15 to 20)
#    0.000    1.846    6.154    0.923    4.308    0.615 
#    5.538    0.000    0.000    0.000    0.000    0.000 
#    0.000    3.692    0.000    0.000    0.000    0.000 
#
# Total GULP energy -289990.903032 kJ/mol
# GULP energy per Si atom -5576.748135 kJ/mol
# Density = 1.743727 g / cm^3
# Si number density = 17.477045 Si / 1000 Ang^3
#
#
#
# Elastic Constant Matrix: (Units=GPa)
#
#
# Indices 1 2 3 4 5 6 
#
# 1 113.7619 22.9451 7.5613 0.0000 0.0000 0.0000
# 2 22.9451 103.3943 14.2967 0.0000 0.0000 0.0000
# 3 7.5613 14.2967 11.0269 0.0000 0.0000 0.0000
# 4 0.0000 0.0000 0.0000 18.5506 0.0000 0.0000
# 5 0.0000 0.0000 0.0000 0.0000 5.9839 0.0000
# 6 0.0000 0.0000 0.0000 0.0000 0.0000 15.1359
#
#
#
# Elastic Compliance Matrix: (Units=1/GPa)
#
#
# Indices 1 2 3 4 5 6 
#
# 1 0.009386 -0.001454 -0.004552 0.000000 0.000000 0.000000
# 2 -0.001454 0.012009 -0.014574 0.000000 0.000000 0.000000
# 3 -0.004552 -0.014574 0.112704 0.000000 0.000000 0.000000
# 4 0.000000 0.000000 0.000000 0.053907 0.000000 0.000000
# 5 0.000000 0.000000 0.000000 0.000000 0.167115 0.000000
# 6 0.000000 0.000000 0.000000 0.000000 0.000000 0.066068
#
#
# Mechanical properties :
#
#
# Convention : Reuss Voigt Hill
#
# Bulk Modulus (GPa) = 10.75947 35.30992 23.03470
# Shear Modulus (GPa) = 10.13526 20.15943 15.14735
#
# Velocity S-wave (km/s) = 2.41076 3.39998 2.94717
# Velocity P-wave (km/s) = 3.73078 5.97165 4.97892
#
# Compressibility (1/GPa) = 0.09294138
#
# Stress axis : x y z
#
# Youngs Moduli (GPa) = 106.54178 83.26767 8.87280
#
# Poissons Ratio (x) = 0.12103 0.04039
# Poissons Ratio (y) = 0.15486 0.12931
# Poissons Ratio (z) = 0.48493 1.21353
#
# Static dielectric constant tensor:
#      x y z
#    x 1.645920 0.000000 0.000000 
#    y 0.000000 1.616530 0.000000 
#    z 0.000000 0.000000 1.591430 
# 
# From -- ./inp_files/25739.got.cif
#   From: 2010.05.17/outbox.cif.g08.bks.cpg/sg64_13_cif.got.tgz:25739.got - 2010.06.03 16:29:19.
