data_PCOD9478241
_publ_section_title
;
Structure prediction by ZEFSAII (Michael W. Deem and Ramdas Pophale) SiO2 
 PCOD9478241
Probable space group: C M C A
;
_chemical_formula_sum "Si O2"
_cell_formula_units_Z 80
_cell_length_a 16.948277
_cell_length_b 19.117692
_cell_length_c 13.724777
_cell_angle_alpha 90.000000
_cell_angle_beta 90.000000
_cell_angle_gamma 90.000000
_cell_volume 4446.991617
_symmetry_space_group_name_H-M "C M C A"
_symmetry_group_IT_number 64
_symmetry_cell_setting 'orthorhombic'
loop_
_space_group_symop_operation_xyz
x,y,z
-x,1/2-y,1/2+z
x,-y,-z
-x,1/2+y,1/2-z
-x,-y,-z
x,1/2+y,1/2-z
-x,y,z
x,1/2-y,1/2+z
1/2+x,1/2+y,z
1/2-x,-y,1/2+z
1/2+x,1/2-y,-z
1/2-x,y,1/2-z
1/2-x,1/2-y,-z
1/2+x,y,1/2-z
1/2-x,1/2+y,z
1/2+x,-y,1/2+z
loop_
_atom_site_type_symbol
_atom_site_label
_atom_site_fract_x
_atom_site_fract_y
_atom_site_fract_z
Si Si1 0.095094 0.003742 0.887421
Si Si2 0.590081 0.647452 0.786471
Si Si3 0.656367 0.372419 0.766219
Si Si4 0.643351 0.226127 0.097732
Si Si5 0.826687 0.732131 0.876228
O O1 0.122590 0.940367 0.818607
O O2 0.000000 0.002296 0.890970
O O3 0.118578 0.077081 0.838483
O O4 0.123647 0.000000 0.000000
O O5 0.500000 0.637304 0.751690
O O6 0.590593 0.710325 0.864742
O O7 0.645795 0.673573 0.699432
O O8 0.750000 0.382200 0.750000
O O9 0.626713 0.342978 0.661830
O O10 0.640963 0.306305 0.837222
O O11 0.732713 0.254002 0.120505
O O12 0.641820 0.215046 0.983063
#
# Coordination Sequence:
#
# PCOD9478241 Si02
#       5
#    16  16  16  16  16
#     4  10  21  36  52  72 102 138 173 210 252 298
#     4  10  20  32  49  75 102 131 170 208 247 298
#     4   9  18  32  51  77 102 126 166 210 249 300
#     4   9  18  34  55  76  99 130 165 205 255 303
#     4   9  18  34  54  76 102 129 163 208 253 300
#
# _framework density 17.98969
#
# number of rings (size 3 to 8) (size 9 to 14) (size 15 to 20)
#    0.000    2.600    0.000    3.000    0.000    5.600 
#    0.000    1.000    0.000    2.400    0.000    0.000 
#    0.000    0.000    0.000    0.000    0.000    0.000 
#
# Total GULP energy -222902.124785 kJ/mol
# GULP energy per Si atom -5572.553120 kJ/mol
# Density = 1.794874 g / cm^3
# Si number density = 17.989690 Si / 1000 Ang^3
#
#
#
# Elastic Constant Matrix: (Units=GPa)
#
#
# Indices 1 2 3 4 5 6 
#
# 1 12.8356 20.6112 31.9366 0.0000 0.0000 0.0000
# 2 20.6112 131.6648 79.8249 0.0000 0.0000 0.0000
# 3 31.9366 79.8249 167.7912 0.0000 0.0000 0.0000
# 4 0.0000 0.0000 0.0000 17.7715 0.0000 0.0000
# 5 0.0000 0.0000 0.0000 0.0000 22.1081 0.0000
# 6 0.0000 0.0000 0.0000 0.0000 0.0000 13.0420
#
#
#
# Elastic Compliance Matrix: (Units=1/GPa)
#
#
# Indices 1 2 3 4 5 6 
#
# 1 0.155191 -0.008974 -0.025269 0.000000 0.000000 0.000000
# 2 -0.008974 0.011193 -0.003617 0.000000 0.000000 0.000000
# 3 -0.025269 -0.003617 0.012490 0.000000 0.000000 0.000000
# 4 0.000000 0.000000 0.000000 0.056270 0.000000 0.000000
# 5 0.000000 0.000000 0.000000 0.000000 0.045232 0.000000
# 6 0.000000 0.000000 0.000000 0.000000 0.000000 0.076675
#
#
# Mechanical properties :
#
#
# Convention : Reuss Voigt Hill
#
# Bulk Modulus (GPa) = 9.69427 64.11523 36.90475
# Shear Modulus (GPa) = 10.70309 22.57891 16.64100
#
# Velocity S-wave (km/s) = 2.44182 3.54659 3.04473
# Velocity P-wave (km/s) = 3.65383 7.24489 5.73755
#
# Compressibility (1/GPa) = 0.10315372
#
# Stress axis : x y z
#
# Youngs Moduli (GPa) = 6.44369 89.34505 80.06431
#
# Poissons Ratio (x) = 0.80179 2.02314
# Poissons Ratio (y) = 0.05783 0.28957
# Poissons Ratio (z) = 0.16283 0.32313
#
# Static dielectric constant tensor:
#      x y z
#    x 1.647040 0.000000 0.000000 
#    y 0.000000 1.595010 0.000000 
#    z 0.000000 0.000000 1.626030 
# 
# From -- ./inp_files/25319.got.cif
#   From: 2010.05.17/outbox.cif.g08.bks.cpg/sg64_13_cif.got.tgz:25319.got - 2010.06.03 16:29:19.
