data_PCOD9478661
_publ_section_title
;
Structure prediction by ZEFSAII (Michael W. Deem and Ramdas Pophale) SiO2 
 PCOD9478661
Probable space group: C M C A
;
_chemical_formula_sum "Si O2"
_cell_formula_units_Z 64
_cell_length_a 17.033807
_cell_length_b 8.256097
_cell_length_c 20.581544
_cell_angle_alpha 90.000000
_cell_angle_beta 90.000000
_cell_angle_gamma 90.000000
_cell_volume 2894.439397
_symmetry_space_group_name_H-M "C M C A"
_symmetry_group_IT_number 64
_symmetry_cell_setting 'orthorhombic'
loop_
_space_group_symop_operation_xyz
x,y,z
-x,1/2-y,1/2+z
x,-y,-z
-x,1/2+y,1/2-z
-x,-y,-z
x,1/2+y,1/2-z
-x,y,z
x,1/2-y,1/2+z
1/2+x,1/2+y,z
1/2-x,-y,1/2+z
1/2+x,1/2-y,-z
1/2-x,y,1/2-z
1/2-x,1/2-y,-z
1/2+x,y,1/2-z
1/2-x,1/2+y,z
1/2+x,-y,1/2+z
loop_
_atom_site_type_symbol
_atom_site_label
_atom_site_fract_x
_atom_site_fract_y
_atom_site_fract_z
Si Si1 0.215602 0.625650 0.104791
Si Si2 0.668401 0.336862 0.313698
Si Si3 0.086429 0.493417 0.700658
Si Si4 0.365232 0.577355 0.938275
O O1 0.163709 0.481819 0.134348
O O2 0.290245 0.540847 0.072218
O O3 0.253895 0.736522 0.162831
O O4 0.168546 0.741811 0.056729
O O5 0.604277 0.195367 0.310953
O O6 0.654233 0.432096 0.246256
O O7 0.089864 0.573567 0.629878
O O8 0.000000 0.515087 0.729931
O O9 0.407244 0.500000 0.000000
#
# Coordination Sequence:
#
# PCOD9478661 Si02
#       4
#    16  16  16  16
#     4   9  20  36  57  86 112 136 176 233 291 333
#     4  10  21  36  57  83 111 139 177 232 286 328
#     4  11  23  37  54  78 111 150 187 221 264 328
#     4  10  20  35  57  82 111 146 182 225 275 330
#
# _framework density 22.111362
#
# number of rings (size 3 to 8) (size 9 to 14) (size 15 to 20)
#    0.000    2.000    0.000    3.000    0.000   17.500 
#    0.000    1.250    0.000    1.500    0.000    0.000 
#    0.000    0.000    0.000    0.000    0.000    0.000 
#
# Total GULP energy -178464.293887 kJ/mol
# GULP energy per Si atom -5577.009184 kJ/mol
# Density = 2.206104 g / cm^3
# Si number density = 22.111362 Si / 1000 Ang^3
#
#
#
# Elastic Constant Matrix: (Units=GPa)
#
#
# Indices 1 2 3 4 5 6 
#
# 1 42.8318 10.1001 -0.6721 0.0000 0.0000 0.0000
# 2 10.1001 97.1332 -10.0328 0.0000 0.0000 0.0000
# 3 -0.6721 -10.0328 53.1439 0.0000 0.0000 0.0000
# 4 0.0000 0.0000 0.0000 26.0826 0.0000 0.0000
# 5 0.0000 0.0000 0.0000 0.0000 2.7407 0.0000
# 6 0.0000 0.0000 0.0000 0.0000 0.0000 14.0584
#
#
#
# Elastic Compliance Matrix: (Units=1/GPa)
#
#
# Indices 1 2 3 4 5 6 
#
# 1 0.023935 -0.002506 -0.000170 0.000000 0.000000 0.000000
# 2 -0.002506 0.010762 0.002000 0.000000 0.000000 0.000000
# 3 -0.000170 0.002000 0.019192 0.000000 0.000000 0.000000
# 4 0.000000 0.000000 0.000000 0.038340 0.000000 0.000000
# 5 0.000000 0.000000 0.000000 0.000000 0.364867 0.000000
# 6 0.000000 0.000000 0.000000 0.000000 0.000000 0.071132
#
#
# Mechanical properties :
#
#
# Convention : Reuss Voigt Hill
#
# Bulk Modulus (GPa) = 19.03443 21.32215 20.17829
# Shear Modulus (GPa) = 9.13918 21.49058 15.31488
#
# Velocity S-wave (km/s) = 2.03525 3.12095 2.63463
# Velocity P-wave (km/s) = 3.76166 4.75932 4.28959
#
# Compressibility (1/GPa) = 0.05253639
#
# Stress axis : x y z
#
# Youngs Moduli (GPa) = 41.77895 92.91647 52.10429
#
# Poissons Ratio (x) = 0.23289 0.00888
# Poissons Ratio (y) = 0.10472 -0.10421
# Poissons Ratio (z) = 0.00712 -0.18584
#
# Static dielectric constant tensor:
#      x y z
#    x 1.838170 0.000000 0.000000 
#    y 0.000000 1.810610 0.000000 
#    z 0.000000 0.000000 1.895450 
# 
# From -- ./inp_files/33863.got.cif
#   From: 2010.05.17/outbox.cif.g08.bks.cpg/sg64_17_cif.got.tgz:33863.got - 2010.06.03 16:29:19.
