data_PCOD9478044
_publ_section_title
;
Structure prediction by ZEFSAII (Michael W. Deem and Ramdas Pophale) SiO2 
 PCOD9478044
Probable space group: C M C A
;
_chemical_formula_sum "Si O2"
_cell_formula_units_Z 128
_cell_length_a 21.399774
_cell_length_b 12.334271
_cell_length_c 25.619478
_cell_angle_alpha 90.000000
_cell_angle_beta 90.000000
_cell_angle_gamma 90.000000
_cell_volume 6762.276893
_symmetry_space_group_name_H-M "C M C A"
_symmetry_group_IT_number 64
_symmetry_cell_setting 'orthorhombic'
loop_
_space_group_symop_operation_xyz
x,y,z
-x,1/2-y,1/2+z
x,-y,-z
-x,1/2+y,1/2-z
-x,-y,-z
x,1/2+y,1/2-z
-x,y,z
x,1/2-y,1/2+z
1/2+x,1/2+y,z
1/2-x,-y,1/2+z
1/2+x,1/2-y,-z
1/2-x,y,1/2-z
1/2-x,1/2-y,-z
1/2+x,y,1/2-z
1/2-x,1/2+y,z
1/2+x,-y,1/2+z
loop_
_atom_site_type_symbol
_atom_site_label
_atom_site_fract_x
_atom_site_fract_y
_atom_site_fract_z
Si Si1 0.575322 0.837209 0.178162
Si Si2 0.573030 0.643488 0.466919
Si Si3 0.376598 0.419457 0.427055
Si Si4 0.852882 0.199755 0.895779
Si Si5 0.924182 0.377256 0.298562
Si Si6 0.139750 0.966703 0.940961
Si Si7 0.427958 0.398582 0.847069
Si Si8 0.727634 0.243210 0.440131
O O1 0.500000 0.840504 0.174381
O O2 0.600094 0.913184 0.132189
O O3 0.590786 0.859944 0.238123
O O4 0.600893 0.717504 0.164520
O O5 0.500000 0.624119 0.455056
O O6 0.581673 0.644776 0.529545
O O7 0.615593 0.543256 0.446142
O O8 0.599342 0.748917 0.438059
O O9 0.312165 0.352740 0.429934
O O10 0.887106 0.197427 0.839841
O O11 0.787403 0.261142 0.902244
O O12 0.838011 0.076594 0.912868
O O13 0.905266 0.499767 0.313762
O O14 0.000000 0.364986 0.305838
O O15 0.080471 0.928897 0.907369
O O16 0.187171 0.866297 0.936727
O O17 0.127393 0.000000 0.000000
O O18 0.500000 0.387791 0.833441
O O19 0.750000 0.250000 0.500000
#
# Coordination Sequence:
#
# PCOD9478044 Si02
#       8
#    16  16  16  16  16  16  16  16
#     4  10  19  36  62  88 121 162 207 260 319 381
#     4  11  23  39  61  92 133 163 206 268 327 386
#     4  11  22  38  59  90 124 165 209 257 317 380
#     4  11  24  38  61  89 122 166 207 259 314 374
#     4   9  20  39  60  87 121 158 207 259 317 378
#     4  11  21  37  59  88 120 160 204 251 310 377
#     4   9  19  35  57  88 121 154 197 255 310 370
#     4  12  23  39  60  89 122 168 213 256 307 380
#
# _framework density 18.928536000000001
#
# number of rings (size 3 to 8) (size 9 to 14) (size 15 to 20)
#    0.000    1.500    3.750    1.875    1.750    1.750 
#    0.000    3.125    0.000    0.000    0.000    0.000 
#    0.000    0.000    0.000    0.000    0.000    0.000 
#
# Total GULP energy -356728.763343 kJ/mol
# GULP energy per Si atom -5573.886927 kJ/mol
# Density = 1.888545 g / cm^3
# Si number density = 18.928536 Si / 1000 Ang^3
#
#
#
# Elastic Constant Matrix: (Units=GPa)
#
#
# Indices 1 2 3 4 5 6 
#
# 1 50.6507 19.8493 26.2994 0.0000 0.0000 0.0000
# 2 19.8493 58.9190 18.4462 0.0000 0.0000 0.0000
# 3 26.2994 18.4462 122.3500 0.0000 0.0000 0.0000
# 4 0.0000 0.0000 0.0000 21.5343 0.0000 0.0000
# 5 0.0000 0.0000 0.0000 0.0000 22.9967 0.0000
# 6 0.0000 0.0000 0.0000 0.0000 0.0000 19.4832
#
#
#
# Elastic Compliance Matrix: (Units=1/GPa)
#
#
# Indices 1 2 3 4 5 6 
#
# 1 0.024689 -0.006986 -0.004254 0.000000 0.000000 0.000000
# 2 -0.006986 0.019790 -0.001482 0.000000 0.000000 0.000000
# 3 -0.004254 -0.001482 0.009311 0.000000 0.000000 0.000000
# 4 0.000000 0.000000 0.000000 0.046438 0.000000 0.000000
# 5 0.000000 0.000000 0.000000 0.000000 0.043484 0.000000
# 6 0.000000 0.000000 0.000000 0.000000 0.000000 0.051326
#
#
# Mechanical properties :
#
#
# Convention : Reuss Voigt Hill
#
# Bulk Modulus (GPa) = 35.27707 40.12328 37.70018
# Shear Modulus (GPa) = 21.74564 23.95783 22.85173
#
# Velocity S-wave (km/s) = 3.39311 3.56153 3.47834
# Velocity P-wave (km/s) = 5.83339 6.17704 6.00767
#
# Compressibility (1/GPa) = 0.02834702
#
# Stress axis : x y z
#
# Youngs Moduli (GPa) = 40.50313 50.53077 107.39889
#
# Poissons Ratio (x) = 0.35300 0.45686
# Poissons Ratio (y) = 0.28295 0.15917
# Poissons Ratio (z) = 0.17229 0.07489
#
# Static dielectric constant tensor:
#      x y z
#    x 1.668980 0.000000 0.000000 
#    y 0.000000 1.700560 0.000000 
#    z 0.000000 0.000000 1.652670 
# 
# From -- ./inp_files/46754.got.cif
#   From: 2010.05.17/outbox.cif.g08.bks.cpg/sg64_24_cif.got.tgz:46754.got - 2010.06.03 16:29:19.
