data_PCOD9478404
_publ_section_title
;
Structure prediction by ZEFSAII (Michael W. Deem and Ramdas Pophale) SiO2 
 PCOD9478404
Probable space group: C M C A
;
_chemical_formula_sum "Si O2"
_cell_formula_units_Z 104
_cell_length_a 26.477983
_cell_length_b 9.886861
_cell_length_c 20.322218
_cell_angle_alpha 90.000000
_cell_angle_beta 90.000000
_cell_angle_gamma 90.000000
_cell_volume 5320.034311
_symmetry_space_group_name_H-M "C M C A"
_symmetry_group_IT_number 64
_symmetry_cell_setting 'orthorhombic'
loop_
_space_group_symop_operation_xyz
x,y,z
-x,1/2-y,1/2+z
x,-y,-z
-x,1/2+y,1/2-z
-x,-y,-z
x,1/2+y,1/2-z
-x,y,z
x,1/2-y,1/2+z
1/2+x,1/2+y,z
1/2-x,-y,1/2+z
1/2+x,1/2-y,-z
1/2-x,y,1/2-z
1/2-x,1/2-y,-z
1/2+x,y,1/2-z
1/2-x,1/2+y,z
1/2+x,-y,1/2+z
loop_
_atom_site_type_symbol
_atom_site_label
_atom_site_fract_x
_atom_site_fract_y
_atom_site_fract_z
Si Si1 0.858093 0.083510 0.791104
Si Si2 0.129167 0.303491 0.900715
Si Si3 0.315290 0.163882 0.356192
Si Si4 0.890499 0.393643 0.144517
Si Si5 0.943796 0.839622 0.482943
Si Si6 0.764395 0.375533 0.955569
Si Si7 0.250000 0.196971 0.750000
O O1 0.876146 0.185740 0.847388
O O2 0.889261 0.109157 0.723992
O O3 0.798895 0.113596 0.773769
O O4 0.855704 0.931575 0.819716
O O5 0.111679 0.448131 0.872484
O O6 0.188204 0.326984 0.913597
O O7 0.098503 0.277659 0.968496
O O8 0.341412 0.305003 0.376295
O O9 0.285685 0.088362 0.414073
O O10 0.271643 0.208115 0.306525
O O11 0.931895 0.331314 0.094941
O O12 0.000000 0.787736 0.497418
O O13 0.943033 0.000000 0.500000
O O14 0.780880 0.500000 0.000000
O O15 0.750000 0.250000 0.000000
#
# Coordination Sequence:
#
# PCOD9478404 Si02
#       7
#    16  16  16  16  16  16   8
#     4  11  22  34  56  82 120 156 194 230 279 338
#     4  11  21  38  57  83 114 148 191 242 283 340
#     4  11  22  34  52  80 117 157 189 226 275 343
#     4  10  21  37  58  85 112 147 192 240 285 340
#     4   9  19  39  66  87 107 144 194 246 298 347
#     4  12  23  34  50  77 112 151 191 230 273 327
#     4  10  20  34  52  74 112 160 200 220 266 324
#
# _framework density 19.548745
#
# number of rings (size 3 to 8) (size 9 to 14) (size 15 to 20)
#    0.000    1.385    1.538    6.462    4.308    0.000 
#    0.000    0.769    0.000    4.615    0.000    0.000 
#    0.000    0.000    0.000    0.000    0.000    0.000 
#
# Total GULP energy -289990.821381 kJ/mol
# GULP energy per Si atom -5576.746565 kJ/mol
# Density = 1.950425 g / cm^3
# Si number density = 19.548745 Si / 1000 Ang^3
#
#
#
# Elastic Constant Matrix: (Units=GPa)
#
#
# Indices 1 2 3 4 5 6 
#
# 1 43.3237 -1.7222 17.2167 0.0000 0.0000 0.0000
# 2 -1.7222 48.7868 15.0972 0.0000 0.0000 0.0000
# 3 17.2167 15.0972 77.9912 0.0000 0.0000 0.0000
# 4 0.0000 0.0000 0.0000 28.7675 0.0000 0.0000
# 5 0.0000 0.0000 0.0000 0.0000 21.6129 0.0000
# 6 0.0000 0.0000 0.0000 0.0000 0.0000 4.3110
#
#
#
# Elastic Compliance Matrix: (Units=1/GPa)
#
#
# Indices 1 2 3 4 5 6 
#
# 1 0.025663 0.002828 -0.006213 0.000000 0.000000 0.000000
# 2 0.002828 0.022115 -0.004905 0.000000 0.000000 0.000000
# 3 -0.006213 -0.004905 0.015143 0.000000 0.000000 0.000000
# 4 0.000000 0.000000 0.000000 0.034761 0.000000 0.000000
# 5 0.000000 0.000000 0.000000 0.000000 0.046269 0.000000
# 6 0.000000 0.000000 0.000000 0.000000 0.000000 0.231966
#
#
# Mechanical properties :
#
#
# Convention : Reuss Voigt Hill
#
# Bulk Modulus (GPa) = 21.57858 25.69837 23.63848
# Shear Modulus (GPa) = 12.25656 20.23894 16.24775
#
# Velocity S-wave (km/s) = 2.50666 3.22111 2.88608
# Velocity P-wave (km/s) = 4.40909 5.19696 4.81915
#
# Compressibility (1/GPa) = 0.04634225
#
# Stress axis : x y z
#
# Youngs Moduli (GPa) = 38.96601 45.21784 66.03716
#
# Poissons Ratio (x) = -0.12790 0.41027
# Poissons Ratio (y) = -0.11021 0.32394
# Poissons Ratio (z) = 0.24209 0.22181
#
# Static dielectric constant tensor:
#      x y z
#    x 1.678610 0.000000 0.000000 
#    y 0.000000 1.681710 0.000000 
#    z 0.000000 0.000000 1.838130 
# 
# From -- ./inp_files/41886.got.cif
#   From: 2010.05.17/outbox.cif.g08.bks.cpg/sg64_21_cif.got.tgz:41886.got - 2010.06.03 16:29:19.
