data_PCOD9478734
_publ_section_title
;
Structure prediction by ZEFSAII (Michael W. Deem and Ramdas Pophale) SiO2 
 PCOD9478734
Probable space group: C M C A
;
_chemical_formula_sum "Si O2"
_cell_formula_units_Z 88
_cell_length_a 13.574702
_cell_length_b 13.970023
_cell_length_c 17.685705
_cell_angle_alpha 90.000000
_cell_angle_beta 90.000000
_cell_angle_gamma 90.000000
_cell_volume 3353.897627
_symmetry_space_group_name_H-M "C M C A"
_symmetry_group_IT_number 64
_symmetry_cell_setting 'orthorhombic'
loop_
_space_group_symop_operation_xyz
x,y,z
-x,1/2-y,1/2+z
x,-y,-z
-x,1/2+y,1/2-z
-x,-y,-z
x,1/2+y,1/2-z
-x,y,z
x,1/2-y,1/2+z
1/2+x,1/2+y,z
1/2-x,-y,1/2+z
1/2+x,1/2-y,-z
1/2-x,y,1/2-z
1/2-x,1/2-y,-z
1/2+x,y,1/2-z
1/2-x,1/2+y,z
1/2+x,-y,1/2+z
loop_
_atom_site_type_symbol
_atom_site_label
_atom_site_fract_x
_atom_site_fract_y
_atom_site_fract_z
Si Si1 0.237098 0.000000 0.500000
Si Si2 0.614948 0.130889 0.544105
Si Si3 0.680183 0.793750 0.862915
Si Si4 0.882249 0.485000 0.134739
Si Si5 0.110367 0.200085 0.196851
Si Si6 0.614419 0.032236 0.701633
O O1 0.315857 0.084457 0.481121
O O2 0.164922 0.947569 0.441425
O O3 0.500000 0.114379 0.528122
O O4 0.635288 0.239457 0.565896
O O5 0.646944 0.076843 0.622535
O O6 0.656839 0.905861 0.867566
O O7 0.794918 0.769603 0.850832
O O8 0.626632 0.765705 0.783467
O O9 0.846514 0.442517 0.214673
O O10 0.000000 0.483741 0.133448
O O11 0.117689 0.083672 0.199012
O O12 0.000000 0.226530 0.170903
O O13 0.500000 0.059621 0.704160
#
# Coordination Sequence:
#
# PCOD9478734 Si02
#       6
#     8  16  16  16  16  16
#     4  12  26  38  58  84 118 162 202 242 296 348
#     4  11  23  41  61  87 117 154 201 248 291 349
#     4  10  20  35  60  85 117 158 196 238 299 353
#     4  10  21  41  62  87 120 157 196 242 296 359
#     4   9  17  33  57  91 121 146 186 244 297 349
#     4   8  17  36  64  86 112 151 192 236 287 343
#
# _framework density 26.238128
#
# number of rings (size 3 to 8) (size 9 to 14) (size 15 to 20)
#    0.000    2.182    0.000    4.364    0.000    5.818 
#    0.000    4.545    0.000    0.000    0.000    0.000 
#    0.000    0.000    0.000    0.000    0.000    0.000 
#
# Total GULP energy -246140.224327 kJ/mol
# GULP energy per Si atom -5594.096007 kJ/mol
# Density = 2.617841 g / cm^3
# Si number density = 26.238128 Si / 1000 Ang^3
#
#
#
# Elastic Constant Matrix: (Units=GPa)
#
#
# Indices 1 2 3 4 5 6 
#
# 1 202.0701 -5.6578 38.9237 0.0000 0.0000 0.0000
# 2 -5.6578 63.9276 2.2521 0.0000 0.0000 0.0000
# 3 38.9237 2.2521 79.9560 0.0000 0.0000 0.0000
# 4 0.0000 0.0000 0.0000 44.5778 0.0000 0.0000
# 5 0.0000 0.0000 0.0000 0.0000 33.9023 0.0000
# 6 0.0000 0.0000 0.0000 0.0000 0.0000 15.0568
#
#
#
# Elastic Compliance Matrix: (Units=1/GPa)
#
#
# Indices 1 2 3 4 5 6 
#
# 1 0.005482 0.000580 -0.002685 0.000000 0.000000 0.000000
# 2 0.000580 0.015720 -0.000725 0.000000 0.000000 0.000000
# 3 -0.002685 -0.000725 0.013834 0.000000 0.000000 0.000000
# 4 0.000000 0.000000 0.000000 0.022433 0.000000 0.000000
# 5 0.000000 0.000000 0.000000 0.000000 0.029497 0.000000
# 6 0.000000 0.000000 0.000000 0.000000 0.000000 0.066415
#
#
# Mechanical properties :
#
#
# Convention : Reuss Voigt Hill
#
# Bulk Modulus (GPa) = 34.04197 46.33218 40.18708
# Shear Modulus (GPa) = 29.61503 39.40309 34.50906
#
# Velocity S-wave (km/s) = 3.36326 3.87945 3.63054
# Velocity P-wave (km/s) = 5.29947 6.14520 5.73794
#
# Compressibility (1/GPa) = 0.02937550
#
# Stress axis : x y z
#
# Youngs Moduli (GPa) = 182.40716 63.61501 72.28317
#
# Poissons Ratio (x) = -0.03688 0.19409
# Poissons Ratio (y) = -0.10576 0.05241
# Poissons Ratio (z) = 0.48979 0.04612
#
# Static dielectric constant tensor:
#      x y z
#    x 1.982150 0.000000 0.000000 
#    y 0.000000 2.128790 0.000000 
#    z 0.000000 0.000000 2.189050 
# 
# From -- ./inp_files/39063.got.cif
#   From: 2010.05.17/outbox.cif.g08.bks.cpg/sg64_20_cif.got.tgz:39063.got - 2010.06.03 16:29:19.
