data_PCOD9478978
_publ_section_title
;
Structure prediction by ZEFSAII (Michael W. Deem and Ramdas Pophale) SiO2 
 PCOD9478978
Probable space group: C M C A
;
_chemical_formula_sum "Si O2"
_cell_formula_units_Z 64
_cell_length_a 15.787899
_cell_length_b 8.165199
_cell_length_c 19.174293
_cell_angle_alpha 90.000000
_cell_angle_beta 90.000000
_cell_angle_gamma 90.000000
_cell_volume 2471.783749
_symmetry_space_group_name_H-M "C M C A"
_symmetry_group_IT_number 64
_symmetry_cell_setting 'orthorhombic'
loop_
_space_group_symop_operation_xyz
x,y,z
-x,1/2-y,1/2+z
x,-y,-z
-x,1/2+y,1/2-z
-x,-y,-z
x,1/2+y,1/2-z
-x,y,z
x,1/2-y,1/2+z
1/2+x,1/2+y,z
1/2-x,-y,1/2+z
1/2+x,1/2-y,-z
1/2-x,y,1/2-z
1/2-x,1/2-y,-z
1/2+x,y,1/2-z
1/2-x,1/2+y,z
1/2+x,-y,1/2+z
loop_
_atom_site_type_symbol
_atom_site_label
_atom_site_fract_x
_atom_site_fract_y
_atom_site_fract_z
Si Si1 0.828281 0.432354 0.105724
Si Si2 0.629984 0.934805 0.361255
Si Si3 0.595257 0.230336 0.016243
Si Si4 0.148343 0.765585 0.766054
O O1 0.729186 0.447853 0.119819
O O2 0.867496 0.587949 0.066817
O O3 0.862197 0.389480 0.182063
O O4 0.846699 0.281685 0.052375
O O5 0.592084 0.890779 0.435766
O O6 0.612088 0.784522 0.308259
O O7 0.610857 0.090297 0.313139
O O8 0.500000 0.191666 0.993503
O O9 0.250000 0.792830 0.750000
#
# Coordination Sequence:
#
# PCOD9478978 Si02
#       4
#    16  16  16  16
#     4  10  20  38  64  89 121 166 208 250 303 366
#     4  11  21  38  64  93 123 162 209 257 307 367
#     4  11  24  42  61  92 132 167 201 250 310 371
#     4  10  20  36  62  94 122 153 206 265 307 352
#
# _framework density 25.892234999999999
#
# number of rings (size 3 to 8) (size 9 to 14) (size 15 to 20)
#    0.000    1.500    0.000    9.000    0.000    3.000 
#    0.000   10.000    0.000    0.000    0.000    0.000 
#    0.000    0.000    0.000    0.000    0.000    0.000 
#
# Total GULP energy -178943.070472 kJ/mol
# GULP energy per Si atom -5591.970952 kJ/mol
# Density = 2.583330 g / cm^3
# Si number density = 25.892235 Si / 1000 Ang^3
#
#
#
# Elastic Constant Matrix: (Units=GPa)
#
#
# Indices 1 2 3 4 5 6 
#
# 1 62.6647 15.5969 17.4605 0.0000 0.0000 0.0000
# 2 15.5969 81.3857 40.7812 0.0000 0.0000 0.0000
# 3 17.4605 40.7812 186.1463 0.0000 0.0000 0.0000
# 4 0.0000 0.0000 0.0000 75.5111 0.0000 0.0000
# 5 0.0000 0.0000 0.0000 0.0000 234.2072 0.0000
# 6 0.0000 0.0000 0.0000 0.0000 0.0000 17.0101
#
#
#
# Elastic Compliance Matrix: (Units=1/GPa)
#
#
# Indices 1 2 3 4 5 6 
#
# 1 0.016916 -0.002748 -0.000985 0.000000 0.000000 0.000000
# 2 -0.002748 0.014249 -0.002864 0.000000 0.000000 0.000000
# 3 -0.000985 -0.002864 0.006092 0.000000 0.000000 0.000000
# 4 0.000000 0.000000 0.000000 0.013243 0.000000 0.000000
# 5 0.000000 0.000000 0.000000 0.000000 0.004270 0.000000
# 6 0.000000 0.000000 0.000000 0.000000 0.000000 0.058789
#
#
# Mechanical properties :
#
#
# Convention : Reuss Voigt Hill
#
# Bulk Modulus (GPa) = 41.55715 53.09709 47.32712
# Shear Modulus (GPa) = 37.09924 82.43623 59.76774
#
# Velocity S-wave (km/s) = 3.78938 5.64866 4.80972
# Velocity P-wave (km/s) = 5.93555 7.94321 7.01161
#
# Compressibility (1/GPa) = 0.02406325
#
# Stress axis : x y z
#
# Youngs Moduli (GPa) = 59.11435 70.18065 164.15254
#
# Poissons Ratio (x) = 0.19289 0.16163
# Poissons Ratio (y) = 0.16248 0.47011
# Poissons Ratio (z) = 0.05820 0.20099
#
# Static dielectric constant tensor:
#      x y z
#    x 1.970920 0.000000 0.000000 
#    y 0.000000 2.224810 0.000000 
#    z 0.000000 0.000000 1.940730 
# 
# From -- ./inp_files/39801.got.cif
#   From: 2010.05.17/outbox.cif.g08.bks.cpg/sg64_20_cif.got.tgz:39801.got - 2010.06.03 16:29:19.
