data_PCOD9478382
_publ_section_title
;
Structure prediction by ZEFSAII (Michael W. Deem and Ramdas Pophale) SiO2 
 PCOD9478382
Probable space group: C M C A
;
_chemical_formula_sum "Si O2"
_cell_formula_units_Z 120
_cell_length_a 27.296686
_cell_length_b 9.064009
_cell_length_c 29.680982
_cell_angle_alpha 90.000000
_cell_angle_beta 90.000000
_cell_angle_gamma 90.000000
_cell_volume 7343.591621
_symmetry_space_group_name_H-M "C M C A"
_symmetry_group_IT_number 64
_symmetry_cell_setting 'orthorhombic'
loop_
_space_group_symop_operation_xyz
x,y,z
-x,1/2-y,1/2+z
x,-y,-z
-x,1/2+y,1/2-z
-x,-y,-z
x,1/2+y,1/2-z
-x,y,z
x,1/2-y,1/2+z
1/2+x,1/2+y,z
1/2-x,-y,1/2+z
1/2+x,1/2-y,-z
1/2-x,y,1/2-z
1/2-x,1/2-y,-z
1/2+x,y,1/2-z
1/2-x,1/2+y,z
1/2+x,-y,1/2+z
loop_
_atom_site_type_symbol
_atom_site_label
_atom_site_fract_x
_atom_site_fract_y
_atom_site_fract_z
Si Si1 0.690473 0.692795 0.292248
Si Si2 0.790575 0.737780 0.560565
Si Si3 0.342993 0.868599 0.205636
Si Si4 0.149653 0.406008 0.369103
Si Si5 0.219937 0.185794 0.144504
Si Si6 0.233914 0.500000 0.000000
Si Si7 0.055583 0.577141 0.684735
Si Si8 0.943584 0.734978 0.269030
O O1 0.661947 0.540884 0.286151
O O2 0.684702 0.784926 0.246580
O O3 0.667236 0.795597 0.330176
O O4 0.743359 0.652368 0.313625
O O5 0.839209 0.675433 0.584154
O O6 0.752427 0.774009 0.601142
O O7 0.767178 0.608090 0.530440
O O8 0.795887 0.886537 0.531502
O O9 0.314179 0.820211 0.160813
O O10 0.399124 0.815648 0.205523
O O11 0.184747 0.548345 0.365679
O O12 0.094358 0.439936 0.355072
O O13 0.063339 0.719591 0.716764
O O14 0.060787 0.436798 0.718310
O O15 0.000000 0.579257 0.668112
O O16 0.000000 0.779487 0.280272
#
# Coordination Sequence:
#
# PCOD9478382 Si02
#       8
#    16  16  16  16  16   8  16  16
#     4  11  23  32  47  69 101 145 182 211 252 303
#     4  10  21  36  57  80 109 136 166 207 259 320
#     4  12  21  34  48  69 100 145 183 216 256 295
#     4  11  20  36  52  76 106 136 175 218 260 302
#     4  11  22  35  49  74 109 138 171 211 251 303
#     4  10  20  38  58  80 106 136 166 200 258 336
#     4  10  20  35  52  71  98 140 186 230 261 292
#     4  10  20  34  50  68  95 138 190 229 257 287
#
# _framework density 16.340778
#
# number of rings (size 3 to 8) (size 9 to 14) (size 15 to 20)
#    0.000    1.333    4.000    3.600    1.867    1.067 
#    0.000    0.000    0.000    0.000    0.000    0.933 
#    0.000    0.000    0.000    0.533    0.000    0.000 
#
# Total GULP energy -334699.843323 kJ/mol
# GULP energy per Si atom -5578.330722 kJ/mol
# Density = 1.630359 g / cm^3
# Si number density = 16.340778 Si / 1000 Ang^3
#
#
#
# Elastic Constant Matrix: (Units=GPa)
#
#
# Indices 1 2 3 4 5 6 
#
# 1 97.1941 15.9125 32.5381 0.0000 0.0000 0.0000
# 2 15.9125 89.3555 33.5843 0.0000 0.0000 0.0000
# 3 32.5381 33.5843 63.3767 0.0000 0.0000 0.0000
# 4 0.0000 0.0000 0.0000 28.9654 0.0000 0.0000
# 5 0.0000 0.0000 0.0000 0.0000 14.5007 0.0000
# 6 0.0000 0.0000 0.0000 0.0000 0.0000 21.0106
#
#
#
# Elastic Compliance Matrix: (Units=1/GPa)
#
#
# Indices 1 2 3 4 5 6 
#
# 1 0.012428 0.000231 -0.006503 0.000000 0.000000 0.000000
# 2 0.000231 0.013979 -0.007526 0.000000 0.000000 0.000000
# 3 -0.006503 -0.007526 0.023106 0.000000 0.000000 0.000000
# 4 0.000000 0.000000 0.000000 0.034524 0.000000 0.000000
# 5 0.000000 0.000000 0.000000 0.000000 0.068962 0.000000
# 6 0.000000 0.000000 0.000000 0.000000 0.000000 0.047595
#
#
# Mechanical properties :
#
#
# Convention : Reuss Voigt Hill
#
# Bulk Modulus (GPa) = 45.62888 45.99958 45.81423
# Shear Modulus (GPa) = 21.23185 24.08810 22.65997
#
# Velocity S-wave (km/s) = 3.60851 3.84358 3.72790
# Velocity P-wave (km/s) = 6.73393 6.92161 6.82842
#
# Compressibility (1/GPa) = 0.02191595
#
# Stress axis : x y z
#
# Youngs Moduli (GPa) = 80.46407 71.53671 43.27960
#
# Poissons Ratio (x) = -0.01652 0.28145
# Poissons Ratio (y) = -0.01858 0.32573
# Poissons Ratio (z) = 0.52326 0.53840
#
# Static dielectric constant tensor:
#      x y z
#    x 1.583530 0.000000 0.000000 
#    y 0.000000 1.564980 0.000000 
#    z 0.000000 0.000000 1.548640 
# 
# From -- ./inp_files/51251.got.cif
#   From: 2010.05.17/outbox.cif.g08.bks.cpg/sg64_26_cif.got.tgz:51251.got - 2010.06.03 16:29:19.
