data_PCOD9478085
_publ_section_title
;
Structure prediction by ZEFSAII (Michael W. Deem and Ramdas Pophale) SiO2 
 PCOD9478085
Probable space group: C M C A
;
_chemical_formula_sum "Si O2"
_cell_formula_units_Z 96
_cell_length_a 27.238610
_cell_length_b 16.846054
_cell_length_c 10.779136
_cell_angle_alpha 90.000000
_cell_angle_beta 90.000000
_cell_angle_gamma 90.000000
_cell_volume 4946.147706
_symmetry_space_group_name_H-M "C M C A"
_symmetry_group_IT_number 64
_symmetry_cell_setting 'orthorhombic'
loop_
_space_group_symop_operation_xyz
x,y,z
-x,1/2-y,1/2+z
x,-y,-z
-x,1/2+y,1/2-z
-x,-y,-z
x,1/2+y,1/2-z
-x,y,z
x,1/2-y,1/2+z
1/2+x,1/2+y,z
1/2-x,-y,1/2+z
1/2+x,1/2-y,-z
1/2-x,y,1/2-z
1/2-x,1/2-y,-z
1/2+x,y,1/2-z
1/2-x,1/2+y,z
1/2+x,-y,1/2+z
loop_
_atom_site_type_symbol
_atom_site_label
_atom_site_fract_x
_atom_site_fract_y
_atom_site_fract_z
Si Si1 0.307719 0.580887 0.765327
Si Si2 0.140922 0.811772 0.039326
Si Si3 0.878090 0.454334 0.624071
Si Si4 0.943657 0.901097 0.661854
Si Si5 0.877007 0.145218 0.558782
Si Si6 0.556188 0.213560 0.722262
O O1 0.250000 0.574583 0.750000
O O2 0.321461 0.651430 0.861767
O O3 0.331909 0.502706 0.824051
O O4 0.337083 0.598161 0.638395
O O5 0.087812 0.817343 0.106375
O O6 0.138379 0.866918 0.918592
O O7 0.148753 0.720286 0.007456
O O8 0.894703 0.500000 0.500000
O O9 0.919720 0.451555 0.728105
O O10 0.908179 0.902611 0.542694
O O11 0.943423 0.809143 0.708817
O O12 0.000000 0.922546 0.634307
O O13 0.916020 0.183537 0.655455
O O14 0.500000 0.186949 0.721071
#
# Coordination Sequence:
#
# PCOD9478085 Si02
#       6
#    16  16  16  16  16  16
#     4  10  23  42  61  83 112 157 203 252 313 358
#     4   9  19  37  61  85 120 151 194 252 290 353
#     4  10  21  41  58  82 123 158 197 242 289 360
#     4  10  20  34  58  90 122 160 195 231 292 357
#     4  10  19  37  61  90 122 148 194 254 294 349
#     4   9  17  31  59  92 120 154 190 233 292 350
#
# _framework density 19.409044000000002
#
# number of rings (size 3 to 8) (size 9 to 14) (size 15 to 20)
#    0.000    2.333    1.667    0.500    0.000    3.000 
#    9.000    9.167    0.000    0.000    0.000    0.000 
#    0.000    0.000    0.000    0.000    0.000    0.000 
#
# Total GULP energy -268007.371402 kJ/mol
# GULP energy per Si atom -5583.486904 kJ/mol
# Density = 1.936487 g / cm^3
# Si number density = 19.409044 Si / 1000 Ang^3
#
#
#
# Elastic Constant Matrix: (Units=GPa)
#
#
# Indices 1 2 3 4 5 6 
#
# 1 142.0039 47.8252 73.4469 0.0000 0.0000 0.0000
# 2 47.8252 48.1696 30.9480 0.0000 0.0000 0.0000
# 3 73.4469 30.9480 112.6596 0.0000 0.0000 0.0000
# 4 0.0000 0.0000 0.0000 13.9036 0.0000 0.0000
# 5 0.0000 0.0000 0.0000 0.0000 9.3466 0.0000
# 6 0.0000 0.0000 0.0000 0.0000 0.0000 21.2023
#
#
#
# Elastic Compliance Matrix: (Units=1/GPa)
#
#
# Indices 1 2 3 4 5 6 
#
# 1 0.013360 -0.009312 -0.006152 0.000000 0.000000 0.000000
# 2 -0.009312 0.031700 -0.002637 0.000000 0.000000 0.000000
# 3 -0.006152 -0.002637 0.013611 0.000000 0.000000 0.000000
# 4 0.000000 0.000000 0.000000 0.071924 0.000000 0.000000
# 5 0.000000 0.000000 0.000000 0.000000 0.106991 0.000000
# 6 0.000000 0.000000 0.000000 0.000000 0.000000 0.047165
#
#
# Mechanical properties :
#
#
# Convention : Reuss Voigt Hill
#
# Bulk Modulus (GPa) = 44.50569 67.47480 55.99024
# Shear Modulus (GPa) = 15.22335 18.93136 17.07735
#
# Velocity S-wave (km/s) = 2.80365 3.12651 2.96947
# Velocity P-wave (km/s) = 5.78453 6.91907 6.37708
#
# Compressibility (1/GPa) = 0.02246904
#
# Stress axis : x y z
#
# Youngs Moduli (GPa) = 74.84950 31.54583 73.46800
#
# Poissons Ratio (x) = 0.29376 0.45197
# Poissons Ratio (y) = 0.69701 0.19375
# Poissons Ratio (z) = 0.46046 0.08319
#
# Static dielectric constant tensor:
#      x y z
#    x 1.620280 0.000000 0.000000 
#    y 0.000000 1.703920 0.000000 
#    z 0.000000 0.000000 1.695400 
# 
# From -- ./inp_files/18362.got.cif
#   From: 2010.05.17/outbox.cif.g08.bks.cpg/sg64_10_cif.got.tgz:18362.got - 2010.06.03 16:29:19.
