data_PCOD9478090
_publ_section_title
;
Structure prediction by ZEFSAII (Michael W. Deem and Ramdas Pophale) SiO2 
 PCOD9478090
Probable space group: C M C A
;
_chemical_formula_sum "Si O2"
_cell_formula_units_Z 112
_cell_length_a 17.659479
_cell_length_b 34.033368
_cell_length_c 10.514764
_cell_angle_alpha 90.000000
_cell_angle_beta 90.000000
_cell_angle_gamma 90.000000
_cell_volume 6319.494583
_symmetry_space_group_name_H-M "C M C A"
_symmetry_group_IT_number 64
_symmetry_cell_setting 'orthorhombic'
loop_
_space_group_symop_operation_xyz
x,y,z
-x,1/2-y,1/2+z
x,-y,-z
-x,1/2+y,1/2-z
-x,-y,-z
x,1/2+y,1/2-z
-x,y,z
x,1/2-y,1/2+z
1/2+x,1/2+y,z
1/2-x,-y,1/2+z
1/2+x,1/2-y,-z
1/2-x,y,1/2-z
1/2-x,1/2-y,-z
1/2+x,y,1/2-z
1/2-x,1/2+y,z
1/2+x,-y,1/2+z
loop_
_atom_site_type_symbol
_atom_site_label
_atom_site_fract_x
_atom_site_fract_y
_atom_site_fract_z
Si Si1 0.659921 0.339698 0.259497
Si Si2 0.408687 0.798421 0.487140
Si Si3 0.911327 0.581165 0.854312
Si Si4 0.908548 0.205970 0.501593
Si Si5 0.407908 0.340083 0.753914
Si Si6 0.317122 0.498536 0.351017
Si Si7 0.088941 0.077813 0.345563
O O1 0.750000 0.341245 0.250000
O O2 0.626801 0.383420 0.278261
O O3 0.632309 0.314592 0.380793
O O4 0.627036 0.319043 0.134458
O O5 0.500000 0.801697 0.478253
O O6 0.391203 0.752169 0.494179
O O7 0.382964 0.819821 0.616261
O O8 0.870009 0.539684 0.835251
O O9 0.000000 0.578349 0.822751
O O10 0.905789 0.589924 0.005729
O O11 0.886407 0.185039 0.369824
O O12 0.000000 0.201591 0.517994
O O13 0.500000 0.340532 0.754695
O O14 0.383567 0.385143 0.736324
O O15 0.292249 0.500000 0.500000
O O16 0.250000 0.496222 0.250000
O O17 0.364541 0.538206 0.327257
O O18 0.000000 0.070581 0.319608
#
# Coordination Sequence:
#
# PCOD9478090 Si02
#       7
#    16  16  16  16  16  16  16
#     4  12  24  37  55  85 124 157 189 234 294 353
#     4  10  21  37  59  87 113 148 197 249 292 330
#     4  10  19  37  64  85 107 148 201 240 272 329
#     4  10  19  37  63  83 109 153 202 242 283 341
#     4   9  17  33  57  85 112 142 192 247 284 327
#     4  10  21  38  59  87 119 147 180 229 286 347
#     4   9  17  34  60  85 108 145 197 239 276 332
#
# _framework density 17.722937000000002
#
# number of rings (size 3 to 8) (size 9 to 14) (size 15 to 20)
#    0.000    2.000    1.429    3.000    0.000    4.571 
#    7.714    0.714    0.000    0.857    0.000    0.000 
#    0.000    0.000    0.000    0.000    0.000    0.000 
#
# Total GULP energy -312666.338266 kJ/mol
# GULP energy per Si atom -5583.327469 kJ/mol
# Density = 1.768260 g / cm^3
# Si number density = 17.722937 Si / 1000 Ang^3
#
#
#
# Elastic Constant Matrix: (Units=GPa)
#
#
# Indices 1 2 3 4 5 6 
#
# 1 72.9904 62.0255 56.7205 0.0000 0.0000 0.0000
# 2 62.0255 159.7396 88.7178 0.0000 0.0000 0.0000
# 3 56.7205 88.7178 136.3505 0.0000 0.0000 0.0000
# 4 0.0000 0.0000 0.0000 -26.9842 0.0000 0.0000
# 5 0.0000 0.0000 0.0000 0.0000 20.5660 0.0000
# 6 0.0000 0.0000 0.0000 0.0000 0.0000 -2.9973
#
#
#
# Elastic Compliance Matrix: (Units=1/GPa)
#
#
# Indices 1 2 3 4 5 6 
#
# 1 0.023143 -0.005699 -0.005919 0.000000 0.000000 0.000000
# 2 -0.005699 0.011206 -0.004921 0.000000 0.000000 0.000000
# 3 -0.005919 -0.004921 0.012998 0.000000 0.000000 0.000000
# 4 0.000000 0.000000 0.000000 -0.037059 0.000000 0.000000
# 5 0.000000 0.000000 0.000000 0.000000 0.048624 0.000000
# 6 0.000000 0.000000 0.000000 0.000000 0.000000 -0.333630
#
#
# Mechanical properties :
#
#
# Convention : Reuss Voigt Hill
#
# Bulk Modulus (GPa) = 70.07902 87.11200 78.59551
# Shear Modulus (GPa) = -21.10729 8.89135 -6.10797
#
# Velocity S-wave (km/s) = -3.45477 2.24226 -1.85845
# Velocity P-wave (km/s) = 4.86963 7.48081 6.31173
#
# Compressibility (1/GPa) = 0.01426961
#
# Stress axis : x y z
#
# Youngs Moduli (GPa) = 43.20983 89.24005 76.93472
#
# Poissons Ratio (x) = 0.50855 0.45540
# Poissons Ratio (y) = 0.24624 0.37856
# Poissons Ratio (z) = 0.25577 0.43911
#
# Static dielectric constant tensor:
#      x y z
#    x 1.583480 0.000000 0.000000 
#    y 0.000000 1.592060 0.000000 
#    z 0.000000 0.000000 1.584310 
# 
# From -- ./inp_files/14930.got.cif
#   From: 2010.05.17/outbox.cif.g08.bks.cpg/sg64_8_cif.got.tgz:14930.got - 2010.06.03 16:29:19.
