data_PCOD9478876
_publ_section_title
;
Structure prediction by ZEFSAII (Michael W. Deem and Ramdas Pophale) SiO2 
 PCOD9478876
Probable space group: C M C A
;
_chemical_formula_sum "Si O2"
_cell_formula_units_Z 80
_cell_length_a 14.486244
_cell_length_b 20.299063
_cell_length_c 13.099716
_cell_angle_alpha 90.000000
_cell_angle_beta 90.000000
_cell_angle_gamma 90.000000
_cell_volume 3852.065540
_symmetry_space_group_name_H-M "C M C A"
_symmetry_group_IT_number 64
_symmetry_cell_setting 'orthorhombic'
loop_
_space_group_symop_operation_xyz
x,y,z
-x,1/2-y,1/2+z
x,-y,-z
-x,1/2+y,1/2-z
-x,-y,-z
x,1/2+y,1/2-z
-x,y,z
x,1/2-y,1/2+z
1/2+x,1/2+y,z
1/2-x,-y,1/2+z
1/2+x,1/2-y,-z
1/2-x,y,1/2-z
1/2-x,1/2-y,-z
1/2+x,y,1/2-z
1/2-x,1/2+y,z
1/2+x,-y,1/2+z
loop_
_atom_site_type_symbol
_atom_site_label
_atom_site_fract_x
_atom_site_fract_y
_atom_site_fract_z
Si Si1 0.265941 0.941853 0.419877
Si Si2 0.170799 0.825718 0.523007
Si Si3 0.889075 0.978809 0.259585
Si Si4 0.800598 0.755776 0.340679
Si Si5 0.105085 0.869452 0.733208
O O1 0.248699 0.875994 0.483730
O O2 0.281417 0.000000 0.500000
O O3 0.171255 0.955727 0.356470
O O4 0.348838 0.940903 0.338605
O O5 0.132860 0.795292 0.417139
O O6 0.216549 0.767901 0.588748
O O7 0.111399 0.861474 0.609898
O O8 0.864249 0.056285 0.242478
O O9 0.000000 0.973017 0.272206
O O10 0.750000 0.795540 0.250000
O O11 0.842844 0.689682 0.291054
O O12 0.000000 0.863879 0.765179
#
# Coordination Sequence:
#
# PCOD9478876 Si02
#       5
#    16  16  16  16  16
#     4  11  21  36  64  84 116 157 196 236 299 352
#     4  10  20  36  58  86 108 150 199 235 280 351
#     4  10  23  38  56  89 121 151 193 243 293 351
#     4   9  20  36  59  79 112 146 192 238 281 339
#     4  10  20  37  59  83 116 152 188 239 297 346
#
# _framework density 20.768077999999999
#
# number of rings (size 3 to 8) (size 9 to 14) (size 15 to 20)
#    0.000    2.000    2.000    1.200    8.400    2.400 
#    0.000    1.000    0.000    0.000    0.000    0.000 
#    0.000    0.000    0.000    0.000    0.000    0.000 
#
# Total GULP energy -222813.157123 kJ/mol
# GULP energy per Si atom -5570.328928 kJ/mol
# Density = 2.072081 g / cm^3
# Si number density = 20.768078 Si / 1000 Ang^3
#
#
#
# Elastic Constant Matrix: (Units=GPa)
#
#
# Indices 1 2 3 4 5 6 
#
# 1 66.0232 -11.7590 -0.7067 0.0000 0.0000 0.0000
# 2 -11.7590 59.1810 9.3618 0.0000 0.0000 0.0000
# 3 -0.7067 9.3618 96.6835 0.0000 0.0000 0.0000
# 4 0.0000 0.0000 0.0000 34.2121 0.0000 0.0000
# 5 0.0000 0.0000 0.0000 0.0000 16.6331 0.0000
# 6 0.0000 0.0000 0.0000 0.0000 0.0000 6.7289
#
#
#
# Elastic Compliance Matrix: (Units=1/GPa)
#
#
# Indices 1 2 3 4 5 6 
#
# 1 0.015705 0.003151 -0.000190 0.000000 0.000000 0.000000
# 2 0.003151 0.017792 -0.001700 0.000000 0.000000 0.000000
# 3 -0.000190 -0.001700 0.010506 0.000000 0.000000 0.000000
# 4 0.000000 0.000000 0.000000 0.029229 0.000000 0.000000
# 5 0.000000 0.000000 0.000000 0.000000 0.060121 0.000000
# 6 0.000000 0.000000 0.000000 0.000000 0.000000 0.148612
#
#
# Mechanical properties :
#
#
# Convention : Reuss Voigt Hill
#
# Bulk Modulus (GPa) = 21.49383 23.96442 22.72913
# Shear Modulus (GPa) = 16.95185 26.51426 21.73306
#
# Velocity S-wave (km/s) = 2.86010 3.57695 3.23842
# Velocity P-wave (km/s) = 4.61290 5.35010 4.99511
#
# Compressibility (1/GPa) = 0.04652498
#
# Stress axis : x y z
#
# Youngs Moduli (GPa) = 63.67274 56.20430 95.18164
#
# Poissons Ratio (x) = -0.17708 0.01811
# Poissons Ratio (y) = -0.20061 0.16179
# Poissons Ratio (z) = 0.01212 0.09553
#
# Static dielectric constant tensor:
#      x y z
#    x 1.751490 0.000000 0.000000 
#    y 0.000000 1.788330 0.000000 
#    z 0.000000 0.000000 1.811640 
# 
# From -- ./inp_files/25320.got.cif
#   From: 2010.05.17/outbox.cif.g08.bks.cpg/sg64_13_cif.got.tgz:25320.got - 2010.06.03 16:29:19.
