data_PCOD9478298
_publ_section_title
;
Structure prediction by ZEFSAII (Michael W. Deem and Ramdas Pophale) SiO2 
 PCOD9478298
Probable space group: C M C A
;
_chemical_formula_sum "Si O2"
_cell_formula_units_Z 80
_cell_length_a 7.597398
_cell_length_b 24.379234
_cell_length_c 21.899564
_cell_angle_alpha 90.000000
_cell_angle_beta 90.000000
_cell_angle_gamma 90.000000
_cell_volume 4056.209730
_symmetry_space_group_name_H-M "C M C A"
_symmetry_group_IT_number 64
_symmetry_cell_setting 'orthorhombic'
loop_
_space_group_symop_operation_xyz
x,y,z
-x,1/2-y,1/2+z
x,-y,-z
-x,1/2+y,1/2-z
-x,-y,-z
x,1/2+y,1/2-z
-x,y,z
x,1/2-y,1/2+z
1/2+x,1/2+y,z
1/2-x,-y,1/2+z
1/2+x,1/2-y,-z
1/2-x,y,1/2-z
1/2-x,1/2-y,-z
1/2+x,y,1/2-z
1/2-x,1/2+y,z
1/2+x,-y,1/2+z
loop_
_atom_site_type_symbol
_atom_site_label
_atom_site_fract_x
_atom_site_fract_y
_atom_site_fract_z
Si Si1 0.210250 0.634328 0.318513
Si Si2 0.207567 0.956646 0.449217
Si Si3 0.789864 0.509864 0.320062
Si Si4 0.205456 0.833847 0.453025
Si Si5 0.284919 0.219883 0.417398
O O1 0.250000 0.651035 0.250000
O O2 0.279465 0.572409 0.326554
O O3 0.276818 0.679984 0.364287
O O4 0.000000 0.630952 0.326872
O O5 0.224859 0.977181 0.379402
O O6 0.283723 0.105131 0.547378
O O7 0.000000 0.951895 0.463749
O O8 0.279190 0.000000 0.500000
O O9 0.750000 0.491524 0.250000
O O10 0.000000 0.510450 0.324652
O O11 0.221236 0.808474 0.520492
O O12 0.276754 0.783004 0.412990
O O13 0.000000 0.839861 0.436292
O O14 0.500000 0.220835 0.419202
#
# Coordination Sequence:
#
# PCOD9478298 Si02
#       5
#    16  16  16  16  16
#     4   9  18  31  48  70  93 119 153 194 236 279
#     4  10  20  33  50  74 103 133 166 204 245 290
#     4  10  20  34  52  73  98 129 164 202 246 294
#     4   9  18  31  48  70  96 126 157 193 238 284
#     4   9  17  31  49  69  95 123 154 195 239 282
#
# _framework density 19.722846000000001
#
# number of rings (size 3 to 8) (size 9 to 14) (size 15 to 20)
#    0.000    2.600    0.000    1.800    0.000    2.800 
#    0.000    1.000    0.000    2.400    0.000    0.000 
#    0.000    0.000    0.000    0.000    0.000    0.000 
#
# Total GULP energy -222856.455141 kJ/mol
# GULP energy per Si atom -5571.411379 kJ/mol
# Density = 1.967796 g / cm^3
# Si number density = 19.722846 Si / 1000 Ang^3
#
#
#
# Elastic Constant Matrix: (Units=GPa)
#
#
# Indices 1 2 3 4 5 6 
#
# 1 40.8899 -6.8548 -22.2108 0.0000 0.0000 0.0000
# 2 -6.8548 141.2756 72.0446 0.0000 0.0000 0.0000
# 3 -22.2108 72.0446 76.6757 0.0000 0.0000 0.0000
# 4 0.0000 0.0000 0.0000 38.8293 0.0000 0.0000
# 5 0.0000 0.0000 0.0000 0.0000 19.1455 0.0000
# 6 0.0000 0.0000 0.0000 0.0000 0.0000 -3.6426
#
#
#
# Elastic Compliance Matrix: (Units=1/GPa)
#
#
# Indices 1 2 3 4 5 6 
#
# 1 0.031460 -0.005992 0.014743 0.000000 0.000000 0.000000
# 2 -0.005992 0.014731 -0.015577 0.000000 0.000000 0.000000
# 3 0.014743 -0.015577 0.031949 0.000000 0.000000 0.000000
# 4 0.000000 0.000000 0.000000 0.025754 0.000000 0.000000
# 5 0.000000 0.000000 0.000000 0.000000 0.052232 0.000000
# 6 0.000000 0.000000 0.000000 0.000000 0.000000 -0.274531
#
#
# Mechanical properties :
#
#
# Convention : Reuss Voigt Hill
#
# Bulk Modulus (GPa) = 15.50685 38.31100 26.90893
# Shear Modulus (GPa) = -60.05455 25.25726 -17.39864
#
# Velocity S-wave (km/s) = -5.52407 3.58244 -2.97333
# Velocity P-wave (km/s) = 5.72780 6.04803 1.37314
#
# Compressibility (1/GPa) = 0.06448761
#
# Stress axis : x y z
#
# Youngs Moduli (GPa) = 31.78679 67.88202 31.29979
#
# Poissons Ratio (x) = 0.40674 -0.46145
# Poissons Ratio (y) = 0.19046 0.48757
# Poissons Ratio (z) = -0.46863 1.05742
#
# Static dielectric constant tensor:
#      x y z
#    x 1.737370 0.000000 0.000000 
#    y 0.000000 1.738120 0.000000 
#    z 0.000000 0.000000 1.672780 
# 
# From -- ./inp_files/29970.got.cif
#   From: 2010.05.17/outbox.cif.g08.bks.cpg/sg64_15_cif.got.tgz:29970.got - 2010.06.03 16:29:19.
