data_PCOD9478325
_publ_section_title
;
Structure prediction by ZEFSAII (Michael W. Deem and Ramdas Pophale) SiO2 
 PCOD9478325
Probable space group: C M C A
;
_chemical_formula_sum "Si O2"
_cell_formula_units_Z 116
_cell_length_a 10.223393
_cell_length_b 28.401492
_cell_length_c 23.677532
_cell_angle_alpha 90.000000
_cell_angle_beta 90.000000
_cell_angle_gamma 90.000000
_cell_volume 6874.999064
_symmetry_space_group_name_H-M "C M C A"
_symmetry_group_IT_number 64
_symmetry_cell_setting 'orthorhombic'
loop_
_space_group_symop_operation_xyz
x,y,z
-x,1/2-y,1/2+z
x,-y,-z
-x,1/2+y,1/2-z
-x,-y,-z
x,1/2+y,1/2-z
-x,y,z
x,1/2-y,1/2+z
1/2+x,1/2+y,z
1/2-x,-y,1/2+z
1/2+x,1/2-y,-z
1/2-x,y,1/2-z
1/2-x,1/2-y,-z
1/2+x,y,1/2-z
1/2-x,1/2+y,z
1/2+x,-y,1/2+z
loop_
_atom_site_type_symbol
_atom_site_label
_atom_site_fract_x
_atom_site_fract_y
_atom_site_fract_z
Si Si1 0.649886 0.924635 0.801216
Si Si2 0.152482 0.886835 0.963756
Si Si3 0.848527 0.664285 0.117543
Si Si4 0.000000 0.000000 0.500000
Si Si5 0.656650 0.417447 0.087491
Si Si6 0.154187 0.358816 0.301706
Si Si7 0.651946 0.252866 0.699322
Si Si8 0.269473 0.477990 0.587728
O O1 0.500000 0.930126 0.782058
O O2 0.750000 0.928918 0.750000
O O3 0.662516 0.873888 0.831816
O O4 0.681153 0.961564 0.850947
O O5 0.247271 0.851796 0.930025
O O6 0.170124 0.938101 0.934640
O O7 0.000000 0.872987 0.961392
O O8 0.196064 0.892979 0.028703
O O9 0.821705 0.714920 0.144991
O O10 0.000000 0.662320 0.097762
O O11 0.113309 0.979752 0.543090
O O12 0.500000 0.420195 0.085883
O O13 0.692754 0.387495 0.142527
O O14 0.711143 0.469986 0.090345
O O15 0.250000 0.370696 0.250000
O O16 0.165761 0.302733 0.312343
O O17 0.000000 0.368196 0.289028
O O18 0.500000 0.261574 0.715619
O O19 0.750000 0.265142 0.750000
#
# Coordination Sequence:
#
# PCOD9478325 Si02
#       8
#    16  16  16   4  16  16  16  16
#     4  10  21  34  48  73 107 136 166 205 260 313
#     4  10  20  33  52  78 104 136 173 214 256 308
#     4   9  19  33  52  76 104 136 171 209 257 311
#     4  12  20  36  58  80 100 140 186 230 260 304
#     4  10  20  35  54  75 101 136 172 216 260 305
#     4   9  19  37  56  77 104 135 174 217 261 308
#     4   9  17  32  55  78 101 134 173 214 258 308
#     4  11  21  35  56  77 103 138 182 220 259 306
#
# _framework density 16.872730000000001
#
# number of rings (size 3 to 8) (size 9 to 14) (size 15 to 20)
#    0.000    2.207    2.069    0.828    0.966    4.966 
#    1.241    2.069    0.000    0.000    0.000    0.000 
#    0.000    0.000    0.000    0.000    0.000    0.000 
#
# Total GULP energy -322902.522445 kJ/mol
# GULP energy per Si atom -5567.284870 kJ/mol
# Density = 1.683433 g / cm^3
# Si number density = 16.872730 Si / 1000 Ang^3
#
#
#
# Elastic Constant Matrix: (Units=GPa)
#
#
# Indices 1 2 3 4 5 6 
#
# 1 71.8487 32.8182 67.0850 0.0000 0.0000 0.0000
# 2 32.8182 49.3555 39.8805 0.0000 0.0000 0.0000
# 3 67.0850 39.8805 103.2418 0.0000 0.0000 0.0000
# 4 0.0000 0.0000 0.0000 20.5645 0.0000 0.0000
# 5 0.0000 0.0000 0.0000 0.0000 32.8855 0.0000
# 6 0.0000 0.0000 0.0000 0.0000 0.0000 -4.7106
#
#
#
# Elastic Compliance Matrix: (Units=1/GPa)
#
#
# Indices 1 2 3 4 5 6 
#
# 1 0.037239 -0.007573 -0.021272 0.000000 0.000000 0.000000
# 2 -0.007573 0.030995 -0.007052 0.000000 0.000000 0.000000
# 3 -0.021272 -0.007052 0.026232 0.000000 0.000000 0.000000
# 4 0.000000 0.000000 0.000000 0.048627 0.000000 0.000000
# 5 0.000000 0.000000 0.000000 0.000000 0.030409 0.000000
# 6 0.000000 0.000000 0.000000 0.000000 0.000000 -0.212288
#
#
# Mechanical properties :
#
#
# Convention : Reuss Voigt Hill
#
# Bulk Modulus (GPa) = 44.10706 56.00147 50.05427
# Shear Modulus (GPa) = 123.25802 15.39205 69.32504
#
# Velocity S-wave (km/s) = 8.55630 3.02361 6.41687
# Velocity P-wave (km/s) = 11.12706 6.74183 9.19956
#
# Compressibility (1/GPa) = 0.02267211
#
# Stress axis : x y z
#
# Youngs Moduli (GPa) = 26.85368 32.26339 38.12120
#
# Poissons Ratio (x) = 0.24434 0.81091
# Poissons Ratio (y) = 0.20337 0.26882
# Poissons Ratio (z) = 0.57123 0.22752
#
# Static dielectric constant tensor:
#      x y z
#    x 1.564950 0.000000 0.000000 
#    y 0.000000 1.567890 0.000000 
#    z 0.000000 0.000000 1.555450 
# 
# From -- ./inp_files/43398.got.cif
#   From: 2010.05.17/outbox.cif.g08.bks.cpg/sg64_22_cif.got.tgz:43398.got - 2010.06.03 16:29:19.
