data_PCOD9478514
_publ_section_title
;
Structure prediction by ZEFSAII (Michael W. Deem and Ramdas Pophale) SiO2 
 PCOD9478514
Probable space group: C M C A
;
_chemical_formula_sum "Si O2"
_cell_formula_units_Z 96
_cell_length_a 15.275113
_cell_length_b 21.580806
_cell_length_c 14.289029
_cell_angle_alpha 90.000000
_cell_angle_beta 90.000000
_cell_angle_gamma 90.000000
_cell_volume 4710.367697
_symmetry_space_group_name_H-M "C M C A"
_symmetry_group_IT_number 64
_symmetry_cell_setting 'orthorhombic'
loop_
_space_group_symop_operation_xyz
x,y,z
-x,1/2-y,1/2+z
x,-y,-z
-x,1/2+y,1/2-z
-x,-y,-z
x,1/2+y,1/2-z
-x,y,z
x,1/2-y,1/2+z
1/2+x,1/2+y,z
1/2-x,-y,1/2+z
1/2+x,1/2-y,-z
1/2-x,y,1/2-z
1/2-x,1/2-y,-z
1/2+x,y,1/2-z
1/2-x,1/2+y,z
1/2+x,-y,1/2+z
loop_
_atom_site_type_symbol
_atom_site_label
_atom_site_fract_x
_atom_site_fract_y
_atom_site_fract_z
Si Si1 0.399753 0.828677 0.884612
Si Si2 0.773023 0.615873 0.449605
Si Si3 0.396326 0.779860 0.256712
Si Si4 0.312279 0.401725 0.163988
Si Si5 0.101434 0.234947 0.058539
Si Si6 0.406099 0.481807 0.890526
O O1 0.500000 0.851761 0.878629
O O2 0.323958 0.876039 0.909947
O O3 0.376133 0.789119 0.792833
O O4 0.396943 0.776578 0.966223
O O5 0.771351 0.597514 0.559746
O O6 0.829345 0.679527 0.446051
O O7 0.827358 0.566552 0.388661
O O8 0.500000 0.788914 0.270982
O O9 0.347948 0.833323 0.312953
O O10 0.377211 0.779076 0.146623
O O11 0.250000 0.417650 0.250000
O O12 0.386608 0.454272 0.161682
O O13 0.000000 0.212485 0.070342
O O14 0.500000 0.454894 0.862063
O O15 0.411391 0.500000 0.000000
#
# Coordination Sequence:
#
# PCOD9478514 Si02
#       6
#    16  16  16  16  16  16
#     4  10  21  36  54  84 125 160 194 244 303 361
#     4  11  21  37  62  85 119 160 207 251 300 359
#     4  10  21  35  55  86 121 157 195 242 303 364
#     4  11  22  36  60  88 119 155 203 251 305 362
#     4  10  20  34  56  91 126 158 197 244 306 369
#     4   9  20  39  63  87 112 150 198 253 306 352
#
# _framework density 20.380573999999999
#
# number of rings (size 3 to 8) (size 9 to 14) (size 15 to 20)
#    0.000    1.833    1.667    2.500    2.333    1.333 
#    3.000    0.833    0.000    5.500    0.000    0.000 
#    0.000    0.000    0.000    0.000    0.000    0.000 
#
# Total GULP energy -268024.590890 kJ/mol
# GULP energy per Si atom -5583.845644 kJ/mol
# Density = 2.033419 g / cm^3
# Si number density = 20.380574 Si / 1000 Ang^3
#
#
#
# Elastic Constant Matrix: (Units=GPa)
#
#
# Indices 1 2 3 4 5 6 
#
# 1 114.6546 43.4972 10.3485 0.0000 0.0000 0.0000
# 2 43.4972 44.9241 -3.1549 0.0000 0.0000 0.0000
# 3 10.3485 -3.1549 47.8420 0.0000 0.0000 0.0000
# 4 0.0000 0.0000 0.0000 15.6970 0.0000 0.0000
# 5 0.0000 0.0000 0.0000 0.0000 12.5984 0.0000
# 6 0.0000 0.0000 0.0000 0.0000 0.0000 26.8137
#
#
#
# Elastic Compliance Matrix: (Units=1/GPa)
#
#
# Indices 1 2 3 4 5 6 
#
# 1 0.014542 -0.014368 -0.004093 0.000000 0.000000 0.000000
# 2 -0.014368 0.036559 0.005519 0.000000 0.000000 0.000000
# 3 -0.004093 0.005519 0.022151 0.000000 0.000000 0.000000
# 4 0.000000 0.000000 0.000000 0.063706 0.000000 0.000000
# 5 0.000000 0.000000 0.000000 0.000000 0.079375 0.000000
# 6 0.000000 0.000000 0.000000 0.000000 0.000000 0.037294
#
#
# Mechanical properties :
#
#
# Convention : Reuss Voigt Hill
#
# Bulk Modulus (GPa) = 21.11124 34.31136 27.71130
# Shear Modulus (GPa) = 16.93188 21.47049 19.20118
#
# Velocity S-wave (km/s) = 2.88546 3.24925 3.07275
# Velocity P-wave (km/s) = 4.63489 5.56316 5.12010
#
# Compressibility (1/GPa) = 0.04736814
#
# Stress axis : x y z
#
# Youngs Moduli (GPa) = 68.76644 27.35339 45.14389
#
# Poissons Ratio (x) = 0.39300 0.18477
# Poissons Ratio (y) = 0.98800 -0.24913
# Poissons Ratio (z) = 0.28146 -0.15095
#
# Static dielectric constant tensor:
#      x y z
#    x 1.748210 0.000000 0.000000 
#    y 0.000000 1.717110 0.000000 
#    z 0.000000 0.000000 1.740820 
# 
# From -- ./inp_files/23875.got.cif
#   From: 2010.05.17/outbox.cif.g08.bks.cpg/sg64_12_cif.got.tgz:23875.got - 2010.06.03 16:29:19.
