data_PCOD9478872
_publ_section_title
;
Structure prediction by ZEFSAII (Michael W. Deem and Ramdas Pophale) SiO2 
 PCOD9478872
Probable space group: C M C A
;
_chemical_formula_sum "Si O2"
_cell_formula_units_Z 96
_cell_length_a 18.811115
_cell_length_b 28.164038
_cell_length_c 9.039119
_cell_angle_alpha 90.000000
_cell_angle_beta 90.000000
_cell_angle_gamma 90.000000
_cell_volume 4788.897746
_symmetry_space_group_name_H-M "C M C A"
_symmetry_group_IT_number 64
_symmetry_cell_setting 'orthorhombic'
loop_
_space_group_symop_operation_xyz
x,y,z
-x,1/2-y,1/2+z
x,-y,-z
-x,1/2+y,1/2-z
-x,-y,-z
x,1/2+y,1/2-z
-x,y,z
x,1/2-y,1/2+z
1/2+x,1/2+y,z
1/2-x,-y,1/2+z
1/2+x,1/2-y,-z
1/2-x,y,1/2-z
1/2-x,1/2-y,-z
1/2+x,y,1/2-z
1/2-x,1/2+y,z
1/2+x,-y,1/2+z
loop_
_atom_site_type_symbol
_atom_site_label
_atom_site_fract_x
_atom_site_fract_y
_atom_site_fract_z
Si Si1 0.418975 0.091041 0.270251
Si Si2 0.414592 0.698815 0.195549
Si Si3 0.650226 0.946724 0.457700
Si Si4 0.330094 0.123734 0.797118
Si Si5 0.413760 0.793670 0.358275
Si Si6 0.291585 0.089500 0.106926
O O1 0.500000 0.079623 0.234434
O O2 0.403205 0.146502 0.239873
O O3 0.403410 0.084684 0.443787
O O4 0.358301 0.062684 0.181816
O O5 0.500000 0.704416 0.856698
O O6 0.389833 0.742978 0.292732
O O7 0.387916 0.701265 0.027159
O O8 0.651886 0.925232 0.292602
O O9 0.729516 0.939589 0.524742
O O10 0.629329 0.000000 0.500000
O O11 0.250000 0.136848 0.750000
O O12 0.382953 0.164012 0.740360
O O13 0.325928 0.118614 0.972804
O O14 0.500000 0.703603 0.186110
O O15 0.250000 0.111638 0.250000
#
# Coordination Sequence:
#
# PCOD9478872 Si02
#       6
#    16  16  16  16  16  16
#     4  10  20  37  59  88 123 154 194 251 304 355
#     4   9  19  34  55  83 117 155 196 240 296 366
#     4  10  21  40  65  86 114 160 207 246 299 364
#     4  10  21  38  58  86 119 154 203 256 300 353
#     4  10  20  36  58  85 117 157 203 246 301 372
#     4   9  21  37  57  84 116 158 198 243 298 366
#
# _framework density 20.046367
#
# number of rings (size 3 to 8) (size 9 to 14) (size 15 to 20)
#    0.000    2.333    1.667    0.000    2.333    7.000 
#    0.000    3.333    0.000    3.500    0.000    0.000 
#    0.000    0.000    0.000    0.000    0.000    0.000 
#
# Total GULP energy -267235.642227 kJ/mol
# GULP energy per Si atom -5567.409213 kJ/mol
# Density = 2.000074 g / cm^3
# Si number density = 20.046367 Si / 1000 Ang^3
#
#
#
# Elastic Constant Matrix: (Units=GPa)
#
#
# Indices 1 2 3 4 5 6 
#
# 1 65.8480 -0.9203 16.8801 0.0000 0.0000 0.0000
# 2 -0.9203 76.0940 12.4908 0.0000 0.0000 0.0000
# 3 16.8801 12.4908 113.5545 0.0000 0.0000 0.0000
# 4 0.0000 0.0000 0.0000 16.9111 0.0000 0.0000
# 5 0.0000 0.0000 0.0000 0.0000 19.4277 0.0000
# 6 0.0000 0.0000 0.0000 0.0000 0.0000 18.4899
#
#
#
# Elastic Compliance Matrix: (Units=1/GPa)
#
#
# Indices 1 2 3 4 5 6 
#
# 1 0.015814 0.000588 -0.002415 0.000000 0.000000 0.000000
# 2 0.000588 0.013405 -0.001562 0.000000 0.000000 0.000000
# 3 -0.002415 -0.001562 0.009337 0.000000 0.000000 0.000000
# 4 0.000000 0.000000 0.000000 0.059133 0.000000 0.000000
# 5 0.000000 0.000000 0.000000 0.000000 0.051473 0.000000
# 6 0.000000 0.000000 0.000000 0.000000 0.000000 0.054084
#
#
# Mechanical properties :
#
#
# Convention : Reuss Voigt Hill
#
# Bulk Modulus (GPa) = 31.46920 34.71083 33.09002
# Shear Modulus (GPa) = 22.66370 26.10213 24.38291
#
# Velocity S-wave (km/s) = 3.36603 3.61236 3.49137
# Velocity P-wave (km/s) = 5.55330 5.89506 5.72673
#
# Compressibility (1/GPa) = 0.03177710
#
# Stress axis : x y z
#
# Youngs Moduli (GPa) = 63.23554 74.59826 107.09839
#
# Poissons Ratio (x) = -0.04385 0.25869
# Poissons Ratio (y) = -0.03717 0.16728
# Poissons Ratio (z) = 0.15274 0.11652
#
# Static dielectric constant tensor:
#      x y z
#    x 1.723110 0.000000 0.000000 
#    y 0.000000 1.757200 0.000000 
#    z 0.000000 0.000000 1.765850 
# 
# From -- ./inp_files/8389.got.cif
#   From: 2010.05.17/outbox.cif.g08.bks.cpg/sg64_5_cif.got.tgz:8389.got - 2010.06.03 16:29:19.
