data_PCOD9478011
_publ_section_title
;
Structure prediction by ZEFSAII (Michael W. Deem and Ramdas Pophale) SiO2 
 PCOD9478011
Probable space group: C M C A
;
_chemical_formula_sum "Si O2"
_cell_formula_units_Z 48
_cell_length_a 14.628855
_cell_length_b 18.627925
_cell_length_c 8.435496
_cell_angle_alpha 90.000000
_cell_angle_beta 90.000000
_cell_angle_gamma 90.000000
_cell_volume 2298.716641
_symmetry_space_group_name_H-M "C M C A"
_symmetry_group_IT_number 64
_symmetry_cell_setting 'orthorhombic'
loop_
_space_group_symop_operation_xyz
x,y,z
-x,1/2-y,1/2+z
x,-y,-z
-x,1/2+y,1/2-z
-x,-y,-z
x,1/2+y,1/2-z
-x,y,z
x,1/2-y,1/2+z
1/2+x,1/2+y,z
1/2-x,-y,1/2+z
1/2+x,1/2-y,-z
1/2-x,y,1/2-z
1/2-x,1/2-y,-z
1/2+x,y,1/2-z
1/2-x,1/2+y,z
1/2+x,-y,1/2+z
loop_
_atom_site_type_symbol
_atom_site_label
_atom_site_fract_x
_atom_site_fract_y
_atom_site_fract_z
Si Si1 0.398099 0.651778 0.398433
Si Si2 0.227881 0.575860 0.566240
Si Si3 0.154759 0.286970 0.555448
O O1 0.500000 0.620091 0.375609
O O2 0.319812 0.599506 0.468802
O O3 0.360891 0.685823 0.233621
O O4 0.407644 0.719974 0.514867
O O5 0.195544 0.500000 0.500000
O O6 0.250000 0.569808 0.750000
O O7 0.154613 0.639571 0.543562
O O8 0.250000 0.250000 0.500000
#
# Coordination Sequence:
#
# PCOD9478011 Si02
#       3
#    16  16  16
#     4  11  22  37  60  89 120 150 188 243 296 340
#     4  11  22  39  61  83 113 154 198 239 283 347
#     4  10  19  36  59  84 114 152 195 233 278 342
#
# _framework density 20.881215999999998
#
# number of rings (size 3 to 8) (size 9 to 14) (size 15 to 20)
#    0.000    1.333    0.000   11.000    0.000    0.667 
#    0.000    1.667    0.000    7.000    0.000    0.000 
#    0.000    0.000    0.000    0.000    0.000    0.000 
#
# Total GULP energy -133705.090505 kJ/mol
# GULP energy per Si atom -5571.045438 kJ/mol
# Density = 2.083369 g / cm^3
# Si number density = 20.881216 Si / 1000 Ang^3
#
#
#
# Elastic Constant Matrix: (Units=GPa)
#
#
# Indices 1 2 3 4 5 6 
#
# 1 72.6793 -36.8562 -37.9860 0.0000 0.0000 0.0000
# 2 -36.8562 95.5901 -16.4487 0.0000 0.0000 0.0000
# 3 -37.9860 -16.4487 98.8479 0.0000 0.0000 0.0000
# 4 0.0000 0.0000 0.0000 36.2498 0.0000 0.0000
# 5 0.0000 0.0000 0.0000 0.0000 59.5648 0.0000
# 6 0.0000 0.0000 0.0000 0.0000 0.0000 -0.0552
#
#
#
# Elastic Compliance Matrix: (Units=1/GPa)
#
#
# Indices 1 2 3 4 5 6 
#
# 1 0.026313 0.012236 0.012148 0.000000 0.000000 0.000000
# 2 0.012236 0.016459 0.007441 0.000000 0.000000 0.000000
# 3 0.012148 0.007441 0.016023 0.000000 0.000000 0.000000
# 4 0.000000 0.000000 0.000000 0.027586 0.000000 0.000000
# 5 0.000000 0.000000 0.000000 0.000000 0.016788 0.000000
# 6 0.000000 0.000000 0.000000 0.000000 0.000000-18.114422
#
#
# Mechanical properties :
#
#
# Convention : Reuss Voigt Hill
#
# Bulk Modulus (GPa) = 8.16699 9.39284 8.77992
# Shear Modulus (GPa) = -0.27725 43.04576 21.38425
#
# Velocity S-wave (km/s) = -0.36478 4.54525 3.20361
# Velocity P-wave (km/s) = 1.93449 5.66161 4.23060
#
# Compressibility (1/GPa) = 0.12244415
#
# Stress axis : x y z
#
# Youngs Moduli (GPa) = 38.00410 60.75560 62.41034
#
# Poissons Ratio (x) = -0.74339 -0.75815
# Poissons Ratio (y) = -0.46501 -0.46439
# Poissons Ratio (z) = -0.46167 -0.45208
#
# Static dielectric constant tensor:
#      x y z
#    x 1.929230 0.000000 0.000000 
#    y 0.000000 1.754160 0.000000 
#    z 0.000000 0.000000 1.781350 
# 
# From -- ./inp_files/5008.got.cif
#   From: 2010.05.17/outbox.cif.g08.bks.cpg/sg64_3_cif.got.tgz:5008.got - 2010.06.03 16:29:19.
