data_PCOD9478157
_publ_section_title
;
Structure prediction by ZEFSAII (Michael W. Deem and Ramdas Pophale) SiO2 
 PCOD9478157
Probable space group: C M C A
;
_chemical_formula_sum "Si O2"
_cell_formula_units_Z 116
_cell_length_a 15.619428
_cell_length_b 17.770231
_cell_length_c 16.133001
_cell_angle_alpha 90.000000
_cell_angle_beta 90.000000
_cell_angle_gamma 90.000000
_cell_volume 4477.889368
_symmetry_space_group_name_H-M "C M C A"
_symmetry_group_IT_number 64
_symmetry_cell_setting 'orthorhombic'
loop_
_space_group_symop_operation_xyz
x,y,z
-x,1/2-y,1/2+z
x,-y,-z
-x,1/2+y,1/2-z
-x,-y,-z
x,1/2+y,1/2-z
-x,y,z
x,1/2-y,1/2+z
1/2+x,1/2+y,z
1/2-x,-y,1/2+z
1/2+x,1/2-y,-z
1/2-x,y,1/2-z
1/2-x,1/2-y,-z
1/2+x,y,1/2-z
1/2-x,1/2+y,z
1/2+x,-y,1/2+z
loop_
_atom_site_type_symbol
_atom_site_label
_atom_site_fract_x
_atom_site_fract_y
_atom_site_fract_z
Si Si1 0.500000 0.500000 0.000000
Si Si2 0.097457 0.421113 0.126187
Si Si3 0.361534 0.906000 0.591424
Si Si4 0.097863 0.797682 0.480710
Si Si5 0.600680 0.330030 0.747254
Si Si6 0.832343 0.581632 0.098466
Si Si7 0.103656 0.307016 0.377394
Si Si8 0.339713 0.949832 0.296861
O O1 0.573936 0.564772 0.022014
O O2 0.148374 0.493500 0.094256
O O3 0.095798 0.428285 0.224290
O O4 0.000000 0.426459 0.096026
O O5 0.134330 0.340270 0.098970
O O6 0.367325 0.976486 0.655333
O O7 0.382023 0.836629 0.654097
O O8 0.262697 0.901689 0.567260
O O9 0.102883 0.867349 0.546273
O O10 0.133641 0.730023 0.535578
O O11 0.000000 0.776662 0.462485
O O12 0.500000 0.347900 0.736279
O O13 0.655492 0.389570 0.692929
O O14 0.616877 0.251726 0.699005
O O15 0.156808 0.380739 0.358969
O O16 0.000000 0.319453 0.380857
O O17 0.250000 0.957812 0.250000
#
# Coordination Sequence:
#
# PCOD9478157 Si02
#       8
#     4  16  16  16  16  16  16  16
#     4  12  32  44  64  88 126 198 216 266 324 408
#     4  11  21  35  62  96 126 160 206 268 335 393
#     4  12  25  44  62  90 130 169 227 265 323 390
#     4   9  20  38  60  97 133 162 207 264 339 398
#     4  10  19  39  65  97 129 163 216 270 329 395
#     4  11  20  34  65  97 126 162 203 275 334 382
#     4   9  21  39  64  89 128 173 209 257 326 395
#     4  12  24  41  64  96 128 173 222 274 326 385
#
# _framework density 25.905062000000001
#
# number of rings (size 3 to 8) (size 9 to 14) (size 15 to 20)
#    0.000    1.379    3.448    3.310    3.862    3.310 
#    0.000    2.069    3.034    0.000    0.000    0.000 
#    0.000    0.000    0.000    0.000    0.000    0.000 
#
# Total GULP energy -324078.118738 kJ/mol
# GULP energy per Si atom -5587.553771 kJ/mol
# Density = 2.584610 g / cm^3
# Si number density = 25.905062 Si / 1000 Ang^3
#
#
#
# Elastic Constant Matrix: (Units=GPa)
#
#
# Indices 1 2 3 4 5 6 
#
# 1 93.7539 -0.4652 21.8355 0.0000 0.0000 0.0000
# 2 -0.4652 87.6616 12.2872 0.0000 0.0000 0.0000
# 3 21.8355 12.2872 69.2064 0.0000 0.0000 0.0000
# 4 0.0000 0.0000 0.0000 41.7180 0.0000 0.0000
# 5 0.0000 0.0000 0.0000 0.0000 19.0355 0.0000
# 6 0.0000 0.0000 0.0000 0.0000 0.0000 45.5146
#
#
#
# Elastic Compliance Matrix: (Units=1/GPa)
#
#
# Indices 1 2 3 4 5 6 
#
# 1 0.011541 0.000586 -0.003746 0.000000 0.000000 0.000000
# 2 0.000586 0.011728 -0.002267 0.000000 0.000000 0.000000
# 3 -0.003746 -0.002267 0.016034 0.000000 0.000000 0.000000
# 4 0.000000 0.000000 0.000000 0.023970 0.000000 0.000000
# 5 0.000000 0.000000 0.000000 0.000000 0.052533 0.000000
# 6 0.000000 0.000000 0.000000 0.000000 0.000000 0.021971
#
#
# Mechanical properties :
#
#
# Convention : Reuss Voigt Hill
#
# Bulk Modulus (GPa) = 35.14873 35.32633 35.23753
# Shear Modulus (GPa) = 31.62249 35.71791 33.67020
#
# Velocity S-wave (km/s) = 3.49765 3.71725 3.60912
# Velocity P-wave (km/s) = 5.46893 5.66484 5.56774
#
# Compressibility (1/GPa) = 0.02845053
#
# Stress axis : x y z
#
# Youngs Moduli (GPa) = 86.64395 85.26300 62.36809
#
# Poissons Ratio (x) = -0.04999 0.23360
# Poissons Ratio (y) = -0.05079 0.14141
# Poissons Ratio (z) = 0.32453 0.19332
#
# Static dielectric constant tensor:
#      x y z
#    x 2.015120 0.000000 0.000000 
#    y 0.000000 2.075830 0.000000 
#    z 0.000000 0.000000 2.174790 
# 
# From -- ./inp_files/33475.got.cif
#   From: 2010.05.17/outbox.cif.g08.bks.cpg/sg64_17_cif.got.tgz:33475.got - 2010.06.03 16:29:19.
