data_PCOD9478363
_publ_section_title
;
Structure prediction by ZEFSAII (Michael W. Deem and Ramdas Pophale) SiO2 
 PCOD9478363
Probable space group: C M C A
;
_chemical_formula_sum "Si O2"
_cell_formula_units_Z 116
_cell_length_a 7.737318
_cell_length_b 24.859867
_cell_length_c 27.891007
_cell_angle_alpha 90.000000
_cell_angle_beta 90.000000
_cell_angle_gamma 90.000000
_cell_volume 5364.798838
_symmetry_space_group_name_H-M "C M C A"
_symmetry_group_IT_number 64
_symmetry_cell_setting 'orthorhombic'
loop_
_space_group_symop_operation_xyz
x,y,z
-x,1/2-y,1/2+z
x,-y,-z
-x,1/2+y,1/2-z
-x,-y,-z
x,1/2+y,1/2-z
-x,y,z
x,1/2-y,1/2+z
1/2+x,1/2+y,z
1/2-x,-y,1/2+z
1/2+x,1/2-y,-z
1/2-x,y,1/2-z
1/2-x,1/2-y,-z
1/2+x,y,1/2-z
1/2-x,1/2+y,z
1/2+x,-y,1/2+z
loop_
_atom_site_type_symbol
_atom_site_label
_atom_site_fract_x
_atom_site_fract_y
_atom_site_fract_z
Si Si1 0.702636 0.424124 0.017716
Si Si2 0.792739 0.361078 0.304305
Si Si3 0.200615 0.697842 0.968859
Si Si4 0.204177 0.549241 0.624416
Si Si5 0.207963 0.663687 0.196501
Si Si6 0.294085 0.958241 0.803496
Si Si7 0.709343 0.761221 0.363230
Si Si8 0.500000 0.000000 0.000000
O O1 0.500000 0.438700 0.009597
O O2 0.710055 0.358919 0.018211
O O3 0.769352 0.443151 0.070764
O O4 0.844055 0.455173 0.986108
O O5 0.750000 0.372799 0.250000
O O6 0.720984 0.405272 0.340672
O O7 0.734823 0.302952 0.322176
O O8 0.000000 0.362050 0.308219
O O9 0.232661 0.715365 0.913940
O O10 0.000000 0.687283 0.976121
O O11 0.250000 0.750000 0.000000
O O12 0.229173 0.494185 0.652854
O O13 0.000000 0.558754 0.619445
O O14 0.250000 0.684412 0.250000
O O15 0.275110 0.602718 0.193496
O O16 0.270298 0.702902 0.154434
O O17 0.000000 0.661470 0.193269
O O18 0.500000 0.957079 0.806585
O O19 0.250000 0.979543 0.750000
O O20 0.500000 0.759974 0.365067
#
# Coordination Sequence:
#
# PCOD9478363 Si02
#       8
#    16  16  16  16  16  16  16   4
#     4  11  24  48  74 103 142 179 227 297 359 427
#     4  10  20  33  54  87 124 162 208 258 319 395
#     4  12  25  45  72 101 133 177 231 288 360 436
#     4  10  21  38  61  88 124 169 213 268 337 393
#     4   9  19  35  56  83 121 168 214 266 323 388
#     4  10  20  34  54  82 121 169 220 269 322 393
#     4  10  20  39  61  87 124 166 212 270 338 398
#     4  12  26  48  76 110 136 180 234 274 364 438
#
# _framework density 21.622430999999999
#
# number of rings (size 3 to 8) (size 9 to 14) (size 15 to 20)
#    0.000    1.655    2.069    2.690    0.966    3.310 
#    2.483    0.000    0.000    0.000    0.000    0.000 
#    0.000    0.000    0.000    0.000    0.000    0.000 
#
# Total GULP energy -323328.038842 kJ/mol
# GULP energy per Si atom -5574.621359 kJ/mol
# Density = 2.157322 g / cm^3
# Si number density = 21.622431 Si / 1000 Ang^3
#
#
#
# Elastic Constant Matrix: (Units=GPa)
#
#
# Indices 1 2 3 4 5 6 
#
# 1 74.0935 10.7125 1.6490 0.0000 0.0000 0.0000
# 2 10.7125 116.2801 28.9429 0.0000 0.0000 0.0000
# 3 1.6490 28.9429 42.0404 0.0000 0.0000 0.0000
# 4 0.0000 0.0000 0.0000-1189.6944 0.0000 0.0000
# 5 0.0000 0.0000 0.0000 0.0000 18.2835 0.0000
# 6 0.0000 0.0000 0.0000 0.0000 0.0000 25.3958
#
#
#
# Elastic Compliance Matrix: (Units=1/GPa)
#
#
# Indices 1 2 3 4 5 6 
#
# 1 0.013684 -0.001360 0.000400 0.000000 0.000000 0.000000
# 2 -0.001360 0.010514 -0.007185 0.000000 0.000000 0.000000
# 3 0.000400 -0.007185 0.028717 0.000000 0.000000 0.000000
# 4 0.000000 0.000000 0.000000 -0.000841 0.000000 0.000000
# 5 0.000000 0.000000 0.000000 0.000000 0.054694 0.000000
# 6 0.000000 0.000000 0.000000 0.000000 0.000000 0.039377
#
#
# Mechanical properties :
#
#
# Convention : Reuss Voigt Hill
#
# Bulk Modulus (GPa) = 27.30406 35.00253 31.15330
# Shear Modulus (GPa) = 28.62967 -216.46238 -93.91636
#
# Velocity S-wave (km/s) = 3.64273 -10.01636 -6.59765
# Velocity P-wave (km/s) = 5.50887 10.84190 6.60299
#
# Compressibility (1/GPa) = 0.03662459
#
# Stress axis : x y z
#
# Youngs Moduli (GPa) = 73.07690 95.11529 34.82220
#
# Poissons Ratio (x) = 0.12937 -0.01392
# Poissons Ratio (y) = 0.09940 0.25019
# Poissons Ratio (z) = -0.02921 0.68338
#
# Static dielectric constant tensor:
#      x y z
#    x 1.808140 0.000000 0.000000 
#    y 0.000000 1.889380 0.000000 
#    z 0.000000 0.000000 1.957080 
# 
# From -- ./inp_files/43393.got.cif
#   From: 2010.05.17/outbox.cif.g08.bks.cpg/sg64_22_cif.got.tgz:43393.got - 2010.06.03 16:29:19.
