data_PCOD9478624
_publ_section_title
;
Structure prediction by ZEFSAII (Michael W. Deem and Ramdas Pophale) SiO2 
 PCOD9478624
Probable space group: C M C A
;
_chemical_formula_sum "Si O2"
_cell_formula_units_Z 80
_cell_length_a 8.972599
_cell_length_b 18.454450
_cell_length_c 26.688314
_cell_angle_alpha 90.000000
_cell_angle_beta 90.000000
_cell_angle_gamma 90.000000
_cell_volume 4419.167917
_symmetry_space_group_name_H-M "C M C A"
_symmetry_group_IT_number 64
_symmetry_cell_setting 'orthorhombic'
loop_
_space_group_symop_operation_xyz
x,y,z
-x,1/2-y,1/2+z
x,-y,-z
-x,1/2+y,1/2-z
-x,-y,-z
x,1/2+y,1/2-z
-x,y,z
x,1/2-y,1/2+z
1/2+x,1/2+y,z
1/2-x,-y,1/2+z
1/2+x,1/2-y,-z
1/2-x,y,1/2-z
1/2-x,1/2-y,-z
1/2+x,y,1/2-z
1/2-x,1/2+y,z
1/2+x,-y,1/2+z
loop_
_atom_site_type_symbol
_atom_site_label
_atom_site_fract_x
_atom_site_fract_y
_atom_site_fract_z
Si Si1 0.828447 0.087972 0.495478
Si Si2 0.825736 0.665893 0.697592
Si Si3 0.679427 0.417520 0.393777
Si Si4 0.677262 0.422973 0.893986
Si Si5 0.325851 0.159694 0.197629
O O1 0.782243 0.113513 0.550844
O O2 0.728168 0.107425 0.448181
O O3 0.000000 0.109000 0.485675
O O4 0.826083 0.000000 0.500000
O O5 0.750000 0.643655 0.750000
O O6 0.741136 0.630761 0.650989
O O7 0.816216 0.753089 0.694373
O O8 0.000000 0.645481 0.697179
O O9 0.500000 0.423872 0.391991
O O10 0.751415 0.497028 0.389571
O O11 0.500000 0.427414 0.891412
O O12 0.742268 0.375417 0.849085
O O13 0.500000 0.139268 0.197298
O O14 0.250000 0.137474 0.250000
#
# Coordination Sequence:
#
# PCOD9478624 Si02
#       5
#    16  16  16  16  16
#     4   8  16  32  52  75 105 140 173 211 262 310
#     4  10  21  37  57  79 105 138 175 216 263 315
#     4  10  20  35  56  80 108 140 175 216 261 310
#     4  11  21  33  54  82 109 138 176 218 259 309
#     4  10  21  38  57  77 105 139 175 216 264 315
#
# _framework density 18.102955000000001
#
# number of rings (size 3 to 8) (size 9 to 14) (size 15 to 20)
#    0.000    2.200    0.000    4.800    0.000    7.600 
#    0.000    5.000    0.000    0.000    0.000    0.000 
#    0.000    0.000    0.000    0.000    0.000    0.000 
#
# Total GULP energy -223242.571393 kJ/mol
# GULP energy per Si atom -5581.064285 kJ/mol
# Density = 1.806175 g / cm^3
# Si number density = 18.102955 Si / 1000 Ang^3
#
#
#
# Elastic Constant Matrix: (Units=GPa)
#
#
# Indices 1 2 3 4 5 6 
#
# 1 149.4845 35.0522 107.2392 0.0000 0.0000 0.0000
# 2 35.0522 13.5324 42.1370 0.0000 0.0000 0.0000
# 3 107.2392 42.1370 200.4423 0.0000 0.0000 0.0000
# 4 0.0000 0.0000 0.0000 54.2858 0.0000 0.0000
# 5 0.0000 0.0000 0.0000 0.0000 38.0132 0.0000
# 6 0.0000 0.0000 0.0000 0.0000 0.0000 24.4751
#
#
#
# Elastic Compliance Matrix: (Units=1/GPa)
#
#
# Indices 1 2 3 4 5 6 
#
# 1 0.017054 -0.045635 0.000469 0.000000 0.000000 0.000000
# 2 -0.045635 0.336052 -0.046230 0.000000 0.000000 0.000000
# 3 0.000469 -0.046230 0.014456 0.000000 0.000000 0.000000
# 4 0.000000 0.000000 0.000000 0.018421 0.000000 0.000000
# 5 0.000000 0.000000 0.000000 0.000000 0.026307 0.000000
# 6 0.000000 0.000000 0.000000 0.000000 0.000000 0.040858
#
#
# Mechanical properties :
#
#
# Convention : Reuss Voigt Hill
#
# Bulk Modulus (GPa) = 5.41208 81.36843 43.39026
# Shear Modulus (GPa) = 7.16816 35.29021 21.22919
#
# Velocity S-wave (km/s) = 1.99205 4.42001 3.42817
# Velocity P-wave (km/s) = 2.87874 8.43172 6.30004
#
# Compressibility (1/GPa) = 0.18477180
#
# Stress axis : x y z
#
# Youngs Moduli (GPa) = 58.63828 2.97573 69.17458
#
# Poissons Ratio (x) = 0.13580 -0.03248
# Poissons Ratio (y) = 2.67597 3.19791
# Poissons Ratio (z) = -0.02753 0.13757
#
# Static dielectric constant tensor:
#      x y z
#    x 1.603210 0.000000 0.000000 
#    y 0.000000 1.602730 0.000000 
#    z 0.000000 0.000000 1.624670 
# 
# From -- ./inp_files/47802.got.cif
#   From: 2010.05.17/outbox.cif.g08.bks.cpg/sg64_24_cif.got.tgz:47802.got - 2010.06.03 16:29:19.
