data_PCOD9478574
_publ_section_title
;
Structure prediction by ZEFSAII (Michael W. Deem and Ramdas Pophale) SiO2 
 PCOD9478574
Probable space group: C M C A
;
_chemical_formula_sum "Si O2"
_cell_formula_units_Z 104
_cell_length_a 15.477332
_cell_length_b 19.736092
_cell_length_c 17.191026
_cell_angle_alpha 90.000000
_cell_angle_beta 90.000000
_cell_angle_gamma 90.000000
_cell_volume 5251.206014
_symmetry_space_group_name_H-M "C M C A"
_symmetry_group_IT_number 64
_symmetry_cell_setting 'orthorhombic'
loop_
_space_group_symop_operation_xyz
x,y,z
-x,1/2-y,1/2+z
x,-y,-z
-x,1/2+y,1/2-z
-x,-y,-z
x,1/2+y,1/2-z
-x,y,z
x,1/2-y,1/2+z
1/2+x,1/2+y,z
1/2-x,-y,1/2+z
1/2+x,1/2-y,-z
1/2-x,y,1/2-z
1/2-x,1/2-y,-z
1/2+x,y,1/2-z
1/2-x,1/2+y,z
1/2+x,-y,1/2+z
loop_
_atom_site_type_symbol
_atom_site_label
_atom_site_fract_x
_atom_site_fract_y
_atom_site_fract_z
Si Si1 0.777038 0.000000 0.500000
Si Si2 0.311843 0.496381 0.172181
Si Si3 0.895380 0.859021 0.797774
Si Si4 0.401457 0.221286 0.860108
Si Si5 0.602092 0.628121 0.507210
Si Si6 0.156505 0.651355 0.709601
Si Si7 0.602055 0.719031 0.357096
O O1 0.727784 0.005676 0.584093
O O2 0.839590 0.063982 0.492437
O O3 0.250000 0.497356 0.250000
O O4 0.362337 0.567252 0.180116
O O5 0.362814 0.424898 0.182940
O O6 0.863701 0.796490 0.851720
O O7 0.869448 0.832165 0.711937
O O8 0.000000 0.859738 0.799607
O O9 0.500000 0.230848 0.887533
O O10 0.361780 0.167815 0.918325
O O11 0.402083 0.184222 0.777029
O O12 0.500000 0.609692 0.517447
O O13 0.609407 0.679681 0.436630
O O14 0.250000 0.650836 0.750000
O O15 0.151394 0.709676 0.644864
O O16 0.500000 0.732894 0.345116
#
# Coordination Sequence:
#
# PCOD9478574 Si02
#       7
#     8  16  16  16  16  16  16
#     4  12  25  40  55  84 118 146 186 230 275 336
#     4  11  24  40  56  82 118 153 186 230 278 329
#     4   9  19  37  58  80 109 148 189 228 275 329
#     4   9  19  36  58  83 108 138 183 232 276 328
#     4  10  20  36  59  83 109 141 178 230 286 333
#     4  10  20  35  53  78 111 147 183 221 269 328
#     4   9  19  35  57  84 108 137 185 234 275 328
#
# _framework density 19.804974000000001
#
# number of rings (size 3 to 8) (size 9 to 14) (size 15 to 20)
#    0.000    2.154    0.000    4.385    0.000    7.385 
#    0.000    6.538    0.000    0.000    0.000    0.000 
#    0.000    0.000    0.000    0.000    0.000    0.000 
#
# Total GULP energy -289682.740691 kJ/mol
# GULP energy per Si atom -5570.821936 kJ/mol
# Density = 1.975990 g / cm^3
# Si number density = 19.804974 Si / 1000 Ang^3
#
#
#
# Elastic Constant Matrix: (Units=GPa)
#
#
# Indices 1 2 3 4 5 6 
#
# 1 22.2135 37.2710 9.0934 0.0000 0.0000 0.0000
# 2 37.2710 197.8499 41.2466 0.0000 0.0000 0.0000
# 3 9.0934 41.2466 77.3025 0.0000 0.0000 0.0000
# 4 0.0000 0.0000 0.0000 22.2032 0.0000 0.0000
# 5 0.0000 0.0000 0.0000 0.0000 25.4821 0.0000
# 6 0.0000 0.0000 0.0000 0.0000 0.0000 30.1365
#
#
#
# Elastic Compliance Matrix: (Units=1/GPa)
#
#
# Indices 1 2 3 4 5 6 
#
# 1 0.065933 -0.012156 -0.001270 0.000000 0.000000 0.000000
# 2 -0.012156 0.007928 -0.002800 0.000000 0.000000 0.000000
# 3 -0.001270 -0.002800 0.014580 0.000000 0.000000 0.000000
# 4 0.000000 0.000000 0.000000 0.045039 0.000000 0.000000
# 5 0.000000 0.000000 0.000000 0.000000 0.039243 0.000000
# 6 0.000000 0.000000 0.000000 0.000000 0.000000 0.033182
#
#
# Mechanical properties :
#
#
# Convention : Reuss Voigt Hill
#
# Bulk Modulus (GPa) = 17.86071 52.50979 35.18525
# Shear Modulus (GPa) = 19.45374 29.54799 24.50086
#
# Velocity S-wave (km/s) = 3.13751 3.86676 3.52107
# Velocity P-wave (km/s) = 4.70778 6.81959 5.85961
#
# Compressibility (1/GPa) = 0.05598881
#
# Stress axis : x y z
#
# Youngs Moduli (GPa) = 15.16691 126.13501 68.58835
#
# Poissons Ratio (x) = 1.53326 0.08711
# Poissons Ratio (y) = 0.18436 0.19206
# Poissons Ratio (z) = 0.01926 0.35321
#
# Static dielectric constant tensor:
#      x y z
#    x 1.742960 0.000000 0.000000 
#    y 0.000000 1.689510 0.000000 
#    z 0.000000 0.000000 1.742000 
# 
# From -- ./inp_files/33403.got.cif
#   From: 2010.05.17/outbox.cif.g08.bks.cpg/sg64_17_cif.got.tgz:33403.got - 2010.06.03 16:29:19.
