data_PCOD9478239
_publ_section_title
;
Structure prediction by ZEFSAII (Michael W. Deem and Ramdas Pophale) SiO2 
 PCOD9478239
Probable space group: C M C A
;
_chemical_formula_sum "Si O2"
_cell_formula_units_Z 96
_cell_length_a 7.367954
_cell_length_b 20.201132
_cell_length_c 24.768503
_cell_angle_alpha 90.000000
_cell_angle_beta 90.000000
_cell_angle_gamma 90.000000
_cell_volume 3686.569035
_symmetry_space_group_name_H-M "C M C A"
_symmetry_group_IT_number 64
_symmetry_cell_setting 'orthorhombic'
loop_
_space_group_symop_operation_xyz
x,y,z
-x,1/2-y,1/2+z
x,-y,-z
-x,1/2+y,1/2-z
-x,-y,-z
x,1/2+y,1/2-z
-x,y,z
x,1/2-y,1/2+z
1/2+x,1/2+y,z
1/2-x,-y,1/2+z
1/2+x,1/2-y,-z
1/2-x,y,1/2-z
1/2-x,1/2-y,-z
1/2+x,y,1/2-z
1/2-x,1/2+y,z
1/2+x,-y,1/2+z
loop_
_atom_site_type_symbol
_atom_site_label
_atom_site_fract_x
_atom_site_fract_y
_atom_site_fract_z
Si Si1 0.706847 0.616948 0.570747
Si Si2 0.220854 0.548684 0.158419
Si Si3 0.718846 0.739098 0.420570
Si Si4 0.283759 0.907171 0.190347
Si Si5 0.721118 0.409018 0.542685
Si Si6 0.784621 0.192871 0.309194
O O1 0.500000 0.592163 0.575515
O O2 0.703973 0.694516 0.554221
O O3 0.787344 0.616291 0.631270
O O4 0.786019 0.579560 0.518466
O O5 0.280424 0.483683 0.189515
O O6 0.275086 0.548476 0.095074
O O7 0.284647 0.617740 0.183944
O O8 0.000000 0.549165 0.159467
O O9 0.500000 0.743925 0.424394
O O10 0.770808 0.666727 0.441782
O O11 0.782047 0.737165 0.358103
O O12 0.500000 0.904101 0.185948
O O13 0.250000 0.878071 0.250000
O O14 0.500000 0.412125 0.541031
O O15 0.750000 0.218356 0.250000
O O16 0.000000 0.188994 0.316874
#
# Coordination Sequence:
#
# PCOD9478239 Si02
#       6
#    16  16  16  16  16  16
#     4  10  20  32  49  74  99 125 160 197 232 279
#     4   8  15  30  51  73  96 121 153 197 246 288
#     4   9  18  32  49  69  96 130 160 191 240 290
#     4  10  21  35  51  72  98 130 164 195 232 280
#     4   8  15  30  52  76  98 119 152 201 247 283
#     4   9  17  29  47  70  93 121 159 200 241 283
#
# _framework density 26.040474
#
# number of rings (size 3 to 8) (size 9 to 14) (size 15 to 20)
#    0.000    3.000    0.000    3.000    0.000    2.667 
#    0.000    6.667    0.000    3.000    0.000    2.333 
#    0.000    0.000    0.000    0.000    0.000    0.000 
#
# Total GULP energy -268029.647887 kJ/mol
# GULP energy per Si atom -5583.950998 kJ/mol
# Density = 2.598120 g / cm^3
# Si number density = 26.040474 Si / 1000 Ang^3
#
#
#
# Elastic Constant Matrix: (Units=GPa)
#
#
# Indices 1 2 3 4 5 6 
#
# 1 94.4486 -8.8852 0.2391 0.0000 0.0000 0.0000
# 2 -8.8852 67.1156 13.5288 0.0000 0.0000 0.0000
# 3 0.2391 13.5288 216.0846 0.0000 0.0000 0.0000
# 4 0.0000 0.0000 0.0000 20.5635 0.0000 0.0000
# 5 0.0000 0.0000 0.0000 0.0000 3.6081 0.0000
# 6 0.0000 0.0000 0.0000 0.0000 0.0000 1.3450
#
#
#
# Elastic Compliance Matrix: (Units=1/GPa)
#
#
# Indices 1 2 3 4 5 6 
#
# 1 0.010724 0.001440 -0.000102 0.000000 0.000000 0.000000
# 2 0.001440 0.015284 -0.000958 0.000000 0.000000 0.000000
# 3 -0.000102 -0.000958 0.004688 0.000000 0.000000 0.000000
# 4 0.000000 0.000000 0.000000 0.048630 0.000000 0.000000
# 5 0.000000 0.000000 0.000000 0.000000 0.277154 0.000000
# 6 0.000000 0.000000 0.000000 0.000000 0.000000 0.743472
#
#
# Mechanical properties :
#
#
# Convention : Reuss Voigt Hill
#
# Bulk Modulus (GPa) = 31.79205 43.04601 37.41903
# Shear Modulus (GPa) = 4.50582 29.95441 17.23011
#
# Velocity S-wave (km/s) = 1.31684 3.39529 2.57508
# Velocity P-wave (km/s) = 3.81409 5.65128 4.82101
#
# Compressibility (1/GPa) = 0.03145440
#
# Stress axis : x y z
#
# Youngs Moduli (GPa) = 93.25306 65.42985 213.31333
#
# Poissons Ratio (x) = -0.09423 0.02177
# Poissons Ratio (y) = -0.13430 0.20446
# Poissons Ratio (z) = 0.00952 0.06271
#
# Static dielectric constant tensor:
#      x y z
#    x 2.072760 0.000000 0.000000 
#    y 0.000000 2.005850 0.000000 
#    z 0.000000 0.000000 2.134680 
# 
# From -- ./inp_files/38278.got.cif
#   From: 2010.05.17/outbox.cif.g08.bks.cpg/sg64_20_cif.got.tgz:38278.got - 2010.06.03 16:29:19.
