data_PCOD9478453
_publ_section_title
;
Structure prediction by ZEFSAII (Michael W. Deem and Ramdas Pophale) SiO2 
 PCOD9478453
Probable space group: C M C A
;
_chemical_formula_sum "Si O2"
_cell_formula_units_Z 64
_cell_length_a 13.678019
_cell_length_b 23.103426
_cell_length_c 8.370002
_cell_angle_alpha 90.000000
_cell_angle_beta 90.000000
_cell_angle_gamma 90.000000
_cell_volume 2644.996797
_symmetry_space_group_name_H-M "C M C A"
_symmetry_group_IT_number 64
_symmetry_cell_setting 'orthorhombic'
loop_
_space_group_symop_operation_xyz
x,y,z
-x,1/2-y,1/2+z
x,-y,-z
-x,1/2+y,1/2-z
-x,-y,-z
x,1/2+y,1/2-z
-x,y,z
x,1/2-y,1/2+z
1/2+x,1/2+y,z
1/2-x,-y,1/2+z
1/2+x,1/2-y,-z
1/2-x,y,1/2-z
1/2-x,1/2-y,-z
1/2+x,y,1/2-z
1/2-x,1/2+y,z
1/2+x,-y,1/2+z
loop_
_atom_site_type_symbol
_atom_site_label
_atom_site_fract_x
_atom_site_fract_y
_atom_site_fract_z
Si Si1 0.886052 0.121657 0.323332
Si Si2 0.382292 0.767400 0.632283
Si Si3 0.704936 0.931407 0.508677
Si Si4 0.117565 0.838157 0.184309
O O1 0.860792 0.187998 0.276876
O O2 0.811099 0.094305 0.447526
O O3 0.865143 0.087583 0.156892
O O4 0.000000 0.118440 0.368005
O O5 0.500000 0.764739 0.627069
O O6 0.354739 0.799038 0.470153
O O7 0.350773 0.702164 0.668611
O O8 0.662306 0.900240 0.352447
O O9 0.708701 0.000000 0.500000
O O10 0.000000 0.843934 0.188841
#
# Coordination Sequence:
#
# PCOD9478453 Si02
#       4
#    16  16  16  16
#     4   9  19  36  55  75 106 143 176 224 282 325
#     4   8  15  30  52  78 106 139 178 218 271 326
#     4  10  20  34  54  80 107 142 187 222 263 330
#     4   9  17  31  53  81 112 142 178 228 275 323
#
# _framework density 24.196626999999999
#
# number of rings (size 3 to 8) (size 9 to 14) (size 15 to 20)
#    0.000    3.000    0.000    2.250    0.000    3.500 
#    0.000    5.000    0.000    3.000    0.000    0.000 
#    0.000    0.000    0.000    0.000    0.000    0.000 
#
# Total GULP energy -179103.510373 kJ/mol
# GULP energy per Si atom -5596.984699 kJ/mol
# Density = 2.414155 g / cm^3
# Si number density = 24.196627 Si / 1000 Ang^3
#
#
#
# Elastic Constant Matrix: (Units=GPa)
#
#
# Indices 1 2 3 4 5 6 
#
# 1 160.5520 48.6387 29.7410 0.0000 0.0000 0.0000
# 2 48.6387 196.8798 34.0918 0.0000 0.0000 0.0000
# 3 29.7410 34.0918 50.7725 0.0000 0.0000 0.0000
# 4 0.0000 0.0000 0.0000 17.5109 0.0000 0.0000
# 5 0.0000 0.0000 0.0000 0.0000 34.5532 0.0000
# 6 0.0000 0.0000 0.0000 0.0000 0.0000 24.0632
#
#
#
# Elastic Compliance Matrix: (Units=1/GPa)
#
#
# Indices 1 2 3 4 5 6 
#
# 1 0.007225 -0.001191 -0.003433 0.000000 0.000000 0.000000
# 2 -0.001191 0.005944 -0.003294 0.000000 0.000000 0.000000
# 3 -0.003433 -0.003294 0.023918 0.000000 0.000000 0.000000
# 4 0.000000 0.000000 0.000000 0.057107 0.000000 0.000000
# 5 0.000000 0.000000 0.000000 0.000000 0.028941 0.000000
# 6 0.000000 0.000000 0.000000 0.000000 0.000000 0.041557
#
#
# Mechanical properties :
#
#
# Convention : Reuss Voigt Hill
#
# Bulk Modulus (GPa) = 47.05235 70.34970 58.70103
# Shear Modulus (GPa) = 26.65095 34.94098 30.79597
#
# Velocity S-wave (km/s) = 3.32238 3.80418 3.57142
# Velocity P-wave (km/s) = 5.84856 6.95938 6.42801
#
# Compressibility (1/GPa) = 0.02125292
#
# Stress axis : x y z
#
# Youngs Moduli (GPa) = 138.40674 168.24626 41.80941
#
# Poissons Ratio (x) = 0.20030 0.14353
# Poissons Ratio (y) = 0.16477 0.13770
# Poissons Ratio (z) = 0.47513 0.55413
#
# Static dielectric constant tensor:
#      x y z
#    x 1.925140 0.000000 0.000000 
#    y 0.000000 1.882780 0.000000 
#    z 0.000000 0.000000 2.025100 
# 
# From -- ./inp_files/5574.got.cif
#   From: 2010.05.17/outbox.cif.g08.bks.cpg/sg64_3_cif.got.tgz:5574.got - 2010.06.03 16:29:19.
