data_PCOD9478352
_publ_section_title
;
Structure prediction by ZEFSAII (Michael W. Deem and Ramdas Pophale) SiO2 
 PCOD9478352
Probable space group: C M C A
;
_chemical_formula_sum "Si O2"
_cell_formula_units_Z 68
_cell_length_a 7.714742
_cell_length_b 14.297994
_cell_length_c 26.482521
_cell_angle_alpha 90.000000
_cell_angle_beta 90.000000
_cell_angle_gamma 90.000000
_cell_volume 2921.163346
_symmetry_space_group_name_H-M "C M C A"
_symmetry_group_IT_number 64
_symmetry_cell_setting 'orthorhombic'
loop_
_space_group_symop_operation_xyz
x,y,z
-x,1/2-y,1/2+z
x,-y,-z
-x,1/2+y,1/2-z
-x,-y,-z
x,1/2+y,1/2-z
-x,y,z
x,1/2-y,1/2+z
1/2+x,1/2+y,z
1/2-x,-y,1/2+z
1/2+x,1/2-y,-z
1/2-x,y,1/2-z
1/2-x,1/2-y,-z
1/2+x,y,1/2-z
1/2-x,1/2+y,z
1/2+x,-y,1/2+z
loop_
_atom_site_type_symbol
_atom_site_label
_atom_site_fract_x
_atom_site_fract_y
_atom_site_fract_z
Si Si1 0.199522 0.631758 0.973085
Si Si2 0.000000 0.000000 0.000000
Si Si3 0.787813 0.506207 0.384466
Si Si4 0.796202 0.715860 0.396971
Si Si5 0.204154 0.355203 0.308128
O O1 0.346368 0.581594 0.005994
O O2 0.199499 0.560824 0.924913
O O3 0.266920 0.727387 0.946263
O O4 0.000000 0.636599 0.991195
O O5 0.727307 0.612289 0.387522
O O6 0.752334 0.457466 0.330758
O O7 0.000000 0.499942 0.395692
O O8 0.775120 0.778211 0.346775
O O9 0.000000 0.707998 0.404861
O O10 0.250000 0.343620 0.250000
O O11 0.000000 0.346494 0.312739
#
# Coordination Sequence:
#
# PCOD9478352 Si02
#       5
#    16   4  16  16  16
#     4  10  21  38  62  86 113 154 191 236 290 354
#     4  12  22  40  64  82 124 142 194 240 308 330
#     4   9  18  37  60  82 113 154 188 237 290 342
#     4   9  19  36  60  83 112 150 193 233 288 345
#     4  10  20  33  53  81 116 151 193 237 285 330
#
# _framework density 23.278397999999999
#
# number of rings (size 3 to 8) (size 9 to 14) (size 15 to 20)
#    0.000    2.353    1.176    1.059    1.647    2.824 
#    0.000    3.529    0.000    0.000    0.000    0.000 
#    0.000    0.000    0.000    0.000    0.000    0.000 
#
# Total GULP energy -189591.254210 kJ/mol
# GULP energy per Si atom -5576.213359 kJ/mol
# Density = 2.322542 g / cm^3
# Si number density = 23.278398 Si / 1000 Ang^3
#
#
#
# Elastic Constant Matrix: (Units=GPa)
#
#
# Indices 1 2 3 4 5 6 
#
# 1 86.2013 34.1105 33.5242 0.0000 0.0000 0.0000
# 2 34.1105 159.8882 39.3291 0.0000 0.0000 0.0000
# 3 33.5242 39.3291 123.6504 0.0000 0.0000 0.0000
# 4 0.0000 0.0000 0.0000 26.1919 0.0000 0.0000
# 5 0.0000 0.0000 0.0000 0.0000 30.8011 0.0000
# 6 0.0000 0.0000 0.0000 0.0000 0.0000 28.9505
#
#
#
# Elastic Compliance Matrix: (Units=1/GPa)
#
#
# Indices 1 2 3 4 5 6 
#
# 1 0.013627 -0.002168 -0.003005 0.000000 0.000000 0.000000
# 2 -0.002168 0.007130 -0.001680 0.000000 0.000000 0.000000
# 3 -0.003005 -0.001680 0.009436 0.000000 0.000000 0.000000
# 4 0.000000 0.000000 0.000000 0.038180 0.000000 0.000000
# 5 0.000000 0.000000 0.000000 0.000000 0.032466 0.000000
# 6 0.000000 0.000000 0.000000 0.000000 0.000000 0.034542
#
#
# Mechanical properties :
#
#
# Convention : Reuss Voigt Hill
#
# Bulk Modulus (GPa) = 60.65182 64.85194 62.75188
# Shear Modulus (GPa) = 32.34487 34.70711 33.52599
#
# Velocity S-wave (km/s) = 3.73162 3.86548 3.79914
# Velocity P-wave (km/s) = 6.68417 6.91682 6.80149
#
# Compressibility (1/GPa) = 0.01648755
#
# Stress axis : x y z
#
# Youngs Moduli (GPa) = 73.38172 140.24919 105.97234
#
# Poissons Ratio (x) = 0.30407 0.31845
# Poissons Ratio (y) = 0.15910 0.17804
# Poissons Ratio (z) = 0.22052 0.23563
#
# Static dielectric constant tensor:
#      x y z
#    x 1.863610 0.000000 0.000000 
#    y 0.000000 1.974980 0.000000 
#    z 0.000000 0.000000 2.011000 
# 
# From -- ./inp_files/47549.got.cif
#   From: 2010.05.17/outbox.cif.g08.bks.cpg/sg64_24_cif.got.tgz:47549.got - 2010.06.03 16:29:19.
