data_PCOD9478641
_publ_section_title
;
Structure prediction by ZEFSAII (Michael W. Deem and Ramdas Pophale) SiO2 
 PCOD9478641
Probable space group: C M C A
;
_chemical_formula_sum "Si O2"
_cell_formula_units_Z 96
_cell_length_a 8.770063
_cell_length_b 30.648886
_cell_length_c 19.735858
_cell_angle_alpha 90.000000
_cell_angle_beta 90.000000
_cell_angle_gamma 90.000000
_cell_volume 5304.853791
_symmetry_space_group_name_H-M "C M C A"
_symmetry_group_IT_number 64
_symmetry_cell_setting 'orthorhombic'
loop_
_space_group_symop_operation_xyz
x,y,z
-x,1/2-y,1/2+z
x,-y,-z
-x,1/2+y,1/2-z
-x,-y,-z
x,1/2+y,1/2-z
-x,y,z
x,1/2-y,1/2+z
1/2+x,1/2+y,z
1/2-x,-y,1/2+z
1/2+x,1/2-y,-z
1/2-x,y,1/2-z
1/2-x,1/2-y,-z
1/2+x,y,1/2-z
1/2-x,1/2+y,z
1/2+x,-y,1/2+z
loop_
_atom_site_type_symbol
_atom_site_label
_atom_site_fract_x
_atom_site_fract_y
_atom_site_fract_z
Si Si1 0.183613 0.315773 0.676722
Si Si2 0.183021 0.052448 0.825212
Si Si3 0.816466 0.361349 0.410215
Si Si4 0.317415 0.215322 0.823707
Si Si5 0.815458 0.114664 0.063423
Si Si6 0.817342 0.981171 0.574291
O O1 0.250000 0.327661 0.750000
O O2 0.228273 0.265558 0.661966
O O3 0.231205 0.349212 0.618432
O O4 0.000000 0.316789 0.680667
O O5 0.250000 0.052349 0.750000
O O6 0.226559 0.096992 0.864331
O O7 0.000000 0.050349 0.822501
O O8 0.245637 0.012221 0.868967
O O9 0.743742 0.318169 0.379006
O O10 0.771373 0.370664 0.487650
O O11 0.000000 0.357217 0.408116
O O12 0.500000 0.213146 0.820483
O O13 0.250000 0.203614 0.750000
O O14 0.744177 0.067848 0.079251
O O15 0.000000 0.110828 0.064768
O O16 0.000000 0.981740 0.580120
O O17 0.775552 0.000000 0.500000
#
# Coordination Sequence:
#
# PCOD9478641 Si02
#       6
#    16  16  16  16  16  16
#     4   9  20  38  59  83 113 150 192 237 282 338
#     4  11  23  39  60  86 116 152 194 238 288 342
#     4  10  21  36  57  85 115 151 191 234 286 345
#     4  10  20  35  56  82 114 152 191 234 286 337
#     4  10  21  39  61  84 114 153 193 234 288 346
#     4  11  23  39  60  86 116 150 191 237 287 343
#
# _framework density 18.096634000000002
#
# number of rings (size 3 to 8) (size 9 to 14) (size 15 to 20)
#    0.000    1.833    1.667    2.000    0.000    6.667 
#    0.000    1.667    0.000    0.000    0.000    0.000 
#    0.000    0.000    0.000    0.000    0.000    0.000 
#
# Total GULP energy -268168.033237 kJ/mol
# GULP energy per Si atom -5586.834026 kJ/mol
# Density = 1.805545 g / cm^3
# Si number density = 18.096634 Si / 1000 Ang^3
#
#
#
# Elastic Constant Matrix: (Units=GPa)
#
#
# Indices 1 2 3 4 5 6 
#
# 1 28.9158 43.3133 49.7798 0.0000 0.0000 0.0000
# 2 43.3133 144.1930 116.0507 0.0000 0.0000 0.0000
# 3 49.7798 116.0507 183.6188 0.0000 0.0000 0.0000
# 4 0.0000 0.0000 0.0000 39.7602 0.0000 0.0000
# 5 0.0000 0.0000 0.0000 0.0000 26.5816 0.0000
# 6 0.0000 0.0000 0.0000 0.0000 0.0000 29.2281
#
#
#
# Elastic Compliance Matrix: (Units=1/GPa)
#
#
# Indices 1 2 3 4 5 6 
#
# 1 0.074417 -0.012449 -0.012307 0.000000 0.000000 0.000000
# 2 -0.012449 0.016197 -0.006862 0.000000 0.000000 0.000000
# 3 -0.012307 -0.006862 0.013120 0.000000 0.000000 0.000000
# 4 0.000000 0.000000 0.000000 0.025151 0.000000 0.000000
# 5 0.000000 0.000000 0.000000 0.000000 0.037620 0.000000
# 6 0.000000 0.000000 0.000000 0.000000 0.000000 0.034214
#
#
# Mechanical properties :
#
#
# Convention : Reuss Voigt Hill
#
# Bulk Modulus (GPa) = 24.69230 86.11280 55.40255
# Shear Modulus (GPa) = 18.02100 28.95290 23.48695
#
# Velocity S-wave (km/s) = 3.15909 4.00422 3.60649
# Velocity P-wave (km/s) = 5.19430 8.31064 6.92991
#
# Compressibility (1/GPa) = 0.04049846
#
# Stress axis : x y z
#
# Youngs Moduli (GPa) = 13.43774 61.73803 76.22205
#
# Poissons Ratio (x) = 0.76857 0.93806
# Poissons Ratio (y) = 0.16728 0.52305
# Poissons Ratio (z) = 0.16538 0.42366
#
# Static dielectric constant tensor:
#      x y z
#    x 1.608780 0.000000 0.000000 
#    y 0.000000 1.597260 0.000000 
#    z 0.000000 0.000000 1.591740 
# 
# From -- ./inp_files/37100.got.cif
#   From: 2010.05.17/outbox.cif.g08.bks.cpg/sg64_19_cif.got.tgz:37100.got - 2010.06.03 16:29:19.
