data_PCOD9478972
_publ_section_title
;
Structure prediction by ZEFSAII (Michael W. Deem and Ramdas Pophale) SiO2 
 PCOD9478972
Probable space group: C M C A
;
_chemical_formula_sum "Si O2"
_cell_formula_units_Z 64
_cell_length_a 18.403493
_cell_length_b 11.581754
_cell_length_c 17.588713
_cell_angle_alpha 90.000000
_cell_angle_beta 90.000000
_cell_angle_gamma 90.000000
_cell_volume 3748.941460
_symmetry_space_group_name_H-M "C M C A"
_symmetry_group_IT_number 64
_symmetry_cell_setting 'orthorhombic'
loop_
_space_group_symop_operation_xyz
x,y,z
-x,1/2-y,1/2+z
x,-y,-z
-x,1/2+y,1/2-z
-x,-y,-z
x,1/2+y,1/2-z
-x,y,z
x,1/2-y,1/2+z
1/2+x,1/2+y,z
1/2-x,-y,1/2+z
1/2+x,1/2-y,-z
1/2-x,y,1/2-z
1/2-x,1/2-y,-z
1/2+x,y,1/2-z
1/2-x,1/2+y,z
1/2+x,-y,1/2+z
loop_
_atom_site_type_symbol
_atom_site_label
_atom_site_fract_x
_atom_site_fract_y
_atom_site_fract_z
Si Si1 0.884901 0.826927 0.042765
Si Si2 0.760285 0.000000 0.000000
Si Si3 0.000000 0.550509 0.650312
Si Si4 0.000000 0.694769 0.410094
Si Si5 0.620419 0.058276 0.077795
Si Si6 0.000000 0.939160 0.327106
O O1 0.810802 0.892132 0.021750
O O2 0.880169 0.696231 0.072409
O O3 0.930945 0.900911 0.103560
O O4 0.931368 0.819250 0.965613
O O5 0.704895 0.022083 0.070202
O O6 0.000000 0.412308 0.646655
O O7 0.000000 0.584640 0.737779
O O8 0.000000 0.817506 0.370415
O O9 0.571218 0.010123 0.145407
O O10 0.588839 0.000000 0.000000
#
# Coordination Sequence:
#
# PCOD9478972 Si02
#       6
#    16   8   8   8  16   8
#     4  11  19  40  60  88 111 147 209 235 285 339
#     4  10  20  36  62  90 110 146 200 240 286 338
#     4  11  25  34  62  85 120 157 178 257 289 345
#     4  11  19  37  63  80 113 155 190 254 267 349
#     4  10  22  35  62  85 113 155 186 248 280 344
#     4  12  23  40  53  91 122 149 201 227 317 336
#
# _framework density 17.071484999999999
#
# number of rings (size 3 to 8) (size 9 to 14) (size 15 to 20)
#    0.750    0.500    5.000    3.375    3.500    0.000 
#    0.000    1.250    0.000    3.000    0.000    0.000 
#    0.000    0.000    0.000    0.000    0.000    0.000 
#
# Total GULP energy -178360.564752 kJ/mol
# GULP energy per Si atom -5573.767649 kJ/mol
# Density = 1.703263 g / cm^3
# Si number density = 17.071485 Si / 1000 Ang^3
#
#
#
# Elastic Constant Matrix: (Units=GPa)
#
#
# Indices 1 2 3 4 5 6 
#
# 1 122.5427 50.0680 36.0557 0.0000 0.0000 0.0000
# 2 50.0680 134.1598 24.5258 0.0000 0.0000 0.0000
# 3 36.0557 24.5258 85.4315 0.0000 0.0000 0.0000
# 4 0.0000 0.0000 0.0000 16.9898 0.0000 0.0000
# 5 0.0000 0.0000 0.0000 0.0000 24.7669 0.0000
# 6 0.0000 0.0000 0.0000 0.0000 0.0000 8.1407
#
#
#
# Elastic Compliance Matrix: (Units=1/GPa)
#
#
# Indices 1 2 3 4 5 6 
#
# 1 0.010536 -0.003292 -0.003501 0.000000 0.000000 0.000000
# 2 -0.003292 0.008895 -0.001164 0.000000 0.000000 0.000000
# 3 -0.003501 -0.001164 0.013517 0.000000 0.000000 0.000000
# 4 0.000000 0.000000 0.000000 0.058859 0.000000 0.000000
# 5 0.000000 0.000000 0.000000 0.000000 0.040377 0.000000
# 6 0.000000 0.000000 0.000000 0.000000 0.000000 0.122839
#
#
# Mechanical properties :
#
#
# Convention : Reuss Voigt Hill
#
# Bulk Modulus (GPa) = 58.70998 62.60365 60.65682
# Shear Modulus (GPa) = 18.07564 25.41178 21.74371
#
# Velocity S-wave (km/s) = 3.25748 3.86236 3.57275
# Velocity P-wave (km/s) = 6.97234 7.52606 7.25448
#
# Compressibility (1/GPa) = 0.01703288
#
# Stress axis : x y z
#
# Youngs Moduli (GPa) = 94.91642 112.42108 73.97916
#
# Poissons Ratio (x) = 0.37006 0.25904
# Poissons Ratio (y) = 0.31244 0.08614
# Poissons Ratio (z) = 0.33235 0.13090
#
# Static dielectric constant tensor:
#      x y z
#    x 1.587680 0.000000 0.000000 
#    y 0.000000 1.597110 0.000000 
#    z 0.000000 0.000000 1.549120 
# 
# From -- ./inp_files/24957.got.cif
#   From: 2010.05.17/outbox.cif.g08.bks.cpg/sg64_13_cif.got.tgz:24957.got - 2010.06.03 16:29:19.
