data_PCOD9478655
_publ_section_title
;
Structure prediction by ZEFSAII (Michael W. Deem and Ramdas Pophale) SiO2 
 PCOD9478655
Probable space group: C M C A
;
_chemical_formula_sum "Si O2"
_cell_formula_units_Z 104
_cell_length_a 17.940374
_cell_length_b 24.031161
_cell_length_c 13.624018
_cell_angle_alpha 90.000000
_cell_angle_beta 90.000000
_cell_angle_gamma 90.000000
_cell_volume 5873.695850
_symmetry_space_group_name_H-M "C M C A"
_symmetry_group_IT_number 64
_symmetry_cell_setting 'orthorhombic'
loop_
_space_group_symop_operation_xyz
x,y,z
-x,1/2-y,1/2+z
x,-y,-z
-x,1/2+y,1/2-z
-x,-y,-z
x,1/2+y,1/2-z
-x,y,z
x,1/2-y,1/2+z
1/2+x,1/2+y,z
1/2-x,-y,1/2+z
1/2+x,1/2-y,-z
1/2-x,y,1/2-z
1/2-x,1/2-y,-z
1/2+x,y,1/2-z
1/2-x,1/2+y,z
1/2+x,-y,1/2+z
loop_
_atom_site_type_symbol
_atom_site_label
_atom_site_fract_x
_atom_site_fract_y
_atom_site_fract_z
Si Si1 0.706482 0.212767 0.352994
Si Si2 0.220094 0.077717 0.859334
Si Si3 0.912731 0.099993 0.429306
Si Si4 0.915182 0.997380 0.117940
Si Si5 0.182764 0.500000 0.000000
Si Si6 0.301159 0.175889 0.960223
Si Si7 0.911752 0.619011 0.301188
O O1 0.750000 0.215944 0.250000
O O2 0.678843 0.273133 0.389155
O O3 0.764165 0.195645 0.438198
O O4 0.641310 0.166766 0.344486
O O5 0.250000 0.078662 0.750000
O O6 0.239535 0.136677 0.908277
O O7 0.136622 0.054373 0.855262
O O8 0.265262 0.033638 0.925547
O O9 0.872862 0.140653 0.506776
O O10 0.904400 0.119978 0.316900
O O11 0.000000 0.093703 0.449511
O O12 0.869190 0.042246 0.440821
O O13 0.889082 0.057383 0.159831
O O14 0.000000 0.989856 0.152916
O O15 0.915292 0.000000 0.000000
O O16 0.000000 0.626335 0.325570
#
# Coordination Sequence:
#
# PCOD9478655 Si02
#       7
#    16  16  16  16   8  16  16
#     4  11  21  38  62  81 112 146 192 242 286 333
#     4  11  21  36  56  83 120 149 192 239 281 345
#     4  10  20  37  56  83 118 149 190 237 285 348
#     4  10  20  35  56  86 121 151 187 238 288 346
#     4  10  21  34  55  88 114 158 192 226 295 344
#     4  10  23  38  56  87 108 150 195 235 291 343
#     4  10  21  35  58  87 113 150 194 231 287 348
#
# _framework density 17.706057999999999
#
# number of rings (size 3 to 8) (size 9 to 14) (size 15 to 20)
#    0.000    1.692    2.308    2.538    2.154    1.231 
#    0.000    3.077    0.000    3.692    0.000    0.000 
#    0.000    0.000    0.000    0.000    0.000    0.000 
#
# Total GULP energy -290163.851961 kJ/mol
# GULP energy per Si atom -5580.074076 kJ/mol
# Density = 1.766576 g / cm^3
# Si number density = 17.706058 Si / 1000 Ang^3
#
#
#
# Elastic Constant Matrix: (Units=GPa)
#
#
# Indices 1 2 3 4 5 6 
#
# 1 62.1488 30.3826 7.9778 0.0000 0.0000 0.0000
# 2 30.3826 76.1136 19.4363 0.0000 0.0000 0.0000
# 3 7.9778 19.4363 77.9032 0.0000 0.0000 0.0000
# 4 0.0000 0.0000 0.0000 28.3358 0.0000 0.0000
# 5 0.0000 0.0000 0.0000 0.0000 12.1417 0.0000
# 6 0.0000 0.0000 0.0000 0.0000 0.0000 13.3079
#
#
#
# Elastic Compliance Matrix: (Units=1/GPa)
#
#
# Indices 1 2 3 4 5 6 
#
# 1 0.019992 -0.007965 -0.000060 0.000000 0.000000 0.000000
# 2 -0.007965 0.017206 -0.003477 0.000000 0.000000 0.000000
# 3 -0.000060 -0.003477 0.013710 0.000000 0.000000 0.000000
# 4 0.000000 0.000000 0.000000 0.035291 0.000000 0.000000
# 5 0.000000 0.000000 0.000000 0.000000 0.082361 0.000000
# 6 0.000000 0.000000 0.000000 0.000000 0.000000 0.075144
#
#
# Mechanical properties :
#
#
# Convention : Reuss Voigt Hill
#
# Bulk Modulus (GPa) = 35.83782 36.86211 36.34997
# Shear Modulus (GPa) = 18.11540 21.31500 19.71520
#
# Velocity S-wave (km/s) = 3.20209 3.47338 3.34049
# Velocity P-wave (km/s) = 5.82714 6.07865 5.95422
#
# Compressibility (1/GPa) = 0.02790349
#
# Stress axis : x y z
#
# Youngs Moduli (GPa) = 50.02019 58.12093 72.93900
#
# Poissons Ratio (x) = 0.46293 0.00439
# Poissons Ratio (y) = 0.39841 0.25361
# Poissons Ratio (z) = 0.00301 0.20209
#
# Static dielectric constant tensor:
#      x y z
#    x 1.598810 0.000000 0.000000 
#    y 0.000000 1.634400 0.000000 
#    z 0.000000 0.000000 1.584170 
# 
# From -- ./inp_files/16408.got.cif
#   From: 2010.05.17/outbox.cif.g08.bks.cpg/sg64_9_cif.got.tgz:16408.got - 2010.06.03 16:29:19.
