data_PCOD9478210
_publ_section_title
;
Structure prediction by ZEFSAII (Michael W. Deem and Ramdas Pophale) SiO2 
 PCOD9478210
Probable space group: C M C A
;
_chemical_formula_sum "Si O2"
_cell_formula_units_Z 104
_cell_length_a 31.543779
_cell_length_b 18.956007
_cell_length_c 8.427700
_cell_angle_alpha 90.000000
_cell_angle_beta 90.000000
_cell_angle_gamma 90.000000
_cell_volume 5039.293454
_symmetry_space_group_name_H-M "C M C A"
_symmetry_group_IT_number 64
_symmetry_cell_setting 'orthorhombic'
loop_
_space_group_symop_operation_xyz
x,y,z
-x,1/2-y,1/2+z
x,-y,-z
-x,1/2+y,1/2-z
-x,-y,-z
x,1/2+y,1/2-z
-x,y,z
x,1/2-y,1/2+z
1/2+x,1/2+y,z
1/2-x,-y,1/2+z
1/2+x,1/2-y,-z
1/2-x,y,1/2-z
1/2-x,1/2-y,-z
1/2+x,y,1/2-z
1/2-x,1/2+y,z
1/2+x,-y,1/2+z
loop_
_atom_site_type_symbol
_atom_site_label
_atom_site_fract_x
_atom_site_fract_y
_atom_site_fract_z
Si Si1 0.500000 0.036465 0.269212
Si Si2 0.500000 0.875273 0.225611
Si Si3 0.500000 0.681290 0.394517
Si Si4 0.408584 0.102603 0.800138
Si Si5 0.281094 0.713790 0.125629
Si Si6 0.340364 0.801227 0.354462
Si Si7 0.406868 0.674278 0.356413
Si Si8 0.407374 0.040963 0.345578
O O1 0.500000 0.959852 0.190302
O O2 0.457926 0.048614 0.369935
O O3 0.500000 0.097863 0.141425
O O4 0.451846 0.872417 0.290990
O O5 0.500000 0.817994 0.084498
O O6 0.454425 0.705447 0.328356
O O7 0.368542 0.137261 0.716371
O O8 0.404254 0.018517 0.790791
O O9 0.410892 0.131330 0.978774
O O10 0.250000 0.674307 0.250000
O O11 0.306325 0.772410 0.227099
O O12 0.250000 0.750000 0.000000
O O13 0.315982 0.677191 0.014793
O O14 0.372382 0.735187 0.379179
O O15 0.394220 0.617511 0.220328
O O16 0.389628 0.000000 0.500000
#
# Coordination Sequence:
#
# PCOD9478210 Si02
#       8
#     8   8   8  16  16  16  16  16
#     4   8  14  28  44  66  97 146 203 244 259 306
#     4   8  15  28  46  69 106 156 198 224 266 315
#     4   8  15  28  46  69 106 156 198 224 266 315
#     4  10  20  34  52  78 114 155 193 233 271 325
#     4   9  20  38  60  86 110 132 172 224 283 347
#     4  11  20  35  60  87 114 137 181 234 287 335
#     4  10  20  34  52  78 114 155 193 233 271 325
#     4  10  20  31  50  75 109 150 196 235 278 316
#
# _framework density 20.637815
#
# number of rings (size 3 to 8) (size 9 to 14) (size 15 to 20)
#    0.000    2.462    1.538    0.923    2.154    4.308 
#    0.000    0.000    0.000    0.000    0.000   16.154 
#    0.000    0.000    0.000    0.000    0.000    0.000 
#
# Total GULP energy -289505.857959 kJ/mol
# GULP energy per Si atom -5567.420345 kJ/mol
# Density = 2.059084 g / cm^3
# Si number density = 20.637815 Si / 1000 Ang^3
#
#
#
# Elastic Constant Matrix: (Units=GPa)
#
#
# Indices 1 2 3 4 5 6 
#
# 1 116.4487 18.7372 34.2427 0.0000 0.0000 0.0000
# 2 18.7372 56.5773 5.3372 0.0000 0.0000 0.0000
# 3 34.2427 5.3372 80.2423 0.0000 0.0000 0.0000
# 4 0.0000 0.0000 0.0000 20.6346 0.0000 0.0000
# 5 0.0000 0.0000 0.0000 0.0000 16.7870 0.0000
# 6 0.0000 0.0000 0.0000 0.0000 0.0000 10.1427
#
#
#
# Elastic Compliance Matrix: (Units=1/GPa)
#
#
# Indices 1 2 3 4 5 6 
#
# 1 0.010307 -0.003018 -0.004198 0.000000 0.000000 0.000000
# 2 -0.003018 0.018670 0.000046 0.000000 0.000000 0.000000
# 3 -0.004198 0.000046 0.014251 0.000000 0.000000 0.000000
# 4 0.000000 0.000000 0.000000 0.048462 0.000000 0.000000
# 5 0.000000 0.000000 0.000000 0.000000 0.059570 0.000000
# 6 0.000000 0.000000 0.000000 0.000000 0.000000 0.098593
#
#
# Mechanical properties :
#
#
# Convention : Reuss Voigt Hill
#
# Bulk Modulus (GPa) = 34.61538 41.10028 37.85783
# Shear Modulus (GPa) = 18.26001 22.50960 20.38481
#
# Velocity S-wave (km/s) = 2.97776 3.30615 3.14624
# Velocity P-wave (km/s) = 5.35088 5.87643 5.61980
#
# Compressibility (1/GPa) = 0.02888890
#
# Stress axis : x y z
#
# Youngs Moduli (GPa) = 97.01728 53.56192 70.17241
#
# Poissons Ratio (x) = 0.16163 0.29458
# Poissons Ratio (y) = 0.29276 -0.00322
# Poissons Ratio (z) = 0.40727 -0.00246
#
# Static dielectric constant tensor:
#      x y z
#    x 1.789390 0.000000 0.000000 
#    y 0.000000 1.723430 0.000000 
#    z 0.000000 0.000000 1.850080 
# 
# From -- ./inp_files/10480.got.cif
#   From: 2010.05.17/outbox.cif.g08.bks.cpg/sg64_6_cif.got.tgz:10480.got - 2010.06.03 16:29:19.
