data_PCOD9478340
_publ_section_title
;
Structure prediction by ZEFSAII (Michael W. Deem and Ramdas Pophale) SiO2 
 PCOD9478340
Probable space group: C M C A
;
_chemical_formula_sum "Si O2"
_cell_formula_units_Z 96
_cell_length_a 22.371614
_cell_length_b 20.075065
_cell_length_c 9.390313
_cell_angle_alpha 90.000000
_cell_angle_beta 90.000000
_cell_angle_gamma 90.000000
_cell_volume 4217.298545
_symmetry_space_group_name_H-M "C M C A"
_symmetry_group_IT_number 64
_symmetry_cell_setting 'orthorhombic'
loop_
_space_group_symop_operation_xyz
x,y,z
-x,1/2-y,1/2+z
x,-y,-z
-x,1/2+y,1/2-z
-x,-y,-z
x,1/2+y,1/2-z
-x,y,z
x,1/2-y,1/2+z
1/2+x,1/2+y,z
1/2-x,-y,1/2+z
1/2+x,1/2-y,-z
1/2-x,y,1/2-z
1/2-x,1/2-y,-z
1/2+x,y,1/2-z
1/2-x,1/2+y,z
1/2+x,-y,1/2+z
loop_
_atom_site_type_symbol
_atom_site_label
_atom_site_fract_x
_atom_site_fract_y
_atom_site_fract_z
Si Si1 0.565910 0.776300 0.580438
Si Si2 0.691363 0.119823 0.161838
Si Si3 0.306913 0.599986 0.676709
Si Si4 0.354754 0.771780 0.309884
Si Si5 0.934636 0.598850 0.212122
Si Si6 0.934776 0.070346 0.589105
O O1 0.500000 0.761080 0.524020
O O2 0.591049 0.725273 0.696364
O O3 0.615845 0.783808 0.461660
O O4 0.562145 0.843485 0.672594
O O5 0.750000 0.104968 0.250000
O O6 0.674433 0.198167 0.186671
O O7 0.634664 0.076757 0.219244
O O8 0.701854 0.107740 0.993660
O O9 0.250000 0.564325 0.750000
O O10 0.311652 0.670204 0.759493
O O11 0.375586 0.573346 0.682933
O O12 0.000000 0.563577 0.228005
O O13 0.933377 0.621563 0.045323
O O14 0.000000 0.078053 0.658125
O O15 0.933300 0.000000 0.500000
#
# Coordination Sequence:
#
# PCOD9478340 Si02
#       6
#    16  16  16  16  16  16
#     4  10  20  33  52  82 121 160 195 241 289 341
#     4  10  21  36  55  80 116 166 199 223 276 349
#     4  11  24  37  58  90 123 153 196 249 298 355
#     4  11  21  35  52  80 120 164 203 233 279 353
#     4   8  17  34  56  82 108 140 191 243 284 338
#     4   9  19  41  69  89 109 148 204 255 306 365
#
# _framework density 22.763387000000002
#
# number of rings (size 3 to 8) (size 9 to 14) (size 15 to 20)
#    0.000    2.167    1.667    1.000    4.667    3.333 
#    0.000    3.333    0.000    0.000    0.000    4.667 
#    0.000    0.000    0.000    0.000    0.000    0.000 
#
# Total GULP energy -267335.621607 kJ/mol
# GULP energy per Si atom -5569.492117 kJ/mol
# Density = 2.271158 g / cm^3
# Si number density = 22.763387 Si / 1000 Ang^3
#
#
#
# Elastic Constant Matrix: (Units=GPa)
#
#
# Indices 1 2 3 4 5 6 
#
# 1 249.6802 29.6212 54.7927 0.0000 0.0000 0.0000
# 2 29.6212 58.0449 25.3595 0.0000 0.0000 0.0000
# 3 54.7927 25.3595 76.6403 0.0000 0.0000 0.0000
# 4 0.0000 0.0000 0.0000 14.5478 0.0000 0.0000
# 5 0.0000 0.0000 0.0000 0.0000 49.4644 0.0000
# 6 0.0000 0.0000 0.0000 0.0000 0.0000 4.0267
#
#
#
# Elastic Compliance Matrix: (Units=1/GPa)
#
#
# Indices 1 2 3 4 5 6 
#
# 1 0.004811 -0.001113 -0.003071 0.000000 0.000000 0.000000
# 2 -0.001113 0.020397 -0.005953 0.000000 0.000000 0.000000
# 3 -0.003071 -0.005953 0.017214 0.000000 0.000000 0.000000
# 4 0.000000 0.000000 0.000000 0.068739 0.000000 0.000000
# 5 0.000000 0.000000 0.000000 0.000000 0.020217 0.000000
# 6 0.000000 0.000000 0.000000 0.000000 0.000000 0.248343
#
#
# Mechanical properties :
#
#
# Convention : Reuss Voigt Hill
#
# Bulk Modulus (GPa) = 45.15456 67.10136 56.12796
# Shear Modulus (GPa) = 12.27362 31.91391 22.09376
#
# Velocity S-wave (km/s) = 2.32455 3.74837 3.11880
# Velocity P-wave (km/s) = 5.20425 6.94805 6.13839
#
# Compressibility (1/GPa) = 0.02214616
#
# Stress axis : x y z
#
# Youngs Moduli (GPa) = 207.84797 49.02646 58.09369
#
# Poissons Ratio (x) = 0.05459 0.17842
# Poissons Ratio (y) = 0.23142 0.34584
# Poissons Ratio (z) = 0.63836 0.29186
#
# Static dielectric constant tensor:
#      x y z
#    x 1.969480 0.000000 0.000000 
#    y 0.000000 1.974330 0.000000 
#    z 0.000000 0.000000 1.809440 
# 
# From -- ./inp_files/8398.got.cif
#   From: 2010.05.17/outbox.cif.g08.bks.cpg/sg64_5_cif.got.tgz:8398.got - 2010.06.03 16:29:19.
