data_PCOD9478733
_publ_section_title
;
Structure prediction by ZEFSAII (Michael W. Deem and Ramdas Pophale) SiO2 
 PCOD9478733
Probable space group: C M C A
;
_chemical_formula_sum "Si O2"
_cell_formula_units_Z 80
_cell_length_a 30.282017
_cell_length_b 13.504104
_cell_length_c 6.702351
_cell_angle_alpha 90.000000
_cell_angle_beta 90.000000
_cell_angle_gamma 90.000000
_cell_volume 2740.802494
_symmetry_space_group_name_H-M "C M C A"
_symmetry_group_IT_number 64
_symmetry_cell_setting 'orthorhombic'
loop_
_space_group_symop_operation_xyz
x,y,z
-x,1/2-y,1/2+z
x,-y,-z
-x,1/2+y,1/2-z
-x,-y,-z
x,1/2+y,1/2-z
-x,y,z
x,1/2-y,1/2+z
1/2+x,1/2+y,z
1/2-x,-y,1/2+z
1/2+x,1/2-y,-z
1/2-x,y,1/2-z
1/2-x,1/2-y,-z
1/2+x,y,1/2-z
1/2-x,1/2+y,z
1/2+x,-y,1/2+z
loop_
_atom_site_type_symbol
_atom_site_label
_atom_site_fract_x
_atom_site_fract_y
_atom_site_fract_z
Si Si1 0.000000 0.077254 0.304919
Si Si2 0.094933 0.920620 0.707227
Si Si3 0.500000 0.853964 0.347287
Si Si4 0.750000 0.164063 0.250000
Si Si5 0.823250 0.500000 0.000000
Si Si6 0.594915 0.853261 0.366961
Si Si7 0.697153 0.145519 0.643669
O O1 0.951972 0.098735 0.398128
O O2 0.000000 0.960788 0.256646
O O3 0.000000 0.125078 0.084716
O O4 0.141261 0.922706 0.594835
O O5 0.091935 0.032024 0.795508
O O6 0.096351 0.849924 0.894066
O O7 0.547808 0.807729 0.305326
O O8 0.720233 0.113307 0.429336
O O9 0.716794 0.244341 0.157760
O O10 0.797751 0.436992 0.174146
O O11 0.645449 0.830548 0.327509
#
# Coordination Sequence:
#
# PCOD9478733 Si02
#       7
#     8  16   8   8   8  16  16
#     4   7  10  19  36  70 123 176 214 262 347 437
#     4   8  14  24  45  82 129 171 216 283 361 420
#     4   7  10  20  44  78 117 166 224 280 347 424
#     4  10  24  46  70  96 136 196 250 294 372 470
#     4  10  20  35  60 100 138 174 236 317 372 414
#     4   8  14  28  52  83 123 173 226 288 356 428
#     4  10  22  42  68  96 134 185 248 308 367 442
#
# _framework density 29.188533
#
# number of rings (size 3 to 8) (size 9 to 14) (size 15 to 20)
#    0.000    3.400    0.000    2.400    0.000    3.600 
#    0.000    5.000    0.000    1.200    0.000    0.000 
#    0.000    3.200    0.000    0.000    0.000   33.100 
#
# Total GULP energy -222762.468768 kJ/mol
# GULP energy per Si atom -5569.061719 kJ/mol
# Density = 2.912210 g / cm^3
# Si number density = 29.188533 Si / 1000 Ang^3
#
#
#
# Elastic Constant Matrix: (Units=GPa)
#
#
# Indices 1 2 3 4 5 6 
#
# 1 254.6957 60.2819 57.9710 0.0000 0.0000 0.0000
# 2 60.2819 122.6971 59.3977 0.0000 0.0000 0.0000
# 3 57.9710 59.3977 181.5548 0.0000 0.0000 0.0000
# 4 0.0000 0.0000 0.0000 30.7722 0.0000 0.0000
# 5 0.0000 0.0000 0.0000 0.0000 47.5415 0.0000
# 6 0.0000 0.0000 0.0000 0.0000 0.0000 13.3954
#
#
#
# Elastic Compliance Matrix: (Units=1/GPa)
#
#
# Indices 1 2 3 4 5 6 
#
# 1 0.004553 -0.001821 -0.000858 0.000000 0.000000 0.000000
# 2 -0.001821 0.010413 -0.002825 0.000000 0.000000 0.000000
# 3 -0.000858 -0.002825 0.006706 0.000000 0.000000 0.000000
# 4 0.000000 0.000000 0.000000 0.032497 0.000000 0.000000
# 5 0.000000 0.000000 0.000000 0.000000 0.021034 0.000000
# 6 0.000000 0.000000 0.000000 0.000000 0.000000 0.074653
#
#
# Mechanical properties :
#
#
# Convention : Reuss Voigt Hill
#
# Bulk Modulus (GPa) = 93.78344 101.58322 97.68333
# Shear Modulus (GPa) = 30.41032 43.76162 37.08597
#
# Velocity S-wave (km/s) = 3.23128 3.87625 3.56837
# Velocity P-wave (km/s) = 6.79129 7.41024 7.10751
#
# Compressibility (1/GPa) = 0.01066286
#
# Stress axis : x y z
#
# Youngs Moduli (GPa) = 219.65489 96.03702 149.11823
#
# Poissons Ratio (x) = 0.17493 0.12790
# Poissons Ratio (y) = 0.40010 0.42126
# Poissons Ratio (z) = 0.18841 0.27131
#
# Static dielectric constant tensor:
#      x y z
#    x 2.286230 0.000000 0.000000 
#    y 0.000000 2.285510 0.000000 
#    z 0.000000 0.000000 2.666250 
# 
# From -- ./inp_files/10270.got.cif
#   From: 2010.05.17/outbox.cif.g08.bks.cpg/sg64_6_cif.got.tgz:10270.got - 2010.06.03 16:29:19.
