data_PCOD9478849
_publ_section_title
;
Structure prediction by ZEFSAII (Michael W. Deem and Ramdas Pophale) SiO2 
 PCOD9478849
Probable space group: C M C A
;
_chemical_formula_sum "Si O2"
_cell_formula_units_Z 80
_cell_length_a 7.783702
_cell_length_b 18.986477
_cell_length_c 26.103293
_cell_angle_alpha 90.000000
_cell_angle_beta 90.000000
_cell_angle_gamma 90.000000
_cell_volume 3857.677218
_symmetry_space_group_name_H-M "C M C A"
_symmetry_group_IT_number 64
_symmetry_cell_setting 'orthorhombic'
loop_
_space_group_symop_operation_xyz
x,y,z
-x,1/2-y,1/2+z
x,-y,-z
-x,1/2+y,1/2-z
-x,-y,-z
x,1/2+y,1/2-z
-x,y,z
x,1/2-y,1/2+z
1/2+x,1/2+y,z
1/2-x,-y,1/2+z
1/2+x,1/2-y,-z
1/2-x,y,1/2-z
1/2-x,1/2-y,-z
1/2+x,y,1/2-z
1/2-x,1/2+y,z
1/2+x,-y,1/2+z
loop_
_atom_site_type_symbol
_atom_site_label
_atom_site_fract_x
_atom_site_fract_y
_atom_site_fract_z
Si Si1 0.294607 0.078893 0.308087
Si Si2 0.799508 0.921858 0.003697
Si Si3 0.201025 0.834963 0.593401
Si Si4 0.788939 0.325658 0.403283
Si Si5 0.706225 0.917802 0.307759
O O1 0.500000 0.078708 0.313540
O O2 0.250000 0.099737 0.250000
O O3 0.221519 0.129892 0.351134
O O4 0.230722 0.998220 0.315401
O O5 0.729167 0.871462 0.048186
O O6 0.000000 0.931460 0.017596
O O7 0.788135 0.883026 0.949508
O O8 0.721968 0.000000 0.000000
O O9 0.268279 0.755093 0.593416
O O10 0.000000 0.832895 0.580063
O O11 0.732448 0.364941 0.351511
O O12 0.000000 0.323859 0.402986
O O13 0.500000 0.920662 0.311600
O O14 0.750000 0.895866 0.250000
#
# Coordination Sequence:
#
# PCOD9478849 Si02
#       5
#    16  16  16  16  16
#     4  10  20  36  58  81 107 142 183 224 265 313
#     4  10  20  37  60  80 102 139 184 225 267 318
#     4  11  22  35  53  80 114 144 173 217 269 322
#     4   9  19  35  54  78 109 142 176 217 266 318
#     4   9  18  35  57  79 104 137 178 221 263 311
#
# _framework density 20.737869
#
# number of rings (size 3 to 8) (size 9 to 14) (size 15 to 20)
#    0.000    2.200    0.000    3.000    0.000    5.200 
#    0.000    6.000    0.000    0.000    0.000    0.000 
#    0.000    0.000    0.000    0.000    0.000    0.000 
#
# Total GULP energy -223436.658103 kJ/mol
# GULP energy per Si atom -5585.916453 kJ/mol
# Density = 2.069067 g / cm^3
# Si number density = 20.737869 Si / 1000 Ang^3
#
#
#
# Elastic Constant Matrix: (Units=GPa)
#
#
# Indices 1 2 3 4 5 6 
#
# 1 27.0372 -4.3630 -19.1010 0.0000 0.0000 0.0000
# 2 -4.3630 172.8591 105.2050 0.0000 0.0000 0.0000
# 3 -19.1010 105.2050 133.1760 0.0000 0.0000 0.0000
# 4 0.0000 0.0000 0.0000 81.8399 0.0000 0.0000
# 5 0.0000 0.0000 0.0000 0.0000 26.0306 0.0000
# 6 0.0000 0.0000 0.0000 0.0000 0.0000 -60.7881
#
#
#
# Elastic Compliance Matrix: (Units=1/GPa)
#
#
# Indices 1 2 3 4 5 6 
#
# 1 0.043449 -0.005193 0.010334 0.000000 0.000000 0.000000
# 2 -0.005193 0.011763 -0.010037 0.000000 0.000000 0.000000
# 3 0.010334 -0.010037 0.016920 0.000000 0.000000 0.000000
# 4 0.000000 0.000000 0.000000 0.012219 0.000000 0.000000
# 5 0.000000 0.000000 0.000000 0.000000 0.038416 0.000000
# 6 0.000000 0.000000 0.000000 0.000000 0.000000 -0.016451
#
#
# Mechanical properties :
#
#
# Convention : Reuss Voigt Hill
#
# Bulk Modulus (GPa) = 16.04121 55.17269 35.60695
# Shear Modulus (GPa) = 36.52645 26.17190 31.34917
#
# Velocity S-wave (km/s) = 4.20139 3.55637 3.89226
# Velocity P-wave (km/s) = 5.59353 6.59744 6.11612
#
# Compressibility (1/GPa) = 0.06233945
#
# Stress axis : x y z
#
# Youngs Moduli (GPa) = 23.01571 85.01520 59.10232
#
# Poissons Ratio (x) = 0.44145 -0.61075
# Poissons Ratio (y) = 0.11951 0.59320
# Poissons Ratio (z) = -0.23784 0.85329
#
# Static dielectric constant tensor:
#      x y z
#    x 1.773780 0.000000 0.000000 
#    y 0.000000 1.732280 0.000000 
#    z 0.000000 0.000000 1.693740 
# 
# From -- ./inp_files/47782.got.cif
#   From: 2010.05.17/outbox.cif.g08.bks.cpg/sg64_24_cif.got.tgz:47782.got - 2010.06.03 16:29:19.
