data_PCOD9478561
_publ_section_title
;
Structure prediction by ZEFSAII (Michael W. Deem and Ramdas Pophale) SiO2 
 PCOD9478561
Probable space group: C M C A
;
_chemical_formula_sum "Si O2"
_cell_formula_units_Z 104
_cell_length_a 9.005005
_cell_length_b 28.166776
_cell_length_c 21.207739
_cell_angle_alpha 90.000000
_cell_angle_beta 90.000000
_cell_angle_gamma 90.000000
_cell_volume 5379.172460
_symmetry_space_group_name_H-M "C M C A"
_symmetry_group_IT_number 64
_symmetry_cell_setting 'orthorhombic'
loop_
_space_group_symop_operation_xyz
x,y,z
-x,1/2-y,1/2+z
x,-y,-z
-x,1/2+y,1/2-z
-x,-y,-z
x,1/2+y,1/2-z
-x,y,z
x,1/2-y,1/2+z
1/2+x,1/2+y,z
1/2-x,-y,1/2+z
1/2+x,1/2-y,-z
1/2-x,y,1/2-z
1/2-x,1/2-y,-z
1/2+x,y,1/2-z
1/2-x,1/2+y,z
1/2+x,-y,1/2+z
loop_
_atom_site_type_symbol
_atom_site_label
_atom_site_fract_x
_atom_site_fract_y
_atom_site_fract_z
Si Si1 0.166696 0.694189 0.851936
Si Si2 0.250000 0.619245 0.750000
Si Si3 0.324342 0.129116 0.549372
Si Si4 0.177207 0.209546 0.316967
Si Si5 0.333617 0.047177 0.644317
Si Si6 0.176621 0.047247 0.318507
Si Si7 0.677590 0.629582 0.099635
O O1 0.164680 0.654573 0.796905
O O2 0.228579 0.668127 0.913839
O O3 0.274297 0.736627 0.831736
O O4 0.000000 0.712719 0.860969
O O5 0.334819 0.584271 0.797535
O O6 0.500000 0.139063 0.559892
O O7 0.295632 0.078554 0.583153
O O8 0.296284 0.127980 0.475268
O O9 0.250000 0.196131 0.250000
O O10 0.246607 0.175593 0.369722
O O11 0.000000 0.205152 0.313915
O O12 0.500000 0.026975 0.637452
O O13 0.219435 0.005620 0.658948
O O14 0.250000 0.054183 0.250000
O O15 0.248989 0.084638 0.366210
O O16 0.000000 0.053299 0.314677
O O17 0.500000 0.630202 0.110406
#
# Coordination Sequence:
#
# PCOD9478561 Si02
#       7
#    16   8  16  16  16  16  16
#     4  11  22  37  63  96 129 164 205 255 310 369
#     4  10  20  34  62  92 130 160 200 250 308 364
#     4   9  22  42  64  92 126 167 209 254 309 371
#     4  12  25  42  65  94 126 162 208 260 313 370
#     4  10  20  37  62  93 127 160 202 251 307 367
#     4  12  25  41  63  93 125 162 208 258 311 368
#     4  11  24  45  67  87 122 168 213 258 308 367
#
# _framework density 19.333828
#
# number of rings (size 3 to 8) (size 9 to 14) (size 15 to 20)
#    0.000    1.231    1.538    4.615    0.000    6.154 
#    0.000    3.077    0.000    0.000    0.000    0.000 
#    0.000    0.000    0.000    0.000    0.000    0.000 
#
# Total GULP energy -290644.530846 kJ/mol
# GULP energy per Si atom -5589.317901 kJ/mol
# Density = 1.928982 g / cm^3
# Si number density = 19.333828 Si / 1000 Ang^3
#
#
#
# Elastic Constant Matrix: (Units=GPa)
#
#
# Indices 1 2 3 4 5 6 
#
# 1 139.8971 34.3605 58.7922 0.0000 0.0000 0.0000
# 2 34.3605 65.0056 17.6137 0.0000 0.0000 0.0000
# 3 58.7922 17.6137 84.1193 0.0000 0.0000 0.0000
# 4 0.0000 0.0000 0.0000 31.0294 0.0000 0.0000
# 5 0.0000 0.0000 0.0000 0.0000 18.3163 0.0000
# 6 0.0000 0.0000 0.0000 0.0000 0.0000 49.5471
#
#
#
# Elastic Compliance Matrix: (Units=1/GPa)
#
#
# Indices 1 2 3 4 5 6 
#
# 1 0.011004 -0.003957 -0.006862 0.000000 0.000000 0.000000
# 2 -0.003957 0.017732 -0.000947 0.000000 0.000000 0.000000
# 3 -0.006862 -0.000947 0.016882 0.000000 0.000000 0.000000
# 4 0.000000 0.000000 0.000000 0.032228 0.000000 0.000000
# 5 0.000000 0.000000 0.000000 0.000000 0.054596 0.000000
# 6 0.000000 0.000000 0.000000 0.000000 0.000000 0.020183
#
#
# Mechanical properties :
#
#
# Convention : Reuss Voigt Hill
#
# Bulk Modulus (GPa) = 45.27981 56.72830 51.00406
# Shear Modulus (GPa) = 27.24517 31.66225 29.45371
#
# Velocity S-wave (km/s) = 3.75800 4.05119 3.90735
# Velocity P-wave (km/s) = 6.50392 7.16157 6.84065
#
# Compressibility (1/GPa) = 0.02208490
#
# Stress axis : x y z
#
# Youngs Moduli (GPa) = 90.87709 56.39673 59.23360
#
# Poissons Ratio (x) = 0.22316 0.40647
# Poissons Ratio (y) = 0.35960 0.05610
# Poissons Ratio (z) = 0.62362 0.05342
#
# Static dielectric constant tensor:
#      x y z
#    x 1.661300 0.000000 0.000000 
#    y 0.000000 1.666520 0.000000 
#    z 0.000000 0.000000 1.648670 
# 
# From -- ./inp_files/37223.got.cif
#   From: 2010.05.17/outbox.cif.g08.bks.cpg/sg64_19_cif.got.tgz:37223.got - 2010.06.03 16:29:19.
