data_PCOD9478165
_publ_section_title
;
Structure prediction by ZEFSAII (Michael W. Deem and Ramdas Pophale) SiO2 
 PCOD9478165
Probable space group: C M C A
;
_chemical_formula_sum "Si O2"
_cell_formula_units_Z 64
_cell_length_a 15.883375
_cell_length_b 31.555117
_cell_length_c 5.191635
_cell_angle_alpha 90.000000
_cell_angle_beta 90.000000
_cell_angle_gamma 90.000000
_cell_volume 2602.056581
_symmetry_space_group_name_H-M "C M C A"
_symmetry_group_IT_number 64
_symmetry_cell_setting 'orthorhombic'
loop_
_space_group_symop_operation_xyz
x,y,z
-x,1/2-y,1/2+z
x,-y,-z
-x,1/2+y,1/2-z
-x,-y,-z
x,1/2+y,1/2-z
-x,y,z
x,1/2-y,1/2+z
1/2+x,1/2+y,z
1/2-x,-y,1/2+z
1/2+x,1/2-y,-z
1/2-x,y,1/2-z
1/2-x,1/2-y,-z
1/2+x,y,1/2-z
1/2-x,1/2+y,z
1/2+x,-y,1/2+z
loop_
_atom_site_type_symbol
_atom_site_label
_atom_site_fract_x
_atom_site_fract_y
_atom_site_fract_z
Si Si1 0.250000 0.932510 0.250000
Si Si2 0.500000 0.888950 0.193840
Si Si3 0.870228 0.000000 0.500000
Si Si4 0.500000 0.947277 0.695300
Si Si5 0.669657 0.853751 0.407081
Si Si6 0.844622 0.732383 0.435499
O O1 0.183827 0.962396 0.383254
O O2 0.294946 0.900948 0.455406
O O3 0.500000 0.926341 0.413785
O O4 0.584623 0.862356 0.248742
O O5 0.500000 0.909584 0.910688
O O6 0.923235 0.022301 0.274315
O O7 0.750000 0.835546 0.250000
O O8 0.654539 0.817880 0.618825
O O9 0.886191 0.758703 0.209714
O O10 0.750000 0.750000 0.500000
#
# Coordination Sequence:
#
# PCOD9478165 Si02
#       6
#     8   8   8   8  16  16
#     4  10  22  40  64 106 132 184 240 286 342 420
#     4  12  26  49  66 107 134 191 235 289 358 420
#     4  11  24  40  72 101 136 196 236 299 346 421
#     4  11  26  48  70  91 150 181 239 295 358 404
#     4  10  22  44  70  99 143 181 230 294 345 421
#     4  10  19  39  68  98 131 177 219 274 352 411
#
# _framework density 24.595931
#
# number of rings (size 3 to 8) (size 9 to 14) (size 15 to 20)
#    0.750    0.750    5.000    0.000    3.500    4.000 
#    9.000    1.250    0.000    0.000    0.000    0.000 
#    0.000    0.000    0.000    0.000    0.000    0.000 
#
# Total GULP energy -178634.883901 kJ/mol
# GULP energy per Si atom -5582.340122 kJ/mol
# Density = 2.453995 g / cm^3
# Si number density = 24.595931 Si / 1000 Ang^3
#
#
#
# Elastic Constant Matrix: (Units=GPa)
#
#
# Indices 1 2 3 4 5 6 
#
# 1 102.5355 36.0552 1.1627 0.0000 0.0000 0.0000
# 2 36.0552 177.8624 20.1616 0.0000 0.0000 0.0000
# 3 1.1627 20.1616 90.7914 0.0000 0.0000 0.0000
# 4 0.0000 0.0000 0.0000 28.7950 0.0000 0.0000
# 5 0.0000 0.0000 0.0000 0.0000 4.9250 0.0000
# 6 0.0000 0.0000 0.0000 0.0000 0.0000 9.0186
#
#
#
# Elastic Compliance Matrix: (Units=1/GPa)
#
#
# Indices 1 2 3 4 5 6 
#
# 1 0.010512 -0.002170 0.000347 0.000000 0.000000 0.000000
# 2 -0.002170 0.006216 -0.001352 0.000000 0.000000 0.000000
# 3 0.000347 -0.001352 0.011310 0.000000 0.000000 0.000000
# 4 0.000000 0.000000 0.000000 0.034728 0.000000 0.000000
# 5 0.000000 0.000000 0.000000 0.000000 0.203047 0.000000
# 6 0.000000 0.000000 0.000000 0.000000 0.000000 0.110882
#
#
# Mechanical properties :
#
#
# Convention : Reuss Voigt Hill
#
# Bulk Modulus (GPa) = 46.11099 53.99424 50.05262
# Shear Modulus (GPa) = 12.81148 29.46836 21.13992
#
# Velocity S-wave (km/s) = 2.28475 3.46511 2.93488
# Velocity P-wave (km/s) = 5.07427 6.16518 5.64614
#
# Compressibility (1/GPa) = 0.02168680
#
# Stress axis : x y z
#
# Youngs Moduli (GPa) = 95.13001 160.88599 88.41616
#
# Poissons Ratio (x) = 0.34917 -0.03071
# Poissons Ratio (y) = 0.20646 0.11958
# Poissons Ratio (z) = -0.03304 0.21759
#
# Static dielectric constant tensor:
#      x y z
#    x 1.994320 0.000000 0.000000 
#    y 0.000000 1.925660 0.000000 
#    z 0.000000 0.000000 2.367680 
# 
# From -- ./inp_files/1374.got.cif
#   From: 2010.05.17/outbox.cif.g08.bks.cpg/sg64_1_cif.got.tgz:1374.got - 2010.06.03 16:29:19.
