data_PCOD9478331
_publ_section_title
;
Structure prediction by ZEFSAII (Michael W. Deem and Ramdas Pophale) SiO2 
 PCOD9478331
Probable space group: C M C A
;
_chemical_formula_sum "Si O2"
_cell_formula_units_Z 96
_cell_length_a 7.492305
_cell_length_b 24.804556
_cell_length_c 22.635910
_cell_angle_alpha 90.000000
_cell_angle_beta 90.000000
_cell_angle_gamma 90.000000
_cell_volume 4206.732189
_symmetry_space_group_name_H-M "C M C A"
_symmetry_group_IT_number 64
_symmetry_cell_setting 'orthorhombic'
loop_
_space_group_symop_operation_xyz
x,y,z
-x,1/2-y,1/2+z
x,-y,-z
-x,1/2+y,1/2-z
-x,-y,-z
x,1/2+y,1/2-z
-x,y,z
x,1/2-y,1/2+z
1/2+x,1/2+y,z
1/2-x,-y,1/2+z
1/2+x,1/2-y,-z
1/2-x,y,1/2-z
1/2-x,1/2-y,-z
1/2+x,y,1/2-z
1/2-x,1/2+y,z
1/2+x,-y,1/2+z
loop_
_atom_site_type_symbol
_atom_site_label
_atom_site_fract_x
_atom_site_fract_y
_atom_site_fract_z
Si Si1 0.787414 0.449685 0.314491
Si Si2 0.217571 0.931653 0.842065
Si Si3 0.300829 0.752860 0.569566
Si Si4 0.782718 0.868353 0.084166
Si Si5 0.714595 0.685925 0.185105
Si Si6 0.283135 0.941391 0.522380
O O1 0.750000 0.427088 0.250000
O O2 0.717200 0.510992 0.317533
O O3 0.722854 0.410230 0.365667
O O4 0.000000 0.453464 0.323421
O O5 0.281281 0.875966 0.814242
O O6 0.268421 0.931209 0.910809
O O7 0.000000 0.931786 0.838215
O O8 0.500000 0.775117 0.566084
O O9 0.250000 0.750000 0.500000
O O10 0.291683 0.691115 0.590658
O O11 0.215619 0.786140 0.624450
O O12 0.000000 0.864574 0.085501
O O13 0.728295 0.894506 0.021935
O O14 0.500000 0.685288 0.180430
O O15 0.750000 0.710853 0.250000
O O16 0.500000 0.942816 0.520985
O O17 0.222714 0.000000 0.500000
#
# Coordination Sequence:
#
# PCOD9478331 Si02
#       6
#    16  16  16  16  16  16
#     4  10  20  33  52  79 111 147 185 225 277 336
#     4   9  16  30  53  82 112 142 182 234 286 341
#     4  11  24  42  63  88 117 153 197 248 300 354
#     4  10  20  35  57  85 112 144 186 231 282 340
#     4  10  22  39  60  86 116 153 201 250 298 352
#     4   9  14  26  52  83 111 140 182 231 275 333
#
# _framework density 22.820563
#
# number of rings (size 3 to 8) (size 9 to 14) (size 15 to 20)
#    0.000    2.167    1.667    2.000    0.000    5.333 
#    0.000    3.333    0.000    1.500    0.000    0.000 
#    0.000    0.000    0.000    0.000    0.000    0.000 
#
# Total GULP energy -267943.934821 kJ/mol
# GULP energy per Si atom -5582.165309 kJ/mol
# Density = 2.276862 g / cm^3
# Si number density = 22.820563 Si / 1000 Ang^3
#
#
#
# Elastic Constant Matrix: (Units=GPa)
#
#
# Indices 1 2 3 4 5 6 
#
# 1 61.5030 -6.7523 2.9449 0.0000 0.0000 0.0000
# 2 -6.7523 97.7902 48.3459 0.0000 0.0000 0.0000
# 3 2.9449 48.3459 180.0974 0.0000 0.0000 0.0000
# 4 0.0000 0.0000 0.0000 16.2903 0.0000 0.0000
# 5 0.0000 0.0000 0.0000 0.0000 18.6058 0.0000
# 6 0.0000 0.0000 0.0000 0.0000 0.0000 12.5413
#
#
#
# Elastic Compliance Matrix: (Units=1/GPa)
#
#
# Indices 1 2 3 4 5 6 
#
# 1 0.016452 0.001463 -0.000662 0.000000 0.000000 0.000000
# 2 0.001463 0.011921 -0.003224 0.000000 0.000000 0.000000
# 3 -0.000662 -0.003224 0.006429 0.000000 0.000000 0.000000
# 4 0.000000 0.000000 0.000000 0.061386 0.000000 0.000000
# 5 0.000000 0.000000 0.000000 0.000000 0.053747 0.000000
# 6 0.000000 0.000000 0.000000 0.000000 0.000000 0.079737
#
#
# Mechanical properties :
#
#
# Convention : Reuss Voigt Hill
#
# Bulk Modulus (GPa) = 33.38218 47.60753 40.49485
# Shear Modulus (GPa) = 20.44976 29.14428 24.79702
#
# Velocity S-wave (km/s) = 2.99676 3.57754 3.29995
# Velocity P-wave (km/s) = 5.16081 6.16214 5.68357
#
# Compressibility (1/GPa) = 0.02995610
#
# Stress axis : x y z
#
# Youngs Moduli (GPa) = 60.78406 83.88633 155.54914
#
# Poissons Ratio (x) = -0.12274 0.10294
# Poissons Ratio (y) = -0.08894 0.50149
# Poissons Ratio (z) = 0.04023 0.27045
#
# Static dielectric constant tensor:
#      x y z
#    x 1.967140 0.000000 0.000000 
#    y 0.000000 1.824360 0.000000 
#    z 0.000000 0.000000 1.841980 
# 
# From -- ./inp_files/37012.got.cif
#   From: 2010.05.17/outbox.cif.g08.bks.cpg/sg64_19_cif.got.tgz:37012.got - 2010.06.03 16:29:19.
