data_PCOD9478777
_publ_section_title
;
Structure prediction by ZEFSAII (Michael W. Deem and Ramdas Pophale) SiO2 
 PCOD9478777
Probable space group: C M C A
;
_chemical_formula_sum "Si O2"
_cell_formula_units_Z 112
_cell_length_a 23.381912
_cell_length_b 10.990323
_cell_length_c 23.416510
_cell_angle_alpha 90.000000
_cell_angle_beta 90.000000
_cell_angle_gamma 90.000000
_cell_volume 6017.452160
_symmetry_space_group_name_H-M "C M C A"
_symmetry_group_IT_number 64
_symmetry_cell_setting 'orthorhombic'
loop_
_space_group_symop_operation_xyz
x,y,z
-x,1/2-y,1/2+z
x,-y,-z
-x,1/2+y,1/2-z
-x,-y,-z
x,1/2+y,1/2-z
-x,y,z
x,1/2-y,1/2+z
1/2+x,1/2+y,z
1/2-x,-y,1/2+z
1/2+x,1/2-y,-z
1/2-x,y,1/2-z
1/2-x,1/2-y,-z
1/2+x,y,1/2-z
1/2-x,1/2+y,z
1/2+x,-y,1/2+z
loop_
_atom_site_type_symbol
_atom_site_label
_atom_site_fract_x
_atom_site_fract_y
_atom_site_fract_z
Si Si1 0.175448 0.242125 0.135452
Si Si2 0.000000 0.482428 0.208295
Si Si3 0.376299 0.447035 0.289544
Si Si4 0.500000 0.243366 0.215097
Si Si5 0.205196 0.645180 0.163691
Si Si6 0.277270 0.030760 0.936033
Si Si7 0.141650 0.990398 0.934002
Si Si8 0.610933 0.653005 0.833310
O O1 0.140182 0.318048 0.182197
O O2 0.228143 0.178031 0.168977
O O3 0.200243 0.344764 0.091996
O O4 0.143483 0.141895 0.096758
O O5 0.063415 0.484753 0.180936
O O6 0.000000 0.353838 0.240518
O O7 0.000000 0.610063 0.242721
O O8 0.325024 0.542653 0.297843
O O9 0.386324 0.433750 0.222079
O O10 0.556231 0.262672 0.177249
O O11 0.201800 0.581857 0.101930
O O12 0.167836 0.765837 0.167506
O O13 0.208320 0.032226 0.933911
O O14 0.295074 0.000000 0.000000
O O15 0.107962 0.078508 0.891483
O O16 0.122701 0.000000 0.000000
#
# Coordination Sequence:
#
# PCOD9478777 Si02
#       8
#    16   8  16   8  16  16  16  16
#     4  10  21  38  54  90 123 156 190 243 304 363
#     4  10  20  40  64  91 114 164 208 255 295 352
#     4  10  23  38  59  87 120 156 197 248 298 364
#     4  10  22  38  65  85 117 150 211 257 302 356
#     4  10  20  36  54  84 120 148 194 230 307 355
#     4   9  19  34  56  82 113 154 195 242 281 353
#     4  10  22  36  57  83 117 158 202 241 295 361
#     4  11  22  38  58  85 111 156 192 244 301 354
#
# _framework density 18.612528999999999
#
# number of rings (size 3 to 8) (size 9 to 14) (size 15 to 20)
#    0.000    2.000    2.857    0.000    4.000    3.429 
#    2.571    0.357    0.000    0.000    0.000    3.500 
#    0.000    0.000    0.000    0.000    0.000    0.000 
#
# Total GULP energy -312001.182041 kJ/mol
# GULP energy per Si atom -5571.449679 kJ/mol
# Density = 1.857017 g / cm^3
# Si number density = 18.612529 Si / 1000 Ang^3
#
#
#
# Elastic Constant Matrix: (Units=GPa)
#
#
# Indices 1 2 3 4 5 6 
#
# 1 52.6922 9.2282 20.7508 0.0000 0.0000 0.0000
# 2 9.2282 63.2061 8.0311 0.0000 0.0000 0.0000
# 3 20.7508 8.0311 70.2910 0.0000 0.0000 0.0000
# 4 0.0000 0.0000 0.0000 16.9542 0.0000 0.0000
# 5 0.0000 0.0000 0.0000 0.0000 0.8769 0.0000
# 6 0.0000 0.0000 0.0000 0.0000 0.0000 17.4106
#
#
#
# Elastic Compliance Matrix: (Units=1/GPa)
#
#
# Indices 1 2 3 4 5 6 
#
# 1 0.021829 -0.002403 -0.006170 0.000000 0.000000 0.000000
# 2 -0.002403 0.016319 -0.001155 0.000000 0.000000 0.000000
# 3 -0.006170 -0.001155 0.016180 0.000000 0.000000 0.000000
# 4 0.000000 0.000000 0.000000 0.058982 0.000000 0.000000
# 5 0.000000 0.000000 0.000000 0.000000 1.140437 0.000000
# 6 0.000000 0.000000 0.000000 0.000000 0.000000 0.057436
#
#
# Mechanical properties :
#
#
# Convention : Reuss Voigt Hill
#
# Bulk Modulus (GPa) = 28.67633 29.13438 28.90536
# Shear Modulus (GPa) = 3.72505 16.92695 10.32600
#
# Velocity S-wave (km/s) = 1.41623 3.01896 2.35795
# Velocity P-wave (km/s) = 4.25614 5.27629 4.79343
#
# Compressibility (1/GPa) = 0.03487197
#
# Stress axis : x y z
#
# Youngs Moduli (GPa) = 45.81137 61.27867 61.80524
#
# Poissons Ratio (x) = 0.14726 0.38131
# Poissons Ratio (y) = 0.11009 0.07139
# Poissons Ratio (z) = 0.28263 0.07078
#
# Static dielectric constant tensor:
#      x y z
#    x 1.679640 0.000000 0.000000 
#    y 0.000000 1.660490 0.000000 
#    z 0.000000 0.000000 1.638210 
# 
# From -- ./inp_files/46716.got.cif
#   From: 2010.05.17/outbox.cif.g08.bks.cpg/sg64_24_cif.got.tgz:46716.got - 2010.06.03 16:29:19.
