data_PCOD9478355
_publ_section_title
;
Structure prediction by ZEFSAII (Michael W. Deem and Ramdas Pophale) SiO2 
 PCOD9478355
Probable space group: C M C A
;
_chemical_formula_sum "Si O2"
_cell_formula_units_Z 80
_cell_length_a 7.667020
_cell_length_b 16.436121
_cell_length_c 28.987127
_cell_angle_alpha 90.000000
_cell_angle_beta 90.000000
_cell_angle_gamma 90.000000
_cell_volume 3652.843780
_symmetry_space_group_name_H-M "C M C A"
_symmetry_group_IT_number 64
_symmetry_cell_setting 'orthorhombic'
loop_
_space_group_symop_operation_xyz
x,y,z
-x,1/2-y,1/2+z
x,-y,-z
-x,1/2+y,1/2-z
-x,-y,-z
x,1/2+y,1/2-z
-x,y,z
x,1/2-y,1/2+z
1/2+x,1/2+y,z
1/2-x,-y,1/2+z
1/2+x,1/2-y,-z
1/2-x,y,1/2-z
1/2-x,1/2-y,-z
1/2+x,y,1/2-z
1/2-x,1/2+y,z
1/2+x,-y,1/2+z
loop_
_atom_site_type_symbol
_atom_site_label
_atom_site_fract_x
_atom_site_fract_y
_atom_site_fract_z
Si Si1 0.296876 0.972809 0.851296
Si Si2 0.209358 0.717584 0.550581
Si Si3 0.788324 0.468320 0.449663
Si Si4 0.206695 0.201627 0.357821
Si Si5 0.207773 0.635985 0.803793
O O1 0.500000 0.973533 0.837264
O O2 0.220909 0.884107 0.839288
O O3 0.282296 0.981359 0.906554
O O4 0.219932 0.054981 0.829120
O O5 0.250000 0.750000 0.500000
O O6 0.270788 0.624918 0.555996
O O7 0.279104 0.773319 0.591952
O O8 0.000000 0.714948 0.554976
O O9 0.735177 0.500000 0.500000
O O10 0.000000 0.471380 0.447735
O O11 0.226020 0.280105 0.325706
O O12 0.000000 0.187402 0.363747
O O13 0.250000 0.631651 0.750000
O O14 0.000000 0.637969 0.810184
#
# Coordination Sequence:
#
# PCOD9478355 Si02
#       5
#    16  16  16  16  16
#     4  10  22  39  61  89 120 155 199 247 298 356
#     4  10  20  33  53  82 118 160 199 244 295 349
#     4  10  20  34  54  84 121 160 202 246 296 353
#     4  10  21  40  62  87 121 158 199 249 299 353
#     4  11  24  42  64  90 118 154 198 248 303 360
#
# _framework density 21.900744
#
# number of rings (size 3 to 8) (size 9 to 14) (size 15 to 20)
#    0.000    1.800    2.000    1.800    0.000    4.400 
#    0.000    2.000    0.000    0.000    0.000    0.000 
#    0.000    0.000    0.000    0.000    0.000    0.000 
#
# Total GULP energy -223485.844705 kJ/mol
# GULP energy per Si atom -5587.146118 kJ/mol
# Density = 2.185090 g / cm^3
# Si number density = 21.900744 Si / 1000 Ang^3
#
#
#
# Elastic Constant Matrix: (Units=GPa)
#
#
# Indices 1 2 3 4 5 6 
#
# 1 35.6536 0.5986 -22.3843 0.0000 0.0000 0.0000
# 2 0.5986 202.3341 53.8863 0.0000 0.0000 0.0000
# 3 -22.3843 53.8863 101.9477 0.0000 0.0000 0.0000
# 4 0.0000 0.0000 0.0000 27.9779 0.0000 0.0000
# 5 0.0000 0.0000 0.0000 0.0000 24.5389 0.0000
# 6 0.0000 0.0000 0.0000 0.0000 0.0000 -7.0309
#
#
#
# Elastic Compliance Matrix: (Units=1/GPa)
#
#
# Indices 1 2 3 4 5 6 
#
# 1 0.033501 -0.002395 0.008622 0.000000 0.000000 0.000000
# 2 -0.002395 0.005923 -0.003657 0.000000 0.000000 0.000000
# 3 0.008622 -0.003657 0.013635 0.000000 0.000000 0.000000
# 4 0.000000 0.000000 0.000000 0.035743 0.000000 0.000000
# 5 0.000000 0.000000 0.000000 0.000000 0.040752 0.000000
# 6 0.000000 0.000000 0.000000 0.000000 0.000000 -0.142229
#
#
# Mechanical properties :
#
#
# Convention : Reuss Voigt Hill
#
# Bulk Modulus (GPa) = 17.18265 44.90409 31.04337
# Shear Modulus (GPa) = 3156.19804 29.61950 1592.90877
#
# Velocity S-wave (km/s) = 38.00350 3.68155 26.99833
# Velocity P-wave (km/s) = 43.97216 6.21447 31.40199
#
# Compressibility (1/GPa) = 0.05819824
#
# Stress axis : x y z
#
# Youngs Moduli (GPa) = 29.85004 168.82494 73.34144
#
# Poissons Ratio (x) = 0.40438 -0.63233
# Poissons Ratio (y) = 0.07150 0.26819
# Poissons Ratio (z) = -0.25736 0.61736
#
# Static dielectric constant tensor:
#      x y z
#    x 1.835870 0.000000 0.000000 
#    y 0.000000 1.842520 0.000000 
#    z 0.000000 0.000000 1.753650 
# 
# From -- ./inp_files/47840.got.cif
#   From: 2010.05.17/outbox.cif.g08.bks.cpg/sg64_24_cif.got.tgz:47840.got - 2010.06.03 16:29:19.
