data_PCOD9478059
_publ_section_title
;
Structure prediction by ZEFSAII (Michael W. Deem and Ramdas Pophale) SiO2 
 PCOD9478059
Probable space group: C M C A
;
_chemical_formula_sum "Si O2"
_cell_formula_units_Z 64
_cell_length_a 13.666569
_cell_length_b 11.443155
_cell_length_c 18.128063
_cell_angle_alpha 90.000000
_cell_angle_beta 90.000000
_cell_angle_gamma 90.000000
_cell_volume 2835.023615
_symmetry_space_group_name_H-M "C M C A"
_symmetry_group_IT_number 64
_symmetry_cell_setting 'orthorhombic'
loop_
_space_group_symop_operation_xyz
x,y,z
-x,1/2-y,1/2+z
x,-y,-z
-x,1/2+y,1/2-z
-x,-y,-z
x,1/2+y,1/2-z
-x,y,z
x,1/2-y,1/2+z
1/2+x,1/2+y,z
1/2-x,-y,1/2+z
1/2+x,1/2-y,-z
1/2-x,y,1/2-z
1/2-x,1/2-y,-z
1/2+x,y,1/2-z
1/2-x,1/2+y,z
1/2+x,-y,1/2+z
loop_
_atom_site_type_symbol
_atom_site_label
_atom_site_fract_x
_atom_site_fract_y
_atom_site_fract_z
Si Si1 0.885611 0.209651 0.056153
Si Si2 0.358815 0.802710 0.215256
Si Si3 0.638045 0.559630 0.277014
Si Si4 0.318955 0.602853 0.444224
O O1 0.863909 0.293707 0.126519
O O2 0.799487 0.113795 0.062724
O O3 0.000000 0.174282 0.057989
O O4 0.861287 0.279775 0.981277
O O5 0.250000 0.801180 0.250000
O O6 0.401130 0.678083 0.240690
O O7 0.399514 0.928923 0.238620
O O8 0.750000 0.554271 0.250000
O O9 0.637405 0.580446 0.364325
O O10 0.343672 0.500000 0.500000
#
# Coordination Sequence:
#
# PCOD9478059 Si02
#       4
#    16  16  16  16
#     4  11  24  41  65 102 135 170 230 289 336 405
#     4  10  19  38  65  92 127 176 220 275 333 406
#     4  10  19  36  68  94 123 176 230 267 336 409
#     4  11  22  42  70  92 131 188 220 278 348 412
#
# _framework density 22.574767000000001
#
# number of rings (size 3 to 8) (size 9 to 14) (size 15 to 20)
#    0.000    1.500    7.500    0.000    0.000    1.000 
#    0.000    2.500    0.000    0.000    0.000    0.000 
#    0.000    0.000    0.000    0.000    0.000    0.000 
#
# Total GULP energy -178447.825120 kJ/mol
# GULP energy per Si atom -5576.494535 kJ/mol
# Density = 2.252339 g / cm^3
# Si number density = 22.574767 Si / 1000 Ang^3
#
#
#
# Elastic Constant Matrix: (Units=GPa)
#
#
# Indices 1 2 3 4 5 6 
#
# 1 121.2218 -10.5222 1.5011 0.0000 0.0000 0.0000
# 2 -10.5222 161.1633 19.9068 0.0000 0.0000 0.0000
# 3 1.5011 19.9068 98.1747 0.0000 0.0000 0.0000
# 4 0.0000 0.0000 0.0000 29.8997 0.0000 0.0000
# 5 0.0000 0.0000 0.0000 0.0000 -39.3669 0.0000
# 6 0.0000 0.0000 0.0000 0.0000 0.0000 -51.7124
#
#
#
# Elastic Compliance Matrix: (Units=1/GPa)
#
#
# Indices 1 2 3 4 5 6 
#
# 1 0.008302 0.000572 -0.000243 0.000000 0.000000 0.000000
# 2 0.000572 0.006404 -0.001307 0.000000 0.000000 0.000000
# 3 -0.000243 -0.001307 0.010455 0.000000 0.000000 0.000000
# 4 0.000000 0.000000 0.000000 0.033445 0.000000 0.000000
# 5 0.000000 0.000000 0.000000 0.000000 -0.025402 0.000000
# 6 0.000000 0.000000 0.000000 0.000000 0.000000 -0.019338
#
#
# Mechanical properties :
#
#
# Convention : Reuss Voigt Hill
#
# Bulk Modulus (GPa) = 43.09569 44.70347 43.89958
# Shear Modulus (GPa) = 212.25356 12.40902 112.33129
#
# Velocity S-wave (km/s) = 9.70704 2.34708 7.06171
# Velocity P-wave (km/s) = 12.03192 5.21445 9.27247
#
# Compressibility (1/GPa) = 0.02320418
#
# Stress axis : x y z
#
# Youngs Moduli (GPa) = 120.45289 156.15970 95.65074
#
# Poissons Ratio (x) = -0.08933 0.02324
# Poissons Ratio (y) = -0.06890 0.12504
# Poissons Ratio (z) = 0.02926 0.20413
#
# Static dielectric constant tensor:
#      x y z
#    x 1.838520 0.000000 0.000000 
#    y 0.000000 1.875930 0.000000 
#    z 0.000000 0.000000 1.795910 
# 
# From -- ./inp_files/31631.got.cif
#   From: 2010.05.17/outbox.cif.g08.bks.cpg/sg64_16_cif.got.tgz:31631.got - 2010.06.03 16:29:19.
