data_PCOD9478689
_publ_section_title
;
Structure prediction by ZEFSAII (Michael W. Deem and Ramdas Pophale) SiO2 
 PCOD9478689
Probable space group: C M C A
;
_chemical_formula_sum "Si O2"
_cell_formula_units_Z 96
_cell_length_a 16.925307
_cell_length_b 14.357900
_cell_length_c 20.262779
_cell_angle_alpha 90.000000
_cell_angle_beta 90.000000
_cell_angle_gamma 90.000000
_cell_volume 4924.095722
_symmetry_space_group_name_H-M "C M C A"
_symmetry_group_IT_number 64
_symmetry_cell_setting 'orthorhombic'
loop_
_space_group_symop_operation_xyz
x,y,z
-x,1/2-y,1/2+z
x,-y,-z
-x,1/2+y,1/2-z
-x,-y,-z
x,1/2+y,1/2-z
-x,y,z
x,1/2-y,1/2+z
1/2+x,1/2+y,z
1/2-x,-y,1/2+z
1/2+x,1/2-y,-z
1/2-x,y,1/2-z
1/2-x,1/2-y,-z
1/2+x,y,1/2-z
1/2-x,1/2+y,z
1/2+x,-y,1/2+z
loop_
_atom_site_type_symbol
_atom_site_label
_atom_site_fract_x
_atom_site_fract_y
_atom_site_fract_z
Si Si1 0.166563 0.200945 0.014432
Si Si2 0.593948 0.785200 0.895410
Si Si3 0.907367 0.282487 0.144059
Si Si4 0.280260 0.443399 0.563824
Si Si5 0.686162 0.040228 0.804089
Si Si6 0.344548 0.338085 0.741604
O O1 0.123318 0.259555 0.070960
O O2 0.197221 0.104732 0.045268
O O3 0.250000 0.250000 0.000000
O O4 0.117501 0.203160 0.946496
O O5 0.500000 0.802302 0.897756
O O6 0.649406 0.870334 0.920457
O O7 0.622271 0.777204 0.819574
O O8 0.867819 0.374423 0.174560
O O9 0.884111 0.197268 0.191873
O O10 0.000000 0.294900 0.142293
O O11 0.305755 0.500000 0.500000
O O12 0.271782 0.504886 0.629058
O O13 0.750000 0.070056 0.750000
O O14 0.643097 0.947382 0.775539
O O15 0.250000 0.327110 0.750000
#
# Coordination Sequence:
#
# PCOD9478689 Si02
#       6
#    16  16  16  16  16  16
#     4  10  20  37  57  80 112 151 192 233 284 346
#     4  10  20  35  58  85 114 147 186 241 299 342
#     4  12  24  37  59  89 119 152 192 245 299 342
#     4  10  21  36  57  84 113 151 196 240 286 344
#     4  10  21  37  59  84 113 154 200 241 286 345
#     4  10  21  40  60  83 118 157 197 238 284 348
#
# _framework density 19.495965000000002
#
# number of rings (size 3 to 8) (size 9 to 14) (size 15 to 20)
#    0.000    1.667    0.000    7.500    0.000    5.000 
#    0.000    0.000    0.000    2.000    0.000    0.000 
#    0.000    0.000    0.000    0.000    0.000    0.000 
#
# Total GULP energy -267867.168876 kJ/mol
# GULP energy per Si atom -5580.566018 kJ/mol
# Density = 1.945159 g / cm^3
# Si number density = 19.495965 Si / 1000 Ang^3
#
#
#
# Elastic Constant Matrix: (Units=GPa)
#
#
# Indices 1 2 3 4 5 6 
#
# 1 78.2052 -3.3470 -1.8513 0.0000 0.0000 0.0000
# 2 -3.3470 29.1955 -14.2939 0.0000 0.0000 0.0000
# 3 -1.8513 -14.2939 53.8433 0.0000 0.0000 0.0000
# 4 0.0000 0.0000 0.0000 29.6650 0.0000 0.0000
# 5 0.0000 0.0000 0.0000 0.0000 25.4340 0.0000
# 6 0.0000 0.0000 0.0000 0.0000 0.0000 11.9614
#
#
#
# Elastic Compliance Matrix: (Units=1/GPa)
#
#
# Indices 1 2 3 4 5 6 
#
# 1 0.012893 0.001948 0.000961 0.000000 0.000000 0.000000
# 2 0.001948 0.039663 0.010596 0.000000 0.000000 0.000000
# 3 0.000961 0.010596 0.021419 0.000000 0.000000 0.000000
# 4 0.000000 0.000000 0.000000 0.033710 0.000000 0.000000
# 5 0.000000 0.000000 0.000000 0.000000 0.039317 0.000000
# 6 0.000000 0.000000 0.000000 0.000000 0.000000 0.083603
#
#
# Mechanical properties :
#
#
# Convention : Reuss Voigt Hill
#
# Bulk Modulus (GPa) = 9.90242 13.58440 11.74341
# Shear Modulus (GPa) = 21.07432 25.46115 23.26773
#
# Velocity S-wave (km/s) = 3.29136 3.61774 3.45840
# Velocity P-wave (km/s) = 4.41976 4.94304 4.68871
#
# Compressibility (1/GPa) = 0.10098541
#
# Stress axis : x y z
#
# Youngs Moduli (GPa) = 77.56153 25.21227 46.68858
#
# Poissons Ratio (x) = -0.04912 -0.04485
# Poissons Ratio (y) = -0.15112 -0.49473
# Poissons Ratio (z) = -0.07450 -0.26716
#
# Static dielectric constant tensor:
#      x y z
#    x 1.652620 0.000000 0.000000 
#    y 0.000000 1.701080 0.000000 
#    z 0.000000 0.000000 1.751590 
# 
# From -- ./inp_files/39231.got.cif
#   From: 2010.05.17/outbox.cif.g08.bks.cpg/sg64_20_cif.got.tgz:39231.got - 2010.06.03 16:29:19.
