data_PCOD9478858
_publ_section_title
;
Structure prediction by ZEFSAII (Michael W. Deem and Ramdas Pophale) SiO2 
 PCOD9478858
Probable space group: C M C A
;
_chemical_formula_sum "Si O2"
_cell_formula_units_Z 112
_cell_length_a 25.856015
_cell_length_b 13.468846
_cell_length_c 18.968645
_cell_angle_alpha 90.000000
_cell_angle_beta 90.000000
_cell_angle_gamma 90.000000
_cell_volume 6605.843600
_symmetry_space_group_name_H-M "C M C A"
_symmetry_group_IT_number 64
_symmetry_cell_setting 'orthorhombic'
loop_
_space_group_symop_operation_xyz
x,y,z
-x,1/2-y,1/2+z
x,-y,-z
-x,1/2+y,1/2-z
-x,-y,-z
x,1/2+y,1/2-z
-x,y,z
x,1/2-y,1/2+z
1/2+x,1/2+y,z
1/2-x,-y,1/2+z
1/2+x,1/2-y,-z
1/2-x,y,1/2-z
1/2-x,1/2-y,-z
1/2+x,y,1/2-z
1/2-x,1/2+y,z
1/2+x,-y,1/2+z
loop_
_atom_site_type_symbol
_atom_site_label
_atom_site_fract_x
_atom_site_fract_y
_atom_site_fract_z
Si Si1 0.121652 0.221566 0.234154
Si Si2 0.221482 0.710906 0.068964
Si Si3 0.439479 0.418060 0.658329
Si Si4 0.785570 0.592608 0.320077
Si Si5 0.115939 0.614544 0.016115
Si Si6 0.061218 0.146328 0.628958
Si Si7 0.796884 0.638289 0.694039
O O1 0.095717 0.146076 0.289388
O O2 0.164787 0.162045 0.190025
O O3 0.079713 0.271222 0.183570
O O4 0.152630 0.309676 0.273437
O O5 0.252788 0.626586 0.112148
O O6 0.165846 0.670540 0.045298
O O7 0.216575 0.800476 0.124334
O O8 0.250000 0.750000 0.000000
O O9 0.500000 0.403492 0.673672
O O10 0.426414 0.386788 0.578222
O O11 0.427752 0.536039 0.660210
O O12 0.750000 0.605708 0.250000
O O13 0.802001 0.477920 0.322012
O O14 0.129988 0.500000 0.000000
O O15 0.092560 0.656560 0.943890
O O16 0.000000 0.150702 0.615313
O O17 0.750000 0.648657 0.750000
#
# Coordination Sequence:
#
# PCOD9478858 Si02
#       7
#    16  16  16  16  16  16  16
#     4  12  19  38  56  87 110 151 186 231 284 338
#     4  12  23  37  55  86 116 152 191 226 277 339
#     4  10  20  36  58  83 111 143 188 240 286 335
#     4  11  22  38  57  82 117 151 190 233 275 334
#     4  10  21  36  57  81 113 146 184 235 284 329
#     4  10  22  37  58  86 111 142 186 238 291 334
#     4  11  23  38  58  81 117 154 187 230 280 335
#
# _framework density 16.954685000000001
#
# number of rings (size 3 to 8) (size 9 to 14) (size 15 to 20)
#    0.000    1.143    4.286    2.571    2.000    4.000 
#    0.000    0.000    0.000    0.000    0.000    1.000 
#    0.000    0.000    0.000    0.000    0.000    0.000 
#
# Total GULP energy -312792.894465 kJ/mol
# GULP energy per Si atom -5585.587401 kJ/mol
# Density = 1.691610 g / cm^3
# Si number density = 16.954685 Si / 1000 Ang^3
#
#
#
# Elastic Constant Matrix: (Units=GPa)
#
#
# Indices 1 2 3 4 5 6 
#
# 1 80.1470 46.3465 38.5385 0.0000 0.0000 0.0000
# 2 46.3465 100.7968 48.6475 0.0000 0.0000 0.0000
# 3 38.5385 48.6475 104.8676 0.0000 0.0000 0.0000
# 4 0.0000 0.0000 0.0000 16.9772 0.0000 0.0000
# 5 0.0000 0.0000 0.0000 0.0000 34.7215 0.0000
# 6 0.0000 0.0000 0.0000 0.0000 0.0000 27.4317
#
#
#
# Elastic Compliance Matrix: (Units=1/GPa)
#
#
# Indices 1 2 3 4 5 6 
#
# 1 0.017978 -0.006542 -0.003572 0.000000 0.000000 0.000000
# 2 -0.006542 0.015164 -0.004630 0.000000 0.000000 0.000000
# 3 -0.003572 -0.004630 0.012996 0.000000 0.000000 0.000000
# 4 0.000000 0.000000 0.000000 0.058903 0.000000 0.000000
# 5 0.000000 0.000000 0.000000 0.000000 0.028801 0.000000
# 6 0.000000 0.000000 0.000000 0.000000 0.000000 0.036454
#
#
# Mechanical properties :
#
#
# Convention : Reuss Voigt Hill
#
# Bulk Modulus (GPa) = 60.06232 61.43070 60.74651
# Shear Modulus (GPa) = 24.35062 25.97800 25.16431
#
# Velocity S-wave (km/s) = 3.79386 3.91858 3.85672
# Velocity P-wave (km/s) = 7.39549 7.53556 7.46585
#
# Compressibility (1/GPa) = 0.01664937
#
# Stress axis : x y z
#
# Youngs Moduli (GPa) = 55.62416 65.94688 76.94472
#
# Poissons Ratio (x) = 0.43145 0.27483
# Poissons Ratio (y) = 0.36391 0.35626
# Poissons Ratio (z) = 0.19868 0.30534
#
# Static dielectric constant tensor:
#      x y z
#    x 1.561860 0.000000 0.000000 
#    y 0.000000 1.563770 0.000000 
#    z 0.000000 0.000000 1.558440 
# 
# From -- ./inp_files/28080.got.cif
#   From: 2010.05.17/outbox.cif.g08.bks.cpg/sg64_15_cif.got.tgz:28080.got - 2010.06.03 16:29:19.
