data_PCOD9478491
_publ_section_title
;
Structure prediction by ZEFSAII (Michael W. Deem and Ramdas Pophale) SiO2 
 PCOD9478491
Probable space group: C M C A
;
_chemical_formula_sum "Si O2"
_cell_formula_units_Z 64
_cell_length_a 8.742606
_cell_length_b 20.912441
_cell_length_c 19.636994
_cell_angle_alpha 90.000000
_cell_angle_beta 90.000000
_cell_angle_gamma 90.000000
_cell_volume 3590.216535
_symmetry_space_group_name_H-M "C M C A"
_symmetry_group_IT_number 64
_symmetry_cell_setting 'orthorhombic'
loop_
_space_group_symop_operation_xyz
x,y,z
-x,1/2-y,1/2+z
x,-y,-z
-x,1/2+y,1/2-z
-x,-y,-z
x,1/2+y,1/2-z
-x,y,z
x,1/2-y,1/2+z
1/2+x,1/2+y,z
1/2-x,-y,1/2+z
1/2+x,1/2-y,-z
1/2-x,y,1/2-z
1/2-x,1/2-y,-z
1/2+x,y,1/2-z
1/2-x,1/2+y,z
1/2+x,-y,1/2+z
loop_
_atom_site_type_symbol
_atom_site_label
_atom_site_fract_x
_atom_site_fract_y
_atom_site_fract_z
Si Si1 0.317027 0.564858 0.960288
Si Si2 0.682475 0.312815 0.535783
Si Si3 0.317746 0.755114 0.821596
Si Si4 0.682663 0.886620 0.176520
O O1 0.500000 0.568232 0.952689
O O2 0.241725 0.570925 0.885925
O O3 0.277164 0.500000 0.000000
O O4 0.259417 0.625014 0.004130
O O5 0.500000 0.315395 0.524602
O O6 0.750000 0.250000 0.500000
O O7 0.711272 0.302601 0.616025
O O8 0.500000 0.745366 0.815640
O O9 0.250000 0.777833 0.750000
O O10 0.242300 0.685943 0.836127
O O11 0.500000 0.886280 0.179152
O O12 0.750000 0.905902 0.250000
#
# Coordination Sequence:
#
# PCOD9478491 Si02
#       4
#    16  16  16  16
#     4  11  24  41  60  85 119 157 199 246 295 349
#     4  11  22  36  59  87 117 152 193 242 291 350
#     4  10  20  34  55  85 118 150 191 239 292 348
#     4  11  21  35  59  86 116 152 193 241 291 349
#
# _framework density 17.826222000000001
#
# number of rings (size 3 to 8) (size 9 to 14) (size 15 to 20)
#    0.000    1.250    2.500    6.000    0.000    5.000 
#    0.000    1.250    0.000    3.000    0.000    0.000 
#    0.000    0.000    0.000    0.000    0.000    0.000 
#
# Total GULP energy -178840.373432 kJ/mol
# GULP energy per Si atom -5588.761670 kJ/mol
# Density = 1.778565 g / cm^3
# Si number density = 17.826222 Si / 1000 Ang^3
#
#
#
# Elastic Constant Matrix: (Units=GPa)
#
#
# Indices 1 2 3 4 5 6 
#
# 1 109.6798 52.3849 82.6839 0.0000 0.0000 0.0000
# 2 52.3849 108.2657 75.1057 0.0000 0.0000 0.0000
# 3 82.6839 75.1057 165.6014 0.0000 0.0000 0.0000
# 4 0.0000 0.0000 0.0000 24.6140 0.0000 0.0000
# 5 0.0000 0.0000 0.0000 0.0000 35.9906 0.0000
# 6 0.0000 0.0000 0.0000 0.0000 0.0000 23.8427
#
#
#
# Elastic Compliance Matrix: (Units=1/GPa)
#
#
# Indices 1 2 3 4 5 6 
#
# 1 0.015288 -0.003067 -0.006242 0.000000 0.000000 0.000000
# 2 -0.003067 0.014092 -0.004860 0.000000 0.000000 0.000000
# 3 -0.006242 -0.004860 0.011359 0.000000 0.000000 0.000000
# 4 0.000000 0.000000 0.000000 0.040627 0.000000 0.000000
# 5 0.000000 0.000000 0.000000 0.000000 0.027785 0.000000
# 6 0.000000 0.000000 0.000000 0.000000 0.000000 0.041942
#
#
# Mechanical properties :
#
#
# Convention : Reuss Voigt Hill
#
# Bulk Modulus (GPa) = 80.63652 89.32179 84.97916
# Shear Modulus (GPa) = 27.23827 28.44760 27.84294
#
# Velocity S-wave (km/s) = 3.91319 3.99912 3.95639
# Velocity P-wave (km/s) = 8.10866 8.45811 8.28523
#
# Compressibility (1/GPa) = 0.01240133
#
# Stress axis : x y z
#
# Youngs Moduli (GPa) = 65.41019 70.96331 88.03207
#
# Poissons Ratio (x) = 0.21763 0.54953
# Poissons Ratio (y) = 0.20060 0.42782
# Poissons Ratio (z) = 0.40832 0.34487
#
# Static dielectric constant tensor:
#      x y z
#    x 1.597160 0.000000 0.000000 
#    y 0.000000 1.569300 0.000000 
#    z 0.000000 0.000000 1.629200 
# 
# From -- ./inp_files/29247.got.cif
#   From: 2010.05.17/outbox.cif.g08.bks.cpg/sg64_15_cif.got.tgz:29247.got - 2010.06.03 16:29:19.
