data_PCOD9478067
_publ_section_title
;
Structure prediction by ZEFSAII (Michael W. Deem and Ramdas Pophale) SiO2 
 PCOD9478067
Probable space group: C M C A
;
_chemical_formula_sum "Si O2"
_cell_formula_units_Z 96
_cell_length_a 22.282530
_cell_length_b 20.505826
_cell_length_c 11.643362
_cell_angle_alpha 90.000000
_cell_angle_beta 90.000000
_cell_angle_gamma 90.000000
_cell_volume 5320.104561
_symmetry_space_group_name_H-M "C M C A"
_symmetry_group_IT_number 64
_symmetry_cell_setting 'orthorhombic'
loop_
_space_group_symop_operation_xyz
x,y,z
-x,1/2-y,1/2+z
x,-y,-z
-x,1/2+y,1/2-z
-x,-y,-z
x,1/2+y,1/2-z
-x,y,z
x,1/2-y,1/2+z
1/2+x,1/2+y,z
1/2-x,-y,1/2+z
1/2+x,1/2-y,-z
1/2-x,y,1/2-z
1/2-x,1/2-y,-z
1/2+x,y,1/2-z
1/2-x,1/2+y,z
1/2+x,-y,1/2+z
loop_
_atom_site_type_symbol
_atom_site_label
_atom_site_fract_x
_atom_site_fract_y
_atom_site_fract_z
Si Si1 0.162475 0.188654 0.980776
Si Si2 0.928130 0.314864 0.685738
Si Si3 0.933735 0.554421 0.870836
Si Si4 0.389907 0.420052 0.623333
Si Si5 0.870931 0.672594 0.770824
Si Si6 0.200201 0.666058 0.001925
O O1 0.152412 0.159814 0.855863
O O2 0.166952 0.266905 0.962869
O O3 0.110276 0.170727 0.070148
O O4 0.229217 0.170919 0.022614
O O5 0.915252 0.370375 0.781775
O O6 0.900370 0.244558 0.722308
O O7 0.000000 0.310041 0.667314
O O8 0.888949 0.495519 0.839873
O O9 0.920269 0.619201 0.801690
O O10 0.000000 0.529170 0.847662
O O11 0.927969 0.574974 0.004644
O O12 0.327573 0.391628 0.576552
O O13 0.819120 0.662852 0.867641
#
# Coordination Sequence:
#
# PCOD9478067 Si02
#       6
#    16  16  16  16  16  16
#     4  10  20  36  56  86 115 147 188 239 298 344
#     4  11  22  34  55  87 120 151 189 236 288 349
#     4  10  20  35  60  84 115 155 194 238 288 340
#     4  10  19  37  58  84 110 152 198 240 280 336
#     4  10  20  36  56  86 115 150 191 240 290 342
#     4   9  19  35  61  82 108 148 196 241 284 341
#
# _framework density 18.044757000000001
#
# number of rings (size 3 to 8) (size 9 to 14) (size 15 to 20)
#    0.000    2.000    1.667    3.000    0.000    2.000 
#    0.000    0.833   25.667    2.000    0.000    0.000 
#    0.000    0.000    0.000    0.000    0.000    0.000 
#
# Total GULP energy -267401.349618 kJ/mol
# GULP energy per Si atom -5570.861450 kJ/mol
# Density = 1.800369 g / cm^3
# Si number density = 18.044757 Si / 1000 Ang^3
#
#
#
# Elastic Constant Matrix: (Units=GPa)
#
#
# Indices 1 2 3 4 5 6 
#
# 1 58.8532 11.6753 29.0416 0.0000 0.0000 0.0000
# 2 11.6753 80.8223 27.0469 0.0000 0.0000 0.0000
# 3 29.0416 27.0469 66.2066 0.0000 0.0000 0.0000
# 4 0.0000 0.0000 0.0000 27.1936 0.0000 0.0000
# 5 0.0000 0.0000 0.0000 0.0000 8.3746 0.0000
# 6 0.0000 0.0000 0.0000 0.0000 0.0000 19.8830
#
#
#
# Elastic Compliance Matrix: (Units=1/GPa)
#
#
# Indices 1 2 3 4 5 6 
#
# 1 0.021686 0.000059 -0.009536 0.000000 0.000000 0.000000
# 2 0.000059 0.014332 -0.005881 0.000000 0.000000 0.000000
# 3 -0.009536 -0.005881 0.021690 0.000000 0.000000 0.000000
# 4 0.000000 0.000000 0.000000 0.036773 0.000000 0.000000
# 5 0.000000 0.000000 0.000000 0.000000 0.119408 0.000000
# 6 0.000000 0.000000 0.000000 0.000000 0.000000 0.050294
#
#
# Mechanical properties :
#
#
# Convention : Reuss Voigt Hill
#
# Bulk Modulus (GPa) = 37.04978 37.93443 37.49211
# Shear Modulus (GPa) = 16.45291 20.29813 18.37552
#
# Velocity S-wave (km/s) = 3.02285 3.35756 3.19459
# Velocity P-wave (km/s) = 5.72366 6.00824 5.86767
#
# Compressibility (1/GPa) = 0.02699071
#
# Stress axis : x y z
#
# Youngs Moduli (GPa) = 46.11351 69.77223 46.10455
#
# Poissons Ratio (x) = -0.00409 0.43967
# Poissons Ratio (y) = -0.00271 0.27113
# Poissons Ratio (z) = 0.43976 0.41032
#
# Static dielectric constant tensor:
#      x y z
#    x 1.615440 0.000000 0.000000 
#    y 0.000000 1.645450 0.000000 
#    z 0.000000 0.000000 1.622660 
# 
# From -- ./inp_files/17334.got.cif
#   From: 2010.05.17/outbox.cif.g08.bks.cpg/sg64_9_cif.got.tgz:17334.got - 2010.06.03 16:29:19.
