data_PCOD9478911
_publ_section_title
;
Structure prediction by ZEFSAII (Michael W. Deem and Ramdas Pophale) SiO2 
 PCOD9478911
Probable space group: C M C A
;
_chemical_formula_sum "Si O2"
_cell_formula_units_Z 112
_cell_length_a 15.242404
_cell_length_b 14.960053
_cell_length_c 27.062647
_cell_angle_alpha 90.000000
_cell_angle_beta 90.000000
_cell_angle_gamma 90.000000
_cell_volume 6171.018854
_symmetry_space_group_name_H-M "C M C A"
_symmetry_group_IT_number 64
_symmetry_cell_setting 'orthorhombic'
loop_
_space_group_symop_operation_xyz
x,y,z
-x,1/2-y,1/2+z
x,-y,-z
-x,1/2+y,1/2-z
-x,-y,-z
x,1/2+y,1/2-z
-x,y,z
x,1/2-y,1/2+z
1/2+x,1/2+y,z
1/2-x,-y,1/2+z
1/2+x,1/2-y,-z
1/2-x,y,1/2-z
1/2-x,1/2-y,-z
1/2+x,y,1/2-z
1/2-x,1/2+y,z
1/2+x,-y,1/2+z
loop_
_atom_site_type_symbol
_atom_site_label
_atom_site_fract_x
_atom_site_fract_y
_atom_site_fract_z
Si Si1 0.736884 0.415515 0.375836
Si Si2 0.178254 0.146423 0.207110
Si Si3 0.397622 0.841937 0.205088
Si Si4 0.809698 0.222383 0.953900
Si Si5 0.257609 0.115126 0.100363
Si Si6 0.098374 0.902128 0.976401
Si Si7 0.100859 0.954625 0.195178
O O1 0.664974 0.379753 0.337615
O O2 0.756132 0.345775 0.419191
O O3 0.710440 0.513246 0.395806
O O4 0.828455 0.428554 0.346230
O O5 0.250000 0.138065 0.250000
O O6 0.126087 0.238346 0.213006
O O7 0.228232 0.146360 0.154589
O O8 0.117709 0.058627 0.207305
O O9 0.500000 0.851464 0.192213
O O10 0.381950 0.896528 0.255692
O O11 0.823909 0.312715 0.922843
O O12 0.750000 0.250000 0.000000
O O13 0.888557 0.168756 0.979261
O O14 0.170937 0.113303 0.065614
O O15 0.000000 0.896763 0.956010
O O16 0.111678 0.000000 0.000000
O O17 0.000000 0.940732 0.179731
#
# Coordination Sequence:
#
# PCOD9478911 Si02
#       7
#    16  16  16  16  16  16  16
#     4  11  20  38  60  83 119 156 196 249 302 361
#     4  11  21  37  62  88 118 157 199 242 300 364
#     4  11  23  39  58  85 120 160 203 248 296 354
#     4  10  21  37  55  86 114 149 196 240 300 363
#     4  10  21  36  60  87 114 156 196 241 297 369
#     4  10  20  36  59  88 121 152 192 254 309 353
#     4  10  22  37  57  87 119 154 198 245 297 361
#
# _framework density 18.149353000000001
#
# number of rings (size 3 to 8) (size 9 to 14) (size 15 to 20)
#    0.000    1.571    2.857    3.429    0.000    3.429 
#    0.000    0.714    0.000    0.000    0.000    4.000 
#    0.000    0.000    0.000    0.000    0.000    0.000 
#
# Total GULP energy -312626.409321 kJ/mol
# GULP energy per Si atom -5582.614452 kJ/mol
# Density = 1.810804 g / cm^3
# Si number density = 18.149353 Si / 1000 Ang^3
#
#
#
# Elastic Constant Matrix: (Units=GPa)
#
#
# Indices 1 2 3 4 5 6 
#
# 1 57.1518 27.5668 29.6355 0.0000 0.0000 0.0000
# 2 27.5668 134.4654 49.1647 0.0000 0.0000 0.0000
# 3 29.6355 49.1647 87.7270 0.0000 0.0000 0.0000
# 4 0.0000 0.0000 0.0000 38.8559 0.0000 0.0000
# 5 0.0000 0.0000 0.0000 0.0000 17.7374 0.0000
# 6 0.0000 0.0000 0.0000 0.0000 0.0000 17.5191
#
#
#
# Elastic Compliance Matrix: (Units=1/GPa)
#
#
# Indices 1 2 3 4 5 6 
#
# 1 0.021731 -0.002227 -0.006093 0.000000 0.000000 0.000000
# 2 -0.002227 0.009582 -0.004617 0.000000 0.000000 0.000000
# 3 -0.006093 -0.004617 0.016045 0.000000 0.000000 0.000000
# 4 0.000000 0.000000 0.000000 0.025736 0.000000 0.000000
# 5 0.000000 0.000000 0.000000 0.000000 0.056378 0.000000
# 6 0.000000 0.000000 0.000000 0.000000 0.000000 0.057081
#
#
# Mechanical properties :
#
#
# Convention : Reuss Voigt Hill
#
# Bulk Modulus (GPa) = 46.54943 54.67535 50.61239
# Shear Modulus (GPa) = 22.76987 26.35429 24.56208
#
# Velocity S-wave (km/s) = 3.54585 3.81475 3.68276
# Velocity P-wave (km/s) = 6.51673 7.04228 6.78460
#
# Compressibility (1/GPa) = 0.02148254
#
# Stress axis : x y z
#
# Youngs Moduli (GPa) = 46.01729 104.36472 62.32477
#
# Poissons Ratio (x) = 0.23246 0.37973
# Poissons Ratio (y) = 0.10250 0.28778
# Poissons Ratio (z) = 0.28037 0.48190
#
# Static dielectric constant tensor:
#      x y z
#    x 1.586900 0.000000 0.000000 
#    y 0.000000 1.643610 0.000000 
#    z 0.000000 0.000000 1.612350 
# 
# From -- ./inp_files/45227.got.cif
#   From: 2010.05.17/outbox.cif.g08.bks.cpg/sg64_23_cif.got.tgz:45227.got - 2010.06.03 16:29:19.
