data_PCOD9478894
_publ_section_title
;
Structure prediction by ZEFSAII (Michael W. Deem and Ramdas Pophale) SiO2 
 PCOD9478894
Probable space group: C M C A
;
_chemical_formula_sum "Si O2"
_cell_formula_units_Z 68
_cell_length_a 27.813848
_cell_length_b 5.080796
_cell_length_c 20.854454
_cell_angle_alpha 90.000000
_cell_angle_beta 90.000000
_cell_angle_gamma 90.000000
_cell_volume 2947.078191
_symmetry_space_group_name_H-M "C M C A"
_symmetry_group_IT_number 64
_symmetry_cell_setting 'orthorhombic'
loop_
_space_group_symop_operation_xyz
x,y,z
-x,1/2-y,1/2+z
x,-y,-z
-x,1/2+y,1/2-z
-x,-y,-z
x,1/2+y,1/2-z
-x,y,z
x,1/2-y,1/2+z
1/2+x,1/2+y,z
1/2-x,-y,1/2+z
1/2+x,1/2-y,-z
1/2-x,y,1/2-z
1/2-x,1/2-y,-z
1/2+x,y,1/2-z
1/2-x,1/2+y,z
1/2+x,-y,1/2+z
loop_
_atom_site_type_symbol
_atom_site_label
_atom_site_fract_x
_atom_site_fract_y
_atom_site_fract_z
Si Si1 0.690122 0.261145 0.539981
Si Si2 0.721091 0.665513 0.822262
Si Si3 0.000000 0.500000 0.000000
Si Si4 0.085082 0.695917 0.562804
Si Si5 0.890418 0.949859 0.206141
O O1 0.711116 0.500000 0.500000
O O2 0.718903 0.179719 0.601505
O O3 0.636352 0.344534 0.561491
O O4 0.682467 0.000000 0.500000
O O5 0.764387 0.465298 0.806264
O O6 0.667983 0.570174 0.802746
O O7 0.041946 0.605841 0.049981
O O8 0.081044 0.500000 0.500000
O O9 0.086542 0.563877 0.634181
O O10 0.902954 0.706219 0.252551
#
# Coordination Sequence:
#
# PCOD9478894 Si02
#       5
#    16  16   4  16  16
#     4  10  20  36  58  89 134 178 219 279 348 406
#     4  11  23  37  59  94 131 178 239 287 327 395
#     4  12  22  44  80 106 132 172 228 294 342 426
#     4  10  24  43  73 106 139 178 237 284 353 425
#     4  11  26  46  71  99 145 194 230 287 356 414
#
# _framework density 23.073699999999999
#
# number of rings (size 3 to 8) (size 9 to 14) (size 15 to 20)
#    0.000    1.412    1.176    3.176    3.294    9.412 
#    0.000    1.176    0.000    0.000    0.000    0.000 
#    0.000    0.000    0.000    0.000    0.000    0.000 
#
# Total GULP energy -189324.524273 kJ/mol
# GULP energy per Si atom -5568.368361 kJ/mol
# Density = 2.302118 g / cm^3
# Si number density = 23.073700 Si / 1000 Ang^3
#
#
#
# Elastic Constant Matrix: (Units=GPa)
#
#
# Indices 1 2 3 4 5 6 
#
# 1 100.9850 -3.2161 14.3803 0.0000 0.0000 0.0000
# 2 -3.2161 86.4261 22.1025 0.0000 0.0000 0.0000
# 3 14.3803 22.1025 175.0893 0.0000 0.0000 0.0000
# 4 0.0000 0.0000 0.0000 73.1781 0.0000 0.0000
# 5 0.0000 0.0000 0.0000 0.0000 36.7207 0.0000
# 6 0.0000 0.0000 0.0000 0.0000 0.0000 119.2836
#
#
#
# Elastic Compliance Matrix: (Units=1/GPa)
#
#
# Indices 1 2 3 4 5 6 
#
# 1 0.010050 0.000605 -0.000902 0.000000 0.000000 0.000000
# 2 0.000605 0.011993 -0.001564 0.000000 0.000000 0.000000
# 3 -0.000902 -0.001564 0.005983 0.000000 0.000000 0.000000
# 4 0.000000 0.000000 0.000000 0.013665 0.000000 0.000000
# 5 0.000000 0.000000 0.000000 0.000000 0.027233 0.000000
# 6 0.000000 0.000000 0.000000 0.000000 0.000000 0.008383
#
#
# Mechanical properties :
#
#
# Convention : Reuss Voigt Hill
#
# Bulk Modulus (GPa) = 41.14483 47.67042 44.40763
# Shear Modulus (GPa) = 56.09777 67.78540 61.94158
#
# Velocity S-wave (km/s) = 4.93611 5.42601 5.18685
# Velocity P-wave (km/s) = 7.09631 7.74341 7.42691
#
# Compressibility (1/GPa) = 0.02430439
#
# Stress axis : x y z
#
# Youngs Moduli (GPa) = 99.50128 83.38236 167.14547
#
# Poissons Ratio (x) = -0.05041 0.15072
# Poissons Ratio (y) = -0.06016 0.26135
# Poissons Ratio (z) = 0.08973 0.13038
#
# Static dielectric constant tensor:
#      x y z
#    x 1.866530 0.000000 0.000000 
#    y 0.000000 1.865090 0.000000 
#    z 0.000000 0.000000 1.897190 
# 
# From -- ./inp_files/41731.got.cif
#   From: 2010.05.17/outbox.cif.g08.bks.cpg/sg64_21_cif.got.tgz:41731.got - 2010.06.03 16:29:19.
