data_PCOD9478696
_publ_section_title
;
Structure prediction by ZEFSAII (Michael W. Deem and Ramdas Pophale) SiO2 
 PCOD9478696
Probable space group: C M C A
;
_chemical_formula_sum "Si O2"
_cell_formula_units_Z 96
_cell_length_a 16.359601
_cell_length_b 13.604563
_cell_length_c 20.115299
_cell_angle_alpha 90.000000
_cell_angle_beta 90.000000
_cell_angle_gamma 90.000000
_cell_volume 4476.965997
_symmetry_space_group_name_H-M "C M C A"
_symmetry_group_IT_number 64
_symmetry_cell_setting 'orthorhombic'
loop_
_space_group_symop_operation_xyz
x,y,z
-x,1/2-y,1/2+z
x,-y,-z
-x,1/2+y,1/2-z
-x,-y,-z
x,1/2+y,1/2-z
-x,y,z
x,1/2-y,1/2+z
1/2+x,1/2+y,z
1/2-x,-y,1/2+z
1/2+x,1/2-y,-z
1/2-x,y,1/2-z
1/2-x,1/2-y,-z
1/2+x,y,1/2-z
1/2-x,1/2+y,z
1/2+x,-y,1/2+z
loop_
_atom_site_type_symbol
_atom_site_label
_atom_site_fract_x
_atom_site_fract_y
_atom_site_fract_z
Si Si1 0.409245 0.157383 0.989100
Si Si2 0.594602 0.857881 0.764802
Si Si3 0.642643 0.237468 0.368184
Si Si4 0.328724 0.256818 0.614082
Si Si5 0.815309 0.050778 0.692625
Si Si6 0.239712 0.558680 0.561026
O O1 0.500000 0.112046 0.984159
O O2 0.389893 0.190118 0.063750
O O3 0.327068 0.098564 0.968209
O O4 0.406949 0.246257 0.935682
O O5 0.500000 0.845587 0.779326
O O6 0.610877 0.835168 0.687714
O O7 0.643451 0.780738 0.811352
O O8 0.623130 0.967622 0.782953
O O9 0.734293 0.210346 0.390056
O O10 0.647163 0.345806 0.332266
O O11 0.318602 0.145164 0.588184
O O12 0.750000 0.071153 0.750000
O O13 0.768381 0.006460 0.628493
O O14 0.201968 0.500000 0.500000
#
# Coordination Sequence:
#
# PCOD9478696 Si02
#       6
#    16  16  16  16  16  16
#     4  10  20  35  58  86 116 147 184 240 298 342
#     4  12  24  37  59  88 118 152 191 243 298 345
#     4  10  21  40  60  83 117 157 196 238 286 349
#     4  10  20  37  59  82 112 150 195 236 281 343
#     4  10  21  37  59  84 113 153 198 240 285 345
#     4  10  21  36  57  84 113 152 195 239 286 343
#
# _framework density 21.443093000000001
#
# number of rings (size 3 to 8) (size 9 to 14) (size 15 to 20)
#    0.000    2.000    0.000    7.500    0.000    5.000 
#    0.000    0.000    0.000    2.000    0.000    0.000 
#    0.000    1.333    0.000    0.000    0.000    0.000 
#
# Total GULP energy -267793.835394 kJ/mol
# GULP energy per Si atom -5579.038237 kJ/mol
# Density = 2.139429 g / cm^3
# Si number density = 21.443093 Si / 1000 Ang^3
#
#
#
# Elastic Constant Matrix: (Units=GPa)
#
#
# Indices 1 2 3 4 5 6 
#
# 1 71.5033 1.8248 -9.1771 0.0000 0.0000 0.0000
# 2 1.8248 51.1430 -6.6621 0.0000 0.0000 0.0000
# 3 -9.1771 -6.6621 74.4294 0.0000 0.0000 0.0000
# 4 0.0000 0.0000 0.0000 6.3866 0.0000 0.0000
# 5 0.0000 0.0000 0.0000 0.0000 17.4684 0.0000
# 6 0.0000 0.0000 0.0000 0.0000 0.0000 -1.5976
#
#
#
# Elastic Compliance Matrix: (Units=1/GPa)
#
#
# Indices 1 2 3 4 5 6 
#
# 1 0.014214 -0.000282 0.001727 0.000000 0.000000 0.000000
# 2 -0.000282 0.019789 0.001737 0.000000 0.000000 0.000000
# 3 0.001727 0.001737 0.013804 0.000000 0.000000 0.000000
# 4 0.000000 0.000000 0.000000 0.156578 0.000000 0.000000
# 5 0.000000 0.000000 0.000000 0.000000 0.057246 0.000000
# 6 0.000000 0.000000 0.000000 0.000000 0.000000 -0.625953
#
#
# Mechanical properties :
#
#
# Convention : Reuss Voigt Hill
#
# Bulk Modulus (GPa) = 18.46009 18.78301 18.62155
# Shear Modulus (GPa) = -14.17928 18.52415 2.17244
#
# Velocity S-wave (km/s) = -2.57427 2.94236 1.00763
# Velocity P-wave (km/s) = 0.45636 4.50797 3.17124
#
# Compressibility (1/GPa) = 0.05417093
#
# Stress axis : x y z
#
# Youngs Moduli (GPa) = 70.35190 50.53236 72.44292
#
# Poissons Ratio (x) = 0.01426 -0.12513
# Poissons Ratio (y) = 0.01985 -0.12580
# Poissons Ratio (z) = -0.12152 -0.08775
#
# Static dielectric constant tensor:
#      x y z
#    x 1.762120 0.000000 0.000000 
#    y 0.000000 1.867130 0.000000 
#    z 0.000000 0.000000 1.788160 
# 
# From -- ./inp_files/39229.got.cif
#   From: 2010.05.17/outbox.cif.g08.bks.cpg/sg64_20_cif.got.tgz:39229.got - 2010.06.03 16:29:19.
