data_PCOD9478742
_publ_section_title
;
Structure prediction by ZEFSAII (Michael W. Deem and Ramdas Pophale) SiO2 
 PCOD9478742
Probable space group: C M C A
;
_chemical_formula_sum "Si O2"
_cell_formula_units_Z 64
_cell_length_a 7.723953
_cell_length_b 21.926234
_cell_length_c 20.760141
_cell_angle_alpha 90.000000
_cell_angle_beta 90.000000
_cell_angle_gamma 90.000000
_cell_volume 3515.879370
_symmetry_space_group_name_H-M "C M C A"
_symmetry_group_IT_number 64
_symmetry_cell_setting 'orthorhombic'
loop_
_space_group_symop_operation_xyz
x,y,z
-x,1/2-y,1/2+z
x,-y,-z
-x,1/2+y,1/2-z
-x,-y,-z
x,1/2+y,1/2-z
-x,y,z
x,1/2-y,1/2+z
1/2+x,1/2+y,z
1/2-x,-y,1/2+z
1/2+x,1/2-y,-z
1/2-x,y,1/2-z
1/2-x,1/2-y,-z
1/2+x,y,1/2-z
1/2-x,1/2+y,z
1/2+x,-y,1/2+z
loop_
_atom_site_type_symbol
_atom_site_label
_atom_site_fract_x
_atom_site_fract_y
_atom_site_fract_z
Si Si1 0.294837 0.593882 0.324781
Si Si2 0.500000 0.401474 0.036604
Si Si3 0.500000 0.472036 0.901465
Si Si4 0.705938 0.764154 0.824799
Si Si5 0.696349 0.304138 0.451088
O O1 0.500000 0.585539 0.335665
O O2 0.250000 0.584425 0.250000
O O3 0.249813 0.664931 0.338305
O O4 0.171477 0.550320 0.364942
O O5 0.500000 0.455588 0.088596
O O6 0.667434 0.358513 0.041988
O O7 0.500000 0.436421 0.968951
O O8 0.500000 0.757670 0.832492
O O9 0.750000 0.751349 0.750000
O O10 0.793012 0.722407 0.878562
O O11 0.500000 0.322851 0.465946
O O12 0.750000 0.250000 0.500000
#
# Coordination Sequence:
#
# PCOD9478742 Si02
#       5
#    16   8   8  16  16
#     4  10  20  36  65  97 120 158 207 258 309 359
#     4  11  26  44  59  92 124 169 205 250 314 368
#     4  11  24  42  65  84 130 161 205 260 300 370
#     4  10  20  35  60  96 129 156 202 261 316 369
#     4  12  23  40  65  92 126 162 207 256 311 378
#
# _framework density 18.203126999999999
#
# number of rings (size 3 to 8) (size 9 to 14) (size 15 to 20)
#    0.000    1.250    3.750    2.250    3.500    4.000 
#    0.000    3.750    0.000    0.000    0.000    0.000 
#    0.000    0.000    0.000    0.000    0.000    0.000 
#
# Total GULP energy -178827.050573 kJ/mol
# GULP energy per Si atom -5588.345330 kJ/mol
# Density = 1.816170 g / cm^3
# Si number density = 18.203127 Si / 1000 Ang^3
#
#
#
# Elastic Constant Matrix: (Units=GPa)
#
#
# Indices 1 2 3 4 5 6 
#
# 1 142.8711 72.2959 28.8589 0.0000 0.0000 0.0000
# 2 72.2959 118.2684 50.2861 0.0000 0.0000 0.0000
# 3 28.8589 50.2861 53.8036 0.0000 0.0000 0.0000
# 4 0.0000 0.0000 0.0000 32.2327 0.0000 0.0000
# 5 0.0000 0.0000 0.0000 0.0000 24.2285 0.0000
# 6 0.0000 0.0000 0.0000 0.0000 0.0000 31.8503
#
#
#
# Elastic Compliance Matrix: (Units=1/GPa)
#
#
# Indices 1 2 3 4 5 6 
#
# 1 0.010145 -0.006452 0.000588 0.000000 0.000000 0.000000
# 2 -0.006452 0.018134 -0.013488 0.000000 0.000000 0.000000
# 3 0.000588 -0.013488 0.030877 0.000000 0.000000 0.000000
# 4 0.000000 0.000000 0.000000 0.031024 0.000000 0.000000
# 5 0.000000 0.000000 0.000000 0.000000 0.041274 0.000000
# 6 0.000000 0.000000 0.000000 0.000000 0.000000 0.031397
#
#
# Mechanical properties :
#
#
# Convention : Reuss Voigt Hill
#
# Bulk Modulus (GPa) = 48.89205 68.64722 58.76963
# Shear Modulus (GPa) = 23.99554 28.56243 26.27898
#
# Velocity S-wave (km/s) = 3.63465 3.96548 3.80366
# Velocity P-wave (km/s) = 6.67321 7.66553 7.18652
#
# Compressibility (1/GPa) = 0.02045323
#
# Stress axis : x y z
#
# Youngs Moduli (GPa) = 98.56852 55.14445 32.38673
#
# Poissons Ratio (x) = 0.35578 -0.01906
# Poissons Ratio (y) = 0.63594 0.43683
# Poissons Ratio (z) = -0.05799 0.74379
#
# Static dielectric constant tensor:
#      x y z
#    x 1.622700 0.000000 0.000000 
#    y 0.000000 1.597410 0.000000 
#    z 0.000000 0.000000 1.636890 
# 
# From -- ./inp_files/36319.got.cif
#   From: 2010.05.17/outbox.cif.g08.bks.cpg/sg64_19_cif.got.tgz:36319.got - 2010.06.03 16:29:19.
