data_PCOD9478595
_publ_section_title
;
Structure prediction by ZEFSAII (Michael W. Deem and Ramdas Pophale) SiO2 
 PCOD9478595
Probable space group: C M C A
;
_chemical_formula_sum "Si O2"
_cell_formula_units_Z 64
_cell_length_a 7.929905
_cell_length_b 25.912948
_cell_length_c 12.700180
_cell_angle_alpha 90.000000
_cell_angle_beta 90.000000
_cell_angle_gamma 90.000000
_cell_volume 2609.724630
_symmetry_space_group_name_H-M "C M C A"
_symmetry_group_IT_number 64
_symmetry_cell_setting 'orthorhombic'
loop_
_space_group_symop_operation_xyz
x,y,z
-x,1/2-y,1/2+z
x,-y,-z
-x,1/2+y,1/2-z
-x,-y,-z
x,1/2+y,1/2-z
-x,y,z
x,1/2-y,1/2+z
1/2+x,1/2+y,z
1/2-x,-y,1/2+z
1/2+x,1/2-y,-z
1/2-x,y,1/2-z
1/2-x,1/2-y,-z
1/2+x,y,1/2-z
1/2-x,1/2+y,z
1/2+x,-y,1/2+z
loop_
_atom_site_type_symbol
_atom_site_label
_atom_site_fract_x
_atom_site_fract_y
_atom_site_fract_z
Si Si1 0.201725 0.789736 0.362657
Si Si2 0.800896 0.676355 0.411647
Si Si3 0.808627 0.546581 0.864904
Si Si4 0.304372 0.065441 0.406032
O O1 0.250000 0.811765 0.250000
O O2 0.268440 0.730324 0.367797
O O3 0.276009 0.818566 0.462865
O O4 0.000000 0.788931 0.374303
O O5 0.732299 0.621299 0.374749
O O6 0.000000 0.675132 0.389084
O O7 0.750000 0.563716 0.750000
O O8 0.796709 0.484088 0.867221
O O9 0.000000 0.563333 0.883152
O O10 0.702301 0.563430 0.966204
O O11 0.500000 0.059854 0.373887
#
# Coordination Sequence:
#
# PCOD9478595 Si02
#       4
#    16  16  16  16
#     4  10  20  35  55  79 108 141 177 218 263 312
#     4   9  20  37  56  79 107 140 177 218 264 315
#     4  11  22  37  56  80 109 142 180 219 265 317
#     4  10  20  37  58  81 109 139 176 222 270 318
#
# _framework density 24.52366
#
# number of rings (size 3 to 8) (size 9 to 14) (size 15 to 20)
#    0.000    2.000    0.000    5.250    0.000    5.000 
#    0.000    2.500    0.000    0.000    0.000    0.000 
#    0.000    0.000    0.000    0.000    0.000    0.000 
#
# Total GULP energy -179026.317625 kJ/mol
# GULP energy per Si atom -5594.572426 kJ/mol
# Density = 2.446784 g / cm^3
# Si number density = 24.523660 Si / 1000 Ang^3
#
#
#
# Elastic Constant Matrix: (Units=GPa)
#
#
# Indices 1 2 3 4 5 6 
#
# 1 60.7419 -5.6269 -19.4738 0.0000 0.0000 0.0000
# 2 -5.6269 129.7260 -6.6014 0.0000 0.0000 0.0000
# 3 -19.4738 -6.6014 118.7427 0.0000 0.0000 0.0000
# 4 0.0000 0.0000 0.0000 -24.0437 0.0000 0.0000
# 5 0.0000 0.0000 0.0000 0.0000 17.6050 0.0000
# 6 0.0000 0.0000 0.0000 0.0000 0.0000 6.1596
#
#
#
# Elastic Compliance Matrix: (Units=1/GPa)
#
#
# Indices 1 2 3 4 5 6 
#
# 1 0.017482 0.000907 0.002918 0.000000 0.000000 0.000000
# 2 0.000907 0.007777 0.000581 0.000000 0.000000 0.000000
# 3 0.002918 0.000581 0.008932 0.000000 0.000000 0.000000
# 4 0.000000 0.000000 0.000000 -0.041591 0.000000 0.000000
# 5 0.000000 0.000000 0.000000 0.000000 0.056802 0.000000
# 6 0.000000 0.000000 0.000000 0.000000 0.000000 0.162348
#
#
# Mechanical properties :
#
#
# Convention : Reuss Voigt Hill
#
# Bulk Modulus (GPa) = 23.25416 27.31182 25.28299
# Shear Modulus (GPa) = 23.01232 22.67170 22.84201
#
# Velocity S-wave (km/s) = 3.06661 3.04383 3.05524
# Velocity P-wave (km/s) = 4.69486 4.84915 4.77263
#
# Compressibility (1/GPa) = 0.04300307
#
# Stress axis : x y z
#
# Youngs Moduli (GPa) = 57.20022 128.57672 111.95260
#
# Poissons Ratio (x) = -0.11659 -0.32663
# Poissons Ratio (y) = -0.05187 -0.06505
# Poissons Ratio (z) = -0.16688 -0.07471
#
# Static dielectric constant tensor:
#      x y z
#    x 1.837080 0.000000 0.000000 
#    y 0.000000 2.014950 0.000000 
#    z 0.000000 0.000000 1.952830 
# 
# From -- ./inp_files/12130.got.cif
#   From: 2010.05.17/outbox.cif.g08.bks.cpg/sg64_7_cif.got.tgz:12130.got - 2010.06.03 16:29:19.
