data_PCOD9478418
_publ_section_title
;
Structure prediction by ZEFSAII (Michael W. Deem and Ramdas Pophale) SiO2 
 PCOD9478418
Probable space group: C M C A
;
_chemical_formula_sum "Si O2"
_cell_formula_units_Z 96
_cell_length_a 9.048052
_cell_length_b 19.440862
_cell_length_c 31.575229
_cell_angle_alpha 90.000000
_cell_angle_beta 90.000000
_cell_angle_gamma 90.000000
_cell_volume 5554.143731
_symmetry_space_group_name_H-M "C M C A"
_symmetry_group_IT_number 64
_symmetry_cell_setting 'orthorhombic'
loop_
_space_group_symop_operation_xyz
x,y,z
-x,1/2-y,1/2+z
x,-y,-z
-x,1/2+y,1/2-z
-x,-y,-z
x,1/2+y,1/2-z
-x,y,z
x,1/2-y,1/2+z
1/2+x,1/2+y,z
1/2-x,-y,1/2+z
1/2+x,1/2-y,-z
1/2-x,y,1/2-z
1/2-x,1/2-y,-z
1/2+x,y,1/2-z
1/2-x,1/2+y,z
1/2+x,-y,1/2+z
loop_
_atom_site_type_symbol
_atom_site_label
_atom_site_fract_x
_atom_site_fract_y
_atom_site_fract_z
Si Si1 0.176826 0.538942 0.205227
Si Si2 0.824338 0.792650 0.462647
Si Si3 0.176672 0.045032 0.540626
Si Si4 0.823208 0.200887 0.294183
Si Si5 0.676677 0.792078 0.373827
Si Si6 0.324252 0.545147 0.870384
O O1 0.250000 0.518790 0.250000
O O2 0.209573 0.620170 0.198739
O O3 0.244270 0.495878 0.166847
O O4 0.000000 0.530521 0.207276
O O5 0.750000 0.750000 0.500000
O O6 0.794336 0.874298 0.467882
O O7 0.758076 0.772498 0.417100
O O8 0.000000 0.782711 0.463097
O O9 0.260531 0.025188 0.583594
O O10 0.000000 0.036995 0.547320
O O11 0.219297 0.000000 0.500000
O O12 0.750000 0.222151 0.250000
O O13 0.775080 0.246559 0.333956
O O14 0.000000 0.207774 0.290224
O O15 0.500000 0.783131 0.379583
O O16 0.703684 0.872950 0.365572
O O17 0.500000 0.533857 0.868757
#
# Coordination Sequence:
#
# PCOD9478418 Si02
#       6
#    16  16  16  16  16  16
#     4  10  20  35  54  75 102 134 169 208 249 297
#     4  10  20  34  53  76 102 133 168 208 253 300
#     4   9  19  36  55  74  99 134 174 211 249 297
#     4   9  19  35  54  75 100 132 168 207 249 293
#     4   9  19  36  54  74 102 134 169 208 250 297
#     4  10  20  34  53  77 105 134 166 208 255 302
#
# _framework density 17.284392
#
# number of rings (size 3 to 8) (size 9 to 14) (size 15 to 20)
#    0.000    2.500    0.000    1.500    0.000    5.000 
#    0.000    8.333    0.000    0.000    0.000    0.000 
#    0.000    0.000    0.000    0.000    0.000    0.000 
#
# Total GULP energy -267857.666663 kJ/mol
# GULP energy per Si atom -5580.368055 kJ/mol
# Density = 1.724505 g / cm^3
# Si number density = 17.284392 Si / 1000 Ang^3
#
#
#
# Elastic Constant Matrix: (Units=GPa)
#
#
# Indices 1 2 3 4 5 6 
#
# 1 56.1928 52.3433 86.8689 0.0000 0.0000 0.0000
# 2 52.3433 60.8808 101.3636 0.0000 0.0000 0.0000
# 3 86.8689 101.3636 217.2023 0.0000 0.0000 0.0000
# 4 0.0000 0.0000 0.0000 42.4161 0.0000 0.0000
# 5 0.0000 0.0000 0.0000 0.0000 40.9303 0.0000
# 6 0.0000 0.0000 0.0000 0.0000 0.0000 23.9240
#
#
#
# Elastic Compliance Matrix: (Units=1/GPa)
#
#
# Indices 1 2 3 4 5 6 
#
# 1 0.089381 -0.077708 0.000517 0.000000 0.000000 0.000000
# 2 -0.077708 0.141216 -0.034824 0.000000 0.000000 0.000000
# 3 0.000517 -0.034824 0.020649 0.000000 0.000000 0.000000
# 4 0.000000 0.000000 0.000000 0.023576 0.000000 0.000000
# 5 0.000000 0.000000 0.000000 0.000000 0.024432 0.000000
# 6 0.000000 0.000000 0.000000 0.000000 0.000000 0.041799
#
#
# Mechanical properties :
#
#
# Convention : Reuss Voigt Hill
#
# Bulk Modulus (GPa) = 36.74201 90.60306 63.67253
# Shear Modulus (GPa) = 8.70849 27.70075 18.20462
#
# Velocity S-wave (km/s) = 2.24706 4.00765 3.24889
# Velocity P-wave (km/s) = 5.29489 8.59929 7.14086
#
# Compressibility (1/GPa) = 0.02721680
#
# Stress axis : x y z
#
# Youngs Moduli (GPa) = 11.18810 7.08137 48.42955
#
# Poissons Ratio (x) = 0.55028 -0.02505
# Poissons Ratio (y) = 0.86940 1.68649
# Poissons Ratio (z) = -0.00579 0.24660
#
# Static dielectric constant tensor:
#      x y z
#    x 1.575370 0.000000 0.000000 
#    y 0.000000 1.576860 0.000000 
#    z 0.000000 0.000000 1.550760 
# 
# From -- ./inp_files/48059.got.cif
#   From: 2010.05.17/outbox.cif.g08.bks.cpg/sg64_25_cif.got.tgz:48059.got - 2010.06.03 16:29:19.
