data_PCOD9478843
_publ_section_title
;
Structure prediction by ZEFSAII (Michael W. Deem and Ramdas Pophale) SiO2 
 PCOD9478843
Probable space group: C M C A
;
_chemical_formula_sum "Si O2"
_cell_formula_units_Z 64
_cell_length_a 9.895140
_cell_length_b 34.582557
_cell_length_c 10.314042
_cell_angle_alpha 90.000000
_cell_angle_beta 90.000000
_cell_angle_gamma 90.000000
_cell_volume 3529.457365
_symmetry_space_group_name_H-M "C M C A"
_symmetry_group_IT_number 64
_symmetry_cell_setting 'orthorhombic'
loop_
_space_group_symop_operation_xyz
x,y,z
-x,1/2-y,1/2+z
x,-y,-z
-x,1/2+y,1/2-z
-x,-y,-z
x,1/2+y,1/2-z
-x,y,z
x,1/2-y,1/2+z
1/2+x,1/2+y,z
1/2-x,-y,1/2+z
1/2+x,1/2-y,-z
1/2-x,y,1/2-z
1/2-x,1/2-y,-z
1/2+x,y,1/2-z
1/2-x,1/2+y,z
1/2+x,-y,1/2+z
loop_
_atom_site_type_symbol
_atom_site_label
_atom_site_fract_x
_atom_site_fract_y
_atom_site_fract_z
Si Si1 0.838835 0.236869 0.623565
Si Si2 0.656941 0.643627 0.629135
Si Si3 0.500000 0.966966 0.892808
Si Si4 0.246187 0.908379 0.602154
Si Si5 0.000000 0.036119 0.095534
O O1 0.750000 0.248858 0.750000
O O2 0.750000 0.250000 0.500000
O O3 0.841758 0.190126 0.622471
O O4 0.000000 0.249223 0.624155
O O5 0.500000 0.631416 0.643614
O O6 0.750000 0.631579 0.750000
O O7 0.720023 0.625126 0.500390
O O8 0.373666 0.939034 0.908653
O O9 0.500000 0.980242 0.742912
O O10 0.500000 0.000000 0.000000
O O11 0.250000 0.893345 0.750000
O O12 0.375447 0.934911 0.577782
O O13 0.000000 0.000000 0.000000
#
# Coordination Sequence:
#
# PCOD9478843 Si02
#       5
#    16  16   8  16   8
#     4  10  21  39  61  89 122 158 199 245 293 350
#     4  10  22  39  60  87 119 153 194 240 286 340
#     4  10  20  36  58  78 109 150 187 238 289 340
#     4  10  21  38  57  82 115 151 190 237 291 343
#     4  10  22  36  54  84 113 144 193 240 289 350
#
# _framework density 18.133099999999999
#
# number of rings (size 3 to 8) (size 9 to 14) (size 15 to 20)
#    0.000    2.000    1.250    1.500    1.750    4.000 
#    0.000    0.000    0.000    0.000    0.000    0.000 
#    0.000    0.000    0.000    0.000    0.000    0.000 
#
# Total GULP energy -178398.002736 kJ/mol
# GULP energy per Si atom -5574.937585 kJ/mol
# Density = 1.809183 g / cm^3
# Si number density = 18.133100 Si / 1000 Ang^3
#
#
#
# Elastic Constant Matrix: (Units=GPa)
#
#
# Indices 1 2 3 4 5 6 
#
# 1 182.4093 24.7006 73.9413 0.0000 0.0000 0.0000
# 2 24.7006 14.0747 33.2461 0.0000 0.0000 0.0000
# 3 73.9413 33.2461 142.3319 0.0000 0.0000 0.0000
# 4 0.0000 0.0000 0.0000 43.2446 0.0000 0.0000
# 5 0.0000 0.0000 0.0000 0.0000 30.6599 0.0000
# 6 0.0000 0.0000 0.0000 0.0000 0.0000 87.9006
#
#
#
# Elastic Compliance Matrix: (Units=1/GPa)
#
#
# Indices 1 2 3 4 5 6 
#
# 1 0.007394 -0.008707 -0.001807 0.000000 0.000000 0.000000
# 2 -0.008707 0.168757 -0.034895 0.000000 0.000000 0.000000
# 3 -0.001807 -0.034895 0.016116 0.000000 0.000000 0.000000
# 4 0.000000 0.000000 0.000000 0.023124 0.000000 0.000000
# 5 0.000000 0.000000 0.000000 0.000000 0.032616 0.000000
# 6 0.000000 0.000000 0.000000 0.000000 0.000000 0.011376
#
#
# Mechanical properties :
#
#
# Convention : Reuss Voigt Hill
#
# Bulk Modulus (GPa) = 9.85731 66.95468 38.40599
# Shear Modulus (GPa) = 13.02022 46.15621 29.58821
#
# Velocity S-wave (km/s) = 2.68253 5.05068 4.04384
# Velocity P-wave (km/s) = 3.87846 8.42714 6.55969
#
# Compressibility (1/GPa) = 0.10144760
#
# Stress axis : x y z
#
# Youngs Moduli (GPa) = 135.24831 5.92567 62.05136
#
# Poissons Ratio (x) = 0.05159 0.11215
# Poissons Ratio (y) = 1.17757 2.16531
# Poissons Ratio (z) = 0.24444 0.20678
#
# Static dielectric constant tensor:
#      x y z
#    x 1.608070 0.000000 0.000000 
#    y 0.000000 1.581660 0.000000 
#    z 0.000000 0.000000 1.633420 
# 
# From -- ./inp_files/4658.got.cif
#   From: 2010.05.17/outbox.cif.g08.bks.cpg/sg64_3_cif.got.tgz:4658.got - 2010.06.03 16:29:19.
