data_PCOD9478191
_publ_section_title
;
Structure prediction by ZEFSAII (Michael W. Deem and Ramdas Pophale) SiO2 
 PCOD9478191
Probable space group: C M C A
;
_chemical_formula_sum "Si O2"
_cell_formula_units_Z 72
_cell_length_a 14.284362
_cell_length_b 26.091111
_cell_length_c 9.914197
_cell_angle_alpha 90.000000
_cell_angle_beta 90.000000
_cell_angle_gamma 90.000000
_cell_volume 3694.970407
_symmetry_space_group_name_H-M "C M C A"
_symmetry_group_IT_number 64
_symmetry_cell_setting 'orthorhombic'
loop_
_space_group_symop_operation_xyz
x,y,z
-x,1/2-y,1/2+z
x,-y,-z
-x,1/2+y,1/2-z
-x,-y,-z
x,1/2+y,1/2-z
-x,y,z
x,1/2-y,1/2+z
1/2+x,1/2+y,z
1/2-x,-y,1/2+z
1/2+x,1/2-y,-z
1/2-x,y,1/2-z
1/2-x,1/2-y,-z
1/2+x,y,1/2-z
1/2-x,1/2+y,z
1/2+x,-y,1/2+z
loop_
_atom_site_type_symbol
_atom_site_label
_atom_site_fract_x
_atom_site_fract_y
_atom_site_fract_z
Si Si1 0.250000 0.035157 0.250000
Si Si2 0.608234 0.049653 0.744614
Si Si3 0.669630 0.846651 0.136190
Si Si4 0.000000 0.276205 0.213098
Si Si5 0.000000 0.182380 0.021655
Si Si6 0.678048 0.107914 0.480267
O O1 0.300081 0.071115 0.357543
O O2 0.331470 0.997047 0.198272
O O3 0.500000 0.036686 0.721424
O O4 0.617269 0.099652 0.837376
O O5 0.656565 0.070033 0.606662
O O6 0.750000 0.839026 0.250000
O O7 0.592488 0.803365 0.152051
O O8 0.731275 0.856142 0.004378
O O9 0.000000 0.287451 0.375662
O O10 0.000000 0.219586 0.150854
O O11 0.910260 0.145380 0.026789
#
# Coordination Sequence:
#
# PCOD9478191 Si02
#       6
#     8  16  16   8   8  16
#     4  12  26  36  64 104 132 172 228 268 330 404
#     4  11  20  39  70  93 127 180 218 262 329 409
#     4  10  19  41  69  88 132 168 223 265 332 404
#     4  12  24  46  71 102 121 185 230 277 353 402
#     4  12  26  46  74  94 136 176 234 282 343 406
#     4  11  23  44  63  98 137 176 219 282 333 401
#
# _framework density 19.485948
#
# number of rings (size 3 to 8) (size 9 to 14) (size 15 to 20)
#    0.000    0.889   10.000    0.667    1.556    3.556 
#    4.000    1.111    0.000    0.000    0.000    0.000 
#    0.000    0.000    0.000    0.000    0.000    0.000 
#
# Total GULP energy -200815.686185 kJ/mol
# GULP energy per Si atom -5578.213505 kJ/mol
# Density = 1.944160 g / cm^3
# Si number density = 19.485948 Si / 1000 Ang^3
#
#
#
# Elastic Constant Matrix: (Units=GPa)
#
#
# Indices 1 2 3 4 5 6 
#
# 1 118.3479 30.5344 27.0258 0.0000 0.0000 0.0000
# 2 30.5344 87.4049 44.1006 0.0000 0.0000 0.0000
# 3 27.0258 44.1006 42.1817 0.0000 0.0000 0.0000
# 4 0.0000 0.0000 0.0000 35.2211 0.0000 0.0000
# 5 0.0000 0.0000 0.0000 0.0000 14.0001 0.0000
# 6 0.0000 0.0000 0.0000 0.0000 0.0000 126.3756
#
#
#
# Elastic Compliance Matrix: (Units=1/GPa)
#
#
# Indices 1 2 3 4 5 6 
#
# 1 0.009910 -0.000547 -0.005778 0.000000 0.000000 0.000000
# 2 -0.000547 0.024244 -0.024997 0.000000 0.000000 0.000000
# 3 -0.005778 -0.024997 0.053543 0.000000 0.000000 0.000000
# 4 0.000000 0.000000 0.000000 0.028392 0.000000 0.000000
# 5 0.000000 0.000000 0.000000 0.000000 0.071428 0.000000
# 6 0.000000 0.000000 0.000000 0.000000 0.000000 0.007913
#
#
# Mechanical properties :
#
#
# Convention : Reuss Voigt Hill
#
# Bulk Modulus (GPa) = 39.91322 50.13958 45.02640
# Shear Modulus (GPa) = 18.76705 44.87093 31.81899
#
# Velocity S-wave (km/s) = 3.10676 4.80389 4.04532
# Velocity P-wave (km/s) = 5.77900 7.52042 6.70647
#
# Compressibility (1/GPa) = 0.02505435
#
# Stress axis : x y z
#
# Youngs Moduli (GPa) = 100.90674 41.24676 18.67673
#
# Poissons Ratio (x) = 0.02256 0.10791
# Poissons Ratio (y) = 0.05519 0.46686
# Poissons Ratio (z) = 0.58300 1.03104
#
# Static dielectric constant tensor:
#      x y z
#    x 1.689140 0.000000 0.000000 
#    y 0.000000 1.666840 0.000000 
#    z 0.000000 0.000000 1.721380 
# 
# From -- ./inp_files/5880.got.cif
#   From: 2010.05.17/outbox.cif.g08.bks.cpg/sg64_3_cif.got.tgz:5880.got - 2010.06.03 16:29:19.
