data_PCOD9478440
_publ_section_title
;
Structure prediction by ZEFSAII (Michael W. Deem and Ramdas Pophale) SiO2 
 PCOD9478440
Probable space group: C M C A
;
_chemical_formula_sum "Si O2"
_cell_formula_units_Z 104
_cell_length_a 17.916164
_cell_length_b 25.487781
_cell_length_c 9.927810
_cell_angle_alpha 90.000000
_cell_angle_beta 90.000000
_cell_angle_gamma 90.000000
_cell_volume 4533.467567
_symmetry_space_group_name_H-M "C M C A"
_symmetry_group_IT_number 64
_symmetry_cell_setting 'orthorhombic'
loop_
_space_group_symop_operation_xyz
x,y,z
-x,1/2-y,1/2+z
x,-y,-z
-x,1/2+y,1/2-z
-x,-y,-z
x,1/2+y,1/2-z
-x,y,z
x,1/2-y,1/2+z
1/2+x,1/2+y,z
1/2-x,-y,1/2+z
1/2+x,1/2-y,-z
1/2-x,y,1/2-z
1/2-x,1/2-y,-z
1/2+x,y,1/2-z
1/2-x,1/2+y,z
1/2+x,-y,1/2+z
loop_
_atom_site_type_symbol
_atom_site_label
_atom_site_fract_x
_atom_site_fract_y
_atom_site_fract_z
Si Si1 0.910636 0.765080 0.376351
Si Si2 0.084578 0.514714 0.794557
Si Si3 0.589026 0.369827 0.201112
Si Si4 0.414114 0.302739 0.648214
Si Si5 0.368098 0.000000 0.500000
Si Si6 0.193867 0.608217 0.459588
Si Si7 0.150245 0.406105 0.853993
O O1 0.901528 0.818641 0.292251
O O2 0.877490 0.772762 0.523606
O O3 0.880079 0.717136 0.288338
O O4 0.000000 0.758326 0.397400
O O5 0.108561 0.576093 0.783081
O O6 0.084981 0.497556 0.636390
O O7 0.131340 0.467805 0.865326
O O8 0.000000 0.513656 0.845473
O O9 0.500000 0.374783 0.165528
O O10 0.639615 0.363313 0.066391
O O11 0.500000 0.286108 0.657655
O O12 0.414248 0.364424 0.619502
O O13 0.315417 0.950697 0.487263
O O14 0.167729 0.604512 0.304160
O O15 0.281881 0.615821 0.444127
#
# Coordination Sequence:
#
# PCOD9478440 Si02
#       7
#    16  16  16  16   8  16  16
#     4   9  20  38  60  88 118 150 198 255 303 352
#     4   9  16  29  53  86 115 148 190 244 301 345
#     4   9  18  35  61  87 116 150 201 258 298 349
#     4  10  21  38  61  88 118 155 200 247 301 361
#     4   8  15  30  50  76 111 150 196 242 279 344
#     4   9  19  34  54  82 119 157 197 239 295 354
#     4  10  20  34  53  83 125 159 190 241 293 365
#
# _framework density 22.940497000000001
#
# number of rings (size 3 to 8) (size 9 to 14) (size 15 to 20)
#    0.000    2.769    0.000    0.692    2.154    4.308 
#    2.769    1.538    0.000    3.692    0.000    0.000 
#    0.000    0.000    0.000    0.000    0.000    0.000 
#
# Total GULP energy -289542.130445 kJ/mol
# GULP energy per Si atom -5568.117893 kJ/mol
# Density = 2.288828 g / cm^3
# Si number density = 22.940497 Si / 1000 Ang^3
#
#
#
# Elastic Constant Matrix: (Units=GPa)
#
#
# Indices 1 2 3 4 5 6 
#
# 1 45.0111 17.4125 22.1985 0.0000 0.0000 0.0000
# 2 17.4125 85.8930 9.0497 0.0000 0.0000 0.0000
# 3 22.1985 9.0497 62.3568 0.0000 0.0000 0.0000
# 4 0.0000 0.0000 0.0000 19.3834 0.0000 0.0000
# 5 0.0000 0.0000 0.0000 0.0000 8.1065 0.0000
# 6 0.0000 0.0000 0.0000 0.0000 0.0000 5.9479
#
#
#
# Elastic Compliance Matrix: (Units=1/GPa)
#
#
# Indices 1 2 3 4 5 6 
#
# 1 0.028795 -0.004831 -0.009550 0.000000 0.000000 0.000000
# 2 -0.004831 0.012634 -0.000114 0.000000 0.000000 0.000000
# 3 -0.009550 -0.000114 0.019453 0.000000 0.000000 0.000000
# 4 0.000000 0.000000 0.000000 0.051590 0.000000 0.000000
# 5 0.000000 0.000000 0.000000 0.000000 0.123358 0.000000
# 6 0.000000 0.000000 0.000000 0.000000 0.000000 0.168126
#
#
# Mechanical properties :
#
#
# Convention : Reuss Voigt Hill
#
# Bulk Modulus (GPa) = 31.35517 32.28693 31.82105
# Shear Modulus (GPa) = 11.27199 16.32757 13.79978
#
# Velocity S-wave (km/s) = 2.21906 2.67073 2.45531
# Velocity P-wave (km/s) = 4.50149 4.85954 4.68394
#
# Compressibility (1/GPa) = 0.03189267
#
# Stress axis : x y z
#
# Youngs Moduli (GPa) = 34.72766 79.15276 51.40628
#
# Poissons Ratio (x) = 0.38242 0.49092
# Poissons Ratio (y) = 0.16778 0.00584
# Poissons Ratio (z) = 0.33164 0.00899
#
# Static dielectric constant tensor:
#      x y z
#    x 1.873080 0.000000 0.000000 
#    y 0.000000 1.860270 0.000000 
#    z 0.000000 0.000000 1.955930 
# 
# From -- ./inp_files/8539.got.cif
#   From: 2010.05.17/outbox.cif.g08.bks.cpg/sg64_5_cif.got.tgz:8539.got - 2010.06.03 16:29:19.
