data_PCOD9478678
_publ_section_title
;
Structure prediction by ZEFSAII (Michael W. Deem and Ramdas Pophale) SiO2 
 PCOD9478678
Probable space group: C M C A
;
_chemical_formula_sum "Si O2"
_cell_formula_units_Z 96
_cell_length_a 23.018393
_cell_length_b 8.473101
_cell_length_c 26.233146
_cell_angle_alpha 90.000000
_cell_angle_beta 90.000000
_cell_angle_gamma 90.000000
_cell_volume 5116.438523
_symmetry_space_group_name_H-M "C M C A"
_symmetry_group_IT_number 64
_symmetry_cell_setting 'orthorhombic'
loop_
_space_group_symop_operation_xyz
x,y,z
-x,1/2-y,1/2+z
x,-y,-z
-x,1/2+y,1/2-z
-x,-y,-z
x,1/2+y,1/2-z
-x,y,z
x,1/2-y,1/2+z
1/2+x,1/2+y,z
1/2-x,-y,1/2+z
1/2+x,1/2-y,-z
1/2-x,y,1/2-z
1/2-x,1/2-y,-z
1/2+x,y,1/2-z
1/2-x,1/2+y,z
1/2+x,-y,1/2+z
loop_
_atom_site_type_symbol
_atom_site_label
_atom_site_fract_x
_atom_site_fract_y
_atom_site_fract_z
Si Si1 0.612518 0.539320 0.767855
Si Si2 0.162278 0.817652 0.586874
Si Si3 0.277256 0.349296 0.393784
Si Si4 0.934061 0.175677 0.325021
Si Si5 0.803177 0.218243 0.215147
Si Si6 0.815159 0.685487 0.488251
O O1 0.569950 0.650214 0.799631
O O2 0.584685 0.449009 0.719302
O O3 0.661990 0.657855 0.748851
O O4 0.649017 0.411758 0.799244
O O5 0.208718 0.677929 0.597145
O O6 0.111215 0.827075 0.628100
O O7 0.145243 0.783931 0.528073
O O8 0.200676 0.976146 0.593019
O O9 0.283598 0.306118 0.335146
O O10 0.317367 0.235388 0.429189
O O11 0.000000 0.142504 0.340800
O O12 0.750000 0.156285 0.250000
O O13 0.820097 0.500000 0.500000
O O14 0.750000 0.750000 0.500000
#
# Coordination Sequence:
#
# PCOD9478678 Si02
#       6
#    16  16  16  16  16  16
#     4  10  22  38  54  84 114 159 206 239 289 363
#     4  11  22  36  59  91 118 155 198 250 307 359
#     4  11  21  35  58  89 124 158 186 246 307 375
#     4  11  23  41  61  83 118 164 213 251 291 352
#     4  11  22  33  56  88 129 153 185 238 312 370
#     4  10  20  35  57  86 118 154 198 241 297 369
#
# _framework density 18.76305
#
# number of rings (size 3 to 8) (size 9 to 14) (size 15 to 20)
#    0.000    1.333    1.667    7.500    7.000    0.000 
#    0.000    0.000    0.000    2.500    0.000    0.000 
#    0.000    0.000    0.000    0.000    0.000    0.000 
#
# Total GULP energy -267615.851959 kJ/mol
# GULP energy per Si atom -5575.330249 kJ/mol
# Density = 1.872034 g / cm^3
# Si number density = 18.763050 Si / 1000 Ang^3
#
#
#
# Elastic Constant Matrix: (Units=GPa)
#
#
# Indices 1 2 3 4 5 6 
#
# 1 91.9921 27.7729 24.1154 0.0000 0.0000 0.0000
# 2 27.7729 85.5824 8.6034 0.0000 0.0000 0.0000
# 3 24.1154 8.6034 64.4169 0.0000 0.0000 0.0000
# 4 0.0000 0.0000 0.0000 20.7414 0.0000 0.0000
# 5 0.0000 0.0000 0.0000 0.0000 13.9481 0.0000
# 6 0.0000 0.0000 0.0000 0.0000 0.0000 12.8547
#
#
#
# Elastic Compliance Matrix: (Units=1/GPa)
#
#
# Indices 1 2 3 4 5 6 
#
# 1 0.013188 -0.003835 -0.004425 0.000000 0.000000 0.000000
# 2 -0.003835 0.012959 -0.000295 0.000000 0.000000 0.000000
# 3 -0.004425 -0.000295 0.017220 0.000000 0.000000 0.000000
# 4 0.000000 0.000000 0.000000 0.048213 0.000000 0.000000
# 5 0.000000 0.000000 0.000000 0.000000 0.071694 0.000000
# 6 0.000000 0.000000 0.000000 0.000000 0.000000 0.077793
#
#
# Mechanical properties :
#
#
# Convention : Reuss Voigt Hill
#
# Bulk Modulus (GPa) = 38.08538 40.33054 39.20796
# Shear Modulus (GPa) = 18.73156 21.60882 20.17019
#
# Velocity S-wave (km/s) = 3.16305 3.39731 3.28227
# Velocity P-wave (km/s) = 5.80362 6.07703 5.94190
#
# Compressibility (1/GPa) = 0.02625679
#
# Stress axis : x y z
#
# Youngs Moduli (GPa) = 75.82475 77.16754 58.07248
#
# Poissons Ratio (x) = 0.29594 0.25697
# Poissons Ratio (y) = 0.29079 0.01714
# Poissons Ratio (z) = 0.33553 0.02277
#
# Static dielectric constant tensor:
#      x y z
#    x 1.641190 0.000000 0.000000 
#    y 0.000000 1.711360 0.000000 
#    z 0.000000 0.000000 1.890760 
# 
# From -- ./inp_files/50650.got.cif
#   From: 2010.05.17/outbox.cif.g08.bks.cpg/sg64_26_cif.got.tgz:50650.got - 2010.06.03 16:29:19.
