data_PCOD9478493
_publ_section_title
;
Structure prediction by ZEFSAII (Michael W. Deem and Ramdas Pophale) SiO2 
 PCOD9478493
Probable space group: C M C A
;
_chemical_formula_sum "Si O2"
_cell_formula_units_Z 96
_cell_length_a 27.250634
_cell_length_b 10.131331
_cell_length_c 16.695517
_cell_angle_alpha 90.000000
_cell_angle_beta 90.000000
_cell_angle_gamma 90.000000
_cell_volume 4609.385033
_symmetry_space_group_name_H-M "C M C A"
_symmetry_group_IT_number 64
_symmetry_cell_setting 'orthorhombic'
loop_
_space_group_symop_operation_xyz
x,y,z
-x,1/2-y,1/2+z
x,-y,-z
-x,1/2+y,1/2-z
-x,-y,-z
x,1/2+y,1/2-z
-x,y,z
x,1/2-y,1/2+z
1/2+x,1/2+y,z
1/2-x,-y,1/2+z
1/2+x,1/2-y,-z
1/2-x,y,1/2-z
1/2-x,1/2-y,-z
1/2+x,y,1/2-z
1/2-x,1/2+y,z
1/2+x,-y,1/2+z
loop_
_atom_site_type_symbol
_atom_site_label
_atom_site_fract_x
_atom_site_fract_y
_atom_site_fract_z
Si Si1 0.443630 0.161165 0.550494
Si Si2 0.693824 0.789088 0.498608
Si Si3 0.891098 0.372640 0.039436
Si Si4 0.388764 0.077264 0.779322
Si Si5 0.350213 0.005200 0.614644
Si Si6 0.554593 0.682144 0.286911
O O1 0.500000 0.117468 0.544630
O O2 0.425231 0.243443 0.473145
O O3 0.404631 0.049346 0.580258
O O4 0.442574 0.269958 0.621416
O O5 0.750000 0.750000 0.500000
O O6 0.658086 0.664597 0.491356
O O7 0.684106 0.882803 0.423290
O O8 0.671828 0.871950 0.575236
O O9 0.874644 0.409176 0.128611
O O10 0.915681 0.500000 0.000000
O O11 0.353036 0.021414 0.710127
O O12 0.406965 0.222435 0.755799
O O13 0.432582 0.970287 0.777550
O O14 0.500000 0.708737 0.256424
#
# Coordination Sequence:
#
# PCOD9478493 Si02
#       6
#    16  16  16  16  16  16
#     4   9  19  37  60  90 131 173 216 261 310 380
#     4  10  22  43  69  87 120 159 211 259 326 391
#     4  11  22  37  61  91 124 171 210 256 319 373
#     4  11  21  38  60  88 131 165 210 271 315 380
#     4   9  21  41  64  95 125 166 209 265 322 381
#     4  10  20  34  55  86 124 175 222 263 314 369
#
# _framework density 20.827072999999999
#
# number of rings (size 3 to 8) (size 9 to 14) (size 15 to 20)
#    0.000    2.000    1.667    1.500    2.333    2.333 
#    0.000    7.500    0.000    0.000    0.000    0.000 
#    0.000    0.000    0.000    0.000    0.000    0.000 
#
# Total GULP energy -267564.020874 kJ/mol
# GULP energy per Si atom -5574.250435 kJ/mol
# Density = 2.077967 g / cm^3
# Si number density = 20.827073 Si / 1000 Ang^3
#
#
#
# Elastic Constant Matrix: (Units=GPa)
#
#
# Indices 1 2 3 4 5 6 
#
# 1 112.2750 19.6942 -2.3744 0.0000 0.0000 0.0000
# 2 19.6942 83.8524 7.3901 0.0000 0.0000 0.0000
# 3 -2.3744 7.3901 100.5346 0.0000 0.0000 0.0000
# 4 0.0000 0.0000 0.0000 24.9397 0.0000 0.0000
# 5 0.0000 0.0000 0.0000 0.0000 14.8079 0.0000
# 6 0.0000 0.0000 0.0000 0.0000 0.0000 11.2250
#
#
#
# Elastic Compliance Matrix: (Units=1/GPa)
#
#
# Indices 1 2 3 4 5 6 
#
# 1 0.009304 -0.002219 0.000383 0.000000 0.000000 0.000000
# 2 -0.002219 0.012533 -0.000974 0.000000 0.000000 0.000000
# 3 0.000383 -0.000974 0.010027 0.000000 0.000000 0.000000
# 4 0.000000 0.000000 0.000000 0.040097 0.000000 0.000000
# 5 0.000000 0.000000 0.000000 0.000000 0.067531 0.000000
# 6 0.000000 0.000000 0.000000 0.000000 0.000000 0.089087
#
#
# Mechanical properties :
#
#
# Convention : Reuss Voigt Hill
#
# Bulk Modulus (GPa) = 38.10304 38.45353 38.27828
# Shear Modulus (GPa) = 20.58067 28.32468 24.45267
#
# Velocity S-wave (km/s) = 3.14693 3.69181 3.43020
# Velocity P-wave (km/s) = 5.61595 6.05607 5.84015
#
# Compressibility (1/GPa) = 0.02624463
#
# Stress axis : x y z
#
# Youngs Moduli (GPa) = 107.48033 79.79129 99.72634
#
# Poissons Ratio (x) = 0.17705 -0.03818
# Poissons Ratio (y) = 0.23849 0.09710
# Poissons Ratio (z) = -0.04115 0.07769
#
# Static dielectric constant tensor:
#      x y z
#    x 1.734010 0.000000 0.000000 
#    y 0.000000 1.798070 0.000000 
#    z 0.000000 0.000000 1.800940 
# 
# From -- ./inp_files/35433.got.cif
#   From: 2010.05.17/outbox.cif.g08.bks.cpg/sg64_18_cif.got.tgz:35433.got - 2010.06.03 16:29:19.
