data_PCOD9478362
_publ_section_title
;
Structure prediction by ZEFSAII (Michael W. Deem and Ramdas Pophale) SiO2 
 PCOD9478362
Probable space group: C M C A
;
_chemical_formula_sum "Si O2"
_cell_formula_units_Z 112
_cell_length_a 28.087889
_cell_length_b 10.380034
_cell_length_c 19.416842
_cell_angle_alpha 90.000000
_cell_angle_beta 90.000000
_cell_angle_gamma 90.000000
_cell_volume 5661.043250
_symmetry_space_group_name_H-M "C M C A"
_symmetry_group_IT_number 64
_symmetry_cell_setting 'orthorhombic'
loop_
_space_group_symop_operation_xyz
x,y,z
-x,1/2-y,1/2+z
x,-y,-z
-x,1/2+y,1/2-z
-x,-y,-z
x,1/2+y,1/2-z
-x,y,z
x,1/2-y,1/2+z
1/2+x,1/2+y,z
1/2-x,-y,1/2+z
1/2+x,1/2-y,-z
1/2-x,y,1/2-z
1/2-x,1/2-y,-z
1/2+x,y,1/2-z
1/2-x,1/2+y,z
1/2+x,-y,1/2+z
loop_
_atom_site_type_symbol
_atom_site_label
_atom_site_fract_x
_atom_site_fract_y
_atom_site_fract_z
Si Si1 0.090030 0.598385 0.839735
Si Si2 0.627858 0.778786 0.486308
Si Si3 0.443470 0.634918 0.089502
Si Si4 0.555289 0.102243 0.690269
Si Si5 0.679297 0.584792 0.571870
Si Si6 0.223376 0.867576 0.042195
Si Si7 0.551789 0.647319 0.405269
O O1 0.071313 0.732709 0.871772
O O2 0.087311 0.606214 0.757767
O O3 0.141438 0.553121 0.869243
O O4 0.055509 0.486031 0.866132
O O5 0.588534 0.868898 0.520853
O O6 0.659610 0.723518 0.548088
O O7 0.669925 0.826775 0.436043
O O8 0.595370 0.664462 0.457020
O O9 0.500000 0.633992 0.074689
O O10 0.433013 0.514972 0.139321
O O11 0.500000 0.085543 0.712328
O O12 0.557395 0.234390 0.647531
O O13 0.679004 0.500000 0.500000
O O14 0.734196 0.594095 0.594415
O O15 0.250000 0.750000 0.000000
O O16 0.215370 0.000000 0.000000
O O17 0.500000 0.658768 0.439646
#
# Coordination Sequence:
#
# PCOD9478362 Si02
#       7
#    16  16  16  16  16  16  16
#     4  11  20  35  60  79 109 148 194 232 280 333
#     4  10  20  33  54  85 112 146 182 227 285 335
#     4  10  21  35  53  79 118 153 188 230 272 333
#     4  10  22  37  51  76 114 157 193 222 267 334
#     4   9  17  35  54  85 108 130 178 236 286 322
#     4   9  19  34  57  81 110 141 179 228 286 342
#     4  11  22  34  55  83 115 149 188 231 275 336
#
# _framework density 19.784338999999999
#
# number of rings (size 3 to 8) (size 9 to 14) (size 15 to 20)
#    0.000    2.000    1.429    2.571    2.000    2.286 
#    0.000    4.286    0.000    0.857    0.000    2.000 
#    0.000    0.000    0.000    0.000    0.000    0.000 
#
# Total GULP energy -311794.992740 kJ/mol
# GULP energy per Si atom -5567.767727 kJ/mol
# Density = 1.973931 g / cm^3
# Si number density = 19.784339 Si / 1000 Ang^3
#
#
#
# Elastic Constant Matrix: (Units=GPa)
#
#
# Indices 1 2 3 4 5 6 
#
# 1 143.1540 -1.1937 14.7794 0.0000 0.0000 0.0000
# 2 -1.1937 100.2823 -0.2070 0.0000 0.0000 0.0000
# 3 14.7794 -0.2070 26.5191 0.0000 0.0000 0.0000
# 4 0.0000 0.0000 0.0000 14.9060 0.0000 0.0000
# 5 0.0000 0.0000 0.0000 0.0000 13.4473 0.0000
# 6 0.0000 0.0000 0.0000 0.0000 0.0000 20.6494
#
#
#
# Elastic Compliance Matrix: (Units=1/GPa)
#
#
# Indices 1 2 3 4 5 6 
#
# 1 0.007413 0.000080 -0.004130 0.000000 0.000000 0.000000
# 2 0.000080 0.009973 0.000033 0.000000 0.000000 0.000000
# 3 -0.004130 0.000033 0.040011 0.000000 0.000000 0.000000
# 4 0.000000 0.000000 0.000000 0.067087 0.000000 0.000000
# 5 0.000000 0.000000 0.000000 0.000000 0.074364 0.000000
# 6 0.000000 0.000000 0.000000 0.000000 0.000000 0.048428
#
#
# Mechanical properties :
#
#
# Convention : Reuss Voigt Hill
#
# Bulk Modulus (GPa) = 20.25867 32.96811 26.61339
# Shear Modulus (GPa) = 18.39834 26.90567 22.65201
#
# Velocity S-wave (km/s) = 3.05281 3.69175 3.38738
# Velocity P-wave (km/s) = 4.76321 5.90524 5.36470
#
# Compressibility (1/GPa) = 0.04936158
#
# Stress axis : x y z
#
# Youngs Moduli (GPa) = 134.90574 100.27210 24.99323
#
# Poissons Ratio (x) = -0.00799 0.10323
# Poissons Ratio (y) = -0.01075 -0.00084
# Poissons Ratio (z) = 0.55723 -0.00335
#
# Static dielectric constant tensor:
#      x y z
#    x 1.763340 0.000000 0.000000 
#    y 0.000000 1.754210 0.000000 
#    z 0.000000 0.000000 1.586010 
# 
# From -- ./inp_files/41938.got.cif
#   From: 2010.05.17/outbox.cif.g08.bks.cpg/sg64_21_cif.got.tgz:41938.got - 2010.06.03 16:29:19.
