data_PCOD9478246
_publ_section_title
;
Structure prediction by ZEFSAII (Michael W. Deem and Ramdas Pophale) SiO2 
 PCOD9478246
Probable space group: C M C A
;
_chemical_formula_sum "Si O2"
_cell_formula_units_Z 80
_cell_length_a 8.037950
_cell_length_b 14.545922
_cell_length_c 30.416549
_cell_angle_alpha 90.000000
_cell_angle_beta 90.000000
_cell_angle_gamma 90.000000
_cell_volume 3556.284469
_symmetry_space_group_name_H-M "C M C A"
_symmetry_group_IT_number 64
_symmetry_cell_setting 'orthorhombic'
loop_
_space_group_symop_operation_xyz
x,y,z
-x,1/2-y,1/2+z
x,-y,-z
-x,1/2+y,1/2-z
-x,-y,-z
x,1/2+y,1/2-z
-x,y,z
x,1/2-y,1/2+z
1/2+x,1/2+y,z
1/2-x,-y,1/2+z
1/2+x,1/2-y,-z
1/2-x,y,1/2-z
1/2-x,1/2-y,-z
1/2+x,y,1/2-z
1/2-x,1/2+y,z
1/2+x,-y,1/2+z
loop_
_atom_site_type_symbol
_atom_site_label
_atom_site_fract_x
_atom_site_fract_y
_atom_site_fract_z
Si Si1 0.500000 0.392662 0.446752
Si Si2 0.809148 0.617308 0.395203
Si Si3 0.312355 0.855945 0.702408
Si Si4 0.500000 0.618506 0.451590
Si Si5 0.184545 0.097544 0.893054
Si Si6 0.696330 0.349236 0.205199
O O1 0.500000 0.505678 0.447195
O O2 0.500000 0.360749 0.496876
O O3 0.664879 0.361980 0.420844
O O4 0.737446 0.622615 0.345297
O O5 0.667773 0.653362 0.427856
O O6 0.825888 0.509350 0.405311
O O7 0.000000 0.655385 0.396846
O O8 0.500000 0.890184 0.698793
O O9 0.250000 0.887653 0.750000
O O10 0.298708 0.745413 0.704365
O O11 0.000000 0.138553 0.899543
O O12 0.223910 0.102037 0.841066
O O13 0.500000 0.327738 0.207969
O O14 0.750000 0.399115 0.250000
#
# Coordination Sequence:
#
# PCOD9478246 Si02
#       6
#     8  16  16   8  16  16
#     4   9  18  32  54  79 100 130 167 208 258 302
#     4   9  19  34  51  76 105 132 167 209 254 299
#     4  10  20  32  50  74 101 137 173 205 247 299
#     4   9  18  32  54  79 100 130 167 208 258 302
#     4   9  19  34  51  76 105 132 167 209 254 299
#     4  10  20  32  50  74 101 137 173 205 247 299
#
# _framework density 22.495388999999999
#
# number of rings (size 3 to 8) (size 9 to 14) (size 15 to 20)
#    0.000    2.600    0.000    2.400    5.600    1.600 
#    0.000    4.000    0.000    1.200    0.000    0.000 
#    0.000    0.000    0.000    0.000    0.000    0.000 
#
# Total GULP energy -223110.855750 kJ/mol
# GULP energy per Si atom -5577.771394 kJ/mol
# Density = 2.244419 g / cm^3
# Si number density = 22.495389 Si / 1000 Ang^3
#
#
#
# Elastic Constant Matrix: (Units=GPa)
#
#
# Indices 1 2 3 4 5 6 
#
# 1 129.7968 7.3390 125.7610 0.0000 0.0000 0.0000
# 2 7.3390 42.7080 -7.3224 0.0000 0.0000 0.0000
# 3 125.7610 -7.3224 188.0490 0.0000 0.0000 0.0000
# 4 0.0000 0.0000 0.0000 31.8094 0.0000 0.0000
# 5 0.0000 0.0000 0.0000 0.0000 39.2803 0.0000
# 6 0.0000 0.0000 0.0000 0.0000 0.0000 10.6729
#
#
#
# Elastic Compliance Matrix: (Units=1/GPa)
#
#
# Indices 1 2 3 4 5 6 
#
# 1 0.023718 -0.006841 -0.016128 0.000000 0.000000 0.000000
# 2 -0.006841 0.025545 0.005570 0.000000 0.000000 0.000000
# 3 -0.016128 0.005570 0.016320 0.000000 0.000000 0.000000
# 4 0.000000 0.000000 0.000000 0.031437 0.000000 0.000000
# 5 0.000000 0.000000 0.000000 0.000000 0.025458 0.000000
# 6 0.000000 0.000000 0.000000 0.000000 0.000000 0.093695
#
#
# Mechanical properties :
#
#
# Convention : Reuss Voigt Hill
#
# Bulk Modulus (GPa) = 32.48328 68.01211 50.24770
# Shear Modulus (GPa) = 19.13993 32.00427 25.57210
#
# Velocity S-wave (km/s) = 2.92008 3.77597 3.37526
# Velocity P-wave (km/s) = 5.08335 7.02211 6.12986
#
# Compressibility (1/GPa) = 0.03078506
#
# Stress axis : x y z
#
# Youngs Moduli (GPa) = 42.16278 39.14620 61.27276
#
# Poissons Ratio (x) = 0.26779 0.98820
# Poissons Ratio (y) = 0.28843 -0.34127
# Poissons Ratio (z) = 0.68000 -0.21803
#
# Static dielectric constant tensor:
#      x y z
#    x 1.837990 0.000000 0.000000 
#    y 0.000000 1.864680 0.000000 
#    z 0.000000 0.000000 1.843130 
# 
# From -- ./inp_files/42766.got.cif
#   From: 2010.05.17/outbox.cif.g08.bks.cpg/sg64_22_cif.got.tgz:42766.got - 2010.06.03 16:29:19.
