data_PCOD9478492
_publ_section_title
;
Structure prediction by ZEFSAII (Michael W. Deem and Ramdas Pophale) SiO2 
 PCOD9478492
Probable space group: C M C A
;
_chemical_formula_sum "Si O2"
_cell_formula_units_Z 96
_cell_length_a 26.267954
_cell_length_b 20.080396
_cell_length_c 8.395387
_cell_angle_alpha 90.000000
_cell_angle_beta 90.000000
_cell_angle_gamma 90.000000
_cell_volume 4428.322491
_symmetry_space_group_name_H-M "C M C A"
_symmetry_group_IT_number 64
_symmetry_cell_setting 'orthorhombic'
loop_
_space_group_symop_operation_xyz
x,y,z
-x,1/2-y,1/2+z
x,-y,-z
-x,1/2+y,1/2-z
-x,-y,-z
x,1/2+y,1/2-z
-x,y,z
x,1/2-y,1/2+z
1/2+x,1/2+y,z
1/2-x,-y,1/2+z
1/2+x,1/2-y,-z
1/2-x,y,1/2-z
1/2-x,1/2-y,-z
1/2+x,y,1/2-z
1/2-x,1/2+y,z
1/2+x,-y,1/2+z
loop_
_atom_site_type_symbol
_atom_site_label
_atom_site_fract_x
_atom_site_fract_y
_atom_site_fract_z
Si Si1 0.402757 0.906829 0.615863
Si Si2 0.440358 0.661799 0.604463
Si Si3 0.559045 0.962352 0.283845
Si Si4 0.102068 0.781045 0.069179
Si Si5 0.209409 0.938971 0.881956
Si Si6 0.222071 0.810471 0.084717
O O1 0.408255 0.936229 0.434439
O O2 0.413427 0.829487 0.580110
O O3 0.345906 0.916867 0.679565
O O4 0.435764 0.957867 0.720656
O O5 0.500000 0.666981 0.565141
O O6 0.427046 0.583896 0.633807
O O7 0.408656 0.705224 0.479635
O O8 0.429287 0.695313 0.777082
O O9 0.500000 0.946914 0.320508
O O10 0.161851 0.794696 0.101024
O O11 0.250000 0.957500 0.750000
O O12 0.228655 0.875488 0.978479
O O13 0.201916 0.000000 0.000000
O O14 0.250000 0.821507 0.250000
O O15 0.250000 0.750000 0.000000
#
# Coordination Sequence:
#
# PCOD9478492 Si02
#       6
#    16  16  16  16  16  16
#     4   9  17  33  56  79 115 144 198 247 294 354
#     4  10  20  34  55  86 119 151 193 244 302 361
#     4   9  16  30  57  86 112 146 192 248 301 359
#     4  10  21  36  58  85 115 157 197 250 301 360
#     4  11  22  38  59  87 123 163 208 257 313 367
#     4  11  23  41  63  88 121 162 208 257 309 376
#
# _framework density 21.678637999999999
#
# number of rings (size 3 to 8) (size 9 to 14) (size 15 to 20)
#    0.000    2.000    1.667    3.500    0.000    3.333 
#    3.000    0.000    0.000    0.000    0.000    3.500 
#    0.000    0.000    0.000    0.000    0.000    0.000 
#
# Total GULP energy -267941.392510 kJ/mol
# GULP energy per Si atom -5582.112344 kJ/mol
# Density = 2.162930 g / cm^3
# Si number density = 21.678638 Si / 1000 Ang^3
#
#
#
# Elastic Constant Matrix: (Units=GPa)
#
#
# Indices 1 2 3 4 5 6 
#
# 1 53.9427 12.7898 12.7456 0.0000 0.0000 0.0000
# 2 12.7898 84.6140 1.8506 0.0000 0.0000 0.0000
# 3 12.7456 1.8506 32.9524 0.0000 0.0000 0.0000
# 4 0.0000 0.0000 0.0000 25.6698 0.0000 0.0000
# 5 0.0000 0.0000 0.0000 0.0000 21.7085 0.0000
# 6 0.0000 0.0000 0.0000 0.0000 0.0000 33.0480
#
#
#
# Elastic Compliance Matrix: (Units=1/GPa)
#
#
# Indices 1 2 3 4 5 6 
#
# 1 0.021147 -0.003021 -0.008010 0.000000 0.000000 0.000000
# 2 -0.003021 0.012265 0.000480 0.000000 0.000000 0.000000
# 3 -0.008010 0.000480 0.033418 0.000000 0.000000 0.000000
# 4 0.000000 0.000000 0.000000 0.038956 0.000000 0.000000
# 5 0.000000 0.000000 0.000000 0.000000 0.046065 0.000000
# 6 0.000000 0.000000 0.000000 0.000000 0.000000 0.030259
#
#
# Mechanical properties :
#
#
# Convention : Reuss Voigt Hill
#
# Bulk Modulus (GPa) = 21.86884 25.14234 23.50559
# Shear Modulus (GPa) = 22.88805 25.69347 24.29076
#
# Velocity S-wave (km/s) = 3.25281 3.44640 3.35101
# Velocity P-wave (km/s) = 4.92112 5.24022 5.08317
#
# Compressibility (1/GPa) = 0.04572715
#
# Stress axis : x y z
#
# Youngs Moduli (GPa) = 47.28788 81.53575 29.92404
#
# Poissons Ratio (x) = 0.24634 0.23968
# Poissons Ratio (y) = 0.14287 -0.01436
# Poissons Ratio (z) = 0.37876 -0.03912
#
# Static dielectric constant tensor:
#      x y z
#    x 1.765190 0.000000 0.000000 
#    y 0.000000 1.491470 0.000000 
#    z 0.000000 0.000000 1.328220 
# 
# From -- ./inp_files/10374.got.cif
#   From: 2010.05.17/outbox.cif.g08.bks.cpg/sg64_6_cif.got.tgz:10374.got - 2010.06.03 16:29:19.
