data_PCOD9478299
_publ_section_title
;
Structure prediction by ZEFSAII (Michael W. Deem and Ramdas Pophale) SiO2 
 PCOD9478299
Probable space group: C M C A
;
_chemical_formula_sum "Si O2"
_cell_formula_units_Z 80
_cell_length_a 8.965618
_cell_length_b 30.709233
_cell_length_c 13.171670
_cell_angle_alpha 90.000000
_cell_angle_beta 90.000000
_cell_angle_gamma 90.000000
_cell_volume 3626.519707
_symmetry_space_group_name_H-M "C M C A"
_symmetry_group_IT_number 64
_symmetry_cell_setting 'orthorhombic'
loop_
_space_group_symop_operation_xyz
x,y,z
-x,1/2-y,1/2+z
x,-y,-z
-x,1/2+y,1/2-z
-x,-y,-z
x,1/2+y,1/2-z
-x,y,z
x,1/2-y,1/2+z
1/2+x,1/2+y,z
1/2-x,-y,1/2+z
1/2+x,1/2-y,-z
1/2-x,y,1/2-z
1/2-x,1/2-y,-z
1/2+x,y,1/2-z
1/2-x,1/2+y,z
1/2+x,-y,1/2+z
loop_
_atom_site_type_symbol
_atom_site_label
_atom_site_fract_x
_atom_site_fract_y
_atom_site_fract_z
Si Si1 0.322591 0.220983 0.647563
Si Si2 0.167773 0.489928 0.619504
Si Si3 0.821191 0.900794 0.581845
Si Si4 0.177857 0.810972 0.921597
Si Si5 0.825070 0.579308 0.848890
O O1 0.500000 0.224973 0.660237
O O2 0.250000 0.202756 0.750000
O O3 0.249605 0.268358 0.628567
O O4 0.295189 0.194675 0.543256
O O5 0.152304 0.500000 0.500000
O O6 0.241721 0.442715 0.630552
O O7 0.276152 0.528783 0.651153
O O8 0.000000 0.491965 0.663364
O O9 0.754555 0.854986 0.616736
O O10 0.785121 0.903591 0.460652
O O11 0.000000 0.903065 0.594008
O O12 0.000000 0.811879 0.905155
O O13 0.750000 0.599915 0.750000
O O14 0.000000 0.583422 0.837515
#
# Coordination Sequence:
#
# PCOD9478299 Si02
#       5
#    16  16  16  16  16
#     4  10  21  38  60  84 112 146 183 225 275 332
#     4   9  17  31  51  72  97 132 171 209 253 306
#     4  10  20  34  53  77 106 139 176 219 266 317
#     4  10  21  37  58  84 113 146 185 227 274 330
#     4  10  20  33  50  74 105 140 178 220 266 316
#
# _framework density 22.059716999999999
#
# number of rings (size 3 to 8) (size 9 to 14) (size 15 to 20)
#    0.000    2.200    0.000    3.000    0.000    8.000 
#    0.000    5.000    0.000    0.000    0.000    0.000 
#    0.000    0.000    0.000    0.000    0.000    0.000 
#
# Total GULP energy -223549.865897 kJ/mol
# GULP energy per Si atom -5588.746647 kJ/mol
# Density = 2.200951 g / cm^3
# Si number density = 22.059717 Si / 1000 Ang^3
#
#
#
# Elastic Constant Matrix: (Units=GPa)
#
#
# Indices 1 2 3 4 5 6 
#
# 1 31.4527 29.3961 21.1171 0.0000 0.0000 0.0000
# 2 29.3961 133.8997 -13.5007 0.0000 0.0000 0.0000
# 3 21.1171 -13.5007 76.0049 0.0000 0.0000 0.0000
# 4 0.0000 0.0000 0.0000 -5.8220 0.0000 0.0000
# 5 0.0000 0.0000 0.0000 0.0000 30.3057 0.0000
# 6 0.0000 0.0000 0.0000 0.0000 0.0000 16.6200
#
#
#
# Elastic Compliance Matrix: (Units=1/GPa)
#
#
# Indices 1 2 3 4 5 6 
#
# 1 0.058037 -0.014629 -0.018724 0.000000 0.000000 0.000000
# 2 -0.014629 0.011292 0.006070 0.000000 0.000000 0.000000
# 3 -0.018724 0.006070 0.019437 0.000000 0.000000 0.000000
# 4 0.000000 0.000000 0.000000 -0.171761 0.000000 0.000000
# 5 0.000000 0.000000 0.000000 0.000000 0.032997 0.000000
# 6 0.000000 0.000000 0.000000 0.000000 0.000000 0.060168
#
#
# Mechanical properties :
#
#
# Convention : Reuss Voigt Hill
#
# Bulk Modulus (GPa) = 29.23823 35.04248 32.14035
# Shear Modulus (GPa) = 65.67146 21.84372 43.75759
#
# Velocity S-wave (km/s) = 5.46209 3.15017 4.45859
# Velocity P-wave (km/s) = 7.28438 5.39919 6.41145
#
# Compressibility (1/GPa) = 0.03420180
#
# Stress axis : x y z
#
# Youngs Moduli (GPa) = 17.23033 88.55828 51.44708
#
# Poissons Ratio (x) = 1.29554 0.96327
# Poissons Ratio (y) = 0.25207 -0.31230
# Poissons Ratio (z) = 0.32261 -0.53758
#
# Static dielectric constant tensor:
#      x y z
#    x 1.747870 0.000000 0.000000 
#    y 0.000000 1.768490 0.000000 
#    z 0.000000 0.000000 1.811340 
# 
# From -- ./inp_files/29984.got.cif
#   From: 2010.05.17/outbox.cif.g08.bks.cpg/sg64_15_cif.got.tgz:29984.got - 2010.06.03 16:29:19.
