data_PCOD9478728
_publ_section_title
;
Structure prediction by ZEFSAII (Michael W. Deem and Ramdas Pophale) SiO2 
 PCOD9478728
Probable space group: C M C A
;
_chemical_formula_sum "Si O2"
_cell_formula_units_Z 68
_cell_length_a 14.572969
_cell_length_b 23.044320
_cell_length_c 8.788747
_cell_angle_alpha 90.000000
_cell_angle_beta 90.000000
_cell_angle_gamma 90.000000
_cell_volume 2951.473587
_symmetry_space_group_name_H-M "C M C A"
_symmetry_group_IT_number 64
_symmetry_cell_setting 'orthorhombic'
loop_
_space_group_symop_operation_xyz
x,y,z
-x,1/2-y,1/2+z
x,-y,-z
-x,1/2+y,1/2-z
-x,-y,-z
x,1/2+y,1/2-z
-x,y,z
x,1/2-y,1/2+z
1/2+x,1/2+y,z
1/2-x,-y,1/2+z
1/2+x,1/2-y,-z
1/2-x,y,1/2-z
1/2-x,1/2-y,-z
1/2+x,y,1/2-z
1/2-x,1/2+y,z
1/2+x,-y,1/2+z
loop_
_atom_site_type_symbol
_atom_site_label
_atom_site_fract_x
_atom_site_fract_y
_atom_site_fract_z
Si Si1 0.859350 0.699876 0.570252
Si Si2 0.862955 0.817410 0.414202
Si Si3 0.141874 0.437669 0.929567
Si Si4 0.860397 0.584266 0.414405
Si Si5 0.000000 0.500000 0.500000
O O1 0.891689 0.762624 0.515526
O O2 0.892819 0.687235 0.739893
O O3 0.748215 0.692120 0.582228
O O4 0.881215 0.651291 0.445155
O O5 0.888494 0.879968 0.481452
O O6 0.109909 0.434176 0.754880
O O7 0.253067 0.430507 0.928811
O O8 0.117864 0.500000 0.000000
O O9 0.919498 0.548087 0.532193
#
# Coordination Sequence:
#
# PCOD9478728 Si02
#       5
#    16  16  16  16   4
#     4   9  17  31  53  86 116 155 192 249 296 360
#     4   9  17  29  55  86 120 145 197 250 305 334
#     4  10  20  35  59  91 119 156 200 257 291 359
#     4  10  22  36  58  83 125 157 206 241 304 354
#     4  12  24  40  58  88 124 170 192 248 304 376
#
# _framework density 23.039338999999998
#
# number of rings (size 3 to 8) (size 9 to 14) (size 15 to 20)
#    0.000    2.353    1.176    1.412    3.294    7.529 
#    0.000    0.588    0.000    5.647    0.000    0.000 
#    0.000    0.000    0.000    0.000    0.000    0.000 
#
# Total GULP energy -189390.766397 kJ/mol
# GULP energy per Si atom -5570.316659 kJ/mol
# Density = 2.298690 g / cm^3
# Si number density = 23.039339 Si / 1000 Ang^3
#
#
#
# Elastic Constant Matrix: (Units=GPa)
#
#
# Indices 1 2 3 4 5 6 
#
# 1 94.9393 -6.7829 -14.2717 0.0000 0.0000 0.0000
# 2 -6.7829 225.1855 84.1139 0.0000 0.0000 0.0000
# 3 -14.2717 84.1139 124.9184 0.0000 0.0000 0.0000
# 4 0.0000 0.0000 0.0000 43.8667 0.0000 0.0000
# 5 0.0000 0.0000 0.0000 0.0000 -0.2685 0.0000
# 6 0.0000 0.0000 0.0000 0.0000 0.0000 -38.9602
#
#
#
# Elastic Compliance Matrix: (Units=1/GPa)
#
#
# Indices 1 2 3 4 5 6 
#
# 1 0.010723 -0.000180 0.001346 0.000000 0.000000 0.000000
# 2 -0.000180 0.005936 -0.004018 0.000000 0.000000 0.000000
# 3 0.001346 -0.004018 0.010864 0.000000 0.000000 0.000000
# 4 0.000000 0.000000 0.000000 0.022796 0.000000 0.000000
# 5 0.000000 0.000000 0.000000 0.000000 -3.724110 0.000000
# 6 0.000000 0.000000 0.000000 0.000000 0.000000 -0.025667
#
#
# Mechanical properties :
#
#
# Convention : Reuss Voigt Hill
#
# Bulk Modulus (GPa) = 45.82897 63.46242 54.64569
# Shear Modulus (GPa) = -1.35631 26.39319 12.51844
#
# Velocity S-wave (km/s) = -0.76809 3.38830 2.33352
# Velocity P-wave (km/s) = 4.37586 6.55076 5.57049
#
# Compressibility (1/GPa) = 0.02182026
#
# Stress axis : x y z
#
# Youngs Moduli (GPa) = 93.26141 168.46176 92.04486
#
# Poissons Ratio (x) = 0.03030 -0.12390
# Poissons Ratio (y) = 0.01677 0.36980
# Poissons Ratio (z) = -0.12554 0.67681
#
# Static dielectric constant tensor:
#      x y z
#    x 1.809040 0.000000 0.000000 
#    y 0.000000 1.881870 0.000000 
#    z 0.000000 0.000000 1.856650 
# 
# From -- ./inp_files/6689.got.cif
#   From: 2010.05.17/outbox.cif.g08.bks.cpg/sg64_4_cif.got.tgz:6689.got - 2010.06.03 16:29:19.
