data_PCOD9478003
_publ_section_title
;
Structure prediction by ZEFSAII (Michael W. Deem and Ramdas Pophale) SiO2 
 PCOD9478003
Probable space group: C M C A
;
_chemical_formula_sum "Si O2"
_cell_formula_units_Z 116
_cell_length_a 7.961979
_cell_length_b 33.498219
_cell_length_c 23.631743
_cell_angle_alpha 90.000000
_cell_angle_beta 90.000000
_cell_angle_gamma 90.000000
_cell_volume 6302.872185
_symmetry_space_group_name_H-M "C M C A"
_symmetry_group_IT_number 64
_symmetry_cell_setting 'orthorhombic'
loop_
_space_group_symop_operation_xyz
x,y,z
-x,1/2-y,1/2+z
x,-y,-z
-x,1/2+y,1/2-z
-x,-y,-z
x,1/2+y,1/2-z
-x,y,z
x,1/2-y,1/2+z
1/2+x,1/2+y,z
1/2-x,-y,1/2+z
1/2+x,1/2-y,-z
1/2-x,y,1/2-z
1/2-x,1/2-y,-z
1/2+x,y,1/2-z
1/2-x,1/2+y,z
1/2+x,-y,1/2+z
loop_
_atom_site_type_symbol
_atom_site_label
_atom_site_fract_x
_atom_site_fract_y
_atom_site_fract_z
Si Si1 0.799248 0.104770 0.990162
Si Si2 0.801683 0.693167 0.972987
Si Si3 0.706952 0.597669 0.120327
Si Si4 0.696039 0.323867 0.814640
Si Si5 0.696977 0.231732 0.089434
Si Si6 0.500000 0.000000 0.000000
Si Si7 0.701979 0.023671 0.576235
Si Si8 0.198403 0.018792 0.185726
O O1 0.730585 0.146489 0.967253
O O2 0.762073 0.067127 0.950198
O O3 0.000000 0.108248 0.992503
O O4 0.738442 0.098071 0.054653
O O5 0.725283 0.722082 0.925701
O O6 0.000000 0.700802 0.972815
O O7 0.733670 0.707629 0.034515
O O8 0.500000 0.597154 0.118703
O O9 0.768115 0.637639 0.152094
O O10 0.764972 0.559063 0.155519
O O11 0.500000 0.331334 0.812978
O O12 0.750000 0.320012 0.750000
O O13 0.727600 0.285196 0.853162
O O14 0.500000 0.223728 0.092681
O O15 0.653542 0.997001 0.952403
O O16 0.500000 0.013990 0.565005
O O17 0.728144 0.017895 0.643010
O O18 0.250000 0.013286 0.250000
O O19 0.000000 0.024637 0.187183
#
# Coordination Sequence:
#
# PCOD9478003 Si02
#       8
#    16  16  16  16  16   4  16  16
#     4  10  19  36  58  82 116 151 186 241 301 349
#     4  10  20  33  55  84 112 140 183 233 280 339
#     4   9  18  32  53  79 109 149 190 233 286 343
#     4  11  21  34  52  76 110 149 189 227 272 333
#     4  10  20  35  53  79 110 146 185 227 280 333
#     4  12  22  36  64  86 120 156 198 242 312 370
#     4  10  23  39  58  88 121 155 201 253 309 361
#     4  10  21  39  58  80 114 156 203 250 296 356
#
# _framework density 18.404308
#
# number of rings (size 3 to 8) (size 9 to 14) (size 15 to 20)
#    0.000    1.931    1.379    2.690    1.931    3.310 
#    0.000    0.690    0.000    0.828    0.000    3.862 
#    0.000    0.000    0.000    0.000    0.000    0.000 
#
# Total GULP energy -322915.775709 kJ/mol
# GULP energy per Si atom -5567.513374 kJ/mol
# Density = 1.836242 g / cm^3
# Si number density = 18.404308 Si / 1000 Ang^3
#
#
#
# Elastic Constant Matrix: (Units=GPa)
#
#
# Indices 1 2 3 4 5 6 
#
# 1 26.5162 15.7984 19.1795 0.0000 0.0000 0.0000
# 2 15.7984 86.7595 75.0225 0.0000 0.0000 0.0000
# 3 19.1795 75.0225 153.1865 0.0000 0.0000 0.0000
# 4 0.0000 0.0000 0.0000 14.5706 0.0000 0.0000
# 5 0.0000 0.0000 0.0000 0.0000 24.7844 0.0000
# 6 0.0000 0.0000 0.0000 0.0000 0.0000 4.3266
#
#
#
# Elastic Compliance Matrix: (Units=1/GPa)
#
#
# Indices 1 2 3 4 5 6 
#
# 1 0.042928 -0.005498 -0.002682 0.000000 0.000000 0.000000
# 2 -0.005498 0.020697 -0.009448 0.000000 0.000000 0.000000
# 3 -0.002682 -0.009448 0.011491 0.000000 0.000000 0.000000
# 4 0.000000 0.000000 0.000000 0.068631 0.000000 0.000000
# 5 0.000000 0.000000 0.000000 0.000000 0.040348 0.000000
# 6 0.000000 0.000000 0.000000 0.000000 0.000000 0.231126
#
#
# Mechanical properties :
#
#
# Convention : Reuss Voigt Hill
#
# Bulk Modulus (GPa) = 25.08745 54.05145 39.56945
# Shear Modulus (GPa) = 10.78133 19.16710 14.97422
#
# Velocity S-wave (km/s) = 2.42297 3.23065 2.85551
# Velocity P-wave (km/s) = 4.63558 6.58398 5.69374
#
# Compressibility (1/GPa) = 0.03986057
#
# Stress axis : x y z
#
# Youngs Moduli (GPa) = 23.29462 48.31606 87.02494
#
# Poissons Ratio (x) = 0.26562 0.23343
# Poissons Ratio (y) = 0.12806 0.82221
# Poissons Ratio (z) = 0.06248 0.45649
#
# Static dielectric constant tensor:
#      x y z
#    x 1.664120 0.000000 0.000000 
#    y 0.000000 1.655170 0.000000 
#    z 0.000000 0.000000 1.650580 
# 
# From -- ./inp_files/43571.got.cif
#   From: 2010.05.17/outbox.cif.g08.bks.cpg/sg64_22_cif.got.tgz:43571.got - 2010.06.03 16:29:19.
