data_PCOD9478023
_publ_section_title
;
Structure prediction by ZEFSAII (Michael W. Deem and Ramdas Pophale) SiO2 
 PCOD9478023
Probable space group: C M C A
;
_chemical_formula_sum "Si O2"
_cell_formula_units_Z 80
_cell_length_a 9.763112
_cell_length_b 26.842969
_cell_length_c 15.391877
_cell_angle_alpha 90.000000
_cell_angle_beta 90.000000
_cell_angle_gamma 90.000000
_cell_volume 4033.763254
_symmetry_space_group_name_H-M "C M C A"
_symmetry_group_IT_number 64
_symmetry_cell_setting 'orthorhombic'
loop_
_space_group_symop_operation_xyz
x,y,z
-x,1/2-y,1/2+z
x,-y,-z
-x,1/2+y,1/2-z
-x,-y,-z
x,1/2+y,1/2-z
-x,y,z
x,1/2-y,1/2+z
1/2+x,1/2+y,z
1/2-x,-y,1/2+z
1/2+x,1/2-y,-z
1/2-x,y,1/2-z
1/2-x,1/2-y,-z
1/2+x,y,1/2-z
1/2-x,1/2+y,z
1/2+x,-y,1/2+z
loop_
_atom_site_type_symbol
_atom_site_label
_atom_site_fract_x
_atom_site_fract_y
_atom_site_fract_z
Si Si1 0.719618 0.244887 0.850659
Si Si2 0.000000 0.322779 0.585546
Si Si3 0.697591 0.501096 0.900384
Si Si4 0.000000 0.424604 0.689221
Si Si5 0.000000 0.520683 0.150149
Si Si6 0.000000 0.436765 0.294905
Si Si7 0.000000 0.831097 0.293711
Si Si8 0.000000 0.291040 0.403178
O O1 0.750000 0.257955 0.750000
O O2 0.627885 0.287871 0.890772
O O3 0.631530 0.193165 0.842217
O O4 0.858351 0.238940 0.904888
O O5 0.000000 0.371032 0.645250
O O6 0.000000 0.330622 0.481411
O O7 0.629583 0.455289 0.848269
O O8 0.859382 0.491281 0.897931
O O9 0.634474 0.551034 0.854521
O O10 0.653399 0.500000 0.000000
O O11 0.000000 0.427787 0.794320
O O12 0.000000 0.481401 0.227716
O O13 0.000000 0.388947 0.232057
O O14 0.000000 0.810530 0.195196
#
# Coordination Sequence:
#
# PCOD9478023 Si02
#       8
#    16   8  16   8   8   8   8   8
#     4   9  20  39  56  84 115 155 189 242 287 348
#     4  11  22  36  61  83 114 155 199 235 294 338
#     4  10  21  37  59  82 120 147 193 245 293 339
#     4  10  21  38  56  85 110 157 194 235 274 367
#     4  10  21  38  57  82 116 156 189 238 293 342
#     4  10  19  36  60  85 110 157 192 231 294 355
#     4   9  20  36  59  85 118 143 196 240 285 352
#     4  10  20  34  60  83 118 150 189 241 297 340
#
# _framework density 19.832597
#
# number of rings (size 3 to 8) (size 9 to 14) (size 15 to 20)
#    0.000    2.400    0.000    5.100    2.800    6.400 
#    0.000    1.000    0.000    0.000    0.000    0.000 
#    0.000    0.000    0.000    0.000    0.000    0.000 
#
# Total GULP energy -222685.577122 kJ/mol
# GULP energy per Si atom -5567.139428 kJ/mol
# Density = 1.978746 g / cm^3
# Si number density = 19.832597 Si / 1000 Ang^3
#
#
#
# Elastic Constant Matrix: (Units=GPa)
#
#
# Indices 1 2 3 4 5 6 
#
# 1 153.2857 35.0087 25.1686 0.0000 0.0000 0.0000
# 2 35.0087 93.3159 11.5551 0.0000 0.0000 0.0000
# 3 25.1686 11.5551 67.6901 0.0000 0.0000 0.0000
# 4 0.0000 0.0000 0.0000 14.6479 0.0000 0.0000
# 5 0.0000 0.0000 0.0000 0.0000 7.6790 0.0000
# 6 0.0000 0.0000 0.0000 0.0000 0.0000 -2.1464
#
#
#
# Elastic Compliance Matrix: (Units=1/GPa)
#
#
# Indices 1 2 3 4 5 6 
#
# 1 0.007485 -0.002517 -0.002353 0.000000 0.000000 0.000000
# 2 -0.002517 0.011794 -0.001078 0.000000 0.000000 0.000000
# 3 -0.002353 -0.001078 0.015832 0.000000 0.000000 0.000000
# 4 0.000000 0.000000 0.000000 0.068269 0.000000 0.000000
# 5 0.000000 0.000000 0.000000 0.000000 0.130225 0.000000
# 6 0.000000 0.000000 0.000000 0.000000 0.000000 -0.465902
#
#
# Mechanical properties :
#
#
# Convention : Reuss Voigt Hill
#
# Bulk Modulus (GPa) = 43.07421 50.86182 46.96802
# Shear Modulus (GPa) = -23.51139 20.20674 -1.65233
#
# Velocity S-wave (km/s) = -3.44683 3.19543 -0.91375
# Velocity P-wave (km/s) = 2.43417 6.27022 4.75609
#
# Compressibility (1/GPa) = 0.02321575
#
# Stress axis : x y z
#
# Youngs Moduli (GPa) = 133.60114 84.78980 63.16238
#
# Poissons Ratio (x) = 0.21339 0.14865
# Poissons Ratio (y) = 0.33623 0.06806
# Poissons Ratio (z) = 0.31443 0.09136
#
# Static dielectric constant tensor:
#      x y z
#    x 1.783040 0.000000 0.000000 
#    y 0.000000 1.735000 0.000000 
#    z 0.000000 0.000000 1.709100 
# 
# From -- ./inp_files/29900.got.cif
#   From: 2010.05.17/outbox.cif.g08.bks.cpg/sg64_15_cif.got.tgz:29900.got - 2010.06.03 16:29:19.
