data_PCOD9478269
_publ_section_title
;
Structure prediction by ZEFSAII (Michael W. Deem and Ramdas Pophale) SiO2 
 PCOD9478269
Probable space group: C M C A
;
_chemical_formula_sum "Si O2"
_cell_formula_units_Z 88
_cell_length_a 29.210340
_cell_length_b 9.174132
_cell_length_c 15.917298
_cell_angle_alpha 90.000000
_cell_angle_beta 90.000000
_cell_angle_gamma 90.000000
_cell_volume 4265.509797
_symmetry_space_group_name_H-M "C M C A"
_symmetry_group_IT_number 64
_symmetry_cell_setting 'orthorhombic'
loop_
_space_group_symop_operation_xyz
x,y,z
-x,1/2-y,1/2+z
x,-y,-z
-x,1/2+y,1/2-z
-x,-y,-z
x,1/2+y,1/2-z
-x,y,z
x,1/2-y,1/2+z
1/2+x,1/2+y,z
1/2-x,-y,1/2+z
1/2+x,1/2-y,-z
1/2-x,y,1/2-z
1/2-x,1/2-y,-z
1/2+x,y,1/2-z
1/2-x,1/2+y,z
1/2+x,-y,1/2+z
loop_
_atom_site_type_symbol
_atom_site_label
_atom_site_fract_x
_atom_site_fract_y
_atom_site_fract_z
Si Si1 0.947879 0.664294 0.030852
Si Si2 0.687498 0.754425 0.045766
Si Si3 0.410329 0.266561 0.865059
Si Si4 0.750050 0.000000 0.500000
Si Si5 0.115261 0.020500 0.750940
Si Si6 0.859285 0.773484 0.634285
O O1 0.941455 0.760737 0.947121
O O2 0.000000 0.664859 0.060214
O O3 0.935654 0.500000 0.000000
O O4 0.911348 0.715135 0.099062
O O5 0.642115 0.745095 0.101060
O O6 0.718251 0.897293 0.057722
O O7 0.718135 0.610433 0.051813
O O8 0.671490 0.766148 0.948218
O O9 0.413156 0.411188 0.809921
O O10 0.415991 0.124586 0.806840
O O11 0.145636 0.915942 0.691909
O O12 0.143991 0.130261 0.808971
#
# Coordination Sequence:
#
# PCOD9478269 Si02
#       6
#    16  16  16   8  16  16
#     4  10  20  37  59  84 110 145 187 225 265 322
#     4  10  20  35  59  79 108 143 189 224 272 322
#     4  10  20  37  59  81 110 150 181 226 271 331
#     4  10  20  32  56  88 104 134 188 242 262 314
#     4  10  20  34  57  85 110 144 188 220 276 325
#     4  10  20  37  59  81 110 150 181 226 271 331
#
# _framework density 20.630593999999999
#
# number of rings (size 3 to 8) (size 9 to 14) (size 15 to 20)
#    0.000    2.000    1.818    2.182    2.545    2.182 
#    0.000    7.273    0.000   76.364    0.000    0.000 
#    0.000    0.000    0.000    0.000    0.000    0.000 
#
# Total GULP energy -245730.717432 kJ/mol
# GULP energy per Si atom -5584.789033 kJ/mol
# Density = 2.058364 g / cm^3
# Si number density = 20.630594 Si / 1000 Ang^3
#
#
#
# Elastic Constant Matrix: (Units=GPa)
#
#
# Indices 1 2 3 4 5 6 
#
# 1 64.3224 21.2336 19.8715 0.0000 0.0000 0.0000
# 2 21.2336 128.9728 43.9505 0.0000 0.0000 0.0000
# 3 19.8715 43.9505 96.0497 0.0000 0.0000 0.0000
# 4 0.0000 0.0000 0.0000 28.3750 0.0000 0.0000
# 5 0.0000 0.0000 0.0000 0.0000 5.4054 0.0000
# 6 0.0000 0.0000 0.0000 0.0000 0.0000 11.9373
#
#
#
# Elastic Compliance Matrix: (Units=1/GPa)
#
#
# Indices 1 2 3 4 5 6 
#
# 1 0.016990 -0.001895 -0.002648 0.000000 0.000000 0.000000
# 2 -0.001895 0.009397 -0.003908 0.000000 0.000000 0.000000
# 3 -0.002648 -0.003908 0.012747 0.000000 0.000000 0.000000
# 4 0.000000 0.000000 0.000000 0.035242 0.000000 0.000000
# 5 0.000000 0.000000 0.000000 0.000000 0.185002 0.000000
# 6 0.000000 0.000000 0.000000 0.000000 0.000000 0.083771
#
#
# Mechanical properties :
#
#
# Convention : Reuss Voigt Hill
#
# Bulk Modulus (GPa) = 44.97787 51.05068 48.01427
# Shear Modulus (GPa) = 13.60682 22.76281 18.18482
#
# Velocity S-wave (km/s) = 2.57095 3.32528 2.97214
# Velocity P-wave (km/s) = 5.53732 6.28826 5.92470
#
# Compressibility (1/GPa) = 0.02223316
#
# Stress axis : x y z
#
# Youngs Moduli (GPa) = 58.85723 106.41386 78.44773
#
# Poissons Ratio (x) = 0.20164 0.20773
# Poissons Ratio (y) = 0.11153 0.30657
# Poissons Ratio (z) = 0.15586 0.41586
#
# Static dielectric constant tensor:
#      x y z
#    x 1.706540 0.000000 0.000000 
#    y 0.000000 1.755620 0.000000 
#    z 0.000000 0.000000 1.734810 
# 
# From -- ./inp_files/35721.got.cif
#   From: 2010.05.17/outbox.cif.g08.bks.cpg/sg64_18_cif.got.tgz:35721.got - 2010.06.03 16:29:19.
