data_PCOD9478389
_publ_section_title
;
Structure prediction by ZEFSAII (Michael W. Deem and Ramdas Pophale) SiO2 
 PCOD9478389
Probable space group: C M C A
;
_chemical_formula_sum "Si O2"
_cell_formula_units_Z 96
_cell_length_a 9.535627
_cell_length_b 14.573229
_cell_length_c 32.363258
_cell_angle_alpha 90.000000
_cell_angle_beta 90.000000
_cell_angle_gamma 90.000000
_cell_volume 4497.356133
_symmetry_space_group_name_H-M "C M C A"
_symmetry_group_IT_number 64
_symmetry_cell_setting 'orthorhombic'
loop_
_space_group_symop_operation_xyz
x,y,z
-x,1/2-y,1/2+z
x,-y,-z
-x,1/2+y,1/2-z
-x,-y,-z
x,1/2+y,1/2-z
-x,y,z
x,1/2-y,1/2+z
1/2+x,1/2+y,z
1/2-x,-y,1/2+z
1/2+x,1/2-y,-z
1/2-x,y,1/2-z
1/2-x,1/2-y,-z
1/2+x,y,1/2-z
1/2-x,1/2+y,z
1/2+x,-y,1/2+z
loop_
_atom_site_type_symbol
_atom_site_label
_atom_site_fract_x
_atom_site_fract_y
_atom_site_fract_z
Si Si1 0.166335 0.829273 0.545258
Si Si2 0.845029 0.673745 0.134629
Si Si3 0.157602 0.067691 0.787779
Si Si4 0.333893 0.361395 0.456148
Si Si5 0.155167 0.650427 0.287053
Si Si6 0.340312 0.892554 0.379015
O O1 0.184214 0.873054 0.590452
O O2 0.271784 0.742826 0.543937
O O3 0.188537 0.889011 0.504127
O O4 0.000000 0.799760 0.543461
O O5 0.730733 0.661538 0.169372
O O6 0.849586 0.782014 0.124401
O O7 0.000000 0.645545 0.149681
O O8 0.250000 0.103757 0.750000
O O9 0.217684 0.078458 0.834122
O O10 0.000000 0.108433 0.788242
O O11 0.143641 0.958970 0.780768
O O12 0.500000 0.362647 0.447765
O O13 0.250737 0.411648 0.419613
O O14 0.250000 0.687039 0.250000
O O15 0.000000 0.690872 0.286954
O O16 0.500000 0.928839 0.382902
#
# Coordination Sequence:
#
# PCOD9478389 Si02
#       6
#    16  16  16  16  16  16
#     4   8  15  27  42  63  94 127 154 184 225 269
#     4   9  17  30  48  70  96 123 150 186 231 271
#     4   9  19  35  52  68  89 120 156 191 229 275
#     4   9  15  24  42  68  94 121 155 189 222 267
#     4  10  20  34  51  69  90 119 155 191 228 275
#     4   9  18  32  48  69  97 124 150 187 234 273
#
# _framework density 21.345873999999998
#
# number of rings (size 3 to 8) (size 9 to 14) (size 15 to 20)
#    0.000    3.000    0.000    2.000    0.000    5.333 
#    0.000    1.667    0.000    1.000    0.000    7.000 
#    0.000    0.000    0.000    0.000    0.000    0.000 
#
# Total GULP energy -267492.008383 kJ/mol
# GULP energy per Si atom -5572.750175 kJ/mol
# Density = 2.129729 g / cm^3
# Si number density = 21.345874 Si / 1000 Ang^3
#
#
#
# Elastic Constant Matrix: (Units=GPa)
#
#
# Indices 1 2 3 4 5 6 
#
# 1 120.2846 -2.4167 100.0069 0.0000 0.0000 0.0000
# 2 -2.4167 30.6714 -18.4046 0.0000 0.0000 0.0000
# 3 100.0069 -18.4046 170.6862 0.0000 0.0000 0.0000
# 4 0.0000 0.0000 0.0000 27.1520 0.0000 0.0000
# 5 0.0000 0.0000 0.0000 0.0000 37.2790 0.0000
# 6 0.0000 0.0000 0.0000 0.0000 0.0000 4.4817
#
#
#
# Elastic Compliance Matrix: (Units=1/GPa)
#
#
# Indices 1 2 3 4 5 6 
#
# 1 0.016878 -0.004923 -0.010420 0.000000 0.000000 0.000000
# 2 -0.004923 0.036295 0.006798 0.000000 0.000000 0.000000
# 3 -0.010420 0.006798 0.012697 0.000000 0.000000 0.000000
# 4 0.000000 0.000000 0.000000 0.036830 0.000000 0.000000
# 5 0.000000 0.000000 0.000000 0.000000 0.026825 0.000000
# 6 0.000000 0.000000 0.000000 0.000000 0.000000 0.223130
#
#
# Mechanical properties :
#
#
# Convention : Reuss Voigt Hill
#
# Bulk Modulus (GPa) = 20.50008 53.33482 36.91745
# Shear Modulus (GPa) = 12.95328 29.94631 21.44979
#
# Velocity S-wave (km/s) = 2.46606 3.74961 3.17340
# Velocity P-wave (km/s) = 4.21108 6.61712 5.54615
#
# Compressibility (1/GPa) = 0.04878030
#
# Stress axis : x y z
#
# Youngs Moduli (GPa) = 59.24921 27.55218 78.76061
#
# Poissons Ratio (x) = 0.13563 0.82066
# Poissons Ratio (y) = 0.29166 -0.53539
# Poissons Ratio (z) = 0.61736 -0.18729
#
# Static dielectric constant tensor:
#      x y z
#    x 1.800020 0.000000 0.000000 
#    y 0.000000 1.802140 0.000000 
#    z 0.000000 0.000000 1.817750 
# 
# From -- ./inp_files/48386.got.cif
#   From: 2010.05.17/outbox.cif.g08.bks.cpg/sg64_25_cif.got.tgz:48386.got - 2010.06.03 16:29:19.
