data_PCOD9478108
_publ_section_title
;
Structure prediction by ZEFSAII (Michael W. Deem and Ramdas Pophale) SiO2 
 PCOD9478108
Probable space group: C M C A
;
_chemical_formula_sum "Si O2"
_cell_formula_units_Z 116
_cell_length_a 15.701769
_cell_length_b 29.542406
_cell_length_c 12.026941
_cell_angle_alpha 90.000000
_cell_angle_beta 90.000000
_cell_angle_gamma 90.000000
_cell_volume 5578.913485
_symmetry_space_group_name_H-M "C M C A"
_symmetry_group_IT_number 64
_symmetry_cell_setting 'orthorhombic'
loop_
_space_group_symop_operation_xyz
x,y,z
-x,1/2-y,1/2+z
x,-y,-z
-x,1/2+y,1/2-z
-x,-y,-z
x,1/2+y,1/2-z
-x,y,z
x,1/2-y,1/2+z
1/2+x,1/2+y,z
1/2-x,-y,1/2+z
1/2+x,1/2-y,-z
1/2-x,y,1/2-z
1/2-x,1/2-y,-z
1/2+x,y,1/2-z
1/2-x,1/2+y,z
1/2+x,-y,1/2+z
loop_
_atom_site_type_symbol
_atom_site_label
_atom_site_fract_x
_atom_site_fract_y
_atom_site_fract_z
Si Si1 0.160240 0.052157 0.503353
Si Si2 0.672541 0.372627 0.659720
Si Si3 0.903690 0.304746 0.310719
Si Si4 0.094259 0.706570 0.295438
Si Si5 0.360711 0.571769 0.973010
Si Si6 0.000000 0.500000 0.500000
Si Si7 0.805715 0.331092 0.517065
Si Si8 0.852310 0.397113 0.229106
O O1 0.137944 0.080886 0.392395
O O2 0.263766 0.054896 0.512670
O O3 0.129019 0.076048 0.616642
O O4 0.133956 0.000000 0.500000
O O5 0.750000 0.380341 0.750000
O O6 0.610704 0.336465 0.716052
O O7 0.712975 0.347636 0.551386
O O8 0.898561 0.254670 0.263303
O O9 0.828003 0.311405 0.398624
O O10 0.890315 0.346680 0.227174
O O11 0.000000 0.309910 0.358560
O O12 0.164044 0.703380 0.390521
O O13 0.000000 0.703229 0.344339
O O14 0.425758 0.537738 0.026514
O O15 0.383374 0.577811 0.841855
O O16 0.360979 0.622440 0.022432
O O17 0.750000 0.394033 0.250000
#
# Coordination Sequence:
#
# PCOD9478108 Si02
#       8
#    16  16  16  16  16   4  16  16
#     4  10  19  38  56  79 116 157 192 227 280 344
#     4   9  20  37  58  84 112 146 195 239 283 344
#     4  10  21  36  59  85 111 146 191 242 290 341
#     4  10  21  36  55  85 113 148 187 234 296 348
#     4   9  20  34  55  88 112 138 186 242 294 337
#     4  12  20  32  60  96 110 136 190 260 304 340
#     4   9  19  37  57  79 114 144 179 241 290 331
#     4   9  20  36  55  81 114 150 188 231 284 349
#
# _framework density 20.792577999999999
#
# number of rings (size 3 to 8) (size 9 to 14) (size 15 to 20)
#    0.000    2.483    0.690    1.241    4.828    4.966 
#    2.483    2.069    0.000    1.655    0.000    0.000 
#    0.000    0.000    0.000    0.000    0.000    0.000 
#
# Total GULP energy -322934.412431 kJ/mol
# GULP energy per Si atom -5567.834697 kJ/mol
# Density = 2.074525 g / cm^3
# Si number density = 20.792578 Si / 1000 Ang^3
#
#
#
# Elastic Constant Matrix: (Units=GPa)
#
#
# Indices 1 2 3 4 5 6 
#
# 1 9.4553 -5.7079 -6.4245 0.0000 0.0000 0.0000
# 2 -5.7079 97.7974 28.9571 0.0000 0.0000 0.0000
# 3 -6.4245 28.9571 64.1132 0.0000 0.0000 0.0000
# 4 0.0000 0.0000 0.0000 14.2811 0.0000 0.0000
# 5 0.0000 0.0000 0.0000 0.0000 -32.8783 0.0000
# 6 0.0000 0.0000 0.0000 0.0000 0.0000 -385.8543
#
#
#
# Elastic Compliance Matrix: (Units=1/GPa)
#
#
# Indices 1 2 3 4 5 6 
#
# 1 0.114698 0.003799 0.009777 0.000000 0.000000 0.000000
# 2 0.003799 0.011930 -0.005007 0.000000 0.000000 0.000000
# 3 0.009777 -0.005007 0.018839 0.000000 0.000000 0.000000
# 4 0.000000 0.000000 0.000000 0.070023 0.000000 0.000000
# 5 0.000000 0.000000 0.000000 0.000000 -0.030415 0.000000
# 6 0.000000 0.000000 0.000000 0.000000 0.000000 -0.002592
#
#
# Mechanical properties :
#
#
# Convention : Reuss Voigt Hill
#
# Bulk Modulus (GPa) = 6.14989 22.77948 14.46468
# Shear Modulus (GPa) = 22.77438 -70.58756 -23.90659
#
# Velocity S-wave (km/s) = 3.31314 -5.83285 -3.39450
# Velocity P-wave (km/s) = 4.19524 5.86374 2.89685
#
# Compressibility (1/GPa) = 0.16260460
#
# Stress axis : x y z
#
# Youngs Moduli (GPa) = 8.71858 83.82503 53.08192
#
# Poissons Ratio (x) = -0.31847 -0.51901
# Poissons Ratio (y) = -0.03312 0.26580
# Poissons Ratio (z) = -0.08525 0.41974
#
# Static dielectric constant tensor:
#      x y z
#    x 1.747510 0.000000 0.000000 
#    y 0.000000 1.765110 0.000000 
#    z 0.000000 0.000000 1.805760 
# 
# From -- ./inp_files/16547.got.cif
#   From: 2010.05.17/outbox.cif.g08.bks.cpg/sg64_9_cif.got.tgz:16547.got - 2010.06.03 16:29:19.
