data_PCOD9478406
_publ_section_title
;
Structure prediction by ZEFSAII (Michael W. Deem and Ramdas Pophale) SiO2 
 PCOD9478406
Probable space group: C M C A
;
_chemical_formula_sum "Si O2"
_cell_formula_units_Z 96
_cell_length_a 15.966765
_cell_length_b 26.365181
_cell_length_c 13.220700
_cell_angle_alpha 90.000000
_cell_angle_beta 90.000000
_cell_angle_gamma 90.000000
_cell_volume 5565.473779
_symmetry_space_group_name_H-M "C M C A"
_symmetry_group_IT_number 64
_symmetry_cell_setting 'orthorhombic'
loop_
_space_group_symop_operation_xyz
x,y,z
-x,1/2-y,1/2+z
x,-y,-z
-x,1/2+y,1/2-z
-x,-y,-z
x,1/2+y,1/2-z
-x,y,z
x,1/2-y,1/2+z
1/2+x,1/2+y,z
1/2-x,-y,1/2+z
1/2+x,1/2-y,-z
1/2-x,y,1/2-z
1/2-x,1/2-y,-z
1/2+x,y,1/2-z
1/2-x,1/2+y,z
1/2+x,-y,1/2+z
loop_
_atom_site_type_symbol
_atom_site_label
_atom_site_fract_x
_atom_site_fract_y
_atom_site_fract_z
Si Si1 0.598072 0.306682 0.495661
Si Si2 0.747760 0.055894 0.027137
Si Si3 0.405786 0.810901 0.469590
Si Si4 0.332077 0.866722 0.817712
Si Si5 0.746224 0.856067 0.131040
Si Si6 0.408489 0.905900 0.620360
O O1 0.500000 0.321879 0.484479
O O2 0.602014 0.245882 0.488692
O O3 0.631548 0.324190 0.606926
O O4 0.661599 0.330699 0.413885
O O5 0.753930 0.090601 0.927633
O O6 0.693071 0.087658 0.107039
O O7 0.838156 0.055951 0.081274
O O8 0.718409 0.000000 0.000000
O O9 0.500000 0.815189 0.424155
O O10 0.326944 0.822395 0.399041
O O11 0.399988 0.853885 0.555909
O O12 0.250000 0.851536 0.750000
O O13 0.395148 0.888698 0.735252
O O14 0.750000 0.862747 0.250000
O O15 0.500000 0.927233 0.604014
#
# Coordination Sequence:
#
# PCOD9478406 Si02
#       6
#    16  16  16  16  16  16
#     4  10  20  34  52  76 108 142 173 205 248 301
#     4   9  19  35  53  71  95 128 165 207 256 305
#     4   9  19  34  51  75 106 138 171 208 248 295
#     4   9  18  32  52  76 100 131 168 207 249 298
#     4  10  21  34  51  74 103 137 172 212 254 300
#     4   9  17  31  51  75 100 125 161 207 250 294
#
# _framework density 17.249206000000001
#
# number of rings (size 3 to 8) (size 9 to 14) (size 15 to 20)
#    0.000    2.667    0.000    2.000    0.000    5.000 
#    0.000    3.333    0.000   16.500    0.000    0.000 
#    0.000    0.000    0.000    0.000    0.000    0.000 
#
# Total GULP energy -267341.263390 kJ/mol
# GULP energy per Si atom -5569.609654 kJ/mol
# Density = 1.720995 g / cm^3
# Si number density = 17.249206 Si / 1000 Ang^3
#
#
#
# Elastic Constant Matrix: (Units=GPa)
#
#
# Indices 1 2 3 4 5 6 
#
# 1 86.9611 17.0736 31.6218 0.0000 0.0000 0.0000
# 2 17.0736 36.8251 0.0131 0.0000 0.0000 0.0000
# 3 31.6218 0.0131 98.9662 0.0000 0.0000 0.0000
# 4 0.0000 0.0000 0.0000 3.3124 0.0000 0.0000
# 5 0.0000 0.0000 0.0000 0.0000 4.1919 0.0000
# 6 0.0000 0.0000 0.0000 0.0000 0.0000 9.1428
#
#
#
# Elastic Compliance Matrix: (Units=1/GPa)
#
#
# Indices 1 2 3 4 5 6 
#
# 1 0.014504 -0.006723 -0.004634 0.000000 0.000000 0.000000
# 2 -0.006723 0.030272 0.002144 0.000000 0.000000 0.000000
# 3 -0.004634 0.002144 0.011585 0.000000 0.000000 0.000000
# 4 0.000000 0.000000 0.000000 0.301900 0.000000 0.000000
# 5 0.000000 0.000000 0.000000 0.000000 0.238557 0.000000
# 6 0.000000 0.000000 0.000000 0.000000 0.000000 0.109376
#
#
# Mechanical properties :
#
#
# Convention : Reuss Voigt Hill
#
# Bulk Modulus (GPa) = 26.36035 35.57436 30.96735
# Shear Modulus (GPa) = 6.78184 14.93233 10.85708
#
# Velocity S-wave (km/s) = 1.98500 2.94544 2.51156
# Velocity P-wave (km/s) = 4.53529 5.67768 5.13833
#
# Compressibility (1/GPa) = 0.03793577
#
# Stress axis : x y z
#
# Youngs Moduli (GPa) = 68.94513 33.03408 86.32084
#
# Poissons Ratio (x) = 0.22209 0.39997
# Poissons Ratio (y) = 0.46353 -0.18509
# Poissons Ratio (z) = 0.31946 -0.07083
#
# Static dielectric constant tensor:
#      x y z
#    x 1.625510 0.000000 0.000000 
#    y 0.000000 1.554620 0.000000 
#    z 0.000000 0.000000 1.572370 
# 
# From -- ./inp_files/16226.got.cif
#   From: 2010.05.17/outbox.cif.g08.bks.cpg/sg64_9_cif.got.tgz:16226.got - 2010.06.03 16:29:19.
