data_PCOD9478828
_publ_section_title
;
Structure prediction by ZEFSAII (Michael W. Deem and Ramdas Pophale) SiO2 
 PCOD9478828
Probable space group: C M C A
;
_chemical_formula_sum "Si O2"
_cell_formula_units_Z 96
_cell_length_a 10.263015
_cell_length_b 25.453471
_cell_length_c 19.994375
_cell_angle_alpha 90.000000
_cell_angle_beta 90.000000
_cell_angle_gamma 90.000000
_cell_volume 5223.117678
_symmetry_space_group_name_H-M "C M C A"
_symmetry_group_IT_number 64
_symmetry_cell_setting 'orthorhombic'
loop_
_space_group_symop_operation_xyz
x,y,z
-x,1/2-y,1/2+z
x,-y,-z
-x,1/2+y,1/2-z
-x,-y,-z
x,1/2+y,1/2-z
-x,y,z
x,1/2-y,1/2+z
1/2+x,1/2+y,z
1/2-x,-y,1/2+z
1/2+x,1/2-y,-z
1/2-x,y,1/2-z
1/2-x,1/2-y,-z
1/2+x,y,1/2-z
1/2-x,1/2+y,z
1/2+x,-y,1/2+z
loop_
_atom_site_type_symbol
_atom_site_label
_atom_site_fract_x
_atom_site_fract_y
_atom_site_fract_z
Si Si1 0.500000 0.737941 0.661675
Si Si2 0.000000 0.303249 0.938361
Si Si3 0.239528 0.668585 0.828129
Si Si4 0.000000 0.799702 0.967800
Si Si5 0.750036 0.628222 0.026939
Si Si6 0.500000 0.276119 0.175179
Si Si7 0.148640 0.978557 0.923252
Si Si8 0.655321 0.567004 0.606223
O O1 0.373151 0.704617 0.641864
O O2 0.500000 0.788031 0.612824
O O3 0.500000 0.737429 0.744166
O O4 0.871204 0.338260 0.946902
O O5 0.000000 0.277438 0.865419
O O6 0.000000 0.255572 0.992428
O O7 0.250000 0.678658 0.750000
O O8 0.378523 0.689286 0.850237
O O9 0.198182 0.608910 0.838418
O O10 0.871619 0.833255 0.985619
O O11 0.696674 0.581415 0.074031
O O12 0.802692 0.597976 0.961233
O O13 0.000000 0.983038 0.897382
O O14 0.256641 0.015172 0.888839
O O15 0.144164 0.000000 0.000000
O O16 0.500000 0.557293 0.606275
#
# Coordination Sequence:
#
# PCOD9478828 Si02
#       8
#     8   8  16   8  16   8  16  16
#     4  10  20  38  57  79 115 155 192 226 276 341
#     4  12  22  34  54  87 116 147 192 238 280 325
#     4  10  20  36  57  82 112 146 186 232 280 334
#     4  12  22  36  58  83 116 153 192 238 280 325
#     4  11  22  36  55  83 119 148 183 234 284 332
#     4  10  22  36  55  83 115 155 192 224 274 343
#     4   9  20  36  55  80 110 146 182 221 280 349
#     4  11  21  35  58  84 114 145 181 232 291 339
#
# _framework density 18.379826999999999
#
# number of rings (size 3 to 8) (size 9 to 14) (size 15 to 20)
#    0.000    1.500    2.500    3.500    3.500    1.000 
#    0.000    0.000    0.000    2.000    0.000    0.000 
#    0.000    0.000    0.000    0.000    0.000    0.000 
#
# Total GULP energy -267574.024439 kJ/mol
# GULP energy per Si atom -5574.458842 kJ/mol
# Density = 1.833799 g / cm^3
# Si number density = 18.379827 Si / 1000 Ang^3
#
#
#
# Elastic Constant Matrix: (Units=GPa)
#
#
# Indices 1 2 3 4 5 6 
#
# 1 202.9521 79.7467 21.8030 0.0000 0.0000 0.0000
# 2 79.7467 112.5698 10.1172 0.0000 0.0000 0.0000
# 3 21.8030 10.1172 21.2934 0.0000 0.0000 0.0000
# 4 0.0000 0.0000 0.0000 22.0274 0.0000 0.0000
# 5 0.0000 0.0000 0.0000 0.0000 -10.8136 0.0000
# 6 0.0000 0.0000 0.0000 0.0000 0.0000 48.5293
#
#
#
# Elastic Compliance Matrix: (Units=1/GPa)
#
#
# Indices 1 2 3 4 5 6 
#
# 1 0.007356 -0.004736 -0.005281 0.000000 0.000000 0.000000
# 2 -0.004736 0.012329 -0.001008 0.000000 0.000000 0.000000
# 3 -0.005281 -0.001008 0.052850 0.000000 0.000000 0.000000
# 4 0.000000 0.000000 0.000000 0.045398 0.000000 0.000000
# 5 0.000000 0.000000 0.000000 0.000000 -0.092476 0.000000
# 6 0.000000 0.000000 0.000000 0.000000 0.000000 0.020606
#
#
# Mechanical properties :
#
#
# Convention : Reuss Voigt Hill
#
# Bulk Modulus (GPa) = 19.80883 62.23879 41.02381
# Shear Modulus (GPa) = 58.86340 26.95852 42.91096
#
# Velocity S-wave (km/s) = 5.66530 3.83397 4.83709
# Velocity P-wave (km/s) = 7.32086 7.31677 7.31882
#
# Compressibility (1/GPa) = 0.05048253
#
# Stress axis : x y z
#
# Youngs Moduli (GPa) = 135.94960 81.10788 18.92159
#
# Poissons Ratio (x) = 0.38415 0.09993
# Poissons Ratio (y) = 0.64389 0.01908
# Poissons Ratio (z) = 0.71800 0.08179
#
# Static dielectric constant tensor:
#      x y z
#    x 1.682390 0.000000 0.000000 
#    y 0.000000 1.595810 0.000000 
#    z 0.000000 0.000000 1.821540 
# 
# From -- ./inp_files/43134.got.cif
#   From: 2010.05.17/outbox.cif.g08.bks.cpg/sg64_22_cif.got.tgz:43134.got - 2010.06.03 16:29:19.
