data_PCOD9478707
_publ_section_title
;
Structure prediction by ZEFSAII (Michael W. Deem and Ramdas Pophale) SiO2 
 PCOD9478707
Probable space group: C M C A
;
_chemical_formula_sum "Si O2"
_cell_formula_units_Z 112
_cell_length_a 15.213862
_cell_length_b 23.608120
_cell_length_c 15.707085
_cell_angle_alpha 90.000000
_cell_angle_beta 90.000000
_cell_angle_gamma 90.000000
_cell_volume 5641.524396
_symmetry_space_group_name_H-M "C M C A"
_symmetry_group_IT_number 64
_symmetry_cell_setting 'orthorhombic'
loop_
_space_group_symop_operation_xyz
x,y,z
-x,1/2-y,1/2+z
x,-y,-z
-x,1/2+y,1/2-z
-x,-y,-z
x,1/2+y,1/2-z
-x,y,z
x,1/2-y,1/2+z
1/2+x,1/2+y,z
1/2-x,-y,1/2+z
1/2+x,1/2-y,-z
1/2-x,y,1/2-z
1/2-x,1/2-y,-z
1/2+x,y,1/2-z
1/2-x,1/2+y,z
1/2+x,-y,1/2+z
loop_
_atom_site_type_symbol
_atom_site_label
_atom_site_fract_x
_atom_site_fract_y
_atom_site_fract_z
Si Si1 0.600638 0.526764 0.193140
Si Si2 0.838936 0.277649 0.575174
Si Si3 0.673350 0.711311 0.890657
Si Si4 0.900852 0.202609 0.262235
Si Si5 0.899196 0.584922 0.139642
Si Si6 0.279505 0.594524 0.065793
Si Si7 0.103704 0.589311 0.597368
O O1 0.500000 0.545993 0.171435
O O2 0.609092 0.533518 0.293938
O O3 0.671192 0.565547 0.145111
O O4 0.609972 0.462808 0.161607
O O5 0.775151 0.223973 0.587517
O O6 0.877355 0.272942 0.479475
O O7 0.893239 0.288173 0.661066
O O8 0.786803 0.337432 0.569706
O O9 0.656998 0.753083 0.813083
O O10 0.642992 0.648313 0.868851
O O11 0.881647 0.140078 0.299536
O O12 0.000000 0.215004 0.287618
O O13 0.823313 0.580698 0.070072
O O14 0.000000 0.588699 0.109120
O O15 0.336414 0.575668 0.984645
O O16 0.000000 0.596146 0.574610
#
# Coordination Sequence:
#
# PCOD9478707 Si02
#       7
#    16  16  16  16  16  16  16
#     4  10  20  35  58  91 120 149 195 254 310 364
#     4  10  21  35  57  87 121 161 203 258 308 365
#     4  10  21  37  58  84 123 162 203 248 304 368
#     4  11  21  35  58  86 120 161 205 258 310 358
#     4  10  21  35  57  90 121 155 203 256 305 358
#     4  11  19  34  60  86 123 154 197 252 308 358
#     4  10  22  38  59  89 125 161 200 251 311 373
#
# _framework density 19.852791
#
# number of rings (size 3 to 8) (size 9 to 14) (size 15 to 20)
#    0.000    1.714    2.857    2.143    0.000    4.000 
#    0.000    2.857    0.000    1.714    0.000    0.000 
#    0.000    0.000    0.000    0.000    0.000    0.000 
#
# Total GULP energy -312174.077550 kJ/mol
# GULP energy per Si atom -5574.537099 kJ/mol
# Density = 1.980760 g / cm^3
# Si number density = 19.852791 Si / 1000 Ang^3
#
#
#
# Elastic Constant Matrix: (Units=GPa)
#
#
# Indices 1 2 3 4 5 6 
#
# 1 90.4901 45.0741 18.6868 0.0000 0.0000 0.0000
# 2 45.0741 66.2196 15.3008 0.0000 0.0000 0.0000
# 3 18.6868 15.3008 31.9763 0.0000 0.0000 0.0000
# 4 0.0000 0.0000 0.0000 19.7456 0.0000 0.0000
# 5 0.0000 0.0000 0.0000 0.0000 19.2412 0.0000
# 6 0.0000 0.0000 0.0000 0.0000 0.0000 23.5417
#
#
#
# Elastic Compliance Matrix: (Units=1/GPa)
#
#
# Indices 1 2 3 4 5 6 
#
# 1 0.017421 -0.010687 -0.005067 0.000000 0.000000 0.000000
# 2 -0.010687 0.023535 -0.005016 0.000000 0.000000 0.000000
# 3 -0.005067 -0.005016 0.036634 0.000000 0.000000 0.000000
# 4 0.000000 0.000000 0.000000 0.050644 0.000000 0.000000
# 5 0.000000 0.000000 0.000000 0.000000 0.051972 0.000000
# 6 0.000000 0.000000 0.000000 0.000000 0.000000 0.042478
#
#
# Mechanical properties :
#
#
# Convention : Reuss Voigt Hill
#
# Bulk Modulus (GPa) = 27.73919 38.53439 33.13679
# Shear Modulus (GPa) = 18.10022 19.81397 18.95709
#
# Velocity S-wave (km/s) = 3.02275 3.16261 3.09347
# Velocity P-wave (km/s) = 5.11717 5.72611 5.43018
#
# Compressibility (1/GPa) = 0.03605008
#
# Stress axis : x y z
#
# Youngs Moduli (GPa) = 57.40335 42.49044 27.29682
#
# Poissons Ratio (x) = 0.45410 0.13831
# Poissons Ratio (y) = 0.61347 0.13692
# Poissons Ratio (z) = 0.29085 0.21313
#
# Static dielectric constant tensor:
#      x y z
#    x 1.720710 0.000000 0.000000 
#    y 0.000000 1.699940 0.000000 
#    z 0.000000 0.000000 1.732620 
# 
# From -- ./inp_files/24416.got.cif
#   From: 2010.05.17/outbox.cif.g08.bks.cpg/sg64_13_cif.got.tgz:24416.got - 2010.06.03 16:29:19.
