data_PCOD9478115
_publ_section_title
;
Structure prediction by ZEFSAII (Michael W. Deem and Ramdas Pophale) SiO2 
 PCOD9478115
Probable space group: C M C A
;
_chemical_formula_sum "Si O2"
_cell_formula_units_Z 92
_cell_length_a 22.103843
_cell_length_b 8.217428
_cell_length_c 22.532198
_cell_angle_alpha 90.000000
_cell_angle_beta 90.000000
_cell_angle_gamma 90.000000
_cell_volume 4092.674953
_symmetry_space_group_name_H-M "C M C A"
_symmetry_group_IT_number 64
_symmetry_cell_setting 'orthorhombic'
loop_
_space_group_symop_operation_xyz
x,y,z
-x,1/2-y,1/2+z
x,-y,-z
-x,1/2+y,1/2-z
-x,-y,-z
x,1/2+y,1/2-z
-x,y,z
x,1/2-y,1/2+z
1/2+x,1/2+y,z
1/2-x,-y,1/2+z
1/2+x,1/2-y,-z
1/2-x,y,1/2-z
1/2-x,1/2-y,-z
1/2+x,y,1/2-z
1/2-x,1/2+y,z
1/2+x,-y,1/2+z
loop_
_atom_site_type_symbol
_atom_site_label
_atom_site_fract_x
_atom_site_fract_y
_atom_site_fract_z
Si Si1 0.932680 0.365776 0.701599
Si Si2 0.803184 0.263041 0.835867
Si Si3 0.500000 0.000000 0.500000
Si Si4 0.707378 0.500000 0.500000
Si Si5 0.198722 0.789410 0.923095
Si Si6 0.398660 0.070778 0.593287
Si Si7 0.149661 0.424465 0.219934
O O1 0.933549 0.500078 0.650266
O O2 0.904673 0.458413 0.757369
O O3 0.000000 0.301871 0.711633
O O4 0.885098 0.222292 0.687597
O O5 0.736869 0.244810 0.864117
O O6 0.809781 0.448216 0.815207
O O7 0.854619 0.215231 0.884433
O O8 0.817116 0.150207 0.778268
O O9 0.446225 0.910824 0.459363
O O10 0.749952 0.615389 0.460613
O O11 0.675584 0.627283 0.543870
O O12 0.147087 0.922902 0.919964
#
# Coordination Sequence:
#
# PCOD9478115 Si02
#       7
#    16  16   4   8  16  16  16
#     4  10  19  38  59  93 121 178 218 263 324 392
#     4  10  22  43  66 103 133 180 221 276 349 414
#     4  12  26  48  64  98 132 182 236 284 344 400
#     4  10  23  38  68  92 126 171 214 272 334 412
#     4  11  22  43  67 100 129 175 220 278 342 420
#     4  11  24  42  69  93 136 179 223 282 337 406
#     4   9  21  39  65  92 139 169 218 277 333 408
#
# _framework density 22.479187
#
# number of rings (size 3 to 8) (size 9 to 14) (size 15 to 20)
#    0.000    1.739    2.609    1.043    4.870    0.000 
#    3.130   14.783    0.000    1.565    0.000    0.000 
#    0.000    0.000    0.000    0.000    0.000    0.000 
#
# Total GULP energy -256428.931996 kJ/mol
# GULP energy per Si atom -5574.542000 kJ/mol
# Density = 2.242802 g / cm^3
# Si number density = 22.479187 Si / 1000 Ang^3
#
#
#
# Elastic Constant Matrix: (Units=GPa)
#
#
# Indices 1 2 3 4 5 6 
#
# 1 139.3213 33.3947 30.6564 0.0000 0.0000 0.0000
# 2 33.3947 112.9080 24.1088 0.0000 0.0000 0.0000
# 3 30.6564 24.1088 45.8840 0.0000 0.0000 0.0000
# 4 0.0000 0.0000 0.0000 42.5804 0.0000 0.0000
# 5 0.0000 0.0000 0.0000 0.0000 85.9161 0.0000
# 6 0.0000 0.0000 0.0000 0.0000 0.0000 28.2539
#
#
#
# Elastic Compliance Matrix: (Units=1/GPa)
#
#
# Indices 1 2 3 4 5 6 
#
# 1 0.008631 -0.001489 -0.004985 0.000000 0.000000 0.000000
# 2 -0.001489 0.010233 -0.004382 0.000000 0.000000 0.000000
# 3 -0.004985 -0.004382 0.027427 0.000000 0.000000 0.000000
# 4 0.000000 0.000000 0.000000 0.023485 0.000000 0.000000
# 5 0.000000 0.000000 0.000000 0.000000 0.011639 0.000000
# 6 0.000000 0.000000 0.000000 0.000000 0.000000 0.035393
#
#
# Mechanical properties :
#
#
# Convention : Reuss Voigt Hill
#
# Bulk Modulus (GPa) = 40.68274 52.71476 46.69875
# Shear Modulus (GPa) = 34.08025 45.34698 39.71361
#
# Velocity S-wave (km/s) = 3.89791 4.49629 4.20775
# Velocity P-wave (km/s) = 6.19641 7.10331 6.66530
#
# Compressibility (1/GPa) = 0.02458045
#
# Stress axis : x y z
#
# Youngs Moduli (GPa) = 115.85771 97.72583 36.46046
#
# Poissons Ratio (x) = 0.14546 0.18174
# Poissons Ratio (y) = 0.17245 0.15977
# Poissons Ratio (z) = 0.57751 0.42824
#
# Static dielectric constant tensor:
#      x y z
#    x 1.838600 0.000000 0.000000 
#    y 0.000000 1.819110 0.000000 
#    z 0.000000 0.000000 1.984700 
# 
# From -- ./inp_files/50705.got.cif
#   From: 2010.05.17/outbox.cif.g08.bks.cpg/sg64_26_cif.got.tgz:50705.got - 2010.06.03 16:29:19.
