data_PCOD9478997
_publ_section_title
;
Structure prediction by ZEFSAII (Michael W. Deem and Ramdas Pophale) SiO2 
 PCOD9478997
Probable space group: C M C A
;
_chemical_formula_sum "Si O2"
_cell_formula_units_Z 104
_cell_length_a 9.644992
_cell_length_b 29.765071
_cell_length_c 19.195344
_cell_angle_alpha 90.000000
_cell_angle_beta 90.000000
_cell_angle_gamma 90.000000
_cell_volume 5510.673674
_symmetry_space_group_name_H-M "C M C A"
_symmetry_group_IT_number 64
_symmetry_cell_setting 'orthorhombic'
loop_
_space_group_symop_operation_xyz
x,y,z
-x,1/2-y,1/2+z
x,-y,-z
-x,1/2+y,1/2-z
-x,-y,-z
x,1/2+y,1/2-z
-x,y,z
x,1/2-y,1/2+z
1/2+x,1/2+y,z
1/2-x,-y,1/2+z
1/2+x,1/2-y,-z
1/2-x,y,1/2-z
1/2-x,1/2-y,-z
1/2+x,y,1/2-z
1/2-x,1/2+y,z
1/2+x,-y,1/2+z
loop_
_atom_site_type_symbol
_atom_site_label
_atom_site_fract_x
_atom_site_fract_y
_atom_site_fract_z
Si Si1 0.664272 0.817541 0.183564
Si Si2 0.663375 0.367204 0.909180
Si Si3 0.334123 0.042138 0.321858
Si Si4 0.840747 0.018737 0.577943
Si Si5 0.000000 0.247557 0.484454
Si Si6 0.772158 0.769042 0.894173
Si Si7 0.838895 0.875889 0.450366
O O1 0.500000 0.823994 0.193879
O O2 0.750000 0.833406 0.250000
O O3 0.697664 0.765967 0.167049
O O4 0.704600 0.844417 0.113381
O O5 0.500000 0.366351 0.925539
O O6 0.690212 0.411037 0.862763
O O7 0.704720 0.320680 0.873238
O O8 0.747915 0.369362 0.981278
O O9 0.500000 0.036593 0.312000
O O10 0.250000 0.042423 0.250000
O O11 0.268691 0.003271 0.370200
O O12 0.000000 0.006706 0.597888
O O13 0.817878 0.000000 0.500000
O O14 0.831719 0.072480 0.573546
O O15 0.881107 0.257781 0.544507
O O16 0.878411 0.237991 0.426528
O O17 0.000000 0.864349 0.467121
#
# Coordination Sequence:
#
# PCOD9478997 Si02
#       7
#    16  16  16  16   8  16  16
#     4  11  25  42  60  87 128 172 212 254 311 377
#     4  11  23  38  62  96 128 163 210 265 315 371
#     4  11  25  43  64  93 131 171 211 261 320 385
#     4  10  20  40  67  98 128 161 205 261 318 380
#     4  10  20  36  64  90 120 154 210 262 320 368
#     4  11  22  39  61  94 126 163 207 264 318 372
#     4  10  22  39  65  95 127 159 209 265 314 375
#
# _framework density 18.872464999999998
#
# number of rings (size 3 to 8) (size 9 to 14) (size 15 to 20)
#    0.000    1.385    3.077    2.308    4.308    3.385 
#    0.000    1.538    0.000    0.000    0.000    0.000 
#    0.000    0.000    0.000    0.000    0.000    0.000 
#
# Total GULP energy -289525.716695 kJ/mol
# GULP energy per Si atom -5567.802244 kJ/mol
# Density = 1.882951 g / cm^3
# Si number density = 18.872465 Si / 1000 Ang^3
#
#
#
# Elastic Constant Matrix: (Units=GPa)
#
#
# Indices 1 2 3 4 5 6 
#
# 1 122.7160 25.3071 50.6276 0.0000 0.0000 0.0000
# 2 25.3071 70.0190 39.5585 0.0000 0.0000 0.0000
# 3 50.6276 39.5585 86.1588 0.0000 0.0000 0.0000
# 4 0.0000 0.0000 0.0000 1.5795 0.0000 0.0000
# 5 0.0000 0.0000 0.0000 0.0000 28.1651 0.0000
# 6 0.0000 0.0000 0.0000 0.0000 0.0000 2.1086
#
#
#
# Elastic Compliance Matrix: (Units=1/GPa)
#
#
# Indices 1 2 3 4 5 6 
#
# 1 0.010766 -0.000428 -0.006130 0.000000 0.000000 0.000000
# 2 -0.000428 0.019301 -0.008610 0.000000 0.000000 0.000000
# 3 -0.006130 -0.008610 0.019162 0.000000 0.000000 0.000000
# 4 0.000000 0.000000 0.000000 0.633102 0.000000 0.000000
# 5 0.000000 0.000000 0.000000 0.000000 0.035505 0.000000
# 6 0.000000 0.000000 0.000000 0.000000 0.000000 0.474258
#
#
# Mechanical properties :
#
#
# Convention : Reuss Voigt Hill
#
# Bulk Modulus (GPa) = 52.93053 56.65332 54.79193
# Shear Modulus (GPa) = 4.06925 17.26400 10.66663
#
# Velocity S-wave (km/s) = 1.46999 3.02780 2.37996
# Velocity P-wave (km/s) = 5.56673 6.50443 6.05376
#
# Compressibility (1/GPa) = 0.01889269
#
# Stress axis : x y z
#
# Youngs Moduli (GPa) = 92.88486 51.81055 52.18788
#
# Poissons Ratio (x) = 0.02218 0.31989
# Poissons Ratio (y) = 0.03977 0.44935
# Poissons Ratio (z) = 0.56935 0.44610
#
# Static dielectric constant tensor:
#      x y z
#    x 1.635100 0.000000 0.000000 
#    y 0.000000 1.693780 0.000000 
#    z 0.000000 0.000000 1.621400 
# 
# From -- ./inp_files/37400.got.cif
#   From: 2010.05.17/outbox.cif.g08.bks.cpg/sg64_19_cif.got.tgz:37400.got - 2010.06.03 16:29:19.
