data_PCOD9478865
_publ_section_title
;
Structure prediction by ZEFSAII (Michael W. Deem and Ramdas Pophale) SiO2 
 PCOD9478865
Probable space group: C M C A
;
_chemical_formula_sum "Si O2"
_cell_formula_units_Z 52
_cell_length_a 5.339918
_cell_length_b 23.183996
_cell_length_c 16.179604
_cell_angle_alpha 90.000000
_cell_angle_beta 90.000000
_cell_angle_gamma 90.000000
_cell_volume 2003.045291
_symmetry_space_group_name_H-M "C M C A"
_symmetry_group_IT_number 64
_symmetry_cell_setting 'orthorhombic'
loop_
_space_group_symop_operation_xyz
x,y,z
-x,1/2-y,1/2+z
x,-y,-z
-x,1/2+y,1/2-z
-x,-y,-z
x,1/2+y,1/2-z
-x,y,z
x,1/2-y,1/2+z
1/2+x,1/2+y,z
1/2-x,-y,1/2+z
1/2+x,1/2-y,-z
1/2-x,y,1/2-z
1/2-x,1/2-y,-z
1/2+x,y,1/2-z
1/2-x,1/2+y,z
1/2+x,-y,1/2+z
loop_
_atom_site_type_symbol
_atom_site_label
_atom_site_fract_x
_atom_site_fract_y
_atom_site_fract_z
Si Si1 0.500000 0.500000 0.500000
Si Si2 0.000000 0.253208 0.805503
Si Si3 0.000000 0.896709 0.796432
Si Si4 0.500000 0.881366 0.304216
Si Si5 0.000000 0.169509 0.031591
Si Si6 0.500000 0.697751 0.491899
Si Si7 0.000000 0.997373 0.109374
O O1 0.267084 0.486727 0.566605
O O2 0.250000 0.261376 0.750000
O O3 0.000000 0.185722 0.829533
O O4 0.000000 0.288068 0.892816
O O5 0.250000 0.879935 0.750000
O O6 0.000000 0.865151 0.884529
O O7 0.000000 0.964998 0.808382
O O8 0.250000 0.890038 0.250000
O O9 0.500000 0.929505 0.374545
O O10 0.739120 0.160179 0.987756
O O11 0.000000 0.240706 0.038838
#
# Coordination Sequence:
#
# PCOD9478865 Si02
#       7
#     4   8   8   8   8   8   8
#     4  10  24  38  60  88 116 156 206 246 286 364
#     4  10  21  35  57  89 114 146 195 241 298 353
#     4  12  25  41  65  95 127 167 213 266 322 382
#     4  10  20  36  58  84 115 151 193 236 288 359
#     4  10  23  40  59  87 117 159 210 241 308 382
#     4  10  21  40  60  81 120 161 194 256 309 362
#     4  11  22  42  61  88 125 160 200 248 310 359
#
# _framework density 25.960470999999998
#
# number of rings (size 3 to 8) (size 9 to 14) (size 15 to 20)
#    0.000    1.538    0.000    4.615    0.000    6.154 
#    0.000    6.154    0.000    0.000    0.000    0.000 
#    0.000    0.000    0.000    0.000    0.000    0.000 
#
# Total GULP energy -145044.752701 kJ/mol
# GULP energy per Si atom -5578.644335 kJ/mol
# Density = 2.590138 g / cm^3
# Si number density = 25.960471 Si / 1000 Ang^3
#
#
#
# Elastic Constant Matrix: (Units=GPa)
#
#
# Indices 1 2 3 4 5 6 
#
# 1 319.3592 28.1577 57.2499 0.0000 0.0000 0.0000
# 2 28.1577 117.9618 32.0102 0.0000 0.0000 0.0000
# 3 57.2499 32.0102 79.5150 0.0000 0.0000 0.0000
# 4 0.0000 0.0000 0.0000 36.5896 0.0000 0.0000
# 5 0.0000 0.0000 0.0000 0.0000 52.9777 0.0000
# 6 0.0000 0.0000 0.0000 0.0000 0.0000 589.4856
#
#
#
# Elastic Compliance Matrix: (Units=1/GPa)
#
#
# Indices 1 2 3 4 5 6 
#
# 1 0.003599 -0.000175 -0.002520 0.000000 0.000000 0.000000
# 2 -0.000175 0.009525 -0.003709 0.000000 0.000000 0.000000
# 3 -0.002520 -0.003709 0.015884 0.000000 0.000000 0.000000
# 4 0.000000 0.000000 0.000000 0.027330 0.000000 0.000000
# 5 0.000000 0.000000 0.000000 0.000000 0.018876 0.000000
# 6 0.000000 0.000000 0.000000 0.000000 0.000000 0.001696
#
#
# Mechanical properties :
#
#
# Convention : Reuss Voigt Hill
#
# Bulk Modulus (GPa) = 61.72951 83.51908 72.62429
# Shear Modulus (GPa) = 52.56601 162.43846 107.50223
#
# Velocity S-wave (km/s) = 4.50471 7.91879 6.44204
# Velocity P-wave (km/s) = 7.13348 10.76342 9.13065
#
# Compressibility (1/GPa) = 0.01619971
#
# Stress axis : x y z
#
# Youngs Moduli (GPa) = 277.89132 104.98161 62.95675
#
# Poissons Ratio (x) = 0.01837 0.15868
# Poissons Ratio (y) = 0.04864 0.23348
# Poissons Ratio (z) = 0.70041 0.38934
#
# Static dielectric constant tensor:
#      x y z
#    x 2.063160 0.000000 0.000000 
#    y 0.000000 2.049060 0.000000 
#    z 0.000000 0.000000 2.084750 
# 
# From -- ./inp_files/28679.got.cif
#   From: 2010.05.17/outbox.cif.g08.bks.cpg/sg64_15_cif.got.tgz:28679.got - 2010.06.03 16:29:19.
