data_PCOD9478674
_publ_section_title
;
Structure prediction by ZEFSAII (Michael W. Deem and Ramdas Pophale) SiO2 
 PCOD9478674
Probable space group: C M C A
;
_chemical_formula_sum "Si O2"
_cell_formula_units_Z 80
_cell_length_a 17.188254
_cell_length_b 25.108426
_cell_length_c 9.800506
_cell_angle_alpha 90.000000
_cell_angle_beta 90.000000
_cell_angle_gamma 90.000000
_cell_volume 4229.604410
_symmetry_space_group_name_H-M "C M C A"
_symmetry_group_IT_number 64
_symmetry_cell_setting 'orthorhombic'
loop_
_space_group_symop_operation_xyz
x,y,z
-x,1/2-y,1/2+z
x,-y,-z
-x,1/2+y,1/2-z
-x,-y,-z
x,1/2+y,1/2-z
-x,y,z
x,1/2-y,1/2+z
1/2+x,1/2+y,z
1/2-x,-y,1/2+z
1/2+x,1/2-y,-z
1/2-x,y,1/2-z
1/2-x,1/2-y,-z
1/2+x,y,1/2-z
1/2-x,1/2+y,z
1/2+x,-y,1/2+z
loop_
_atom_site_type_symbol
_atom_site_label
_atom_site_fract_x
_atom_site_fract_y
_atom_site_fract_z
Si Si1 0.295512 0.453791 0.110287
Si Si2 0.734450 0.875567 0.891075
Si Si3 0.089750 0.137188 0.807856
Si Si4 0.413498 0.321852 0.495323
Si Si5 0.670433 0.216232 0.492285
O O1 0.250000 0.468497 0.250000
O O2 0.370608 0.418620 0.151923
O O3 0.313084 0.500000 0.000000
O O4 0.243158 0.412824 0.022030
O O5 0.750000 0.905413 0.750000
O O6 0.803726 0.831617 0.894203
O O7 0.652678 0.845516 0.907223
O O8 0.089952 0.146090 0.646185
O O9 0.000000 0.140616 0.855393
O O10 0.141178 0.184709 0.874017
O O11 0.500000 0.325377 0.553492
O O12 0.393376 0.260498 0.459172
O O13 0.750000 0.250000 0.500000
#
# Coordination Sequence:
#
# PCOD9478674 Si02
#       5
#    16  16  16  16  16
#     4  11  22  41  66  89 117 153 208 259 313 370
#     4  10  21  37  57  88 120 156 203 251 297 354
#     4  10  21  38  59  89 126 163 203 255 309 360
#     4  10  20  35  57  84 124 165 199 242 298 359
#     4   9  20  31  55  84 122 163 208 240 282 345
#
# _framework density 18.914299
#
# number of rings (size 3 to 8) (size 9 to 14) (size 15 to 20)
#    0.000    2.000    2.000    1.200    5.600    0.400 
#    0.000    4.000    0.000    4.800    0.000    0.000 
#    0.000    0.000    0.000    0.000    0.000    0.000 
#
# Total GULP energy -222727.788626 kJ/mol
# GULP energy per Si atom -5568.194716 kJ/mol
# Density = 1.887125 g / cm^3
# Si number density = 18.914299 Si / 1000 Ang^3
#
#
#
# Elastic Constant Matrix: (Units=GPa)
#
#
# Indices 1 2 3 4 5 6 
#
# 1 94.1982 23.0009 37.7797 0.0000 0.0000 0.0000
# 2 23.0009 93.1443 31.1666 0.0000 0.0000 0.0000
# 3 37.7797 31.1666 99.3794 0.0000 0.0000 0.0000
# 4 0.0000 0.0000 0.0000 21.7610 0.0000 0.0000
# 5 0.0000 0.0000 0.0000 0.0000 22.7998 0.0000
# 6 0.0000 0.0000 0.0000 0.0000 0.0000 2.3393
#
#
#
# Elastic Compliance Matrix: (Units=1/GPa)
#
#
# Indices 1 2 3 4 5 6 
#
# 1 0.012764 -0.001708 -0.004317 0.000000 0.000000 0.000000
# 2 -0.001708 0.012223 -0.003184 0.000000 0.000000 0.000000
# 3 -0.004317 -0.003184 0.012702 0.000000 0.000000 0.000000
# 4 0.000000 0.000000 0.000000 0.045954 0.000000 0.000000
# 5 0.000000 0.000000 0.000000 0.000000 0.043860 0.000000
# 6 0.000000 0.000000 0.000000 0.000000 0.000000 0.427472
#
#
# Mechanical properties :
#
#
# Convention : Reuss Voigt Hill
#
# Bulk Modulus (GPa) = 51.88803 52.29069 52.08936
# Shear Modulus (GPa) = 8.62341 22.36501 15.49421
#
# Velocity S-wave (km/s) = 2.13755 3.44239 2.86524
# Velocity P-wave (km/s) = 5.79525 6.59592 6.20851
#
# Compressibility (1/GPa) = 0.01927227
#
# Stress axis : x y z
#
# Youngs Moduli (GPa) = 78.34406 81.81214 78.72685
#
# Poissons Ratio (x) = 0.13969 0.33986
# Poissons Ratio (y) = 0.13377 0.25068
# Poissons Ratio (z) = 0.33820 0.26051
#
# Static dielectric constant tensor:
#      x y z
#    x 1.660040 0.000000 0.000000 
#    y 0.000000 1.682150 0.000000 
#    z 0.000000 0.000000 1.706300 
# 
# From -- ./inp_files/7069.got.cif
#   From: 2010.05.17/outbox.cif.g08.bks.cpg/sg64_4_cif.got.tgz:7069.got - 2010.06.03 16:29:19.
