data_PCOD9478737
_publ_section_title
;
Structure prediction by ZEFSAII (Michael W. Deem and Ramdas Pophale) SiO2 
 PCOD9478737
Probable space group: C M C A
;
_chemical_formula_sum "Si O2"
_cell_formula_units_Z 104
_cell_length_a 9.834626
_cell_length_b 18.680521
_cell_length_c 26.996759
_cell_angle_alpha 90.000000
_cell_angle_beta 90.000000
_cell_angle_gamma 90.000000
_cell_volume 4959.734890
_symmetry_space_group_name_H-M "C M C A"
_symmetry_group_IT_number 64
_symmetry_cell_setting 'orthorhombic'
loop_
_space_group_symop_operation_xyz
x,y,z
-x,1/2-y,1/2+z
x,-y,-z
-x,1/2+y,1/2-z
-x,-y,-z
x,1/2+y,1/2-z
-x,y,z
x,1/2-y,1/2+z
1/2+x,1/2+y,z
1/2-x,-y,1/2+z
1/2+x,1/2-y,-z
1/2-x,y,1/2-z
1/2-x,1/2-y,-z
1/2+x,y,1/2-z
1/2-x,1/2+y,z
1/2+x,-y,1/2+z
loop_
_atom_site_type_symbol
_atom_site_label
_atom_site_fract_x
_atom_site_fract_y
_atom_site_fract_z
Si Si1 0.153583 0.827510 0.825191
Si Si2 0.651974 0.191129 0.442492
Si Si3 0.341880 0.490902 0.796227
Si Si4 0.342110 0.642612 0.526623
Si Si5 0.500000 0.652195 0.728338
Si Si6 0.778798 0.316436 0.313961
Si Si7 0.845982 0.916892 0.106047
O O1 0.157775 0.827715 0.884672
O O2 0.259680 0.768478 0.808204
O O3 0.000000 0.803714 0.809521
O O4 0.175080 0.906351 0.804680
O O5 0.500000 0.171963 0.460873
O O6 0.665438 0.276740 0.450184
O O7 0.764783 0.151153 0.474539
O O8 0.500000 0.505613 0.783280
O O9 0.250000 0.512898 0.750000
O O10 0.313200 0.529428 0.848366
O O11 0.500000 0.623971 0.521620
O O12 0.260400 0.588495 0.561913
O O13 0.624895 0.652617 0.687470
O O14 0.618703 0.658186 0.771799
O O15 0.841123 0.340438 0.365983
O O16 0.000000 0.932452 0.089457
#
# Coordination Sequence:
#
# PCOD9478737 Si02
#       7
#    16  16  16  16   8  16  16
#     4  10  20  39  62  86 115 155 196 242 290 352
#     4   9  18  35  59  89 119 150 188 241 299 352
#     4  10  25  42  60  83 120 159 202 241 290 345
#     4  10  20  35  60  91 119 150 190 245 299 348
#     4  10  24  32  52  84 116 148 192 250 288 342
#     4  11  21  36  56  83 113 149 197 242 292 344
#     4  11  23  39  58  86 117 157 196 241 290 353
#
# _framework density 20.968862999999999
#
# number of rings (size 3 to 8) (size 9 to 14) (size 15 to 20)
#    0.000    1.846    3.077    0.462    5.385    1.231 
#    1.385    0.769    0.000    4.615    0.000    0.000 
#    0.000    0.000    0.000    0.000    0.000    0.000 
#
# Total GULP energy -289524.157347 kJ/mol
# GULP energy per Si atom -5567.772257 kJ/mol
# Density = 2.092114 g / cm^3
# Si number density = 20.968863 Si / 1000 Ang^3
#
#
#
# Elastic Constant Matrix: (Units=GPa)
#
#
# Indices 1 2 3 4 5 6 
#
# 1 130.7666 24.6709 30.9749 0.0000 0.0000 0.0000
# 2 24.6709 72.0378 -3.1181 0.0000 0.0000 0.0000
# 3 30.9749 -3.1181 45.2168 0.0000 0.0000 0.0000
# 4 0.0000 0.0000 0.0000 20.1453 0.0000 0.0000
# 5 0.0000 0.0000 0.0000 0.0000 5.6910 0.0000
# 6 0.0000 0.0000 0.0000 0.0000 0.0000 21.3426
#
#
#
# Elastic Compliance Matrix: (Units=1/GPa)
#
#
# Indices 1 2 3 4 5 6 
#
# 1 0.010046 -0.003750 -0.007140 0.000000 0.000000 0.000000
# 2 -0.003750 0.015323 0.003625 0.000000 0.000000 0.000000
# 3 -0.007140 0.003625 0.027257 0.000000 0.000000 0.000000
# 4 0.000000 0.000000 0.000000 0.049639 0.000000 0.000000
# 5 0.000000 0.000000 0.000000 0.000000 0.175716 0.000000
# 6 0.000000 0.000000 0.000000 0.000000 0.000000 0.046855
#
#
# Mechanical properties :
#
#
# Convention : Reuss Voigt Hill
#
# Bulk Modulus (GPa) = 26.24933 39.23072 32.74003
# Shear Modulus (GPa) = 14.20198 22.46867 18.33532
#
# Velocity S-wave (km/s) = 2.60530 3.27697 2.96025
# Velocity P-wave (km/s) = 4.64710 5.75045 5.22796
#
# Compressibility (1/GPa) = 0.03809621
#
# Stress axis : x y z
#
# Youngs Moduli (GPa) = 99.54261 65.26302 36.68778
#
# Poissons Ratio (x) = 0.24470 0.26196
# Poissons Ratio (y) = 0.37324 -0.13300
# Poissons Ratio (z) = 0.71077 -0.23659
#
# Static dielectric constant tensor:
#      x y z
#    x 1.747770 0.000000 0.000000 
#    y 0.000000 1.837490 0.000000 
#    z 0.000000 0.000000 1.787740 
# 
# From -- ./inp_files/52083.got.cif
#   From: 2010.05.17/outbox.cif.g08.bks.cpg/sg64_27_cif.got.tgz:52083.got - 2010.06.03 16:29:19.
