data_PCOD9478582
_publ_section_title
;
Structure prediction by ZEFSAII (Michael W. Deem and Ramdas Pophale) SiO2 
 PCOD9478582
Probable space group: C M C A
;
_chemical_formula_sum "Si O2"
_cell_formula_units_Z 96
_cell_length_a 8.568561
_cell_length_b 24.245859
_cell_length_c 26.745739
_cell_angle_alpha 90.000000
_cell_angle_beta 90.000000
_cell_angle_gamma 90.000000
_cell_volume 5556.484027
_symmetry_space_group_name_H-M "C M C A"
_symmetry_group_IT_number 64
_symmetry_cell_setting 'orthorhombic'
loop_
_space_group_symop_operation_xyz
x,y,z
-x,1/2-y,1/2+z
x,-y,-z
-x,1/2+y,1/2-z
-x,-y,-z
x,1/2+y,1/2-z
-x,y,z
x,1/2-y,1/2+z
1/2+x,1/2+y,z
1/2-x,-y,1/2+z
1/2+x,1/2-y,-z
1/2-x,y,1/2-z
1/2-x,1/2-y,-z
1/2+x,y,1/2-z
1/2-x,1/2+y,z
1/2+x,-y,1/2+z
loop_
_atom_site_type_symbol
_atom_site_label
_atom_site_fract_x
_atom_site_fract_y
_atom_site_fract_z
Si Si1 0.187069 0.257350 0.380273
Si Si2 0.815441 0.823539 0.964663
Si Si3 0.815274 0.358007 0.069176
Si Si4 0.813560 0.584246 0.104538
Si Si5 0.312925 0.663221 0.305509
Si Si6 0.686727 0.980452 0.443819
O O1 0.241070 0.221396 0.427998
O O2 0.258460 0.317857 0.386531
O O3 0.237974 0.219966 0.333043
O O4 0.000000 0.261055 0.380371
O O5 0.780053 0.881383 0.937193
O O6 0.000000 0.814699 0.970151
O O7 0.734368 0.827348 0.018047
O O8 0.735651 0.417736 0.066492
O O9 0.000000 0.364663 0.070791
O O10 0.771312 0.612663 0.157334
O O11 0.767232 0.521355 0.095758
O O12 0.000000 0.591936 0.097087
O O13 0.500000 0.664659 0.303462
O O14 0.250000 0.657606 0.250000
O O15 0.500000 0.985534 0.440779
O O16 0.734459 0.000000 0.500000
#
# Coordination Sequence:
#
# PCOD9478582 Si02
#       6
#    16  16  16  16  16  16
#     4  10  21  37  53  76 108 140 178 223 269 322
#     4  11  20  32  50  75 107 144 182 221 263 314
#     4  12  23  34  51  75 107 148 184 219 265 317
#     4  10  20  35  54  80 110 143 183 225 269 317
#     4   9  20  37  60  85 108 136 173 222 277 327
#     4  11  22  35  53  78 109 148 189 223 264 317
#
# _framework density 17.277111999999999
#
# number of rings (size 3 to 8) (size 9 to 14) (size 15 to 20)
#    0.000    1.500    1.667    6.000    0.000    4.667 
#    0.000    0.000    0.000    1.000    0.000    7.000 
#    0.000    0.000    0.000    0.000    0.000    0.000 
#
# Total GULP energy -268038.726398 kJ/mol
# GULP energy per Si atom -5584.140133 kJ/mol
# Density = 1.723779 g / cm^3
# Si number density = 17.277112 Si / 1000 Ang^3
#
#
#
# Elastic Constant Matrix: (Units=GPa)
#
#
# Indices 1 2 3 4 5 6 
#
# 1 54.2256 7.6129 18.8373 0.0000 0.0000 0.0000
# 2 7.6129 70.2494 39.6349 0.0000 0.0000 0.0000
# 3 18.8373 39.6349 97.5399 0.0000 0.0000 0.0000
# 4 0.0000 0.0000 0.0000 9.6079 0.0000 0.0000
# 5 0.0000 0.0000 0.0000 0.0000 24.6184 0.0000
# 6 0.0000 0.0000 0.0000 0.0000 0.0000 32.0343
#
#
#
# Elastic Compliance Matrix: (Units=1/GPa)
#
#
# Indices 1 2 3 4 5 6 
#
# 1 0.019768 0.000015 -0.003824 0.000000 0.000000 0.000000
# 2 0.000015 0.018469 -0.007508 0.000000 0.000000 0.000000
# 3 -0.003824 -0.007508 0.014041 0.000000 0.000000 0.000000
# 4 0.000000 0.000000 0.000000 0.104081 0.000000 0.000000
# 5 0.000000 0.000000 0.000000 0.000000 0.040620 0.000000
# 6 0.000000 0.000000 0.000000 0.000000 0.000000 0.031217
#
#
# Mechanical properties :
#
#
# Convention : Reuss Voigt Hill
#
# Bulk Modulus (GPa) = 33.73190 39.35391 36.54290
# Shear Modulus (GPa) = 19.17831 23.64743 21.41287
#
# Velocity S-wave (km/s) = 3.33534 3.70363 3.52430
# Velocity P-wave (km/s) = 5.86508 6.41223 6.14474
#
# Compressibility (1/GPa) = 0.02964553
#
# Stress axis : x y z
#
# Youngs Moduli (GPa) = 50.58759 54.14386 71.21761
#
# Poissons Ratio (x) = -0.00082 0.27232
# Poissons Ratio (y) = -0.00077 0.53469
# Poissons Ratio (z) = 0.19344 0.40650
#
# Static dielectric constant tensor:
#      x y z
#    x 1.576000 0.000000 0.000000 
#    y 0.000000 1.620490 0.000000 
#    z 0.000000 0.000000 1.590800 
# 
# From -- ./inp_files/48377.got.cif
#   From: 2010.05.17/outbox.cif.g08.bks.cpg/sg64_25_cif.got.tgz:48377.got - 2010.06.03 16:29:19.
