data_PCOD9478419
_publ_section_title
;
Structure prediction by ZEFSAII (Michael W. Deem and Ramdas Pophale) SiO2 
 PCOD9478419
Probable space group: C M C A
;
_chemical_formula_sum "Si O2"
_cell_formula_units_Z 96
_cell_length_a 15.810746
_cell_length_b 13.706352
_cell_length_c 22.794569
_cell_angle_alpha 90.000000
_cell_angle_beta 90.000000
_cell_angle_gamma 90.000000
_cell_volume 4939.757482
_symmetry_space_group_name_H-M "C M C A"
_symmetry_group_IT_number 64
_symmetry_cell_setting 'orthorhombic'
loop_
_space_group_symop_operation_xyz
x,y,z
-x,1/2-y,1/2+z
x,-y,-z
-x,1/2+y,1/2-z
-x,-y,-z
x,1/2+y,1/2-z
-x,y,z
x,1/2-y,1/2+z
1/2+x,1/2+y,z
1/2-x,-y,1/2+z
1/2+x,1/2-y,-z
1/2-x,y,1/2-z
1/2-x,1/2-y,-z
1/2+x,y,1/2-z
1/2-x,1/2+y,z
1/2+x,-y,1/2+z
loop_
_atom_site_type_symbol
_atom_site_label
_atom_site_fract_x
_atom_site_fract_y
_atom_site_fract_z
Si Si1 0.000000 0.426943 0.121830
Si Si2 0.500000 0.193730 0.997174
Si Si3 0.312981 0.415603 0.906670
Si Si4 0.670792 0.616600 0.497381
Si Si5 0.000000 0.608758 0.422451
Si Si6 0.500000 0.227609 0.303242
Si Si7 0.185586 0.417253 0.127025
Si Si8 0.318312 0.769247 0.702785
O O1 0.000000 0.386841 0.055345
O O2 0.000000 0.330750 0.162599
O O3 0.093356 0.470790 0.132137
O O4 0.500000 0.298781 0.966406
O O5 0.410773 0.172342 0.028189
O O6 0.255680 0.374240 0.959781
O O7 0.408111 0.441124 0.927921
O O8 0.261470 0.507810 0.881512
O O9 0.316761 0.337192 0.854568
O O10 0.653797 0.500000 0.500000
O O11 0.681335 0.643668 0.565759
O O12 0.000000 0.649231 0.355712
O O13 0.412082 0.221481 0.270166
O O14 0.195555 0.340891 0.179448
O O15 0.250000 0.798070 0.750000
#
# Coordination Sequence:
#
# PCOD9478419 Si02
#       8
#     8   8  16  16   8   8  16  16
#     4   7  12  27  51  73  94 126 164 200 247 296
#     4   9  15  26  48  75 104 132 162 205 251 297
#     4  10  20  34  53  76 103 134 172 212 249 298
#     4   9  17  30  51  79 104 128 165 213 260 300
#     4   9  18  31  48  69  98 143 177 191 235 310
#     4   7  14  32  52  69  91 125 170 210 240 289
#     4   9  18  33  54  77 102 131 165 210 256 301
#     4  10  20  35  55  76  99 131 172 211 253 302
#
# _framework density 19.434152000000001
#
# number of rings (size 3 to 8) (size 9 to 14) (size 15 to 20)
#    0.000    3.000    0.000    3.250    0.000    5.333 
#    0.000    6.250    0.000    6.000    0.000    0.000 
#    0.000    0.000    0.000    0.000    0.000    0.000 
#
# Total GULP energy -267242.263212 kJ/mol
# GULP energy per Si atom -5567.547150 kJ/mol
# Density = 1.938992 g / cm^3
# Si number density = 19.434152 Si / 1000 Ang^3
#
#
#
# Elastic Constant Matrix: (Units=GPa)
#
#
# Indices 1 2 3 4 5 6 
#
# 1 202.3651 29.4360 22.3248 0.0000 0.0000 0.0000
# 2 29.4360 33.1266 -7.7602 0.0000 0.0000 0.0000
# 3 22.3248 -7.7602 29.9245 0.0000 0.0000 0.0000
# 4 0.0000 0.0000 0.0000 6.1739 0.0000 0.0000
# 5 0.0000 0.0000 0.0000 0.0000 27.5980 0.0000
# 6 0.0000 0.0000 0.0000 0.0000 0.0000 25.0414
#
#
#
# Elastic Compliance Matrix: (Units=1/GPa)
#
#
# Indices 1 2 3 4 5 6 
#
# 1 0.006857 -0.007763 -0.007129 0.000000 0.000000 0.000000
# 2 -0.007763 0.040929 0.016406 0.000000 0.000000 0.000000
# 3 -0.007129 0.016406 0.042990 0.000000 0.000000 0.000000
# 4 0.000000 0.000000 0.000000 0.161972 0.000000 0.000000
# 5 0.000000 0.000000 0.000000 0.000000 0.036234 0.000000
# 6 0.000000 0.000000 0.000000 0.000000 0.000000 0.039934
#
#
# Mechanical properties :
#
#
# Convention : Reuss Voigt Hill
#
# Bulk Modulus (GPa) = 10.66062 39.26858 24.96460
# Shear Modulus (GPa) = 13.99942 26.52372 20.26157
#
# Velocity S-wave (km/s) = 2.68685 3.69833 3.23240
# Velocity P-wave (km/s) = 3.88882 6.20376 5.17734
#
# Compressibility (1/GPa) = 0.09380318
#
# Stress axis : x y z
#
# Youngs Moduli (GPa) = 145.83015 24.43262 23.26103
#
# Poissons Ratio (x) = 0.18968 0.16583
# Poissons Ratio (y) = 1.13213 -0.38161
# Poissons Ratio (z) = 1.03963 -0.40083
#
# Static dielectric constant tensor:
#      x y z
#    x 1.780370 0.000000 0.000000 
#    y 0.000000 1.707050 0.000000 
#    z 0.000000 0.000000 1.696410 
# 
# From -- ./inp_files/45207.got.cif
#   From: 2010.05.17/outbox.cif.g08.bks.cpg/sg64_23_cif.got.tgz:45207.got - 2010.06.03 16:29:19.
