data_PCOD9478040
_publ_section_title
;
Structure prediction by ZEFSAII (Michael W. Deem and Ramdas Pophale) SiO2 
 PCOD9478040
Probable space group: C M C A
;
_chemical_formula_sum "Si O2"
_cell_formula_units_Z 64
_cell_length_a 10.929995
_cell_length_b 13.858960
_cell_length_c 15.284375
_cell_angle_alpha 90.000000
_cell_angle_beta 90.000000
_cell_angle_gamma 90.000000
_cell_volume 2315.252112
_symmetry_space_group_name_H-M "C M C A"
_symmetry_group_IT_number 64
_symmetry_cell_setting 'orthorhombic'
loop_
_space_group_symop_operation_xyz
x,y,z
-x,1/2-y,1/2+z
x,-y,-z
-x,1/2+y,1/2-z
-x,-y,-z
x,1/2+y,1/2-z
-x,y,z
x,1/2-y,1/2+z
1/2+x,1/2+y,z
1/2-x,-y,1/2+z
1/2+x,1/2-y,-z
1/2-x,y,1/2-z
1/2-x,1/2-y,-z
1/2+x,y,1/2-z
1/2-x,1/2+y,z
1/2+x,-y,1/2+z
loop_
_atom_site_type_symbol
_atom_site_label
_atom_site_fract_x
_atom_site_fract_y
_atom_site_fract_z
Si Si1 0.812262 0.370740 0.062732
Si Si2 0.000000 0.289422 0.305178
Si Si3 0.500000 0.870144 0.914979
Si Si4 0.141465 0.359567 0.575634
Si Si5 0.000000 0.540208 0.804661
Si Si6 0.750000 0.322480 0.750000
O O1 0.830532 0.256388 0.075938
O O2 0.880532 0.420853 0.142497
O O3 0.888162 0.396089 0.975627
O O4 0.680495 0.392980 0.022294
O O5 0.000000 0.243773 0.400796
O O6 0.129065 0.244119 0.268914
O O7 0.000000 0.402336 0.285435
O O8 0.500000 0.927110 0.823825
O O9 0.214432 0.386263 0.665028
O O10 0.000000 0.377235 0.590415
#
# Coordination Sequence:
#
# PCOD9478040 Si02
#       6
#    16   8   8  16   8   8
#     4  10  19  36  61  99 127 170 228 275 324 402
#     4  12  24  42  66 100 128 186 226 276 336 420
#     4  11  22  39  71  93 128 183 224 274 338 415
#     4  11  20  33  61  99 129 179 234 279 321 405
#     4  11  22  43  65  97 136 169 236 282 330 409
#     4  12  20  38  62  90 142 174 236 268 334 396
#
# _framework density 27.642778
#
# number of rings (size 3 to 8) (size 9 to 14) (size 15 to 20)
#    0.000    1.000    8.750    1.500    0.000    0.000 
#    0.000    1.250    0.000    3.000    0.000    3.500 
#    0.000    0.000    0.000    0.000    0.000    0.000 
#
# Total GULP energy -178818.181846 kJ/mol
# GULP energy per Si atom -5588.068183 kJ/mol
# Density = 2.757986 g / cm^3
# Si number density = 27.642778 Si / 1000 Ang^3
#
#
#
# Elastic Constant Matrix: (Units=GPa)
#
#
# Indices 1 2 3 4 5 6 
#
# 1 166.2091 4.6681 42.2917 0.0000 0.0000 0.0000
# 2 4.6681 100.0433 23.6180 0.0000 0.0000 0.0000
# 3 42.2917 23.6180 87.3478 0.0000 0.0000 0.0000
# 4 0.0000 0.0000 0.0000 39.3532 0.0000 0.0000
# 5 0.0000 0.0000 0.0000 0.0000 5.8684 0.0000
# 6 0.0000 0.0000 0.0000 0.0000 0.0000 -5.1286
#
#
#
# Elastic Compliance Matrix: (Units=1/GPa)
#
#
# Indices 1 2 3 4 5 6 
#
# 1 0.006885 0.000497 -0.003468 0.000000 0.000000 0.000000
# 2 0.000497 0.010713 -0.003138 0.000000 0.000000 0.000000
# 3 -0.003468 -0.003138 0.013976 0.000000 0.000000 0.000000
# 4 0.000000 0.000000 0.000000 0.025411 0.000000 0.000000
# 5 0.000000 0.000000 0.000000 0.000000 0.170405 0.000000
# 6 0.000000 0.000000 0.000000 0.000000 0.000000 -0.194987
#
#
# Mechanical properties :
#
#
# Convention : Reuss Voigt Hill
#
# Bulk Modulus (GPa) = 51.65876 54.97287 53.31582
# Shear Modulus (GPa) = 97.89987 26.88675 62.39331
#
# Velocity S-wave (km/s) = 5.95760 3.12212 4.75608
# Velocity P-wave (km/s) = 8.12727 5.73819 7.03489
#
# Compressibility (1/GPa) = 0.01935780
#
# Stress axis : x y z
#
# Youngs Moduli (GPa) = 145.24351 93.34294 71.55112
#
# Poissons Ratio (x) = -0.04644 0.24814
# Poissons Ratio (y) = -0.07226 0.22450
# Poissons Ratio (z) = 0.50371 0.29287
#
# Static dielectric constant tensor:
#      x y z
#    x 2.452230 0.000000 0.000000 
#    y 0.000000 2.168640 0.000000 
#    z 0.000000 0.000000 2.227570 
# 
# From -- ./inp_files/30637.got.cif
#   From: 2010.05.17/outbox.cif.g08.bks.cpg/sg64_16_cif.got.tgz:30637.got - 2010.06.03 16:29:19.
