data_PCOD9478338
_publ_section_title
;
Structure prediction by ZEFSAII (Michael W. Deem and Ramdas Pophale) SiO2 
 PCOD9478338
Probable space group: C M C A
;
_chemical_formula_sum "Si O2"
_cell_formula_units_Z 120
_cell_length_a 24.001800
_cell_length_b 25.939083
_cell_length_c 9.029799
_cell_angle_alpha 90.000000
_cell_angle_beta 90.000000
_cell_angle_gamma 90.000000
_cell_volume 5621.814542
_symmetry_space_group_name_H-M "C M C A"
_symmetry_group_IT_number 64
_symmetry_cell_setting 'orthorhombic'
loop_
_space_group_symop_operation_xyz
x,y,z
-x,1/2-y,1/2+z
x,-y,-z
-x,1/2+y,1/2-z
-x,-y,-z
x,1/2+y,1/2-z
-x,y,z
x,1/2-y,1/2+z
1/2+x,1/2+y,z
1/2-x,-y,1/2+z
1/2+x,1/2-y,-z
1/2-x,y,1/2-z
1/2-x,1/2-y,-z
1/2+x,y,1/2-z
1/2-x,1/2+y,z
1/2+x,-y,1/2+z
loop_
_atom_site_type_symbol
_atom_site_label
_atom_site_fract_x
_atom_site_fract_y
_atom_site_fract_z
Si Si1 0.172563 0.682208 0.124826
Si Si2 0.224026 0.574939 0.087137
Si Si3 0.567622 0.689477 0.864005
Si Si4 0.939465 0.379561 0.861293
Si Si5 0.866227 0.741271 0.374892
Si Si6 0.691468 0.000000 0.500000
Si Si7 0.937042 0.587014 0.799581
Si Si8 0.379566 0.978329 0.787931
O O1 0.211978 0.635368 0.077064
O O2 0.112612 0.656658 0.166818
O O3 0.181220 0.713137 0.276872
O O4 0.163126 0.719576 0.987807
O O5 0.250000 0.567092 0.250000
O O6 0.266063 0.547886 0.973168
O O7 0.165503 0.545198 0.097835
O O8 0.500000 0.693892 0.867078
O O9 0.594149 0.727138 0.739024
O O10 0.582417 0.630966 0.814424
O O11 0.596009 0.705163 0.018887
O O12 0.927652 0.435225 0.788940
O O13 0.000000 0.359247 0.815890
O O14 0.939463 0.387244 0.038606
O O15 0.652223 0.016493 0.366875
O O16 0.902616 0.534980 0.815834
O O17 0.000000 0.572483 0.756919
#
# Coordination Sequence:
#
# PCOD9478338 Si02
#       8
#    16  16  16  16  16   8  16  16
#     4  10  21  38  62  86 120 158 200 253 306 359
#     4   9  21  39  62  85 113 148 193 252 307 369
#     4  10  20  33  52  81 121 162 207 252 289 347
#     4  10  20  35  57  87 120 163 202 233 290 360
#     4  10  21  36  55  85 114 160 205 251 310 356
#     4  10  22  40  59  90 113 148 200 242 312 372
#     4  10  20  34  55  88 120 157 201 238 285 357
#     4  10  21  36  59  84 119 152 186 248 298 357
#
# _framework density 21.345421999999999
#
# number of rings (size 3 to 8) (size 9 to 14) (size 15 to 20)
#    0.000    2.133    1.333    1.200    3.733    6.933 
#    0.000    3.333    0.000    0.000    0.000    0.000 
#    0.000    0.000    0.000    0.000    0.000    0.000 
#
# Total GULP energy -334870.313294 kJ/mol
# GULP energy per Si atom -5581.171888 kJ/mol
# Density = 2.129684 g / cm^3
# Si number density = 21.345422 Si / 1000 Ang^3
#
#
#
# Elastic Constant Matrix: (Units=GPa)
#
#
# Indices 1 2 3 4 5 6 
#
# 1 36.1662 11.2603 7.6136 0.0000 0.0000 0.0000
# 2 11.2603 100.4989 29.6290 0.0000 0.0000 0.0000
# 3 7.6136 29.6290 79.2861 0.0000 0.0000 0.0000
# 4 0.0000 0.0000 0.0000 26.7285 0.0000 0.0000
# 5 0.0000 0.0000 0.0000 0.0000 -6.8553 0.0000
# 6 0.0000 0.0000 0.0000 0.0000 0.0000 10.1438
#
#
#
# Elastic Compliance Matrix: (Units=1/GPa)
#
#
# Indices 1 2 3 4 5 6 
#
# 1 0.028866 -0.002716 -0.001757 0.000000 0.000000 0.000000
# 2 -0.002716 0.011438 -0.004013 0.000000 0.000000 0.000000
# 3 -0.001757 -0.004013 0.014281 0.000000 0.000000 0.000000
# 4 0.000000 0.000000 0.000000 0.037413 0.000000 0.000000
# 5 0.000000 0.000000 0.000000 0.000000 -0.145873 0.000000
# 6 0.000000 0.000000 0.000000 0.000000 0.000000 0.098583
#
#
# Mechanical properties :
#
#
# Convention : Reuss Voigt Hill
#
# Bulk Modulus (GPa) = 26.58760 34.77299 30.68029
# Shear Modulus (GPa) = 67.36922 17.16663 42.26792
#
# Velocity S-wave (km/s) = 5.62405 2.83897 4.45476
# Velocity P-wave (km/s) = 7.39298 5.20311 6.39252
#
# Compressibility (1/GPa) = 0.03761152
#
# Stress axis : x y z
#
# Youngs Moduli (GPa) = 34.64328 87.42822 70.02265
#
# Poissons Ratio (x) = 0.23748 0.12302
# Poissons Ratio (y) = 0.09410 0.28104
# Poissons Ratio (z) = 0.06086 0.35089
#
# Static dielectric constant tensor:
#      x y z
#    x 1.807520 0.000000 0.000000 
#    y 0.000000 1.803140 0.000000 
#    z 0.000000 0.000000 1.760960 
# 
# From -- ./inp_files/10712.got.cif
#   From: 2010.05.17/outbox.cif.g08.bks.cpg/sg64_6_cif.got.tgz:10712.got - 2010.06.03 16:29:19.
