data_PCOD9478450
_publ_section_title
;
Structure prediction by ZEFSAII (Michael W. Deem and Ramdas Pophale) SiO2 
 PCOD9478450
Probable space group: C M C A
;
_chemical_formula_sum "Si O2"
_cell_formula_units_Z 104
_cell_length_a 28.486599
_cell_length_b 10.128253
_cell_length_c 20.673860
_cell_angle_alpha 90.000000
_cell_angle_beta 90.000000
_cell_angle_gamma 90.000000
_cell_volume 5964.811374
_symmetry_space_group_name_H-M "C M C A"
_symmetry_group_IT_number 64
_symmetry_cell_setting 'orthorhombic'
loop_
_space_group_symop_operation_xyz
x,y,z
-x,1/2-y,1/2+z
x,-y,-z
-x,1/2+y,1/2-z
-x,-y,-z
x,1/2+y,1/2-z
-x,y,z
x,1/2-y,1/2+z
1/2+x,1/2+y,z
1/2-x,-y,1/2+z
1/2+x,1/2-y,-z
1/2-x,y,1/2-z
1/2-x,1/2-y,-z
1/2+x,y,1/2-z
1/2-x,1/2+y,z
1/2+x,-y,1/2+z
loop_
_atom_site_type_symbol
_atom_site_label
_atom_site_fract_x
_atom_site_fract_y
_atom_site_fract_z
Si Si1 0.201366 0.500000 0.500000
Si Si2 0.637880 0.350418 0.103752
Si Si3 0.444935 0.375418 0.188602
Si Si4 0.944859 0.061568 0.311611
Si Si5 0.727349 0.210162 0.679732
Si Si6 0.879358 0.446512 0.931084
Si Si7 0.772587 0.525751 0.103930
O O1 0.167720 0.424823 0.450389
O O2 0.238209 0.575317 0.453400
O O3 0.590798 0.414512 0.131673
O O4 0.672909 0.326989 0.165176
O O5 0.623624 0.211725 0.072162
O O6 0.500000 0.388774 0.171523
O O7 0.435845 0.468609 0.250074
O O8 0.436375 0.218344 0.201965
O O9 0.912779 0.017129 0.371390
O O10 0.000000 0.049482 0.327940
O O11 0.750000 0.191618 0.750000
O O12 0.730581 0.362459 0.658715
O O13 0.754904 0.113164 0.631295
O O14 0.825748 0.490395 0.919271
O O15 0.895759 0.500000 0.000000
#
# Coordination Sequence:
#
# PCOD9478450 Si02
#       7
#     8  16  16  16  16  16  16
#     4  10  20  38  53  74 109 142 188 212 264 316
#     4   9  21  36  53  79 106 144 175 225 268 315
#     4   9  18  38  59  80 108 138 174 219 278 322
#     4   9  19  36  59  82 109 140 174 225 274 321
#     4  10  21  35  51  78 108 135 179 221 269 310
#     4  10  20  34  54  79 108 142 185 214 263 322
#     4  10  21  34  55  73 106 148 174 220 263 315
#
# _framework density 17.435589
#
# number of rings (size 3 to 8) (size 9 to 14) (size 15 to 20)
#    0.000    2.462    0.769    0.462    4.308    2.154 
#   11.077    0.385    0.000    0.000    0.000    0.000 
#    0.000    0.000    0.000    0.000    0.000    0.000 
#
# Total GULP energy -289575.157172 kJ/mol
# GULP energy per Si atom -5568.753023 kJ/mol
# Density = 1.739590 g / cm^3
# Si number density = 17.435589 Si / 1000 Ang^3
#
#
#
# Elastic Constant Matrix: (Units=GPa)
#
#
# Indices 1 2 3 4 5 6 
#
# 1 85.2735 16.0999 56.5856 0.0000 0.0000 0.0000
# 2 16.0999 20.1137 12.3495 0.0000 0.0000 0.0000
# 3 56.5856 12.3495 98.1537 0.0000 0.0000 0.0000
# 4 0.0000 0.0000 0.0000 19.7657 0.0000 0.0000
# 5 0.0000 0.0000 0.0000 0.0000 31.6209 0.0000
# 6 0.0000 0.0000 0.0000 0.0000 0.0000 22.3060
#
#
#
# Elastic Compliance Matrix: (Units=1/GPa)
#
#
# Indices 1 2 3 4 5 6 
#
# 1 0.020701 -0.010016 -0.010674 0.000000 0.000000 0.000000
# 2 -0.010016 0.058726 -0.001614 0.000000 0.000000 0.000000
# 3 -0.010674 -0.001614 0.016545 0.000000 0.000000 0.000000
# 4 0.000000 0.000000 0.000000 0.050593 0.000000 0.000000
# 5 0.000000 0.000000 0.000000 0.000000 0.031625 0.000000
# 6 0.000000 0.000000 0.000000 0.000000 0.000000 0.044831
#
#
# Mechanical properties :
#
#
# Convention : Reuss Voigt Hill
#
# Bulk Modulus (GPa) = 19.46947 41.51235 30.49091
# Shear Modulus (GPa) = 17.55923 22.63890 20.09907
#
# Velocity S-wave (km/s) = 3.17691 3.60728 3.39892
# Velocity P-wave (km/s) = 4.96465 6.41955 5.73840
#
# Compressibility (1/GPa) = 0.05136247
#
# Stress axis : x y z
#
# Youngs Moduli (GPa) = 48.30658 17.02822 60.44214
#
# Poissons Ratio (x) = 0.17056 0.64516
# Poissons Ratio (y) = 0.48386 0.09757
# Poissons Ratio (z) = 0.51562 0.02749
#
# Static dielectric constant tensor:
#      x y z
#    x 1.613980 0.000000 0.000000 
#    y 0.000000 1.592040 0.000000 
#    z 0.000000 0.000000 1.595820 
# 
# From -- ./inp_files/35469.got.cif
#   From: 2010.05.17/outbox.cif.g08.bks.cpg/sg64_18_cif.got.tgz:35469.got - 2010.06.03 16:29:19.
