data_PCOD9478610
_publ_section_title
;
Structure prediction by ZEFSAII (Michael W. Deem and Ramdas Pophale) SiO2 
 PCOD9478610
Probable space group: C M C A
;
_chemical_formula_sum "Si O2"
_cell_formula_units_Z 80
_cell_length_a 11.655141
_cell_length_b 14.939356
_cell_length_c 21.781949
_cell_angle_alpha 90.000000
_cell_angle_beta 90.000000
_cell_angle_gamma 90.000000
_cell_volume 3792.679508
_symmetry_space_group_name_H-M "C M C A"
_symmetry_group_IT_number 64
_symmetry_cell_setting 'orthorhombic'
loop_
_space_group_symop_operation_xyz
x,y,z
-x,1/2-y,1/2+z
x,-y,-z
-x,1/2+y,1/2-z
-x,-y,-z
x,1/2+y,1/2-z
-x,y,z
x,1/2-y,1/2+z
1/2+x,1/2+y,z
1/2-x,-y,1/2+z
1/2+x,1/2-y,-z
1/2-x,y,1/2-z
1/2-x,1/2-y,-z
1/2+x,y,1/2-z
1/2-x,1/2+y,z
1/2+x,-y,1/2+z
loop_
_atom_site_type_symbol
_atom_site_label
_atom_site_fract_x
_atom_site_fract_y
_atom_site_fract_z
Si Si1 0.131757 0.992911 0.596723
Si Si2 0.129511 0.184398 0.455941
Si Si3 0.308165 0.192066 0.906399
Si Si4 0.126486 0.473219 0.761315
Si Si5 0.873201 0.229738 0.221294
O O1 0.180994 0.914902 0.553920
O O2 0.127227 0.955197 0.665751
O O3 0.000000 0.016834 0.578032
O O4 0.198816 0.085570 0.598793
O O5 0.189071 0.256662 0.413425
O O6 0.135530 0.210807 0.527090
O O7 0.000000 0.173651 0.436171
O O8 0.370763 0.232351 0.847677
O O9 0.250000 0.520219 0.750000
O O10 0.129905 0.378721 0.725503
O O11 0.000000 0.515622 0.748467
O O12 0.750000 0.258934 0.250000
O O13 0.000000 0.254788 0.248053
#
# Coordination Sequence:
#
# PCOD9478610 Si02
#       5
#    16  16  16  16  16
#     4  10  20  37  60  84 114 156 205 248 292 359
#     4  10  21  38  61  89 121 157 199 249 303 362
#     4  11  22  36  61  90 119 155 201 251 303 360
#     4   9  18  33  53  77 110 152 195 242 298 355
#     4  10  20  35  55  82 117 155 196 246 301 356
#
# _framework density 21.093266
#
# number of rings (size 3 to 8) (size 9 to 14) (size 15 to 20)
#    0.000    2.000    0.000    4.800    0.000    4.800 
#    0.000    1.000    0.000   12.000    0.000    0.000 
#    0.000    0.000    0.000    0.000    0.000    0.000 
#
# Total GULP energy -222874.470921 kJ/mol
# GULP energy per Si atom -5571.861773 kJ/mol
# Density = 2.104526 g / cm^3
# Si number density = 21.093266 Si / 1000 Ang^3
#
#
#
# Elastic Constant Matrix: (Units=GPa)
#
#
# Indices 1 2 3 4 5 6 
#
# 1 146.6215 24.1268 21.9280 0.0000 0.0000 0.0000
# 2 24.1268 111.7662 11.3603 0.0000 0.0000 0.0000
# 3 21.9280 11.3603 53.7441 0.0000 0.0000 0.0000
# 4 0.0000 0.0000 0.0000 22.7846 0.0000 0.0000
# 5 0.0000 0.0000 0.0000 0.0000 4.2094 0.0000
# 6 0.0000 0.0000 0.0000 0.0000 0.0000 35.2675
#
#
#
# Elastic Compliance Matrix: (Units=1/GPa)
#
#
# Indices 1 2 3 4 5 6 
#
# 1 0.007452 -0.001328 -0.002760 0.000000 0.000000 0.000000
# 2 -0.001328 0.009380 -0.001441 0.000000 0.000000 0.000000
# 3 -0.002760 -0.001441 0.020037 0.000000 0.000000 0.000000
# 4 0.000000 0.000000 0.000000 0.043889 0.000000 0.000000
# 5 0.000000 0.000000 0.000000 0.000000 0.237563 0.000000
# 6 0.000000 0.000000 0.000000 0.000000 0.000000 0.028355
#
#
# Mechanical properties :
#
#
# Convention : Reuss Voigt Hill
#
# Bulk Modulus (GPa) = 38.74166 47.44023 43.09094
# Shear Modulus (GPa) = 13.64862 29.43341 21.54102
#
# Velocity S-wave (km/s) = 2.54650 3.73955 3.19913
# Velocity P-wave (km/s) = 5.20124 6.41757 5.84115
#
# Compressibility (1/GPa) = 0.02581201
#
# Stress axis : x y z
#
# Youngs Moduli (GPa) = 134.20076 106.60530 49.90715
#
# Poissons Ratio (x) = 0.14158 0.13772
# Poissons Ratio (y) = 0.17823 0.07191
# Poissons Ratio (z) = 0.37034 0.15361
#
# Static dielectric constant tensor:
#      x y z
#    x 1.849370 0.000000 0.000000 
#    y 0.000000 1.762610 0.000000 
#    z 0.000000 0.000000 1.763550 
# 
# From -- ./inp_files/43952.got.cif
#   From: 2010.05.17/outbox.cif.g08.bks.cpg/sg64_22_cif.got.tgz:43952.got - 2010.06.03 16:29:19.
