data_PCOD9478122
_publ_section_title
;
Structure prediction by ZEFSAII (Michael W. Deem and Ramdas Pophale) SiO2 
 PCOD9478122
Probable space group: C M C A
;
_chemical_formula_sum "Si O2"
_cell_formula_units_Z 80
_cell_length_a 10.492156
_cell_length_b 24.932352
_cell_length_c 14.198184
_cell_angle_alpha 90.000000
_cell_angle_beta 90.000000
_cell_angle_gamma 90.000000
_cell_volume 3714.161543
_symmetry_space_group_name_H-M "C M C A"
_symmetry_group_IT_number 64
_symmetry_cell_setting 'orthorhombic'
loop_
_space_group_symop_operation_xyz
x,y,z
-x,1/2-y,1/2+z
x,-y,-z
-x,1/2+y,1/2-z
-x,-y,-z
x,1/2+y,1/2-z
-x,y,z
x,1/2-y,1/2+z
1/2+x,1/2+y,z
1/2-x,-y,1/2+z
1/2+x,1/2-y,-z
1/2-x,y,1/2-z
1/2-x,1/2-y,-z
1/2+x,y,1/2-z
1/2-x,1/2+y,z
1/2+x,-y,1/2+z
loop_
_atom_site_type_symbol
_atom_site_label
_atom_site_fract_x
_atom_site_fract_y
_atom_site_fract_z
Si Si1 0.500000 0.176491 0.045459
Si Si2 0.217005 0.055247 0.953593
Si Si3 0.750000 0.139551 0.250000
Si Si4 0.000000 0.417978 0.807652
Si Si5 0.000000 0.041023 0.626320
Si Si6 0.000000 0.402181 0.319211
Si Si7 0.500000 0.791183 0.420161
Si Si8 0.228518 0.167043 0.041408
O O1 0.500000 0.120317 0.100371
O O2 0.500000 0.229555 0.111584
O O3 0.365619 0.178084 0.993900
O O4 0.366305 0.048846 0.927692
O O5 0.125604 0.071432 0.867043
O O6 0.201382 0.104185 0.025803
O O7 0.174009 0.000000 0.000000
O O8 0.626534 0.101487 0.244935
O O9 0.759647 0.173967 0.153853
O O10 0.000000 0.480199 0.833276
O O11 0.000000 0.083505 0.710690
O O12 0.000000 0.338960 0.344366
O O13 0.378842 0.800747 0.487585
#
# Coordination Sequence:
#
# PCOD9478122 Si02
#       8
#     8  16   8   8   8   8   8  16
#     4  10  19  38  61  88 118 155 201 253 307 353
#     4  11  22  39  60  91 124 157 205 249 306 366
#     4  10  20  38  56  90 126 148 200 250 308 352
#     4  10  23  34  62  88 120 151 197 254 303 360
#     4  12  24  39  62  90 126 162 202 250 312 364
#     4  10  25  39  62  88 124 169 201 250 303 372
#     4  10  21  40  62  87 121 164 209 245 303 364
#     4  10  21  36  63  89 120 159 201 253 297 362
#
# _framework density 21.539182
#
# number of rings (size 3 to 8) (size 9 to 14) (size 15 to 20)
#    0.000    1.600    0.000    5.400    5.600    0.000 
#    0.000    0.000   52.800    0.000    0.000    0.000 
#    0.000    0.000    0.000    0.000    0.000    0.000 
#
# Total GULP energy -223424.315043 kJ/mol
# GULP energy per Si atom -5585.607876 kJ/mol
# Density = 2.149016 g / cm^3
# Si number density = 21.539182 Si / 1000 Ang^3
#
#
#
# Elastic Constant Matrix: (Units=GPa)
#
#
# Indices 1 2 3 4 5 6 
#
# 1 134.9243 -19.6626 -2.3200 0.0000 0.0000 0.0000
# 2 -19.6626 96.5202 -1.3119 0.0000 0.0000 0.0000
# 3 -2.3200 -1.3119 58.7995 0.0000 0.0000 0.0000
# 4 0.0000 0.0000 0.0000 12.8860 0.0000 0.0000
# 5 0.0000 0.0000 0.0000 0.0000 -14.3765 0.0000
# 6 0.0000 0.0000 0.0000 0.0000 0.0000 47.7917
#
#
#
# Elastic Compliance Matrix: (Units=1/GPa)
#
#
# Indices 1 2 3 4 5 6 
#
# 1 0.007645 0.001562 0.000336 0.000000 0.000000 0.000000
# 2 0.001562 0.010683 0.000300 0.000000 0.000000 0.000000
# 3 0.000336 0.000300 0.017027 0.000000 0.000000 0.000000
# 4 0.000000 0.000000 0.000000 0.077603 0.000000 0.000000
# 5 0.000000 0.000000 0.000000 0.000000 -0.069558 0.000000
# 6 0.000000 0.000000 0.000000 0.000000 0.000000 0.020924
#
#
# Mechanical properties :
#
#
# Convention : Reuss Voigt Hill
#
# Bulk Modulus (GPa) = 25.15626 27.07280 26.11453
# Shear Modulus (GPa) = 68.32654 30.16281 49.24467
#
# Velocity S-wave (km/s) = 5.63834 3.74621 4.78670
# Velocity P-wave (km/s) = 7.35476 5.59540 6.53456
#
# Compressibility (1/GPa) = 0.03975153
#
# Stress axis : x y z
#
# Youngs Moduli (GPa) = 130.80485 93.60846 58.73056
#
# Poissons Ratio (x) = -0.14621 -0.01976
# Poissons Ratio (y) = -0.20431 -0.01762
# Poissons Ratio (z) = -0.04401 -0.02808
#
# Static dielectric constant tensor:
#      x y z
#    x 1.817050 0.000000 0.000000 
#    y 0.000000 1.765060 0.000000 
#    z 0.000000 0.000000 1.791380 
# 
# From -- ./inp_files/22414.got.cif
#   From: 2010.05.17/outbox.cif.g08.bks.cpg/sg64_12_cif.got.tgz:22414.got - 2010.06.03 16:29:19.
