data_PCOD9478824
_publ_section_title
;
Structure prediction by ZEFSAII (Michael W. Deem and Ramdas Pophale) SiO2 
 PCOD9478824
Probable space group: C M C A
;
_chemical_formula_sum "Si O2"
_cell_formula_units_Z 96
_cell_length_a 7.627980
_cell_length_b 20.721402
_cell_length_c 29.301349
_cell_angle_alpha 90.000000
_cell_angle_beta 90.000000
_cell_angle_gamma 90.000000
_cell_volume 4631.442719
_symmetry_space_group_name_H-M "C M C A"
_symmetry_group_IT_number 64
_symmetry_cell_setting 'orthorhombic'
loop_
_space_group_symop_operation_xyz
x,y,z
-x,1/2-y,1/2+z
x,-y,-z
-x,1/2+y,1/2-z
-x,-y,-z
x,1/2+y,1/2-z
-x,y,z
x,1/2-y,1/2+z
1/2+x,1/2+y,z
1/2-x,-y,1/2+z
1/2+x,1/2-y,-z
1/2-x,y,1/2-z
1/2-x,1/2-y,-z
1/2+x,y,1/2-z
1/2-x,1/2+y,z
1/2+x,-y,1/2+z
loop_
_atom_site_type_symbol
_atom_site_label
_atom_site_fract_x
_atom_site_fract_y
_atom_site_fract_z
Si Si1 0.209029 0.484966 0.196851
Si Si2 0.791014 0.693611 0.464335
Si Si3 0.285454 0.068328 0.519969
Si Si4 0.789246 0.129808 0.302898
Si Si5 0.702142 0.742052 0.366310
Si Si6 0.293466 0.615478 0.881357
O O1 0.250000 0.470943 0.250000
O O2 0.276801 0.557456 0.186113
O O3 0.276104 0.432701 0.161021
O O4 0.000000 0.485662 0.192567
O O5 0.750000 0.750000 0.500000
O O6 0.732941 0.626462 0.486614
O O7 0.705788 0.711569 0.416535
O O8 0.000000 0.690636 0.457322
O O9 0.500000 0.066897 0.520641
O O10 0.224652 0.084764 0.571417
O O11 0.226342 0.000000 0.500000
O O12 0.750000 0.141224 0.250000
O O13 0.717753 0.188524 0.332902
O O14 0.000000 0.127578 0.309161
O O15 0.500000 0.750741 0.351143
O O16 0.781984 0.813716 0.369853
O O17 0.500000 0.626235 0.890230
#
# Coordination Sequence:
#
# PCOD9478824 Si02
#       6
#    16  16  16  16  16  16
#     4  10  21  38  58  82 110 143 182 225 276 330
#     4  11  21  36  58  82 111 149 187 227 272 324
#     4   9  19  35  54  80 112 147 187 226 268 323
#     4   9  20  38  59  81 111 143 180 228 276 329
#     4  10  21  38  57  82 114 147 182 227 279 327
#     4  10  20  36  57  80 112 149 183 227 276 322
#
# _framework density 20.727881
#
# number of rings (size 3 to 8) (size 9 to 14) (size 15 to 20)
#    0.000    2.167    1.667    1.000    2.333    2.667 
#    0.000    1.667    0.000    2.500    0.000    0.000 
#    0.000    0.000    0.000    0.000    0.000    0.000 
#
# Total GULP energy -267988.481094 kJ/mol
# GULP energy per Si atom -5583.093356 kJ/mol
# Density = 2.068070 g / cm^3
# Si number density = 20.727881 Si / 1000 Ang^3
#
#
#
# Elastic Constant Matrix: (Units=GPa)
#
#
# Indices 1 2 3 4 5 6 
#
# 1 42.6120 -4.8891 -16.9061 0.0000 0.0000 0.0000
# 2 -4.8891 222.3160 114.7495 0.0000 0.0000 0.0000
# 3 -16.9061 114.7495 113.6712 0.0000 0.0000 0.0000
# 4 0.0000 0.0000 0.0000 41.2113 0.0000 0.0000
# 5 0.0000 0.0000 0.0000 0.0000 19.5666 0.0000
# 6 0.0000 0.0000 0.0000 0.0000 0.0000 -1.5503
#
#
#
# Elastic Compliance Matrix: (Units=1/GPa)
#
#
# Indices 1 2 3 4 5 6 
#
# 1 0.025837 -0.002955 0.006825 0.000000 0.000000 0.000000
# 2 -0.002955 0.009730 -0.010261 0.000000 0.000000 0.000000
# 3 0.006825 -0.010261 0.020171 0.000000 0.000000 0.000000
# 4 0.000000 0.000000 0.000000 0.024265 0.000000 0.000000
# 5 0.000000 0.000000 0.000000 0.000000 0.051108 0.000000
# 6 0.000000 0.000000 0.000000 0.000000 0.000000 -0.645028
#
#
# Mechanical properties :
#
#
# Convention : Reuss Voigt Hill
#
# Bulk Modulus (GPa) = 23.27974 62.72310 43.00142
# Shear Modulus (GPa) = -10.27078 30.88850 10.30886
#
# Velocity S-wave (km/s) = -2.22841 3.86449 2.23254
# Velocity P-wave (km/s) = 2.15277 7.08790 5.23797
#
# Compressibility (1/GPa) = 0.04295580
#
# Stress axis : x y z
#
# Youngs Moduli (GPa) = 38.70493 102.77982 49.57596
#
# Poissons Ratio (x) = 0.30369 -0.33838
# Poissons Ratio (y) = 0.11437 0.50871
# Poissons Ratio (z) = -0.26418 1.05465
#
# Static dielectric constant tensor:
#      x y z
#    x 1.766430 0.000000 0.000000 
#    y 0.000000 1.748760 0.000000 
#    z 0.000000 0.000000 1.698810 
# 
# From -- ./inp_files/48061.got.cif
#   From: 2010.05.17/outbox.cif.g08.bks.cpg/sg64_25_cif.got.tgz:48061.got - 2010.06.03 16:29:19.
