data_PCOD9478309
_publ_section_title
;
Structure prediction by ZEFSAII (Michael W. Deem and Ramdas Pophale) SiO2 
 PCOD9478309
Probable space group: C M C A
;
_chemical_formula_sum "Si O2"
_cell_formula_units_Z 96
_cell_length_a 8.821548
_cell_length_b 25.777765
_cell_length_c 25.859145
_cell_angle_alpha 90.000000
_cell_angle_beta 90.000000
_cell_angle_gamma 90.000000
_cell_volume 5880.364176
_symmetry_space_group_name_H-M "C M C A"
_symmetry_group_IT_number 64
_symmetry_cell_setting 'orthorhombic'
loop_
_space_group_symop_operation_xyz
x,y,z
-x,1/2-y,1/2+z
x,-y,-z
-x,1/2+y,1/2-z
-x,-y,-z
x,1/2+y,1/2-z
-x,y,z
x,1/2-y,1/2+z
1/2+x,1/2+y,z
1/2-x,-y,1/2+z
1/2+x,1/2-y,-z
1/2-x,y,1/2-z
1/2-x,1/2-y,-z
1/2+x,y,1/2-z
1/2-x,1/2+y,z
1/2+x,-y,1/2+z
loop_
_atom_site_type_symbol
_atom_site_label
_atom_site_fract_x
_atom_site_fract_y
_atom_site_fract_z
Si Si1 0.318673 0.813608 0.608260
Si Si2 0.818503 0.610311 0.192348
Si Si3 0.319756 0.111116 0.692462
Si Si4 0.318548 0.307773 0.501565
Si Si5 0.181205 0.494419 0.192333
Si Si6 0.181451 0.809105 0.386275
O O1 0.500000 0.817621 0.607013
O O2 0.250919 0.847249 0.654452
O O3 0.251499 0.832017 0.553127
O O4 0.281151 0.752350 0.615382
O O5 0.750000 0.614828 0.250000
O O6 0.785799 0.551932 0.171244
O O7 0.000000 0.615693 0.195640
O O8 0.500000 0.108143 0.696730
O O9 0.250000 0.117133 0.750000
O O10 0.268075 0.158257 0.656511
O O11 0.255281 0.057085 0.668988
O O12 0.500000 0.305072 0.506424
O O13 0.250000 0.250000 0.500000
O O14 0.283921 0.329429 0.444429
O O15 0.250000 0.495982 0.250000
O O16 0.000000 0.487859 0.194526
O O17 0.000000 0.813761 0.378327
#
# Coordination Sequence:
#
# PCOD9478309 Si02
#       6
#    16  16  16  16  16  16
#     4  10  20  33  51  74 101 132 164 201 243 289
#     4  10  20  33  51  74 100 131 164 200 244 291
#     4  11  21  32  50  73  98 129 162 200 243 287
#     4   9  17  31  51  72  96 127 164 203 241 286
#     4   9  17  31  50  70  94 125 162 201 239 285
#     4   9  19  34  50  71  99 130 162 197 240 288
#
# _framework density 16.325519
#
# number of rings (size 3 to 8) (size 9 to 14) (size 15 to 20)
#    0.000    2.333    0.000    5.500    0.000    6.667 
#    0.000    0.000    0.000    1.000    0.000    7.000 
#    0.000    0.000    0.000    0.000    0.000    0.000 
#
# Total GULP energy -267435.561907 kJ/mol
# GULP energy per Si atom -5571.574206 kJ/mol
# Density = 1.628836 g / cm^3
# Si number density = 16.325519 Si / 1000 Ang^3
#
#
#
# Elastic Constant Matrix: (Units=GPa)
#
#
# Indices 1 2 3 4 5 6 
#
# 1 89.4158 57.2340 55.6970 0.0000 0.0000 0.0000
# 2 57.2340 92.0557 60.2612 0.0000 0.0000 0.0000
# 3 55.6970 60.2612 102.4730 0.0000 0.0000 0.0000
# 4 0.0000 0.0000 0.0000 -2.7768 0.0000 0.0000
# 5 0.0000 0.0000 0.0000 0.0000 29.9180 0.0000
# 6 0.0000 0.0000 0.0000 0.0000 0.0000 23.6040
#
#
#
# Elastic Compliance Matrix: (Units=1/GPa)
#
#
# Indices 1 2 3 4 5 6 
#
# 1 0.020594 -0.008904 -0.005957 0.000000 0.000000 0.000000
# 2 -0.008904 0.021512 -0.007811 0.000000 0.000000 0.000000
# 3 -0.005957 -0.007811 0.017590 0.000000 0.000000 0.000000
# 4 0.000000 0.000000 0.000000 -0.360132 0.000000 0.000000
# 5 0.000000 0.000000 0.000000 0.000000 0.033425 0.000000
# 6 0.000000 0.000000 0.000000 0.000000 0.000000 0.042366
#
#
# Mechanical properties :
#
#
# Convention : Reuss Voigt Hill
#
# Bulk Modulus (GPa) = 69.67939 70.03654 69.85797
# Shear Modulus (GPa) = -28.65040 17.53254 -5.55893
#
# Velocity S-wave (km/s) = -4.19375 3.28065 -1.84728
# Velocity P-wave (km/s) = 4.39589 7.57254 6.19142
#
# Compressibility (1/GPa) = 0.01435145
#
# Stress axis : x y z
#
# Youngs Moduli (GPa) = 48.55817 46.48519 56.85106
#
# Poissons Ratio (x) = 0.41392 0.33866
# Poissons Ratio (y) = 0.43238 0.44406
# Poissons Ratio (z) = 0.28926 0.36309
#
# Static dielectric constant tensor:
#      x y z
#    x 1.537520 0.000000 0.000000 
#    y 0.000000 1.551970 0.000000 
#    z 0.000000 0.000000 1.383020 
# 
# From -- ./inp_files/48387.got.cif
#   From: 2010.05.17/outbox.cif.g08.bks.cpg/sg64_25_cif.got.tgz:48387.got - 2010.06.03 16:29:19.
