data_PCOD9478705
_publ_section_title
;
Structure prediction by ZEFSAII (Michael W. Deem and Ramdas Pophale) SiO2 
 PCOD9478705
Probable space group: C M C A
;
_chemical_formula_sum "Si O2"
_cell_formula_units_Z 96
_cell_length_a 19.681295
_cell_length_b 27.880627
_cell_length_c 8.957513
_cell_angle_alpha 90.000000
_cell_angle_beta 90.000000
_cell_angle_gamma 90.000000
_cell_volume 4915.227845
_symmetry_space_group_name_H-M "C M C A"
_symmetry_group_IT_number 64
_symmetry_cell_setting 'orthorhombic'
loop_
_space_group_symop_operation_xyz
x,y,z
-x,1/2-y,1/2+z
x,-y,-z
-x,1/2+y,1/2-z
-x,-y,-z
x,1/2+y,1/2-z
-x,y,z
x,1/2-y,1/2+z
1/2+x,1/2+y,z
1/2-x,-y,1/2+z
1/2+x,1/2-y,-z
1/2-x,y,1/2-z
1/2-x,1/2-y,-z
1/2+x,y,1/2-z
1/2-x,1/2+y,z
1/2+x,-y,1/2+z
loop_
_atom_site_type_symbol
_atom_site_label
_atom_site_fract_x
_atom_site_fract_y
_atom_site_fract_z
Si Si1 0.828183 0.815472 0.776638
Si Si2 0.887645 0.756152 0.032926
Si Si3 0.173867 0.417879 0.809246
Si Si4 0.323567 0.595083 0.667859
Si Si5 0.071747 0.820760 0.292315
Si Si6 0.078701 0.506398 0.819604
O O1 0.750000 0.823845 0.750000
O O2 0.839626 0.789446 0.932725
O O3 0.852717 0.779424 0.649427
O O4 0.857514 0.868654 0.757565
O O5 0.924303 0.720821 0.917298
O O6 0.927965 0.793238 0.135310
O O7 0.250000 0.428003 0.750000
O O8 0.122347 0.460421 0.769830
O O9 0.182355 0.410989 0.988318
O O10 0.250000 0.593279 0.750000
O O11 0.363177 0.644989 0.696265
O O12 0.375356 0.552840 0.717463
O O13 0.000000 0.847587 0.312934
O O14 0.000000 0.508808 0.767935
O O15 0.076030 0.500000 0.000000
#
# Coordination Sequence:
#
# PCOD9478705 Si02
#       6
#    16  16  16  16  16  16
#     4  10  20  35  58  88 123 157 200 246 293 351
#     4  10  22  38  58  85 118 163 202 246 295 349
#     4  10  21  38  61  91 122 157 198 247 298 354
#     4  11  23  38  64  92 120 158 197 248 299 355
#     4  11  23  40  60  86 121 160 203 247 296 355
#     4   9  19  39  64  91 117 154 200 245 295 357
#
# _framework density 19.531140000000001
#
# number of rings (size 3 to 8) (size 9 to 14) (size 15 to 20)
#    0.000    1.833    1.667    2.000    4.667    3.333 
#    0.000    1.667    0.000    1.000    0.000    0.000 
#    0.000    0.000    0.000    0.000    0.000    0.000 
#
# Total GULP energy -267574.029767 kJ/mol
# GULP energy per Si atom -5574.458953 kJ/mol
# Density = 1.948669 g / cm^3
# Si number density = 19.531140 Si / 1000 Ang^3
#
#
#
# Elastic Constant Matrix: (Units=GPa)
#
#
# Indices 1 2 3 4 5 6 
#
# 1 139.0128 67.7922 29.9889 0.0000 0.0000 0.0000
# 2 67.7922 123.8953 25.1013 0.0000 0.0000 0.0000
# 3 29.9889 25.1013 42.5081 0.0000 0.0000 0.0000
# 4 0.0000 0.0000 0.0000 10.8307 0.0000 0.0000
# 5 0.0000 0.0000 0.0000 0.0000 0.2193 0.0000
# 6 0.0000 0.0000 0.0000 0.0000 0.0000 19.5979
#
#
#
# Elastic Compliance Matrix: (Units=1/GPa)
#
#
# Indices 1 2 3 4 5 6 
#
# 1 0.010542 -0.004841 -0.004579 0.000000 0.000000 0.000000
# 2 -0.004841 0.011391 -0.003311 0.000000 0.000000 0.000000
# 3 -0.004579 -0.003311 0.028711 0.000000 0.000000 0.000000
# 4 0.000000 0.000000 0.000000 0.092330 0.000000 0.000000
# 5 0.000000 0.000000 0.000000 0.000000 4.559448 0.000000
# 6 0.000000 0.000000 0.000000 0.000000 0.000000 0.051026
#
#
# Mechanical properties :
#
#
# Convention : Reuss Voigt Hill
#
# Bulk Modulus (GPa) = 39.71113 61.24230 50.47672
# Shear Modulus (GPa) = 1.04443 18.29850 9.67146
#
# Velocity S-wave (km/s) = 0.73206 3.06418 2.22768
# Velocity P-wave (km/s) = 4.59248 6.62897 5.70238
#
# Compressibility (1/GPa) = 0.02518186
#
# Stress axis : x y z
#
# Youngs Moduli (GPa) = 94.85890 87.78957 34.83029
#
# Poissons Ratio (x) = 0.42496 0.15948
# Poissons Ratio (y) = 0.45918 0.11534
# Poissons Ratio (z) = 0.43434 0.29071
#
# Static dielectric constant tensor:
#      x y z
#    x 1.684500 0.000000 0.000000 
#    y 0.000000 1.695420 0.000000 
#    z 0.000000 0.000000 1.664170 
# 
# From -- ./inp_files/8416.got.cif
#   From: 2010.05.17/outbox.cif.g08.bks.cpg/sg64_5_cif.got.tgz:8416.got - 2010.06.03 16:29:19.
