data_PCOD9478866
_publ_section_title
;
Structure prediction by ZEFSAII (Michael W. Deem and Ramdas Pophale) SiO2 
 PCOD9478866
Probable space group: C M C A
;
_chemical_formula_sum "Si O2"
_cell_formula_units_Z 112
_cell_length_a 21.444942
_cell_length_b 25.307565
_cell_length_c 11.570298
_cell_angle_alpha 90.000000
_cell_angle_beta 90.000000
_cell_angle_gamma 90.000000
_cell_volume 6279.423610
_symmetry_space_group_name_H-M "C M C A"
_symmetry_group_IT_number 64
_symmetry_cell_setting 'orthorhombic'
loop_
_space_group_symop_operation_xyz
x,y,z
-x,1/2-y,1/2+z
x,-y,-z
-x,1/2+y,1/2-z
-x,-y,-z
x,1/2+y,1/2-z
-x,y,z
x,1/2-y,1/2+z
1/2+x,1/2+y,z
1/2-x,-y,1/2+z
1/2+x,1/2-y,-z
1/2-x,y,1/2-z
1/2-x,1/2-y,-z
1/2+x,y,1/2-z
1/2-x,1/2+y,z
1/2+x,-y,1/2+z
loop_
_atom_site_type_symbol
_atom_site_label
_atom_site_fract_x
_atom_site_fract_y
_atom_site_fract_z
Si Si1 0.674998 0.412132 0.011615
Si Si2 0.748251 0.319436 0.115895
Si Si3 0.147975 0.737612 0.021293
Si Si4 0.681730 0.505986 0.193535
Si Si5 0.427611 0.848535 0.839598
Si Si6 0.426557 0.029111 0.122900
Si Si7 0.072629 0.335200 0.566318
O O1 0.729396 0.370082 0.039197
O O2 0.672352 0.455175 0.112349
O O3 0.682241 0.443302 0.891500
O O4 0.612328 0.377781 0.004390
O O5 0.750000 0.333992 0.250000
O O6 0.812395 0.293816 0.073990
O O7 0.696053 0.274511 0.092454
O O8 0.099400 0.777615 0.963066
O O9 0.115193 0.694942 0.101735
O O10 0.750000 0.502528 0.250000
O O11 0.625208 0.509860 0.285285
O O12 0.500000 0.835266 0.861387
O O13 0.416835 0.907703 0.886323
O O14 0.418100 0.847654 0.701716
O O15 0.500000 0.021453 0.158564
O O16 0.418269 0.000000 0.000000
O O17 0.000000 0.338387 0.539777
#
# Coordination Sequence:
#
# PCOD9478866 Si02
#       7
#    16  16  16  16  16  16  16
#     4  10  23  38  57  90 117 161 204 242 321 363
#     4  10  21  37  55  83 121 156 197 250 300 363
#     4  10  21  35  59  85 114 159 201 240 302 364
#     4  11  24  39  61  90 123 159 210 261 306 370
#     4  10  20  36  58  84 115 153 193 245 300 353
#     4  10  23  42  63  88 119 161 208 254 314 376
#     4  10  20  38  61  88 120 153 200 252 297 368
#
# _framework density 17.836031999999999
#
# number of rings (size 3 to 8) (size 9 to 14) (size 15 to 20)
#    0.000    1.857    1.429    1.714    4.000    1.714 
#    0.000    1.429    0.000    4.286    0.000    0.000 
#    0.000    0.000    0.000    0.000    0.000    0.000 
#
# Total GULP energy -312585.633470 kJ/mol
# GULP energy per Si atom -5581.886312 kJ/mol
# Density = 1.779544 g / cm^3
# Si number density = 17.836032 Si / 1000 Ang^3
#
#
#
# Elastic Constant Matrix: (Units=GPa)
#
#
# Indices 1 2 3 4 5 6 
#
# 1 106.9977 68.1504 64.8476 0.0000 0.0000 0.0000
# 2 68.1504 103.6813 42.9674 0.0000 0.0000 0.0000
# 3 64.8476 42.9674 83.2655 0.0000 0.0000 0.0000
# 4 0.0000 0.0000 0.0000 16.4668 0.0000 0.0000
# 5 0.0000 0.0000 0.0000 0.0000 29.1007 0.0000
# 6 0.0000 0.0000 0.0000 0.0000 0.0000 13.2963
#
#
#
# Elastic Compliance Matrix: (Units=1/GPa)
#
#
# Indices 1 2 3 4 5 6 
#
# 1 0.023962 -0.010197 -0.013400 0.000000 0.000000 0.000000
# 2 -0.010197 0.016608 -0.000629 0.000000 0.000000 0.000000
# 3 -0.013400 -0.000629 0.022770 0.000000 0.000000 0.000000
# 4 0.000000 0.000000 0.000000 0.060728 0.000000 0.000000
# 5 0.000000 0.000000 0.000000 0.000000 0.034363 0.000000
# 6 0.000000 0.000000 0.000000 0.000000 0.000000 0.075209
#
#
# Mechanical properties :
#
#
# Convention : Reuss Voigt Hill
#
# Bulk Modulus (GPa) = 67.16374 71.76392 69.46383
# Shear Modulus (GPa) = 17.41825 19.63802 18.52813
#
# Velocity S-wave (km/s) = 3.12841 3.32178 3.22654
# Velocity P-wave (km/s) = 7.12652 7.41856 7.27400
#
# Compressibility (1/GPa) = 0.01488899
#
# Stress axis : x y z
#
# Youngs Moduli (GPa) = 41.73252 60.21117 43.91764
#
# Poissons Ratio (x) = 0.61400 0.58848
# Poissons Ratio (y) = 0.42556 0.02761
# Poissons Ratio (z) = 0.55920 0.03785
#
# Static dielectric constant tensor:
#      x y z
#    x 1.600130 0.000000 0.000000 
#    y 0.000000 1.595620 0.000000 
#    z 0.000000 0.000000 1.587780 
# 
# From -- ./inp_files/17550.got.cif
#   From: 2010.05.17/outbox.cif.g08.bks.cpg/sg64_9_cif.got.tgz:17550.got - 2010.06.03 16:29:19.
