data_PCOD9478575
_publ_section_title
;
Structure prediction by ZEFSAII (Michael W. Deem and Ramdas Pophale) SiO2 
 PCOD9478575
Probable space group: C M C A
;
_chemical_formula_sum "Si O2"
_cell_formula_units_Z 64
_cell_length_a 11.188132
_cell_length_b 13.606527
_cell_length_c 17.193895
_cell_angle_alpha 90.000000
_cell_angle_beta 90.000000
_cell_angle_gamma 90.000000
_cell_volume 2617.454492
_symmetry_space_group_name_H-M "C M C A"
_symmetry_group_IT_number 64
_symmetry_cell_setting 'orthorhombic'
loop_
_space_group_symop_operation_xyz
x,y,z
-x,1/2-y,1/2+z
x,-y,-z
-x,1/2+y,1/2-z
-x,-y,-z
x,1/2+y,1/2-z
-x,y,z
x,1/2-y,1/2+z
1/2+x,1/2+y,z
1/2-x,-y,1/2+z
1/2+x,1/2-y,-z
1/2-x,y,1/2-z
1/2-x,1/2-y,-z
1/2+x,y,1/2-z
1/2-x,1/2+y,z
1/2+x,-y,1/2+z
loop_
_atom_site_type_symbol
_atom_site_label
_atom_site_fract_x
_atom_site_fract_y
_atom_site_fract_z
Si Si1 0.216590 0.484096 0.838262
Si Si2 0.364677 0.798817 0.194108
Si Si3 0.130299 0.868227 0.938368
Si Si4 0.624992 0.887446 0.972761
O O1 0.250000 0.463416 0.750000
O O2 0.157319 0.591280 0.839952
O O3 0.334518 0.467955 0.891232
O O4 0.133962 0.401818 0.879103
O O5 0.500000 0.797982 0.229118
O O6 0.250000 0.782624 0.250000
O O7 0.366239 0.717270 0.126650
O O8 0.243226 0.852066 0.994627
O O9 0.000000 0.876084 0.973179
O O10 0.500000 0.838612 0.995116
O O11 0.620001 0.000000 0.000000
#
# Coordination Sequence:
#
# PCOD9478575 Si02
#       4
#    16  16  16  16
#     4   9  19  34  57  78 109 143 186 223 272 327
#     4  10  20  35  53  80 113 146 181 227 277 331
#     4   9  20  35  54  79 108 141 180 224 276 325
#     4   9  19  36  57  80 110 148 187 227 275 331
#
# _framework density 24.451236999999999
#
# number of rings (size 3 to 8) (size 9 to 14) (size 15 to 20)
#    1.500    1.250    0.000    1.500    0.000    6.500 
#    0.000    1.250    0.000    0.000    0.000    0.000 
#    0.000    0.000    0.000    0.000    0.000    0.000 
#
# Total GULP energy -178212.496228 kJ/mol
# GULP energy per Si atom -5569.140507 kJ/mol
# Density = 2.439558 g / cm^3
# Si number density = 24.451237 Si / 1000 Ang^3
#
#
#
# Elastic Constant Matrix: (Units=GPa)
#
#
# Indices 1 2 3 4 5 6 
#
# 1 287.9433 38.9735 32.6227 0.0000 0.0000 0.0000
# 2 38.9735 73.5940 7.7153 0.0000 0.0000 0.0000
# 3 32.6227 7.7153 56.5087 0.0000 0.0000 0.0000
# 4 0.0000 0.0000 0.0000 21.7878 0.0000 0.0000
# 5 0.0000 0.0000 0.0000 0.0000 19.9497 0.0000
# 6 0.0000 0.0000 0.0000 0.0000 0.0000 1.6846
#
#
#
# Elastic Compliance Matrix: (Units=1/GPa)
#
#
# Indices 1 2 3 4 5 6 
#
# 1 0.003958 -0.001883 -0.002028 0.000000 0.000000 0.000000
# 2 -0.001883 0.014682 -0.000917 0.000000 0.000000 0.000000
# 3 -0.002028 -0.000917 0.018992 0.000000 0.000000 0.000000
# 4 0.000000 0.000000 0.000000 0.045897 0.000000 0.000000
# 5 0.000000 0.000000 0.000000 0.000000 0.050126 0.000000
# 6 0.000000 0.000000 0.000000 0.000000 0.000000 0.593595
#
#
# Mechanical properties :
#
#
# Convention : Reuss Voigt Hill
#
# Bulk Modulus (GPa) = 35.74625 64.07434 49.91030
# Shear Modulus (GPa) = 6.70034 31.26673 18.98353
#
# Velocity S-wave (km/s) = 1.65718 3.57982 2.78939
# Velocity P-wave (km/s) = 4.27934 6.58397 5.55254
#
# Compressibility (1/GPa) = 0.02797496
#
# Stress axis : x y z
#
# Youngs Moduli (GPa) = 252.68365 68.11270 52.65336
#
# Poissons Ratio (x) = 0.12827 0.10676
# Poissons Ratio (y) = 0.47586 0.04830
# Poissons Ratio (z) = 0.51233 0.06248
#
# Static dielectric constant tensor:
#      x y z
#    x 2.016800 0.000000 0.000000 
#    y 0.000000 1.957610 0.000000 
#    z 0.000000 0.000000 1.967960 
# 
# From -- ./inp_files/30587.got.cif
#   From: 2010.05.17/outbox.cif.g08.bks.cpg/sg64_16_cif.got.tgz:30587.got - 2010.06.03 16:29:19.
