data_PCOD9478126
_publ_section_title
;
Structure prediction by ZEFSAII (Michael W. Deem and Ramdas Pophale) SiO2 
 PCOD9478126
Probable space group: C M C A
;
_chemical_formula_sum "Si O2"
_cell_formula_units_Z 96
_cell_length_a 14.365161
_cell_length_b 18.190147
_cell_length_c 20.789102
_cell_angle_alpha 90.000000
_cell_angle_beta 90.000000
_cell_angle_gamma 90.000000
_cell_volume 5432.283622
_symmetry_space_group_name_H-M "C M C A"
_symmetry_group_IT_number 64
_symmetry_cell_setting 'orthorhombic'
loop_
_space_group_symop_operation_xyz
x,y,z
-x,1/2-y,1/2+z
x,-y,-z
-x,1/2+y,1/2-z
-x,-y,-z
x,1/2+y,1/2-z
-x,y,z
x,1/2-y,1/2+z
1/2+x,1/2+y,z
1/2-x,-y,1/2+z
1/2+x,1/2-y,-z
1/2-x,y,1/2-z
1/2-x,1/2-y,-z
1/2+x,y,1/2-z
1/2-x,1/2+y,z
1/2+x,-y,1/2+z
loop_
_atom_site_type_symbol
_atom_site_label
_atom_site_fract_x
_atom_site_fract_y
_atom_site_fract_z
Si Si1 0.500000 0.544495 0.377333
Si Si2 0.297630 0.216476 0.062883
Si Si3 0.500000 0.721970 0.384356
Si Si4 0.000000 0.707834 0.758209
Si Si5 0.819798 0.040325 0.189650
Si Si6 0.000000 0.465725 0.260374
Si Si7 0.801732 0.040325 0.434824
Si Si8 0.820336 0.786857 0.809732
O O1 0.500000 0.633483 0.372911
O O2 0.500000 0.511083 0.306287
O O3 0.406945 0.520852 0.414111
O O4 0.404389 0.240010 0.077794
O O5 0.234923 0.233296 0.125586
O O6 0.299120 0.128144 0.056180
O O7 0.250000 0.250000 0.000000
O O8 0.500000 0.759571 0.314374
O O9 0.090428 0.737998 0.794999
O O10 0.000000 0.620275 0.754134
O O11 0.750000 0.032301 0.250000
O O12 0.765079 0.021932 0.124677
O O13 0.908632 0.990187 0.201218
O O14 0.847205 0.126691 0.186996
O O15 0.775418 0.000000 0.500000
O O16 0.750000 0.779520 0.750000
#
# Coordination Sequence:
#
# PCOD9478126 Si02
#       8
#     8  16   8   8  16   8  16  16
#     4  10  19  38  62  85 114 154 206 241 290 356
#     4  10  22  38  61  88 118 158 199 247 299 354
#     4  10  20  40  61  81 118 164 203 239 298 366
#     4  12  24  35  58  93 125 153 189 261 308 338
#     4  10  20  39  63  83 115 158 199 238 287 359
#     4  12  24  35  56  95 123 149 193 253 308 338
#     4  10  21  37  61  88 117 156 193 246 296 348
#     4  10  20  39  64  85 111 158 209 238 284 362
#
# _framework density 17.672125000000001
#
# number of rings (size 3 to 8) (size 9 to 14) (size 15 to 20)
#    0.000    1.667    3.333    1.750    0.000    4.000 
#    0.000    1.250    0.000    0.000    0.000    0.000 
#    0.000    0.000    0.000    0.000    0.000    0.000 
#
# Total GULP energy -268097.882207 kJ/mol
# GULP energy per Si atom -5585.372546 kJ/mol
# Density = 1.763190 g / cm^3
# Si number density = 17.672125 Si / 1000 Ang^3
#
#
#
# Elastic Constant Matrix: (Units=GPa)
#
#
# Indices 1 2 3 4 5 6 
#
# 1 163.1048 78.4963 82.7460 0.0000 0.0000 0.0000
# 2 78.4963 56.9347 52.2338 0.0000 0.0000 0.0000
# 3 82.7460 52.2338 164.8794 0.0000 0.0000 0.0000
# 4 0.0000 0.0000 0.0000 27.9838 0.0000 0.0000
# 5 0.0000 0.0000 0.0000 0.0000 9.0634 0.0000
# 6 0.0000 0.0000 0.0000 0.0000 0.0000 -17.3643
#
#
#
# Elastic Compliance Matrix: (Units=1/GPa)
#
#
# Indices 1 2 3 4 5 6 
#
# 1 0.018554 -0.024019 -0.001702 0.000000 0.000000 0.000000
# 2 -0.024019 0.055854 -0.005640 0.000000 0.000000 0.000000
# 3 -0.001702 -0.005640 0.008706 0.000000 0.000000 0.000000
# 4 0.000000 0.000000 0.000000 0.035735 0.000000 0.000000
# 5 0.000000 0.000000 0.000000 0.000000 0.110334 0.000000
# 6 0.000000 0.000000 0.000000 0.000000 0.000000 -0.057589
#
#
# Mechanical properties :
#
#
# Convention : Reuss Voigt Hill
#
# Bulk Modulus (GPa) = 49.04165 90.20790 69.62477
# Shear Modulus (GPa) = 20.73711 15.36609 18.05160
#
# Velocity S-wave (km/s) = 3.42926 2.95194 3.19952
# Velocity P-wave (km/s) = 6.59476 7.92305 7.28923
#
# Compressibility (1/GPa) = 0.02039083
#
# Stress axis : x y z
#
# Youngs Moduli (GPa) = 53.89666 17.90393 114.86015
#
# Poissons Ratio (x) = 0.43003 0.19553
# Poissons Ratio (y) = 1.29454 0.64786
# Poissons Ratio (z) = 0.09175 0.10099
#
# Static dielectric constant tensor:
#      x y z
#    x 1.600770 0.000000 0.000000 
#    y 0.000000 1.586790 0.000000 
#    z 0.000000 0.000000 1.575930 
# 
# From -- ./inp_files/39300.got.cif
#   From: 2010.05.17/outbox.cif.g08.bks.cpg/sg64_20_cif.got.tgz:39300.got - 2010.06.03 16:29:19.
