data_PCOD9478538
_publ_section_title
;
Structure prediction by ZEFSAII (Michael W. Deem and Ramdas Pophale) SiO2 
 PCOD9478538
Probable space group: C M C A
;
_chemical_formula_sum "Si O2"
_cell_formula_units_Z 112
_cell_length_a 15.595607
_cell_length_b 24.581753
_cell_length_c 14.562993
_cell_angle_alpha 90.000000
_cell_angle_beta 90.000000
_cell_angle_gamma 90.000000
_cell_volume 5582.976168
_symmetry_space_group_name_H-M "C M C A"
_symmetry_group_IT_number 64
_symmetry_cell_setting 'orthorhombic'
loop_
_space_group_symop_operation_xyz
x,y,z
-x,1/2-y,1/2+z
x,-y,-z
-x,1/2+y,1/2-z
-x,-y,-z
x,1/2+y,1/2-z
-x,y,z
x,1/2-y,1/2+z
1/2+x,1/2+y,z
1/2-x,-y,1/2+z
1/2+x,1/2-y,-z
1/2-x,y,1/2-z
1/2-x,1/2-y,-z
1/2+x,y,1/2-z
1/2-x,1/2+y,z
1/2+x,-y,1/2+z
loop_
_atom_site_type_symbol
_atom_site_label
_atom_site_fract_x
_atom_site_fract_y
_atom_site_fract_z
Si Si1 0.401660 0.991809 0.654870
Si Si2 0.691736 0.344392 0.036904
Si Si3 0.652812 0.598635 0.286011
Si Si4 0.814955 0.704424 0.827664
Si Si5 0.234702 0.446834 0.957119
Si Si6 0.402998 0.812751 0.649055
Si Si7 0.599343 0.883745 0.291325
O O1 0.500000 0.991548 0.615928
O O2 0.399482 0.950032 0.739508
O O3 0.323461 0.969145 0.591624
O O4 0.381927 0.052737 0.689625
O O5 0.762111 0.304037 0.079038
O O6 0.618996 0.350902 0.114428
O O7 0.734461 0.403493 0.030689
O O8 0.657414 0.331106 0.935530
O O9 0.750000 0.595413 0.250000
O O10 0.668746 0.585516 0.391891
O O11 0.617695 0.654345 0.242611
O O12 0.750000 0.726608 0.750000
O O13 0.888384 0.748835 0.837869
O O14 0.846898 0.646855 0.787195
O O15 0.193010 0.500000 0.000000
O O16 0.500000 0.825743 0.622971
O O17 0.500000 0.879781 0.267972
#
# Coordination Sequence:
#
# PCOD9478538 Si02
#       7
#    16  16  16  16  16  16  16
#     4  10  20  34  58  87 120 155 198 251 309 364
#     4  11  22  37  61  93 119 157 204 262 308 368
#     4  10  21  36  59  87 122 162 206 251 314 374
#     4  10  24  40  63  85 122 165 208 246 316 378
#     4  11  22  36  60  91 128 162 205 251 308 377
#     4  12  23  41  65  89 119 158 211 269 316 362
#     4  10  21  38  58  88 124 158 200 252 312 376
#
# _framework density 20.060984999999999
#
# number of rings (size 3 to 8) (size 9 to 14) (size 15 to 20)
#    0.000    1.429    4.286    2.143    2.000    2.571 
#    0.000    0.000    0.000    4.286    0.000    0.000 
#    0.000    0.000    0.000    0.000    0.000    0.000 
#
# Total GULP energy -312190.666627 kJ/mol
# GULP energy per Si atom -5574.833333 kJ/mol
# Density = 2.001533 g / cm^3
# Si number density = 20.060985 Si / 1000 Ang^3
#
#
#
# Elastic Constant Matrix: (Units=GPa)
#
#
# Indices 1 2 3 4 5 6 
#
# 1 51.8041 28.3739 29.0503 0.0000 0.0000 0.0000
# 2 28.3739 90.2868 23.3996 0.0000 0.0000 0.0000
# 3 29.0503 23.3996 69.3887 0.0000 0.0000 0.0000
# 4 0.0000 0.0000 0.0000 18.7650 0.0000 0.0000
# 5 0.0000 0.0000 0.0000 0.0000 16.4757 0.0000
# 6 0.0000 0.0000 0.0000 0.0000 0.0000 22.5544
#
#
#
# Elastic Compliance Matrix: (Units=1/GPa)
#
#
# Indices 1 2 3 4 5 6 
#
# 1 0.028206 -0.006359 -0.009664 0.000000 0.000000 0.000000
# 2 -0.006359 0.013570 -0.001914 0.000000 0.000000 0.000000
# 3 -0.009664 -0.001914 0.019103 0.000000 0.000000 0.000000
# 4 0.000000 0.000000 0.000000 0.053291 0.000000 0.000000
# 5 0.000000 0.000000 0.000000 0.000000 0.060695 0.000000
# 6 0.000000 0.000000 0.000000 0.000000 0.000000 0.044337
#
#
# Mechanical properties :
#
#
# Convention : Reuss Voigt Hill
#
# Bulk Modulus (GPa) = 39.99286 41.45857 40.72572
# Shear Modulus (GPa) = 18.98164 20.26942 19.62553
#
# Velocity S-wave (km/s) = 3.07937 3.18211 3.13116
# Velocity P-wave (km/s) = 5.71159 5.84912 5.78077
#
# Compressibility (1/GPa) = 0.02500446
#
# Stress axis : x y z
#
# Youngs Moduli (GPa) = 35.45335 73.68989 52.34788
#
# Poissons Ratio (x) = 0.46863 0.50590
# Poissons Ratio (y) = 0.22547 0.10018
# Poissons Ratio (z) = 0.34263 0.14103
#
# Static dielectric constant tensor:
#      x y z
#    x 1.709410 0.000000 0.000000 
#    y 0.000000 1.713600 0.000000 
#    z 0.000000 0.000000 1.753310 
# 
# From -- ./inp_files/24270.got.cif
#   From: 2010.05.17/outbox.cif.g08.bks.cpg/sg64_13_cif.got.tgz:24270.got - 2010.06.03 16:29:19.
