data_PCOD9478153
_publ_section_title
;
Structure prediction by ZEFSAII (Michael W. Deem and Ramdas Pophale) SiO2 
 PCOD9478153
Probable space group: C M C A
;
_chemical_formula_sum "Si O2"
_cell_formula_units_Z 80
_cell_length_a 16.952140
_cell_length_b 26.741503
_cell_length_c 9.340304
_cell_angle_alpha 90.000000
_cell_angle_beta 90.000000
_cell_angle_gamma 90.000000
_cell_volume 4234.199874
_symmetry_space_group_name_H-M "C M C A"
_symmetry_group_IT_number 64
_symmetry_cell_setting 'orthorhombic'
loop_
_space_group_symop_operation_xyz
x,y,z
-x,1/2-y,1/2+z
x,-y,-z
-x,1/2+y,1/2-z
-x,-y,-z
x,1/2+y,1/2-z
-x,y,z
x,1/2-y,1/2+z
1/2+x,1/2+y,z
1/2-x,-y,1/2+z
1/2+x,1/2-y,-z
1/2-x,y,1/2-z
1/2-x,1/2-y,-z
1/2+x,y,1/2-z
1/2-x,1/2+y,z
1/2+x,-y,1/2+z
loop_
_atom_site_type_symbol
_atom_site_label
_atom_site_fract_x
_atom_site_fract_y
_atom_site_fract_z
Si Si1 0.680786 0.715330 0.440712
Si Si2 0.763977 0.103911 0.407789
Si Si3 0.910551 0.055299 0.567198
Si Si4 0.593132 0.290557 0.263543
Si Si5 0.164867 0.105048 0.825310
O O1 0.750000 0.750000 0.500000
O O2 0.720486 0.663113 0.400229
O O3 0.620871 0.706468 0.572151
O O4 0.637798 0.744808 0.313538
O O5 0.750000 0.083291 0.250000
O O6 0.844262 0.083296 0.476079
O O7 0.690458 0.092787 0.513103
O O8 0.881303 0.063649 0.731368
O O9 0.000000 0.075404 0.556386
O O10 0.911453 0.000000 0.500000
O O11 0.500000 0.283992 0.253146
O O12 0.618968 0.342607 0.188692
O O13 0.250000 0.113401 0.750000
#
# Coordination Sequence:
#
# PCOD9478153 Si02
#       5
#    16  16  16  16  16
#     4  12  22  39  58  84 126 170 213 264 311 378
#     4  11  23  39  63  93 126 171 218 261 315 384
#     4  10  22  42  68  94 124 163 210 272 334 382
#     4  12  23  36  57  88 124 167 217 266 315 373
#     4  10  19  39  63  87 120 166 211 257 319 381
#
# _framework density 18.893768999999999
#
# number of rings (size 3 to 8) (size 9 to 14) (size 15 to 20)
#    0.000    1.000    6.000    3.000    0.000    3.200 
#    0.000    2.000    0.000    2.400    0.000    0.000 
#    0.000    0.000    0.000    0.000    0.000    0.000 
#
# Total GULP energy -223305.519288 kJ/mol
# GULP energy per Si atom -5582.637982 kJ/mol
# Density = 1.885077 g / cm^3
# Si number density = 18.893769 Si / 1000 Ang^3
#
#
#
# Elastic Constant Matrix: (Units=GPa)
#
#
# Indices 1 2 3 4 5 6 
#
# 1 99.1477 21.2832 31.3063 0.0000 0.0000 0.0000
# 2 21.2832 56.4718 18.6233 0.0000 0.0000 0.0000
# 3 31.3063 18.6233 140.0728 0.0000 0.0000 0.0000
# 4 0.0000 0.0000 0.0000 26.0278 0.0000 0.0000
# 5 0.0000 0.0000 0.0000 0.0000 27.4293 0.0000
# 6 0.0000 0.0000 0.0000 0.0000 0.0000 23.1894
#
#
#
# Elastic Compliance Matrix: (Units=1/GPa)
#
#
# Indices 1 2 3 4 5 6 
#
# 1 0.011531 -0.003656 -0.002091 0.000000 0.000000 0.000000
# 2 -0.003656 0.019679 -0.001799 0.000000 0.000000 0.000000
# 3 -0.002091 -0.001799 0.007846 0.000000 0.000000 0.000000
# 4 0.000000 0.000000 0.000000 0.038420 0.000000 0.000000
# 5 0.000000 0.000000 0.000000 0.000000 0.036457 0.000000
# 6 0.000000 0.000000 0.000000 0.000000 0.000000 0.043123
#
#
# Mechanical properties :
#
#
# Convention : Reuss Voigt Hill
#
# Bulk Modulus (GPa) = 41.73124 48.67976 45.20550
# Shear Modulus (GPa) = 27.75653 30.29462 29.02558
#
# Velocity S-wave (km/s) = 3.83702 4.00862 3.92376
# Velocity P-wave (km/s) = 6.46263 6.87359 6.67127
#
# Compressibility (1/GPa) = 0.02396286
#
# Stress axis : x y z
#
# Youngs Moduli (GPa) = 86.72207 50.81486 127.45802
#
# Poissons Ratio (x) = 0.18579 0.26653
# Poissons Ratio (y) = 0.31708 0.22933
# Poissons Ratio (z) = 0.18134 0.09143
#
# Static dielectric constant tensor:
#      x y z
#    x 1.628710 0.000000 0.000000 
#    y 0.000000 1.601770 0.000000 
#    z 0.000000 0.000000 1.710480 
# 
# From -- ./inp_files/7265.got.cif
#   From: 2010.05.17/outbox.cif.g08.bks.cpg/sg64_4_cif.got.tgz:7265.got - 2010.06.03 16:29:19.
