data_PCOD9478166
_publ_section_title
;
Structure prediction by ZEFSAII (Michael W. Deem and Ramdas Pophale) SiO2 
 PCOD9478166
Probable space group: C M C A
;
_chemical_formula_sum "Si O2"
_cell_formula_units_Z 64
_cell_length_a 16.527920
_cell_length_b 10.005185
_cell_length_c 17.979188
_cell_angle_alpha 90.000000
_cell_angle_beta 90.000000
_cell_angle_gamma 90.000000
_cell_volume 2973.126577
_symmetry_space_group_name_H-M "C M C A"
_symmetry_group_IT_number 64
_symmetry_cell_setting 'orthorhombic'
loop_
_space_group_symop_operation_xyz
x,y,z
-x,1/2-y,1/2+z
x,-y,-z
-x,1/2+y,1/2-z
-x,-y,-z
x,1/2+y,1/2-z
-x,y,z
x,1/2-y,1/2+z
1/2+x,1/2+y,z
1/2-x,-y,1/2+z
1/2+x,1/2-y,-z
1/2-x,y,1/2-z
1/2-x,1/2-y,-z
1/2+x,y,1/2-z
1/2-x,1/2+y,z
1/2+x,-y,1/2+z
loop_
_atom_site_type_symbol
_atom_site_label
_atom_site_fract_x
_atom_site_fract_y
_atom_site_fract_z
Si Si1 0.594080 0.708155 0.179332
Si Si2 0.903349 0.092779 0.427458
Si Si3 0.901129 0.150946 0.012862
Si Si4 0.841254 0.520509 0.773895
O O1 0.500000 0.746836 0.176843
O O2 0.624152 0.699679 0.094576
O O3 0.604011 0.565138 0.217803
O O4 0.639115 0.822719 0.224986
O O5 0.876913 0.241768 0.450860
O O6 0.000000 0.093995 0.411292
O O7 0.892229 0.000000 0.500000
O O8 0.858758 0.034494 0.356369
O O9 0.000000 0.149741 0.013101
O O10 0.873105 0.000000 0.000000
O O11 0.750000 0.496917 0.750000
#
# Coordination Sequence:
#
# PCOD9478166 Si02
#       4
#    16  16  16  16
#     4  11  23  43  69  97 131 181 236 280 335 414
#     4  10  19  39  70  99 130 178 237 285 332 405
#     4   9  19  36  64 102 131 161 225 298 339 385
#     4  12  26  43  63  99 143 180 218 282 355 415
#
# _framework density 21.526160000000001
#
# number of rings (size 3 to 8) (size 9 to 14) (size 15 to 20)
#    0.000    1.500    2.500    3.000    3.500    0.000 
#    0.000    2.500    0.000    0.000    0.000    0.000 
#    0.000    0.000    0.000    0.000    0.000    0.000 
#
# Total GULP energy -179017.966145 kJ/mol
# GULP energy per Si atom -5594.311442 kJ/mol
# Density = 2.147717 g / cm^3
# Si number density = 21.526160 Si / 1000 Ang^3
#
#
#
# Elastic Constant Matrix: (Units=GPa)
#
#
# Indices 1 2 3 4 5 6 
#
# 1 44.6943 12.9080 34.5289 0.0000 0.0000 0.0000
# 2 12.9080 105.3144 -2.7117 0.0000 0.0000 0.0000
# 3 34.5289 -2.7117 59.7268 0.0000 0.0000 0.0000
# 4 0.0000 0.0000 0.0000 37.4819 0.0000 0.0000
# 5 0.0000 0.0000 0.0000 0.0000 -96.9652 0.0000
# 6 0.0000 0.0000 0.0000 0.0000 0.0000 85.4575
#
#
#
# Elastic Compliance Matrix: (Units=1/GPa)
#
#
# Indices 1 2 3 4 5 6 
#
# 1 0.043974 -0.006051 -0.025697 0.000000 0.000000 0.000000
# 2 -0.006051 0.010339 0.003968 0.000000 0.000000 0.000000
# 3 -0.025697 0.003968 0.031779 0.000000 0.000000 0.000000
# 4 0.000000 0.000000 0.000000 0.026680 0.000000 0.000000
# 5 0.000000 0.000000 0.000000 0.000000 -0.010313 0.000000
# 6 0.000000 0.000000 0.000000 0.000000 0.000000 0.011702
#
#
# Mechanical properties :
#
#
# Convention : Reuss Voigt Hill
#
# Bulk Modulus (GPa) = 32.75326 33.24289 32.99807
# Shear Modulus (GPa) = 27.79353 16.19552 21.99453
#
# Velocity S-wave (km/s) = 3.59716 2.74590 3.19996
# Velocity P-wave (km/s) = 5.70099 5.05271 5.38661
#
# Compressibility (1/GPa) = 0.03053132
#
# Stress axis : x y z
#
# Youngs Moduli (GPa) = 22.74069 96.71889 31.46764
#
# Poissons Ratio (x) = 0.58528 0.80862
# Poissons Ratio (y) = 0.13761 -0.12486
# Poissons Ratio (z) = 0.58436 -0.38376
#
# Static dielectric constant tensor:
#      x y z
#    x 1.775260 0.000000 0.000000 
#    y 0.000000 1.782420 0.000000 
#    z 0.000000 0.000000 1.744900 
# 
# From -- ./inp_files/33880.got.cif
#   From: 2010.05.17/outbox.cif.g08.bks.cpg/sg64_17_cif.got.tgz:33880.got - 2010.06.03 16:29:19.
