data_PCOD9478439
_publ_section_title
;
Structure prediction by ZEFSAII (Michael W. Deem and Ramdas Pophale) SiO2 
 PCOD9478439
Probable space group: C M C A
;
_chemical_formula_sum "Si O2"
_cell_formula_units_Z 112
_cell_length_a 27.122240
_cell_length_b 14.203621
_cell_length_c 14.482766
_cell_angle_alpha 90.000000
_cell_angle_beta 90.000000
_cell_angle_gamma 90.000000
_cell_volume 5579.254133
_symmetry_space_group_name_H-M "C M C A"
_symmetry_group_IT_number 64
_symmetry_cell_setting 'orthorhombic'
loop_
_space_group_symop_operation_xyz
x,y,z
-x,1/2-y,1/2+z
x,-y,-z
-x,1/2+y,1/2-z
-x,-y,-z
x,1/2+y,1/2-z
-x,y,z
x,1/2-y,1/2+z
1/2+x,1/2+y,z
1/2-x,-y,1/2+z
1/2+x,1/2-y,-z
1/2-x,y,1/2-z
1/2-x,1/2-y,-z
1/2+x,y,1/2-z
1/2-x,1/2+y,z
1/2+x,-y,1/2+z
loop_
_atom_site_type_symbol
_atom_site_label
_atom_site_fract_x
_atom_site_fract_y
_atom_site_fract_z
Si Si1 0.203058 0.563367 0.688587
Si Si2 0.378322 0.656286 0.271682
Si Si3 0.818964 0.754016 0.440575
Si Si4 0.218978 0.280619 0.867019
Si Si5 0.942297 0.018639 0.392843
Si Si6 0.114117 0.859956 0.301161
Si Si7 0.860509 0.933726 0.924898
O O1 0.250000 0.533686 0.750000
O O2 0.212910 0.669480 0.654360
O O3 0.153607 0.574737 0.748901
O O4 0.187640 0.492869 0.607614
O O5 0.321234 0.663873 0.306603
O O6 0.409683 0.600741 0.347283
O O7 0.395616 0.764869 0.257098
O O8 0.383112 0.604583 0.171820
O O9 0.794054 0.803173 0.526965
O O10 0.778330 0.714155 0.367952
O O11 0.856045 0.821640 0.389277
O O12 0.846999 0.662365 0.476422
O O13 0.930455 0.923932 0.334787
O O14 0.000000 0.041828 0.387752
O O15 0.929478 0.000000 0.500000
O O16 0.887407 0.000000 0.000000
#
# Coordination Sequence:
#
# PCOD9478439 Si02
#       7
#    16  16  16  16  16  16  16
#     4  11  20  34  53  79 119 160 201 246 295 361
#     4  10  23  39  63  87 120 163 203 257 314 376
#     4  10  20  34  53  83 120 160 205 251 301 365
#     4  10  20  35  53  81 120 160 204 249 300 366
#     4  11  24  44  68  96 125 158 210 269 319 373
#     4  10  21  38  61  88 120 163 201 250 308 367
#     4  11  22  35  54  82 114 161 206 251 304 361
#
# _framework density 20.074368
#
# number of rings (size 3 to 8) (size 9 to 14) (size 15 to 20)
#    0.000    1.571    4.286    0.857    2.000    0.571 
#    0.000    1.429    0.000    0.429    0.000    0.000 
#    0.000    0.000    0.000    0.000    0.000    0.000 
#
# Total GULP energy -312157.340585 kJ/mol
# GULP energy per Si atom -5574.238225 kJ/mol
# Density = 2.002868 g / cm^3
# Si number density = 20.074368 Si / 1000 Ang^3
#
#
#
# Elastic Constant Matrix: (Units=GPa)
#
#
# Indices 1 2 3 4 5 6 
#
# 1 45.0376 12.3508 32.6156 0.0000 0.0000 0.0000
# 2 12.3508 64.1439 17.1429 0.0000 0.0000 0.0000
# 3 32.6156 17.1429 95.8537 0.0000 0.0000 0.0000
# 4 0.0000 0.0000 0.0000 27.4328 0.0000 0.0000
# 5 0.0000 0.0000 0.0000 0.0000 22.9064 0.0000
# 6 0.0000 0.0000 0.0000 0.0000 0.0000 25.2317
#
#
#
# Elastic Compliance Matrix: (Units=1/GPa)
#
#
# Indices 1 2 3 4 5 6 
#
# 1 0.030080 -0.003210 -0.009661 0.000000 0.000000 0.000000
# 2 -0.003210 0.016715 -0.001897 0.000000 0.000000 0.000000
# 3 -0.009661 -0.001897 0.014059 0.000000 0.000000 0.000000
# 4 0.000000 0.000000 0.000000 0.036453 0.000000 0.000000
# 5 0.000000 0.000000 0.000000 0.000000 0.043656 0.000000
# 6 0.000000 0.000000 0.000000 0.000000 0.000000 0.039633
#
#
# Mechanical properties :
#
#
# Convention : Reuss Voigt Hill
#
# Bulk Modulus (GPa) = 31.93042 36.58376 34.25709
# Shear Modulus (GPa) = 22.66833 24.64258 23.65546
#
# Velocity S-wave (km/s) = 3.36403 3.50746 3.43649
# Velocity P-wave (km/s) = 5.57041 5.88785 5.73133
#
# Compressibility (1/GPa) = 0.03131810
#
# Stress axis : x y z
#
# Youngs Moduli (GPa) = 33.24414 59.82630 71.12753
#
# Poissons Ratio (x) = 0.19204 0.68718
# Poissons Ratio (y) = 0.10671 0.13494
# Poissons Ratio (z) = 0.32118 0.11350
#
# Static dielectric constant tensor:
#      x y z
#    x 1.694850 0.000000 0.000000 
#    y 0.000000 1.742610 0.000000 
#    z 0.000000 0.000000 1.801870 
# 
# From -- ./inp_files/28107.got.cif
#   From: 2010.05.17/outbox.cif.g08.bks.cpg/sg64_15_cif.got.tgz:28107.got - 2010.06.03 16:29:19.
