data_PCOD9478628
_publ_section_title
;
Structure prediction by ZEFSAII (Michael W. Deem and Ramdas Pophale) SiO2 
 PCOD9478628
Probable space group: C M C A
;
_chemical_formula_sum "Si O2"
_cell_formula_units_Z 80
_cell_length_a 22.659675
_cell_length_b 21.727425
_cell_length_c 8.394909
_cell_angle_alpha 90.000000
_cell_angle_beta 90.000000
_cell_angle_gamma 90.000000
_cell_volume 4133.119184
_symmetry_space_group_name_H-M "C M C A"
_symmetry_group_IT_number 64
_symmetry_cell_setting 'orthorhombic'
loop_
_space_group_symop_operation_xyz
x,y,z
-x,1/2-y,1/2+z
x,-y,-z
-x,1/2+y,1/2-z
-x,-y,-z
x,1/2+y,1/2-z
-x,y,z
x,1/2-y,1/2+z
1/2+x,1/2+y,z
1/2-x,-y,1/2+z
1/2+x,1/2-y,-z
1/2-x,y,1/2-z
1/2-x,1/2-y,-z
1/2+x,y,1/2-z
1/2-x,1/2+y,z
1/2+x,-y,1/2+z
loop_
_atom_site_type_symbol
_atom_site_label
_atom_site_fract_x
_atom_site_fract_y
_atom_site_fract_z
Si Si1 0.687125 0.678908 0.330721
Si Si2 0.932371 0.665547 0.754132
Si Si3 0.567332 0.478663 0.315072
Si Si4 0.186692 0.463797 0.835720
Si Si5 0.876644 0.265500 0.540628
O O1 0.750000 0.686943 0.250000
O O2 0.679865 0.608090 0.374257
O O3 0.639447 0.695883 0.195867
O O4 0.677786 0.724974 0.476200
O O5 0.921156 0.594593 0.800022
O O6 0.895667 0.690633 0.603665
O O7 0.921458 0.712314 0.900947
O O8 0.000000 0.669627 0.705576
O O9 0.564827 0.500000 0.500000
O O10 0.500000 0.490747 0.250923
O O11 0.626234 0.512864 0.249278
O O12 0.250000 0.472155 0.750000
O O13 0.190427 0.500000 0.000000
#
# Coordination Sequence:
#
# PCOD9478628 Si02
#       5
#    16  16  16  16  16
#     4  10  21  37  56  81 111 144 184 228 276 331
#     4  10  20  35  56  82 111 143 182 228 279 333
#     4   9  18  34  55  78 105 142 186 225 266 322
#     4  10  21  37  57  82 111 145 186 230 278 330
#     4  10  20  35  56  81 111 143 180 225 280 334
#
# _framework density 19.355843
#
# number of rings (size 3 to 8) (size 9 to 14) (size 15 to 20)
#    0.000    2.200    0.000    3.600    0.000    3.200 
#    0.000   10.000    0.000    3.000    0.000    0.000 
#    0.000    0.000    0.000    0.000    0.000    0.000 
#
# Total GULP energy -222817.021149 kJ/mol
# GULP energy per Si atom -5570.425529 kJ/mol
# Density = 1.931179 g / cm^3
# Si number density = 19.355843 Si / 1000 Ang^3
#
#
#
# Elastic Constant Matrix: (Units=GPa)
#
#
# Indices 1 2 3 4 5 6 
#
# 1 97.1359 29.3809 -7.0073 0.0000 0.0000 0.0000
# 2 29.3809 99.0247 26.5867 0.0000 0.0000 0.0000
# 3 -7.0073 26.5867 43.6801 0.0000 0.0000 0.0000
# 4 0.0000 0.0000 0.0000 28.6009 0.0000 0.0000
# 5 0.0000 0.0000 0.0000 0.0000 14.9316 0.0000
# 6 0.0000 0.0000 0.0000 0.0000 0.0000 71.0374
#
#
#
# Elastic Compliance Matrix: (Units=1/GPa)
#
#
# Indices 1 2 3 4 5 6 
#
# 1 0.012144 -0.004932 0.004950 0.000000 0.000000 0.000000
# 2 -0.004932 0.014074 -0.009358 0.000000 0.000000 0.000000
# 3 0.004950 -0.009358 0.029384 0.000000 0.000000 0.000000
# 4 0.000000 0.000000 0.000000 0.034964 0.000000 0.000000
# 5 0.000000 0.000000 0.000000 0.000000 0.066972 0.000000
# 6 0.000000 0.000000 0.000000 0.000000 0.000000 0.014077
#
#
# Mechanical properties :
#
#
# Convention : Reuss Voigt Hill
#
# Bulk Modulus (GPa) = 27.08397 37.52904 32.30651
# Shear Modulus (GPa) = 24.67897 35.63935 30.15916
#
# Velocity S-wave (km/s) = 3.57461 4.29566 3.95161
# Velocity P-wave (km/s) = 5.57316 6.63586 6.12759
#
# Compressibility (1/GPa) = 0.03692221
#
# Stress axis : x y z
#
# Youngs Moduli (GPa) = 82.34655 71.05146 34.03252
#
# Poissons Ratio (x) = 0.35044 -0.16847
# Poissons Ratio (y) = 0.40615 0.31847
# Poissons Ratio (z) = -0.40763 0.66489
#
# Static dielectric constant tensor:
#      x y z
#    x 1.736640 0.000000 0.000000 
#    y 0.000000 1.655030 0.000000 
#    z 0.000000 0.000000 1.648910 
# 
# From -- ./inp_files/10218.got.cif
#   From: 2010.05.17/outbox.cif.g08.bks.cpg/sg64_6_cif.got.tgz:10218.got - 2010.06.03 16:29:19.
