data_PCOD9478897
_publ_section_title
;
Structure prediction by ZEFSAII (Michael W. Deem and Ramdas Pophale) SiO2 
 PCOD9478897
Probable space group: C M C A
;
_chemical_formula_sum "Si O2"
_cell_formula_units_Z 112
_cell_length_a 11.863980
_cell_length_b 16.848869
_cell_length_c 29.294310
_cell_angle_alpha 90.000000
_cell_angle_beta 90.000000
_cell_angle_gamma 90.000000
_cell_volume 5855.775693
_symmetry_space_group_name_H-M "C M C A"
_symmetry_group_IT_number 64
_symmetry_cell_setting 'orthorhombic'
loop_
_space_group_symop_operation_xyz
x,y,z
-x,1/2-y,1/2+z
x,-y,-z
-x,1/2+y,1/2-z
-x,-y,-z
x,1/2+y,1/2-z
-x,y,z
x,1/2-y,1/2+z
1/2+x,1/2+y,z
1/2-x,-y,1/2+z
1/2+x,1/2-y,-z
1/2-x,y,1/2-z
1/2-x,1/2-y,-z
1/2+x,y,1/2-z
1/2-x,1/2+y,z
1/2+x,-y,1/2+z
loop_
_atom_site_type_symbol
_atom_site_label
_atom_site_fract_x
_atom_site_fract_y
_atom_site_fract_z
Si Si1 0.130097 0.548971 0.541212
Si Si2 0.736160 0.778527 0.448151
Si Si3 0.780391 0.492336 0.632634
Si Si4 0.627561 0.338363 0.625018
Si Si5 0.868977 0.651935 0.869564
Si Si6 0.704625 0.226592 0.702806
Si Si7 0.628443 0.551198 0.775207
O O1 0.185962 0.500000 0.500000
O O2 0.176577 0.636419 0.548721
O O3 0.146356 0.499603 0.587152
O O4 0.000000 0.559723 0.530440
O O5 0.750000 0.750000 0.500000
O O6 0.666395 0.715650 0.417824
O O7 0.844109 0.799886 0.416430
O O8 0.711443 0.411381 0.632123
O O9 0.693548 0.566833 0.630254
O O10 0.856604 0.505585 0.677027
O O11 0.500000 0.365954 0.617940
O O12 0.635052 0.284146 0.670297
O O13 0.810114 0.699361 0.828382
O O14 0.000000 0.641756 0.862180
O O15 0.750000 0.262462 0.750000
O O16 0.638167 0.145781 0.715230
O O17 0.500000 0.535618 0.756385
O O18 0.750000 0.533140 0.750000
#
# Coordination Sequence:
#
# PCOD9478897 Si02
#       7
#    16  16  16  16  16  16  16
#     4  10  20  36  59  81 105 143 186 227 275 334
#     4  10  21  37  56  82 114 143 184 234 286 348
#     4  10  21  36  54  80 114 147 186 234 283 338
#     4  11  22  36  56  82 113 150 190 234 290 349
#     4   9  19  35  55  79 108 146 189 233 283 341
#     4   9  20  36  57  83 113 148 188 236 287 345
#     4  10  21  38  62  88 115 153 199 244 291 347
#
# _framework density 19.126415999999999
#
# number of rings (size 3 to 8) (size 9 to 14) (size 15 to 20)
#    0.000    2.143    0.000    3.429    0.000    8.000 
#    0.000    7.143    0.000    4.714    0.000    0.000 
#    0.000    0.000    0.000    0.000    0.000    0.000 
#
# Total GULP energy -312172.270729 kJ/mol
# GULP energy per Si atom -5574.504834 kJ/mol
# Density = 1.908288 g / cm^3
# Si number density = 19.126416 Si / 1000 Ang^3
#
#
#
# Elastic Constant Matrix: (Units=GPa)
#
#
# Indices 1 2 3 4 5 6 
#
# 1 84.6400 8.8899 11.4286 0.0000 0.0000 0.0000
# 2 8.8899 58.9293 22.1382 0.0000 0.0000 0.0000
# 3 11.4286 22.1382 119.4385 0.0000 0.0000 0.0000
# 4 0.0000 0.0000 0.0000 29.6367 0.0000 0.0000
# 5 0.0000 0.0000 0.0000 0.0000 11.7292 0.0000
# 6 0.0000 0.0000 0.0000 0.0000 0.0000 10.5124
#
#
#
# Elastic Compliance Matrix: (Units=1/GPa)
#
#
# Indices 1 2 3 4 5 6 
#
# 1 0.012090 -0.001493 -0.000880 0.000000 0.000000 0.000000
# 2 -0.001493 0.018424 -0.003272 0.000000 0.000000 0.000000
# 3 -0.000880 -0.003272 0.009063 0.000000 0.000000 0.000000
# 4 0.000000 0.000000 0.000000 0.033742 0.000000 0.000000
# 5 0.000000 0.000000 0.000000 0.000000 0.085257 0.000000
# 6 0.000000 0.000000 0.000000 0.000000 0.000000 0.095125
#
#
# Mechanical properties :
#
#
# Convention : Reuss Voigt Hill
#
# Bulk Modulus (GPa) = 35.35227 38.65792 37.00509
# Shear Modulus (GPa) = 18.22010 25.07907 21.64958
#
# Velocity S-wave (km/s) = 3.08979 3.62501 3.36805
# Velocity P-wave (km/s) = 5.59041 6.14627 5.87492
#
# Compressibility (1/GPa) = 0.02828673
#
# Stress axis : x y z
#
# Youngs Moduli (GPa) = 82.71005 54.27711 110.33630
#
# Poissons Ratio (x) = 0.08105 0.09711
# Poissons Ratio (y) = 0.12351 0.36102
# Poissons Ratio (z) = 0.07279 0.17760
#
# Static dielectric constant tensor:
#      x y z
#    x 1.681760 0.000000 0.000000 
#    y 0.000000 1.658930 0.000000 
#    z 0.000000 0.000000 1.709240 
# 
# From -- ./inp_files/52837.got.cif
#   From: 2010.05.17/outbox.cif.g08.bks.cpg/sg64_27_cif.got.tgz:52837.got - 2010.06.03 16:29:19.
