data_PCOD9478009
_publ_section_title
;
Structure prediction by ZEFSAII (Michael W. Deem and Ramdas Pophale) SiO2 
 PCOD9478009
Probable space group: C M C A
;
_chemical_formula_sum "Si O2"
_cell_formula_units_Z 96
_cell_length_a 23.686820
_cell_length_b 12.823395
_cell_length_c 14.378156
_cell_angle_alpha 90.000000
_cell_angle_beta 90.000000
_cell_angle_gamma 90.000000
_cell_volume 4367.299452
_symmetry_space_group_name_H-M "C M C A"
_symmetry_group_IT_number 64
_symmetry_cell_setting 'orthorhombic'
loop_
_space_group_symop_operation_xyz
x,y,z
-x,1/2-y,1/2+z
x,-y,-z
-x,1/2+y,1/2-z
-x,-y,-z
x,1/2+y,1/2-z
-x,y,z
x,1/2-y,1/2+z
1/2+x,1/2+y,z
1/2-x,-y,1/2+z
1/2+x,1/2-y,-z
1/2-x,y,1/2-z
1/2-x,1/2-y,-z
1/2+x,y,1/2-z
1/2-x,1/2+y,z
1/2+x,-y,1/2+z
loop_
_atom_site_type_symbol
_atom_site_label
_atom_site_fract_x
_atom_site_fract_y
_atom_site_fract_z
Si Si1 0.359006 0.724434 0.134881
Si Si2 0.881189 0.646708 0.164437
Si Si3 0.938074 0.131535 0.861521
Si Si4 0.164945 0.591878 0.546477
Si Si5 0.266589 0.741662 0.389698
Si Si6 0.935542 0.577096 0.856286
O O1 0.383996 0.663017 0.223381
O O2 0.292743 0.738233 0.161551
O O3 0.392686 0.831072 0.113473
O O4 0.355333 0.662680 0.038831
O O5 0.914488 0.749990 0.128911
O O6 0.815551 0.657453 0.131196
O O7 0.909299 0.538472 0.133173
O O8 0.892376 0.055840 0.906383
O O9 0.940208 0.101778 0.753678
O O10 0.000000 0.123794 0.902806
O O11 0.199697 0.500000 0.500000
O O12 0.200512 0.650229 0.624128
O O13 0.250000 0.750000 0.500000
O O14 0.000000 0.583358 0.894280
#
# Coordination Sequence:
#
# PCOD9478009 Si02
#       6
#    16  16  16  16  16  16
#     4  10  21  36  56  86 115 146 195 244 287 347
#     4  10  19  36  59  81 110 149 192 239 293 350
#     4   9  19  35  53  78 113 148 188 239 291 349
#     4  10  20  35  55  80 112 151 192 238 294 349
#     4   9  20  37  55  81 115 147 186 234 289 348
#     4  10  21  37  59  85 114 152 194 240 294 348
#
# _framework density 21.981546999999999
#
# number of rings (size 3 to 8) (size 9 to 14) (size 15 to 20)
#    0.000    2.333    0.000    2.000    0.000    4.333 
#    0.000   11.667    0.000   10.000    0.000    0.000 
#    0.000    0.000    0.000    0.000    0.000    0.000 
#
# Total GULP energy -267420.861250 kJ/mol
# GULP energy per Si atom -5571.267943 kJ/mol
# Density = 2.193152 g / cm^3
# Si number density = 21.981547 Si / 1000 Ang^3
#
#
#
# Elastic Constant Matrix: (Units=GPa)
#
#
# Indices 1 2 3 4 5 6 
#
# 1 120.9058 30.6857 -12.1509 0.0000 0.0000 0.0000
# 2 30.6857 101.9821 -6.4636 0.0000 0.0000 0.0000
# 3 -12.1509 -6.4636 33.6579 0.0000 0.0000 0.0000
# 4 0.0000 0.0000 0.0000 28.9867 0.0000 0.0000
# 5 0.0000 0.0000 0.0000 0.0000 13.4252 0.0000
# 6 0.0000 0.0000 0.0000 0.0000 0.0000 16.6644
#
#
#
# Elastic Compliance Matrix: (Units=1/GPa)
#
#
# Indices 1 2 3 4 5 6 
#
# 1 0.009213 -0.002593 0.002828 0.000000 0.000000 0.000000
# 2 -0.002593 0.010656 0.001110 0.000000 0.000000 0.000000
# 3 0.002828 0.001110 0.030945 0.000000 0.000000 0.000000
# 4 0.000000 0.000000 0.000000 0.034499 0.000000 0.000000
# 5 0.000000 0.000000 0.000000 0.000000 0.074487 0.000000
# 6 0.000000 0.000000 0.000000 0.000000 0.000000 0.060008
#
#
# Mechanical properties :
#
#
# Convention : Reuss Voigt Hill
#
# Bulk Modulus (GPa) = 18.68972 31.18757 24.93865
# Shear Modulus (GPa) = 21.28095 28.11357 24.69726
#
# Velocity S-wave (km/s) = 3.11485 3.58014 3.35557
# Velocity P-wave (km/s) = 4.63220 5.59542 5.13644
#
# Compressibility (1/GPa) = 0.05350534
#
# Stress axis : x y z
#
# Youngs Moduli (GPa) = 108.53975 93.84191 32.31552
#
# Poissons Ratio (x) = 0.24333 -0.09139
# Poissons Ratio (y) = 0.28144 -0.03588
# Poissons Ratio (z) = -0.30697 -0.10419
#
# Static dielectric constant tensor:
#      x y z
#    x 1.928910 0.000000 0.000000 
#    y 0.000000 1.885210 0.000000 
#    z 0.000000 0.000000 1.833440 
# 
# From -- ./inp_files/34944.got.cif
#   From: 2010.05.17/outbox.cif.g08.bks.cpg/sg64_18_cif.got.tgz:34944.got - 2010.06.03 16:29:19.
