data_PCOD9478234
_publ_section_title
;
Structure prediction by ZEFSAII (Michael W. Deem and Ramdas Pophale) SiO2 
 PCOD9478234
Probable space group: C M C A
;
_chemical_formula_sum "Si O2"
_cell_formula_units_Z 112
_cell_length_a 13.403143
_cell_length_b 13.672747
_cell_length_c 29.201866
_cell_angle_alpha 90.000000
_cell_angle_beta 90.000000
_cell_angle_gamma 90.000000
_cell_volume 5351.469230
_symmetry_space_group_name_H-M "C M C A"
_symmetry_group_IT_number 64
_symmetry_cell_setting 'orthorhombic'
loop_
_space_group_symop_operation_xyz
x,y,z
-x,1/2-y,1/2+z
x,-y,-z
-x,1/2+y,1/2-z
-x,-y,-z
x,1/2+y,1/2-z
-x,y,z
x,1/2-y,1/2+z
1/2+x,1/2+y,z
1/2-x,-y,1/2+z
1/2+x,1/2-y,-z
1/2-x,y,1/2-z
1/2-x,1/2-y,-z
1/2+x,y,1/2-z
1/2-x,1/2+y,z
1/2+x,-y,1/2+z
loop_
_atom_site_type_symbol
_atom_site_label
_atom_site_fract_x
_atom_site_fract_y
_atom_site_fract_z
Si Si1 0.109261 0.721958 0.250961
Si Si2 0.812069 0.974171 0.708666
Si Si3 0.387454 0.762029 0.577527
Si Si4 0.110844 0.296003 0.351132
Si Si5 0.216857 0.105011 0.386604
Si Si6 0.826541 0.162631 0.667188
Si Si7 0.619520 0.447379 0.452200
O O1 0.132084 0.612640 0.234346
O O2 0.104437 0.780194 0.203473
O O3 0.180864 0.764504 0.289628
O O4 0.000000 0.725771 0.272561
O O5 0.750000 0.021293 0.750000
O O6 0.754175 0.927693 0.665189
O O7 0.871802 0.062537 0.686058
O O8 0.500000 0.792220 0.564440
O O9 0.307033 0.848052 0.584145
O O10 0.388439 0.713341 0.627856
O O11 0.352896 0.667969 0.547591
O O12 0.137327 0.192970 0.376411
O O13 0.215265 0.354619 0.354144
O O14 0.000000 0.330710 0.366086
O O15 0.169864 0.013664 0.413159
O O16 0.642009 0.500000 0.500000
O O17 0.500000 0.449053 0.445117
#
# Coordination Sequence:
#
# PCOD9478234 Si02
#       7
#    16  16  16  16  16  16  16
#     4  10  20  32  48  75 107 143 188 240 285 341
#     4  11  21  34  53  78 111 156 199 238 289 352
#     4  10  21  37  61  88 117 156 197 244 304 363
#     4   9  18  32  51  75 107 145 189 236 287 342
#     4  10  20  37  60  86 121 156 196 246 308 357
#     4  11  20  35  55  76 112 154 195 244 296 348
#     4  10  21  39  64  94 122 153 204 258 306 368
#
# _framework density 20.928830999999999
#
# number of rings (size 3 to 8) (size 9 to 14) (size 15 to 20)
#    0.000    1.857    1.429    4.714    0.000    2.286 
#    0.000    1.429    0.000    1.286    0.000    0.000 
#    0.000    0.000    0.000    0.000    0.000    0.000 
#
# Total GULP energy -311970.671766 kJ/mol
# GULP energy per Si atom -5570.904853 kJ/mol
# Density = 2.088120 g / cm^3
# Si number density = 20.928831 Si / 1000 Ang^3
#
#
#
# Elastic Constant Matrix: (Units=GPa)
#
#
# Indices 1 2 3 4 5 6 
#
# 1 97.1069 9.6547 5.2495 0.0000 0.0000 0.0000
# 2 9.6547 63.9372 3.7877 0.0000 0.0000 0.0000
# 3 5.2495 3.7877 46.9002 0.0000 0.0000 0.0000
# 4 0.0000 0.0000 0.0000 29.2621 0.0000 0.0000
# 5 0.0000 0.0000 0.0000 0.0000 16.6695 0.0000
# 6 0.0000 0.0000 0.0000 0.0000 0.0000 4.0554
#
#
#
# Elastic Compliance Matrix: (Units=1/GPa)
#
#
# Indices 1 2 3 4 5 6 
#
# 1 0.010506 -0.001524 -0.001053 0.000000 0.000000 0.000000
# 2 -0.001524 0.015937 -0.001116 0.000000 0.000000 0.000000
# 3 -0.001053 -0.001116 0.021530 0.000000 0.000000 0.000000
# 4 0.000000 0.000000 0.000000 0.034174 0.000000 0.000000
# 5 0.000000 0.000000 0.000000 0.000000 0.059990 0.000000
# 6 0.000000 0.000000 0.000000 0.000000 0.000000 0.246584
#
#
# Mechanical properties :
#
#
# Convention : Reuss Voigt Hill
#
# Bulk Modulus (GPa) = 24.63907 27.25869 25.94888
# Shear Modulus (GPa) = 12.20594 22.61422 17.41008
#
# Velocity S-wave (km/s) = 2.41760 3.29071 2.88735
# Velocity P-wave (km/s) = 4.42622 5.24319 4.85193
#
# Compressibility (1/GPa) = 0.04058594
#
# Stress axis : x y z
#
# Youngs Moduli (GPa) = 95.18024 62.74851 46.44709
#
# Poissons Ratio (x) = 0.09564 0.04890
# Poissons Ratio (y) = 0.14507 0.05186
# Poissons Ratio (z) = 0.10021 0.07006
#
# Static dielectric constant tensor:
#      x y z
#    x 1.815110 0.000000 0.000000 
#    y 0.000000 1.793210 0.000000 
#    z 0.000000 0.000000 1.739270 
# 
# From -- ./inp_files/53392.got.cif
#   From: 2010.05.17/outbox.cif.g08.bks.cpg/sg64_27_cif.got.tgz:53392.got - 2010.06.03 16:29:19.
