data_PCOD9478112
_publ_section_title
;
Structure prediction by ZEFSAII (Michael W. Deem and Ramdas Pophale) SiO2 
 PCOD9478112
Probable space group: C M C A
;
_chemical_formula_sum "Si O2"
_cell_formula_units_Z 116
_cell_length_a 14.848486
_cell_length_b 17.746222
_cell_length_c 23.439657
_cell_angle_alpha 90.000000
_cell_angle_beta 90.000000
_cell_angle_gamma 90.000000
_cell_volume 6176.455776
_symmetry_space_group_name_H-M "C M C A"
_symmetry_group_IT_number 64
_symmetry_cell_setting 'orthorhombic'
loop_
_space_group_symop_operation_xyz
x,y,z
-x,1/2-y,1/2+z
x,-y,-z
-x,1/2+y,1/2-z
-x,-y,-z
x,1/2+y,1/2-z
-x,y,z
x,1/2-y,1/2+z
1/2+x,1/2+y,z
1/2-x,-y,1/2+z
1/2+x,1/2-y,-z
1/2-x,y,1/2-z
1/2-x,1/2-y,-z
1/2+x,y,1/2-z
1/2-x,1/2+y,z
1/2+x,-y,1/2+z
loop_
_atom_site_type_symbol
_atom_site_label
_atom_site_fract_x
_atom_site_fract_y
_atom_site_fract_z
Si Si1 0.309464 0.105185 0.561782
Si Si2 0.500000 0.000000 0.000000
Si Si3 0.240369 0.186948 0.668080
Si Si4 0.607150 0.122978 0.740849
Si Si5 0.393608 0.007363 0.346947
Si Si6 0.104022 0.275821 0.514456
Si Si7 0.335518 0.387755 0.530152
Si Si8 0.207247 0.155089 0.123645
O O1 0.248437 0.153160 0.605309
O O2 0.353108 0.039885 0.599774
O O3 0.382197 0.161851 0.534846
O O4 0.245251 0.082243 0.509993
O O5 0.579146 0.059087 0.022539
O O6 0.338411 0.175481 0.696510
O O7 0.164335 0.139672 0.702142
O O8 0.220848 0.274982 0.665516
O O9 0.500000 0.136694 0.746430
O O10 0.619646 0.041201 0.711065
O O11 0.500000 0.015465 0.355482
O O12 0.346028 0.087503 0.347277
O O13 0.144326 0.197017 0.492566
O O14 0.152492 0.309436 0.570119
O O15 0.000000 0.264071 0.527392
O O16 0.297527 0.377841 0.594171
#
# Coordination Sequence:
#
# PCOD9478112 Si02
#       8
#    16   4  16  16  16  16  16  16
#     4  10  19  38  59  82 123 161 202 241 305 364
#     4  12  24  36  52  76 138 182 200 236 304 336
#     4  10  19  38  65  86 113 160 200 256 318 368
#     4   9  21  40  61  90 114 148 205 263 321 378
#     4  10  21  37  59  88 119 153 199 258 310 362
#     4  11  20  34  58  94 129 161 208 251 288 359
#     4  11  21  37  53  88 129 168 200 248 287 369
#     4  11  21  38  61  91 124 163 209 251 304 367
#
# _framework density 18.780998
#
# number of rings (size 3 to 8) (size 9 to 14) (size 15 to 20)
#    0.000    1.655    3.448    2.483    0.000    3.310 
#    2.483    8.966    0.000    0.000    0.000    0.000 
#    0.000    0.000    0.000    0.000    0.000    0.000 
#
# Total GULP energy -322989.622439 kJ/mol
# GULP energy per Si atom -5568.786594 kJ/mol
# Density = 1.873825 g / cm^3
# Si number density = 18.780998 Si / 1000 Ang^3
#
#
#
# Elastic Constant Matrix: (Units=GPa)
#
#
# Indices 1 2 3 4 5 6 
#
# 1 108.4983 43.0860 15.0243 0.0000 0.0000 0.0000
# 2 43.0860 120.5367 11.1825 0.0000 0.0000 0.0000
# 3 15.0243 11.1825 33.2120 0.0000 0.0000 0.0000
# 4 0.0000 0.0000 0.0000 12.7677 0.0000 0.0000
# 5 0.0000 0.0000 0.0000 0.0000 16.2024 0.0000
# 6 0.0000 0.0000 0.0000 0.0000 0.0000 34.1164
#
#
#
# Elastic Compliance Matrix: (Units=1/GPa)
#
#
# Indices 1 2 3 4 5 6 
#
# 1 0.011196 -0.003646 -0.003837 0.000000 0.000000 0.000000
# 2 -0.003646 0.009751 -0.001634 0.000000 0.000000 0.000000
# 3 -0.003837 -0.001634 0.032396 0.000000 0.000000 0.000000
# 4 0.000000 0.000000 0.000000 0.078323 0.000000 0.000000
# 5 0.000000 0.000000 0.000000 0.000000 0.061719 0.000000
# 6 0.000000 0.000000 0.000000 0.000000 0.000000 0.029311
#
#
# Mechanical properties :
#
#
# Convention : Reuss Voigt Hill
#
# Bulk Modulus (GPa) = 28.48310 44.53696 36.51003
# Shear Modulus (GPa) = 19.79157 25.48091 22.63624
#
# Velocity S-wave (km/s) = 3.24976 3.68739 3.47547
# Velocity P-wave (km/s) = 5.41111 6.47259 5.96551
#
# Compressibility (1/GPa) = 0.03510853
#
# Stress axis : x y z
#
# Youngs Moduli (GPa) = 89.31786 102.55274 30.86848
#
# Poissons Ratio (x) = 0.37391 0.11845
# Poissons Ratio (y) = 0.32566 0.05043
# Poissons Ratio (z) = 0.34273 0.16755
#
# Static dielectric constant tensor:
#      x y z
#    x 1.640940 0.000000 0.000000 
#    y 0.000000 1.683040 0.000000 
#    z 0.000000 0.000000 1.702080 
# 
# From -- ./inp_files/45432.got.cif
#   From: 2010.05.17/outbox.cif.g08.bks.cpg/sg64_23_cif.got.tgz:45432.got - 2010.06.03 16:29:19.
