data_PCOD9478974
_publ_section_title
;
Structure prediction by ZEFSAII (Michael W. Deem and Ramdas Pophale) SiO2 
 PCOD9478974
Probable space group: C M C A
;
_chemical_formula_sum "Si O2"
_cell_formula_units_Z 104
_cell_length_a 9.370200
_cell_length_b 29.507117
_cell_length_c 18.495961
_cell_angle_alpha 90.000000
_cell_angle_beta 90.000000
_cell_angle_gamma 90.000000
_cell_volume 5113.903639
_symmetry_space_group_name_H-M "C M C A"
_symmetry_group_IT_number 64
_symmetry_cell_setting 'orthorhombic'
loop_
_space_group_symop_operation_xyz
x,y,z
-x,1/2-y,1/2+z
x,-y,-z
-x,1/2+y,1/2-z
-x,-y,-z
x,1/2+y,1/2-z
-x,y,z
x,1/2-y,1/2+z
1/2+x,1/2+y,z
1/2-x,-y,1/2+z
1/2+x,1/2-y,-z
1/2-x,y,1/2-z
1/2-x,1/2-y,-z
1/2+x,y,1/2-z
1/2-x,1/2+y,z
1/2+x,-y,1/2+z
loop_
_atom_site_type_symbol
_atom_site_label
_atom_site_fract_x
_atom_site_fract_y
_atom_site_fract_z
Si Si1 0.164878 0.061407 0.175403
Si Si2 0.832790 0.738482 0.074420
Si Si3 0.231918 0.970234 0.362123
Si Si4 0.500000 0.458778 0.233651
Si Si5 0.665289 0.150659 0.418681
Si Si6 0.668830 0.327576 0.174049
Si Si7 0.667647 0.613441 0.557348
O O1 0.250000 0.062264 0.250000
O O2 0.164530 0.110306 0.139317
O O3 0.000000 0.046079 0.190267
O O4 0.237317 0.023467 0.125417
O O5 0.751861 0.694769 0.106004
O O6 0.826101 0.780701 0.128883
O O7 0.000000 0.728940 0.059853
O O8 0.750000 0.750000 0.000000
O O9 0.376745 0.951867 0.327805
O O10 0.185719 0.940071 0.429534
O O11 0.119994 0.965355 0.297717
O O12 0.500000 0.162131 0.435881
O O13 0.746349 0.131812 0.488843
O O14 0.500000 0.339712 0.183511
O O15 0.750000 0.323111 0.250000
O O16 0.759286 0.362806 0.126432
O O17 0.500000 0.624738 0.552677
#
# Coordination Sequence:
#
# PCOD9478974 Si02
#       7
#    16  16  16   8  16  16  16
#     4  11  23  42  67  95 125 170 217 270 324 381
#     4  11  23  45  71  94 126 171 214 261 324 389
#     4  11  21  38  61  92 126 172 215 264 319 382
#     4  10  20  36  62  90 122 172 218 258 328 378
#     4  11  26  44  66  96 129 169 217 264 326 390
#     4  11  26  42  68 100 132 167 214 267 320 382
#     4  12  26  41  62  95 131 174 216 264 324 389
#
# _framework density 20.336715999999999
#
# number of rings (size 3 to 8) (size 9 to 14) (size 15 to 20)
#    0.000    0.923    4.615    1.846    4.308    4.308 
#    0.000    5.385    0.000    0.000    0.000    0.000 
#    0.000    0.000    0.000    0.000    0.000    0.000 
#
# Total GULP energy -289646.397379 kJ/mol
# GULP energy per Si atom -5570.123027 kJ/mol
# Density = 2.029043 g / cm^3
# Si number density = 20.336716 Si / 1000 Ang^3
#
#
#
# Elastic Constant Matrix: (Units=GPa)
#
#
# Indices 1 2 3 4 5 6 
#
# 1 204.7996 43.2194 37.7198 0.0000 0.0000 0.0000
# 2 43.2194 93.5538 12.3314 0.0000 0.0000 0.0000
# 3 37.7198 12.3314 52.9998 0.0000 0.0000 0.0000
# 4 0.0000 0.0000 0.0000 -6.7650 0.0000 0.0000
# 5 0.0000 0.0000 0.0000 0.0000 25.6166 0.0000
# 6 0.0000 0.0000 0.0000 0.0000 0.0000 31.4578
#
#
#
# Elastic Compliance Matrix: (Units=1/GPa)
#
#
# Indices 1 2 3 4 5 6 
#
# 1 0.006065 -0.002304 -0.003781 0.000000 0.000000 0.000000
# 2 -0.002304 0.011902 -0.001130 0.000000 0.000000 0.000000
# 3 -0.003781 -0.001130 0.021822 0.000000 0.000000 0.000000
# 4 0.000000 0.000000 0.000000 -0.147820 0.000000 0.000000
# 5 0.000000 0.000000 0.000000 0.000000 0.039037 0.000000
# 6 0.000000 0.000000 0.000000 0.000000 0.000000 0.031789
#
#
# Mechanical properties :
#
#
# Convention : Reuss Voigt Hill
#
# Bulk Modulus (GPa) = 39.43086 59.76603 49.59845
# Shear Modulus (GPa) = -349.07308 27.26740 -160.90284
#
# Velocity S-wave (km/s) = -13.11562 3.66566 -8.90456
# Velocity P-wave (km/s) = 14.48889 6.88245 9.01554
#
# Compressibility (1/GPa) = 0.02536085
#
# Stress axis : x y z
#
# Youngs Moduli (GPa) = 164.87270 84.01816 45.82632
#
# Poissons Ratio (x) = 0.19355 0.17325
# Poissons Ratio (y) = 0.37981 0.05177
# Poissons Ratio (z) = 0.62333 0.09492
#
# Static dielectric constant tensor:
#      x y z
#    x 1.698270 0.000000 0.000000 
#    y 0.000000 1.843460 0.000000 
#    z 0.000000 0.000000 1.675680 
# 
# From -- ./inp_files/37487.got.cif
#   From: 2010.05.17/outbox.cif.g08.bks.cpg/sg64_19_cif.got.tgz:37487.got - 2010.06.03 16:29:19.
