data_PCOD9478810
_publ_section_title
;
Structure prediction by ZEFSAII (Michael W. Deem and Ramdas Pophale) SiO2 
 PCOD9478810
Probable space group: C M C A
;
_chemical_formula_sum "Si O2"
_cell_formula_units_Z 112
_cell_length_a 13.711595
_cell_length_b 14.150786
_cell_length_c 26.228424
_cell_angle_alpha 90.000000
_cell_angle_beta 90.000000
_cell_angle_gamma 90.000000
_cell_volume 5089.097084
_symmetry_space_group_name_H-M "C M C A"
_symmetry_group_IT_number 64
_symmetry_cell_setting 'orthorhombic'
loop_
_space_group_symop_operation_xyz
x,y,z
-x,1/2-y,1/2+z
x,-y,-z
-x,1/2+y,1/2-z
-x,-y,-z
x,1/2+y,1/2-z
-x,y,z
x,1/2-y,1/2+z
1/2+x,1/2+y,z
1/2-x,-y,1/2+z
1/2+x,1/2-y,-z
1/2-x,y,1/2-z
1/2-x,1/2-y,-z
1/2+x,y,1/2-z
1/2-x,1/2+y,z
1/2+x,-y,1/2+z
loop_
_atom_site_type_symbol
_atom_site_label
_atom_site_fract_x
_atom_site_fract_y
_atom_site_fract_z
Si Si1 0.745914 0.037874 0.630373
Si Si2 0.383954 0.732846 0.732537
Si Si3 0.885004 0.219034 0.454402
Si Si4 0.884088 0.600000 0.327328
Si Si5 0.116779 0.720422 0.657146
Si Si6 0.615165 0.012086 0.778229
Si Si7 0.740440 0.401320 0.020858
O O1 0.669956 0.951592 0.627130
O O2 0.681491 0.126148 0.651301
O O3 0.825277 0.999103 0.670025
O O4 0.784475 0.073713 0.576468
O O5 0.500000 0.743200 0.729419
O O6 0.357739 0.768491 0.788922
O O7 0.363816 0.622623 0.732267
O O8 0.349619 0.793912 0.684811
O O9 0.870849 0.217276 0.393212
O O10 0.822402 0.140850 0.483654
O O11 0.841090 0.320668 0.471506
O O12 0.000000 0.212439 0.465016
O O13 0.862380 0.545121 0.273578
O O14 0.000000 0.595129 0.335319
O O15 0.000000 0.694783 0.659593
O O16 0.500000 0.998490 0.787161
O O17 0.700475 0.500000 0.000000
#
# Coordination Sequence:
#
# PCOD9478810 Si02
#       7
#    16  16  16  16  16  16  16
#     4  11  21  37  58  84 115 160 196 236 302 351
#     4   9  18  34  56  83 117 153 188 236 286 341
#     4   9  20  41  66  91 120 160 206 254 312 369
#     4  10  20  36  56  84 118 151 194 240 284 351
#     4   9  17  34  62  87 114 155 197 240 292 354
#     4  10  21  38  54  79 121 155 193 238 282 342
#     4  10  23  42  62  90 125 155 203 265 308 361
#
# _framework density 22.007835
#
# number of rings (size 3 to 8) (size 9 to 14) (size 15 to 20)
#    0.000    2.286    1.429    0.857    0.000    2.857 
#   12.857    1.429    0.000    0.000    0.000    0.000 
#    0.000    0.000    0.000    0.000    0.000    0.000 
#
# Total GULP energy -312764.749222 kJ/mol
# GULP energy per Si atom -5585.084808 kJ/mol
# Density = 2.195774 g / cm^3
# Si number density = 22.007835 Si / 1000 Ang^3
#
#
#
# Elastic Constant Matrix: (Units=GPa)
#
#
# Indices 1 2 3 4 5 6 
#
# 1 64.8762 -1.8704 2.8217 0.0000 0.0000 0.0000
# 2 -1.8704 56.1576 1.7591 0.0000 0.0000 0.0000
# 3 2.8217 1.7591 40.7985 0.0000 0.0000 0.0000
# 4 0.0000 0.0000 0.0000 41.1219 0.0000 0.0000
# 5 0.0000 0.0000 0.0000 0.0000 27.1056 0.0000
# 6 0.0000 0.0000 0.0000 0.0000 0.0000 6.7585
#
#
#
# Elastic Compliance Matrix: (Units=1/GPa)
#
#
# Indices 1 2 3 4 5 6 
#
# 1 0.015477 0.000550 -0.001094 0.000000 0.000000 0.000000
# 2 0.000550 0.017851 -0.000808 0.000000 0.000000 0.000000
# 3 -0.001094 -0.000808 0.024621 0.000000 0.000000 0.000000
# 4 0.000000 0.000000 0.000000 0.024318 0.000000 0.000000
# 5 0.000000 0.000000 0.000000 0.000000 0.036893 0.000000
# 6 0.000000 0.000000 0.000000 0.000000 0.000000 0.147962
#
#
# Mechanical properties :
#
#
# Convention : Reuss Voigt Hill
#
# Bulk Modulus (GPa) = 18.10114 18.58368 18.34241
# Shear Modulus (GPa) = 17.34661 25.60532 21.47596
#
# Velocity S-wave (km/s) = 2.81054 3.41466 3.12722
# Velocity P-wave (km/s) = 4.33300 4.89990 4.62514
#
# Compressibility (1/GPa) = 0.05524514
#
# Stress axis : x y z
#
# Youngs Moduli (GPa) = 64.61027 56.02037 40.61536
#
# Poissons Ratio (x) = -0.03080 0.04444
# Poissons Ratio (y) = -0.03552 0.03280
# Poissons Ratio (z) = 0.07069 0.04525
#
# Static dielectric constant tensor:
#      x y z
#    x 1.816650 0.000000 0.000000 
#    y 0.000000 1.841250 0.000000 
#    z 0.000000 0.000000 1.808780 
# 
# From -- ./inp_files/45218.got.cif
#   From: 2010.05.17/outbox.cif.g08.bks.cpg/sg64_23_cif.got.tgz:45218.got - 2010.06.03 16:29:19.
