data_PCOD9478488
_publ_section_title
;
Structure prediction by ZEFSAII (Michael W. Deem and Ramdas Pophale) SiO2 
 PCOD9478488
Probable space group: C M C A
;
_chemical_formula_sum "Si O2"
_cell_formula_units_Z 96
_cell_length_a 21.612871
_cell_length_b 19.667925
_cell_length_c 10.340232
_cell_angle_alpha 90.000000
_cell_angle_beta 90.000000
_cell_angle_gamma 90.000000
_cell_volume 4395.429188
_symmetry_space_group_name_H-M "C M C A"
_symmetry_group_IT_number 64
_symmetry_cell_setting 'orthorhombic'
loop_
_space_group_symop_operation_xyz
x,y,z
-x,1/2-y,1/2+z
x,-y,-z
-x,1/2+y,1/2-z
-x,-y,-z
x,1/2+y,1/2-z
-x,y,z
x,1/2-y,1/2+z
1/2+x,1/2+y,z
1/2-x,-y,1/2+z
1/2+x,1/2-y,-z
1/2-x,y,1/2-z
1/2-x,1/2-y,-z
1/2+x,y,1/2-z
1/2-x,1/2+y,z
1/2+x,-y,1/2+z
loop_
_atom_site_type_symbol
_atom_site_label
_atom_site_fract_x
_atom_site_fract_y
_atom_site_fract_z
Si Si1 0.219770 0.406135 0.878058
Si Si2 0.800091 0.611039 0.636078
Si Si3 0.585146 0.549656 0.389004
Si Si4 0.067836 0.325292 0.050282
Si Si5 0.184903 0.260510 0.928350
Si Si6 0.068831 0.567344 0.709274
O O1 0.250000 0.434217 0.750000
O O2 0.158670 0.448003 0.902814
O O3 0.195624 0.329364 0.848689
O O4 0.264208 0.402522 0.001635
O O5 0.750000 0.597629 0.750000
O O6 0.821064 0.690346 0.647233
O O7 0.865923 0.573334 0.636652
O O8 0.561703 0.500000 0.500000
O O9 0.565065 0.625361 0.424434
O O10 0.567688 0.510211 0.260522
O O11 0.076216 0.378280 0.170190
O O12 0.000000 0.292213 0.065885
O O13 0.126690 0.276878 0.023110
O O14 0.250000 0.250000 0.000000
O O15 0.000000 0.581808 0.652660
#
# Coordination Sequence:
#
# PCOD9478488 Si02
#       6
#    16  16  16  16  16  16
#     4  10  21  35  55  82 108 144 191 233 276 330
#     4  11  21  36  58  83 115 150 188 237 288 342
#     4   9  17  32  53  79 111 144 186 234 278 327
#     4   9  17  31  53  80 109 146 191 232 272 331
#     4   9  18  33  53  77 109 142 178 226 279 327
#     4  10  20  34  55  84 116 150 187 232 290 345
#
# _framework density 21.840869999999999
#
# number of rings (size 3 to 8) (size 9 to 14) (size 15 to 20)
#    0.000    2.333    0.000    5.000    0.000    6.000 
#    0.000    0.000    0.000    6.000    0.000    0.000 
#    0.000    0.000    0.000    0.000    0.000    0.000 
#
# Total GULP energy -267387.863474 kJ/mol
# GULP energy per Si atom -5570.580489 kJ/mol
# Density = 2.179116 g / cm^3
# Si number density = 21.840870 Si / 1000 Ang^3
#
#
#
# Elastic Constant Matrix: (Units=GPa)
#
#
# Indices 1 2 3 4 5 6 
#
# 1 212.5349 33.0711 51.2117 0.0000 0.0000 0.0000
# 2 33.0711 51.3775 6.1112 0.0000 0.0000 0.0000
# 3 51.2117 6.1112 64.1721 0.0000 0.0000 0.0000
# 4 0.0000 0.0000 0.0000 443.9218 0.0000 0.0000
# 5 0.0000 0.0000 0.0000 0.0000 5.6591 0.0000
# 6 0.0000 0.0000 0.0000 0.0000 0.0000 44.9590
#
#
#
# Elastic Compliance Matrix: (Units=1/GPa)
#
#
# Indices 1 2 3 4 5 6 
#
# 1 0.006410 -0.003558 -0.004776 0.000000 0.000000 0.000000
# 2 -0.003558 0.021661 0.000776 0.000000 0.000000 0.000000
# 3 -0.004776 0.000776 0.019321 0.000000 0.000000 0.000000
# 4 0.000000 0.000000 0.000000 0.002253 0.000000 0.000000
# 5 0.000000 0.000000 0.000000 0.000000 0.176708 0.000000
# 6 0.000000 0.000000 0.000000 0.000000 0.000000 0.022242
#
#
# Mechanical properties :
#
#
# Convention : Reuss Voigt Hill
#
# Bulk Modulus (GPa) = 30.98222 56.54139 43.76180
# Shear Modulus (GPa) = 18.21699 114.75402 66.48551
#
# Velocity S-wave (km/s) = 2.89117 7.25638 5.52331
# Velocity P-wave (km/s) = 5.03601 9.80565 7.79462
#
# Compressibility (1/GPa) = 0.03227658
#
# Stress axis : x y z
#
# Youngs Moduli (GPa) = 156.01689 46.16496 51.75771
#
# Poissons Ratio (x) = 0.16424 0.24721
# Poissons Ratio (y) = 0.55505 -0.04018
# Poissons Ratio (z) = 0.74518 -0.03584
#
# Static dielectric constant tensor:
#      x y z
#    x 1.808520 0.000000 0.000000 
#    y 0.000000 1.857210 0.000000 
#    z 0.000000 0.000000 1.835140 
# 
# From -- ./inp_files/17368.got.cif
#   From: 2010.05.17/outbox.cif.g08.bks.cpg/sg64_9_cif.got.tgz:17368.got - 2010.06.03 16:29:19.
