data_PCOD9478851
_publ_section_title
;
Structure prediction by ZEFSAII (Michael W. Deem and Ramdas Pophale) SiO2 
 PCOD9478851
Probable space group: C M C A
;
_chemical_formula_sum "Si O2"
_cell_formula_units_Z 96
_cell_length_a 7.562149
_cell_length_b 28.237486
_cell_length_c 19.572920
_cell_angle_alpha 90.000000
_cell_angle_beta 90.000000
_cell_angle_gamma 90.000000
_cell_volume 4179.524543
_symmetry_space_group_name_H-M "C M C A"
_symmetry_group_IT_number 64
_symmetry_cell_setting 'orthorhombic'
loop_
_space_group_symop_operation_xyz
x,y,z
-x,1/2-y,1/2+z
x,-y,-z
-x,1/2+y,1/2-z
-x,-y,-z
x,1/2+y,1/2-z
-x,y,z
x,1/2-y,1/2+z
1/2+x,1/2+y,z
1/2-x,-y,1/2+z
1/2+x,1/2-y,-z
1/2-x,y,1/2-z
1/2-x,1/2-y,-z
1/2+x,y,1/2-z
1/2-x,1/2+y,z
1/2+x,-y,1/2+z
loop_
_atom_site_type_symbol
_atom_site_label
_atom_site_fract_x
_atom_site_fract_y
_atom_site_fract_z
Si Si1 0.211432 0.504023 0.828541
Si Si2 0.211552 0.609458 0.829698
Si Si3 0.208995 0.706695 0.330283
Si Si4 0.283483 0.701680 0.588043
Si Si5 0.783836 0.953303 0.541177
Si Si6 0.789782 0.651257 0.041160
O O1 0.250000 0.494147 0.750000
O O2 0.280551 0.556797 0.846260
O O3 0.271321 0.464650 0.881324
O O4 0.000000 0.506516 0.835786
O O5 0.250000 0.617644 0.750000
O O6 0.273566 0.653735 0.873246
O O7 0.000000 0.607832 0.839156
O O8 0.250000 0.703405 0.250000
O O9 0.282920 0.753432 0.368963
O O10 0.260490 0.663580 0.379815
O O11 0.000000 0.710246 0.333782
O O12 0.500000 0.704087 0.589041
O O13 0.223848 0.692535 0.509899
O O14 0.721481 0.900961 0.521606
O O15 0.000000 0.952132 0.536034
O O16 0.727683 0.000000 0.500000
O O17 0.000000 0.649609 0.030815
#
# Coordination Sequence:
#
# PCOD9478851 Si02
#       6
#    16  16  16  16  16  16
#     4   9  17  29  47  72 101 133 169 211 257 306
#     4   9  16  28  47  73 104 136 173 217 264 313
#     4  11  23  39  57  79 108 141 179 220 264 316
#     4   9  18  33  55  80 105 136 174 218 266 317
#     4   9  17  31  54  81 105 135 177 218 256 306
#     4  10  20  36  58  82 108 139 176 219 267 317
#
# _framework density 22.969118999999999
#
# number of rings (size 3 to 8) (size 9 to 14) (size 15 to 20)
#    0.000    2.500    0.000    2.500    0.000    4.667 
#    0.000    5.000    0.000    4.000    0.000    0.000 
#    0.000    0.000    0.000    0.000    0.000    0.000 
#
# Total GULP energy -267947.471256 kJ/mol
# GULP energy per Si atom -5582.238984 kJ/mol
# Density = 2.291684 g / cm^3
# Si number density = 22.969119 Si / 1000 Ang^3
#
#
#
# Elastic Constant Matrix: (Units=GPa)
#
#
# Indices 1 2 3 4 5 6 
#
# 1 50.8270 3.0073 -10.7040 0.0000 0.0000 0.0000
# 2 3.0073 113.2988 62.4986 0.0000 0.0000 0.0000
# 3 -10.7040 62.4986 102.5591 0.0000 0.0000 0.0000
# 4 0.0000 0.0000 0.0000 42.0556 0.0000 0.0000
# 5 0.0000 0.0000 0.0000 0.0000 10.1709 0.0000
# 6 0.0000 0.0000 0.0000 0.0000 0.0000 6.2796
#
#
#
# Elastic Compliance Matrix: (Units=1/GPa)
#
#
# Indices 1 2 3 4 5 6 
#
# 1 0.020618 -0.002612 0.003744 0.000000 0.000000 0.000000
# 2 -0.002612 0.013627 -0.008577 0.000000 0.000000 0.000000
# 3 0.003744 -0.008577 0.015368 0.000000 0.000000 0.000000
# 4 0.000000 0.000000 0.000000 0.023778 0.000000 0.000000
# 5 0.000000 0.000000 0.000000 0.000000 0.098320 0.000000
# 6 0.000000 0.000000 0.000000 0.000000 0.000000 0.159246
#
#
# Mechanical properties :
#
#
# Convention : Reuss Voigt Hill
#
# Bulk Modulus (GPa) = 28.80060 41.80987 35.30523
# Shear Modulus (GPa) = 13.98915 25.82676 19.90796
#
# Velocity S-wave (km/s) = 2.47055 3.35686 2.94722
# Velocity P-wave (km/s) = 4.55019 5.76774 5.19476
#
# Compressibility (1/GPa) = 0.03472150
#
# Stress axis : x y z
#
# Youngs Moduli (GPa) = 48.50229 73.38565 65.07146
#
# Poissons Ratio (x) = 0.19172 -0.24362
# Poissons Ratio (y) = 0.12671 0.55809
# Poissons Ratio (z) = -0.18158 0.62940
#
# Static dielectric constant tensor:
#      x y z
#    x 1.884760 0.000000 0.000000 
#    y 0.000000 1.862370 0.000000 
#    z 0.000000 0.000000 1.802400 
# 
# From -- ./inp_files/31079.got.cif
#   From: 2010.05.17/outbox.cif.g08.bks.cpg/sg64_16_cif.got.tgz:31079.got - 2010.06.03 16:29:19.
