data_PCOD9478518
_publ_section_title
;
Structure prediction by ZEFSAII (Michael W. Deem and Ramdas Pophale) SiO2 
 PCOD9478518
Probable space group: C M C A
;
_chemical_formula_sum "Si O2"
_cell_formula_units_Z 72
_cell_length_a 30.263210
_cell_length_b 8.665619
_cell_length_c 13.006548
_cell_angle_alpha 90.000000
_cell_angle_beta 90.000000
_cell_angle_gamma 90.000000
_cell_volume 3410.960028
_symmetry_space_group_name_H-M "C M C A"
_symmetry_group_IT_number 64
_symmetry_cell_setting 'orthorhombic'
loop_
_space_group_symop_operation_xyz
x,y,z
-x,1/2-y,1/2+z
x,-y,-z
-x,1/2+y,1/2-z
-x,-y,-z
x,1/2+y,1/2-z
-x,y,z
x,1/2-y,1/2+z
1/2+x,1/2+y,z
1/2-x,-y,1/2+z
1/2+x,1/2-y,-z
1/2-x,y,1/2-z
1/2-x,1/2-y,-z
1/2+x,y,1/2-z
1/2-x,1/2+y,z
1/2+x,-y,1/2+z
loop_
_atom_site_type_symbol
_atom_site_label
_atom_site_fract_x
_atom_site_fract_y
_atom_site_fract_z
Si Si1 0.383525 0.833191 0.945347
Si Si2 0.450367 0.306830 0.903647
Si Si3 0.449534 0.520743 0.290153
Si Si4 0.250000 0.500842 0.750000
Si Si5 0.784980 0.750060 0.596180
O O1 0.411708 0.878871 0.844846
O O2 0.335392 0.760447 0.937467
O O3 0.414022 0.721248 0.011907
O O4 0.378271 0.000000 0.000000
O O5 0.500000 0.308010 0.946931
O O6 0.444369 0.453948 0.830987
O O7 0.447206 0.154215 0.830324
O O8 0.500000 0.574137 0.315832
O O9 0.222803 0.395046 0.828290
O O10 0.222338 0.606390 0.672157
O O11 0.750000 0.750000 0.500000
#
# Coordination Sequence:
#
# PCOD9478518 Si02
#       5
#    16  16  16   8  16
#     4  10  20  34  57  83 110 146 189 232 282 342
#     4   9  18  34  55  80 111 147 186 230 281 336
#     4   9  18  33  53  78 110 146 185 228 275 334
#     4  10  24  42  64  86 116 156 194 242 302 354
#     4  11  23  42  63  88 119 153 196 246 297 353
#
# _framework density 21.108426000000001
#
# number of rings (size 3 to 8) (size 9 to 14) (size 15 to 20)
#    0.000    2.222    0.000    2.667    0.000    9.778 
#    0.000    3.333    0.000    5.333    0.000    0.000 
#    0.000    0.000    0.000    0.000    0.000    0.000 
#
# Total GULP energy -201008.321671 kJ/mol
# GULP energy per Si atom -5583.564491 kJ/mol
# Density = 2.106038 g / cm^3
# Si number density = 21.108426 Si / 1000 Ang^3
#
#
#
# Elastic Constant Matrix: (Units=GPa)
#
#
# Indices 1 2 3 4 5 6 
#
# 1 169.6688 44.6154 77.7358 0.0000 0.0000 0.0000
# 2 44.6154 53.6238 40.6118 0.0000 0.0000 0.0000
# 3 77.7358 40.6118 100.4014 0.0000 0.0000 0.0000
# 4 0.0000 0.0000 0.0000 21.8207 0.0000 0.0000
# 5 0.0000 0.0000 0.0000 0.0000 -7.1108 0.0000
# 6 0.0000 0.0000 0.0000 0.0000 0.0000 13.1418
#
#
#
# Elastic Compliance Matrix: (Units=1/GPa)
#
#
# Indices 1 2 3 4 5 6 
#
# 1 0.009540 -0.003378 -0.006020 0.000000 0.000000 0.000000
# 2 -0.003378 0.028081 -0.008743 0.000000 0.000000 0.000000
# 3 -0.006020 -0.008743 0.018157 0.000000 0.000000 0.000000
# 4 0.000000 0.000000 0.000000 0.045828 0.000000 0.000000
# 5 0.000000 0.000000 0.000000 0.000000 -0.140631 0.000000
# 6 0.000000 0.000000 0.000000 0.000000 0.000000 0.076093
#
#
# Mechanical properties :
#
#
# Convention : Reuss Voigt Hill
#
# Bulk Modulus (GPa) = 51.29258 72.18001 61.73629
# Shear Modulus (GPa) = 62.61776 16.28573 39.45174
#
# Velocity S-wave (km/s) = 5.45245 2.78065 4.32789
# Velocity P-wave (km/s) = 7.99946 6.67671 7.36783
#
# Compressibility (1/GPa) = 0.01949600
#
# Stress axis : x y z
#
# Youngs Moduli (GPa) = 104.81753 35.61187 55.07370
#
# Poissons Ratio (x) = 0.12031 0.33155
# Poissons Ratio (y) = 0.35411 0.48149
# Poissons Ratio (z) = 0.63101 0.31134
#
# Static dielectric constant tensor:
#      x y z
#    x 1.731020 0.000000 0.000000 
#    y 0.000000 1.812630 0.000000 
#    z 0.000000 0.000000 1.771200 
# 
# From -- ./inp_files/27808.got.cif
#   From: 2010.05.17/outbox.cif.g08.bks.cpg/sg64_14_cif.got.tgz:27808.got - 2010.06.03 16:29:19.
