data_PCOD9478822
_publ_section_title
;
Structure prediction by ZEFSAII (Michael W. Deem and Ramdas Pophale) SiO2 
 PCOD9478822
Probable space group: C M C A
;
_chemical_formula_sum "Si O2"
_cell_formula_units_Z 80
_cell_length_a 16.571444
_cell_length_b 8.420727
_cell_length_c 24.694691
_cell_angle_alpha 90.000000
_cell_angle_beta 90.000000
_cell_angle_gamma 90.000000
_cell_volume 3445.986229
_symmetry_space_group_name_H-M "C M C A"
_symmetry_group_IT_number 64
_symmetry_cell_setting 'orthorhombic'
loop_
_space_group_symop_operation_xyz
x,y,z
-x,1/2-y,1/2+z
x,-y,-z
-x,1/2+y,1/2-z
-x,-y,-z
x,1/2+y,1/2-z
-x,y,z
x,1/2-y,1/2+z
1/2+x,1/2+y,z
1/2-x,-y,1/2+z
1/2+x,1/2-y,-z
1/2-x,y,1/2-z
1/2-x,1/2-y,-z
1/2+x,y,1/2-z
1/2-x,1/2+y,z
1/2+x,-y,1/2+z
loop_
_atom_site_type_symbol
_atom_site_label
_atom_site_fract_x
_atom_site_fract_y
_atom_site_fract_z
Si Si1 0.405032 0.689218 0.825326
Si Si2 0.402620 0.834068 0.132394
Si Si3 0.842468 0.501446 0.235103
Si Si4 0.098797 0.841839 0.968207
Si Si5 0.097498 0.842328 0.568632
O O1 0.500000 0.720952 0.825245
O O2 0.389459 0.532406 0.790841
O O3 0.378756 0.706693 0.887632
O O4 0.364318 0.833014 0.792673
O O5 0.500000 0.827795 0.139799
O O6 0.364088 0.867144 0.190422
O O7 0.383030 0.991041 0.096430
O O8 0.375415 0.690758 0.093396
O O9 0.750000 0.494133 0.250000
O O10 0.125877 0.701179 0.008858
O O11 0.000000 0.842832 0.965617
O O12 0.122813 0.000000 0.000000
O O13 0.000000 0.841486 0.564300
#
# Coordination Sequence:
#
# PCOD9478822 Si02
#       5
#    16  16  16  16  16
#     4  10  20  36  57  80 109 147 192 233 275 334
#     4   9  17  31  51  74 106 148 189 224 270 338
#     4  11  22  36  54  81 114 148 186 233 286 333
#     4   9  16  26  45  78 113 140 175 230 285 326
#     4   8  15  28  47  72 102 139 180 222 270 327
#
# _framework density 23.215416000000001
#
# number of rings (size 3 to 8) (size 9 to 14) (size 15 to 20)
#    0.000    2.600    0.000    4.200    0.000    4.000 
#    0.000    4.000    0.000    1.200    0.000    2.800 
#    0.000    0.000    0.000    0.000    0.000    4.000 
#
# Total GULP energy -223352.818775 kJ/mol
# GULP energy per Si atom -5583.820469 kJ/mol
# Density = 2.316258 g / cm^3
# Si number density = 23.215416 Si / 1000 Ang^3
#
#
#
# Elastic Constant Matrix: (Units=GPa)
#
#
# Indices 1 2 3 4 5 6 
#
# 1 42.6177 3.6564 24.3029 0.0000 0.0000 0.0000
# 2 3.6564 34.5653 -1.3006 0.0000 0.0000 0.0000
# 3 24.3029 -1.3006 105.1007 0.0000 0.0000 0.0000
# 4 0.0000 0.0000 0.0000 45.9708 0.0000 0.0000
# 5 0.0000 0.0000 0.0000 0.0000 -34.2110 0.0000
# 6 0.0000 0.0000 0.0000 0.0000 0.0000 -4.3633
#
#
#
# Elastic Compliance Matrix: (Units=1/GPa)
#
#
# Indices 1 2 3 4 5 6 
#
# 1 0.027364 -0.003134 -0.006366 0.000000 0.000000 0.000000
# 2 -0.003134 0.029303 0.001087 0.000000 0.000000 0.000000
# 3 -0.006366 0.001087 0.011000 0.000000 0.000000 0.000000
# 4 0.000000 0.000000 0.000000 0.021753 0.000000 0.000000
# 5 0.000000 0.000000 0.000000 0.000000 -0.029230 0.000000
# 6 0.000000 0.000000 0.000000 0.000000 0.000000 -0.229184
#
#
# Mechanical properties :
#
#
# Convention : Reuss Voigt Hill
#
# Bulk Modulus (GPa) = 19.66911 26.17790 22.92350
# Shear Modulus (GPa) = -36.97648 11.85429 -12.56110
#
# Velocity S-wave (km/s) = -3.99526 2.26215 -2.32861
# Velocity P-wave (km/s) = 3.57659 4.25719 1.63273
#
# Compressibility (1/GPa) = 0.05084114
#
# Stress axis : x y z
#
# Youngs Moduli (GPa) = 36.54479 34.12595 90.90719
#
# Poissons Ratio (x) = 0.10695 0.57873
# Poissons Ratio (y) = 0.11454 -0.09885
# Poissons Ratio (z) = 0.23265 -0.03711
#
# Static dielectric constant tensor:
#      x y z
#    x 1.823970 0.000000 0.000000 
#    y 0.000000 1.959430 0.000000 
#    z 0.000000 0.000000 1.861840 
# 
# From -- ./inp_files/50278.got.cif
#   From: 2010.05.17/outbox.cif.g08.bks.cpg/sg64_26_cif.got.tgz:50278.got - 2010.06.03 16:29:19.
