data_PCOD9478982
_publ_section_title
;
Structure prediction by ZEFSAII (Michael W. Deem and Ramdas Pophale) SiO2 
 PCOD9478982
Probable space group: C M C A
;
_chemical_formula_sum "Si O2"
_cell_formula_units_Z 96
_cell_length_a 14.374409
_cell_length_b 18.665476
_cell_length_c 14.279737
_cell_angle_alpha 90.000000
_cell_angle_beta 90.000000
_cell_angle_gamma 90.000000
_cell_volume 3831.327495
_symmetry_space_group_name_H-M "C M C A"
_symmetry_group_IT_number 64
_symmetry_cell_setting 'orthorhombic'
loop_
_space_group_symop_operation_xyz
x,y,z
-x,1/2-y,1/2+z
x,-y,-z
-x,1/2+y,1/2-z
-x,-y,-z
x,1/2+y,1/2-z
-x,y,z
x,1/2-y,1/2+z
1/2+x,1/2+y,z
1/2-x,-y,1/2+z
1/2+x,1/2-y,-z
1/2-x,y,1/2-z
1/2-x,1/2-y,-z
1/2+x,y,1/2-z
1/2-x,1/2+y,z
1/2+x,-y,1/2+z
loop_
_atom_site_type_symbol
_atom_site_label
_atom_site_fract_x
_atom_site_fract_y
_atom_site_fract_z
Si Si1 0.310928 0.514771 0.130548
Si Si2 0.606049 0.489188 0.659716
Si Si3 0.696063 0.677877 0.058929
Si Si4 0.607680 0.269308 0.276813
Si Si5 0.099713 0.673138 0.089888
Si Si6 0.608372 0.630633 0.877254
O O1 0.357792 0.517592 0.233923
O O2 0.204679 0.484130 0.116997
O O3 0.315040 0.596807 0.099265
O O4 0.369601 0.449442 0.090331
O O5 0.500000 0.521634 0.654145
O O6 0.596670 0.410825 0.615262
O O7 0.664971 0.732972 0.139839
O O8 0.804884 0.683618 0.035517
O O9 0.639599 0.679368 0.963070
O O10 0.500000 0.278675 0.307274
O O11 0.607273 0.213605 0.189671
O O12 0.644487 0.341462 0.224370
O O13 0.000000 0.691463 0.045591
O O14 0.500000 0.638323 0.865696
#
# Coordination Sequence:
#
# PCOD9478982 Si02
#       6
#    16  16  16  16  16  16
#     4  10  20  36  62  99 133 168 216 272 338 394
#     4   9  17  33  61  93 124 169 222 263 315 400
#     4  11  21  39  68  97 129 179 225 266 336 405
#     4  10  21  39  63  92 130 176 219 265 330 398
#     4   9  18  36  64  93 122 166 226 273 315 388
#     4  11  25  40  60 100 141 166 215 289 339 388
#
# _framework density 25.05659
#
# number of rings (size 3 to 8) (size 9 to 14) (size 15 to 20)
#    0.000    2.000    1.667    2.000    0.000    3.333 
#    6.000    0.833    0.000    5.000    0.000    1.167 
#    0.000    5.333    0.000    0.000    0.000    0.000 
#
# Total GULP energy -267864.763334 kJ/mol
# GULP energy per Si atom -5580.515903 kJ/mol
# Density = 2.499956 g / cm^3
# Si number density = 25.056590 Si / 1000 Ang^3
#
#
#
# Elastic Constant Matrix: (Units=GPa)
#
#
# Indices 1 2 3 4 5 6 
#
# 1 186.6148 27.1419 45.3670 0.0000 0.0000 0.0000
# 2 27.1419 96.0562 29.9460 0.0000 0.0000 0.0000
# 3 45.3670 29.9460 93.2440 0.0000 0.0000 0.0000
# 4 0.0000 0.0000 0.0000 5.9409 0.0000 0.0000
# 5 0.0000 0.0000 0.0000 0.0000 20.7497 0.0000
# 6 0.0000 0.0000 0.0000 0.0000 0.0000 22.4277
#
#
#
# Elastic Compliance Matrix: (Units=1/GPa)
#
#
# Indices 1 2 3 4 5 6 
#
# 1 0.006146 -0.000894 -0.002703 0.000000 0.000000 0.000000
# 2 -0.000894 0.011699 -0.003322 0.000000 0.000000 0.000000
# 3 -0.002703 -0.003322 0.013107 0.000000 0.000000 0.000000
# 4 0.000000 0.000000 0.000000 0.168325 0.000000 0.000000
# 5 0.000000 0.000000 0.000000 0.000000 0.048193 0.000000
# 6 0.000000 0.000000 0.000000 0.000000 0.000000 0.044588
#
#
# Mechanical properties :
#
#
# Convention : Reuss Voigt Hill
#
# Bulk Modulus (GPa) = 58.43557 64.53609 61.48583
# Shear Modulus (GPa) = 16.04620 28.05433 22.05027
#
# Velocity S-wave (km/s) = 2.53336 3.34973 2.96973
# Velocity P-wave (km/s) = 5.65060 6.38537 6.02919
#
# Compressibility (1/GPa) = 0.01711286
#
# Stress axis : x y z
#
# Youngs Moduli (GPa) = 162.71345 85.47821 76.29690
#
# Poissons Ratio (x) = 0.07641 0.20624
# Poissons Ratio (y) = 0.14544 0.25348
# Poissons Ratio (z) = 0.43983 0.28398
#
# Static dielectric constant tensor:
#      x y z
#    x 1.990940 0.000000 0.000000 
#    y 0.000000 2.017440 0.000000 
#    z 0.000000 0.000000 2.071690 
# 
# From -- ./inp_files/23942.got.cif
#   From: 2010.05.17/outbox.cif.g08.bks.cpg/sg64_12_cif.got.tgz:23942.got - 2010.06.03 16:29:19.
