data_PCOD9478125
_publ_section_title
;
Structure prediction by ZEFSAII (Michael W. Deem and Ramdas Pophale) SiO2 
 PCOD9478125
Probable space group: C M C A
;
_chemical_formula_sum "Si O2"
_cell_formula_units_Z 88
_cell_length_a 15.236662
_cell_length_b 15.548416
_cell_length_c 19.234373
_cell_angle_alpha 90.000000
_cell_angle_beta 90.000000
_cell_angle_gamma 90.000000
_cell_volume 4556.737586
_symmetry_space_group_name_H-M "C M C A"
_symmetry_group_IT_number 64
_symmetry_cell_setting 'orthorhombic'
loop_
_space_group_symop_operation_xyz
x,y,z
-x,1/2-y,1/2+z
x,-y,-z
-x,1/2+y,1/2-z
-x,-y,-z
x,1/2+y,1/2-z
-x,y,z
x,1/2-y,1/2+z
1/2+x,1/2+y,z
1/2-x,-y,1/2+z
1/2+x,1/2-y,-z
1/2-x,y,1/2-z
1/2-x,1/2-y,-z
1/2+x,y,1/2-z
1/2-x,1/2+y,z
1/2+x,-y,1/2+z
loop_
_atom_site_type_symbol
_atom_site_label
_atom_site_fract_x
_atom_site_fract_y
_atom_site_fract_z
Si Si1 0.140474 0.212245 0.897026
Si Si2 0.000000 0.474203 0.183401
Si Si3 0.647626 0.139768 0.753554
Si Si4 0.397807 0.591494 0.027165
Si Si5 0.500000 0.356271 0.449241
Si Si6 0.500000 0.141234 0.104342
Si Si7 0.156031 0.745041 0.387509
O O1 0.122271 0.166898 0.823662
O O2 0.244267 0.229028 0.904010
O O3 0.085713 0.299346 0.893769
O O4 0.109701 0.153979 0.960764
O O5 0.914415 0.436899 0.221316
O O6 0.000000 0.428969 0.108403
O O7 0.000000 0.574085 0.166689
O O8 0.750000 0.115663 0.750000
O O9 0.638973 0.219316 0.808961
O O10 0.500000 0.577600 0.045041
O O11 0.356160 0.644950 0.091468
O O12 0.360487 0.500000 0.000000
O O13 0.500000 0.394133 0.525886
O O14 0.585152 0.296940 0.433892
#
# Coordination Sequence:
#
# PCOD9478125 Si02
#       7
#    16   8  16  16   8   8  16
#     4  11  21  40  62  86 123 161 200 258 312 363
#     4  10  22  39  61  90 119 161 193 251 318 355
#     4   9  21  41  63  85 119 159 205 250 305 369
#     4  11  22  39  60  90 122 160 209 257 306 370
#     4  10  19  38  62  84 120 151 205 253 299 369
#     4  12  22  37  57  92 122 153 205 249 306 370
#     4  10  19  40  64  84 118 165 201 251 313 371
#
# _framework density 19.312062999999998
#
# number of rings (size 3 to 8) (size 9 to 14) (size 15 to 20)
#    0.000    1.636    3.636    1.364    0.000    0.000 
#   13.091    0.909    0.000    0.000    0.000    0.000 
#    0.000    0.000    0.000    0.000    0.000    0.000 
#
# Total GULP energy -245447.442468 kJ/mol
# GULP energy per Si atom -5578.350965 kJ/mol
# Density = 1.926811 g / cm^3
# Si number density = 19.312063 Si / 1000 Ang^3
#
#
#
# Elastic Constant Matrix: (Units=GPa)
#
#
# Indices 1 2 3 4 5 6 
#
# 1 90.9879 38.7963 34.6716 0.0000 0.0000 0.0000
# 2 38.7963 103.4488 25.6903 0.0000 0.0000 0.0000
# 3 34.6716 25.6903 85.7479 0.0000 0.0000 0.0000
# 4 0.0000 0.0000 0.0000 23.7799 0.0000 0.0000
# 5 0.0000 0.0000 0.0000 0.0000 7.3892 0.0000
# 6 0.0000 0.0000 0.0000 0.0000 0.0000 10.0794
#
#
#
# Elastic Compliance Matrix: (Units=1/GPa)
#
#
# Indices 1 2 3 4 5 6 
#
# 1 0.014590 -0.004329 -0.004602 0.000000 0.000000 0.000000
# 2 -0.004329 0.011728 -0.001763 0.000000 0.000000 0.000000
# 3 -0.004602 -0.001763 0.014051 0.000000 0.000000 0.000000
# 4 0.000000 0.000000 0.000000 0.042052 0.000000 0.000000
# 5 0.000000 0.000000 0.000000 0.000000 0.135332 0.000000
# 6 0.000000 0.000000 0.000000 0.000000 0.000000 0.099212
#
#
# Mechanical properties :
#
#
# Convention : Reuss Voigt Hill
#
# Bulk Modulus (GPa) = 52.68674 53.16676 52.92675
# Shear Modulus (GPa) = 14.50614 20.31815 17.41214
#
# Velocity S-wave (km/s) = 2.74367 3.24712 3.00596
# Velocity P-wave (km/s) = 6.11375 6.45357 6.28596
#
# Compressibility (1/GPa) = 0.01898011
#
# Stress axis : x y z
#
# Youngs Moduli (GPa) = 68.54017 85.26657 71.16726
#
# Poissons Ratio (x) = 0.36909 0.32755
# Poissons Ratio (y) = 0.29669 0.12550
# Poissons Ratio (z) = 0.31545 0.15036
#
# Static dielectric constant tensor:
#      x y z
#    x 1.661650 0.000000 0.000000 
#    y 0.000000 1.690490 0.000000 
#    z 0.000000 0.000000 1.676550 
# 
# From -- ./inp_files/33163.got.cif
#   From: 2010.05.17/outbox.cif.g08.bks.cpg/sg64_17_cif.got.tgz:33163.got - 2010.06.03 16:29:19.
