data_PCOD9478545
_publ_section_title
;
Structure prediction by ZEFSAII (Michael W. Deem and Ramdas Pophale) SiO2 
 PCOD9478545
Probable space group: C M C A
;
_chemical_formula_sum "Si O2"
_cell_formula_units_Z 68
_cell_length_a 24.085715
_cell_length_b 14.955280
_cell_length_c 8.851716
_cell_angle_alpha 90.000000
_cell_angle_beta 90.000000
_cell_angle_gamma 90.000000
_cell_volume 3188.464333
_symmetry_space_group_name_H-M "C M C A"
_symmetry_group_IT_number 64
_symmetry_cell_setting 'orthorhombic'
loop_
_space_group_symop_operation_xyz
x,y,z
-x,1/2-y,1/2+z
x,-y,-z
-x,1/2+y,1/2-z
-x,-y,-z
x,1/2+y,1/2-z
-x,y,z
x,1/2-y,1/2+z
1/2+x,1/2+y,z
1/2-x,-y,1/2+z
1/2+x,1/2-y,-z
1/2-x,y,1/2-z
1/2-x,1/2-y,-z
1/2+x,y,1/2-z
1/2-x,1/2+y,z
1/2+x,-y,1/2+z
loop_
_atom_site_type_symbol
_atom_site_label
_atom_site_fract_x
_atom_site_fract_y
_atom_site_fract_z
Si Si1 0.685253 0.346930 0.715709
Si Si2 0.800492 0.539230 0.660100
Si Si3 0.415154 0.368197 0.160783
Si Si4 0.384293 0.776089 0.054767
Si Si5 0.000000 0.000000 0.000000
O O1 0.750000 0.326428 0.750000
O O2 0.679396 0.452609 0.746834
O O3 0.661688 0.323588 0.550569
O O4 0.647520 0.291138 0.831918
O O5 0.781076 0.500000 0.500000
O O6 0.750000 0.582316 0.750000
O O7 0.850761 0.605567 0.636917
O O8 0.418384 0.342189 0.336327
O O9 0.452132 0.448006 0.100490
O O10 0.423674 0.281750 0.054754
#
# Coordination Sequence:
#
# PCOD9478545 Si02
#       5
#    16  16  16  16   4
#     4  10  20  34  58  91 135 181 223 273 340 407
#     4  11  23  39  61  98 139 188 227 282 343 415
#     4  11  24  43  68  94 132 176 229 280 354 404
#     4  10  22  39  60  94 131 171 227 288 336 418
#     4  12  24  48  76  94 132 178 230 288 352 430
#
# _framework density 21.326881
#
# number of rings (size 3 to 8) (size 9 to 14) (size 15 to 20)
#    0.000    1.412    3.529    0.706    6.588    4.706 
#    0.000    0.000    0.000   14.118    0.000    0.000 
#    0.000    0.000    0.000    0.000    0.000    0.000 
#
# Total GULP energy -189517.586187 kJ/mol
# GULP energy per Si atom -5574.046653 kJ/mol
# Density = 2.127834 g / cm^3
# Si number density = 21.326881 Si / 1000 Ang^3
#
#
#
# Elastic Constant Matrix: (Units=GPa)
#
#
# Indices 1 2 3 4 5 6 
#
# 1 74.9565 19.0790 39.9925 0.0000 0.0000 0.0000
# 2 19.0790 60.6863 41.9876 0.0000 0.0000 0.0000
# 3 39.9925 41.9876 145.0977 0.0000 0.0000 0.0000
# 4 0.0000 0.0000 0.0000 47.4382 0.0000 0.0000
# 5 0.0000 0.0000 0.0000 0.0000 20.6527 0.0000
# 6 0.0000 0.0000 0.0000 0.0000 0.0000 -177.6097
#
#
#
# Elastic Compliance Matrix: (Units=1/GPa)
#
#
# Indices 1 2 3 4 5 6 
#
# 1 0.015930 -0.002464 -0.003678 0.000000 0.000000 0.000000
# 2 -0.002464 0.020984 -0.005393 0.000000 0.000000 0.000000
# 3 -0.003678 -0.005393 0.009466 0.000000 0.000000 0.000000
# 4 0.000000 0.000000 0.000000 0.021080 0.000000 0.000000
# 5 0.000000 0.000000 0.000000 0.000000 0.048420 0.000000
# 6 0.000000 0.000000 0.000000 0.000000 0.000000 -0.005630
#
#
# Mechanical properties :
#
#
# Convention : Reuss Voigt Hill
#
# Bulk Modulus (GPa) = 42.89759 53.65098 48.27428
# Shear Modulus (GPa) = 35.43823 -9.92499 12.75662
#
# Velocity S-wave (km/s) = 4.08078 -2.15959 2.44836
# Velocity P-wave (km/s) = 6.50859 4.35806 5.53870
#
# Compressibility (1/GPa) = 0.02331134
#
# Stress axis : x y z
#
# Youngs Moduli (GPa) = 62.77276 47.65485 105.63779
#
# Poissons Ratio (x) = 0.11741 0.38853
# Poissons Ratio (y) = 0.15465 0.56973
# Poissons Ratio (z) = 0.23087 0.25702
#
# Static dielectric constant tensor:
#      x y z
#    x 1.755660 0.000000 0.000000 
#    y 0.000000 1.791540 0.000000 
#    z 0.000000 0.000000 1.815030 
# 
# From -- ./inp_files/7882.got.cif
#   From: 2010.05.17/outbox.cif.g08.bks.cpg/sg64_4_cif.got.tgz:7882.got - 2010.06.03 16:29:19.
