data_PCOD9478500
_publ_section_title
;
Structure prediction by ZEFSAII (Michael W. Deem and Ramdas Pophale) SiO2 
 PCOD9478500
Probable space group: C M C A
;
_chemical_formula_sum "Si O2"
_cell_formula_units_Z 116
_cell_length_a 24.407320
_cell_length_b 26.131687
_cell_length_c 9.663126
_cell_angle_alpha 90.000000
_cell_angle_beta 90.000000
_cell_angle_gamma 90.000000
_cell_volume 6163.184732
_symmetry_space_group_name_H-M "C M C A"
_symmetry_group_IT_number 64
_symmetry_cell_setting 'orthorhombic'
loop_
_space_group_symop_operation_xyz
x,y,z
-x,1/2-y,1/2+z
x,-y,-z
-x,1/2+y,1/2-z
-x,-y,-z
x,1/2+y,1/2-z
-x,y,z
x,1/2-y,1/2+z
1/2+x,1/2+y,z
1/2-x,-y,1/2+z
1/2+x,1/2-y,-z
1/2-x,y,1/2-z
1/2-x,1/2-y,-z
1/2+x,y,1/2-z
1/2-x,1/2+y,z
1/2+x,-y,1/2+z
loop_
_atom_site_type_symbol
_atom_site_label
_atom_site_fract_x
_atom_site_fract_y
_atom_site_fract_z
Si Si1 0.712919 0.964873 0.366456
Si Si2 0.102682 0.077885 0.948203
Si Si3 0.284832 0.281480 0.389365
Si Si4 0.500000 0.000000 0.500000
Si Si5 0.227952 0.382688 0.963851
Si Si6 0.662675 0.116514 0.290022
Si Si7 0.562846 0.693471 0.919548
Si Si8 0.391798 0.277132 0.792650
O O1 0.750000 0.991262 0.250000
O O2 0.650777 0.944708 0.349276
O O3 0.751332 0.918328 0.414280
O O4 0.709458 0.000000 0.500000
O O5 0.127955 0.081678 0.105069
O O6 0.049022 0.042358 0.956161
O O7 0.091813 0.137664 0.909831
O O8 0.250000 0.290187 0.250000
O O9 0.250000 0.250000 0.500000
O O10 0.298751 0.333978 0.465175
O O11 0.338142 0.250047 0.352260
O O12 0.283684 0.367559 0.880509
O O13 0.187138 0.406579 0.850696
O O14 0.627959 0.166391 0.247803
O O15 0.500000 0.685297 0.883027
O O16 0.586131 0.738636 0.823088
O O17 0.568524 0.712399 0.077906
#
# Coordination Sequence:
#
# PCOD9478500 Si02
#       8
#    16  16  16   4  16  16  16  16
#     4  11  25  40  61  92 124 159 198 260 330 379
#     4  10  23  39  65  90 123 155 222 259 313 365
#     4  12  22  33  53  86 127 167 201 233 291 372
#     4  12  20  44  68  92 110 168 220 274 298 370
#     4  10  20  34  56  83 124 161 198 240 301 376
#     4   9  19  36  56  88 121 163 198 244 300 375
#     4  11  23  41  59  87 118 160 208 262 302 360
#     4  11  22  35  58  84 124 161 199 242 300 362
#
# _framework density 18.821438000000001
#
# number of rings (size 3 to 8) (size 9 to 14) (size 15 to 20)
#    0.000    1.379    2.759    3.310    9.655    0.000 
#    0.000    0.000    0.000    0.000    0.000    4.345 
#    0.000    0.000    0.000    0.000    0.000    0.000 
#
# Total GULP energy -322956.382639 kJ/mol
# GULP energy per Si atom -5568.213494 kJ/mol
# Density = 1.877860 g / cm^3
# Si number density = 18.821438 Si / 1000 Ang^3
#
#
#
# Elastic Constant Matrix: (Units=GPa)
#
#
# Indices 1 2 3 4 5 6 
#
# 1 106.5373 20.0182 27.2282 0.0000 0.0000 0.0000
# 2 20.0182 70.4894 12.6180 0.0000 0.0000 0.0000
# 3 27.2282 12.6180 66.7859 0.0000 0.0000 0.0000
# 4 0.0000 0.0000 0.0000 10.5087 0.0000 0.0000
# 5 0.0000 0.0000 0.0000 0.0000 18.1963 0.0000
# 6 0.0000 0.0000 0.0000 0.0000 0.0000 25.1937
#
#
#
# Elastic Compliance Matrix: (Units=1/GPa)
#
#
# Indices 1 2 3 4 5 6 
#
# 1 0.010847 -0.002369 -0.003975 0.000000 0.000000 0.000000
# 2 -0.002369 0.015200 -0.001906 0.000000 0.000000 0.000000
# 3 -0.003975 -0.001906 0.016954 0.000000 0.000000 0.000000
# 4 0.000000 0.000000 0.000000 0.095159 0.000000 0.000000
# 5 0.000000 0.000000 0.000000 0.000000 0.054956 0.000000
# 6 0.000000 0.000000 0.000000 0.000000 0.000000 0.039692
#
#
# Mechanical properties :
#
#
# Convention : Reuss Voigt Hill
#
# Bulk Modulus (GPa) = 37.73302 40.39347 39.06324
# Shear Modulus (GPa) = 19.36906 23.04295 21.20600
#
# Velocity S-wave (km/s) = 3.21143 3.50279 3.36027
# Velocity P-wave (km/s) = 5.81743 6.15364 5.98790
#
# Compressibility (1/GPa) = 0.02650199
#
# Stress axis : x y z
#
# Youngs Moduli (GPa) = 92.18810 65.78732 58.98369
#
# Poissons Ratio (x) = 0.15585 0.23445
# Poissons Ratio (y) = 0.21840 0.11242
# Poissons Ratio (z) = 0.36643 0.12539
#
# Static dielectric constant tensor:
#      x y z
#    x 1.653860 0.000000 0.000000 
#    y 0.000000 1.760160 0.000000 
#    z 0.000000 0.000000 1.696160 
# 
# From -- ./inp_files/9754.got.cif
#   From: 2010.05.17/outbox.cif.g08.bks.cpg/sg64_5_cif.got.tgz:9754.got - 2010.06.03 16:29:19.
