data_PCOD9478672
_publ_section_title
;
Structure prediction by ZEFSAII (Michael W. Deem and Ramdas Pophale) SiO2 
 PCOD9478672
Probable space group: C M C A
;
_chemical_formula_sum "Si O2"
_cell_formula_units_Z 112
_cell_length_a 15.045308
_cell_length_b 23.369096
_cell_length_c 17.477871
_cell_angle_alpha 90.000000
_cell_angle_beta 90.000000
_cell_angle_gamma 90.000000
_cell_volume 6145.136371
_symmetry_space_group_name_H-M "C M C A"
_symmetry_group_IT_number 64
_symmetry_cell_setting 'orthorhombic'
loop_
_space_group_symop_operation_xyz
x,y,z
-x,1/2-y,1/2+z
x,-y,-z
-x,1/2+y,1/2-z
-x,-y,-z
x,1/2+y,1/2-z
-x,y,z
x,1/2-y,1/2+z
1/2+x,1/2+y,z
1/2-x,-y,1/2+z
1/2+x,1/2-y,-z
1/2-x,y,1/2-z
1/2-x,1/2-y,-z
1/2+x,y,1/2-z
1/2-x,1/2+y,z
1/2+x,-y,1/2+z
loop_
_atom_site_type_symbol
_atom_site_label
_atom_site_fract_x
_atom_site_fract_y
_atom_site_fract_z
Si Si1 0.397515 0.306753 0.622493
Si Si2 0.602563 0.173383 0.582993
Si Si3 0.172723 0.075011 0.811534
Si Si4 0.734272 0.016415 0.082546
Si Si5 0.604772 0.147462 0.292730
Si Si6 0.100815 0.471261 0.779325
Si Si7 0.717955 0.856317 0.564070
O O1 0.500000 0.324479 0.604828
O O2 0.391218 0.239011 0.609278
O O3 0.381812 0.321047 0.711916
O O4 0.320798 0.337724 0.573399
O O5 0.500000 0.162253 0.559358
O O6 0.627658 0.130022 0.651365
O O7 0.670118 0.163826 0.512917
O O8 0.250000 0.089838 0.750000
O O9 0.211079 0.036173 0.880993
O O10 0.110882 0.030854 0.765028
O O11 0.661286 0.029009 0.146483
O O12 0.787814 0.074850 0.068646
O O13 0.696331 0.000000 0.000000
O O14 0.500000 0.150773 0.312493
O O15 0.628574 0.081295 0.274640
O O16 0.665098 0.167934 0.362325
O O17 0.000000 0.460448 0.801157
#
# Coordination Sequence:
#
# PCOD9478672 Si02
#       7
#    16  16  16  16  16  16  16
#     4  10  23  40  60  84 117 158 206 248 295 353
#     4  11  24  42  60  87 124 162 197 245 301 360
#     4  10  21  37  59  85 121 157 198 236 292 363
#     4  11  21  35  55  87 120 151 198 243 293 354
#     4  10  20  35  59  92 116 147 200 252 294 346
#     4  10  20  35  57  84 116 155 198 247 291 342
#     4  12  21  37  63  89 120 156 196 251 306 351
#
# _framework density 18.225795999999999
#
# number of rings (size 3 to 8) (size 9 to 14) (size 15 to 20)
#    0.000    1.429    4.286    1.714    0.000    1.429 
#    0.000    0.714    0.000    0.000    0.000    0.000 
#    0.000    0.000    0.000    0.000    0.000    0.000 
#
# Total GULP energy -312514.346539 kJ/mol
# GULP energy per Si atom -5580.613331 kJ/mol
# Density = 1.818431 g / cm^3
# Si number density = 18.225796 Si / 1000 Ang^3
#
#
#
# Elastic Constant Matrix: (Units=GPa)
#
#
# Indices 1 2 3 4 5 6 
#
# 1 76.8767 27.2420 42.4939 0.0000 0.0000 0.0000
# 2 27.2420 55.7258 28.6865 0.0000 0.0000 0.0000
# 3 42.4939 28.6865 82.1845 0.0000 0.0000 0.0000
# 4 0.0000 0.0000 0.0000 20.9303 0.0000 0.0000
# 5 0.0000 0.0000 0.0000 0.0000 18.4776 0.0000
# 6 0.0000 0.0000 0.0000 0.0000 0.0000 25.1113
#
#
#
# Elastic Compliance Matrix: (Units=1/GPa)
#
#
# Indices 1 2 3 4 5 6 
#
# 1 0.019404 -0.005267 -0.008194 0.000000 0.000000 0.000000
# 2 -0.005267 0.023306 -0.005411 0.000000 0.000000 0.000000
# 3 -0.008194 -0.005411 0.018293 0.000000 0.000000 0.000000
# 4 0.000000 0.000000 0.000000 0.047778 0.000000 0.000000
# 5 0.000000 0.000000 0.000000 0.000000 0.054119 0.000000
# 6 0.000000 0.000000 0.000000 0.000000 0.000000 0.039823
#
#
# Mechanical properties :
#
#
# Convention : Reuss Voigt Hill
#
# Bulk Modulus (GPa) = 42.99792 45.73687 44.36740
# Shear Modulus (GPa) = 20.14333 20.66148 20.40240
#
# Velocity S-wave (km/s) = 3.32808 3.37061 3.34941
# Velocity P-wave (km/s) = 6.19767 6.34800 6.27328
#
# Compressibility (1/GPa) = 0.02325694
#
# Stress axis : x y z
#
# Youngs Moduli (GPa) = 51.53620 42.90805 54.66439
#
# Poissons Ratio (x) = 0.22602 0.44793
# Poissons Ratio (y) = 0.27147 0.29580
# Poissons Ratio (z) = 0.42230 0.23219
#
# Static dielectric constant tensor:
#      x y z
#    x 1.643090 0.000000 0.000000 
#    y 0.000000 1.624310 0.000000 
#    z 0.000000 0.000000 1.608270 
# 
# From -- ./inp_files/24208.got.cif
#   From: 2010.05.17/outbox.cif.g08.bks.cpg/sg64_13_cif.got.tgz:24208.got - 2010.06.03 16:29:19.
