data_PCOD9478983
_publ_section_title
;
Structure prediction by ZEFSAII (Michael W. Deem and Ramdas Pophale) SiO2 
 PCOD9478983
Probable space group: C M C A
;
_chemical_formula_sum "Si O2"
_cell_formula_units_Z 104
_cell_length_a 21.233917
_cell_length_b 24.986880
_cell_length_c 10.153159
_cell_angle_alpha 90.000000
_cell_angle_beta 90.000000
_cell_angle_gamma 90.000000
_cell_volume 5386.954829
_symmetry_space_group_name_H-M "C M C A"
_symmetry_group_IT_number 64
_symmetry_cell_setting 'orthorhombic'
loop_
_space_group_symop_operation_xyz
x,y,z
-x,1/2-y,1/2+z
x,-y,-z
-x,1/2+y,1/2-z
-x,-y,-z
x,1/2+y,1/2-z
-x,y,z
x,1/2-y,1/2+z
1/2+x,1/2+y,z
1/2-x,-y,1/2+z
1/2+x,1/2-y,-z
1/2-x,y,1/2-z
1/2-x,1/2-y,-z
1/2+x,y,1/2-z
1/2-x,1/2+y,z
1/2+x,-y,1/2+z
loop_
_atom_site_type_symbol
_atom_site_label
_atom_site_fract_x
_atom_site_fract_y
_atom_site_fract_z
Si Si1 0.000000 0.368573 0.939752
Si Si2 0.500000 0.726346 0.640544
Si Si3 0.638089 0.375430 0.522489
Si Si4 0.633734 0.132795 0.477129
Si Si5 0.132245 0.184636 0.745997
Si Si6 0.178097 0.700813 0.251775
Si Si7 0.244804 0.949229 0.905515
Si Si8 0.500000 0.854411 0.627981
O O1 0.000000 0.364320 0.783416
O O2 0.934204 0.395162 0.983824
O O3 0.000000 0.309758 0.008184
O O4 0.562094 0.708272 0.720392
O O5 0.500000 0.789520 0.610506
O O6 0.652616 0.345179 0.386726
O O7 0.641181 0.332305 0.641168
O O8 0.691036 0.418696 0.553726
O O9 0.635612 0.145352 0.630794
O O10 0.650542 0.186356 0.394139
O O11 0.684970 0.089532 0.431335
O O12 0.562567 0.120716 0.434823
O O13 0.173825 0.236654 0.773933
O O14 0.250000 0.682357 0.250000
O O15 0.250000 0.962259 0.750000
O O16 0.237719 0.000000 0.000000
#
# Coordination Sequence:
#
# PCOD9478983 Si02
#       8
#     8   8  16  16  16  16  16   8
#     4  10  20  36  63  87 126 169 212 246 314 381
#     4  10  21  36  51  95 138 181 209 246 295 390
#     4  11  22  43  63  93 131 168 214 266 318 395
#     4  12  24  41  63  96 132 171 221 269 320 386
#     4  11  25  34  61  96 138 176 213 250 317 386
#     4  12  22  38  57  91 138 173 213 260 305 391
#     4  12  27  50  73  93 122 164 225 286 344 392
#     4  12  21  34  66  88 133 178 215 251 311 375
#
# _framework density 19.305897999999999
#
# number of rings (size 3 to 8) (size 9 to 14) (size 15 to 20)
#    0.000    0.615    6.154    1.385    8.615    1.231 
#    0.000    0.769    0.000    0.000    0.000    0.000 
#    0.000    0.000    0.000    0.000    0.000    0.000 
#
# Total GULP energy -290676.320751 kJ/mol
# GULP energy per Si atom -5589.929245 kJ/mol
# Density = 1.926196 g / cm^3
# Si number density = 19.305898 Si / 1000 Ang^3
#
#
#
# Elastic Constant Matrix: (Units=GPa)
#
#
# Indices 1 2 3 4 5 6 
#
# 1 127.6368 35.7484 18.0092 0.0000 0.0000 0.0000
# 2 35.7484 70.9805 38.2706 0.0000 0.0000 0.0000
# 3 18.0092 38.2706 109.9434 0.0000 0.0000 0.0000
# 4 0.0000 0.0000 0.0000 23.0849 0.0000 0.0000
# 5 0.0000 0.0000 0.0000 0.0000 20.3242 0.0000
# 6 0.0000 0.0000 0.0000 0.0000 0.0000 -0.7598
#
#
#
# Elastic Compliance Matrix: (Units=1/GPa)
#
#
# Indices 1 2 3 4 5 6 
#
# 1 0.009123 -0.004664 0.000129 0.000000 0.000000 0.000000
# 2 -0.004664 0.019728 -0.006103 0.000000 0.000000 0.000000
# 3 0.000129 -0.006103 0.011199 0.000000 0.000000 0.000000
# 4 0.000000 0.000000 0.000000 0.043318 0.000000 0.000000
# 5 0.000000 0.000000 0.000000 0.000000 0.049202 0.000000
# 6 0.000000 0.000000 0.000000 0.000000 0.000000 -1.316214
#
#
# Mechanical properties :
#
#
# Convention : Reuss Voigt Hill
#
# Bulk Modulus (GPa) = 53.26685 54.73523 54.00104
# Shear Modulus (GPa) = -4.32485 22.96538 9.32026
#
# Velocity S-wave (km/s) = -1.49834 3.45273 2.19958
# Velocity P-wave (km/s) = 4.96563 6.65644 5.87221
#
# Compressibility (1/GPa) = 0.01877340
#
# Stress axis : x y z
#
# Youngs Moduli (GPa) = 109.61465 50.68894 89.29437
#
# Poissons Ratio (x) = 0.23643 -0.01154
# Poissons Ratio (y) = 0.51128 0.54498
# Poissons Ratio (z) = -0.01417 0.30937
#
# Static dielectric constant tensor:
#      x y z
#    x 1.718790 0.000000 0.000000 
#    y 0.000000 1.634840 0.000000 
#    z 0.000000 0.000000 1.651870 
# 
# From -- ./inp_files/8578.got.cif
#   From: 2010.05.17/outbox.cif.g08.bks.cpg/sg64_5_cif.got.tgz:8578.got - 2010.06.03 16:29:19.
