data_PCOD9478259
_publ_section_title
;
Structure prediction by ZEFSAII (Michael W. Deem and Ramdas Pophale) SiO2 
 PCOD9478259
Probable space group: C M C A
;
_chemical_formula_sum "Si O2"
_cell_formula_units_Z 96
_cell_length_a 25.127436
_cell_length_b 9.108307
_cell_length_c 16.020587
_cell_angle_alpha 90.000000
_cell_angle_beta 90.000000
_cell_angle_gamma 90.000000
_cell_volume 3666.606133
_symmetry_space_group_name_H-M "C M C A"
_symmetry_group_IT_number 64
_symmetry_cell_setting 'orthorhombic'
loop_
_space_group_symop_operation_xyz
x,y,z
-x,1/2-y,1/2+z
x,-y,-z
-x,1/2+y,1/2-z
-x,-y,-z
x,1/2+y,1/2-z
-x,y,z
x,1/2-y,1/2+z
1/2+x,1/2+y,z
1/2-x,-y,1/2+z
1/2+x,1/2-y,-z
1/2-x,y,1/2-z
1/2-x,1/2-y,-z
1/2+x,y,1/2-z
1/2-x,1/2+y,z
1/2+x,-y,1/2+z
loop_
_atom_site_type_symbol
_atom_site_label
_atom_site_fract_x
_atom_site_fract_y
_atom_site_fract_z
Si Si1 0.000000 0.521691 0.372521
Si Si2 0.694174 0.928343 0.296417
Si Si3 0.078999 0.366322 0.254054
Si Si4 0.422051 0.088382 0.125844
Si Si5 0.308507 0.667904 0.429844
Si Si6 0.812100 0.616229 0.434896
Si Si7 0.500000 0.757178 0.994059
O O1 0.948060 0.483325 0.317792
O O2 0.000000 0.391782 0.439777
O O3 0.000000 0.681239 0.415071
O O4 0.750000 0.946539 0.250000
O O5 0.642710 0.874832 0.247987
O O6 0.673968 0.077651 0.341120
O O7 0.701292 0.808834 0.370020
O O8 0.067063 0.213116 0.301940
O O9 0.060978 0.432618 0.164784
O O10 0.359425 0.088534 0.106033
O O11 0.450826 0.148149 0.042621
O O12 0.251782 0.591634 0.431617
O O13 0.320667 0.728400 0.522462
O O14 0.837508 0.500000 0.500000
#
# Coordination Sequence:
#
# PCOD9478259 Si02
#       7
#     8  16  16  16  16  16   8
#     4   9  19  36  57  87 108 143 202 240 288 331
#     4  10  20  32  52  81 112 148 188 235 281 339
#     4  10  21  35  57  85 114 148 186 242 288 346
#     4  10  20  36  58  85 113 150 187 235 294 344
#     4   9  19  33  52  76 109 146 189 228 279 345
#     4   9  18  33  51  75 106 146 186 233 278 332
#     4   9  19  34  61  83 110 145 192 250 277 342
#
# _framework density 26.182251999999998
#
# number of rings (size 3 to 8) (size 9 to 14) (size 15 to 20)
#    0.000    2.500    0.000    1.500    2.333    3.333 
#    0.000    1.667    0.000    1.000    0.000    0.000 
#    0.000    0.000    0.000    0.000    0.000    0.000 
#
# Total GULP energy -267946.539506 kJ/mol
# GULP energy per Si atom -5582.219573 kJ/mol
# Density = 2.612266 g / cm^3
# Si number density = 26.182252 Si / 1000 Ang^3
#
#
#
# Elastic Constant Matrix: (Units=GPa)
#
#
# Indices 1 2 3 4 5 6 
#
# 1 90.9764 31.3597 22.8161 0.0000 0.0000 0.0000
# 2 31.3597 102.0533 65.8037 0.0000 0.0000 0.0000
# 3 22.8161 65.8037 68.4173 0.0000 0.0000 0.0000
# 4 0.0000 0.0000 0.0000 58.5988 0.0000 0.0000
# 5 0.0000 0.0000 0.0000 0.0000 -0.2037 0.0000
# 6 0.0000 0.0000 0.0000 0.0000 0.0000 1077.9404
#
#
#
# Elastic Compliance Matrix: (Units=1/GPa)
#
#
# Indices 1 2 3 4 5 6 
#
# 1 0.012333 -0.002996 -0.001232 0.000000 0.000000 0.000000
# 2 -0.002996 0.026525 -0.024513 0.000000 0.000000 0.000000
# 3 -0.001232 -0.024513 0.038603 0.000000 0.000000 0.000000
# 4 0.000000 0.000000 0.000000 0.017065 0.000000 0.000000
# 5 0.000000 0.000000 0.000000 0.000000 -4.908136 0.000000
# 6 0.000000 0.000000 0.000000 0.000000 0.000000 0.000928
#
#
# Mechanical properties :
#
#
# Convention : Reuss Voigt Hill
#
# Bulk Modulus (GPa) = 50.04665 55.71178 52.87922
# Shear Modulus (GPa) = -1.05296 236.69828 117.82266
#
# Velocity S-wave (km/s) = -0.63485 9.51842 6.71555
# Velocity P-wave (km/s) = 4.31496 11.92162 8.96504
#
# Compressibility (1/GPa) = 0.01998136
#
# Stress axis : x y z
#
# Youngs Moduli (GPa) = 81.08079 37.70018 25.90449
#
# Poissons Ratio (x) = 0.11294 0.03191
# Poissons Ratio (y) = 0.24289 0.63499
# Poissons Ratio (z) = 0.09988 0.92414
#
# Static dielectric constant tensor:
#      x y z
#    x 2.006620 0.000000 0.000000 
#    y 0.000000 2.043920 0.000000 
#    z 0.000000 0.000000 2.119330 
# 
# From -- ./inp_files/35457.got.cif
#   From: 2010.05.17/outbox.cif.g08.bks.cpg/sg64_18_cif.got.tgz:35457.got - 2010.06.03 16:29:19.
