data_PCOD9478287
_publ_section_title
;
Structure prediction by ZEFSAII (Michael W. Deem and Ramdas Pophale) SiO2 
 PCOD9478287
Probable space group: C M C A
;
_chemical_formula_sum "Si O2"
_cell_formula_units_Z 80
_cell_length_a 7.743398
_cell_length_b 19.960104
_cell_length_c 27.106378
_cell_angle_alpha 90.000000
_cell_angle_beta 90.000000
_cell_angle_gamma 90.000000
_cell_volume 4189.535474
_symmetry_space_group_name_H-M "C M C A"
_symmetry_group_IT_number 64
_symmetry_cell_setting 'orthorhombic'
loop_
_space_group_symop_operation_xyz
x,y,z
-x,1/2-y,1/2+z
x,-y,-z
-x,1/2+y,1/2-z
-x,-y,-z
x,1/2+y,1/2-z
-x,y,z
x,1/2-y,1/2+z
1/2+x,1/2+y,z
1/2-x,-y,1/2+z
1/2+x,1/2-y,-z
1/2-x,y,1/2-z
1/2-x,1/2-y,-z
1/2+x,y,1/2-z
1/2-x,1/2+y,z
1/2+x,-y,1/2+z
loop_
_atom_site_type_symbol
_atom_site_label
_atom_site_fract_x
_atom_site_fract_y
_atom_site_fract_z
Si Si1 0.712599 0.420457 0.892077
Si Si2 0.205100 0.171066 0.694934
Si Si3 0.800317 0.581554 0.500137
Si Si4 0.793781 0.073540 0.893674
Si Si5 0.292257 0.323306 0.805311
O O1 0.500000 0.419987 0.892757
O O2 0.772985 0.398651 0.946872
O O3 0.767766 0.497586 0.884117
O O4 0.770674 0.372131 0.848340
O O5 0.250000 0.146984 0.750000
O O6 0.263382 0.122197 0.651769
O O7 0.275009 0.247041 0.689614
O O8 0.000000 0.175111 0.691905
O O9 0.800996 0.500000 0.500000
O O10 0.722930 0.599574 0.553430
O O11 0.000000 0.604400 0.499655
O O12 0.000000 0.067907 0.900664
O O13 0.500000 0.321066 0.809184
O O14 0.250000 0.346819 0.750000
#
# Coordination Sequence:
#
# PCOD9478287 Si02
#       5
#    16  16  16  16  16
#     4   8  14  27  48  71  91 115 151 188 219 257
#     4  10  20  33  47  63  88 121 152 183 223 270
#     4   7  11  22  43  69  92 115 145 179 215 259
#     4   9  16  28  49  73  93 115 147 186 222 260
#     4   9  18  32  48  64  86 118 152 186 224 265
#
# _framework density 19.095196999999999
#
# number of rings (size 3 to 8) (size 9 to 14) (size 15 to 20)
#    0.000    3.400    0.000    3.000    0.000    1.600 
#    0.000    4.000    0.000    6.600    0.000    0.000 
#    0.000    0.000    0.000    0.000    0.000    0.000 
#
# Total GULP energy -222710.283386 kJ/mol
# GULP energy per Si atom -5567.757085 kJ/mol
# Density = 1.905174 g / cm^3
# Si number density = 19.095197 Si / 1000 Ang^3
#
#
#
# Elastic Constant Matrix: (Units=GPa)
#
#
# Indices 1 2 3 4 5 6 
#
# 1 26.1690 3.7155 2.3226 0.0000 0.0000 0.0000
# 2 3.7155 67.3184 102.5078 0.0000 0.0000 0.0000
# 3 2.3226 102.5078 237.0291 0.0000 0.0000 0.0000
# 4 0.0000 0.0000 0.0000 -33.8071 0.0000 0.0000
# 5 0.0000 0.0000 0.0000 0.0000 12.4154 0.0000
# 6 0.0000 0.0000 0.0000 0.0000 0.0000 2.3702
#
#
#
# Elastic Compliance Matrix: (Units=1/GPa)
#
#
# Indices 1 2 3 4 5 6 
#
# 1 0.038720 -0.004567 0.001596 0.000000 0.000000 0.000000
# 2 -0.004567 0.044041 -0.019002 0.000000 0.000000 0.000000
# 3 0.001596 -0.019002 0.012421 0.000000 0.000000 0.000000
# 4 0.000000 0.000000 0.000000 -0.029580 0.000000 0.000000
# 5 0.000000 0.000000 0.000000 0.000000 0.080545 0.000000
# 6 0.000000 0.000000 0.000000 0.000000 0.000000 0.421909
#
#
# Mechanical properties :
#
#
# Convention : Reuss Voigt Hill
#
# Bulk Modulus (GPa) = 19.51732 60.84536 40.18134
# Shear Modulus (GPa) = 7.94808 10.99373 9.47091
#
# Velocity S-wave (km/s) = 2.04240 2.40205 2.22949
# Velocity P-wave (km/s) = 3.97556 6.29496 5.26458
#
# Compressibility (1/GPa) = 0.05123655
#
# Stress axis : x y z
#
# Youngs Moduli (GPa) = 25.82645 22.70588 80.50908
#
# Poissons Ratio (x) = 0.10369 -0.12845
# Poissons Ratio (y) = 0.11794 1.52982
# Poissons Ratio (z) = -0.04121 0.43145
#
# Static dielectric constant tensor:
#      x y z
#    x 1.708380 0.000000 0.000000 
#    y 0.000000 1.649720 0.000000 
#    z 0.000000 0.000000 1.644930 
# 
# From -- ./inp_files/47822.got.cif
#   From: 2010.05.17/outbox.cif.g08.bks.cpg/sg64_24_cif.got.tgz:47822.got - 2010.06.03 16:29:19.
