data_PCOD9478293
_publ_section_title
;
Structure prediction by ZEFSAII (Michael W. Deem and Ramdas Pophale) SiO2 
 PCOD9478293
Probable space group: C M C A
;
_chemical_formula_sum "Si O2"
_cell_formula_units_Z 80
_cell_length_a 9.194828
_cell_length_b 28.275045
_cell_length_c 18.317967
_cell_angle_alpha 90.000000
_cell_angle_beta 90.000000
_cell_angle_gamma 90.000000
_cell_volume 4762.381547
_symmetry_space_group_name_H-M "C M C A"
_symmetry_group_IT_number 64
_symmetry_cell_setting 'orthorhombic'
loop_
_space_group_symop_operation_xyz
x,y,z
-x,1/2-y,1/2+z
x,-y,-z
-x,1/2+y,1/2-z
-x,-y,-z
x,1/2+y,1/2-z
-x,y,z
x,1/2-y,1/2+z
1/2+x,1/2+y,z
1/2-x,-y,1/2+z
1/2+x,1/2-y,-z
1/2-x,y,1/2-z
1/2-x,1/2-y,-z
1/2+x,y,1/2-z
1/2-x,1/2+y,z
1/2+x,-y,1/2+z
loop_
_atom_site_type_symbol
_atom_site_label
_atom_site_fract_x
_atom_site_fract_y
_atom_site_fract_z
Si Si1 0.666089 0.930347 0.869203
Si Si2 0.328540 0.338116 0.819580
Si Si3 0.673121 0.799112 0.518244
Si Si4 0.833206 0.609128 0.964563
Si Si5 0.331696 0.980355 0.416045
O O1 0.500000 0.932817 0.842586
O O2 0.758324 0.889856 0.830185
O O3 0.745396 0.980724 0.869449
O O4 0.660983 0.913168 0.953768
O O5 0.500000 0.341892 0.806852
O O6 0.250000 0.315420 0.750000
O O7 0.305339 0.311162 0.895949
O O8 0.500000 0.797462 0.504722
O O9 0.750000 0.750000 0.500000
O O10 0.746646 0.841951 0.473274
O O11 0.748689 0.569989 0.917470
O O12 0.000000 0.616246 0.940758
O O13 0.500000 0.976463 0.394328
O O14 0.330799 0.000000 0.500000
#
# Coordination Sequence:
#
# PCOD9478293 Si02
#       5
#    16  16  16  16  16
#     4   9  16  26  41  62  89 120 152 186 226 274
#     4  10  20  33  49  70  96 126 160 198 243 296
#     4  10  20  33  49  70  96 126 162 206 254 299
#     4   9  16  26  41  62  89 120 153 190 233 279
#     4   9  15  23  37  59  88 119 149 181 218 263
#
# _framework density 16.798317999999998
#
# number of rings (size 3 to 8) (size 9 to 14) (size 15 to 20)
#    0.000    2.600    0.000    3.000    0.000    9.600 
#    0.000    0.000    0.000    0.000    0.000    1.400 
#    0.000    3.200    0.000    0.000    0.000    0.000 
#
# Total GULP energy -222984.869168 kJ/mol
# GULP energy per Si atom -5574.621729 kJ/mol
# Density = 1.676008 g / cm^3
# Si number density = 16.798318 Si / 1000 Ang^3
#
#
#
# Elastic Constant Matrix: (Units=GPa)
#
#
# Indices 1 2 3 4 5 6 
#
# 1 170.2670 97.4637 41.5839 0.0000 0.0000 0.0000
# 2 97.4637 147.1220 27.2614 0.0000 0.0000 0.0000
# 3 41.5839 27.2614 30.1337 0.0000 0.0000 0.0000
# 4 0.0000 0.0000 0.0000 6.9340 0.0000 0.0000
# 5 0.0000 0.0000 0.0000 0.0000 17.5423 0.0000
# 6 0.0000 0.0000 0.0000 0.0000 0.0000 31.0073
#
#
#
# Elastic Compliance Matrix: (Units=1/GPa)
#
#
# Indices 1 2 3 4 5 6 
#
# 1 0.011956 -0.005843 -0.011214 0.000000 0.000000 0.000000
# 2 -0.005843 0.011021 -0.001908 0.000000 0.000000 0.000000
# 3 -0.011214 -0.001908 0.050386 0.000000 0.000000 0.000000
# 4 0.000000 0.000000 0.000000 0.144217 0.000000 0.000000
# 5 0.000000 0.000000 0.000000 0.000000 0.057005 0.000000
# 6 0.000000 0.000000 0.000000 0.000000 0.000000 0.032250
#
#
# Mechanical properties :
#
#
# Convention : Reuss Voigt Hill
#
# Bulk Modulus (GPa) = 28.22062 75.57119 51.89590
# Shear Modulus (GPa) = 14.02227 23.17763 18.59995
#
# Velocity S-wave (km/s) = 2.89233 3.71854 3.33115
# Velocity P-wave (km/s) = 5.29058 7.97005 6.76432
#
# Compressibility (1/GPa) = 0.03543508
#
# Stress axis : x y z
#
# Youngs Moduli (GPa) = 83.63763 90.73350 19.84687
#
# Poissons Ratio (x) = 0.53014 0.22255
# Poissons Ratio (y) = 0.48868 0.03786
# Poissons Ratio (z) = 0.93788 0.17310
#
# Static dielectric constant tensor:
#      x y z
#    x 1.565840 0.000000 0.000000 
#    y 0.000000 1.542140 0.000000 
#    z 0.000000 0.000000 1.589420 
# 
# From -- ./inp_files/29743.got.cif
#   From: 2010.05.17/outbox.cif.g08.bks.cpg/sg64_15_cif.got.tgz:29743.got - 2010.06.03 16:29:19.
