data_PCOD9478685
_publ_section_title
;
Structure prediction by ZEFSAII (Michael W. Deem and Ramdas Pophale) SiO2 
 PCOD9478685
Probable space group: C M C A
;
_chemical_formula_sum "Si O2"
_cell_formula_units_Z 96
_cell_length_a 8.783281
_cell_length_b 19.425096
_cell_length_c 31.142637
_cell_angle_alpha 90.000000
_cell_angle_beta 90.000000
_cell_angle_gamma 90.000000
_cell_volume 5313.434541
_symmetry_space_group_name_H-M "C M C A"
_symmetry_group_IT_number 64
_symmetry_cell_setting 'orthorhombic'
loop_
_space_group_symop_operation_xyz
x,y,z
-x,1/2-y,1/2+z
x,-y,-z
-x,1/2+y,1/2-z
-x,-y,-z
x,1/2+y,1/2-z
-x,y,z
x,1/2-y,1/2+z
1/2+x,1/2+y,z
1/2-x,-y,1/2+z
1/2+x,1/2-y,-z
1/2-x,y,1/2-z
1/2-x,1/2-y,-z
1/2+x,y,1/2-z
1/2-x,1/2+y,z
1/2+x,-y,1/2+z
loop_
_atom_site_type_symbol
_atom_site_label
_atom_site_fract_x
_atom_site_fract_y
_atom_site_fract_z
Si Si1 0.183139 0.822319 0.450712
Si Si2 0.181857 0.673218 0.050278
Si Si3 0.683526 0.828723 0.703603
Si Si4 0.816543 0.830040 0.296317
Si Si5 0.184025 0.074128 0.624419
Si Si6 0.182620 0.421844 0.623249
O O1 0.222117 0.838801 0.500149
O O2 0.259495 0.749832 0.438921
O O3 0.226418 0.882201 0.417841
O O4 0.000000 0.813223 0.448163
O O5 0.256400 0.618336 0.081751
O O6 0.000000 0.670294 0.054201
O O7 0.500000 0.830520 0.705992
O O8 0.750000 0.847760 0.750000
O O9 0.728732 0.749298 0.694413
O O10 0.732490 0.879026 0.665483
O O11 0.750000 0.849057 0.250000
O O12 0.769020 0.881271 0.334059
O O13 0.000000 0.831425 0.294086
O O14 0.000000 0.068153 0.624890
O O15 0.255261 0.998972 0.624640
O O16 0.000000 0.422280 0.622455
#
# Coordination Sequence:
#
# PCOD9478685 Si02
#       6
#    16  16  16  16  16  16
#     4   9  19  37  59  81 107 139 177 224 272 318
#     4  10  20  35  58  84 107 137 179 223 268 320
#     4   9  19  36  57  79 103 136 177 221 268 315
#     4   9  18  34  56  78 101 133 173 217 264 314
#     4  10  21  37  55  76 107 145 180 215 263 320
#     4  11  23  37  53  77 112 147 179 219 267 317
#
# _framework density 18.067409999999999
#
# number of rings (size 3 to 8) (size 9 to 14) (size 15 to 20)
#    0.000    2.333    0.000    2.000    0.000    7.333 
#    0.000   10.000    0.000    0.000    0.000    0.000 
#    0.000    0.000    0.000    0.000    0.000    0.000 
#
# Total GULP energy -267984.222335 kJ/mol
# GULP energy per Si atom -5583.004632 kJ/mol
# Density = 1.802629 g / cm^3
# Si number density = 18.067410 Si / 1000 Ang^3
#
#
#
# Elastic Constant Matrix: (Units=GPa)
#
#
# Indices 1 2 3 4 5 6 
#
# 1 20.6420 45.5447 41.9488 0.0000 0.0000 0.0000
# 2 45.5447 164.1773 126.0506 0.0000 0.0000 0.0000
# 3 41.9488 126.0506 140.7228 0.0000 0.0000 0.0000
# 4 0.0000 0.0000 0.0000 -3.1187 0.0000 0.0000
# 5 0.0000 0.0000 0.0000 0.0000 30.5214 0.0000
# 6 0.0000 0.0000 0.0000 0.0000 0.0000 31.2321
#
#
#
# Elastic Compliance Matrix: (Units=1/GPa)
#
#
# Indices 1 2 3 4 5 6 
#
# 1 0.144961 -0.022534 -0.023028 0.000000 0.000000 0.000000
# 2 -0.022534 0.023008 -0.013892 0.000000 0.000000 0.000000
# 3 -0.023028 -0.013892 0.026414 0.000000 0.000000 0.000000
# 4 0.000000 0.000000 0.000000 -0.320644 0.000000 0.000000
# 5 0.000000 0.000000 0.000000 0.000000 0.032764 0.000000
# 6 0.000000 0.000000 0.000000 0.000000 0.000000 0.032018
#
#
# Mechanical properties :
#
#
# Convention : Reuss Voigt Hill
#
# Bulk Modulus (GPa) = 13.24926 83.62558 48.43742
# Shear Modulus (GPa) = 60.54384 19.19349 39.86866
#
# Velocity S-wave (km/s) = 5.79506 3.26287 4.70261
# Velocity P-wave (km/s) = 7.21984 7.78337 7.50690
#
# Compressibility (1/GPa) = 0.07547589
#
# Stress axis : x y z
#
# Youngs Moduli (GPa) = 6.89843 43.46370 37.85893
#
# Poissons Ratio (x) = 0.97940 0.87180
# Poissons Ratio (y) = 0.15545 0.52592
# Poissons Ratio (z) = 0.15885 0.60378
#
# Static dielectric constant tensor:
#      x y z
#    x 1.611010 0.000000 0.000000 
#    y 0.000000 1.585850 0.000000 
#    z 0.000000 0.000000 1.609670 
# 
# From -- ./inp_files/48137.got.cif
#   From: 2010.05.17/outbox.cif.g08.bks.cpg/sg64_25_cif.got.tgz:48137.got - 2010.06.03 16:29:19.
