data_PCOD9478436
_publ_section_title
;
Structure prediction by ZEFSAII (Michael W. Deem and Ramdas Pophale) SiO2 
 PCOD9478436
Probable space group: C M C A
;
_chemical_formula_sum "Si O2"
_cell_formula_units_Z 80
_cell_length_a 8.785608
_cell_length_b 28.020992
_cell_length_c 18.605027
_cell_angle_alpha 90.000000
_cell_angle_beta 90.000000
_cell_angle_gamma 90.000000
_cell_volume 4580.212552
_symmetry_space_group_name_H-M "C M C A"
_symmetry_group_IT_number 64
_symmetry_cell_setting 'orthorhombic'
loop_
_space_group_symop_operation_xyz
x,y,z
-x,1/2-y,1/2+z
x,-y,-z
-x,1/2+y,1/2-z
-x,-y,-z
x,1/2+y,1/2-z
-x,y,z
x,1/2-y,1/2+z
1/2+x,1/2+y,z
1/2-x,-y,1/2+z
1/2+x,1/2-y,-z
1/2-x,y,1/2-z
1/2-x,1/2-y,-z
1/2+x,y,1/2-z
1/2-x,1/2+y,z
1/2+x,-y,1/2+z
loop_
_atom_site_type_symbol
_atom_site_label
_atom_site_fract_x
_atom_site_fract_y
_atom_site_fract_z
Si Si1 0.682440 0.299315 0.026762
Si Si2 0.316980 0.400075 0.959486
Si Si3 0.317540 0.455832 0.670451
Si Si4 0.317286 0.152474 0.673891
Si Si5 0.317413 0.441187 0.397138
O O1 0.500000 0.296344 0.023950
O O2 0.725276 0.312269 0.108721
O O3 0.750000 0.250000 0.000000
O O4 0.727227 0.345748 0.979903
O O5 0.500000 0.403275 0.960329
O O6 0.251270 0.417195 0.884044
O O7 0.250855 0.432991 0.023567
O O8 0.500000 0.451712 0.672893
O O9 0.250000 0.451949 0.750000
O O10 0.279321 0.507688 0.636662
O O11 0.500000 0.149206 0.677067
O O12 0.250000 0.167302 0.750000
O O13 0.250709 0.100935 0.651851
O O14 0.500000 0.436840 0.400638
#
# Coordination Sequence:
#
# PCOD9478436 Si02
#       5
#    16  16  16  16  16
#     4   9  20  37  57  80 104 134 174 218 265 318
#     4  10  21  37  56  79 107 139 177 219 264 315
#     4  11  23  36  52  77 109 145 183 219 259 309
#     4  10  20  34  53  81 111 138 173 217 267 318
#     4  10  20  34  54  80 109 142 179 217 260 311
#
# _framework density 17.466438
#
# number of rings (size 3 to 8) (size 9 to 14) (size 15 to 20)
#    0.000    2.000    0.000    4.800    0.000   12.000 
#    0.000    1.000    0.000    2.400    0.000    0.000 
#    0.000    0.000    0.000    0.000    0.000    0.000 
#
# Total GULP energy -223401.904975 kJ/mol
# GULP energy per Si atom -5585.047624 kJ/mol
# Density = 1.742668 g / cm^3
# Si number density = 17.466438 Si / 1000 Ang^3
#
#
#
# Elastic Constant Matrix: (Units=GPa)
#
#
# Indices 1 2 3 4 5 6 
#
# 1 57.0607 51.3475 60.0533 0.0000 0.0000 0.0000
# 2 51.3475 119.2072 106.4997 0.0000 0.0000 0.0000
# 3 60.0533 106.4997 174.4316 0.0000 0.0000 0.0000
# 4 0.0000 0.0000 0.0000 16.2865 0.0000 0.0000
# 5 0.0000 0.0000 0.0000 0.0000 37.0045 0.0000
# 6 0.0000 0.0000 0.0000 0.0000 0.0000 26.4775
#
#
#
# Elastic Compliance Matrix: (Units=1/GPa)
#
#
# Indices 1 2 3 4 5 6 
#
# 1 0.030857 -0.008361 -0.005519 0.000000 0.000000 0.000000
# 2 -0.008361 0.020721 -0.009773 0.000000 0.000000 0.000000
# 3 -0.005519 -0.009773 0.013600 0.000000 0.000000 0.000000
# 4 0.000000 0.000000 0.000000 0.061401 0.000000 0.000000
# 5 0.000000 0.000000 0.000000 0.000000 0.027024 0.000000
# 6 0.000000 0.000000 0.000000 0.000000 0.000000 0.037768
#
#
# Mechanical properties :
#
#
# Convention : Reuss Voigt Hill
#
# Bulk Modulus (GPa) = 55.95038 87.38895 71.66966
# Shear Modulus (GPa) = 20.43872 24.80696 22.62284
#
# Velocity S-wave (km/s) = 3.42449 3.77273 3.60282
# Velocity P-wave (km/s) = 6.90933 8.31379 7.64388
#
# Compressibility (1/GPa) = 0.01787298
#
# Stress axis : x y z
#
# Youngs Moduli (GPa) = 32.40727 48.25923 73.53100
#
# Poissons Ratio (x) = 0.40351 0.40578
# Poissons Ratio (y) = 0.27097 0.71861
# Poissons Ratio (z) = 0.17884 0.47163
#
# Static dielectric constant tensor:
#      x y z
#    x 1.583820 0.000000 0.000000 
#    y 0.000000 1.573270 0.000000 
#    z 0.000000 0.000000 1.588490 
# 
# From -- ./inp_files/29721.got.cif
#   From: 2010.05.17/outbox.cif.g08.bks.cpg/sg64_15_cif.got.tgz:29721.got - 2010.06.03 16:29:19.
