data_PCOD9478335
_publ_section_title
;
Structure prediction by ZEFSAII (Michael W. Deem and Ramdas Pophale) SiO2 
 PCOD9478335
Probable space group: C M C A
;
_chemical_formula_sum "Si O2"
_cell_formula_units_Z 72
_cell_length_a 7.330890
_cell_length_b 26.182889
_cell_length_c 14.613557
_cell_angle_alpha 90.000000
_cell_angle_beta 90.000000
_cell_angle_gamma 90.000000
_cell_volume 2804.982819
_symmetry_space_group_name_H-M "C M C A"
_symmetry_group_IT_number 64
_symmetry_cell_setting 'orthorhombic'
loop_
_space_group_symop_operation_xyz
x,y,z
-x,1/2-y,1/2+z
x,-y,-z
-x,1/2+y,1/2-z
-x,-y,-z
x,1/2+y,1/2-z
-x,y,z
x,1/2-y,1/2+z
1/2+x,1/2+y,z
1/2-x,-y,1/2+z
1/2+x,1/2-y,-z
1/2-x,y,1/2-z
1/2-x,1/2-y,-z
1/2+x,y,1/2-z
1/2-x,1/2+y,z
1/2+x,-y,1/2+z
loop_
_atom_site_type_symbol
_atom_site_label
_atom_site_fract_x
_atom_site_fract_y
_atom_site_fract_z
Si Si1 0.717246 0.743023 0.891073
Si Si2 0.250000 0.439976 0.750000
Si Si3 0.283995 0.633336 0.904181
Si Si4 0.777259 0.981284 0.103274
Si Si5 0.780063 0.146358 0.379282
O O1 0.500000 0.742375 0.876852
O O2 0.789789 0.687062 0.864221
O O3 0.784383 0.796797 0.852215
O O4 0.750000 0.750000 0.000000
O O5 0.313395 0.480830 0.674821
O O6 0.316193 0.397584 0.822678
O O7 0.500000 0.633020 0.886261
O O8 0.217773 0.577071 0.878784
O O9 0.255959 0.638015 0.013464
O O10 0.000000 0.984686 0.114600
O O11 0.738451 0.000000 0.000000
O O12 0.000000 0.141934 0.365760
#
# Coordination Sequence:
#
# PCOD9478335 Si02
#       5
#    16   8  16  16  16
#     4   8  15  29  51  78 103 131 169 217 272 324
#     4  12  22  34  52  80 114 152 186 232 282 334
#     4   9  17  34  59  79 103 144 187 224 271 335
#     4  10  20  36  56  78 107 148 195 233 272 334
#     4  10  20  33  52  81 113 139 176 232 283 330
#
# _framework density 25.668604999999999
#
# number of rings (size 3 to 8) (size 9 to 14) (size 15 to 20)
#    0.000    2.444    2.222    0.667    0.000    0.889 
#    0.000    4.444    0.000    0.000    0.000    0.000 
#    0.000    0.000    0.000    0.000    0.000    0.000 
#
# Total GULP energy -200660.305789 kJ/mol
# GULP energy per Si atom -5573.897383 kJ/mol
# Density = 2.561018 g / cm^3
# Si number density = 25.668605 Si / 1000 Ang^3
#
#
#
# Elastic Constant Matrix: (Units=GPa)
#
#
# Indices 1 2 3 4 5 6 
#
# 1 116.2872 39.2127 -8.3641 0.0000 0.0000 0.0000
# 2 39.2127 359.8606 61.1002 0.0000 0.0000 0.0000
# 3 -8.3641 61.1002 92.7796 0.0000 0.0000 0.0000
# 4 0.0000 0.0000 0.0000 -21.5821 0.0000 0.0000
# 5 0.0000 0.0000 0.0000 0.0000 13.8305 0.0000
# 6 0.0000 0.0000 0.0000 0.0000 0.0000 -14.0425
#
#
#
# Elastic Compliance Matrix: (Units=1/GPa)
#
#
# Indices 1 2 3 4 5 6 
#
# 1 0.009151 -0.001280 0.001668 0.000000 0.000000 0.000000
# 2 -0.001280 0.003308 -0.002294 0.000000 0.000000 0.000000
# 3 0.001668 -0.002294 0.012439 0.000000 0.000000 0.000000
# 4 0.000000 0.000000 0.000000 -0.046335 0.000000 0.000000
# 5 0.000000 0.000000 0.000000 0.000000 0.072304 0.000000
# 6 0.000000 0.000000 0.000000 0.000000 0.000000 -0.071212
#
#
# Mechanical properties :
#
#
# Convention : Reuss Voigt Hill
#
# Bulk Modulus (GPa) = 47.42450 83.64722 65.53586
# Shear Modulus (GPa) = -526.08753 27.43974 -249.32390
#
# Velocity S-wave (km/s) = -14.33173 3.27310 -9.86624
# Velocity P-wave (km/s) = 15.97964 6.85145 10.20800
#
# Compressibility (1/GPa) = 0.02108615
#
# Stress axis : x y z
#
# Youngs Moduli (GPa) = 109.27594 302.31216 80.39090
#
# Poissons Ratio (x) = 0.38708 -0.13411
# Poissons Ratio (y) = 0.13992 0.18440
# Poissons Ratio (z) = -0.18229 0.69345
#
# Static dielectric constant tensor:
#      x y z
#    x 2.760600 0.000000 0.000000 
#    y 0.000000 2.023560 0.000000 
#    z 0.000000 0.000000 1.933990 
# 
# From -- ./inp_files/21101.got.cif
#   From: 2010.05.17/outbox.cif.g08.bks.cpg/sg64_11_cif.got.tgz:21101.got - 2010.06.03 16:29:19.
