data_PCOD9478740
_publ_section_title
;
Structure prediction by ZEFSAII (Michael W. Deem and Ramdas Pophale) SiO2 
 PCOD9478740
Probable space group: C M C A
;
_chemical_formula_sum "Si O2"
_cell_formula_units_Z 112
_cell_length_a 16.023587
_cell_length_b 25.526837
_cell_length_c 13.726339
_cell_angle_alpha 90.000000
_cell_angle_beta 90.000000
_cell_angle_gamma 90.000000
_cell_volume 5614.504942
_symmetry_space_group_name_H-M "C M C A"
_symmetry_group_IT_number 64
_symmetry_cell_setting 'orthorhombic'
loop_
_space_group_symop_operation_xyz
x,y,z
-x,1/2-y,1/2+z
x,-y,-z
-x,1/2+y,1/2-z
-x,-y,-z
x,1/2+y,1/2-z
-x,y,z
x,1/2-y,1/2+z
1/2+x,1/2+y,z
1/2-x,-y,1/2+z
1/2+x,1/2-y,-z
1/2-x,y,1/2-z
1/2-x,1/2-y,-z
1/2+x,y,1/2-z
1/2-x,1/2+y,z
1/2+x,-y,1/2+z
loop_
_atom_site_type_symbol
_atom_site_label
_atom_site_fract_x
_atom_site_fract_y
_atom_site_fract_z
Si Si1 0.795691 0.158738 0.468294
Si Si2 0.401114 0.324575 0.338980
Si Si3 0.401080 0.868794 0.793162
Si Si4 0.600564 0.411620 0.181293
Si Si5 0.188288 0.442585 0.519693
Si Si6 0.400147 0.474913 0.783243
Si Si7 0.819469 0.284713 0.667636
O O1 0.838402 0.161856 0.572993
O O2 0.868153 0.160542 0.387899
O O3 0.752966 0.102452 0.456191
O O4 0.727413 0.201840 0.433662
O O5 0.500000 0.334018 0.359442
O O6 0.378329 0.360332 0.244887
O O7 0.384077 0.262783 0.327912
O O8 0.500000 0.867826 0.789784
O O9 0.371418 0.929063 0.788362
O O10 0.363754 0.837934 0.701706
O O11 0.500000 0.411524 0.170979
O O12 0.640007 0.419478 0.074740
O O13 0.627536 0.465558 0.235893
O O14 0.227279 0.500000 0.500000
O O15 0.127276 0.456021 0.609493
O O16 0.500000 0.476048 0.780023
O O17 0.750000 0.273037 0.750000
#
# Coordination Sequence:
#
# PCOD9478740 Si02
#       7
#    16  16  16  16  16  16  16
#     4  11  23  38  58  88 122 155 196 246 303 357
#     4  11  24  42  60  83 123 165 201 242 300 367
#     4  10  20  38  62  87 114 151 197 242 293 358
#     4   9  20  37  58  87 120 159 200 246 300 354
#     4  10  20  35  60  92 123 155 198 253 299 358
#     4   9  17  34  61  88 119 155 196 247 300 351
#     4  10  22  40  64  85 114 151 201 258 299 345
#
# _framework density 19.948331
#
# number of rings (size 3 to 8) (size 9 to 14) (size 15 to 20)
#    0.000    2.000    1.429    1.714    2.000    2.857 
#    0.000    2.857    0.000    4.286    0.000    0.000 
#    0.000    0.000    0.000    0.000    0.000    0.000 
#
# Total GULP energy -312114.710377 kJ/mol
# GULP energy per Si atom -5573.476971 kJ/mol
# Density = 1.990293 g / cm^3
# Si number density = 19.948331 Si / 1000 Ang^3
#
#
#
# Elastic Constant Matrix: (Units=GPa)
#
#
# Indices 1 2 3 4 5 6 
#
# 1 42.8004 23.2989 21.7762 0.0000 0.0000 0.0000
# 2 23.2989 85.9454 15.7628 0.0000 0.0000 0.0000
# 3 21.7762 15.7628 57.4844 0.0000 0.0000 0.0000
# 4 0.0000 0.0000 0.0000 29.1043 0.0000 0.0000
# 5 0.0000 0.0000 0.0000 0.0000 -5.0181 0.0000
# 6 0.0000 0.0000 0.0000 0.0000 0.0000 21.6769
#
#
#
# Elastic Compliance Matrix: (Units=1/GPa)
#
#
# Indices 1 2 3 4 5 6 
#
# 1 0.032391 -0.006876 -0.010385 0.000000 0.000000 0.000000
# 2 -0.006876 0.013711 -0.001155 0.000000 0.000000 0.000000
# 3 -0.010385 -0.001155 0.021647 0.000000 0.000000 0.000000
# 4 0.000000 0.000000 0.000000 0.034359 0.000000 0.000000
# 5 0.000000 0.000000 0.000000 0.000000 -0.199279 0.000000
# 6 0.000000 0.000000 0.000000 0.000000 0.000000 0.046132
#
#
# Mechanical properties :
#
#
# Convention : Reuss Voigt Hill
#
# Bulk Modulus (GPa) = 32.34466 34.21179 33.27823
# Shear Modulus (GPa) = -1281.81655 17.51209 -632.15223
#
# Velocity S-wave (km/s) = -25.37643 2.96611 -17.82085
# Velocity P-wave (km/s) = 29.02358 5.37753 20.16743
#
# Compressibility (1/GPa) = 0.03091700
#
# Stress axis : x y z
#
# Youngs Moduli (GPa) = 30.87261 72.93309 46.19641
#
# Poissons Ratio (x) = 0.50151 0.47974
# Poissons Ratio (y) = 0.21229 0.05335
# Poissons Ratio (z) = 0.32061 0.08423
#
# Static dielectric constant tensor:
#      x y z
#    x 1.683350 0.000000 0.000000 
#    y 0.000000 1.738520 0.000000 
#    z 0.000000 0.000000 1.712930 
# 
# From -- ./inp_files/24386.got.cif
#   From: 2010.05.17/outbox.cif.g08.bks.cpg/sg64_13_cif.got.tgz:24386.got - 2010.06.03 16:29:19.
