data_PCOD9478415
_publ_section_title
;
Structure prediction by ZEFSAII (Michael W. Deem and Ramdas Pophale) SiO2 
 PCOD9478415
Probable space group: C M C A
;
_chemical_formula_sum "Si O2"
_cell_formula_units_Z 72
_cell_length_a 11.442939
_cell_length_b 19.050907
_cell_length_c 12.498932
_cell_angle_alpha 90.000000
_cell_angle_beta 90.000000
_cell_angle_gamma 90.000000
_cell_volume 2724.746761
_symmetry_space_group_name_H-M "C M C A"
_symmetry_group_IT_number 64
_symmetry_cell_setting 'orthorhombic'
loop_
_space_group_symop_operation_xyz
x,y,z
-x,1/2-y,1/2+z
x,-y,-z
-x,1/2+y,1/2-z
-x,-y,-z
x,1/2+y,1/2-z
-x,y,z
x,1/2-y,1/2+z
1/2+x,1/2+y,z
1/2-x,-y,1/2+z
1/2+x,1/2-y,-z
1/2-x,y,1/2-z
1/2-x,1/2-y,-z
1/2+x,y,1/2-z
1/2-x,1/2+y,z
1/2+x,-y,1/2+z
loop_
_atom_site_type_symbol
_atom_site_label
_atom_site_fract_x
_atom_site_fract_y
_atom_site_fract_z
Si Si1 0.301992 0.826169 0.479352
Si Si2 0.000000 0.456444 0.331540
Si Si3 0.500000 0.602704 0.075101
Si Si4 0.866988 0.089735 0.414253
Si Si5 0.750000 0.516827 0.750000
Si Si6 0.377565 0.758953 0.795789
O O1 0.250000 0.750000 0.500000
O O2 0.384476 0.851017 0.575806
O O3 0.201788 0.885184 0.478463
O O4 0.379958 0.805585 0.379374
O O5 0.000000 0.431616 0.455489
O O6 0.000000 0.542334 0.338199
O O7 0.128395 0.443142 0.279854
O O8 0.790781 0.033684 0.348659
O O9 0.875965 0.163603 0.349538
O O10 0.000000 0.066307 0.432503
O O11 0.500000 0.753168 0.733250
O O12 0.250000 0.749990 0.750000
#
# Coordination Sequence:
#
# PCOD9478415 Si02
#       6
#    16   8   8  16   8  16
#     4  10  21  38  64  89 127 174 213 270 334 412
#     4  11  26  40  73  92 131 177 224 293 326 391
#     4  11  22  46  63  93 131 180 222 258 348 407
#     4  10  20  34  59  92 127 154 218 290 322 384
#     4  12  20  40  64 100 120 168 234 280 324 376
#     4  10  20  34  52  87 127 170 209 263 342 403
#
# _framework density 26.424474
#
# number of rings (size 3 to 8) (size 9 to 14) (size 15 to 20)
#    0.000    1.556    5.556    0.000    1.556    0.889 
#    8.000    0.000    2.444    2.667    0.000    0.000 
#    0.000    0.000    0.000    0.000    0.000    0.000 
#
# Total GULP energy -201070.234517 kJ/mol
# GULP energy per Si atom -5585.284292 kJ/mol
# Density = 2.636433 g / cm^3
# Si number density = 26.424474 Si / 1000 Ang^3
#
#
#
# Elastic Constant Matrix: (Units=GPa)
#
#
# Indices 1 2 3 4 5 6 
#
# 1 270.4025 30.0098 52.0325 0.0000 0.0000 0.0000
# 2 30.0098 107.7179 23.9500 0.0000 0.0000 0.0000
# 3 52.0325 23.9500 48.7780 0.0000 0.0000 0.0000
# 4 0.0000 0.0000 0.0000 46.5909 0.0000 0.0000
# 5 0.0000 0.0000 0.0000 0.0000 26.2393 0.0000
# 6 0.0000 0.0000 0.0000 0.0000 0.0000 10.6266
#
#
#
# Elastic Compliance Matrix: (Units=1/GPa)
#
#
# Indices 1 2 3 4 5 6 
#
# 1 0.004658 -0.000217 -0.004862 0.000000 0.000000 0.000000
# 2 -0.000217 0.010431 -0.004891 0.000000 0.000000 0.000000
# 3 -0.004862 -0.004891 0.028089 0.000000 0.000000 0.000000
# 4 0.000000 0.000000 0.000000 0.021463 0.000000 0.000000
# 5 0.000000 0.000000 0.000000 0.000000 0.038111 0.000000
# 6 0.000000 0.000000 0.000000 0.000000 0.000000 0.094104
#
#
# Mechanical properties :
#
#
# Convention : Reuss Voigt Hill
#
# Bulk Modulus (GPa) = 43.03107 70.98699 57.00903
# Shear Modulus (GPa) = 22.26760 38.08509 30.17634
#
# Velocity S-wave (km/s) = 2.90606 3.80054 3.38299
# Velocity P-wave (km/s) = 5.25168 6.79568 6.07295
#
# Compressibility (1/GPa) = 0.02323902
#
# Stress axis : x y z
#
# Youngs Moduli (GPa) = 214.69095 95.86579 35.60101
#
# Poissons Ratio (x) = 0.02076 0.17310
# Poissons Ratio (y) = 0.04650 0.17411
# Poissons Ratio (z) = 1.04389 0.46885
#
# Static dielectric constant tensor:
#      x y z
#    x 2.145310 0.000000 0.000000 
#    y 0.000000 2.045500 0.000000 
#    z 0.000000 0.000000 2.226240 
# 
# From -- ./inp_files/29569.got.cif
#   From: 2010.05.17/outbox.cif.g08.bks.cpg/sg64_15_cif.got.tgz:29569.got - 2010.06.03 16:29:19.
