data_PCOD9478060
_publ_section_title
;
Structure prediction by ZEFSAII (Michael W. Deem and Ramdas Pophale) SiO2 
 PCOD9478060
Probable space group: C M C A
;
_chemical_formula_sum "Si O2"
_cell_formula_units_Z 72
_cell_length_a 14.697190
_cell_length_b 25.989165
_cell_length_c 7.266813
_cell_angle_alpha 90.000000
_cell_angle_beta 90.000000
_cell_angle_gamma 90.000000
_cell_volume 2775.687818
_symmetry_space_group_name_H-M "C M C A"
_symmetry_group_IT_number 64
_symmetry_cell_setting 'orthorhombic'
loop_
_space_group_symop_operation_xyz
x,y,z
-x,1/2-y,1/2+z
x,-y,-z
-x,1/2+y,1/2-z
-x,-y,-z
x,1/2+y,1/2-z
-x,y,z
x,1/2-y,1/2+z
1/2+x,1/2+y,z
1/2-x,-y,1/2+z
1/2+x,1/2-y,-z
1/2-x,y,1/2-z
1/2-x,1/2-y,-z
1/2+x,y,1/2-z
1/2-x,1/2+y,z
1/2+x,-y,1/2+z
loop_
_atom_site_type_symbol
_atom_site_label
_atom_site_fract_x
_atom_site_fract_y
_atom_site_fract_z
Si Si1 0.634344 0.324210 0.441529
Si Si2 0.310605 0.949685 0.419251
Si Si3 0.500000 0.228318 0.421642
Si Si4 0.500000 0.409558 0.577901
Si Si5 0.500000 0.011412 0.742011
Si Si6 0.838185 0.340154 0.497531
O O1 0.577506 0.272399 0.470247
O O2 0.585918 0.372764 0.537147
O O3 0.737299 0.317199 0.508130
O O4 0.631795 0.334243 0.219138
O O5 0.250000 0.930388 0.250000
O O6 0.406966 0.969922 0.349690
O O7 0.326013 0.900169 0.543417
O O8 0.261487 0.000000 0.500000
O O9 0.418834 0.186144 0.392415
O O10 0.500000 0.453586 0.423110
O O11 0.500000 0.449063 0.748161
#
# Coordination Sequence:
#
# PCOD9478060 Si02
#       6
#    16  16   8   8   8  16
#     4  10  21  40  64  98 127 181 230 282 353 414
#     4  12  26  44  73 104 142 186 234 283 350 423
#     4  11  22  36  66  92 127 165 236 274 332 407
#     4  10  19  36  69  98 137 178 241 277 338 428
#     4  11  22  38  64 103 142 183 228 285 344 404
#     4  11  21  42  66  93 138 178 226 289 349 412
#
# _framework density 25.939515
#
# number of rings (size 3 to 8) (size 9 to 14) (size 15 to 20)
#    0.000    1.111    4.444    3.000    6.222    0.000 
#    0.000    8.889    4.889    0.000    0.000    0.000 
#    0.000    0.000    0.000    0.000    0.000    0.000 
#
# Total GULP energy -200662.465381 kJ/mol
# GULP energy per Si atom -5573.957372 kJ/mol
# Density = 2.588048 g / cm^3
# Si number density = 25.939515 Si / 1000 Ang^3
#
#
#
# Elastic Constant Matrix: (Units=GPa)
#
#
# Indices 1 2 3 4 5 6 
#
# 1 200.4988 65.1031 20.5480 0.0000 0.0000 0.0000
# 2 65.1031 209.7093 10.0482 0.0000 0.0000 0.0000
# 3 20.5480 10.0482 55.1633 0.0000 0.0000 0.0000
# 4 0.0000 0.0000 0.0000 -52.1770 0.0000 0.0000
# 5 0.0000 0.0000 0.0000 0.0000 11.9604 0.0000
# 6 0.0000 0.0000 0.0000 0.0000 0.0000 61.4275
#
#
#
# Elastic Compliance Matrix: (Units=1/GPa)
#
#
# Indices 1 2 3 4 5 6 
#
# 1 0.005723 -0.001689 -0.001824 0.000000 0.000000 0.000000
# 2 -0.001689 0.005309 -0.000338 0.000000 0.000000 0.000000
# 3 -0.001824 -0.000338 0.018869 0.000000 0.000000 0.000000
# 4 0.000000 0.000000 0.000000 -0.019166 0.000000 0.000000
# 5 0.000000 0.000000 0.000000 0.000000 0.083610 0.000000
# 6 0.000000 0.000000 0.000000 0.000000 0.000000 0.016279
#
#
# Mechanical properties :
#
#
# Convention : Reuss Voigt Hill
#
# Bulk Modulus (GPa) = 45.04757 72.97445 59.01101
# Shear Modulus (GPa) = 39.76888 28.88698 34.32793
#
# Velocity S-wave (km/s) = 3.91978 3.34073 3.64178
# Velocity P-wave (km/s) = 6.15551 6.56310 6.36257
#
# Compressibility (1/GPa) = 0.02219876
#
# Stress axis : x y z
#
# Youngs Moduli (GPa) = 174.73288 188.35509 52.99696
#
# Poissons Ratio (x) = 0.31818 0.09667
# Poissons Ratio (y) = 0.29517 0.01790
# Poissons Ratio (z) = 0.31873 0.06363
#
# Static dielectric constant tensor:
#      x y z
#    x 1.932690 0.000000 0.000000 
#    y 0.000000 2.014380 0.000000 
#    z 0.000000 0.000000 2.462800 
# 
# From -- ./inp_files/5867.got.cif
#   From: 2010.05.17/outbox.cif.g08.bks.cpg/sg64_3_cif.got.tgz:5867.got - 2010.06.03 16:29:19.
