data_PCOD9478845
_publ_section_title
;
Structure prediction by ZEFSAII (Michael W. Deem and Ramdas Pophale) SiO2 
 PCOD9478845
Probable space group: C M C A
;
_chemical_formula_sum "Si O2"
_cell_formula_units_Z 72
_cell_length_a 23.765114
_cell_length_b 5.258141
_cell_length_c 24.807131
_cell_angle_alpha 90.000000
_cell_angle_beta 90.000000
_cell_angle_gamma 90.000000
_cell_volume 3099.907035
_symmetry_space_group_name_H-M "C M C A"
_symmetry_group_IT_number 64
_symmetry_cell_setting 'orthorhombic'
loop_
_space_group_symop_operation_xyz
x,y,z
-x,1/2-y,1/2+z
x,-y,-z
-x,1/2+y,1/2-z
-x,-y,-z
x,1/2+y,1/2-z
-x,y,z
x,1/2-y,1/2+z
1/2+x,1/2+y,z
1/2-x,-y,1/2+z
1/2+x,1/2-y,-z
1/2-x,y,1/2-z
1/2-x,1/2-y,-z
1/2+x,y,1/2-z
1/2-x,1/2+y,z
1/2+x,-y,1/2+z
loop_
_atom_site_type_symbol
_atom_site_label
_atom_site_fract_x
_atom_site_fract_y
_atom_site_fract_z
Si Si1 0.936919 0.029290 0.378538
Si Si2 0.314702 0.491821 0.773571
Si Si3 0.630657 0.458160 0.888071
Si Si4 0.270546 0.799224 0.439441
Si Si5 0.000000 0.657962 0.780743
O O1 0.897073 0.810633 0.402664
O O2 0.000000 0.029730 0.403056
O O3 0.947698 0.919958 0.318371
O O4 0.913503 0.314420 0.377155
O O5 0.340494 0.763483 0.760299
O O6 0.250000 0.511735 0.750000
O O7 0.327882 0.436970 0.835878
O O8 0.669315 0.572752 0.934986
O O9 0.250000 0.750000 0.500000
O O10 0.269068 0.518563 0.413760
O O11 0.000000 0.455070 0.732473
#
# Coordination Sequence:
#
# PCOD9478845 Si02
#       5
#    16  16  16  16   8
#     4  10  24  39  58  93 122 166 232 258 314 382
#     4  10  23  36  51  82 125 170 214 249 298 389
#     4  12  22  39  67  87 128 180 200 272 335 357
#     4  10  23  41  66  98 126 160 207 268 322 408
#     4  10  20  36  58  78 132 166 226 292 292 346
#
# _framework density 23.226503999999998
#
# number of rings (size 3 to 8) (size 9 to 14) (size 15 to 20)
#    0.667    0.889    0.000    4.667    6.222    5.333 
#    0.000    0.000    0.000    0.000    0.000   62.222 
#    0.000    0.000    0.000    0.000    0.000    0.000 
#
# Total GULP energy -200680.412439 kJ/mol
# GULP energy per Si atom -5574.455901 kJ/mol
# Density = 2.317364 g / cm^3
# Si number density = 23.226504 Si / 1000 Ang^3
#
#
#
# Elastic Constant Matrix: (Units=GPa)
#
#
# Indices 1 2 3 4 5 6 
#
# 1 95.3294 15.6884 18.1130 0.0000 0.0000 0.0000
# 2 15.6884 126.8941 -12.5521 0.0000 0.0000 0.0000
# 3 18.1130 -12.5521 34.2640 0.0000 0.0000 0.0000
# 4 0.0000 0.0000 0.0000 21.3017 0.0000 0.0000
# 5 0.0000 0.0000 0.0000 0.0000 24.1141 0.0000
# 6 0.0000 0.0000 0.0000 0.0000 0.0000 -4.5076
#
#
#
# Elastic Compliance Matrix: (Units=1/GPa)
#
#
# Indices 1 2 3 4 5 6 
#
# 1 0.012243 -0.002235 -0.007291 0.000000 0.000000 0.000000
# 2 -0.002235 0.008585 0.004326 0.000000 0.000000 0.000000
# 3 -0.007291 0.004326 0.034624 0.000000 0.000000 0.000000
# 4 0.000000 0.000000 0.000000 0.046945 0.000000 0.000000
# 5 0.000000 0.000000 0.000000 0.000000 0.041470 0.000000
# 6 0.000000 0.000000 0.000000 0.000000 0.000000 -0.221846
#
#
# Mechanical properties :
#
#
# Convention : Reuss Voigt Hill
#
# Bulk Modulus (GPa) = 22.19580 33.22066 27.70823
# Shear Modulus (GPa) = -95.12263 23.86417 -35.62923
#
# Velocity S-wave (km/s) = -6.40650 3.20887 -3.92087
# Velocity P-wave (km/s) = 6.71918 5.29746 2.92269
#
# Compressibility (1/GPa) = 0.04505357
#
# Stress axis : x y z
#
# Youngs Moduli (GPa) = 81.67941 116.48439 28.88158
#
# Poissons Ratio (x) = 0.26032 0.21057
# Poissons Ratio (y) = 0.18254 -0.12495
# Poissons Ratio (z) = 0.59550 -0.50395
#
# Static dielectric constant tensor:
#      x y z
#    x 1.745060 0.000000 0.000000 
#    y 0.000000 2.003120 0.000000 
#    z 0.000000 0.000000 1.915680 
# 
# From -- ./inp_files/53835.got.cif
#   From: 2010.05.17/outbox.cif.g08.bks.cpg/sg64_27_cif.got.tgz:53835.got - 2010.06.03 16:29:19.
