data_PCOD9478603
_publ_section_title
;
Structure prediction by ZEFSAII (Michael W. Deem and Ramdas Pophale) SiO2 
 PCOD9478603
Probable space group: C M C A
;
_chemical_formula_sum "Si O2"
_cell_formula_units_Z 80
_cell_length_a 16.649600
_cell_length_b 26.080941
_cell_length_c 7.640457
_cell_angle_alpha 90.000000
_cell_angle_beta 90.000000
_cell_angle_gamma 90.000000
_cell_volume 3317.770924
_symmetry_space_group_name_H-M "C M C A"
_symmetry_group_IT_number 64
_symmetry_cell_setting 'orthorhombic'
loop_
_space_group_symop_operation_xyz
x,y,z
-x,1/2-y,1/2+z
x,-y,-z
-x,1/2+y,1/2-z
-x,-y,-z
x,1/2+y,1/2-z
-x,y,z
x,1/2-y,1/2+z
1/2+x,1/2+y,z
1/2-x,-y,1/2+z
1/2+x,1/2-y,-z
1/2-x,y,1/2-z
1/2-x,1/2-y,-z
1/2+x,y,1/2-z
1/2-x,1/2+y,z
1/2+x,-y,1/2+z
loop_
_atom_site_type_symbol
_atom_site_label
_atom_site_fract_x
_atom_site_fract_y
_atom_site_fract_z
Si Si1 0.653963 0.085273 0.784855
Si Si2 0.592119 0.125923 0.412731
Si Si3 0.336068 0.274978 0.030732
Si Si4 0.658799 0.022985 0.301170
Si Si5 0.592603 0.182524 0.880072
O O1 0.750000 0.086978 0.750000
O O2 0.608686 0.104356 0.609533
O O3 0.628236 0.127014 0.927985
O O4 0.632160 0.026065 0.812805
O O5 0.500000 0.141281 0.391391
O O6 0.645884 0.177180 0.401551
O O7 0.611243 0.075853 0.298535
O O8 0.398924 0.228545 0.014958
O O9 0.250000 0.250000 0.000000
O O10 0.350988 0.298172 0.221619
O O11 0.750000 0.035178 0.250000
O O12 0.658529 0.000000 0.500000
O O13 0.500000 0.177134 0.829017
#
# Coordination Sequence:
#
# PCOD9478603 Si02
#       5
#    16  16  16  16  16
#     4   9  17  32  52  78 108 139 176 221 270 322
#     4  10  20  35  55  80 110 143 186 231 271 324
#     4  11  22  37  55  79 109 146 183 221 271 329
#     4   9  19  34  56  82 109 143 183 228 275 326
#     4  11  21  35  55  80 110 141 181 230 276 324
#
# _framework density 24.112575
#
# number of rings (size 3 to 8) (size 9 to 14) (size 15 to 20)
#    0.000    2.000    0.000    6.600    0.000    6.000 
#    0.000    0.000    0.000    0.600    0.000    4.200 
#    0.000    0.000    0.000    0.000    0.000    0.000 
#
# Total GULP energy -223483.074255 kJ/mol
# GULP energy per Si atom -5587.076856 kJ/mol
# Density = 2.405769 g / cm^3
# Si number density = 24.112575 Si / 1000 Ang^3
#
#
#
# Elastic Constant Matrix: (Units=GPa)
#
#
# Indices 1 2 3 4 5 6 
#
# 1 139.6950 71.3863 4.0553 0.0000 0.0000 0.0000
# 2 71.3863 211.1898 34.7154 0.0000 0.0000 0.0000
# 3 4.0553 34.7154 41.0416 0.0000 0.0000 0.0000
# 4 0.0000 0.0000 0.0000 8.5287 0.0000 0.0000
# 5 0.0000 0.0000 0.0000 0.0000 25.1247 0.0000
# 6 0.0000 0.0000 0.0000 0.0000 0.0000 28.9129
#
#
#
# Elastic Compliance Matrix: (Units=1/GPa)
#
#
# Indices 1 2 3 4 5 6 
#
# 1 0.008780 -0.003281 0.001908 0.000000 0.000000 0.000000
# 2 -0.003281 0.006726 -0.005365 0.000000 0.000000 0.000000
# 3 0.001908 -0.005365 0.028715 0.000000 0.000000 0.000000
# 4 0.000000 0.000000 0.000000 0.117251 0.000000 0.000000
# 5 0.000000 0.000000 0.000000 0.000000 0.039802 0.000000
# 6 0.000000 0.000000 0.000000 0.000000 0.000000 0.034587
#
#
# Mechanical properties :
#
#
# Convention : Reuss Voigt Hill
#
# Bulk Modulus (GPa) = 32.52638 68.02669 50.27653
# Shear Modulus (GPa) = 19.26148 31.29789 25.27969
#
# Velocity S-wave (km/s) = 2.82940 3.60667 3.24142
# Velocity P-wave (km/s) = 4.91860 6.75407 5.90805
#
# Compressibility (1/GPa) = 0.03074428
#
# Stress axis : x y z
#
# Youngs Moduli (GPa) = 113.89611 148.67244 34.82478
#
# Poissons Ratio (x) = 0.48786 -0.06645
# Poissons Ratio (y) = 0.37374 0.18684
# Poissons Ratio (z) = -0.21733 0.79765
#
# Static dielectric constant tensor:
#      x y z
#    x 1.866130 0.000000 0.000000 
#    y 0.000000 2.007750 0.000000 
#    z 0.000000 0.000000 2.089400 
# 
# From -- ./inp_files/14429.got.cif
#   From: 2010.05.17/outbox.cif.g08.bks.cpg/sg64_8_cif.got.tgz:14429.got - 2010.06.03 16:29:19.
