data_PCOD9478367
_publ_section_title
;
Structure prediction by ZEFSAII (Michael W. Deem and Ramdas Pophale) SiO2 
 PCOD9478367
Probable space group: C M C A
;
_chemical_formula_sum "Si O2"
_cell_formula_units_Z 64
_cell_length_a 13.760386
_cell_length_b 13.212523
_cell_length_c 14.409382
_cell_angle_alpha 90.000000
_cell_angle_beta 90.000000
_cell_angle_gamma 90.000000
_cell_volume 2619.761334
_symmetry_space_group_name_H-M "C M C A"
_symmetry_group_IT_number 64
_symmetry_cell_setting 'orthorhombic'
loop_
_space_group_symop_operation_xyz
x,y,z
-x,1/2-y,1/2+z
x,-y,-z
-x,1/2+y,1/2-z
-x,-y,-z
x,1/2+y,1/2-z
-x,y,z
x,1/2-y,1/2+z
1/2+x,1/2+y,z
1/2-x,-y,1/2+z
1/2+x,1/2-y,-z
1/2-x,y,1/2-z
1/2-x,1/2-y,-z
1/2+x,y,1/2-z
1/2-x,1/2+y,z
1/2+x,-y,1/2+z
loop_
_atom_site_type_symbol
_atom_site_label
_atom_site_fract_x
_atom_site_fract_y
_atom_site_fract_z
Si Si1 0.224522 0.078675 0.646506
Si Si2 0.613875 0.920030 0.612055
Si Si3 0.115196 0.721636 0.997160
Si Si4 0.384431 0.873478 0.814229
O O1 0.250000 0.118992 0.750000
O O2 0.176511 0.154151 0.573976
O O3 0.318387 0.017540 0.609548
O O4 0.147387 0.987152 0.661013
O O5 0.500000 0.949060 0.618176
O O6 0.623622 0.837650 0.532198
O O7 0.644630 0.861507 0.707180
O O8 0.000000 0.695298 0.988662
O O9 0.148270 0.698648 0.102239
O O10 0.500000 0.864113 0.813415
#
# Coordination Sequence:
#
# PCOD9478367 Si02
#       4
#    16  16  16  16
#     4  10  20  33  55  84 118 151 190 238 288 341
#     4   9  20  38  57  83 121 156 189 238 296 349
#     4  10  20  37  63  88 111 150 202 245 286 345
#     4   9  18  35  59  86 116 151 194 245 293 340
#
# _framework density 24.429705999999999
#
# number of rings (size 3 to 8) (size 9 to 14) (size 15 to 20)
#    0.000    2.500    0.000    1.500    0.000    7.000 
#    0.000    5.000    0.000    6.000    0.000    0.000 
#    0.000    0.000    0.000    0.000    0.000    0.000 
#
# Total GULP energy -179174.131426 kJ/mol
# GULP energy per Si atom -5599.191607 kJ/mol
# Density = 2.437410 g / cm^3
# Si number density = 24.429706 Si / 1000 Ang^3
#
#
#
# Elastic Constant Matrix: (Units=GPa)
#
#
# Indices 1 2 3 4 5 6 
#
# 1 92.6600 41.1379 61.7106 0.0000 0.0000 0.0000
# 2 41.1379 65.7154 85.0481 0.0000 0.0000 0.0000
# 3 61.7106 85.0481 195.7908 0.0000 0.0000 0.0000
# 4 0.0000 0.0000 0.0000 43.3208 0.0000 0.0000
# 5 0.0000 0.0000 0.0000 0.0000 31.4024 0.0000
# 6 0.0000 0.0000 0.0000 0.0000 0.0000 39.0026
#
#
#
# Elastic Compliance Matrix: (Units=1/GPa)
#
#
# Indices 1 2 3 4 5 6 
#
# 1 0.015135 -0.007539 -0.001496 0.000000 0.000000 0.000000
# 2 -0.007539 0.038511 -0.014352 0.000000 0.000000 0.000000
# 3 -0.001496 -0.014352 0.011813 0.000000 0.000000 0.000000
# 4 0.000000 0.000000 0.000000 0.023084 0.000000 0.000000
# 5 0.000000 0.000000 0.000000 0.000000 0.031845 0.000000
# 6 0.000000 0.000000 0.000000 0.000000 0.000000 0.025639
#
#
# Mechanical properties :
#
#
# Convention : Reuss Voigt Hill
#
# Bulk Modulus (GPa) = 53.51685 81.10658 67.31171
# Shear Modulus (GPa) = 25.12176 33.82978 29.47577
#
# Velocity S-wave (km/s) = 3.21023 3.72530 3.47732
# Velocity P-wave (km/s) = 5.97451 7.19555 6.61327
#
# Compressibility (1/GPa) = 0.01868570
#
# Stress axis : x y z
#
# Youngs Moduli (GPa) = 66.07072 25.96631 84.65020
#
# Poissons Ratio (x) = 0.19576 0.12660
# Poissons Ratio (y) = 0.49812 1.21494
# Poissons Ratio (z) = 0.09881 0.37268
#
# Static dielectric constant tensor:
#      x y z
#    x 1.963160 0.000000 0.000000 
#    y 0.000000 1.873520 0.000000 
#    z 0.000000 0.000000 1.973600 
# 
# From -- ./inp_files/23228.got.cif
#   From: 2010.05.17/outbox.cif.g08.bks.cpg/sg64_12_cif.got.tgz:23228.got - 2010.06.03 16:29:19.
