data_PCOD9478907
_publ_section_title
;
Structure prediction by ZEFSAII (Michael W. Deem and Ramdas Pophale) SiO2 
 PCOD9478907
Probable space group: C M C A
;
_chemical_formula_sum "Si O2"
_cell_formula_units_Z 64
_cell_length_a 10.711470
_cell_length_b 15.272509
_cell_length_c 16.954784
_cell_angle_alpha 90.000000
_cell_angle_beta 90.000000
_cell_angle_gamma 90.000000
_cell_volume 2773.650442
_symmetry_space_group_name_H-M "C M C A"
_symmetry_group_IT_number 64
_symmetry_cell_setting 'orthorhombic'
loop_
_space_group_symop_operation_xyz
x,y,z
-x,1/2-y,1/2+z
x,-y,-z
-x,1/2+y,1/2-z
-x,-y,-z
x,1/2+y,1/2-z
-x,y,z
x,1/2-y,1/2+z
1/2+x,1/2+y,z
1/2-x,-y,1/2+z
1/2+x,1/2-y,-z
1/2-x,y,1/2-z
1/2-x,1/2-y,-z
1/2+x,y,1/2-z
1/2-x,1/2+y,z
1/2+x,-y,1/2+z
loop_
_atom_site_type_symbol
_atom_site_label
_atom_site_fract_x
_atom_site_fract_y
_atom_site_fract_z
Si Si1 0.260997 0.029823 0.343013
Si Si2 0.000000 0.239976 0.936149
Si Si3 0.000000 0.081543 0.060092
Si Si4 0.000000 0.172127 0.587831
Si Si5 0.239825 0.681289 0.656887
Si Si6 0.000000 0.475615 0.909200
O O1 0.250000 0.045517 0.250000
O O2 0.378216 0.073994 0.385104
O O3 0.275560 0.924222 0.355435
O O4 0.131187 0.061297 0.380733
O O5 0.121915 0.227182 0.883118
O O6 0.000000 0.164878 0.003372
O O7 0.000000 0.324658 0.992563
O O8 0.000000 0.000000 0.000000
O O9 0.130790 0.210637 0.616948
O O10 0.000000 0.075492 0.627044
O O11 0.250000 0.697193 0.750000
O O12 0.000000 0.500000 0.000000
#
# Coordination Sequence:
#
# PCOD9478907 Si02
#       6
#    16   8   8   8  16   8
#     4  10  20  36  59  87 115 150 198 243 284 337
#     4  12  23  38  61  88 120 152 191 244 293 350
#     4  12  21  36  59  88 119 151 191 242 297 338
#     4  10  23  38  58  89 116 150 195 239 291 345
#     4  10  20  38  63  86 111 153 200 241 280 340
#     4  10  21  36  62  83 115 149 194 244 289 342
#
# _framework density 23.074286000000001
#
# number of rings (size 3 to 8) (size 9 to 14) (size 15 to 20)
#    0.000    1.500    2.500    3.000    3.500    4.000 
#    0.000    1.250    5.500    0.000    0.000    0.000 
#    0.000    0.000    0.000    0.000    0.000    0.000 
#
# Total GULP energy -179091.923402 kJ/mol
# GULP energy per Si atom -5596.622606 kJ/mol
# Density = 2.302177 g / cm^3
# Si number density = 23.074286 Si / 1000 Ang^3
#
#
#
# Elastic Constant Matrix: (Units=GPa)
#
#
# Indices 1 2 3 4 5 6 
#
# 1 277.2278 25.8713 114.3241 0.0000 0.0000 0.0000
# 2 25.8713 90.4374 28.2043 0.0000 0.0000 0.0000
# 3 114.3241 28.2043 154.0141 0.0000 0.0000 0.0000
# 4 0.0000 0.0000 0.0000 29.0751 0.0000 0.0000
# 5 0.0000 0.0000 0.0000 0.0000 82.1808 0.0000
# 6 0.0000 0.0000 0.0000 0.0000 0.0000 -17.8132
#
#
#
# Elastic Compliance Matrix: (Units=1/GPa)
#
#
# Indices 1 2 3 4 5 6 
#
# 1 0.005206 -0.000301 -0.003809 0.000000 0.000000 0.000000
# 2 -0.000301 0.011745 -0.001927 0.000000 0.000000 0.000000
# 3 -0.003809 -0.001927 0.009673 0.000000 0.000000 0.000000
# 4 0.000000 0.000000 0.000000 0.034394 0.000000 0.000000
# 5 0.000000 0.000000 0.000000 0.000000 0.012168 0.000000
# 6 0.000000 0.000000 0.000000 0.000000 0.000000 -0.056138
#
#
# Mechanical properties :
#
#
# Convention : Reuss Voigt Hill
#
# Bulk Modulus (GPa) = 68.73463 95.38651 82.06057
# Shear Modulus (GPa) = 147.17483 42.24051 94.70767
#
# Velocity S-wave (km/s) = 7.99509 4.28323 6.41356
# Velocity P-wave (km/s) = 10.72762 8.11727 9.51241
#
# Compressibility (1/GPa) = 0.01454871
#
# Stress axis : x y z
#
# Youngs Moduli (GPa) = 192.07980 85.14581 103.37545
#
# Poissons Ratio (x) = 0.02566 0.39379
# Poissons Ratio (y) = 0.05788 0.19921
# Poissons Ratio (z) = 0.73170 0.16408
#
# Static dielectric constant tensor:
#      x y z
#    x 1.800050 0.000000 0.000000 
#    y 0.000000 2.057160 0.000000 
#    z 0.000000 0.000000 1.791390 
# 
# From -- ./inp_files/22053.got.cif
#   From: 2010.05.17/outbox.cif.g08.bks.cpg/sg64_12_cif.got.tgz:22053.got - 2010.06.03 16:29:19.
