data_PCOD9478175
_publ_section_title
;
Structure prediction by ZEFSAII (Michael W. Deem and Ramdas Pophale) SiO2 
 PCOD9478175
Probable space group: C M C A
;
_chemical_formula_sum "Si O2"
_cell_formula_units_Z 88
_cell_length_a 14.023909
_cell_length_b 18.190329
_cell_length_c 17.558808
_cell_angle_alpha 90.000000
_cell_angle_beta 90.000000
_cell_angle_gamma 90.000000
_cell_volume 4479.243468
_symmetry_space_group_name_H-M "C M C A"
_symmetry_group_IT_number 64
_symmetry_cell_setting 'orthorhombic'
loop_
_space_group_symop_operation_xyz
x,y,z
-x,1/2-y,1/2+z
x,-y,-z
-x,1/2+y,1/2-z
-x,-y,-z
x,1/2+y,1/2-z
-x,y,z
x,1/2-y,1/2+z
1/2+x,1/2+y,z
1/2-x,-y,1/2+z
1/2+x,1/2-y,-z
1/2-x,y,1/2-z
1/2-x,1/2-y,-z
1/2+x,y,1/2-z
1/2-x,1/2+y,z
1/2+x,-y,1/2+z
loop_
_atom_site_type_symbol
_atom_site_label
_atom_site_fract_x
_atom_site_fract_y
_atom_site_fract_z
Si Si1 0.810808 0.563360 0.937590
Si Si2 0.000000 0.857500 0.396196
Si Si3 0.500000 0.645112 0.279164
Si Si4 0.331720 0.688446 0.985446
Si Si5 0.343430 0.532061 0.288667
Si Si6 0.000000 0.068690 0.771027
Si Si7 0.500000 0.817748 0.603193
Si Si8 0.500000 0.789503 0.371927
O O1 0.906174 0.612912 0.938098
O O2 0.722302 0.616782 0.953364
O O3 0.812673 0.521213 0.857027
O O4 0.815504 0.500000 0.000000
O O5 0.000000 0.891493 0.311388
O O6 0.000000 0.770500 0.389527
O O7 0.410482 0.599485 0.311253
O O8 0.500000 0.646237 0.186875
O O9 0.500000 0.727857 0.307664
O O10 0.406442 0.718663 0.923518
O O11 0.250000 0.750000 0.000000
O O12 0.402118 0.666657 0.055954
O O13 0.250000 0.562377 0.250000
O O14 0.407331 0.483107 0.231170
O O15 0.000000 0.129556 0.835396
#
# Coordination Sequence:
#
# PCOD9478175 Si02
#       8
#    16   8   8  16  16   8   8   8
#     4  11  24  40  68  98 130 174 220 265 331 391
#     4  10  19  40  64  97 130 169 208 279 311 387
#     4  11  26  41  68  97 131 179 216 281 327 389
#     4  11  25  42  65  98 135 170 217 271 330 400
#     4  10  23  42  65  94 130 167 221 270 317 390
#     4   9  19  41  63  90 126 167 219 259 323 379
#     4  11  23  43  64  95 145 166 219 276 339 386
#     4  11  24  43  68  92 129 174 219 267 331 388
#
# _framework density 19.646174999999999
#
# number of rings (size 3 to 8) (size 9 to 14) (size 15 to 20)
#    0.000    1.455    2.727    1.909    5.091    0.000 
#    0.000    3.636    0.000    0.000    0.000    0.000 
#    0.000    0.000    0.000    0.000    0.000    0.000 
#
# Total GULP energy -245691.614657 kJ/mol
# GULP energy per Si atom -5583.900333 kJ/mol
# Density = 1.960146 g / cm^3
# Si number density = 19.646175 Si / 1000 Ang^3
#
#
#
# Elastic Constant Matrix: (Units=GPa)
#
#
# Indices 1 2 3 4 5 6 
#
# 1 132.2026 24.0401 36.4063 0.0000 0.0000 0.0000
# 2 24.0401 70.5010 15.6191 0.0000 0.0000 0.0000
# 3 36.4063 15.6191 63.8134 0.0000 0.0000 0.0000
# 4 0.0000 0.0000 0.0000 37.7519 0.0000 0.0000
# 5 0.0000 0.0000 0.0000 0.0000 10.5352 0.0000
# 6 0.0000 0.0000 0.0000 0.0000 0.0000 -35.6811
#
#
#
# Elastic Compliance Matrix: (Units=1/GPa)
#
#
# Indices 1 2 3 4 5 6 
#
# 1 0.009259 -0.002101 -0.004768 0.000000 0.000000 0.000000
# 2 -0.002101 0.015474 -0.002589 0.000000 0.000000 0.000000
# 3 -0.004768 -0.002589 0.019025 0.000000 0.000000 0.000000
# 4 0.000000 0.000000 0.000000 0.026489 0.000000 0.000000
# 5 0.000000 0.000000 0.000000 0.000000 0.094920 0.000000
# 6 0.000000 0.000000 0.000000 0.000000 0.000000 -0.028026
#
#
# Mechanical properties :
#
#
# Convention : Reuss Voigt Hill
#
# Bulk Modulus (GPa) = 40.25453 46.51645 43.38549
# Shear Modulus (GPa) = 30.42514 15.21798 22.82156
#
# Velocity S-wave (km/s) = 3.93956 2.78619 3.41196
# Velocity P-wave (km/s) = 6.42089 5.83772 6.13623
#
# Compressibility (1/GPa) = 0.02484192
#
# Stress axis : x y z
#
# Youngs Moduli (GPa) = 107.99960 64.62392 52.56318
#
# Poissons Ratio (x) = 0.13577 0.25064
# Poissons Ratio (y) = 0.22690 0.13608
# Poissons Ratio (z) = 0.51498 0.16730
#
# Static dielectric constant tensor:
#      x y z
#    x 1.681470 0.000000 0.000000 
#    y 0.000000 1.664390 0.000000 
#    z 0.000000 0.000000 1.717340 
# 
# From -- ./inp_files/32235.got.cif
#   From: 2010.05.17/outbox.cif.g08.bks.cpg/sg64_17_cif.got.tgz:32235.got - 2010.06.03 16:29:19.
