data_PCOD9478718
_publ_section_title
;
Structure prediction by ZEFSAII (Michael W. Deem and Ramdas Pophale) SiO2 
 PCOD9478718
Probable space group: C M C A
;
_chemical_formula_sum "Si O2"
_cell_formula_units_Z 80
_cell_length_a 24.547207
_cell_length_b 8.638969
_cell_length_c 19.267063
_cell_angle_alpha 90.000000
_cell_angle_beta 90.000000
_cell_angle_gamma 90.000000
_cell_volume 4085.822709
_symmetry_space_group_name_H-M "C M C A"
_symmetry_group_IT_number 64
_symmetry_cell_setting 'orthorhombic'
loop_
_space_group_symop_operation_xyz
x,y,z
-x,1/2-y,1/2+z
x,-y,-z
-x,1/2+y,1/2-z
-x,-y,-z
x,1/2+y,1/2-z
-x,y,z
x,1/2-y,1/2+z
1/2+x,1/2+y,z
1/2-x,-y,1/2+z
1/2+x,1/2-y,-z
1/2-x,y,1/2-z
1/2-x,1/2-y,-z
1/2+x,y,1/2-z
1/2-x,1/2+y,z
1/2+x,-y,1/2+z
loop_
_atom_site_type_symbol
_atom_site_label
_atom_site_fract_x
_atom_site_fract_y
_atom_site_fract_z
Si Si1 0.883495 0.977143 0.423852
Si Si2 0.905648 0.184662 0.157664
Si Si3 0.250000 0.139391 0.750000
Si Si4 0.500000 0.537027 0.879324
Si Si5 0.168309 0.887734 0.707597
Si Si6 0.000000 0.110710 0.403020
Si Si7 0.500000 0.898982 0.218014
O O1 0.865126 0.092624 0.362370
O O2 0.946885 0.023219 0.429736
O O3 0.858409 0.000000 0.500000
O O4 0.876252 0.801768 0.395678
O O5 0.867469 0.118796 0.220459
O O6 0.944156 0.063750 0.115369
O O7 0.947717 0.300892 0.195671
O O8 0.209068 0.243864 0.793881
O O9 0.208961 0.032474 0.708356
O O10 0.500000 0.704794 0.916142
O O11 0.500000 0.574382 0.798224
O O12 0.000000 0.063989 0.321066
#
# Coordination Sequence:
#
# PCOD9478718 Si02
#       7
#    16  16   8   8  16   8   8
#     4  11  23  41  62  88 126 167 197 237 301 365
#     4  10  20  35  59  87 122 155 201 243 299 361
#     4  10  24  38  66  92 114 150 204 262 306 346
#     4  11  19  29  55  90 119 153 208 251 284 345
#     4  11  21  41  64  88 119 153 203 252 308 354
#     4  10  21  33  56  85 126 166 195 232 294 368
#     4   9  17  30  50  91 117 155 196 247 284 353
#
# _framework density 19.579901
#
# number of rings (size 3 to 8) (size 9 to 14) (size 15 to 20)
#    0.000    1.600    2.000    5.700    2.800    0.000 
#    0.000    3.000    0.000    0.000    0.000    0.000 
#    0.000    0.000    0.000    0.000    0.000    0.000 
#
# Total GULP energy -222872.945860 kJ/mol
# GULP energy per Si atom -5571.823647 kJ/mol
# Density = 1.953534 g / cm^3
# Si number density = 19.579901 Si / 1000 Ang^3
#
#
#
# Elastic Constant Matrix: (Units=GPa)
#
#
# Indices 1 2 3 4 5 6 
#
# 1 82.6688 11.4444 18.0532 0.0000 0.0000 0.0000
# 2 11.4444 60.4960 -6.2548 0.0000 0.0000 0.0000
# 3 18.0532 -6.2548 64.3593 0.0000 0.0000 0.0000
# 4 0.0000 0.0000 0.0000 6.3789 0.0000 0.0000
# 5 0.0000 0.0000 0.0000 0.0000 38.1797 0.0000
# 6 0.0000 0.0000 0.0000 0.0000 0.0000 70.8599
#
#
#
# Elastic Compliance Matrix: (Units=1/GPa)
#
#
# Indices 1 2 3 4 5 6 
#
# 1 0.013388 -0.002951 -0.004042 0.000000 0.000000 0.000000
# 2 -0.002951 0.017348 0.002514 0.000000 0.000000 0.000000
# 3 -0.004042 0.002514 0.016916 0.000000 0.000000 0.000000
# 4 0.000000 0.000000 0.000000 0.156768 0.000000 0.000000
# 5 0.000000 0.000000 0.000000 0.000000 0.026192 0.000000
# 6 0.000000 0.000000 0.000000 0.000000 0.000000 0.014112
#
#
# Mechanical properties :
#
#
# Convention : Reuss Voigt Hill
#
# Bulk Modulus (GPa) = 25.84404 28.22331 27.03368
# Shear Modulus (GPa) = 18.75613 35.36912 27.06262
#
# Velocity S-wave (km/s) = 3.09840 4.25479 3.72178
# Velocity P-wave (km/s) = 5.10177 6.21155 5.68381
#
# Compressibility (1/GPa) = 0.03869363
#
# Stress axis : x y z
#
# Youngs Moduli (GPa) = 74.69574 57.64329 59.11602
#
# Poissons Ratio (x) = 0.17008 0.23895
# Poissons Ratio (y) = 0.22039 -0.14860
# Poissons Ratio (z) = 0.30193 -0.14489
#
# Static dielectric constant tensor:
#      x y z
#    x 1.688760 0.000000 0.000000 
#    y 0.000000 1.788030 0.000000 
#    z 0.000000 0.000000 1.752800 
# 
# From -- ./inp_files/35687.got.cif
#   From: 2010.05.17/outbox.cif.g08.bks.cpg/sg64_18_cif.got.tgz:35687.got - 2010.06.03 16:29:19.
