data_PCOD9478908
_publ_section_title
;
Structure prediction by ZEFSAII (Michael W. Deem and Ramdas Pophale) SiO2 
 PCOD9478908
Probable space group: C M C A
;
_chemical_formula_sum "Si O2"
_cell_formula_units_Z 64
_cell_length_a 8.655087
_cell_length_b 21.450576
_cell_length_c 18.564852
_cell_angle_alpha 90.000000
_cell_angle_beta 90.000000
_cell_angle_gamma 90.000000
_cell_volume 3446.687329
_symmetry_space_group_name_H-M "C M C A"
_symmetry_group_IT_number 64
_symmetry_cell_setting 'orthorhombic'
loop_
_space_group_symop_operation_xyz
x,y,z
-x,1/2-y,1/2+z
x,-y,-z
-x,1/2+y,1/2-z
-x,-y,-z
x,1/2+y,1/2-z
-x,y,z
x,1/2-y,1/2+z
1/2+x,1/2+y,z
1/2-x,-y,1/2+z
1/2+x,1/2-y,-z
1/2-x,y,1/2-z
1/2-x,1/2-y,-z
1/2+x,y,1/2-z
1/2-x,1/2+y,z
1/2+x,-y,1/2+z
loop_
_atom_site_type_symbol
_atom_site_label
_atom_site_fract_x
_atom_site_fract_y
_atom_site_fract_z
Si Si1 0.685542 0.633893 0.831454
Si Si2 0.815528 0.366567 0.831513
Si Si3 0.315137 0.504745 0.168667
Si Si4 0.315403 0.250099 0.419553
O O1 0.500000 0.640819 0.829142
O O2 0.750000 0.638261 0.750000
O O3 0.720086 0.564129 0.861164
O O4 0.759305 0.687816 0.878857
O O5 0.750000 0.362008 0.750000
O O6 0.760020 0.433140 0.863434
O O7 0.750363 0.309417 0.876992
O O8 0.000000 0.364714 0.828658
O O9 0.500000 0.512394 0.170468
O O10 0.250000 0.502561 0.250000
O O11 0.500000 0.247547 0.420360
O O12 0.250000 0.250000 0.500000
#
# Coordination Sequence:
#
# PCOD9478908 Si02
#       4
#    16  16  16  16
#     4  10  20  36  59  87 116 147 185 228 276 328
#     4  11  21  36  59  86 115 147 186 229 275 327
#     4   9  17  31  54  84 115 144 179 226 275 324
#     4  12  25  41  58  79 111 148 188 232 280 332
#
# _framework density 18.568553000000001
#
# number of rings (size 3 to 8) (size 9 to 14) (size 15 to 20)
#    0.000    1.500    0.000    8.250    0.000    3.000 
#    0.000    1.250    0.000    7.500    0.000    0.000 
#    0.000    0.000    0.000    0.000    0.000    0.000 
#
# Total GULP energy -178722.282759 kJ/mol
# GULP energy per Si atom -5585.071336 kJ/mol
# Density = 1.852629 g / cm^3
# Si number density = 18.568553 Si / 1000 Ang^3
#
#
#
# Elastic Constant Matrix: (Units=GPa)
#
#
# Indices 1 2 3 4 5 6 
#
# 1 174.3048 106.3637 51.1075 0.0000 0.0000 0.0000
# 2 106.3637 223.8324 82.3195 0.0000 0.0000 0.0000
# 3 51.1075 82.3195 81.5487 0.0000 0.0000 0.0000
# 4 0.0000 0.0000 0.0000 -11.0071 0.0000 0.0000
# 5 0.0000 0.0000 0.0000 0.0000 28.4806 0.0000
# 6 0.0000 0.0000 0.0000 0.0000 0.0000 36.7162
#
#
#
# Elastic Compliance Matrix: (Units=1/GPa)
#
#
# Indices 1 2 3 4 5 6 
#
# 1 0.008267 -0.003218 -0.001933 0.000000 0.000000 0.000000
# 2 -0.003218 0.008358 -0.006420 0.000000 0.000000 0.000000
# 3 -0.001933 -0.006420 0.019955 0.000000 0.000000 0.000000
# 4 0.000000 0.000000 0.000000 -0.090851 0.000000 0.000000
# 5 0.000000 0.000000 0.000000 0.000000 0.035112 0.000000
# 6 0.000000 0.000000 0.000000 0.000000 0.000000 0.027236
#
#
# Mechanical properties :
#
#
# Convention : Reuss Voigt Hill
#
# Bulk Modulus (GPa) = 74.41541 106.58526 90.50033
# Shear Modulus (GPa) = 140.05953 26.83095 83.44524
#
# Velocity S-wave (km/s) = 8.69437 3.80540 6.71093
# Velocity P-wave (km/s) = 11.87234 8.76548 10.43518
#
# Compressibility (1/GPa) = 0.01343808
#
# Stress axis : x y z
#
# Youngs Moduli (GPa) = 120.95779 119.64817 50.11224
#
# Poissons Ratio (x) = 0.38498 0.09688
# Poissons Ratio (y) = 0.38919 0.32174
# Poissons Ratio (z) = 0.23384 0.76818
#
# Static dielectric constant tensor:
#      x y z
#    x 1.616340 0.000000 0.000000 
#    y 0.000000 1.680310 0.000000 
#    z 0.000000 0.000000 1.613810 
# 
# From -- ./inp_files/20832.got.cif
#   From: 2010.05.17/outbox.cif.g08.bks.cpg/sg64_11_cif.got.tgz:20832.got - 2010.06.03 16:29:19.
