data_PCOD9478305
_publ_section_title
;
Structure prediction by ZEFSAII (Michael W. Deem and Ramdas Pophale) SiO2 
 PCOD9478305
Probable space group: C M C A
;
_chemical_formula_sum "Si O2"
_cell_formula_units_Z 96
_cell_length_a 8.476736
_cell_length_b 25.974616
_cell_length_c 24.367023
_cell_angle_alpha 90.000000
_cell_angle_beta 90.000000
_cell_angle_gamma 90.000000
_cell_volume 5365.130211
_symmetry_space_group_name_H-M "C M C A"
_symmetry_group_IT_number 64
_symmetry_cell_setting 'orthorhombic'
loop_
_space_group_symop_operation_xyz
x,y,z
-x,1/2-y,1/2+z
x,-y,-z
-x,1/2+y,1/2-z
-x,-y,-z
x,1/2+y,1/2-z
-x,y,z
x,1/2-y,1/2+z
1/2+x,1/2+y,z
1/2-x,-y,1/2+z
1/2+x,1/2-y,-z
1/2-x,y,1/2-z
1/2-x,1/2-y,-z
1/2+x,y,1/2-z
1/2-x,1/2+y,z
1/2+x,-y,1/2+z
loop_
_atom_site_type_symbol
_atom_site_label
_atom_site_fract_x
_atom_site_fract_y
_atom_site_fract_z
Si Si1 0.809637 0.749393 0.311856
Si Si2 0.689340 0.808705 0.499696
Si Si3 0.310777 0.937987 0.310599
Si Si4 0.310895 0.847144 0.115575
Si Si5 0.807556 0.650726 0.382669
Si Si6 0.190532 0.056258 0.189601
O O1 0.750000 0.750720 0.250000
O O2 0.757704 0.799330 0.346178
O O3 0.757964 0.697945 0.343661
O O4 0.000000 0.749427 0.311128
O O5 0.500000 0.807209 0.500012
O O6 0.750000 0.750000 0.500000
O O7 0.747198 0.837193 0.445215
O O8 0.743335 0.837069 0.555432
O O9 0.500000 0.936325 0.310282
O O10 0.250000 0.922828 0.250000
O O11 0.246983 0.899245 0.356058
O O12 0.259291 0.997216 0.320320
O O13 0.500000 0.846631 0.113902
O O14 0.755313 0.597091 0.355827
O O15 0.000000 0.650340 0.383018
O O16 0.250000 0.071646 0.250000
O O17 0.000000 0.056795 0.190578
#
# Coordination Sequence:
#
# PCOD9478305 Si02
#       6
#    16  16  16  16  16  16
#     4  10  20  33  50  76 107 136 171 216 269 322
#     4  11  21  37  58  79 108 146 186 226 275 330
#     4  10  20  35  56  83 110 144 182 221 271 326
#     4  11  22  37  55  78 109 145 185 229 272 321
#     4   9  18  35  55  77 107 141 177 222 270 324
#     4   9  18  34  57  81 109 142 179 220 269 324
#
# _framework density 17.893322000000001
#
# number of rings (size 3 to 8) (size 9 to 14) (size 15 to 20)
#    0.000    2.000    1.667    2.500    0.000    3.333 
#    0.000    2.500    0.000    5.000    0.000    0.000 
#    0.000    0.000    0.000    0.000    0.000    0.000 
#
# Total GULP energy -268001.229426 kJ/mol
# GULP energy per Si atom -5583.358946 kJ/mol
# Density = 1.785260 g / cm^3
# Si number density = 17.893322 Si / 1000 Ang^3
#
#
#
# Elastic Constant Matrix: (Units=GPa)
#
#
# Indices 1 2 3 4 5 6 
#
# 1 26.7630 22.6983 27.8400 0.0000 0.0000 0.0000
# 2 22.6983 120.6462 102.1077 0.0000 0.0000 0.0000
# 3 27.8400 102.1077 192.2198 0.0000 0.0000 0.0000
# 4 0.0000 0.0000 0.0000 26.0586 0.0000 0.0000
# 5 0.0000 0.0000 0.0000 0.0000 30.9769 0.0000
# 6 0.0000 0.0000 0.0000 0.0000 0.0000 21.5462
#
#
#
# Elastic Compliance Matrix: (Units=1/GPa)
#
#
# Indices 1 2 3 4 5 6 
#
# 1 0.045895 -0.005467 -0.003743 0.000000 0.000000 0.000000
# 2 -0.005467 0.015710 -0.007553 0.000000 0.000000 0.000000
# 3 -0.003743 -0.007553 0.009757 0.000000 0.000000 0.000000
# 4 0.000000 0.000000 0.000000 0.038375 0.000000 0.000000
# 5 0.000000 0.000000 0.000000 0.000000 0.032282 0.000000
# 6 0.000000 0.000000 0.000000 0.000000 0.000000 0.046412
#
#
# Mechanical properties :
#
#
# Convention : Reuss Voigt Hill
#
# Bulk Modulus (GPa) = 26.43021 71.65789 49.04405
# Shear Modulus (GPa) = 21.31562 28.18187 24.74875
#
# Velocity S-wave (km/s) = 3.45521 3.97292 3.72308
# Velocity P-wave (km/s) = 5.54265 7.82175 6.77867
#
# Compressibility (1/GPa) = 0.03783549
#
# Stress axis : x y z
#
# Youngs Moduli (GPa) = 21.78873 63.65401 102.49125
#
# Poissons Ratio (x) = 0.34797 0.38366
# Poissons Ratio (y) = 0.11911 0.77416
# Poissons Ratio (z) = 0.08156 0.48080
#
# Static dielectric constant tensor:
#      x y z
#    x 1.615170 0.000000 0.000000 
#    y 0.000000 1.610010 0.000000 
#    z 0.000000 0.000000 1.582620 
# 
# From -- ./inp_files/37087.got.cif
#   From: 2010.05.17/outbox.cif.g08.bks.cpg/sg64_19_cif.got.tgz:37087.got - 2010.06.03 16:29:19.
