data_PCOD9478773
_publ_section_title
;
Structure prediction by ZEFSAII (Michael W. Deem and Ramdas Pophale) SiO2 
 PCOD9478773
Probable space group: C M C A
;
_chemical_formula_sum "Si O2"
_cell_formula_units_Z 96
_cell_length_a 8.718291
_cell_length_b 19.909462
_cell_length_c 31.399886
_cell_angle_alpha 90.000000
_cell_angle_beta 90.000000
_cell_angle_gamma 90.000000
_cell_volume 5450.281790
_symmetry_space_group_name_H-M "C M C A"
_symmetry_group_IT_number 64
_symmetry_cell_setting 'orthorhombic'
loop_
_space_group_symop_operation_xyz
x,y,z
-x,1/2-y,1/2+z
x,-y,-z
-x,1/2+y,1/2-z
-x,-y,-z
x,1/2+y,1/2-z
-x,y,z
x,1/2-y,1/2+z
1/2+x,1/2+y,z
1/2-x,-y,1/2+z
1/2+x,1/2-y,-z
1/2-x,y,1/2-z
1/2-x,1/2-y,-z
1/2+x,y,1/2-z
1/2-x,1/2+y,z
1/2+x,-y,1/2+z
loop_
_atom_site_type_symbol
_atom_site_label
_atom_site_fract_x
_atom_site_fract_y
_atom_site_fract_z
Si Si1 0.314185 0.654299 0.608580
Si Si2 0.816486 0.600122 0.432442
Si Si3 0.684533 0.005784 0.870864
Si Si4 0.815279 0.678321 0.514910
Si Si5 0.816009 0.703637 0.356717
Si Si6 0.316544 0.594802 0.296828
O O1 0.500000 0.655664 0.605752
O O2 0.266002 0.583038 0.628114
O O3 0.247692 0.661238 0.561285
O O4 0.267919 0.719757 0.635607
O O5 0.741333 0.534250 0.412435
O O6 0.768967 0.623290 0.479378
O O7 0.780914 0.661082 0.399639
O O8 0.000000 0.591206 0.432307
O O9 0.500000 0.004431 0.870787
O O10 0.737197 0.963405 0.829686
O O11 0.750000 0.750000 0.500000
O O12 0.000000 0.681699 0.515386
O O13 0.737509 0.664440 0.318183
O O14 0.000000 0.701472 0.350852
O O15 0.500000 0.593265 0.295046
O O16 0.250000 0.586206 0.250000
#
# Coordination Sequence:
#
# PCOD9478773 Si02
#       6
#    16  16  16  16  16  16
#     4  10  20  36  54  77 110 144 178 219 270 316
#     4   9  18  33  51  73 103 142 183 221 262 304
#     4   9  20  36  55  78 107 142 177 216 264 320
#     4  11  21  33  51  77 107 144 188 230 268 309
#     4   9  17  33  55  76 103 138 172 214 262 310
#     4  10  20  36  58  83 104 132 173 214 262 321
#
# _framework density 17.613769000000001
#
# number of rings (size 3 to 8) (size 9 to 14) (size 15 to 20)
#    0.000    2.333    1.667    1.000    0.000    4.000 
#    0.000    4.167    0.000    2.000    0.000    0.000 
#    0.000    0.000    0.000    0.000    0.000    0.000 
#
# Total GULP energy -267798.915196 kJ/mol
# GULP energy per Si atom -5579.144067 kJ/mol
# Density = 1.757368 g / cm^3
# Si number density = 17.613769 Si / 1000 Ang^3
#
#
#
# Elastic Constant Matrix: (Units=GPa)
#
#
# Indices 1 2 3 4 5 6 
#
# 1 14.4126 28.8630 24.3249 0.0000 0.0000 0.0000
# 2 28.8630 149.3308 59.3084 0.0000 0.0000 0.0000
# 3 24.3249 59.3084 109.8368 0.0000 0.0000 0.0000
# 4 0.0000 0.0000 0.0000 15.6005 0.0000 0.0000
# 5 0.0000 0.0000 0.0000 0.0000 30.0543 0.0000
# 6 0.0000 0.0000 0.0000 0.0000 0.0000 22.7906
#
#
#
# Elastic Compliance Matrix: (Units=1/GPa)
#
#
# Indices 1 2 3 4 5 6 
#
# 1 0.144577 -0.019385 -0.021552 0.000000 0.000000 0.000000
# 2 -0.019385 0.011124 -0.001713 0.000000 0.000000 0.000000
# 3 -0.021552 -0.001713 0.014803 0.000000 0.000000 0.000000
# 4 0.000000 0.000000 0.000000 0.064100 0.000000 0.000000
# 5 0.000000 0.000000 0.000000 0.000000 0.033273 0.000000
# 6 0.000000 0.000000 0.000000 0.000000 0.000000 0.043878
#
#
# Mechanical properties :
#
#
# Convention : Reuss Voigt Hill
#
# Bulk Modulus (GPa) = 11.73652 55.39699 33.56675
# Shear Modulus (GPa) = 11.75210 24.42801 18.09006
#
# Velocity S-wave (km/s) = 2.58584 3.72811 3.20822
# Velocity P-wave (km/s) = 3.94882 7.07467 5.72906
#
# Compressibility (1/GPa) = 0.08520413
#
# Stress axis : x y z
#
# Youngs Moduli (GPa) = 6.91671 89.89742 67.55598
#
# Poissons Ratio (x) = 1.74264 1.45594
# Poissons Ratio (y) = 0.13408 0.11575
# Poissons Ratio (z) = 0.14907 0.15404
#
# Static dielectric constant tensor:
#      x y z
#    x 1.597210 0.000000 0.000000 
#    y 0.000000 1.607410 0.000000 
#    z 0.000000 0.000000 1.574890 
# 
# From -- ./inp_files/48112.got.cif
#   From: 2010.05.17/outbox.cif.g08.bks.cpg/sg64_25_cif.got.tgz:48112.got - 2010.06.03 16:29:19.
