data_PCOD9478360
_publ_section_title
;
Structure prediction by ZEFSAII (Michael W. Deem and Ramdas Pophale) SiO2 
 PCOD9478360
Probable space group: C M C A
;
_chemical_formula_sum "Si O2"
_cell_formula_units_Z 80
_cell_length_a 17.271197
_cell_length_b 25.430345
_cell_length_c 7.643193
_cell_angle_alpha 90.000000
_cell_angle_beta 90.000000
_cell_angle_gamma 90.000000
_cell_volume 3356.985892
_symmetry_space_group_name_H-M "C M C A"
_symmetry_group_IT_number 64
_symmetry_cell_setting 'orthorhombic'
loop_
_space_group_symop_operation_xyz
x,y,z
-x,1/2-y,1/2+z
x,-y,-z
-x,1/2+y,1/2-z
-x,-y,-z
x,1/2+y,1/2-z
-x,y,z
x,1/2-y,1/2+z
1/2+x,1/2+y,z
1/2-x,-y,1/2+z
1/2+x,1/2-y,-z
1/2-x,y,1/2-z
1/2-x,1/2-y,-z
1/2+x,y,1/2-z
1/2-x,1/2+y,z
1/2+x,-y,1/2+z
loop_
_atom_site_type_symbol
_atom_site_label
_atom_site_fract_x
_atom_site_fract_y
_atom_site_fract_z
Si Si1 0.412043 0.075488 0.682940
Si Si2 0.666073 0.475797 0.695687
Si Si3 0.409519 0.814678 0.381933
Si Si4 0.087538 0.624385 0.079147
Si Si5 0.167437 0.276364 0.039050
O O1 0.500000 0.059025 0.648242
O O2 0.391154 0.125532 0.564581
O O3 0.358962 0.024792 0.684690
O O4 0.410411 0.101045 0.879408
O O5 0.667741 0.500000 0.500000
O O6 0.750000 0.456865 0.750000
O O7 0.609247 0.426301 0.692844
O O8 0.500000 0.814607 0.325730
O O9 0.395803 0.769847 0.522083
O O10 0.348635 0.798922 0.231319
O O11 0.145263 0.674030 0.084044
O O12 0.000000 0.642216 0.115325
O O13 0.250000 0.250000 0.000000
#
# Coordination Sequence:
#
# PCOD9478360 Si02
#       5
#    16  16  16  16  16
#     4   8  16  32  55  78  99 133 182 226 261 310
#     4  10  20  33  54  81 108 137 173 222 274 319
#     4  10  20  36  56  78 108 146 186 224 270 333
#     4   9  18  35  56  76 103 143 188 221 255 321
#     4  11  22  35  54  82 112 142 179 228 278 321
#
# _framework density 23.830901000000001
#
# number of rings (size 3 to 8) (size 9 to 14) (size 15 to 20)
#    0.000    2.400    0.000    4.200    0.000    8.800 
#    0.000    0.000    0.000    4.800    0.000    0.000 
#    0.000    0.000    0.000    0.000    0.000    0.000 
#
# Total GULP energy -223467.455411 kJ/mol
# GULP energy per Si atom -5586.686385 kJ/mol
# Density = 2.377666 g / cm^3
# Si number density = 23.830901 Si / 1000 Ang^3
#
#
#
# Elastic Constant Matrix: (Units=GPa)
#
#
# Indices 1 2 3 4 5 6 
#
# 1 113.4666 55.1595 10.2020 0.0000 0.0000 0.0000
# 2 55.1595 133.6322 24.7757 0.0000 0.0000 0.0000
# 3 10.2020 24.7757 35.9718 0.0000 0.0000 0.0000
# 4 0.0000 0.0000 0.0000 19.5288 0.0000 0.0000
# 5 0.0000 0.0000 0.0000 0.0000 21.1309 0.0000
# 6 0.0000 0.0000 0.0000 0.0000 0.0000 40.9487
#
#
#
# Elastic Compliance Matrix: (Units=1/GPa)
#
#
# Indices 1 2 3 4 5 6 
#
# 1 0.011026 -0.004553 0.000009 0.000000 0.000000 0.000000
# 2 -0.004553 0.010459 -0.005912 0.000000 0.000000 0.000000
# 3 0.000009 -0.005912 0.031869 0.000000 0.000000 0.000000
# 4 0.000000 0.000000 0.000000 0.051206 0.000000 0.000000
# 5 0.000000 0.000000 0.000000 0.000000 0.047324 0.000000
# 6 0.000000 0.000000 0.000000 0.000000 0.000000 0.024421
#
#
# Mechanical properties :
#
#
# Convention : Reuss Voigt Hill
#
# Bulk Modulus (GPa) = 30.82523 51.48278 41.15401
# Shear Modulus (GPa) = 24.03494 29.18391 26.60943
#
# Velocity S-wave (km/s) = 3.17923 3.50326 3.34517
# Velocity P-wave (km/s) = 5.14196 6.16555 5.67687
#
# Compressibility (1/GPa) = 0.03244096
#
# Stress axis : x y z
#
# Youngs Moduli (GPa) = 90.69827 95.61540 31.37830
#
# Poissons Ratio (x) = 0.43530 -0.00027
# Poissons Ratio (y) = 0.41292 0.18552
# Poissons Ratio (z) = -0.00079 0.56530
#
# Static dielectric constant tensor:
#      x y z
#    x 1.848470 0.000000 0.000000 
#    y 0.000000 1.896300 0.000000 
#    z 0.000000 0.000000 2.062710 
# 
# From -- ./inp_files/14411.got.cif
#   From: 2010.05.17/outbox.cif.g08.bks.cpg/sg64_8_cif.got.tgz:14411.got - 2010.06.03 16:29:19.
