data_PCOD9479629
_publ_section_title
;
Structure prediction by ZEFSAII (Michael W. Deem and Ramdas Pophale) SiO2 
 PCOD9479629
Probable space group: C M C A
;
_chemical_formula_sum "Si O2"
_cell_formula_units_Z 80
_cell_length_a 24.022729
_cell_length_b 15.001778
_cell_length_c 11.135556
_cell_angle_alpha 90.000000
_cell_angle_beta 90.000000
_cell_angle_gamma 90.000000
_cell_volume 4013.072287
_symmetry_space_group_name_H-M "C M C A"
_symmetry_group_IT_number 64
_symmetry_cell_setting 'orthorhombic'
loop_
_space_group_symop_operation_xyz
x,y,z
-x,1/2-y,1/2+z
x,-y,-z
-x,1/2+y,1/2-z
-x,-y,-z
x,1/2+y,1/2-z
-x,y,z
x,1/2-y,1/2+z
1/2+x,1/2+y,z
1/2-x,-y,1/2+z
1/2+x,1/2-y,-z
1/2-x,y,1/2-z
1/2-x,1/2-y,-z
1/2+x,y,1/2-z
1/2-x,1/2+y,z
1/2+x,-y,1/2+z
loop_
_atom_site_type_symbol
_atom_site_label
_atom_site_fract_x
_atom_site_fract_y
_atom_site_fract_z
Si Si1 0.157107 0.873475 0.263889
Si Si2 0.363119 0.817300 0.841160
Si Si3 0.693472 0.058627 0.331829
Si Si4 0.435518 0.895679 0.032487
Si Si5 0.734146 0.647852 0.516135
O O1 0.150904 0.785897 0.181879
O O2 0.104538 0.874968 0.354802
O O3 0.211088 0.868300 0.351555
O O4 0.164148 0.964381 0.190510
O O5 0.350098 0.867232 0.716594
O O6 0.419096 0.837867 0.914208
O O7 0.319094 0.863932 0.930807
O O8 0.750000 0.061156 0.250000
O O9 0.716847 0.089103 0.460666
O O10 0.500000 0.881465 0.063053
O O11 0.427451 0.000000 0.000000
O O12 0.750000 0.750000 0.500000
#
# Coordination Sequence:
#
# PCOD9479629 Si02
#       5
#    16  16  16  16  16
#     4  11  22  38  59  86 124 158 202 250 302 367
#     4  10  21  37  56  87 114 153 205 246 296 372
#     4  10  21  34  54  85 121 159 201 234 292 354
#     4  10  21  40  64  86 112 152 204 265 316 363
#     4  10  21  36  55  82 122 162 195 238 293 362
#
# _framework density 19.934851999999999
#
# number of rings (size 3 to 8) (size 9 to 14) (size 15 to 20)
#    0.000    1.800    4.000    0.000    2.800    0.800 
#    0.000    0.000    0.000    0.000    0.000    1.400 
#    0.000    0.000    0.000    0.000    0.000    0.000 
#
# Total GULP energy -223247.529657 kJ/mol
# GULP energy per Si atom -5581.188241 kJ/mol
# Density = 1.988948 g / cm^3
# Si number density = 19.934852 Si / 1000 Ang^3
#
#
#
# Elastic Constant Matrix: (Units=GPa)
#
#
# Indices 1 2 3 4 5 6 
#
# 1 90.2070 27.1608 56.3538 0.0000 0.0000 0.0000
# 2 27.1608 132.7775 31.5856 0.0000 0.0000 0.0000
# 3 56.3538 31.5856 73.3051 0.0000 0.0000 0.0000
# 4 0.0000 0.0000 0.0000 33.4449 0.0000 0.0000
# 5 0.0000 0.0000 0.0000 0.0000 28.7356 0.0000
# 6 0.0000 0.0000 0.0000 0.0000 0.0000 23.5336
#
#
#
# Elastic Compliance Matrix: (Units=1/GPa)
#
#
# Indices 1 2 3 4 5 6 
#
# 1 0.021361 -0.000516 -0.016199 0.000000 0.000000 0.000000
# 2 -0.000516 0.008404 -0.003224 0.000000 0.000000 0.000000
# 3 -0.016199 -0.003224 0.027484 0.000000 0.000000 0.000000
# 4 0.000000 0.000000 0.000000 0.029900 0.000000 0.000000
# 5 0.000000 0.000000 0.000000 0.000000 0.034800 0.000000
# 6 0.000000 0.000000 0.000000 0.000000 0.000000 0.042492
#
#
# Mechanical properties :
#
#
# Convention : Reuss Voigt Hill
#
# Bulk Modulus (GPa) = 57.57037 58.49888 58.03463
# Shear Modulus (GPa) = 23.79714 29.22210 26.50962
#
# Velocity S-wave (km/s) = 3.45881 3.83284 3.65062
# Velocity P-wave (km/s) = 6.70023 6.99973 6.85162
#
# Compressibility (1/GPa) = 0.01737005
#
# Stress axis : x y z
#
# Youngs Moduli (GPa) = 46.81512 118.99114 36.38508
#
# Poissons Ratio (x) = 0.06141 0.58939
# Poissons Ratio (y) = 0.02416 0.11732
# Poissons Ratio (z) = 0.75835 0.38367
#
# Static dielectric constant tensor:
#      x y z
#    x 1.741920 0.000000 0.000000 
#    y 0.000000 1.707950 0.000000 
#    z 0.000000 0.000000 1.775760 
# 
# From -- ./inp_files/18058.got.cif
#   From: 2010.05.17/outbox.cif.g08.bks.cpg/sg64_10_cif.got.tgz:18058.got - 2010.06.03 16:29:19.
