data_PCOD9479106
_publ_section_title
;
Structure prediction by ZEFSAII (Michael W. Deem and Ramdas Pophale) SiO2 
 PCOD9479106
Probable space group: C M C A
;
_chemical_formula_sum "Si O2"
_cell_formula_units_Z 112
_cell_length_a 25.760843
_cell_length_b 13.216806
_cell_length_c 16.264979
_cell_angle_alpha 90.000000
_cell_angle_beta 90.000000
_cell_angle_gamma 90.000000
_cell_volume 5537.836036
_symmetry_space_group_name_H-M "C M C A"
_symmetry_group_IT_number 64
_symmetry_cell_setting 'orthorhombic'
loop_
_space_group_symop_operation_xyz
x,y,z
-x,1/2-y,1/2+z
x,-y,-z
-x,1/2+y,1/2-z
-x,-y,-z
x,1/2+y,1/2-z
-x,y,z
x,1/2-y,1/2+z
1/2+x,1/2+y,z
1/2-x,-y,1/2+z
1/2+x,1/2-y,-z
1/2-x,y,1/2-z
1/2-x,1/2-y,-z
1/2+x,y,1/2-z
1/2-x,1/2+y,z
1/2+x,-y,1/2+z
loop_
_atom_site_type_symbol
_atom_site_label
_atom_site_fract_x
_atom_site_fract_y
_atom_site_fract_z
Si Si1 0.747841 0.815625 0.656025
Si Si2 0.131888 0.624794 0.393665
Si Si3 0.334142 0.207672 0.562075
Si Si4 0.295486 0.032107 0.813213
Si Si5 0.887807 0.576025 0.694943
Si Si6 0.560414 0.815531 0.159219
Si Si7 0.359100 0.103559 0.954421
O O1 0.750000 0.778468 0.750000
O O2 0.688402 0.848202 0.643478
O O3 0.776353 0.740552 0.591910
O O4 0.779389 0.922281 0.652890
O O5 0.149572 0.628982 0.489842
O O6 0.105297 0.519517 0.366128
O O7 0.093917 0.713988 0.360372
O O8 0.360954 0.165019 0.643142
O O9 0.356233 0.308350 0.520529
O O10 0.250000 0.061110 0.750000
O O11 0.346907 0.028495 0.758822
O O12 0.312826 0.106556 0.886565
O O13 0.930144 0.631787 0.751911
O O14 0.500000 0.797184 0.146541
O O15 0.586628 0.890926 0.093504
O O16 0.352884 0.000000 0.000000
#
# Coordination Sequence:
#
# PCOD9479106 Si02
#       7
#    16  16  16  16  16  16  16
#     4  11  20  38  61  92 133 178 218 257 326 400
#     4  11  23  43  62  95 135 175 215 282 336 407
#     4  11  24  39  62  99 139 176 225 266 331 412
#     4  10  20  37  61  89 131 177 209 256 323 388
#     4  11  23  40  66  92 133 171 222 272 336 401
#     4  10  25  45  69  96 123 168 231 284 336 402
#     4  10  21  41  68  96 135 174 218 280 331 392
#
# _framework density 20.224506000000002
#
# number of rings (size 3 to 8) (size 9 to 14) (size 15 to 20)
#    0.000    1.429    4.286    1.714    0.000    6.000 
#    2.571    2.857    0.000    4.286    0.000    0.000 
#    0.000    0.000    0.000    0.000    0.000    0.000 
#
# Total GULP energy -311920.677617 kJ/mol
# GULP energy per Si atom -5570.012100 kJ/mol
# Density = 2.017847 g / cm^3
# Si number density = 20.224506 Si / 1000 Ang^3
#
#
#
# Elastic Constant Matrix: (Units=GPa)
#
#
# Indices 1 2 3 4 5 6 
#
# 1 108.5125 31.0353 59.3939 0.0000 0.0000 0.0000
# 2 31.0353 75.9224 30.0568 0.0000 0.0000 0.0000
# 3 59.3939 30.0568 77.1897 0.0000 0.0000 0.0000
# 4 0.0000 0.0000 0.0000 -11.0005 0.0000 0.0000
# 5 0.0000 0.0000 0.0000 0.0000 15.7817 0.0000
# 6 0.0000 0.0000 0.0000 0.0000 0.0000 -24.7207
#
#
#
# Elastic Compliance Matrix: (Units=1/GPa)
#
#
# Indices 1 2 3 4 5 6 
#
# 1 0.016171 -0.001991 -0.011668 0.000000 0.000000 0.000000
# 2 -0.001991 0.015817 -0.004627 0.000000 0.000000 0.000000
# 3 -0.011668 -0.004627 0.023734 0.000000 0.000000 0.000000
# 4 0.000000 0.000000 0.000000 -0.090905 0.000000 0.000000
# 5 0.000000 0.000000 0.000000 0.000000 0.063364 0.000000
# 6 0.000000 0.000000 0.000000 0.000000 0.000000 -0.040452
#
#
# Mechanical properties :
#
#
# Convention : Reuss Voigt Hill
#
# Bulk Modulus (GPa) = 52.21583 55.84408 54.02995
# Shear Modulus (GPa) = 162.94375 5.42135 84.18255
#
# Velocity S-wave (km/s) = 8.98568 1.63903 6.45867
# Velocity P-wave (km/s) = 11.55555 5.59052 9.07702
#
# Compressibility (1/GPa) = 0.01915128
#
# Stress axis : x y z
#
# Youngs Moduli (GPa) = 61.83782 63.22306 42.13287
#
# Poissons Ratio (x) = 0.12590 0.49159
# Poissons Ratio (y) = 0.12314 0.19494
# Poissons Ratio (z) = 0.72150 0.29251
#
# Static dielectric constant tensor:
#      x y z
#    x 1.675250 0.000000 0.000000 
#    y 0.000000 1.781540 0.000000 
#    z 0.000000 0.000000 1.849380 
# 
# From -- ./inp_files/27397.got.cif
#   From: 2010.05.17/outbox.cif.g08.bks.cpg/sg64_14_cif.got.tgz:27397.got - 2010.06.03 16:29:19.
