data_PCOD9479726
_publ_section_title
;
Structure prediction by ZEFSAII (Michael W. Deem and Ramdas Pophale) SiO2 
 PCOD9479726
Probable space group: C M C A
;
_chemical_formula_sum "Si O2"
_cell_formula_units_Z 56
_cell_length_a 19.280386
_cell_length_b 26.106678
_cell_length_c 5.168080
_cell_angle_alpha 90.000000
_cell_angle_beta 90.000000
_cell_angle_gamma 90.000000
_cell_volume 2601.336680
_symmetry_space_group_name_H-M "C M C A"
_symmetry_group_IT_number 64
_symmetry_cell_setting 'orthorhombic'
loop_
_space_group_symop_operation_xyz
x,y,z
-x,1/2-y,1/2+z
x,-y,-z
-x,1/2+y,1/2-z
-x,-y,-z
x,1/2+y,1/2-z
-x,y,z
x,1/2-y,1/2+z
1/2+x,1/2+y,z
1/2-x,-y,1/2+z
1/2+x,1/2-y,-z
1/2-x,y,1/2-z
1/2-x,1/2-y,-z
1/2+x,y,1/2-z
1/2-x,1/2+y,z
1/2+x,-y,1/2+z
loop_
_atom_site_type_symbol
_atom_site_label
_atom_site_fract_x
_atom_site_fract_y
_atom_site_fract_z
Si Si1 0.500000 0.213668 0.735600
Si Si2 0.921944 0.862822 0.547222
Si Si3 0.825524 0.714799 0.305380
Si Si4 0.296796 0.439115 0.498390
O O1 0.500000 0.256450 0.966476
O O2 0.562925 0.175158 0.805146
O O3 0.884415 0.826368 0.752965
O O4 0.868320 0.907815 0.492218
O O5 0.000000 0.879088 0.628367
O O6 0.829132 0.741853 0.581509
O O7 0.750000 0.690680 0.250000
O O8 0.311531 0.500000 0.500000
O O9 0.250000 0.428558 0.750000
O O10 0.250000 0.426400 0.250000
#
# Coordination Sequence:
#
# PCOD9479726 Si02
#       4
#     8  16  16  16
#     4  10  22  38  57  88 129 168 202 246 306 362
#     4  10  23  39  64  95 123 173 203 269 308 389
#     4  10  21  36  55  83 120 162 207 251 297 361
#     4  10  23  45  69  93 125 163 210 268 325 381
#
# _framework density 21.527393
#
# number of rings (size 3 to 8) (size 9 to 14) (size 15 to 20)
#    0.857    1.143    0.000    2.571    0.000    8.571 
#    0.000    0.000    0.000    5.143    0.000    0.000 
#    0.000    0.000    0.000    0.000    0.000    0.000 
#
# Total GULP energy -156457.249381 kJ/mol
# GULP energy per Si atom -5587.758906 kJ/mol
# Density = 2.147840 g / cm^3
# Si number density = 21.527393 Si / 1000 Ang^3
#
#
#
# Elastic Constant Matrix: (Units=GPa)
#
#
# Indices 1 2 3 4 5 6 
#
# 1 221.0818 95.6710 51.7029 0.0000 0.0000 0.0000
# 2 95.6710 117.7787 37.6499 0.0000 0.0000 0.0000
# 3 51.7029 37.6499 127.1605 0.0000 0.0000 0.0000
# 4 0.0000 0.0000 0.0000 -5.6380 0.0000 0.0000
# 5 0.0000 0.0000 0.0000 0.0000 14.4885 0.0000
# 6 0.0000 0.0000 0.0000 0.0000 0.0000 64.9049
#
#
#
# Elastic Compliance Matrix: (Units=1/GPa)
#
#
# Indices 1 2 3 4 5 6 
#
# 1 0.007169 -0.005403 -0.001315 0.000000 0.000000 0.000000
# 2 -0.005403 0.013450 -0.001786 0.000000 0.000000 0.000000
# 3 -0.001315 -0.001786 0.008927 0.000000 0.000000 0.000000
# 4 0.000000 0.000000 0.000000 -0.177369 0.000000 0.000000
# 5 0.000000 0.000000 0.000000 0.000000 0.069020 0.000000
# 6 0.000000 0.000000 0.000000 0.000000 0.000000 0.015407
#
#
# Mechanical properties :
#
#
# Convention : Reuss Voigt Hill
#
# Bulk Modulus (GPa) = 79.74926 92.89652 86.32289
# Shear Modulus (GPa) = -118.45992 33.48423 -42.48784
#
# Velocity S-wave (km/s) = -7.42610 3.94817 -4.44741
# Velocity P-wave (km/s) = 6.03352 8.00190 3.71665
#
# Compressibility (1/GPa) = 0.01253930
#
# Stress axis : x y z
#
# Youngs Moduli (GPa) = 139.49423 74.35011 112.01383
#
# Poissons Ratio (x) = 0.40169 0.14731
# Poissons Ratio (y) = 0.75365 0.20000
# Poissons Ratio (z) = 0.18345 0.13275
#
# Static dielectric constant tensor:
#      x y z
#    x 1.885430 0.000000 0.000000 
#    y 0.000000 1.767870 0.000000 
#    z 0.000000 0.000000 1.879740 
# 
# From -- ./inp_files/1624.got.cif
#   From: 2010.05.17/outbox.cif.g08.bks.cpg/sg64_1_cif.got.tgz:1624.got - 2010.06.03 16:29:19.
