data_PCOD9479002
_publ_section_title
;
Structure prediction by ZEFSAII (Michael W. Deem and Ramdas Pophale) SiO2 
 PCOD9479002
Probable space group: C M C A
;
_chemical_formula_sum "Si O2"
_cell_formula_units_Z 88
_cell_length_a 8.062446
_cell_length_b 24.615108
_cell_length_c 20.133944
_cell_angle_alpha 90.000000
_cell_angle_beta 90.000000
_cell_angle_gamma 90.000000
_cell_volume 3995.741836
_symmetry_space_group_name_H-M "C M C A"
_symmetry_group_IT_number 64
_symmetry_cell_setting 'orthorhombic'
loop_
_space_group_symop_operation_xyz
x,y,z
-x,1/2-y,1/2+z
x,-y,-z
-x,1/2+y,1/2-z
-x,-y,-z
x,1/2+y,1/2-z
-x,y,z
x,1/2-y,1/2+z
1/2+x,1/2+y,z
1/2-x,-y,1/2+z
1/2+x,1/2-y,-z
1/2-x,y,1/2-z
1/2-x,1/2-y,-z
1/2+x,y,1/2-z
1/2-x,1/2+y,z
1/2+x,-y,1/2+z
loop_
_atom_site_type_symbol
_atom_site_label
_atom_site_fract_x
_atom_site_fract_y
_atom_site_fract_z
Si Si1 0.802764 0.587750 0.972836
Si Si2 0.801773 0.021368 0.850400
Si Si3 0.194744 0.097972 0.123375
Si Si4 0.750000 0.392706 0.250000
Si Si5 0.191789 0.712921 0.174150
Si Si6 0.692097 0.823455 0.135487
O O1 0.727344 0.541327 0.925637
O O2 0.776731 0.643848 0.931947
O O3 0.000000 0.578816 0.979227
O O4 0.724694 0.591288 0.044983
O O5 0.695196 0.061671 0.804292
O O6 0.000000 0.028120 0.835281
O O7 0.752064 0.958859 0.843457
O O8 0.281044 0.152040 0.148892
O O9 0.000000 0.104053 0.136546
O O10 0.805882 0.349184 0.306198
O O11 0.250000 0.716530 0.250000
O O12 0.284566 0.759288 0.132357
O O13 0.000000 0.726265 0.170424
O O14 0.500000 0.834494 0.155972
#
# Coordination Sequence:
#
# PCOD9479002 Si02
#       6
#    16  16  16   8  16  16
#     4  10  22  40  64  95 127 164 209 258 311 367
#     4  10  22  39  62  93 127 166 210 258 309 366
#     4  11  24  42  63  90 128 170 211 255 307 371
#     4  10  20  36  64  94 122 158 206 258 312 368
#     4  12  26  43  65  91 125 164 205 255 311 371
#     4  10  21  39  64  92 123 158 205 258 309 367
#
# _framework density 22.023444999999999
#
# number of rings (size 3 to 8) (size 9 to 14) (size 15 to 20)
#    0.000    1.455    0.909    3.818    1.273    8.727 
#    0.000    0.000    0.000    0.000    0.000    0.000 
#    0.000    0.000    0.000    0.000    0.000    0.000 
#
# Total GULP energy -245436.210786 kJ/mol
# GULP energy per Si atom -5578.095700 kJ/mol
# Density = 2.197332 g / cm^3
# Si number density = 22.023445 Si / 1000 Ang^3
#
#
#
# Elastic Constant Matrix: (Units=GPa)
#
#
# Indices 1 2 3 4 5 6 
#
# 1 64.4156 23.2726 -2.4036 0.0000 0.0000 0.0000
# 2 23.2726 162.9540 5.3201 0.0000 0.0000 0.0000
# 3 -2.4036 5.3201 22.0241 0.0000 0.0000 0.0000
# 4 0.0000 0.0000 0.0000 18.4152 0.0000 0.0000
# 5 0.0000 0.0000 0.0000 0.0000 13.6304 0.0000
# 6 0.0000 0.0000 0.0000 0.0000 0.0000 20.2740
#
#
#
# Elastic Compliance Matrix: (Units=1/GPa)
#
#
# Indices 1 2 3 4 5 6 
#
# 1 0.016492 -0.002433 0.002388 0.000000 0.000000 0.000000
# 2 -0.002433 0.006545 -0.001846 0.000000 0.000000 0.000000
# 3 0.002388 -0.001846 0.046111 0.000000 0.000000 0.000000
# 4 0.000000 0.000000 0.000000 0.054303 0.000000 0.000000
# 5 0.000000 0.000000 0.000000 0.000000 0.073365 0.000000
# 6 0.000000 0.000000 0.000000 0.000000 0.000000 0.049324
#
#
# Mechanical properties :
#
#
# Convention : Reuss Voigt Hill
#
# Bulk Modulus (GPa) = 15.29891 33.53021 24.41456
# Shear Modulus (GPa) = 18.40176 25.34424 21.87300
#
# Velocity S-wave (km/s) = 2.89373 3.39600 3.15488
# Velocity P-wave (km/s) = 4.25754 5.53488 4.93769
#
# Compressibility (1/GPa) = 0.06536415
#
# Stress axis : x y z
#
# Youngs Moduli (GPa) = 60.63394 152.79995 21.68660
#
# Poissons Ratio (x) = 0.37182 -0.05178
# Poissons Ratio (y) = 0.14754 0.04004
# Poissons Ratio (z) = -0.14478 0.28214
#
# Static dielectric constant tensor:
#      x y z
#    x 1.873520 0.000000 0.000000 
#    y 0.000000 1.806840 0.000000 
#    z 0.000000 0.000000 1.777790 
# 
# From -- ./inp_files/36771.got.cif
#   From: 2010.05.17/outbox.cif.g08.bks.cpg/sg64_19_cif.got.tgz:36771.got - 2010.06.03 16:29:19.
