data_PCOD9479662
_publ_section_title
;
Structure prediction by ZEFSAII (Michael W. Deem and Ramdas Pophale) SiO2 
 PCOD9479662
Probable space group: C M C A
;
_chemical_formula_sum "Si O2"
_cell_formula_units_Z 96
_cell_length_a 8.677022
_cell_length_b 20.604563
_cell_length_c 28.474188
_cell_angle_alpha 90.000000
_cell_angle_beta 90.000000
_cell_angle_gamma 90.000000
_cell_volume 5090.793193
_symmetry_space_group_name_H-M "C M C A"
_symmetry_group_IT_number 64
_symmetry_cell_setting 'orthorhombic'
loop_
_space_group_symop_operation_xyz
x,y,z
-x,1/2-y,1/2+z
x,-y,-z
-x,1/2+y,1/2-z
-x,-y,-z
x,1/2+y,1/2-z
-x,y,z
x,1/2-y,1/2+z
1/2+x,1/2+y,z
1/2-x,-y,1/2+z
1/2+x,1/2-y,-z
1/2-x,y,1/2-z
1/2-x,1/2-y,-z
1/2+x,y,1/2-z
1/2-x,1/2+y,z
1/2+x,-y,1/2+z
loop_
_atom_site_type_symbol
_atom_site_label
_atom_site_fract_x
_atom_site_fract_y
_atom_site_fract_z
Si Si1 0.685719 0.062219 0.061481
Si Si2 0.814296 0.412741 0.043722
Si Si3 0.185441 0.036724 0.800459
Si Si4 0.684800 0.739186 0.199069
Si Si5 0.684383 0.153154 0.630891
Si Si6 0.185835 0.600881 0.340253
O O1 0.500000 0.064048 0.064596
O O2 0.756711 0.096969 0.106333
O O3 0.731211 0.985906 0.059848
O O4 0.729919 0.092143 0.011039
O O5 0.742228 0.360302 0.078380
O O6 0.000000 0.409415 0.046411
O O7 0.250000 0.055202 0.750000
O O8 0.230969 0.089390 0.839169
O O9 0.000000 0.035843 0.798420
O O10 0.240312 0.964913 0.814818
O O11 0.500000 0.741413 0.200922
O O12 0.750000 0.758224 0.250000
O O13 0.743740 0.786357 0.158158
O O14 0.735746 0.665942 0.186220
O O15 0.500000 0.158590 0.631440
O O16 0.000000 0.600134 0.340504
#
# Coordination Sequence:
#
# PCOD9479662 Si02
#       6
#    16  16  16  16  16  16
#     4   9  18  33  57  87 117 149 185 230 283 340
#     4   9  18  34  56  86 119 149 185 230 285 339
#     4  10  21  35  53  80 109 139 181 232 280 329
#     4  11  24  41  60  81 113 154 192 234 283 339
#     4  11  22  37  58  84 114 149 191 235 282 338
#     4  10  21  38  57  82 114 147 187 234 283 335
#
# _framework density 18.857572000000001
#
# number of rings (size 3 to 8) (size 9 to 14) (size 15 to 20)
#    0.000    2.000    1.667    3.000    0.000    5.333 
#    0.000    2.500    0.000    0.000    0.000    0.000 
#    0.000    0.000    0.000    0.000    0.000    0.000 
#
# Total GULP energy -268048.439475 kJ/mol
# GULP energy per Si atom -5584.342489 kJ/mol
# Density = 1.881465 g / cm^3
# Si number density = 18.857572 Si / 1000 Ang^3
#
#
#
# Elastic Constant Matrix: (Units=GPa)
#
#
# Indices 1 2 3 4 5 6 
#
# 1 10.2140 6.0681 1.8851 0.0000 0.0000 0.0000
# 2 6.0681 36.6436 -18.1281 0.0000 0.0000 0.0000
# 3 1.8851 -18.1281 66.2471 0.0000 0.0000 0.0000
# 4 0.0000 0.0000 0.0000 29.5384 0.0000 0.0000
# 5 0.0000 0.0000 0.0000 0.0000 36.7419 0.0000
# 6 0.0000 0.0000 0.0000 0.0000 0.0000 18.5137
#
#
#
# Elastic Compliance Matrix: (Units=1/GPa)
#
#
# Indices 1 2 3 4 5 6 
#
# 1 0.113737 -0.023635 -0.009704 0.000000 0.000000 0.000000
# 2 -0.023635 0.036474 0.010654 0.000000 0.000000 0.000000
# 3 -0.009704 0.010654 0.018286 0.000000 0.000000 0.000000
# 4 0.000000 0.000000 0.000000 0.033854 0.000000 0.000000
# 5 0.000000 0.000000 0.000000 0.000000 0.027217 0.000000
# 6 0.000000 0.000000 0.000000 0.000000 0.000000 0.054014
#
#
# Mechanical properties :
#
#
# Convention : Reuss Voigt Hill
#
# Bulk Modulus (GPa) = 8.12177 10.30611 9.21394
# Shear Modulus (GPa) = 13.51362 25.17743 19.34553
#
# Velocity S-wave (km/s) = 2.67987 3.65792 3.20640
# Velocity P-wave (km/s) = 3.72718 4.82883 4.31332
#
# Compressibility (1/GPa) = 0.12312586
#
# Stress axis : x y z
#
# Youngs Moduli (GPa) = 8.79220 27.41654 54.68539
#
# Poissons Ratio (x) = 0.64800 0.53068
# Poissons Ratio (y) = 0.20781 -0.58259
# Poissons Ratio (z) = 0.08532 -0.29208
#
# Static dielectric constant tensor:
#      x y z
#    x 1.638450 0.000000 0.000000 
#    y 0.000000 1.657510 0.000000 
#    z 0.000000 0.000000 1.635710 
# 
# From -- ./inp_files/48029.got.cif
#   From: 2010.05.17/outbox.cif.g08.bks.cpg/sg64_25_cif.got.tgz:48029.got - 2010.06.03 16:29:19.
