data_PCOD9479453
_publ_section_title
;
Structure prediction by ZEFSAII (Michael W. Deem and Ramdas Pophale) SiO2 
 PCOD9479453
Probable space group: C M C A
;
_chemical_formula_sum "Si O2"
_cell_formula_units_Z 96
_cell_length_a 8.700551
_cell_length_b 30.616316
_cell_length_c 19.681011
_cell_angle_alpha 90.000000
_cell_angle_beta 90.000000
_cell_angle_gamma 90.000000
_cell_volume 5242.604463
_symmetry_space_group_name_H-M "C M C A"
_symmetry_group_IT_number 64
_symmetry_cell_setting 'orthorhombic'
loop_
_space_group_symop_operation_xyz
x,y,z
-x,1/2-y,1/2+z
x,-y,-z
-x,1/2+y,1/2-z
-x,-y,-z
x,1/2+y,1/2-z
-x,y,z
x,1/2-y,1/2+z
1/2+x,1/2+y,z
1/2-x,-y,1/2+z
1/2+x,1/2-y,-z
1/2-x,y,1/2-z
1/2-x,1/2-y,-z
1/2+x,y,1/2-z
1/2-x,1/2+y,z
1/2+x,-y,1/2+z
loop_
_atom_site_type_symbol
_atom_site_label
_atom_site_fract_x
_atom_site_fract_y
_atom_site_fract_z
Si Si1 0.185365 0.477910 0.427484
Si Si2 0.315482 0.139440 0.412084
Si Si3 0.684513 0.813065 0.176262
Si Si4 0.314790 0.945996 0.674455
Si Si5 0.316358 0.717122 0.324431
Si Si6 0.683725 0.617868 0.559357
O O1 0.223026 0.500000 0.500000
O O2 0.232591 0.511302 0.368249
O O3 0.261559 0.430781 0.422597
O O4 0.000000 0.472836 0.425525
O O5 0.500000 0.142844 0.410073
O O6 0.268863 0.097206 0.367384
O O7 0.241771 0.182133 0.378702
O O8 0.261210 0.131826 0.488764
O O9 0.500000 0.809315 0.180581
O O10 0.750000 0.825777 0.250000
O O11 0.753805 0.765521 0.159784
O O12 0.724496 0.848313 0.119080
O O13 0.500000 0.946096 0.677370
O O14 0.250000 0.945565 0.750000
O O15 0.500000 0.717736 0.321246
O O16 0.250000 0.705202 0.250000
O O17 0.500000 0.618463 0.551058
#
# Coordination Sequence:
#
# PCOD9479453 Si02
#       6
#    16  16  16  16  16  16
#     4  10  20  40  62  82 114 157 199 237 289 355
#     4  11  22  39  61  86 120 161 200 241 296 358
#     4  10  22  41  62  86 118 155 199 246 297 355
#     4  10  22  38  59  87 117 153 196 241 290 349
#     4  11  22  38  61  89 120 157 200 245 298 353
#     4  11  24  39  60  91 120 152 197 249 301 353
#
# _framework density 18.311509000000001
#
# number of rings (size 3 to 8) (size 9 to 14) (size 15 to 20)
#    0.000    1.500    1.667    4.500    0.000    7.667 
#    0.000    3.333    0.000    0.000    0.000    0.000 
#    0.000    0.000    0.000    0.000    0.000    0.000 
#
# Total GULP energy -268318.399330 kJ/mol
# GULP energy per Si atom -5589.966653 kJ/mol
# Density = 1.826983 g / cm^3
# Si number density = 18.311509 Si / 1000 Ang^3
#
#
#
# Elastic Constant Matrix: (Units=GPa)
#
#
# Indices 1 2 3 4 5 6 
#
# 1 71.8332 61.3378 63.2099 0.0000 0.0000 0.0000
# 2 61.3378 141.3988 115.9095 0.0000 0.0000 0.0000
# 3 63.2099 115.9095 168.3682 0.0000 0.0000 0.0000
# 4 0.0000 0.0000 0.0000 38.1329 0.0000 0.0000
# 5 0.0000 0.0000 0.0000 0.0000 32.4376 0.0000
# 6 0.0000 0.0000 0.0000 0.0000 0.0000 108.9095
#
#
#
# Elastic Compliance Matrix: (Units=1/GPa)
#
#
# Indices 1 2 3 4 5 6 
#
# 1 0.023285 -0.006736 -0.004104 0.000000 0.000000 0.000000
# 2 -0.006736 0.018182 -0.009988 0.000000 0.000000 0.000000
# 3 -0.004104 -0.009988 0.014356 0.000000 0.000000 0.000000
# 4 0.000000 0.000000 0.000000 0.026224 0.000000 0.000000
# 5 0.000000 0.000000 0.000000 0.000000 0.030828 0.000000
# 6 0.000000 0.000000 0.000000 0.000000 0.000000 0.009182
#
#
# Mechanical properties :
#
#
# Convention : Reuss Voigt Hill
#
# Bulk Modulus (GPa) = 70.59259 95.83497 83.21378
# Shear Modulus (GPa) = 29.68486 45.30552 37.49519
#
# Velocity S-wave (km/s) = 4.03066 4.97948 4.52998
# Velocity P-wave (km/s) = 7.76507 9.24716 8.53833
#
# Compressibility (1/GPa) = 0.01416579
#
# Stress axis : x y z
#
# Youngs Moduli (GPa) = 42.94640 55.00004 69.65683
#
# Poissons Ratio (x) = 0.37051 0.28588
# Poissons Ratio (y) = 0.28931 0.69572
# Poissons Ratio (z) = 0.17626 0.54933
#
# Static dielectric constant tensor:
#      x y z
#    x 1.617840 0.000000 0.000000 
#    y 0.000000 1.606020 0.000000 
#    z 0.000000 0.000000 1.601280 
# 
# From -- ./inp_files/37017.got.cif
#   From: 2010.05.17/outbox.cif.g08.bks.cpg/sg64_19_cif.got.tgz:37017.got - 2010.06.03 16:29:19.
