data_PCOD9479338
_publ_section_title
;
Structure prediction by ZEFSAII (Michael W. Deem and Ramdas Pophale) SiO2 
 PCOD9479338
Probable space group: C M C A
;
_chemical_formula_sum "Si O2"
_cell_formula_units_Z 64
_cell_length_a 13.741247
_cell_length_b 11.064998
_cell_length_c 18.774984
_cell_angle_alpha 90.000000
_cell_angle_beta 90.000000
_cell_angle_gamma 90.000000
_cell_volume 2854.677562
_symmetry_space_group_name_H-M "C M C A"
_symmetry_group_IT_number 64
_symmetry_cell_setting 'orthorhombic'
loop_
_space_group_symop_operation_xyz
x,y,z
-x,1/2-y,1/2+z
x,-y,-z
-x,1/2+y,1/2-z
-x,-y,-z
x,1/2+y,1/2-z
-x,y,z
x,1/2-y,1/2+z
1/2+x,1/2+y,z
1/2-x,-y,1/2+z
1/2+x,1/2-y,-z
1/2-x,y,1/2-z
1/2-x,1/2-y,-z
1/2+x,y,1/2-z
1/2-x,1/2+y,z
1/2+x,-y,1/2+z
loop_
_atom_site_type_symbol
_atom_site_label
_atom_site_fract_x
_atom_site_fract_y
_atom_site_fract_z
Si Si1 0.617290 0.548303 0.716004
Si Si2 0.386597 0.802494 0.456135
Si Si3 0.817945 0.099290 0.555929
Si Si4 0.615382 0.716557 0.300453
O O1 0.500000 0.546784 0.718373
O O2 0.648614 0.577300 0.635691
O O3 0.649175 0.410635 0.731972
O O4 0.650150 0.656770 0.767518
O O5 0.500000 0.842042 0.456263
O O6 0.299748 0.897995 0.447626
O O7 0.360619 0.725339 0.526034
O O8 0.370960 0.719827 0.385579
O O9 0.854564 0.000000 0.500000
O O10 0.500000 0.718143 0.288683
#
# Coordination Sequence:
#
# PCOD9479338 Si02
#       4
#    16  16  16  16
#     4  10  20  38  66  98 129 167 216 266 320 385
#     4  10  22  41  62  91 131 168 211 269 323 382
#     4  11  22  39  66  96 122 168 220 265 323 384
#     4   9  19  38  63  92 128 169 211 263 324 381
#
# _framework density 22.419343999999999
#
# number of rings (size 3 to 8) (size 9 to 14) (size 15 to 20)
#    0.000    2.000    2.500    0.750    0.000    2.500 
#    9.000    2.500    0.000    0.000    0.000    0.000 
#    0.000    0.000    0.000    0.000    0.000    0.000 
#
# Total GULP energy -178597.284626 kJ/mol
# GULP energy per Si atom -5581.165145 kJ/mol
# Density = 2.236832 g / cm^3
# Si number density = 22.419344 Si / 1000 Ang^3
#
#
#
# Elastic Constant Matrix: (Units=GPa)
#
#
# Indices 1 2 3 4 5 6 
#
# 1 118.9377 -3.2299 6.3485 0.0000 0.0000 0.0000
# 2 -3.2299 116.1787 37.2983 0.0000 0.0000 0.0000
# 3 6.3485 37.2983 60.1627 0.0000 0.0000 0.0000
# 4 0.0000 0.0000 0.0000 34.0916 0.0000 0.0000
# 5 0.0000 0.0000 0.0000 0.0000 29.2416 0.0000
# 6 0.0000 0.0000 0.0000 0.0000 0.0000 -4.4771
#
#
#
# Elastic Compliance Matrix: (Units=1/GPa)
#
#
# Indices 1 2 3 4 5 6 
#
# 1 0.008495 0.000654 -0.001302 0.000000 0.000000 0.000000
# 2 0.000654 0.010797 -0.006763 0.000000 0.000000 0.000000
# 3 -0.001302 -0.006763 0.020951 0.000000 0.000000 0.000000
# 4 0.000000 0.000000 0.000000 0.029333 0.000000 0.000000
# 5 0.000000 0.000000 0.000000 0.000000 0.034198 0.000000
# 6 0.000000 0.000000 0.000000 0.000000 0.000000 -0.223359
#
#
# Mechanical properties :
#
#
# Convention : Reuss Voigt Hill
#
# Bulk Modulus (GPa) = 39.33523 41.79034 40.56279
# Shear Modulus (GPa) = -51.92613 28.76203 -11.58205
#
# Velocity S-wave (km/s) = -4.81784 3.58566 -2.27537
# Velocity P-wave (km/s) = 3.65588 5.98526 3.35096
#
# Compressibility (1/GPa) = 0.02542250
#
# Stress axis : x y z
#
# Youngs Moduli (GPa) = 117.71597 92.62115 47.72943
#
# Poissons Ratio (x) = -0.06059 0.06214
# Poissons Ratio (y) = -0.07700 0.32277
# Poissons Ratio (z) = 0.15326 0.62635
#
# Static dielectric constant tensor:
#      x y z
#    x 1.815940 0.000000 0.000000 
#    y 0.000000 1.880220 0.000000 
#    z 0.000000 0.000000 1.801220 
# 
# From -- ./inp_files/31627.got.cif
#   From: 2010.05.17/outbox.cif.g08.bks.cpg/sg64_16_cif.got.tgz:31627.got - 2010.06.03 16:29:19.
