data_PCOD9479201
_publ_section_title
;
Structure prediction by ZEFSAII (Michael W. Deem and Ramdas Pophale) SiO2 
 PCOD9479201
Probable space group: C M C A
;
_chemical_formula_sum "Si O2"
_cell_formula_units_Z 96
_cell_length_a 17.797542
_cell_length_b 9.571643
_cell_length_c 23.720339
_cell_angle_alpha 90.000000
_cell_angle_beta 90.000000
_cell_angle_gamma 90.000000
_cell_volume 4040.800507
_symmetry_space_group_name_H-M "C M C A"
_symmetry_group_IT_number 64
_symmetry_cell_setting 'orthorhombic'
loop_
_space_group_symop_operation_xyz
x,y,z
-x,1/2-y,1/2+z
x,-y,-z
-x,1/2+y,1/2-z
-x,-y,-z
x,1/2+y,1/2-z
-x,y,z
x,1/2-y,1/2+z
1/2+x,1/2+y,z
1/2-x,-y,1/2+z
1/2+x,1/2-y,-z
1/2-x,y,1/2-z
1/2-x,1/2-y,-z
1/2+x,y,1/2-z
1/2-x,1/2+y,z
1/2+x,-y,1/2+z
loop_
_atom_site_type_symbol
_atom_site_label
_atom_site_fract_x
_atom_site_fract_y
_atom_site_fract_z
Si Si1 0.584623 0.266956 0.578682
Si Si2 0.250000 0.870400 0.750000
Si Si3 0.242081 0.679760 0.560663
Si Si4 0.000000 0.590509 0.326878
Si Si5 0.000000 0.378887 0.247086
Si Si6 0.348702 0.779887 0.649727
Si Si7 0.376712 0.017807 0.174812
Si Si8 0.150204 0.000000 0.500000
O O1 0.500000 0.214417 0.573016
O O2 0.655015 0.161189 0.575565
O O3 0.595109 0.355117 0.636809
O O4 0.600850 0.376449 0.527060
O O5 0.312324 0.790038 0.712575
O O6 0.296152 0.955368 0.796937
O O7 0.250000 0.750000 0.500000
O O8 0.280567 0.781654 0.606084
O O9 0.293042 0.544814 0.550212
O O10 0.079992 0.620245 0.356154
O O11 0.000000 0.425226 0.311623
O O12 0.000000 0.723210 0.279239
O O13 0.930205 0.471485 0.225599
O O14 0.380648 0.624933 0.640246
#
# Coordination Sequence:
#
# PCOD9479201 Si02
#       8
#    16   8  16   8   8  16  16   8
#     4  11  21  37  63  95 122 158 209 270 317 381
#     4  12  22  36  58  86 124 160 210 250 320 394
#     4  10  22  40  61  90 123 165 207 270 326 392
#     4  10  22  38  64  90 134 173 221 276 325 403
#     4  10  20  38  58  88 128 167 211 262 329 379
#     4  11  22  38  59  90 122 170 211 267 327 393
#     4  11  21  35  58  86 120 161 209 258 315 388
#     4  10  21  40  65  88 122 164 218 257 332 377
#
# _framework density 23.757670000000001
#
# number of rings (size 3 to 8) (size 9 to 14) (size 15 to 20)
#    0.000    1.333    5.833    0.750    0.000    0.000 
#    6.000    0.417    7.333    0.000    0.000    0.000 
#    0.000    0.000    0.000    0.000    0.000    0.000 
#
# Total GULP energy -267551.489447 kJ/mol
# GULP energy per Si atom -5573.989363 kJ/mol
# Density = 2.370360 g / cm^3
# Si number density = 23.757670 Si / 1000 Ang^3
#
#
#
# Elastic Constant Matrix: (Units=GPa)
#
#
# Indices 1 2 3 4 5 6 
#
# 1 167.6680 8.0319 18.5331 0.0000 0.0000 0.0000
# 2 8.0319 38.5116 8.0643 0.0000 0.0000 0.0000
# 3 18.5331 8.0643 54.6938 0.0000 0.0000 0.0000
# 4 0.0000 0.0000 0.0000 28.0377 0.0000 0.0000
# 5 0.0000 0.0000 0.0000 0.0000 22.3966 0.0000
# 6 0.0000 0.0000 0.0000 0.0000 0.0000 24.1621
#
#
#
# Elastic Compliance Matrix: (Units=1/GPa)
#
#
# Indices 1 2 3 4 5 6 
#
# 1 0.006225 -0.000884 -0.001979 0.000000 0.000000 0.000000
# 2 -0.000884 0.026919 -0.003670 0.000000 0.000000 0.000000
# 3 -0.001979 -0.003670 0.019495 0.000000 0.000000 0.000000
# 4 0.000000 0.000000 0.000000 0.035666 0.000000 0.000000
# 5 0.000000 0.000000 0.000000 0.000000 0.044650 0.000000
# 6 0.000000 0.000000 0.000000 0.000000 0.000000 0.041387
#
#
# Mechanical properties :
#
#
# Convention : Reuss Voigt Hill
#
# Bulk Modulus (GPa) = 25.26886 36.68132 30.97509
# Shear Modulus (GPa) = 24.92532 30.00221 27.46376
#
# Velocity S-wave (km/s) = 3.24257 3.55751 3.40368
# Velocity P-wave (km/s) = 4.96771 5.68751 5.33975
#
# Compressibility (1/GPa) = 0.03957440
#
# Stress axis : x y z
#
# Youngs Moduli (GPa) = 160.63562 37.14859 51.29444
#
# Poissons Ratio (x) = 0.03284 0.10152
# Poissons Ratio (y) = 0.14199 0.18823
# Poissons Ratio (z) = 0.31792 0.13632
#
# Static dielectric constant tensor:
#      x y z
#    x 1.977050 0.000000 0.000000 
#    y 0.000000 1.955440 0.000000 
#    z 0.000000 0.000000 2.027920 
# 
# From -- ./inp_files/45801.got.cif
#   From: 2010.05.17/outbox.cif.g08.bks.cpg/sg64_23_cif.got.tgz:45801.got - 2010.06.03 16:29:19.
