data_PCOD9479778
_publ_section_title
;
Structure prediction by ZEFSAII (Michael W. Deem and Ramdas Pophale) SiO2 
 PCOD9479778
Probable space group: C M C A
;
_chemical_formula_sum "Si O2"
_cell_formula_units_Z 96
_cell_length_a 17.414228
_cell_length_b 24.016721
_cell_length_c 11.893051
_cell_angle_alpha 90.000000
_cell_angle_beta 90.000000
_cell_angle_gamma 90.000000
_cell_volume 4974.062299
_symmetry_space_group_name_H-M "C M C A"
_symmetry_group_IT_number 64
_symmetry_cell_setting 'orthorhombic'
loop_
_space_group_symop_operation_xyz
x,y,z
-x,1/2-y,1/2+z
x,-y,-z
-x,1/2+y,1/2-z
-x,-y,-z
x,1/2+y,1/2-z
-x,y,z
x,1/2-y,1/2+z
1/2+x,1/2+y,z
1/2-x,-y,1/2+z
1/2+x,1/2-y,-z
1/2-x,y,1/2-z
1/2-x,1/2-y,-z
1/2+x,y,1/2-z
1/2-x,1/2+y,z
1/2+x,-y,1/2+z
loop_
_atom_site_type_symbol
_atom_site_label
_atom_site_fract_x
_atom_site_fract_y
_atom_site_fract_z
Si Si1 0.859929 0.563450 0.476032
Si Si2 0.320408 0.942224 0.946034
Si Si3 0.090180 0.614509 0.245743
Si Si4 0.087662 0.854984 0.416997
Si Si5 0.090270 0.725003 0.116956
Si Si6 0.908900 0.847836 0.150607
O O1 0.887926 0.500000 0.500000
O O2 0.771173 0.558699 0.439441
O O3 0.900623 0.597171 0.374981
O O4 0.868669 0.601514 0.586530
O O5 0.360853 0.928576 0.828420
O O6 0.350434 0.895663 0.030928
O O7 0.345283 0.000000 0.000000
O O8 0.116908 0.676396 0.203751
O O9 0.000000 0.611113 0.215848
O O10 0.095396 0.799178 0.491003
O O11 0.097052 0.850259 0.284857
O O12 0.000000 0.875086 0.438657
O O13 0.123700 0.786809 0.119899
O O14 0.000000 0.732301 0.145079
O O15 0.000000 0.851310 0.121033
#
# Coordination Sequence:
#
# PCOD9479778 Si02
#       6
#    16  16  16  16  16  16
#     4  11  25  40  57  86 125 163 191 233 299 362
#     4  10  22  40  61  81 114 160 199 235 289 349
#     4  10  21  39  64  89 115 147 196 249 289 346
#     4   9  19  36  59  88 115 146 202 250 282 342
#     4   8  17  35  60  88 114 149 194 242 297 341
#     4  10  21  36  60  89 120 155 192 244 294 345
#
# _framework density 19.30012
#
# number of rings (size 3 to 8) (size 9 to 14) (size 15 to 20)
#    0.000    2.333    0.000    2.500    4.667    3.333 
#    0.000    3.333    7.333    0.000    0.000    0.000 
#    0.000    0.000    0.000    0.000    0.000    0.000 
#
# Total GULP energy -267562.655372 kJ/mol
# GULP energy per Si atom -5574.221987 kJ/mol
# Density = 1.925619 g / cm^3
# Si number density = 19.300120 Si / 1000 Ang^3
#
#
#
# Elastic Constant Matrix: (Units=GPa)
#
#
# Indices 1 2 3 4 5 6 
#
# 1 20.8770 0.8130 8.8553 0.0000 0.0000 0.0000
# 2 0.8130 95.8031 39.7778 0.0000 0.0000 0.0000
# 3 8.8553 39.7778 92.9410 0.0000 0.0000 0.0000
# 4 0.0000 0.0000 0.0000 7.9613 0.0000 0.0000
# 5 0.0000 0.0000 0.0000 0.0000 35.9559 0.0000
# 6 0.0000 0.0000 0.0000 0.0000 0.0000 22.3622
#
#
#
# Elastic Compliance Matrix: (Units=1/GPa)
#
#
# Indices 1 2 3 4 5 6 
#
# 1 0.050199 0.001897 -0.005595 0.000000 0.000000 0.000000
# 2 0.001897 0.012765 -0.005644 0.000000 0.000000 0.000000
# 3 -0.005595 -0.005644 0.013708 0.000000 0.000000 0.000000
# 4 0.000000 0.000000 0.000000 0.125607 0.000000 0.000000
# 5 0.000000 0.000000 0.000000 0.000000 0.027812 0.000000
# 6 0.000000 0.000000 0.000000 0.000000 0.000000 0.044718
#
#
# Mechanical properties :
#
#
# Convention : Reuss Voigt Hill
#
# Bulk Modulus (GPa) = 17.24477 34.27924 25.76201
# Shear Modulus (GPa) = 15.98344 23.93423 19.95883
#
# Velocity S-wave (km/s) = 2.88089 3.52534 3.21928
# Velocity P-wave (km/s) = 4.47442 5.86263 5.21492
#
# Compressibility (1/GPa) = 0.05798860
#
# Stress axis : x y z
#
# Youngs Moduli (GPa) = 19.92074 78.33626 72.94870
#
# Poissons Ratio (x) = -0.14860 0.40813
# Poissons Ratio (y) = -0.03779 0.41174
# Poissons Ratio (z) = 0.11145 0.44215
#
# Static dielectric constant tensor:
#      x y z
#    x 1.673170 0.000000 0.000000 
#    y 0.000000 1.707770 0.000000 
#    z 0.000000 0.000000 1.687730 
# 
# From -- ./inp_files/16175.got.cif
#   From: 2010.05.17/outbox.cif.g08.bks.cpg/sg64_9_cif.got.tgz:16175.got - 2010.06.03 16:29:19.
