data_PCOD9479246
_publ_section_title
;
Structure prediction by ZEFSAII (Michael W. Deem and Ramdas Pophale) SiO2 
 PCOD9479246
Probable space group: C M C A
;
_chemical_formula_sum "Si O2"
_cell_formula_units_Z 80
_cell_length_a 30.522827
_cell_length_b 5.496141
_cell_length_c 19.838257
_cell_angle_alpha 90.000000
_cell_angle_beta 90.000000
_cell_angle_gamma 90.000000
_cell_volume 3328.021575
_symmetry_space_group_name_H-M "C M C A"
_symmetry_group_IT_number 64
_symmetry_cell_setting 'orthorhombic'
loop_
_space_group_symop_operation_xyz
x,y,z
-x,1/2-y,1/2+z
x,-y,-z
-x,1/2+y,1/2-z
-x,-y,-z
x,1/2+y,1/2-z
-x,y,z
x,1/2-y,1/2+z
1/2+x,1/2+y,z
1/2-x,-y,1/2+z
1/2+x,1/2-y,-z
1/2-x,y,1/2-z
1/2-x,1/2-y,-z
1/2+x,y,1/2-z
1/2-x,1/2+y,z
1/2+x,-y,1/2+z
loop_
_atom_site_type_symbol
_atom_site_label
_atom_site_fract_x
_atom_site_fract_y
_atom_site_fract_z
Si Si1 0.074449 0.500000 0.000000
Si Si2 0.096912 0.327500 0.289252
Si Si3 0.236948 0.978160 0.635759
Si Si4 0.648310 0.336338 0.590754
Si Si5 0.500000 0.751060 0.066076
Si Si6 0.500000 0.763322 0.348550
Si Si7 0.705607 0.000000 0.500000
O O1 0.105730 0.534178 0.062970
O O2 0.042343 0.282764 0.019258
O O3 0.105861 0.568456 0.246201
O O4 0.128614 0.345035 0.354085
O O5 0.045315 0.301191 0.308020
O O6 0.243639 0.716396 0.669366
O O7 0.185510 0.004963 0.622653
O O8 0.263513 0.940614 0.564194
O O9 0.673381 0.205666 0.529040
O O10 0.500000 0.497708 0.103040
O O11 0.500000 0.994643 0.115291
#
# Coordination Sequence:
#
# PCOD9479246 Si02
#       7
#     8  16  16  16   8   8   8
#     4  11  23  40  63 114 138 182 209 294 365 435
#     4  12  28  48  71  97 133 184 245 288 330 393
#     4  10  20  38  61  99 136 175 214 259 333 419
#     4  11  23  39  72 103 143 178 225 289 343 410
#     4  11  26  41  68  99 151 167 219 280 373 435
#     4  12  24  52  68  95 131 191 237 286 335 415
#     4  10  21  38  69 109 138 181 213 276 349 432
#
# _framework density 24.038304
#
# number of rings (size 3 to 8) (size 9 to 14) (size 15 to 20)
#    0.000    1.000    2.000    6.000    2.800    4.800 
#    0.000    0.000    0.000   14.400    0.000    0.000 
#    0.000    0.000    0.000    0.000    0.000    0.000 
#
# Total GULP energy -223696.251137 kJ/mol
# GULP energy per Si atom -5592.406278 kJ/mol
# Density = 2.398359 g / cm^3
# Si number density = 24.038304 Si / 1000 Ang^3
#
#
#
# Elastic Constant Matrix: (Units=GPa)
#
#
# Indices 1 2 3 4 5 6 
#
# 1 143.7073 22.5911 20.5964 0.0000 0.0000 0.0000
# 2 22.5911 153.4896 30.6650 0.0000 0.0000 0.0000
# 3 20.5964 30.6650 53.9632 0.0000 0.0000 0.0000
# 4 0.0000 0.0000 0.0000 31.5338 0.0000 0.0000
# 5 0.0000 0.0000 0.0000 0.0000 111.9341 0.0000
# 6 0.0000 0.0000 0.0000 0.0000 0.0000 -9.1059
#
#
#
# Elastic Compliance Matrix: (Units=1/GPa)
#
#
# Indices 1 2 3 4 5 6 
#
# 1 0.007409 -0.000593 -0.002491 0.000000 0.000000 0.000000
# 2 -0.000593 0.007397 -0.003977 0.000000 0.000000 0.000000
# 3 -0.002491 -0.003977 0.021742 0.000000 0.000000 0.000000
# 4 0.000000 0.000000 0.000000 0.031712 0.000000 0.000000
# 5 0.000000 0.000000 0.000000 0.000000 0.008934 0.000000
# 6 0.000000 0.000000 0.000000 0.000000 0.000000 -0.109819
#
#
# Mechanical properties :
#
#
# Convention : Reuss Voigt Hill
#
# Bulk Modulus (GPa) = 44.59109 55.42946 50.01028
# Shear Modulus (GPa) = -453.35751 45.35957 -203.99897
#
# Velocity S-wave (km/s) = -13.74800 4.34864 -9.22217
# Velocity P-wave (km/s) = 15.27807 6.95148 9.62020
#
# Compressibility (1/GPa) = 0.02242600
#
# Stress axis : x y z
#
# Youngs Moduli (GPa) = 134.97506 135.19148 45.99420
#
# Poissons Ratio (x) = 0.08014 0.11457
# Poissons Ratio (y) = 0.08001 0.18292
# Poissons Ratio (z) = 0.33621 0.53767
#
# Static dielectric constant tensor:
#      x y z
#    x 1.871680 0.000000 0.000000 
#    y 0.000000 1.992770 0.000000 
#    z 0.000000 0.000000 1.992780 
# 
# From -- ./inp_files/47067.got.cif
#   From: 2010.05.17/outbox.cif.g08.bks.cpg/sg64_24_cif.got.tgz:47067.got - 2010.06.03 16:29:19.
