data_PCOD9479183
_publ_section_title
;
Structure prediction by ZEFSAII (Michael W. Deem and Ramdas Pophale) SiO2 
 PCOD9479183
Probable space group: C M C A
;
_chemical_formula_sum "Si O2"
_cell_formula_units_Z 96
_cell_length_a 22.954688
_cell_length_b 10.055911
_cell_length_c 19.724713
_cell_angle_alpha 90.000000
_cell_angle_beta 90.000000
_cell_angle_gamma 90.000000
_cell_volume 4553.061411
_symmetry_space_group_name_H-M "C M C A"
_symmetry_group_IT_number 64
_symmetry_cell_setting 'orthorhombic'
loop_
_space_group_symop_operation_xyz
x,y,z
-x,1/2-y,1/2+z
x,-y,-z
-x,1/2+y,1/2-z
-x,-y,-z
x,1/2+y,1/2-z
-x,y,z
x,1/2-y,1/2+z
1/2+x,1/2+y,z
1/2-x,-y,1/2+z
1/2+x,1/2-y,-z
1/2-x,y,1/2-z
1/2-x,1/2-y,-z
1/2+x,y,1/2-z
1/2-x,1/2+y,z
1/2+x,-y,1/2+z
loop_
_atom_site_type_symbol
_atom_site_label
_atom_site_fract_x
_atom_site_fract_y
_atom_site_fract_z
Si Si1 0.812711 0.942932 0.564504
Si Si2 0.787955 0.733596 0.304450
Si Si3 0.208324 0.144461 0.908048
Si Si4 0.625748 0.056702 0.357117
Si Si5 0.626251 0.968449 0.202360
Si Si6 0.000000 0.904848 0.834326
Si Si7 0.000000 0.880847 0.279243
O O1 0.799232 0.786756 0.556503
O O2 0.847856 0.000000 0.500000
O O3 0.756220 0.040469 0.565243
O O4 0.844427 0.962343 0.637368
O O5 0.750000 0.650030 0.250000
O O6 0.736346 0.821057 0.335384
O O7 0.819657 0.655499 0.365010
O O8 0.838346 0.833734 0.282325
O O9 0.146473 0.074384 0.895545
O O10 0.626494 0.044659 0.274360
O O11 0.560858 0.101550 0.374436
O O12 0.559539 0.930969 0.187039
O O13 0.000000 0.779398 0.782462
O O14 0.000000 0.045982 0.794108
#
# Coordination Sequence:
#
# PCOD9479183 Si02
#       7
#    16  16  16  16  16   8   8
#     4  11  24  41  59  87 121 162 204 248 309 366
#     4  11  19  30  51  86 120 149 190 234 299 363
#     4  11  22  37  60  88 120 155 193 252 305 370
#     4  11  21  35  57  91 124 155 198 246 306 363
#     4  10  22  34  58  82 119 160 201 249 294 365
#     4  10  22  36  58  87 130 168 198 243 307 378
#     4  10  20  38  55  85 121 166 207 247 304 356
#
# _framework density 21.084714999999999
#
# number of rings (size 3 to 8) (size 9 to 14) (size 15 to 20)
#    0.000    1.333    5.000    1.500    2.333    1.333 
#    0.000    0.417    0.000    0.000    0.000    1.750 
#    0.000    0.000    0.000    0.000    0.000    0.000 
#
# Total GULP energy -267329.412712 kJ/mol
# GULP energy per Si atom -5569.362765 kJ/mol
# Density = 2.103673 g / cm^3
# Si number density = 21.084715 Si / 1000 Ang^3
#
#
#
# Elastic Constant Matrix: (Units=GPa)
#
#
# Indices 1 2 3 4 5 6 
#
# 1 105.2226 14.4648 8.2972 0.0000 0.0000 0.0000
# 2 14.4648 77.6818 0.1482 0.0000 0.0000 0.0000
# 3 8.2972 0.1482 41.2249 0.0000 0.0000 0.0000
# 4 0.0000 0.0000 0.0000 23.1578 0.0000 0.0000
# 5 0.0000 0.0000 0.0000 0.0000 10.7127 0.0000
# 6 0.0000 0.0000 0.0000 0.0000 0.0000 23.4116
#
#
#
# Elastic Compliance Matrix: (Units=1/GPa)
#
#
# Indices 1 2 3 4 5 6 
#
# 1 0.009914 -0.001842 -0.001989 0.000000 0.000000 0.000000
# 2 -0.001842 0.013215 0.000323 0.000000 0.000000 0.000000
# 3 -0.001989 0.000323 0.024656 0.000000 0.000000 0.000000
# 4 0.000000 0.000000 0.000000 0.043182 0.000000 0.000000
# 5 0.000000 0.000000 0.000000 0.000000 0.093347 0.000000
# 6 0.000000 0.000000 0.000000 0.000000 0.000000 0.042714
#
#
# Mechanical properties :
#
#
# Convention : Reuss Voigt Hill
#
# Bulk Modulus (GPa) = 24.52773 29.99443 27.26108
# Shear Modulus (GPa) = 20.19107 24.87101 22.53104
#
# Velocity S-wave (km/s) = 3.09790 3.43822 3.27248
# Velocity P-wave (km/s) = 4.94511 5.47890 5.21884
#
# Compressibility (1/GPa) = 0.04077018
#
# Stress axis : x y z
#
# Youngs Moduli (GPa) = 100.87023 75.66910 40.55766
#
# Poissons Ratio (x) = 0.13940 0.08066
# Poissons Ratio (y) = 0.18582 -0.01311
# Poissons Ratio (z) = 0.20060 -0.02446
#
# Static dielectric constant tensor:
#      x y z
#    x 1.790980 0.000000 0.000000 
#    y 0.000000 1.880570 0.000000 
#    z 0.000000 0.000000 1.865960 
# 
# From -- ./inp_files/46302.got.cif
#   From: 2010.05.17/outbox.cif.g08.bks.cpg/sg64_24_cif.got.tgz:46302.got - 2010.06.03 16:29:19.
