data_PCOD9479874
_publ_section_title
;
Structure prediction by ZEFSAII (Michael W. Deem and Ramdas Pophale) SiO2 
 PCOD9479874
Probable space group: C M C A
;
_chemical_formula_sum "Si O2"
_cell_formula_units_Z 88
_cell_length_a 31.054677
_cell_length_b 10.867334
_cell_length_c 13.196151
_cell_angle_alpha 90.000000
_cell_angle_beta 90.000000
_cell_angle_gamma 90.000000
_cell_volume 4453.457457
_symmetry_space_group_name_H-M "C M C A"
_symmetry_group_IT_number 64
_symmetry_cell_setting 'orthorhombic'
loop_
_space_group_symop_operation_xyz
x,y,z
-x,1/2-y,1/2+z
x,-y,-z
-x,1/2+y,1/2-z
-x,-y,-z
x,1/2+y,1/2-z
-x,y,z
x,1/2-y,1/2+z
1/2+x,1/2+y,z
1/2-x,-y,1/2+z
1/2+x,1/2-y,-z
1/2-x,y,1/2-z
1/2-x,1/2-y,-z
1/2+x,y,1/2-z
1/2-x,1/2+y,z
1/2+x,-y,1/2+z
loop_
_atom_site_type_symbol
_atom_site_label
_atom_site_fract_x
_atom_site_fract_y
_atom_site_fract_z
Si Si1 0.250000 0.305461 0.250000
Si Si2 0.405181 0.639630 0.222284
Si Si3 0.672513 0.176065 0.136503
Si Si4 0.948738 0.123543 0.827205
Si Si5 0.265980 0.114975 0.967438
Si Si6 0.382522 0.360257 0.003629
O O1 0.289701 0.225198 0.208880
O O2 0.267936 0.381035 0.346206
O O3 0.364754 0.615776 0.296479
O O4 0.430534 0.509728 0.210487
O O5 0.431933 0.756351 0.265404
O O6 0.387677 0.680484 0.111937
O O7 0.649316 0.285558 0.075113
O O8 0.694750 0.100728 0.047067
O O9 0.928556 0.140676 0.939234
O O10 0.000000 0.120472 0.826878
O O11 0.250000 0.250000 0.000000
O O12 0.236430 0.000000 0.000000
O O13 0.367808 0.500000 0.000000
#
# Coordination Sequence:
#
# PCOD9479874 Si02
#       6
#     8  16  16  16  16  16
#     4  10  22  40  62  86 118 158 202 252 296 346
#     4  10  21  38  60  86 122 157 191 242 296 351
#     4  10  21  37  58  88 119 154 199 245 298 349
#     4  10  21  38  62  90 116 151 197 241 293 357
#     4  10  23  39  58  84 114 152 200 252 299 351
#     4   9  20  36  58  85 117 157 195 236 289 358
#
# _framework density 19.759929
#
# number of rings (size 3 to 8) (size 9 to 14) (size 15 to 20)
#    0.000    2.182    0.000    1.636    0.000   15.636 
#    0.000    8.182    0.000    5.455    0.000    0.000 
#    0.000    0.000    0.000    0.000    0.000    0.000 
#
# Total GULP energy -245151.247411 kJ/mol
# GULP energy per Si atom -5571.619259 kJ/mol
# Density = 1.971495 g / cm^3
# Si number density = 19.759929 Si / 1000 Ang^3
#
#
#
# Elastic Constant Matrix: (Units=GPa)
#
#
# Indices 1 2 3 4 5 6 
#
# 1 131.9403 28.2245 59.8943 0.0000 0.0000 0.0000
# 2 28.2245 86.2493 47.5303 0.0000 0.0000 0.0000
# 3 59.8943 47.5303 160.0412 0.0000 0.0000 0.0000
# 4 0.0000 0.0000 0.0000 35.2829 0.0000 0.0000
# 5 0.0000 0.0000 0.0000 0.0000 15.6750 0.0000
# 6 0.0000 0.0000 0.0000 0.0000 0.0000 7.5249
#
#
#
# Elastic Compliance Matrix: (Units=1/GPa)
#
#
# Indices 1 2 3 4 5 6 
#
# 1 0.009258 -0.001339 -0.003067 0.000000 0.000000 0.000000
# 2 -0.001339 0.014057 -0.003673 0.000000 0.000000 0.000000
# 3 -0.003067 -0.003673 0.008487 0.000000 0.000000 0.000000
# 4 0.000000 0.000000 0.000000 0.028342 0.000000 0.000000
# 5 0.000000 0.000000 0.000000 0.000000 0.063796 0.000000
# 6 0.000000 0.000000 0.000000 0.000000 0.000000 0.132893
#
#
# Mechanical properties :
#
#
# Convention : Reuss Voigt Hill
#
# Bulk Modulus (GPa) = 63.92894 72.16989 68.04942
# Shear Modulus (GPa) = 17.97223 27.86867 22.92045
#
# Velocity S-wave (km/s) = 3.01911 3.75955 3.40949
# Velocity P-wave (km/s) = 6.67656 7.44636 7.07194
#
# Compressibility (1/GPa) = 0.01564237
#
# Stress axis : x y z
#
# Youngs Moduli (GPa) = 108.01529 71.13883 117.82538
#
# Poissons Ratio (x) = 0.09529 0.36136
# Poissons Ratio (y) = 0.14469 0.43283
# Poissons Ratio (z) = 0.33127 0.26133
#
# Static dielectric constant tensor:
#      x y z
#    x 1.775080 0.000000 0.000000 
#    y 0.000000 1.671590 0.000000 
#    z 0.000000 0.000000 1.708290 
# 
# From -- ./inp_files/19669.got.cif
#   From: 2010.05.17/outbox.cif.g08.bks.cpg/sg64_10_cif.got.tgz:19669.got - 2010.06.03 16:29:19.
