data_PCOD9479517
_publ_section_title
;
Structure prediction by ZEFSAII (Michael W. Deem and Ramdas Pophale) SiO2 
 PCOD9479517
Probable space group: C M C A
;
_chemical_formula_sum "Si O2"
_cell_formula_units_Z 64
_cell_length_a 22.774202
_cell_length_b 8.635499
_cell_length_c 13.440232
_cell_angle_alpha 90.000000
_cell_angle_beta 90.000000
_cell_angle_gamma 90.000000
_cell_volume 2643.244712
_symmetry_space_group_name_H-M "C M C A"
_symmetry_group_IT_number 64
_symmetry_cell_setting 'orthorhombic'
loop_
_space_group_symop_operation_xyz
x,y,z
-x,1/2-y,1/2+z
x,-y,-z
-x,1/2+y,1/2-z
-x,-y,-z
x,1/2+y,1/2-z
-x,y,z
x,1/2-y,1/2+z
1/2+x,1/2+y,z
1/2-x,-y,1/2+z
1/2+x,1/2-y,-z
1/2-x,y,1/2-z
1/2-x,1/2-y,-z
1/2+x,y,1/2-z
1/2-x,1/2+y,z
1/2+x,-y,1/2+z
loop_
_atom_site_type_symbol
_atom_site_label
_atom_site_fract_x
_atom_site_fract_y
_atom_site_fract_z
Si Si1 0.068982 0.298174 0.712065
Si Si2 0.888853 0.481531 0.886762
Si Si3 0.334467 0.992428 0.619882
Si Si4 0.228351 0.300198 0.889076
O O1 0.080338 0.341258 0.827425
O O2 0.102698 0.438075 0.656822
O O3 0.000000 0.295301 0.692995
O O4 0.096719 0.140404 0.669902
O O5 0.819823 0.437244 0.890983
O O6 0.909140 0.500000 0.000000
O O7 0.288237 0.863126 0.656871
O O8 0.336054 0.000000 0.500000
O O9 0.305752 0.152964 0.653523
O O10 0.250000 0.250000 0.000000
#
# Coordination Sequence:
#
# PCOD9479517 Si02
#       4
#    16  16  16  16
#     4  12  28  47  72 110 152 207 270 308 370 471
#     4  12  26  50  78 110 153 200 254 325 391 447
#     4  10  20  40  70 107 152 193 246 320 386 455
#     4  10  20  40  74 112 147 189 248 314 394 472
#
# _framework density 24.212665000000001
#
# number of rings (size 3 to 8) (size 9 to 14) (size 15 to 20)
#    0.000    1.000    0.000    9.000    0.000    3.500 
#    0.000   11.250    0.000    0.000    0.000    0.000 
#    0.000    0.000    0.000    0.000    0.000    0.000 
#
# Total GULP energy -179145.536848 kJ/mol
# GULP energy per Si atom -5598.298026 kJ/mol
# Density = 2.415756 g / cm^3
# Si number density = 24.212665 Si / 1000 Ang^3
#
#
#
# Elastic Constant Matrix: (Units=GPa)
#
#
# Indices 1 2 3 4 5 6 
#
# 1 181.0554 69.8626 50.0126 0.0000 0.0000 0.0000
# 2 69.8626 150.0614 76.7747 0.0000 0.0000 0.0000
# 3 50.0126 76.7747 145.7968 0.0000 0.0000 0.0000
# 4 0.0000 0.0000 0.0000 43.9810 0.0000 0.0000
# 5 0.0000 0.0000 0.0000 0.0000 22.4834 0.0000
# 6 0.0000 0.0000 0.0000 0.0000 0.0000 31.6749
#
#
#
# Elastic Compliance Matrix: (Units=1/GPa)
#
#
# Indices 1 2 3 4 5 6 
#
# 1 0.006820 -0.002708 -0.000914 0.000000 0.000000 0.000000
# 2 -0.002708 0.010196 -0.004440 0.000000 0.000000 0.000000
# 3 -0.000914 -0.004440 0.009511 0.000000 0.000000 0.000000
# 4 0.000000 0.000000 0.000000 0.022737 0.000000 0.000000
# 5 0.000000 0.000000 0.000000 0.000000 0.044477 0.000000
# 6 0.000000 0.000000 0.000000 0.000000 0.000000 0.031571
#
#
# Mechanical properties :
#
#
# Convention : Reuss Voigt Hill
#
# Bulk Modulus (GPa) = 96.12184 96.69037 96.40611
# Shear Modulus (GPa) = 34.50554 38.31211 36.40883
#
# Velocity S-wave (km/s) = 3.77915 3.98215 3.88198
# Velocity P-wave (km/s) = 7.66993 7.82073 7.74570
#
# Compressibility (1/GPa) = 0.01040346
#
# Stress axis : x y z
#
# Youngs Moduli (GPa) = 146.61860 98.07353 105.14630
#
# Poissons Ratio (x) = 0.26557 0.09607
# Poissons Ratio (y) = 0.39702 0.46690
# Poissons Ratio (z) = 0.13396 0.43549
#
# Static dielectric constant tensor:
#      x y z
#    x 1.883330 0.000000 0.000000 
#    y 0.000000 1.952360 0.000000 
#    z 0.000000 0.000000 2.016800 
# 
# From -- ./inp_files/26935.got.cif
#   From: 2010.05.17/outbox.cif.g08.bks.cpg/sg64_14_cif.got.tgz:26935.got - 2010.06.03 16:29:19.
