data_PCOD9479904
_publ_section_title
;
Structure prediction by ZEFSAII (Michael W. Deem and Ramdas Pophale) SiO2 
 PCOD9479904
Probable space group: C M C A
;
_chemical_formula_sum "Si O2"
_cell_formula_units_Z 112
_cell_length_a 14.334964
_cell_length_b 24.214246
_cell_length_c 15.380110
_cell_angle_alpha 90.000000
_cell_angle_beta 90.000000
_cell_angle_gamma 90.000000
_cell_volume 5338.595284
_symmetry_space_group_name_H-M "C M C A"
_symmetry_group_IT_number 64
_symmetry_cell_setting 'orthorhombic'
loop_
_space_group_symop_operation_xyz
x,y,z
-x,1/2-y,1/2+z
x,-y,-z
-x,1/2+y,1/2-z
-x,-y,-z
x,1/2+y,1/2-z
-x,y,z
x,1/2-y,1/2+z
1/2+x,1/2+y,z
1/2-x,-y,1/2+z
1/2+x,1/2-y,-z
1/2-x,y,1/2-z
1/2-x,1/2-y,-z
1/2+x,y,1/2-z
1/2-x,1/2+y,z
1/2+x,-y,1/2+z
loop_
_atom_site_type_symbol
_atom_site_label
_atom_site_fract_x
_atom_site_fract_y
_atom_site_fract_z
Si Si1 0.259971 0.191218 0.646617
Si Si2 0.599143 0.974181 0.091846
Si Si3 0.394917 0.594734 0.919159
Si Si4 0.104886 0.890523 0.878443
Si Si5 0.732860 0.181256 0.146311
Si Si6 0.786962 0.004489 0.163465
Si Si7 0.387922 0.147703 0.981226
O O1 0.250000 0.179523 0.750000
O O2 0.330914 0.146102 0.608159
O O3 0.293043 0.254553 0.640372
O O4 0.167382 0.187454 0.585866
O O5 0.500000 0.976396 0.142975
O O6 0.686620 0.010432 0.120446
O O7 0.624209 0.910966 0.069390
O O8 0.582197 0.000000 0.000000
O O9 0.500000 0.603344 0.887027
O O10 0.353204 0.538052 0.883811
O O11 0.397407 0.588476 0.022802
O O12 0.163739 0.834635 0.885483
O O13 0.000000 0.883265 0.845498
O O14 0.161326 0.937449 0.825930
O O15 0.750000 0.168366 0.250000
O O16 0.662665 0.150933 0.076864
O O17 0.750000 0.975539 0.250000
O O18 0.500000 0.156901 0.989670
#
# Coordination Sequence:
#
# PCOD9479904 Si02
#       7
#    16  16  16  16  16  16  16
#     4  11  24  44  66  98 133 174 225 282 339 401
#     4  10  21  37  60  87 121 166 213 261 322 394
#     4  11  23  40  66  95 131 174 222 274 330 400
#     4  11  24  42  66  95 127 173 225 272 333 402
#     4  11  24  44  68  94 134 176 223 281 338 402
#     4  12  23  39  62  92 133 171 213 273 331 396
#     4  11  23  41  67  97 130 174 224 279 337 400
#
# _framework density 20.979299999999999
#
# number of rings (size 3 to 8) (size 9 to 14) (size 15 to 20)
#    0.000    1.000    2.857    3.857    0.000    4.571 
#    0.000    4.286    0.000    0.000    0.000    0.000 
#    0.000    0.000    0.000    0.000    0.000    0.000 
#
# Total GULP energy -311788.370248 kJ/mol
# GULP energy per Si atom -5567.649469 kJ/mol
# Density = 2.093155 g / cm^3
# Si number density = 20.979300 Si / 1000 Ang^3
#
#
#
# Elastic Constant Matrix: (Units=GPa)
#
#
# Indices 1 2 3 4 5 6 
#
# 1 147.5873 18.5805 19.7935 0.0000 0.0000 0.0000
# 2 18.5805 71.7696 -15.3887 0.0000 0.0000 0.0000
# 3 19.7935 -15.3887 67.8901 0.0000 0.0000 0.0000
# 4 0.0000 0.0000 0.0000 132.2067 0.0000 0.0000
# 5 0.0000 0.0000 0.0000 0.0000 727.8939 0.0000
# 6 0.0000 0.0000 0.0000 0.0000 0.0000 11.0388
#
#
#
# Elastic Compliance Matrix: (Units=1/GPa)
#
#
# Indices 1 2 3 4 5 6 
#
# 1 0.007461 -0.002521 -0.002747 0.000000 0.000000 0.000000
# 2 -0.002521 0.015497 0.004248 0.000000 0.000000 0.000000
# 3 -0.002747 0.004248 0.016493 0.000000 0.000000 0.000000
# 4 0.000000 0.000000 0.000000 0.007564 0.000000 0.000000
# 5 0.000000 0.000000 0.000000 0.000000 0.001374 0.000000
# 6 0.000000 0.000000 0.000000 0.000000 0.000000 0.090589
#
#
# Mechanical properties :
#
#
# Convention : Reuss Voigt Hill
#
# Bulk Modulus (GPa) = 26.72948 37.02418 31.87683
# Shear Modulus (GPa) = 32.57568 191.84535 112.21051
#
# Velocity S-wave (km/s) = 3.94477 9.57307 7.32137
# Velocity P-wave (km/s) = 5.78937 11.82699 9.31114
#
# Compressibility (1/GPa) = 0.03741188
#
# Stress axis : x y z
#
# Youngs Moduli (GPa) = 134.02387 64.52946 60.63071
#
# Poissons Ratio (x) = 0.16265 0.16654
# Poissons Ratio (y) = 0.33782 -0.25753
# Poissons Ratio (z) = 0.36813 -0.27409
#
# Static dielectric constant tensor:
#      x y z
#    x 1.696890 0.000000 0.000000 
#    y 0.000000 1.934860 0.000000 
#    z 0.000000 0.000000 1.658300 
# 
# From -- ./inp_files/24235.got.cif
#   From: 2010.05.17/outbox.cif.g08.bks.cpg/sg64_13_cif.got.tgz:24235.got - 2010.06.03 16:29:19.
