data_PCOD9479587
_publ_section_title
;
Structure prediction by ZEFSAII (Michael W. Deem and Ramdas Pophale) SiO2 
 PCOD9479587
Probable space group: C M C A
;
_chemical_formula_sum "Si O2"
_cell_formula_units_Z 104
_cell_length_a 20.033509
_cell_length_b 9.403143
_cell_length_c 27.778547
_cell_angle_alpha 90.000000
_cell_angle_beta 90.000000
_cell_angle_gamma 90.000000
_cell_volume 5232.865736
_symmetry_space_group_name_H-M "C M C A"
_symmetry_group_IT_number 64
_symmetry_cell_setting 'orthorhombic'
loop_
_space_group_symop_operation_xyz
x,y,z
-x,1/2-y,1/2+z
x,-y,-z
-x,1/2+y,1/2-z
-x,-y,-z
x,1/2+y,1/2-z
-x,y,z
x,1/2-y,1/2+z
1/2+x,1/2+y,z
1/2-x,-y,1/2+z
1/2+x,1/2-y,-z
1/2-x,y,1/2-z
1/2-x,1/2-y,-z
1/2+x,y,1/2-z
1/2-x,1/2+y,z
1/2+x,-y,1/2+z
loop_
_atom_site_type_symbol
_atom_site_label
_atom_site_fract_x
_atom_site_fract_y
_atom_site_fract_z
Si Si1 0.883606 0.676939 0.348002
Si Si2 0.812788 0.469869 0.285435
Si Si3 0.079510 0.034606 0.703799
Si Si4 0.875013 0.258969 0.845664
Si Si5 0.180287 0.831370 0.054195
Si Si6 0.500000 0.942138 0.338836
Si Si7 0.821559 0.172246 0.053447
O O1 0.819844 0.597535 0.323817
O O2 0.906586 0.808624 0.316000
O O3 0.941599 0.560886 0.349504
O O4 0.866195 0.721925 0.402172
O O5 0.750000 0.476049 0.250000
O O6 0.879064 0.484809 0.252628
O O7 0.817956 0.321242 0.314435
O O8 0.000000 0.013587 0.711428
O O9 0.112494 0.921554 0.667533
O O10 0.861792 0.229433 0.901669
O O11 0.942249 0.178799 0.831328
O O12 0.251646 0.754350 0.056036
O O13 0.187848 0.001786 0.059413
O O14 0.151213 0.805132 0.000683
#
# Coordination Sequence:
#
# PCOD9479587 Si02
#       7
#    16  16  16  16  16   8  16
#     4  11  24  43  67  91 133 164 216 268 318 377
#     4  11  27  44  64  97 127 173 227 265 314 379
#     4  12  27  41  66  96 132 177 215 260 329 379
#     4  11  24  43  67  91 133 164 216 268 318 377
#     4  10  22  41  66  95 125 165 209 259 327 386
#     4  10  20  44  65  88 120 174 214 254 311 388
#     4  10  22  41  66  95 125 165 209 259 327 386
#
# _framework density 19.874388
#
# number of rings (size 3 to 8) (size 9 to 14) (size 15 to 20)
#    0.000    1.231    4.615    0.923   10.769    2.462 
#    0.000    1.538    0.000    0.923    0.000    0.000 
#    0.000    0.000    0.000    0.000    0.000    0.000 
#
# Total GULP energy -289492.110865 kJ/mol
# GULP energy per Si atom -5567.155978 kJ/mol
# Density = 1.982915 g / cm^3
# Si number density = 19.874388 Si / 1000 Ang^3
#
#
#
# Elastic Constant Matrix: (Units=GPa)
#
#
# Indices 1 2 3 4 5 6 
#
# 1 66.7725 -1.7084 33.5943 0.0000 0.0000 0.0000
# 2 -1.7084 39.2265 -6.8104 0.0000 0.0000 0.0000
# 3 33.5943 -6.8104 100.2713 0.0000 0.0000 0.0000
# 4 0.0000 0.0000 0.0000 18.0025 0.0000 0.0000
# 5 0.0000 0.0000 0.0000 0.0000 4.3354 0.0000
# 6 0.0000 0.0000 0.0000 0.0000 0.0000 33.5727
#
#
#
# Elastic Compliance Matrix: (Units=1/GPa)
#
#
# Indices 1 2 3 4 5 6 
#
# 1 0.018015 -0.000266 -0.006054 0.000000 0.000000 0.000000
# 2 -0.000266 0.025801 0.001842 0.000000 0.000000 0.000000
# 3 -0.006054 0.001842 0.012126 0.000000 0.000000 0.000000
# 4 0.000000 0.000000 0.000000 0.055548 0.000000 0.000000
# 5 0.000000 0.000000 0.000000 0.000000 0.230658 0.000000
# 6 0.000000 0.000000 0.000000 0.000000 0.000000 0.029786
#
#
# Mechanical properties :
#
#
# Convention : Reuss Voigt Hill
#
# Bulk Modulus (GPa) = 21.28320 28.49125 24.88723
# Shear Modulus (GPa) = 12.60864 23.26177 17.93521
#
# Velocity S-wave (km/s) = 2.52150 3.42488 3.00730
# Velocity P-wave (km/s) = 4.38285 5.47782 4.96064
#
# Compressibility (1/GPa) = 0.04698541
#
# Stress axis : x y z
#
# Youngs Moduli (GPa) = 55.50875 38.75800 82.46562
#
# Poissons Ratio (x) = 0.01033 0.49923
# Poissons Ratio (y) = 0.01479 -0.15188
# Poissons Ratio (z) = 0.33604 -0.07138
#
# Static dielectric constant tensor:
#      x y z
#    x 1.691840 0.000000 0.000000 
#    y 0.000000 1.714830 0.000000 
#    z 0.000000 0.000000 1.743600 
# 
# From -- ./inp_files/50741.got.cif
#   From: 2010.05.17/outbox.cif.g08.bks.cpg/sg64_26_cif.got.tgz:50741.got - 2010.06.03 16:29:19.
