data_PCOD9479175
_publ_section_title
;
Structure prediction by ZEFSAII (Michael W. Deem and Ramdas Pophale) SiO2 
 PCOD9479175
Probable space group: C M C A
;
_chemical_formula_sum "Si O2"
_cell_formula_units_Z 80
_cell_length_a 32.983376
_cell_length_b 5.303192
_cell_length_c 19.718376
_cell_angle_alpha 90.000000
_cell_angle_beta 90.000000
_cell_angle_gamma 90.000000
_cell_volume 3449.082640
_symmetry_space_group_name_H-M "C M C A"
_symmetry_group_IT_number 64
_symmetry_cell_setting 'orthorhombic'
loop_
_space_group_symop_operation_xyz
x,y,z
-x,1/2-y,1/2+z
x,-y,-z
-x,1/2+y,1/2-z
-x,-y,-z
x,1/2+y,1/2-z
-x,y,z
x,1/2-y,1/2+z
1/2+x,1/2+y,z
1/2-x,-y,1/2+z
1/2+x,1/2-y,-z
1/2-x,y,1/2-z
1/2-x,1/2-y,-z
1/2+x,y,1/2-z
1/2-x,1/2+y,z
1/2+x,-y,1/2+z
loop_
_atom_site_type_symbol
_atom_site_label
_atom_site_fract_x
_atom_site_fract_y
_atom_site_fract_z
Si Si1 0.900253 0.500000 0.500000
Si Si2 0.223427 0.000000 0.500000
Si Si3 0.411361 0.986826 0.813608
Si Si4 0.547913 0.996643 0.363616
Si Si5 0.666108 0.533564 0.220224
Si Si6 0.347238 0.849119 0.087545
O O1 0.929230 0.540687 0.564727
O O2 0.870299 0.721396 0.475348
O O3 0.250000 0.250000 0.500000
O O4 0.193473 0.019015 0.564083
O O5 0.436055 0.241315 0.831368
O O6 0.378504 0.968367 0.874729
O O7 0.440969 0.748555 0.818717
O O8 0.379623 0.001736 0.750996
O O9 0.500000 0.011746 0.372863
O O10 0.685177 0.263148 0.236336
O O11 0.662626 0.631790 0.143669
#
# Coordination Sequence:
#
# PCOD9479175 Si02
#       6
#     8   8  16  16  16  16
#     4  10  20  38  64  91 120 172 234 269 314 392
#     4  12  27  44  66 101 141 170 201 261 342 410
#     4  10  21  39  65  92 118 167 228 273 320 388
#     4  11  22  37  59  90 132 171 212 277 342 388
#     4  10  20  37  67  95 118 155 219 281 320 371
#     4  10  22  42  69  96 128 173 227 277 324 403
#
# _framework density 23.194572999999998
#
# number of rings (size 3 to 8) (size 9 to 14) (size 15 to 20)
#    0.000    1.600    0.000    6.300    0.000    8.800 
#    0.000    5.000    0.000   98.400    0.000    0.000 
#    0.000    0.000    0.000    0.000    0.000    0.000 
#
# Total GULP energy -223567.899949 kJ/mol
# GULP energy per Si atom -5589.197499 kJ/mol
# Density = 2.314178 g / cm^3
# Si number density = 23.194573 Si / 1000 Ang^3
#
#
#
# Elastic Constant Matrix: (Units=GPa)
#
#
# Indices 1 2 3 4 5 6 
#
# 1 122.1751 46.3058 34.3936 0.0000 0.0000 0.0000
# 2 46.3058 134.0077 23.2071 0.0000 0.0000 0.0000
# 3 34.3936 23.2071 113.5683 0.0000 0.0000 0.0000
# 4 0.0000 0.0000 0.0000 40.5810 0.0000 0.0000
# 5 0.0000 0.0000 0.0000 0.0000 17.1615 0.0000
# 6 0.0000 0.0000 0.0000 0.0000 0.0000 32.2861
#
#
#
# Elastic Compliance Matrix: (Units=1/GPa)
#
#
# Indices 1 2 3 4 5 6 
#
# 1 0.010018 -0.003044 -0.002412 0.000000 0.000000 0.000000
# 2 -0.003044 0.008661 -0.000848 0.000000 0.000000 0.000000
# 3 -0.002412 -0.000848 0.009709 0.000000 0.000000 0.000000
# 4 0.000000 0.000000 0.000000 0.024642 0.000000 0.000000
# 5 0.000000 0.000000 0.000000 0.000000 0.058270 0.000000
# 6 0.000000 0.000000 0.000000 0.000000 0.000000 0.030973
#
#
# Mechanical properties :
#
#
# Convention : Reuss Voigt Hill
#
# Bulk Modulus (GPa) = 63.37070 64.17380 63.77225
# Shear Modulus (GPa) = 31.22271 35.72869 33.47570
#
# Velocity S-wave (km/s) = 3.67293 3.92904 3.80314
# Velocity P-wave (km/s) = 6.73557 6.95060 6.84393
#
# Compressibility (1/GPa) = 0.01578016
#
# Stress axis : x y z
#
# Youngs Moduli (GPa) = 99.82460 115.46138 102.99770
#
# Poissons Ratio (x) = 0.35145 0.24841
# Poissons Ratio (y) = 0.30385 0.08734
# Poissons Ratio (z) = 0.24075 0.09791
#
# Static dielectric constant tensor:
#      x y z
#    x 1.820130 0.000000 0.000000 
#    y 0.000000 2.015390 0.000000 
#    z 0.000000 0.000000 1.953350 
# 
# From -- ./inp_files/47047.got.cif
#   From: 2010.05.17/outbox.cif.g08.bks.cpg/sg64_24_cif.got.tgz:47047.got - 2010.06.03 16:29:19.
