data_PCOD9479279
_publ_section_title
;
Structure prediction by ZEFSAII (Michael W. Deem and Ramdas Pophale) SiO2 
 PCOD9479279
Probable space group: C M C A
;
_chemical_formula_sum "Si O2"
_cell_formula_units_Z 80
_cell_length_a 18.117367
_cell_length_b 22.008442
_cell_length_c 11.477004
_cell_angle_alpha 90.000000
_cell_angle_beta 90.000000
_cell_angle_gamma 90.000000
_cell_volume 4576.283429
_symmetry_space_group_name_H-M "C M C A"
_symmetry_group_IT_number 64
_symmetry_cell_setting 'orthorhombic'
loop_
_space_group_symop_operation_xyz
x,y,z
-x,1/2-y,1/2+z
x,-y,-z
-x,1/2+y,1/2-z
-x,-y,-z
x,1/2+y,1/2-z
-x,y,z
x,1/2-y,1/2+z
1/2+x,1/2+y,z
1/2-x,-y,1/2+z
1/2+x,1/2-y,-z
1/2-x,y,1/2-z
1/2-x,1/2-y,-z
1/2+x,y,1/2-z
1/2-x,1/2+y,z
1/2+x,-y,1/2+z
loop_
_atom_site_type_symbol
_atom_site_label
_atom_site_fract_x
_atom_site_fract_y
_atom_site_fract_z
Si Si1 0.500000 0.697313 0.441563
Si Si2 0.127170 0.000000 0.000000
Si Si3 0.377611 0.212900 0.640229
Si Si4 0.500000 0.616287 0.209389
Si Si5 0.000000 0.348953 0.199971
Si Si6 0.250000 0.794792 0.750000
Si Si7 0.154151 0.628094 0.427758
Si Si8 0.500000 0.476307 0.181633
O O1 0.429300 0.740890 0.431727
O O2 0.500000 0.654500 0.327722
O O3 0.500000 0.662500 0.562970
O O4 0.071567 0.973454 0.097916
O O5 0.170793 0.056918 0.051793
O O6 0.429368 0.182781 0.738845
O O7 0.311958 0.251617 0.694732
O O8 0.349985 0.162106 0.550849
O O9 0.426894 0.630352 0.133501
O O10 0.500000 0.544021 0.234197
O O11 0.000000 0.419883 0.232360
O O12 0.211564 0.837437 0.845926
#
# Coordination Sequence:
#
# PCOD9479279 Si02
#       8
#     8   8  16   8   8   8  16   8
#     4  11  22  35  59  88 122 147 193 244 303 335
#     4   9  18  36  64  86 108 147 198 244 280 347
#     4  11  23  38  59  87 118 158 191 242 288 356
#     4  10  20  38  63  88 114 154 194 247 294 341
#     4  11  21  37  62  91 113 148 196 250 289 340
#     4  12  24  38  58  86 126 158 188 232 306 352
#     4  11  21  39  63  86 116 153 202 241 288 346
#     4   9  17  34  64  90 107 144 196 243 294 334
#
# _framework density 17.481435000000001
#
# number of rings (size 3 to 8) (size 9 to 14) (size 15 to 20)
#    0.000    1.400    4.000    3.600    2.800    0.400 
#    0.000    1.000    8.800    0.000    0.000    0.000 
#    0.000    0.000    0.000    0.000    0.000    0.000 
#
# Total GULP energy -223421.828514 kJ/mol
# GULP energy per Si atom -5585.545713 kJ/mol
# Density = 1.744165 g / cm^3
# Si number density = 17.481435 Si / 1000 Ang^3
#
#
#
# Elastic Constant Matrix: (Units=GPa)
#
#
# Indices 1 2 3 4 5 6 
#
# 1 81.1865 41.8194 14.7027 0.0000 0.0000 0.0000
# 2 41.8194 119.0956 41.9470 0.0000 0.0000 0.0000
# 3 14.7027 41.9470 74.8366 0.0000 0.0000 0.0000
# 4 0.0000 0.0000 0.0000 8.5794 0.0000 0.0000
# 5 0.0000 0.0000 0.0000 0.0000 -5.2907 0.0000
# 6 0.0000 0.0000 0.0000 0.0000 0.0000 105.0437
#
#
#
# Elastic Compliance Matrix: (Units=1/GPa)
#
#
# Indices 1 2 3 4 5 6 
#
# 1 0.015037 -0.005283 0.000007 0.000000 0.000000 0.000000
# 2 -0.005283 0.012318 -0.005866 0.000000 0.000000 0.000000
# 3 0.000007 -0.005866 0.016649 0.000000 0.000000 0.000000
# 4 0.000000 0.000000 0.000000 0.116558 0.000000 0.000000
# 5 0.000000 0.000000 0.000000 0.000000 -0.189010 0.000000
# 6 0.000000 0.000000 0.000000 0.000000 0.000000 0.009520
#
#
# Mechanical properties :
#
#
# Convention : Reuss Voigt Hill
#
# Bulk Modulus (GPa) = 46.04121 52.45077 49.24599
# Shear Modulus (GPa) = 471.84202 33.44311 252.64257
#
# Velocity S-wave (km/s) = 16.44677 4.37860 12.03471
# Velocity P-wave (km/s) = 19.67374 7.45867 14.87763
#
# Compressibility (1/GPa) = 0.02171967
#
# Stress axis : x y z
#
# Youngs Moduli (GPa) = 66.50192 81.18346 60.06227
#
# Poissons Ratio (x) = 0.42885 -0.00040
# Poissons Ratio (y) = 0.35130 0.35235
# Poissons Ratio (z) = -0.00044 0.47626
#
# Static dielectric constant tensor:
#      x y z
#    x 2.144940 0.000000 0.000000 
#    y 0.000000 1.594950 0.000000 
#    z 0.000000 0.000000 1.577510 
# 
# From -- ./inp_files/14559.got.cif
#   From: 2010.05.17/outbox.cif.g08.bks.cpg/sg64_8_cif.got.tgz:14559.got - 2010.06.03 16:29:19.
