data_PCOD9479425
_publ_section_title
;
Structure prediction by ZEFSAII (Michael W. Deem and Ramdas Pophale) SiO2 
 PCOD9479425
Probable space group: C M C A
;
_chemical_formula_sum "Si O2"
_cell_formula_units_Z 96
_cell_length_a 21.162235
_cell_length_b 14.733238
_cell_length_c 13.532241
_cell_angle_alpha 90.000000
_cell_angle_beta 90.000000
_cell_angle_gamma 90.000000
_cell_volume 4219.193671
_symmetry_space_group_name_H-M "C M C A"
_symmetry_group_IT_number 64
_symmetry_cell_setting 'orthorhombic'
loop_
_space_group_symop_operation_xyz
x,y,z
-x,1/2-y,1/2+z
x,-y,-z
-x,1/2+y,1/2-z
-x,-y,-z
x,1/2+y,1/2-z
-x,y,z
x,1/2-y,1/2+z
1/2+x,1/2+y,z
1/2-x,-y,1/2+z
1/2+x,1/2-y,-z
1/2-x,y,1/2-z
1/2-x,1/2-y,-z
1/2+x,y,1/2-z
1/2-x,1/2+y,z
1/2+x,-y,1/2+z
loop_
_atom_site_type_symbol
_atom_site_label
_atom_site_fract_x
_atom_site_fract_y
_atom_site_fract_z
Si Si1 0.752375 0.242585 0.116575
Si Si2 0.500000 0.172623 0.416833
Si Si3 0.250000 0.585007 0.750000
Si Si4 0.611841 0.965168 0.240372
Si Si5 0.372996 0.137239 0.111230
Si Si6 0.500000 0.571422 0.878791
Si Si7 0.381841 0.795742 0.102368
Si Si8 0.000000 0.723452 0.190420
O O1 0.746816 0.343759 0.159889
O O2 0.694559 0.178519 0.148679
O O3 0.826541 0.226406 0.135997
O O4 0.750000 0.250000 0.000000
O O5 0.500000 0.095412 0.502994
O O6 0.561295 0.233861 0.432670
O O7 0.500000 0.170723 0.296216
O O8 0.313697 0.529584 0.763950
O O9 0.563173 0.975378 0.331761
O O10 0.603580 0.865951 0.189864
O O11 0.606683 0.041081 0.156101
O O12 0.433455 0.196711 0.141197
O O13 0.365554 0.142316 0.992768
O O14 0.500000 0.668513 0.823093
#
# Coordination Sequence:
#
# PCOD9479425 Si02
#       8
#    16   8   8  16  16   8  16   8
#     4   9  21  37  63  91 126 167 220 265 320 384
#     4  12  24  40  66 100 126 172 230 268 324 399
#     4  10  22  40  60  92 132 170 218 266 314 404
#     4  11  23  40  64  97 137 168 216 276 349 383
#     4  11  22  40  64  98 131 172 216 278 331 400
#     4  12  23  42  67  92 133 177 215 277 334 401
#     4  10  20  39  67  98 129 166 218 286 327 391
#     4  12  23  40  65  94 129 175 233 265 329 407
#
# _framework density 22.753163000000001
#
# number of rings (size 3 to 8) (size 9 to 14) (size 15 to 20)
#    0.000    1.333    3.333    2.000    4.667    0.667 
#    0.000    4.167    0.000    2.000    0.000    0.000 
#    0.000    0.000    0.000    0.000    0.000    0.000 
#
# Total GULP energy -267374.227211 kJ/mol
# GULP energy per Si atom -5570.296400 kJ/mol
# Density = 2.270138 g / cm^3
# Si number density = 22.753163 Si / 1000 Ang^3
#
#
#
# Elastic Constant Matrix: (Units=GPa)
#
#
# Indices 1 2 3 4 5 6 
#
# 1 110.5701 26.6870 20.3870 0.0000 0.0000 0.0000
# 2 26.6870 35.2014 -10.5335 0.0000 0.0000 0.0000
# 3 20.3870 -10.5335 134.0346 0.0000 0.0000 0.0000
# 4 0.0000 0.0000 0.0000 13.1330 0.0000 0.0000
# 5 0.0000 0.0000 0.0000 0.0000 29.7711 0.0000
# 6 0.0000 0.0000 0.0000 0.0000 0.0000 23.9016
#
#
#
# Elastic Compliance Matrix: (Units=1/GPa)
#
#
# Indices 1 2 3 4 5 6 
#
# 1 0.011878 -0.009776 -0.002575 0.000000 0.000000 0.000000
# 2 -0.009776 0.037137 0.004405 0.000000 0.000000 0.000000
# 3 -0.002575 0.004405 0.008199 0.000000 0.000000 0.000000
# 4 0.000000 0.000000 0.000000 0.076144 0.000000 0.000000
# 5 0.000000 0.000000 0.000000 0.000000 0.033590 0.000000
# 6 0.000000 0.000000 0.000000 0.000000 0.000000 0.041838
#
#
# Mechanical properties :
#
#
# Convention : Reuss Voigt Hill
#
# Bulk Modulus (GPa) = 24.19906 39.20965 31.70436
# Shear Modulus (GPa) = 20.96867 29.57887 25.27377
#
# Velocity S-wave (km/s) = 3.03903 3.60945 3.33645
# Velocity P-wave (km/s) = 4.79300 5.88565 5.36720
#
# Compressibility (1/GPa) = 0.04132392
#
# Stress axis : x y z
#
# Youngs Moduli (GPa) = 84.18747 26.92704 121.97153
#
# Poissons Ratio (x) = 0.26323 0.31407
# Poissons Ratio (y) = 0.82299 -0.53734
# Poissons Ratio (z) = 0.21678 -0.11863
#
# Static dielectric constant tensor:
#      x y z
#    x 1.949930 0.000000 0.000000 
#    y 0.000000 1.841670 0.000000 
#    z 0.000000 0.000000 2.441920 
# 
# From -- ./inp_files/26392.got.cif
#   From: 2010.05.17/outbox.cif.g08.bks.cpg/sg64_14_cif.got.tgz:26392.got - 2010.06.03 16:29:19.
