data_PCOD9479618
_publ_section_title
;
Structure prediction by ZEFSAII (Michael W. Deem and Ramdas Pophale) SiO2 
 PCOD9479618
Probable space group: C M C A
;
_chemical_formula_sum "Si O2"
_cell_formula_units_Z 104
_cell_length_a 27.554933
_cell_length_b 18.366226
_cell_length_c 9.092093
_cell_angle_alpha 90.000000
_cell_angle_beta 90.000000
_cell_angle_gamma 90.000000
_cell_volume 4601.327579
_symmetry_space_group_name_H-M "C M C A"
_symmetry_group_IT_number 64
_symmetry_cell_setting 'orthorhombic'
loop_
_space_group_symop_operation_xyz
x,y,z
-x,1/2-y,1/2+z
x,-y,-z
-x,1/2+y,1/2-z
-x,-y,-z
x,1/2+y,1/2-z
-x,y,z
x,1/2-y,1/2+z
1/2+x,1/2+y,z
1/2-x,-y,1/2+z
1/2+x,1/2-y,-z
1/2-x,y,1/2-z
1/2-x,1/2-y,-z
1/2+x,y,1/2-z
1/2-x,1/2+y,z
1/2+x,-y,1/2+z
loop_
_atom_site_type_symbol
_atom_site_label
_atom_site_fract_x
_atom_site_fract_y
_atom_site_fract_z
Si Si1 0.892526 0.399143 0.250277
Si Si2 0.911524 0.500000 0.000000
Si Si3 0.257659 0.172260 0.077132
Si Si4 0.140325 0.793754 0.474008
Si Si5 0.656924 0.379730 0.954536
Si Si6 0.082535 0.375025 0.793234
Si Si7 0.000000 0.151587 0.773696
Si Si8 0.500000 0.200844 0.394144
O O1 0.868183 0.415724 0.404824
O O2 0.950701 0.394358 0.262528
O O3 0.881359 0.453480 0.117280
O O4 0.873434 0.322002 0.187715
O O5 0.937423 0.440941 0.894471
O O6 0.250000 0.183279 0.250000
O O7 0.313070 0.160565 0.031421
O O8 0.250000 0.250000 0.000000
O O9 0.215347 0.115066 0.037344
O O10 0.148601 0.707891 0.467816
O O11 0.098548 0.814426 0.588734
O O12 0.628807 0.400343 0.805205
O O13 0.045644 0.339927 0.678841
O O14 0.000000 0.215030 0.652224
O O15 0.000000 0.190080 0.932364
#
# Coordination Sequence:
#
# PCOD9479618 Si02
#       8
#    16   8  16  16  16  16   8   8
#     4  11  25  42  65  90 130 171 211 266 309 381
#     4  10  28  47  64  86 124 176 234 256 316 355
#     4  10  21  33  57  97 137 167 202 251 324 402
#     4  10  21  37  63  98 135 161 203 257 335 389
#     4  11  20  37  65  96 128 164 204 264 332 374
#     4  11  23  42  64  89 128 172 208 266 302 380
#     4  12  26  42  65 105 131 159 200 255 330 397
#     4  12  26  40  67 103 133 157 204 251 332 393
#
# _framework density 22.602174000000002
#
# number of rings (size 3 to 8) (size 9 to 14) (size 15 to 20)
#    0.000    1.231    3.077    2.769   10.769    1.846 
#    0.000    0.769    0.000   14.769    0.000    0.000 
#    0.000    0.000    0.000    0.000    0.000    0.000 
#
# Total GULP energy -290531.761330 kJ/mol
# GULP energy per Si atom -5587.149256 kJ/mol
# Density = 2.255073 g / cm^3
# Si number density = 22.602174 Si / 1000 Ang^3
#
#
#
# Elastic Constant Matrix: (Units=GPa)
#
#
# Indices 1 2 3 4 5 6 
#
# 1 117.7254 7.6803 28.6305 0.0000 0.0000 0.0000
# 2 7.6803 50.0064 16.9639 0.0000 0.0000 0.0000
# 3 28.6305 16.9639 128.9162 0.0000 0.0000 0.0000
# 4 0.0000 0.0000 0.0000 40.2699 0.0000 0.0000
# 5 0.0000 0.0000 0.0000 0.0000 30.7627 0.0000
# 6 0.0000 0.0000 0.0000 0.0000 0.0000 -6.5927
#
#
#
# Elastic Compliance Matrix: (Units=1/GPa)
#
#
# Indices 1 2 3 4 5 6 
#
# 1 0.009005 -0.000738 -0.001903 0.000000 0.000000 0.000000
# 2 -0.000738 0.020992 -0.002599 0.000000 0.000000 0.000000
# 3 -0.001903 -0.002599 0.008522 0.000000 0.000000 0.000000
# 4 0.000000 0.000000 0.000000 0.024832 0.000000 0.000000
# 5 0.000000 0.000000 0.000000 0.000000 0.032507 0.000000
# 6 0.000000 0.000000 0.000000 0.000000 0.000000 -0.151682
#
#
# Mechanical properties :
#
#
# Convention : Reuss Voigt Hill
#
# Bulk Modulus (GPa) = 35.66203 44.79970 40.23086
# Shear Modulus (GPa) = -138.89232 29.11286 -54.88973
#
# Velocity S-wave (km/s) = -7.84756 3.59284 -4.93334
# Velocity P-wave (km/s) = 8.14248 6.08895 3.82260
#
# Compressibility (1/GPa) = 0.02804103
#
# Stress axis : x y z
#
# Youngs Moduli (GPa) = 111.04647 47.63672 117.34998
#
# Poissons Ratio (x) = 0.03513 0.22330
# Poissons Ratio (y) = 0.08190 0.30494
# Poissons Ratio (z) = 0.21131 0.12379
#
# Static dielectric constant tensor:
#      x y z
#    x 1.900740 0.000000 0.000000 
#    y 0.000000 1.802460 0.000000 
#    z 0.000000 0.000000 1.816630 
# 
# From -- ./inp_files/11233.got.cif
#   From: 2010.05.17/outbox.cif.g08.bks.cpg/sg64_6_cif.got.tgz:11233.got - 2010.06.03 16:29:19.
