data_PCOD9479173
_publ_section_title
;
Structure prediction by ZEFSAII (Michael W. Deem and Ramdas Pophale) SiO2 
 PCOD9479173
Probable space group: C M C A
;
_chemical_formula_sum "Si O2"
_cell_formula_units_Z 96
_cell_length_a 23.964869
_cell_length_b 15.184768
_cell_length_c 10.194898
_cell_angle_alpha 90.000000
_cell_angle_beta 90.000000
_cell_angle_gamma 90.000000
_cell_volume 3709.933332
_symmetry_space_group_name_H-M "C M C A"
_symmetry_group_IT_number 64
_symmetry_cell_setting 'orthorhombic'
loop_
_space_group_symop_operation_xyz
x,y,z
-x,1/2-y,1/2+z
x,-y,-z
-x,1/2+y,1/2-z
-x,-y,-z
x,1/2+y,1/2-z
-x,y,z
x,1/2-y,1/2+z
1/2+x,1/2+y,z
1/2-x,-y,1/2+z
1/2+x,1/2-y,-z
1/2-x,y,1/2-z
1/2-x,1/2-y,-z
1/2+x,y,1/2-z
1/2-x,1/2+y,z
1/2+x,-y,1/2+z
loop_
_atom_site_type_symbol
_atom_site_label
_atom_site_fract_x
_atom_site_fract_y
_atom_site_fract_z
Si Si1 0.616195 0.596518 0.317374
Si Si2 0.209810 0.500000 0.500000
Si Si3 0.000000 0.174213 0.561740
Si Si4 0.618563 0.914637 0.311562
Si Si5 0.375068 0.701319 0.569673
Si Si6 0.500000 0.891198 0.785438
Si Si7 0.287246 0.832217 0.636430
Si Si8 0.000000 0.577277 0.658034
O O1 0.605235 0.493811 0.291577
O O2 0.630387 0.623719 0.463510
O O3 0.560709 0.649498 0.271291
O O4 0.663784 0.622983 0.219076
O O5 0.169162 0.448374 0.399233
O O6 0.241168 0.582457 0.432644
O O7 0.059013 0.224991 0.550503
O O8 0.000000 0.128376 0.702831
O O9 0.000000 0.100573 0.445591
O O10 0.631484 0.832346 0.219035
O O11 0.561716 0.902367 0.396072
O O12 0.322797 0.766625 0.544835
O O13 0.500000 0.973507 0.688297
O O14 0.250000 0.788627 0.750000
#
# Coordination Sequence:
#
# PCOD9479173 Si02
#       8
#    16   8   8  16  16   8  16   8
#     4   9  19  37  62  95 129 168 215 259 316 379
#     4  10  24  47  64  86 128 157 216 274 330 392
#     4   8  15  29  53  95 131 171 199 258 314 378
#     4   9  18  36  62  95 131 174 208 261 314 379
#     4  10  20  37  66  96 134 166 218 260 318 384
#     4   8  13  27  56  89 126 166 207 259 304 370
#     4  11  26  46  65  91 123 166 217 274 333 386
#     4   8  13  25  53  91 131 166 214 245 305 378
#
# _framework density 25.876474999999999
#
# number of rings (size 3 to 8) (size 9 to 14) (size 15 to 20)
#    0.000    2.667    0.000    0.750    2.333    5.667 
#    6.000    3.333    0.000    0.000    0.000    0.000 
#    0.000    0.000    0.000    0.000    0.000    0.000 
#
# Total GULP energy -267640.784828 kJ/mol
# GULP energy per Si atom -5575.849684 kJ/mol
# Density = 2.581758 g / cm^3
# Si number density = 25.876475 Si / 1000 Ang^3
#
#
#
# Elastic Constant Matrix: (Units=GPa)
#
#
# Indices 1 2 3 4 5 6 
#
# 1 90.5689 17.6662 2.9445 0.0000 0.0000 0.0000
# 2 17.6662 85.8463 29.9653 0.0000 0.0000 0.0000
# 3 2.9445 29.9653 54.6173 0.0000 0.0000 0.0000
# 4 0.0000 0.0000 0.0000 50.9865 0.0000 0.0000
# 5 0.0000 0.0000 0.0000 0.0000 46.3657 0.0000
# 6 0.0000 0.0000 0.0000 0.0000 0.0000 22.8860
#
#
#
# Elastic Compliance Matrix: (Units=1/GPa)
#
#
# Indices 1 2 3 4 5 6 
#
# 1 0.011534 -0.002667 0.000842 0.000000 0.000000 0.000000
# 2 -0.002667 0.015025 -0.008099 0.000000 0.000000 0.000000
# 3 0.000842 -0.008099 0.022708 0.000000 0.000000 0.000000
# 4 0.000000 0.000000 0.000000 0.019613 0.000000 0.000000
# 5 0.000000 0.000000 0.000000 0.000000 0.021568 0.000000
# 6 0.000000 0.000000 0.000000 0.000000 0.000000 0.043695
#
#
# Mechanical properties :
#
#
# Convention : Reuss Voigt Hill
#
# Bulk Modulus (GPa) = 33.99492 36.90940 35.45216
# Shear Modulus (GPa) = 30.52544 36.07809 33.30177
#
# Velocity S-wave (km/s) = 3.43834 3.73801 3.59130
# Velocity P-wave (km/s) = 5.37855 5.73802 5.56119
#
# Compressibility (1/GPa) = 0.02941616
#
# Stress axis : x y z
#
# Youngs Moduli (GPa) = 86.69833 66.55664 44.03830
#
# Poissons Ratio (x) = 0.17753 -0.03706
# Poissons Ratio (y) = 0.23126 0.35668
# Poissons Ratio (z) = -0.07297 0.53907
#
# Static dielectric constant tensor:
#      x y z
#    x 2.067830 0.000000 0.000000 
#    y 0.000000 2.133830 0.000000 
#    z 0.000000 0.000000 2.024230 
# 
# From -- ./inp_files/18437.got.cif
#   From: 2010.05.17/outbox.cif.g08.bks.cpg/sg64_10_cif.got.tgz:18437.got - 2010.06.03 16:29:19.
