data_PCOD9479784
_publ_section_title
;
Structure prediction by ZEFSAII (Michael W. Deem and Ramdas Pophale) SiO2 
 PCOD9479784
Probable space group: C M C A
;
_chemical_formula_sum "Si O2"
_cell_formula_units_Z 56
_cell_length_a 34.135795
_cell_length_b 13.121505
_cell_length_c 5.409733
_cell_angle_alpha 90.000000
_cell_angle_beta 90.000000
_cell_angle_gamma 90.000000
_cell_volume 2423.089763
_symmetry_space_group_name_H-M "C M C A"
_symmetry_group_IT_number 64
_symmetry_cell_setting 'orthorhombic'
loop_
_space_group_symop_operation_xyz
x,y,z
-x,1/2-y,1/2+z
x,-y,-z
-x,1/2+y,1/2-z
-x,-y,-z
x,1/2+y,1/2-z
-x,y,z
x,1/2-y,1/2+z
1/2+x,1/2+y,z
1/2-x,-y,1/2+z
1/2+x,1/2-y,-z
1/2-x,y,1/2-z
1/2-x,1/2-y,-z
1/2+x,y,1/2-z
1/2-x,1/2+y,z
1/2+x,-y,1/2+z
loop_
_atom_site_type_symbol
_atom_site_label
_atom_site_fract_x
_atom_site_fract_y
_atom_site_fract_z
Si Si1 0.544289 0.067675 0.751352
Si Si2 0.376833 0.647222 0.872120
Si Si3 0.772237 0.000000 0.500000
Si Si4 0.655686 0.375226 0.623057
O O1 0.500000 0.108257 0.777812
O O2 0.577656 0.152113 0.704157
O O3 0.545282 0.000000 0.500000
O O4 0.551964 0.000000 0.000000
O O5 0.354138 0.754381 0.892156
O O6 0.358165 0.587793 0.644598
O O7 0.369215 0.597415 0.135682
O O8 0.799534 0.910731 0.619663
O O9 0.750000 0.962119 0.250000
#
# Coordination Sequence:
#
# PCOD9479784 Si02
#       4
#    16  16   8  16
#     4  10  21  36  60  98 137 175 220 272 318 366
#     4  10  21  41  62  97 130 175 217 267 319 386
#     4  12  26  46  68  98 127 166 213 280 346 406
#     4  10  23  41  65  95 128 165 224 261 327 407
#
# _framework density 23.110989
#
# number of rings (size 3 to 8) (size 9 to 14) (size 15 to 20)
#    0.000    1.714    0.000    3.429    6.000    0.000 
#    0.000   22.857    0.000    0.000    0.000    0.000 
#    0.000    0.000    0.000    0.000    0.000    0.000 
#
# Total GULP energy -155981.613613 kJ/mol
# GULP energy per Si atom -5570.771915 kJ/mol
# Density = 2.305839 g / cm^3
# Si number density = 23.110989 Si / 1000 Ang^3
#
#
#
# Elastic Constant Matrix: (Units=GPa)
#
#
# Indices 1 2 3 4 5 6 
#
# 1 132.9758 32.6084 27.9468 0.0000 0.0000 0.0000
# 2 32.6084 84.3708 21.4354 0.0000 0.0000 0.0000
# 3 27.9468 21.4354 204.1687 0.0000 0.0000 0.0000
# 4 0.0000 0.0000 0.0000 34.9621 0.0000 0.0000
# 5 0.0000 0.0000 0.0000 0.0000 44.3557 0.0000
# 6 0.0000 0.0000 0.0000 0.0000 0.0000 28.0886
#
#
#
# Elastic Compliance Matrix: (Units=1/GPa)
#
#
# Indices 1 2 3 4 5 6 
#
# 1 0.008444 -0.003051 -0.000835 0.000000 0.000000 0.000000
# 2 -0.003051 0.013280 -0.000977 0.000000 0.000000 0.000000
# 3 -0.000835 -0.000977 0.005115 0.000000 0.000000 0.000000
# 4 0.000000 0.000000 0.000000 0.028602 0.000000 0.000000
# 5 0.000000 0.000000 0.000000 0.000000 0.022545 0.000000
# 6 0.000000 0.000000 0.000000 0.000000 0.000000 0.035602
#
#
# Mechanical properties :
#
#
# Convention : Reuss Voigt Hill
#
# Bulk Modulus (GPa) = 58.43846 65.05517 61.74681
# Shear Modulus (GPa) = 38.75419 44.11624 41.43522
#
# Velocity S-wave (km/s) = 4.09941 4.37382 4.23883
# Velocity P-wave (km/s) = 6.90997 7.32920 7.12267
#
# Compressibility (1/GPa) = 0.01711202
#
# Stress axis : x y z
#
# Youngs Moduli (GPa) = 118.42757 75.30223 195.51100
#
# Poissons Ratio (x) = 0.22977 0.16334
# Poissons Ratio (y) = 0.36135 0.19093
# Poissons Ratio (z) = 0.09894 0.07354
#
# Static dielectric constant tensor:
#      x y z
#    x 1.921490 0.000000 0.000000 
#    y 0.000000 1.881630 0.000000 
#    z 0.000000 0.000000 1.916310 
# 
# From -- ./inp_files/3096.got.cif
#   From: 2010.05.17/outbox.cif.g08.bks.cpg/sg64_2_cif.got.tgz:3096.got - 2010.06.03 16:29:19.
