data_PCOD9479998
_publ_section_title
;
Structure prediction by ZEFSAII (Michael W. Deem and Ramdas Pophale) SiO2 
 PCOD9479998
Probable space group: C M C A
;
_chemical_formula_sum "Si O2"
_cell_formula_units_Z 112
_cell_length_a 14.852973
_cell_length_b 13.017524
_cell_length_c 25.403402
_cell_angle_alpha 90.000000
_cell_angle_beta 90.000000
_cell_angle_gamma 90.000000
_cell_volume 4911.720659
_symmetry_space_group_name_H-M "C M C A"
_symmetry_group_IT_number 64
_symmetry_cell_setting 'orthorhombic'
loop_
_space_group_symop_operation_xyz
x,y,z
-x,1/2-y,1/2+z
x,-y,-z
-x,1/2+y,1/2-z
-x,-y,-z
x,1/2+y,1/2-z
-x,y,z
x,1/2-y,1/2+z
1/2+x,1/2+y,z
1/2-x,-y,1/2+z
1/2+x,1/2-y,-z
1/2-x,y,1/2-z
1/2-x,1/2-y,-z
1/2+x,y,1/2-z
1/2-x,1/2+y,z
1/2+x,-y,1/2+z
loop_
_atom_site_type_symbol
_atom_site_label
_atom_site_fract_x
_atom_site_fract_y
_atom_site_fract_z
Si Si1 0.841630 0.375911 0.594956
Si Si2 0.106432 0.099732 0.884506
Si Si3 0.610187 0.289463 0.319915
Si Si4 0.851210 0.711981 0.512402
Si Si5 0.390223 0.233444 0.201171
Si Si6 0.644192 0.073592 0.050045
Si Si7 0.100875 0.484416 0.838190
O O1 0.879243 0.478581 0.622030
O O2 0.848430 0.282622 0.635453
O O3 0.888815 0.339747 0.540394
O O4 0.742192 0.404532 0.575016
O O5 0.151128 0.133480 0.939374
O O6 0.138504 0.174415 0.837658
O O7 0.000000 0.117815 0.890898
O O8 0.500000 0.287065 0.326070
O O9 0.632998 0.251499 0.261588
O O10 0.643300 0.406689 0.324881
O O11 0.750000 0.750000 0.500000
O O12 0.896243 0.816937 0.532617
O O13 0.500000 0.232437 0.197949
O O14 0.357155 0.121979 0.181892
O O15 0.594603 0.023003 0.098965
O O16 0.649458 0.000000 0.000000
O O17 0.000000 0.487868 0.814873
#
# Coordination Sequence:
#
# PCOD9479998 Si02
#       7
#    16  16  16  16  16  16  16
#     4  11  23  38  60  93 128 162 207 248 317 379
#     4  11  22  38  63  92 122 160 208 261 309 374
#     4  10  22  39  64  92 123 161 204 261 312 369
#     4  10  21  38  59  84 123 166 202 245 308 374
#     4   9  20  39  64  91 118 160 208 255 318 371
#     4  11  22  40  65  88 127 172 207 252 316 376
#     4  10  21  41  66  91 120 159 214 262 306 375
#
# _framework density 22.802599000000001
#
# number of rings (size 3 to 8) (size 9 to 14) (size 15 to 20)
#    0.000    1.714    1.429    3.429    2.000    3.143 
#    0.000    0.714    0.000    0.000    0.000    0.000 
#    0.000    0.000    0.000    0.000    0.000    0.000 
#
# Total GULP energy -313046.212532 kJ/mol
# GULP energy per Si atom -5590.110938 kJ/mol
# Density = 2.275070 g / cm^3
# Si number density = 22.802599 Si / 1000 Ang^3
#
#
#
# Elastic Constant Matrix: (Units=GPa)
#
#
# Indices 1 2 3 4 5 6 
#
# 1 51.7352 -4.4186 -11.3883 0.0000 0.0000 0.0000
# 2 -4.4186 168.7268 73.1200 0.0000 0.0000 0.0000
# 3 -11.3883 73.1200 141.2986 0.0000 0.0000 0.0000
# 4 0.0000 0.0000 0.0000 38.7732 0.0000 0.0000
# 5 0.0000 0.0000 0.0000 0.0000 11.9370 0.0000
# 6 0.0000 0.0000 0.0000 0.0000 0.0000 1253.5027
#
#
#
# Elastic Compliance Matrix: (Units=1/GPa)
#
#
# Indices 1 2 3 4 5 6 
#
# 1 0.019685 -0.000222 0.001701 0.000000 0.000000 0.000000
# 2 -0.000222 0.007643 -0.003973 0.000000 0.000000 0.000000
# 3 0.001701 -0.003973 0.009270 0.000000 0.000000 0.000000
# 4 0.000000 0.000000 0.000000 0.025791 0.000000 0.000000
# 5 0.000000 0.000000 0.000000 0.000000 0.083773 0.000000
# 6 0.000000 0.000000 0.000000 0.000000 0.000000 0.000798
#
#
# Mechanical properties :
#
#
# Convention : Reuss Voigt Hill
#
# Bulk Modulus (GPa) = 31.63457 52.93187 42.28322
# Shear Modulus (GPa) = 30.77247 281.13909 155.95578
#
# Velocity S-wave (km/s) = 3.67756 11.11576 8.27903
# Velocity P-wave (km/s) = 5.65119 13.71169 10.48681
#
# Compressibility (1/GPa) = 0.03161099
#
# Stress axis : x y z
#
# Youngs Moduli (GPa) = 50.80075 130.84551 107.87250
#
# Poissons Ratio (x) = 0.02902 -0.18353
# Poissons Ratio (y) = 0.01127 0.42856
# Poissons Ratio (z) = -0.08643 0.51982
#
# Static dielectric constant tensor:
#      x y z
#    x 1.915560 0.000000 0.000000 
#    y 0.000000 1.853430 0.000000 
#    z 0.000000 0.000000 1.814630 
# 
# From -- ./inp_files/46324.got.cif
#   From: 2010.05.17/outbox.cif.g08.bks.cpg/sg64_24_cif.got.tgz:46324.got - 2010.06.03 16:29:19.
