data_PCOD9479948
_publ_section_title
;
Structure prediction by ZEFSAII (Michael W. Deem and Ramdas Pophale) SiO2 
 PCOD9479948
Probable space group: C M C A
;
_chemical_formula_sum "Si O2"
_cell_formula_units_Z 96
_cell_length_a 19.677764
_cell_length_b 26.646902
_cell_length_c 8.848034
_cell_angle_alpha 90.000000
_cell_angle_beta 90.000000
_cell_angle_gamma 90.000000
_cell_volume 4639.479448
_symmetry_space_group_name_H-M "C M C A"
_symmetry_group_IT_number 64
_symmetry_cell_setting 'orthorhombic'
loop_
_space_group_symop_operation_xyz
x,y,z
-x,1/2-y,1/2+z
x,-y,-z
-x,1/2+y,1/2-z
-x,-y,-z
x,1/2+y,1/2-z
-x,y,z
x,1/2-y,1/2+z
1/2+x,1/2+y,z
1/2-x,-y,1/2+z
1/2+x,1/2-y,-z
1/2-x,y,1/2-z
1/2-x,1/2-y,-z
1/2+x,y,1/2-z
1/2-x,1/2+y,z
1/2+x,-y,1/2+z
loop_
_atom_site_type_symbol
_atom_site_label
_atom_site_fract_x
_atom_site_fract_y
_atom_site_fract_z
Si Si1 0.570894 0.321277 0.173685
Si Si2 0.823992 0.406451 0.326480
Si Si3 0.919299 0.012323 0.678370
Si Si4 0.671005 0.181546 0.234134
Si Si5 0.174673 0.571858 0.324837
Si Si6 0.888278 0.735253 0.955834
O O1 0.500000 0.349569 0.144172
O O2 0.638859 0.353095 0.151498
O O3 0.571864 0.300629 0.343427
O O4 0.572510 0.272863 0.066022
O O5 0.750000 0.402926 0.250000
O O6 0.876489 0.438245 0.223937
O O7 0.816972 0.429534 0.494078
O O8 0.000000 0.015847 0.715557
O O9 0.914127 0.000000 0.500000
O O10 0.878981 0.968943 0.767812
O O11 0.750000 0.174742 0.250000
O O12 0.644169 0.126547 0.278006
O O13 0.650803 0.226343 0.346201
O O14 0.654171 0.199551 0.066032
O O15 0.250000 0.564231 0.250000
#
# Coordination Sequence:
#
# PCOD9479948 Si02
#       6
#    16  16  16  16  16  16
#     4  11  24  42  65  95 133 178 224 272 327 390
#     4  12  26  44  71 101 134 175 219 276 332 396
#     4  11  26  48  73 102 132 171 217 270 331 399
#     4  10  21  37  63  96 134 174 220 270 322 385
#     4  11  24  44  68 100 136 175 219 273 332 395
#     4  10  22  40  62  93 131 178 224 272 322 383
#
# _framework density 20.691976
#
# number of rings (size 3 to 8) (size 9 to 14) (size 15 to 20)
#    0.000    1.167    1.667    3.500    7.000    4.667 
#    0.000    0.833    0.000    0.000    0.000    0.000 
#    0.000    0.000    0.000    0.000    0.000    0.000 
#
# Total GULP energy -267952.872574 kJ/mol
# GULP energy per Si atom -5582.351512 kJ/mol
# Density = 2.064488 g / cm^3
# Si number density = 20.691976 Si / 1000 Ang^3
#
#
#
# Elastic Constant Matrix: (Units=GPa)
#
#
# Indices 1 2 3 4 5 6 
#
# 1 137.7673 28.6580 40.8591 0.0000 0.0000 0.0000
# 2 28.6580 43.4856 -5.9789 0.0000 0.0000 0.0000
# 3 40.8591 -5.9789 110.1008 0.0000 0.0000 0.0000
# 4 0.0000 0.0000 0.0000 -35.0390 0.0000 0.0000
# 5 0.0000 0.0000 0.0000 0.0000 -4.5212 0.0000
# 6 0.0000 0.0000 0.0000 0.0000 0.0000 -3.3203
#
#
#
# Elastic Compliance Matrix: (Units=1/GPa)
#
#
# Indices 1 2 3 4 5 6 
#
# 1 0.009949 -0.007117 -0.004079 0.000000 0.000000 0.000000
# 2 -0.007117 0.028261 0.004176 0.000000 0.000000 0.000000
# 3 -0.004079 0.004176 0.010823 0.000000 0.000000 0.000000
# 4 0.000000 0.000000 0.000000 -0.028540 0.000000 0.000000
# 5 0.000000 0.000000 0.000000 0.000000 -0.221179 0.000000
# 6 0.000000 0.000000 0.000000 0.000000 0.000000 -0.301175
#
#
# Mechanical properties :
#
#
# Convention : Reuss Voigt Hill
#
# Bulk Modulus (GPa) = 28.57742 46.49223 37.53483
# Shear Modulus (GPa) = -10.50071 6.61159 -1.94456
#
# Velocity S-wave (km/s) = -2.25517 1.78946 -0.97047
# Velocity P-wave (km/s) = 2.65703 5.17562 4.11381
#
# Compressibility (1/GPa) = 0.03499266
#
# Stress axis : x y z
#
# Youngs Moduli (GPa) = 100.51534 35.38486 92.39654
#
# Poissons Ratio (x) = 0.25184 0.37684
# Poissons Ratio (y) = 0.71539 -0.38584
# Poissons Ratio (z) = 0.40995 -0.14776
#
# Static dielectric constant tensor:
#      x y z
#    x 1.728470 0.000000 0.000000 
#    y 0.000000 1.756480 0.000000 
#    z 0.000000 0.000000 1.713440 
# 
# From -- ./inp_files/8426.got.cif
#   From: 2010.05.17/outbox.cif.g08.bks.cpg/sg64_5_cif.got.tgz:8426.got - 2010.06.03 16:29:19.
