data_PCOD9479019
_publ_section_title
;
Structure prediction by ZEFSAII (Michael W. Deem and Ramdas Pophale) SiO2 
 PCOD9479019
Probable space group: C M C A
;
_chemical_formula_sum "Si O2"
_cell_formula_units_Z 112
_cell_length_a 18.958092
_cell_length_b 27.543301
_cell_length_c 11.586607
_cell_angle_alpha 90.000000
_cell_angle_beta 90.000000
_cell_angle_gamma 90.000000
_cell_volume 6050.160437
_symmetry_space_group_name_H-M "C M C A"
_symmetry_group_IT_number 64
_symmetry_cell_setting 'orthorhombic'
loop_
_space_group_symop_operation_xyz
x,y,z
-x,1/2-y,1/2+z
x,-y,-z
-x,1/2+y,1/2-z
-x,-y,-z
x,1/2+y,1/2-z
-x,y,z
x,1/2-y,1/2+z
1/2+x,1/2+y,z
1/2-x,-y,1/2+z
1/2+x,1/2-y,-z
1/2-x,y,1/2-z
1/2-x,1/2-y,-z
1/2+x,y,1/2-z
1/2-x,1/2+y,z
1/2+x,-y,1/2+z
loop_
_atom_site_type_symbol
_atom_site_label
_atom_site_fract_x
_atom_site_fract_y
_atom_site_fract_z
Si Si1 0.080724 0.412190 0.232103
Si Si2 0.860177 0.653349 0.407392
Si Si3 0.720671 0.695984 0.466853
Si Si4 0.716202 0.604392 0.623508
Si Si5 0.418638 0.296662 0.685217
Si Si6 0.851957 0.943938 0.028929
Si Si7 0.919725 0.812029 0.147410
O O1 0.139864 0.420278 0.135881
O O2 0.103418 0.435930 0.353745
O O3 0.088573 0.355148 0.262468
O O4 0.000000 0.423233 0.202928
O O5 0.779540 0.669887 0.386312
O O6 0.905306 0.673475 0.301871
O O7 0.873794 0.596443 0.433671
O O8 0.875448 0.678541 0.532034
O O9 0.750000 0.750000 0.500000
O O10 0.714585 0.658589 0.573230
O O11 0.644037 0.694909 0.406441
O O12 0.750000 0.607164 0.750000
O O13 0.771258 0.571842 0.552981
O O14 0.500000 0.304301 0.645160
O O15 0.409486 0.239185 0.708049
O O16 0.857585 0.000000 0.000000
O O17 0.000000 0.814053 0.104710
#
# Coordination Sequence:
#
# PCOD9479019 Si02
#       7
#    16  16  16  16  16  16  16
#     4   9  18  33  56  86 111 138 188 236 281 344
#     4  10  20  37  56  80 109 147 193 240 277 331
#     4  11  22  35  53  79 114 149 190 236 269 331
#     4   9  20  36  57  82 108 145 188 231 286 335
#     4  11  23  36  52  80 116 155 188 223 286 344
#     4   9  19  38  61  83 110 147 194 245 292 332
#     4   9  18  32  50  76 110 147 183 226 277 335
#
# _framework density 18.511904999999999
#
# number of rings (size 3 to 8) (size 9 to 14) (size 15 to 20)
#    0.000    2.286    1.429    1.714    2.000    1.429 
#    0.000    8.571    0.000    0.429    0.000    0.000 
#    0.000    0.000    0.000    0.000    0.000    0.000 
#
# Total GULP energy -311897.235469 kJ/mol
# GULP energy per Si atom -5569.593491 kJ/mol
# Density = 1.846977 g / cm^3
# Si number density = 18.511905 Si / 1000 Ang^3
#
#
#
# Elastic Constant Matrix: (Units=GPa)
#
#
# Indices 1 2 3 4 5 6 
#
# 1 104.5534 10.8986 11.1766 0.0000 0.0000 0.0000
# 2 10.8986 107.6971 18.8525 0.0000 0.0000 0.0000
# 3 11.1766 18.8525 29.1560 0.0000 0.0000 0.0000
# 4 0.0000 0.0000 0.0000 8.8150 0.0000 0.0000
# 5 0.0000 0.0000 0.0000 0.0000 25.2449 0.0000
# 6 0.0000 0.0000 0.0000 0.0000 0.0000 11.7193
#
#
#
# Elastic Compliance Matrix: (Units=1/GPa)
#
#
# Indices 1 2 3 4 5 6 
#
# 1 0.009987 -0.000384 -0.003580 0.000000 0.000000 0.000000
# 2 -0.000384 0.010485 -0.006633 0.000000 0.000000 0.000000
# 3 -0.003580 -0.006633 0.039959 0.000000 0.000000 0.000000
# 4 0.000000 0.000000 0.000000 0.113443 0.000000 0.000000
# 5 0.000000 0.000000 0.000000 0.000000 0.039612 0.000000
# 6 0.000000 0.000000 0.000000 0.000000 0.000000 0.085329
#
#
# Mechanical properties :
#
#
# Convention : Reuss Voigt Hill
#
# Bulk Modulus (GPa) = 25.48536 35.91801 30.70169
# Shear Modulus (GPa) = 15.01099 22.52109 18.76604
#
# Velocity S-wave (km/s) = 2.85069 3.49173 3.18736
# Velocity P-wave (km/s) = 4.96308 5.97503 5.49241
#
# Compressibility (1/GPa) = 0.03923821
#
# Stress axis : x y z
#
# Youngs Moduli (GPa) = 100.12784 95.37251 25.02542
#
# Poissons Ratio (x) = 0.03662 0.08960
# Poissons Ratio (y) = 0.03844 0.16598
# Poissons Ratio (z) = 0.35848 0.63257
#
# Static dielectric constant tensor:
#      x y z
#    x 1.722790 0.000000 0.000000 
#    y 0.000000 1.647520 0.000000 
#    z 0.000000 0.000000 1.649590 
# 
# From -- ./inp_files/17556.got.cif
#   From: 2010.05.17/outbox.cif.g08.bks.cpg/sg64_9_cif.got.tgz:17556.got - 2010.06.03 16:29:19.
