data_PCOD9479230
_publ_section_title
;
Structure prediction by ZEFSAII (Michael W. Deem and Ramdas Pophale) SiO2 
 PCOD9479230
Probable space group: C M C A
;
_chemical_formula_sum "Si O2"
_cell_formula_units_Z 56
_cell_length_a 26.309086
_cell_length_b 16.731780
_cell_length_c 4.775716
_cell_angle_alpha 90.000000
_cell_angle_beta 90.000000
_cell_angle_gamma 90.000000
_cell_volume 2102.259863
_symmetry_space_group_name_H-M "C M C A"
_symmetry_group_IT_number 64
_symmetry_cell_setting 'orthorhombic'
loop_
_space_group_symop_operation_xyz
x,y,z
-x,1/2-y,1/2+z
x,-y,-z
-x,1/2+y,1/2-z
-x,-y,-z
x,1/2+y,1/2-z
-x,y,z
x,1/2-y,1/2+z
1/2+x,1/2+y,z
1/2-x,-y,1/2+z
1/2+x,1/2-y,-z
1/2-x,y,1/2-z
1/2-x,1/2-y,-z
1/2+x,y,1/2-z
1/2-x,1/2+y,z
1/2+x,-y,1/2+z
loop_
_atom_site_type_symbol
_atom_site_label
_atom_site_fract_x
_atom_site_fract_y
_atom_site_fract_z
Si Si1 0.500000 0.307886 0.802454
Si Si2 0.750000 0.866939 0.250000
Si Si3 0.911772 0.584096 0.063977
Si Si4 0.642782 0.802860 0.378970
Si Si5 0.318589 0.500000 0.500000
O O1 0.500000 0.272958 0.114219
O O2 0.548293 0.361560 0.724631
O O3 0.703309 0.817967 0.374351
O O4 0.780693 0.927977 0.443093
O O5 0.889159 0.629349 0.785915
O O6 0.859766 0.545881 0.201019
O O7 0.939247 0.500000 0.000000
O O8 0.632050 0.776222 0.693358
#
# Coordination Sequence:
#
# PCOD9479230 Si02
#       5
#     8   8  16  16   8
#     4  12  25  46  75 104 136 176 226 288 355 421
#     4  10  20  38  60  96 128 184 226 284 330 398
#     4   9  21  44  69 100 139 182 228 284 346 417
#     4  11  23  41  64  96 135 177 226 281 339 396
#     4   8  20  37  64  92 140 177 236 280 340 396
#
# _framework density 26.638000999999999
#
# number of rings (size 3 to 8) (size 9 to 14) (size 15 to 20)
#    0.857    1.143    0.000    3.000    0.000    4.571 
#    0.000    8.571    0.000    0.000    0.000    0.000 
#    0.000    0.000    0.000    0.000    0.000    0.000 
#
# Total GULP energy -156202.728357 kJ/mol
# GULP energy per Si atom -5578.668870 kJ/mol
# Density = 2.657737 g / cm^3
# Si number density = 26.638001 Si / 1000 Ang^3
#
#
#
# Elastic Constant Matrix: (Units=GPa)
#
#
# Indices 1 2 3 4 5 6 
#
# 1 194.0375 69.7750 36.1429 0.0000 0.0000 0.0000
# 2 69.7750 120.0157 0.0447 0.0000 0.0000 0.0000
# 3 36.1429 0.0447 71.9176 0.0000 0.0000 0.0000
# 4 0.0000 0.0000 0.0000 17.0954 0.0000 0.0000
# 5 0.0000 0.0000 0.0000 0.0000 23.7508 0.0000
# 6 0.0000 0.0000 0.0000 0.0000 0.0000 93.4442
#
#
#
# Elastic Compliance Matrix: (Units=1/GPa)
#
#
# Indices 1 2 3 4 5 6 
#
# 1 0.007389 -0.004295 -0.003711 0.000000 0.000000 0.000000
# 2 -0.004295 0.010828 0.002152 0.000000 0.000000 0.000000
# 3 -0.003711 0.002152 0.015768 0.000000 0.000000 0.000000
# 4 0.000000 0.000000 0.000000 0.058495 0.000000 0.000000
# 5 0.000000 0.000000 0.000000 0.000000 0.042104 0.000000
# 6 0.000000 0.000000 0.000000 0.000000 0.000000 0.010702
#
#
# Mechanical properties :
#
#
# Convention : Reuss Voigt Hill
#
# Bulk Modulus (GPa) = 44.88714 66.43290 55.66002
# Shear Modulus (GPa) = 30.40988 45.52528 37.96758
#
# Velocity S-wave (km/s) = 3.38242 4.13853 3.77943
# Velocity P-wave (km/s) = 5.66937 6.91592 6.32343
#
# Compressibility (1/GPa) = 0.02227810
#
# Stress axis : x y z
#
# Youngs Moduli (GPa) = 135.33354 92.35130 63.41803
#
# Poissons Ratio (x) = 0.39661 0.23533
# Poissons Ratio (y) = 0.58120 -0.13645
# Poissons Ratio (z) = 0.50220 -0.19870
#
# Static dielectric constant tensor:
#      x y z
#    x 2.049520 0.000000 0.000000 
#    y 0.000000 2.183140 0.000000 
#    z 0.000000 0.000000 2.437100 
# 
# From -- ./inp_files/2655.got.cif
#   From: 2010.05.17/outbox.cif.g08.bks.cpg/sg64_2_cif.got.tgz:2655.got - 2010.06.03 16:29:19.
