data_PCOD9479209
_publ_section_title
;
Structure prediction by ZEFSAII (Michael W. Deem and Ramdas Pophale) SiO2 
 PCOD9479209
Probable space group: C M C A
;
_chemical_formula_sum "Si O2"
_cell_formula_units_Z 80
_cell_length_a 25.415308
_cell_length_b 24.989074
_cell_length_c 5.427549
_cell_angle_alpha 90.000000
_cell_angle_beta 90.000000
_cell_angle_gamma 90.000000
_cell_volume 3447.063575
_symmetry_space_group_name_H-M "C M C A"
_symmetry_group_IT_number 64
_symmetry_cell_setting 'orthorhombic'
loop_
_space_group_symop_operation_xyz
x,y,z
-x,1/2-y,1/2+z
x,-y,-z
-x,1/2+y,1/2-z
-x,-y,-z
x,1/2+y,1/2-z
-x,y,z
x,1/2-y,1/2+z
1/2+x,1/2+y,z
1/2-x,-y,1/2+z
1/2+x,1/2-y,-z
1/2-x,y,1/2-z
1/2-x,1/2-y,-z
1/2+x,y,1/2-z
1/2-x,1/2+y,z
1/2+x,-y,1/2+z
loop_
_atom_site_type_symbol
_atom_site_label
_atom_site_fract_x
_atom_site_fract_y
_atom_site_fract_z
Si Si1 0.190658 0.947971 0.336250
Si Si2 0.412278 0.059160 0.511218
Si Si3 0.147817 0.778667 0.994048
Si Si4 0.940528 0.830028 0.261234
Si Si5 0.362989 0.631460 0.343059
O O1 0.250000 0.950973 0.250000
O O2 0.145470 0.947653 0.131320
O O3 0.181581 0.894530 0.493306
O O4 0.180639 0.000000 0.500000
O O5 0.438788 0.108571 0.657477
O O6 0.401228 0.083731 0.243580
O O7 0.436662 0.000000 0.500000
O O8 0.166034 0.756584 0.258503
O O9 0.085726 0.790896 0.057298
O O10 0.160975 0.837881 0.891303
O O11 0.900433 0.830529 0.492937
O O12 0.000000 0.816019 0.321329
#
# Coordination Sequence:
#
# PCOD9479209 Si02
#       5
#    16  16  16  16  16
#     4  11  22  36  63 100 134 174 222 279 340 402
#     4  10  20  38  59  85 128 176 216 261 327 402
#     4  11  22  43  67  93 123 172 222 278 340 392
#     4  10  23  39  59  92 127 166 220 278 332 399
#     4  10  22  40  63  93 135 176 219 282 337 410
#
# _framework density 23.208159999999999
#
# number of rings (size 3 to 8) (size 9 to 14) (size 15 to 20)
#    0.000    1.600    4.000    0.600    0.000    4.400 
#    0.000    1.000    0.000    1.200    0.000    0.000 
#    0.000    0.000    0.000    0.000    0.000    0.000 
#
# Total GULP energy -223035.920002 kJ/mol
# GULP energy per Si atom -5575.898000 kJ/mol
# Density = 2.315534 g / cm^3
# Si number density = 23.208160 Si / 1000 Ang^3
#
#
#
# Elastic Constant Matrix: (Units=GPa)
#
#
# Indices 1 2 3 4 5 6 
#
# 1 51.4167 -8.5493 11.8732 0.0000 0.0000 0.0000
# 2 -8.5493 105.2482 40.0396 0.0000 0.0000 0.0000
# 3 11.8732 40.0396 120.7287 0.0000 0.0000 0.0000
# 4 0.0000 0.0000 0.0000 67.7822 0.0000 0.0000
# 5 0.0000 0.0000 0.0000 0.0000 -5.4322 0.0000
# 6 0.0000 0.0000 0.0000 0.0000 0.0000 9.8449
#
#
#
# Elastic Compliance Matrix: (Units=1/GPa)
#
#
# Indices 1 2 3 4 5 6 
#
# 1 0.020596 0.002796 -0.002953 0.000000 0.000000 0.000000
# 2 0.002796 0.011253 -0.004007 0.000000 0.000000 0.000000
# 3 -0.002953 -0.004007 0.009902 0.000000 0.000000 0.000000
# 4 0.000000 0.000000 0.000000 0.014753 0.000000 0.000000
# 5 0.000000 0.000000 0.000000 0.000000 -0.184089 0.000000
# 6 0.000000 0.000000 0.000000 0.000000 0.000000 0.101575
#
#
# Mechanical properties :
#
#
# Convention : Reuss Voigt Hill
#
# Bulk Modulus (GPa) = 29.91870 40.45784 35.18827
# Shear Modulus (GPa) = -764.46030 30.04100 -367.20965
#
# Velocity S-wave (km/s) = -18.16887 3.60170 -12.59237
# Velocity P-wave (km/s) = 20.66941 5.89634 14.00817
#
# Compressibility (1/GPa) = 0.03342392
#
# Stress axis : x y z
#
# Youngs Moduli (GPa) = 48.55358 88.86602 100.98590
#
# Poissons Ratio (x) = -0.24850 0.29820
# Poissons Ratio (y) = -0.13577 0.40465
# Poissons Ratio (z) = 0.14338 0.35609
#
# Static dielectric constant tensor:
#      x y z
#    x 1.800020 0.000000 0.000000 
#    y 0.000000 1.961620 0.000000 
#    z 0.000000 0.000000 1.943610 
# 
# From -- ./inp_files/2897.got.cif
#   From: 2010.05.17/outbox.cif.g08.bks.cpg/sg64_2_cif.got.tgz:2897.got - 2010.06.03 16:29:19.
