data_PCOD9479532
_publ_section_title
;
Structure prediction by ZEFSAII (Michael W. Deem and Ramdas Pophale) SiO2 
 PCOD9479532
Probable space group: C M C A
;
_chemical_formula_sum "Si O2"
_cell_formula_units_Z 88
_cell_length_a 32.893709
_cell_length_b 8.975523
_cell_length_c 14.919232
_cell_angle_alpha 90.000000
_cell_angle_beta 90.000000
_cell_angle_gamma 90.000000
_cell_volume 4404.727823
_symmetry_space_group_name_H-M "C M C A"
_symmetry_group_IT_number 64
_symmetry_cell_setting 'orthorhombic'
loop_
_space_group_symop_operation_xyz
x,y,z
-x,1/2-y,1/2+z
x,-y,-z
-x,1/2+y,1/2-z
-x,-y,-z
x,1/2+y,1/2-z
-x,y,z
x,1/2-y,1/2+z
1/2+x,1/2+y,z
1/2-x,-y,1/2+z
1/2+x,1/2-y,-z
1/2-x,y,1/2-z
1/2-x,1/2-y,-z
1/2+x,y,1/2-z
1/2-x,1/2+y,z
1/2+x,-y,1/2+z
loop_
_atom_site_type_symbol
_atom_site_label
_atom_site_fract_x
_atom_site_fract_y
_atom_site_fract_z
Si Si1 0.424401 0.440677 0.756905
Si Si2 0.306588 0.209827 0.811223
Si Si3 0.629725 0.193643 0.658282
Si Si4 0.250000 0.035865 0.250000
Si Si5 0.630572 0.169691 0.971140
Si Si6 0.544533 0.316116 0.378017
O O1 0.395307 0.545730 0.816662
O O2 0.396768 0.332967 0.695538
O O3 0.450635 0.334734 0.820329
O O4 0.449550 0.548389 0.691916
O O5 0.279874 0.358065 0.806175
O O6 0.276408 0.069622 0.814674
O O7 0.340942 0.208270 0.887021
O O8 0.670437 0.194478 0.716337
O O9 0.637386 0.221265 0.554435
O O10 0.583264 0.177900 0.942890
O O11 0.639409 0.000000 0.000000
O O12 0.500000 0.323460 0.420694
#
# Coordination Sequence:
#
# PCOD9479532 Si02
#       6
#    16  16  16   8  16  16
#     4  10  20  41  64  92 127 169 223 264 320 377
#     4  11  22  45  68  91 137 163 215 266 324 391
#     4  11  21  41  68  94 122 173 220 260 315 392
#     4  10  24  42  68 100 124 172 204 272 334 378
#     4  12  23  40  68  97 127 178 220 260 324 390
#     4  11  23  40  63  98 135 169 222 273 319 377
#
# _framework density 19.978532000000001
#
# number of rings (size 3 to 8) (size 9 to 14) (size 15 to 20)
#    0.000    1.091    5.455    2.727    0.000    1.091 
#    0.000   12.727    0.000    0.000    0.000    0.000 
#    0.000    0.000    0.000    0.000    0.000    0.000 
#
# Total GULP energy -246040.086732 kJ/mol
# GULP energy per Si atom -5591.820153 kJ/mol
# Density = 1.993306 g / cm^3
# Si number density = 19.978532 Si / 1000 Ang^3
#
#
#
# Elastic Constant Matrix: (Units=GPa)
#
#
# Indices 1 2 3 4 5 6 
#
# 1 128.1447 35.4471 37.1645 0.0000 0.0000 0.0000
# 2 35.4471 106.5128 16.5999 0.0000 0.0000 0.0000
# 3 37.1645 16.5999 85.3633 0.0000 0.0000 0.0000
# 4 0.0000 0.0000 0.0000 7.3886 0.0000 0.0000
# 5 0.0000 0.0000 0.0000 0.0000 -3.3181 0.0000
# 6 0.0000 0.0000 0.0000 0.0000 0.0000 2.8897
#
#
#
# Elastic Compliance Matrix: (Units=1/GPa)
#
#
# Indices 1 2 3 4 5 6 
#
# 1 0.009592 -0.002621 -0.003666 0.000000 0.000000 0.000000
# 2 -0.002621 0.010398 -0.000881 0.000000 0.000000 0.000000
# 3 -0.003666 -0.000881 0.013482 0.000000 0.000000 0.000000
# 4 0.000000 0.000000 0.000000 0.135344 0.000000 0.000000
# 5 0.000000 0.000000 0.000000 0.000000 -0.301379 0.000000
# 6 0.000000 0.000000 0.000000 0.000000 0.000000 0.346059
#
#
# Mechanical properties :
#
#
# Convention : Reuss Voigt Hill
#
# Bulk Modulus (GPa) = 52.25804 55.38264 53.82034
# Shear Modulus (GPa) = 21.34825 16.77931 19.06378
#
# Velocity S-wave (km/s) = 3.27243 2.90119 3.09239
# Velocity P-wave (km/s) = 6.36335 6.24530 6.30460
#
# Compressibility (1/GPa) = 0.01913581
#
# Stress axis : x y z
#
# Youngs Moduli (GPa) = 104.25399 96.17201 74.17192
#
# Poissons Ratio (x) = 0.25204 0.27194
# Poissons Ratio (y) = 0.27323 0.06535
# Poissons Ratio (z) = 0.38224 0.08473
#
# Static dielectric constant tensor:
#      x y z
#    x 1.715920 0.000000 0.000000 
#    y 0.000000 1.719030 0.000000 
#    z 0.000000 0.000000 1.678220 
# 
# From -- ./inp_files/35697.got.cif
#   From: 2010.05.17/outbox.cif.g08.bks.cpg/sg64_18_cif.got.tgz:35697.got - 2010.06.03 16:29:19.
