data_PCOD9479281
_publ_section_title
;
Structure prediction by ZEFSAII (Michael W. Deem and Ramdas Pophale) SiO2 
 PCOD9479281
Probable space group: C M C A
;
_chemical_formula_sum "Si O2"
_cell_formula_units_Z 88
_cell_length_a 14.532291
_cell_length_b 23.199540
_cell_length_c 13.629026
_cell_angle_alpha 90.000000
_cell_angle_beta 90.000000
_cell_angle_gamma 90.000000
_cell_volume 4594.923440
_symmetry_space_group_name_H-M "C M C A"
_symmetry_group_IT_number 64
_symmetry_cell_setting 'orthorhombic'
loop_
_space_group_symop_operation_xyz
x,y,z
-x,1/2-y,1/2+z
x,-y,-z
-x,1/2+y,1/2-z
-x,-y,-z
x,1/2+y,1/2-z
-x,y,z
x,1/2-y,1/2+z
1/2+x,1/2+y,z
1/2-x,-y,1/2+z
1/2+x,1/2-y,-z
1/2-x,y,1/2-z
1/2-x,1/2-y,-z
1/2+x,y,1/2-z
1/2-x,1/2+y,z
1/2+x,-y,1/2+z
loop_
_atom_site_type_symbol
_atom_site_label
_atom_site_fract_x
_atom_site_fract_y
_atom_site_fract_z
Si Si1 0.107246 0.764801 0.268807
Si Si2 0.809765 0.128224 0.842414
Si Si3 0.395813 0.488127 0.115605
Si Si4 0.314653 0.304039 0.473838
Si Si5 0.891497 0.648075 0.172480
Si Si6 0.250000 0.944211 0.750000
O O1 0.154097 0.809959 0.195243
O O2 0.127970 0.784642 0.378785
O O3 0.134877 0.699100 0.248750
O O4 0.000000 0.767620 0.248782
O O5 0.750000 0.106449 0.750000
O O6 0.747245 0.142597 0.935976
O O7 0.884201 0.080249 0.866248
O O8 0.500000 0.506315 0.143730
O O9 0.315678 0.519344 0.177275
O O10 0.384423 0.500000 0.000000
O O11 0.250000 0.250000 0.500000
O O12 0.374312 0.323847 0.565879
O O13 0.821983 0.595803 0.190426
O O14 0.000000 0.633575 0.184050
#
# Coordination Sequence:
#
# PCOD9479281 Si02
#       6
#    16  16  16  16  16   8
#     4  10  21  36  57  88 124 158 199 249 307 371
#     4  10  20  38  63  88 119 162 199 249 310 368
#     4  11  24  43  67  94 122 161 215 265 311 368
#     4  11  20  35  60  90 125 161 199 246 309 376
#     4  11  23  39  61  92 127 165 207 255 312 374
#     4  12  24  44  66  86 126 170 210 264 316 368
#
# _framework density 19.151571000000001
#
# number of rings (size 3 to 8) (size 9 to 14) (size 15 to 20)
#    0.000    1.273    2.727    3.818    1.273    0.000 
#    0.000    1.818    0.000    2.182    0.000    0.000 
#    0.000    0.000    0.000    0.000    0.000    0.000 
#
# Total GULP energy -245650.654480 kJ/mol
# GULP energy per Si atom -5582.969420 kJ/mol
# Density = 1.910798 g / cm^3
# Si number density = 19.151571 Si / 1000 Ang^3
#
#
#
# Elastic Constant Matrix: (Units=GPa)
#
#
# Indices 1 2 3 4 5 6 
#
# 1 121.5349 44.4211 27.7158 0.0000 0.0000 0.0000
# 2 44.4211 76.7378 20.8927 0.0000 0.0000 0.0000
# 3 27.7158 20.8927 65.9311 0.0000 0.0000 0.0000
# 4 0.0000 0.0000 0.0000 6.9930 0.0000 0.0000
# 5 0.0000 0.0000 0.0000 0.0000 31.1129 0.0000
# 6 0.0000 0.0000 0.0000 0.0000 0.0000 31.9998
#
#
#
# Elastic Compliance Matrix: (Units=1/GPa)
#
#
# Indices 1 2 3 4 5 6 
#
# 1 0.010897 -0.005538 -0.002826 0.000000 0.000000 0.000000
# 2 -0.005538 0.017077 -0.003083 0.000000 0.000000 0.000000
# 3 -0.002826 -0.003083 0.017332 0.000000 0.000000 0.000000
# 4 0.000000 0.000000 0.000000 0.143001 0.000000 0.000000
# 5 0.000000 0.000000 0.000000 0.000000 0.032141 0.000000
# 6 0.000000 0.000000 0.000000 0.000000 0.000000 0.031250
#
#
# Mechanical properties :
#
#
# Convention : Reuss Voigt Hill
#
# Bulk Modulus (GPa) = 44.62056 50.02921 47.32489
# Shear Modulus (GPa) = 17.72652 25.43276 21.57964
#
# Velocity S-wave (km/s) = 3.04565 3.64809 3.36040
# Velocity P-wave (km/s) = 5.97639 6.62754 6.31037
#
# Compressibility (1/GPa) = 0.02241119
#
# Stress axis : x y z
#
# Youngs Moduli (GPa) = 91.77005 58.55872 57.69602
#
# Poissons Ratio (x) = 0.32433 0.16303
# Poissons Ratio (y) = 0.50827 0.17789
# Poissons Ratio (z) = 0.25931 0.18055
#
# Static dielectric constant tensor:
#      x y z
#    x 1.678780 0.000000 0.000000 
#    y 0.000000 1.673030 0.000000 
#    z 0.000000 0.000000 1.716260 
# 
# From -- ./inp_files/14621.got.cif
#   From: 2010.05.17/outbox.cif.g08.bks.cpg/sg64_8_cif.got.tgz:14621.got - 2010.06.03 16:29:19.
