data_PCOD9479907
_publ_section_title
;
Structure prediction by ZEFSAII (Michael W. Deem and Ramdas Pophale) SiO2 
 PCOD9479907
Probable space group: C M C A
;
_chemical_formula_sum "Si O2"
_cell_formula_units_Z 116
_cell_length_a 7.909984
_cell_length_b 24.974605
_cell_length_c 27.882134
_cell_angle_alpha 90.000000
_cell_angle_beta 90.000000
_cell_angle_gamma 90.000000
_cell_volume 5508.080049
_symmetry_space_group_name_H-M "C M C A"
_symmetry_group_IT_number 64
_symmetry_cell_setting 'orthorhombic'
loop_
_space_group_symop_operation_xyz
x,y,z
-x,1/2-y,1/2+z
x,-y,-z
-x,1/2+y,1/2-z
-x,-y,-z
x,1/2+y,1/2-z
-x,y,z
x,1/2-y,1/2+z
1/2+x,1/2+y,z
1/2-x,-y,1/2+z
1/2+x,1/2-y,-z
1/2-x,y,1/2-z
1/2-x,1/2-y,-z
1/2+x,y,1/2-z
1/2-x,1/2+y,z
1/2+x,-y,1/2+z
loop_
_atom_site_type_symbol
_atom_site_label
_atom_site_fract_x
_atom_site_fract_y
_atom_site_fract_z
Si Si1 0.192153 0.698959 0.803574
Si Si2 0.301813 0.586303 0.981900
Si Si3 0.702212 0.388449 0.696219
Si Si4 0.192822 0.195487 0.474722
Si Si5 0.000000 0.000000 0.500000
Si Si6 0.197392 0.793341 0.867838
Si Si7 0.202188 0.487773 0.196184
Si Si8 0.305416 0.605770 0.870589
O O1 0.250000 0.685645 0.750000
O O2 0.273067 0.749192 0.831324
O O3 0.204845 0.648934 0.839361
O O4 0.000000 0.715548 0.796692
O O5 0.500000 0.566937 0.983818
O O6 0.259245 0.598770 0.925974
O O7 0.294243 0.642759 0.009750
O O8 0.153822 0.546576 0.000037
O O9 0.500000 0.385870 0.690645
O O10 0.750000 0.371246 0.750000
O O11 0.787694 0.350111 0.658190
O O12 0.755309 0.450400 0.691120
O O13 0.250000 0.250000 0.500000
O O14 0.209295 0.204788 0.418122
O O15 0.000000 0.185062 0.488435
O O16 0.000000 0.780959 0.877901
O O17 0.250000 0.470028 0.250000
O O18 0.284108 0.450398 0.156581
O O19 0.000000 0.484883 0.191182
O O20 0.500000 0.623159 0.868699
#
# Coordination Sequence:
#
# PCOD9479907 Si02
#       8
#    16  16  16  16   4  16  16  16
#     4  11  24  40  63  94 135 179 224 280 344 412
#     4  11  26  48  73 106 142 190 242 302 367 436
#     4  10  21  38  60  89 124 166 210 261 321 391
#     4  12  25  45  72 102 138 182 234 299 359 428
#     4  12  26  48  76 102 148 184 238 298 376 438
#     4  11  24  41  64  95 129 172 220 274 338 410
#     4  10  21  37  60  88 126 168 216 267 326 397
#     4  11  24  41  65  94 129 172 224 279 342 409
#
# _framework density 21.059968999999999
#
# number of rings (size 3 to 8) (size 9 to 14) (size 15 to 20)
#    0.000    1.103    0.690    5.172    1.931    8.276 
#    2.483    1.379    0.000    0.000    0.000    0.000 
#    0.000    0.000    0.000    0.000    0.000    0.000 
#
# Total GULP energy -323635.608972 kJ/mol
# GULP energy per Si atom -5579.924293 kJ/mol
# Density = 2.101204 g / cm^3
# Si number density = 21.059969 Si / 1000 Ang^3
#
#
#
# Elastic Constant Matrix: (Units=GPa)
#
#
# Indices 1 2 3 4 5 6 
#
# 1 76.0311 19.0392 10.4379 0.0000 0.0000 0.0000
# 2 19.0392 84.4395 28.3635 0.0000 0.0000 0.0000
# 3 10.4379 28.3635 47.7896 0.0000 0.0000 0.0000
# 4 0.0000 0.0000 0.0000 53.6928 0.0000 0.0000
# 5 0.0000 0.0000 0.0000 0.0000 24.9811 0.0000
# 6 0.0000 0.0000 0.0000 0.0000 0.0000 27.4664
#
#
#
# Elastic Compliance Matrix: (Units=1/GPa)
#
#
# Indices 1 2 3 4 5 6 
#
# 1 0.014023 -0.002664 -0.001482 0.000000 0.000000 0.000000
# 2 -0.002664 0.015298 -0.008498 0.000000 0.000000 0.000000
# 3 -0.001482 -0.008498 0.026292 0.000000 0.000000 0.000000
# 4 0.000000 0.000000 0.000000 0.018624 0.000000 0.000000
# 5 0.000000 0.000000 0.000000 0.000000 0.040030 0.000000
# 6 0.000000 0.000000 0.000000 0.000000 0.000000 0.036408
#
#
# Mechanical properties :
#
#
# Convention : Reuss Voigt Hill
#
# Bulk Modulus (GPa) = 32.97467 35.99350 34.48408
# Shear Modulus (GPa) = 26.87144 31.25604 29.06374
#
# Velocity S-wave (km/s) = 3.57592 3.85664 3.71893
# Velocity P-wave (km/s) = 5.72198 6.07944 5.90342
#
# Compressibility (1/GPa) = 0.03032631
#
# Stress axis : x y z
#
# Youngs Moduli (GPa) = 71.31106 65.36861 38.03436
#
# Poissons Ratio (x) = 0.17416 0.05635
# Poissons Ratio (y) = 0.18999 0.32320
# Poissons Ratio (z) = 0.10565 0.55547
#
# Static dielectric constant tensor:
#      x y z
#    x 1.779980 0.000000 0.000000 
#    y 0.000000 1.658000 0.000000 
#    z 0.000000 0.000000 1.746590 
# 
# From -- ./inp_files/48606.got.cif
#   From: 2010.05.17/outbox.cif.g08.bks.cpg/sg64_25_cif.got.tgz:48606.got - 2010.06.03 16:29:19.
