data_PCOD9479544
_publ_section_title
;
Structure prediction by ZEFSAII (Michael W. Deem and Ramdas Pophale) SiO2 
 PCOD9479544
Probable space group: C M C A
;
_chemical_formula_sum "Si O2"
_cell_formula_units_Z 80
_cell_length_a 25.074504
_cell_length_b 11.378596
_cell_length_c 13.981840
_cell_angle_alpha 90.000000
_cell_angle_beta 90.000000
_cell_angle_gamma 90.000000
_cell_volume 3989.195835
_symmetry_space_group_name_H-M "C M C A"
_symmetry_group_IT_number 64
_symmetry_cell_setting 'orthorhombic'
loop_
_space_group_symop_operation_xyz
x,y,z
-x,1/2-y,1/2+z
x,-y,-z
-x,1/2+y,1/2-z
-x,-y,-z
x,1/2+y,1/2-z
-x,y,z
x,1/2-y,1/2+z
1/2+x,1/2+y,z
1/2-x,-y,1/2+z
1/2+x,1/2-y,-z
1/2-x,y,1/2-z
1/2-x,1/2-y,-z
1/2+x,y,1/2-z
1/2-x,1/2+y,z
1/2+x,-y,1/2+z
loop_
_atom_site_type_symbol
_atom_site_label
_atom_site_fract_x
_atom_site_fract_y
_atom_site_fract_z
Si Si1 0.288826 0.510470 0.889021
Si Si2 0.141494 0.188675 0.190294
Si Si3 0.850411 0.739129 0.603040
Si Si4 0.674898 0.603179 0.561212
Si Si5 0.560433 0.365573 0.967178
O O1 0.307808 0.392911 0.837290
O O2 0.320716 0.624738 0.855866
O O3 0.226687 0.542103 0.892902
O O4 0.305660 0.500000 0.000000
O O5 0.135918 0.187061 0.303565
O O6 0.148288 0.318180 0.143074
O O7 0.090753 0.138211 0.133950
O O8 0.813071 0.803863 0.524755
O O9 0.902543 0.703678 0.542639
O O10 0.645597 0.500000 0.500000
O O11 0.500000 0.320411 0.962178
O O12 0.558968 0.500000 0.000000
#
# Coordination Sequence:
#
# PCOD9479544 Si02
#       5
#    16  16  16  16  16
#     4  11  20  42  58  81 125 166 206 248 295 371
#     4  11  23  40  61  92 127 161 208 263 305 363
#     4  11  22  39  62  90 122 162 205 259 304 366
#     4  10  24  38  57  86 128 166 202 245 307 361
#     4  10  20  41  69  90 118 161 205 261 321 373
#
# _framework density 20.054169000000002
#
# number of rings (size 3 to 8) (size 9 to 14) (size 15 to 20)
#    0.000    1.400    6.000    0.600    5.600    1.600 
#    3.600    0.000    0.000    9.600    0.000    0.000 
#    0.000    0.000    0.000    0.000    0.000    0.000 
#
# Total GULP energy -223177.054814 kJ/mol
# GULP energy per Si atom -5579.426370 kJ/mol
# Density = 2.000852 g / cm^3
# Si number density = 20.054169 Si / 1000 Ang^3
#
#
#
# Elastic Constant Matrix: (Units=GPa)
#
#
# Indices 1 2 3 4 5 6 
#
# 1 91.4766 12.4972 15.0124 0.0000 0.0000 0.0000
# 2 12.4972 55.1366 -3.4294 0.0000 0.0000 0.0000
# 3 15.0124 -3.4294 100.0031 0.0000 0.0000 0.0000
# 4 0.0000 0.0000 0.0000 20.1709 0.0000 0.0000
# 5 0.0000 0.0000 0.0000 0.0000 -1.2792 0.0000
# 6 0.0000 0.0000 0.0000 0.0000 0.0000 17.0998
#
#
#
# Elastic Compliance Matrix: (Units=1/GPa)
#
#
# Indices 1 2 3 4 5 6 
#
# 1 0.011608 -0.002745 -0.001837 0.000000 0.000000 0.000000
# 2 -0.002745 0.018825 0.001058 0.000000 0.000000 0.000000
# 3 -0.001837 0.001058 0.010312 0.000000 0.000000 0.000000
# 4 0.000000 0.000000 0.000000 0.049576 0.000000 0.000000
# 5 0.000000 0.000000 0.000000 0.000000 -0.781761 0.000000
# 6 0.000000 0.000000 0.000000 0.000000 0.000000 0.058480
#
#
# Mechanical properties :
#
#
# Convention : Reuss Voigt Hill
#
# Bulk Modulus (GPa) = 29.67721 32.75298 31.21510
# Shear Modulus (GPa) = -8.13432 22.03406 6.94987
#
# Velocity S-wave (km/s) = -2.01618 3.31830 1.86362
# Velocity P-wave (km/s) = 3.06768 5.57218 4.49777
#
# Compressibility (1/GPa) = 0.03369588
#
# Stress axis : x y z
#
# Youngs Moduli (GPa) = 86.14561 53.12139 96.97728
#
# Poissons Ratio (x) = 0.14584 0.17813
# Poissons Ratio (y) = 0.23650 -0.10257
# Poissons Ratio (z) = 0.15823 -0.05619
#
# Static dielectric constant tensor:
#      x y z
#    x 1.710410 0.000000 0.000000 
#    y 0.000000 1.813730 0.000000 
#    z 0.000000 0.000000 1.730540 
# 
# From -- ./inp_files/27894.got.cif
#   From: 2010.05.17/outbox.cif.g08.bks.cpg/sg64_14_cif.got.tgz:27894.got - 2010.06.03 16:29:19.
