data_PCOD9479111
_publ_section_title
;
Structure prediction by ZEFSAII (Michael W. Deem and Ramdas Pophale) SiO2 
 PCOD9479111
Probable space group: C M C A
;
_chemical_formula_sum "Si O2"
_cell_formula_units_Z 88
_cell_length_a 9.492243
_cell_length_b 18.105675
_cell_length_c 24.320043
_cell_angle_alpha 90.000000
_cell_angle_beta 90.000000
_cell_angle_gamma 90.000000
_cell_volume 4179.726902
_symmetry_space_group_name_H-M "C M C A"
_symmetry_group_IT_number 64
_symmetry_cell_setting 'orthorhombic'
loop_
_space_group_symop_operation_xyz
x,y,z
-x,1/2-y,1/2+z
x,-y,-z
-x,1/2+y,1/2-z
-x,-y,-z
x,1/2+y,1/2-z
-x,y,z
x,1/2-y,1/2+z
1/2+x,1/2+y,z
1/2-x,-y,1/2+z
1/2+x,1/2-y,-z
1/2-x,y,1/2-z
1/2-x,1/2-y,-z
1/2+x,y,1/2-z
1/2-x,1/2+y,z
1/2+x,-y,1/2+z
loop_
_atom_site_type_symbol
_atom_site_label
_atom_site_fract_x
_atom_site_fract_y
_atom_site_fract_z
Si Si1 0.843916 0.357022 0.823811
Si Si2 0.336221 0.877763 0.148567
Si Si3 0.651452 0.657094 0.454662
Si Si4 0.343252 0.331215 0.047483
Si Si5 0.750000 0.724129 0.750000
Si Si6 0.667388 0.004093 0.304220
O O1 0.831991 0.347715 0.889231
O O2 0.835370 0.281368 0.789167
O O3 0.715698 0.411311 0.809871
O O4 0.000000 0.390486 0.812244
O O5 0.500000 0.894690 0.140220
O O6 0.267141 0.835610 0.097306
O O7 0.322853 0.828415 0.204367
O O8 0.241452 0.951672 0.151532
O O9 0.500000 0.622604 0.469426
O O10 0.640830 0.744600 0.465261
O O11 0.776398 0.630168 0.493797
O O12 0.500000 0.358934 0.062061
O O13 0.500000 0.995068 0.301800
O O14 0.750000 0.978814 0.250000
#
# Coordination Sequence:
#
# PCOD9479111 Si02
#       6
#    16  16  16  16   8  16
#     4  11  23  42  65  94 130 166 207 258 314 372
#     4  12  25  41  65  95 129 169 212 260 316 375
#     4   9  19  37  61  91 126 164 206 258 315 372
#     4  10  20  37  61  91 127 164 208 262 315 372
#     4  12  24  38  66  98 132 162 210 260 308 374
#     4  12  26  43  63  89 128 171 212 255 311 376
#
# _framework density 21.054006000000001
#
# number of rings (size 3 to 8) (size 9 to 14) (size 15 to 20)
#    0.000    1.091    3.636    3.273    0.000    3.636 
#    0.000    0.909    0.000    5.455    0.000    0.000 
#    0.000    0.000    0.000    0.000    0.000    0.000 
#
# Total GULP energy -245215.679655 kJ/mol
# GULP energy per Si atom -5573.083629 kJ/mol
# Density = 2.100609 g / cm^3
# Si number density = 21.054006 Si / 1000 Ang^3
#
#
#
# Elastic Constant Matrix: (Units=GPa)
#
#
# Indices 1 2 3 4 5 6 
#
# 1 202.0985 32.5392 55.5819 0.0000 0.0000 0.0000
# 2 32.5392 47.1083 -1.1136 0.0000 0.0000 0.0000
# 3 55.5819 -1.1136 85.4132 0.0000 0.0000 0.0000
# 4 0.0000 0.0000 0.0000 12.3740 0.0000 0.0000
# 5 0.0000 0.0000 0.0000 0.0000 24.0856 0.0000
# 6 0.0000 0.0000 0.0000 0.0000 0.0000 9.0452
#
#
#
# Elastic Compliance Matrix: (Units=1/GPa)
#
#
# Indices 1 2 3 4 5 6 
#
# 1 0.007021 -0.004959 -0.004633 0.000000 0.000000 0.000000
# 2 -0.004959 0.024737 0.003550 0.000000 0.000000 0.000000
# 3 -0.004633 0.003550 0.014769 0.000000 0.000000 0.000000
# 4 0.000000 0.000000 0.000000 0.080815 0.000000 0.000000
# 5 0.000000 0.000000 0.000000 0.000000 0.041519 0.000000
# 6 0.000000 0.000000 0.000000 0.000000 0.000000 0.110555
#
#
# Mechanical properties :
#
#
# Convention : Reuss Voigt Hill
#
# Bulk Modulus (GPa) = 29.03498 56.51499 42.77498
# Shear Modulus (GPa) = 16.50263 25.60846 21.05555
#
# Velocity S-wave (km/s) = 2.80272 3.49137 3.16582
# Velocity P-wave (km/s) = 4.92893 6.56917 5.80725
#
# Compressibility (1/GPa) = 0.03444122
#
# Stress axis : x y z
#
# Youngs Moduli (GPa) = 142.43384 40.42541 67.70850
#
# Poissons Ratio (x) = 0.20047 0.31372
# Poissons Ratio (y) = 0.70633 -0.24033
# Poissons Ratio (z) = 0.65995 -0.14349
#
# Static dielectric constant tensor:
#      x y z
#    x 2.014330 0.000000 0.000000 
#    y 0.000000 1.765170 0.000000 
#    z 0.000000 0.000000 1.862680 
# 
# From -- ./inp_files/42828.got.cif
#   From: 2010.05.17/outbox.cif.g08.bks.cpg/sg64_22_cif.got.tgz:42828.got - 2010.06.03 16:29:19.
