data_PCOD9479953
_publ_section_title
;
Structure prediction by ZEFSAII (Michael W. Deem and Ramdas Pophale) SiO2 
 PCOD9479953
Probable space group: C M C A
;
_chemical_formula_sum "Si O2"
_cell_formula_units_Z 116
_cell_length_a 7.652255
_cell_length_b 24.617983
_cell_length_c 30.991035
_cell_angle_alpha 90.000000
_cell_angle_beta 90.000000
_cell_angle_gamma 90.000000
_cell_volume 5838.186734
_symmetry_space_group_name_H-M "C M C A"
_symmetry_group_IT_number 64
_symmetry_cell_setting 'orthorhombic'
loop_
_space_group_symop_operation_xyz
x,y,z
-x,1/2-y,1/2+z
x,-y,-z
-x,1/2+y,1/2-z
-x,-y,-z
x,1/2+y,1/2-z
-x,y,z
x,1/2-y,1/2+z
1/2+x,1/2+y,z
1/2-x,-y,1/2+z
1/2+x,1/2-y,-z
1/2-x,y,1/2-z
1/2-x,1/2-y,-z
1/2+x,y,1/2-z
1/2-x,1/2+y,z
1/2+x,-y,1/2+z
loop_
_atom_site_type_symbol
_atom_site_label
_atom_site_fract_x
_atom_site_fract_y
_atom_site_fract_z
Si Si1 0.707364 0.648024 0.199813
Si Si2 0.707974 0.744338 0.363556
Si Si3 0.792856 0.308818 0.018553
Si Si4 0.698767 0.439908 0.865687
Si Si5 0.305754 0.468828 0.428605
Si Si6 0.000000 0.000000 0.000000
Si Si7 0.212086 0.653361 0.071194
Si Si8 0.695554 0.353736 0.106706
O O1 0.500000 0.645483 0.194151
O O2 0.750000 0.647376 0.250000
O O3 0.763618 0.703960 0.176602
O O4 0.777676 0.595006 0.174057
O O5 0.500000 0.750653 0.368226
O O6 0.770179 0.708682 0.404686
O O7 0.777112 0.806162 0.363110
O O8 0.690133 0.322138 0.061146
O O9 0.000000 0.313071 0.026818
O O10 0.750000 0.250000 0.000000
O O11 0.745346 0.348213 0.979012
O O12 0.500000 0.456115 0.855190
O O13 0.791990 0.490059 0.888011
O O14 0.700505 0.395100 0.903550
O O15 0.500000 0.473201 0.447981
O O16 0.286137 0.409307 0.407075
O O17 0.155076 0.482412 0.463694
O O18 0.000000 0.650179 0.075376
O O19 0.500000 0.367458 0.121954
#
# Coordination Sequence:
#
# PCOD9479953 Si02
#       8
#    16  16  16  16  16   4  16  16
#     4  10  21  37  64  97 128 156 197 253 318 384
#     4   9  18  35  57  80 117 157 194 240 303 368
#     4  11  21  32  47  73 107 150 204 251 296 350
#     4  10  21  39  59  86 121 160 203 259 318 376
#     4  12  26  43  64  89 122 172 220 272 326 375
#     4  12  26  48  60  86 124 160 230 276 312 364
#     4   9  18  32  49  75 106 148 198 246 298 357
#     4  11  22  39  56  81 119 162 204 254 305 365
#
# _framework density 19.869181999999999
#
# number of rings (size 3 to 8) (size 9 to 14) (size 15 to 20)
#    0.000    1.655    2.759    1.862    1.931    3.862 
#    0.000    0.000    0.000    0.828    0.000    3.862 
#    0.000    0.000    0.000    0.000    0.000    0.000 
#
# Total GULP energy -322975.705028 kJ/mol
# GULP energy per Si atom -5568.546638 kJ/mol
# Density = 1.982396 g / cm^3
# Si number density = 19.869182 Si / 1000 Ang^3
#
#
#
# Elastic Constant Matrix: (Units=GPa)
#
#
# Indices 1 2 3 4 5 6 
#
# 1 91.5564 24.6002 12.6491 0.0000 0.0000 0.0000
# 2 24.6002 129.8992 45.0473 0.0000 0.0000 0.0000
# 3 12.6491 45.0473 75.6481 0.0000 0.0000 0.0000
# 4 0.0000 0.0000 0.0000 12.7945 0.0000 0.0000
# 5 0.0000 0.0000 0.0000 0.0000 13.5430 0.0000
# 6 0.0000 0.0000 0.0000 0.0000 0.0000 22.1130
#
#
#
# Elastic Compliance Matrix: (Units=1/GPa)
#
#
# Indices 1 2 3 4 5 6 
#
# 1 0.011545 -0.001912 -0.000792 0.000000 0.000000 0.000000
# 2 -0.001912 0.010018 -0.005646 0.000000 0.000000 0.000000
# 3 -0.000792 -0.005646 0.016714 0.000000 0.000000 0.000000
# 4 0.000000 0.000000 0.000000 0.078158 0.000000 0.000000
# 5 0.000000 0.000000 0.000000 0.000000 0.073839 0.000000
# 6 0.000000 0.000000 0.000000 0.000000 0.000000 0.045222
#
#
# Mechanical properties :
#
#
# Convention : Reuss Voigt Hill
#
# Bulk Modulus (GPa) = 46.34455 51.29965 48.82210
# Shear Modulus (GPa) = 19.27605 24.01057 21.64331
#
# Velocity S-wave (km/s) = 3.11810 3.48002 3.30402
# Velocity P-wave (km/s) = 6.02817 6.48245 6.25943
#
# Compressibility (1/GPa) = 0.02157751
#
# Stress axis : x y z
#
# Youngs Moduli (GPa) = 86.61507 99.81714 59.83116
#
# Poissons Ratio (x) = 0.19083 0.04739
# Poissons Ratio (y) = 0.16559 0.33781
# Poissons Ratio (z) = 0.06860 0.56358
#
# Static dielectric constant tensor:
#      x y z
#    x 1.765360 0.000000 0.000000 
#    y 0.000000 1.791320 0.000000 
#    z 0.000000 0.000000 1.695710 
# 
# From -- ./inp_files/52297.got.cif
#   From: 2010.05.17/outbox.cif.g08.bks.cpg/sg64_27_cif.got.tgz:52297.got - 2010.06.03 16:29:19.
