data_PCOD9479627
_publ_section_title
;
Structure prediction by ZEFSAII (Michael W. Deem and Ramdas Pophale) SiO2 
 PCOD9479627
Probable space group: C M C A
;
_chemical_formula_sum "Si O2"
_cell_formula_units_Z 88
_cell_length_a 23.169547
_cell_length_b 13.897647
_cell_length_c 14.557065
_cell_angle_alpha 90.000000
_cell_angle_beta 90.000000
_cell_angle_gamma 90.000000
_cell_volume 4687.406742
_symmetry_space_group_name_H-M "C M C A"
_symmetry_group_IT_number 64
_symmetry_cell_setting 'orthorhombic'
loop_
_space_group_symop_operation_xyz
x,y,z
-x,1/2-y,1/2+z
x,-y,-z
-x,1/2+y,1/2-z
-x,-y,-z
x,1/2+y,1/2-z
-x,y,z
x,1/2-y,1/2+z
1/2+x,1/2+y,z
1/2-x,-y,1/2+z
1/2+x,1/2-y,-z
1/2-x,y,1/2-z
1/2-x,1/2-y,-z
1/2+x,y,1/2-z
1/2-x,1/2+y,z
1/2+x,-y,1/2+z
loop_
_atom_site_type_symbol
_atom_site_label
_atom_site_fract_x
_atom_site_fract_y
_atom_site_fract_z
Si Si1 0.431854 0.002977 0.110312
Si Si2 0.250000 0.916044 0.250000
Si Si3 0.353692 0.180037 0.166716
Si Si4 0.138526 0.182152 0.668773
Si Si5 0.252347 0.446771 0.910406
Si Si6 0.816348 0.787489 0.000487
O O1 0.500000 0.003754 0.128220
O O2 0.403173 0.910010 0.160156
O O3 0.401289 0.100950 0.142420
O O4 0.423187 0.000000 0.000000
O O5 0.200341 0.855113 0.296437
O O6 0.273526 0.980037 0.333435
O O7 0.370604 0.227487 0.263503
O O8 0.293724 0.120747 0.144643
O O9 0.344576 0.271515 0.098973
O O10 0.146692 0.222069 0.566978
O O11 0.305784 0.390225 0.954816
O O12 0.224239 0.500000 0.000000
O O13 0.750000 0.750000 0.000000
#
# Coordination Sequence:
#
# PCOD9479627 Si02
#       6
#    16   8  16  16  16  16
#     4  11  24  45  69  88 115 166 222 267 306 359
#     4  12  20  32  56  88 126 164 202 240 306 386
#     4  11  21  39  59  88 122 157 205 256 309 367
#     4  12  23  38  61  92 127 163 202 258 315 375
#     4  11  20  33  55  86 128 170 196 238 305 378
#     4  10  21  34  53  86 127 160 194 242 302 374
#
# _framework density 18.773707000000002
#
# number of rings (size 3 to 8) (size 9 to 14) (size 15 to 20)
#    0.000    0.909    3.636    7.091    0.000    0.727 
#    0.000    0.000    0.000    0.000    0.000    1.273 
#    0.000    0.000    0.000    0.000    0.000    0.000 
#
# Total GULP energy -245330.289491 kJ/mol
# GULP energy per Si atom -5575.688398 kJ/mol
# Density = 1.873098 g / cm^3
# Si number density = 18.773707 Si / 1000 Ang^3
#
#
#
# Elastic Constant Matrix: (Units=GPa)
#
#
# Indices 1 2 3 4 5 6 
#
# 1 63.8643 26.8186 -2.7881 0.0000 0.0000 0.0000
# 2 26.8186 82.8644 10.3299 0.0000 0.0000 0.0000
# 3 -2.7881 10.3299 63.0213 0.0000 0.0000 0.0000
# 4 0.0000 0.0000 0.0000 47.2040 0.0000 0.0000
# 5 0.0000 0.0000 0.0000 0.0000 12.7478 0.0000
# 6 0.0000 0.0000 0.0000 0.0000 0.0000 1.3246
#
#
#
# Elastic Compliance Matrix: (Units=1/GPa)
#
#
# Indices 1 2 3 4 5 6 
#
# 1 0.018323 -0.006157 0.001820 0.000000 0.000000 0.000000
# 2 -0.006157 0.014389 -0.002631 0.000000 0.000000 0.000000
# 3 0.001820 -0.002631 0.016379 0.000000 0.000000 0.000000
# 4 0.000000 0.000000 0.000000 0.021185 0.000000 0.000000
# 5 0.000000 0.000000 0.000000 0.000000 0.078445 0.000000
# 6 0.000000 0.000000 0.000000 0.000000 0.000000 0.754926
#
#
# Mechanical properties :
#
#
# Convention : Reuss Voigt Hill
#
# Bulk Modulus (GPa) = 28.44544 30.94119 29.69332
# Shear Modulus (GPa) = 5.38039 23.94794 14.66417
#
# Velocity S-wave (km/s) = 1.69474 3.57544 2.79785
# Velocity P-wave (km/s) = 4.36052 5.79327 5.12719
#
# Compressibility (1/GPa) = 0.03515502
#
# Stress axis : x y z
#
# Youngs Moduli (GPa) = 54.57567 69.49971 61.05239
#
# Poissons Ratio (x) = 0.42791 -0.11110
# Poissons Ratio (y) = 0.33602 0.16062
# Poissons Ratio (z) = -0.09932 0.18284
#
# Static dielectric constant tensor:
#      x y z
#    x 1.668050 0.000000 0.000000 
#    y 0.000000 1.781890 0.000000 
#    z 0.000000 0.000000 1.687950 
# 
# From -- ./inp_files/27296.got.cif
#   From: 2010.05.17/outbox.cif.g08.bks.cpg/sg64_14_cif.got.tgz:27296.got - 2010.06.03 16:29:19.
