data_PCOD9479105
_publ_section_title
;
Structure prediction by ZEFSAII (Michael W. Deem and Ramdas Pophale) SiO2 
 PCOD9479105
Probable space group: C M C A
;
_chemical_formula_sum "Si O2"
_cell_formula_units_Z 80
_cell_length_a 8.713640
_cell_length_b 18.571277
_cell_length_c 26.078026
_cell_angle_alpha 90.000000
_cell_angle_beta 90.000000
_cell_angle_gamma 90.000000
_cell_volume 4220.035409
_symmetry_space_group_name_H-M "C M C A"
_symmetry_group_IT_number 64
_symmetry_cell_setting 'orthorhombic'
loop_
_space_group_symop_operation_xyz
x,y,z
-x,1/2-y,1/2+z
x,-y,-z
-x,1/2+y,1/2-z
-x,-y,-z
x,1/2+y,1/2-z
-x,y,z
x,1/2-y,1/2+z
1/2+x,1/2+y,z
1/2-x,-y,1/2+z
1/2+x,1/2-y,-z
1/2-x,y,1/2-z
1/2-x,1/2-y,-z
1/2+x,y,1/2-z
1/2-x,1/2+y,z
1/2+x,-y,1/2+z
loop_
_atom_site_type_symbol
_atom_site_label
_atom_site_fract_x
_atom_site_fract_y
_atom_site_fract_z
Si Si1 0.183905 0.830116 0.496856
Si Si2 0.315783 0.672599 0.305201
Si Si3 0.683432 0.331658 0.305671
Si Si4 0.683882 0.075276 0.097125
Si Si5 0.182404 0.916979 0.099305
O O1 0.250000 0.750000 0.500000
O O2 0.219529 0.873819 0.548831
O O3 0.254583 0.872051 0.448829
O O4 0.000000 0.827187 0.491424
O O5 0.500000 0.679683 0.301946
O O6 0.250000 0.649749 0.250000
O O7 0.245354 0.751084 0.316784
O O8 0.278462 0.617287 0.350470
O O9 0.500000 0.330610 0.303780
O O10 0.750000 0.351891 0.250000
O O11 0.742234 0.384664 0.349472
O O12 0.500000 0.061806 0.096653
O O13 0.769809 0.999890 0.093303
O O14 0.000000 0.909546 0.102286
#
# Coordination Sequence:
#
# PCOD9479105 Si02
#       5
#    16  16  16  16  16
#     4  11  23  41  65  90 119 156 200 247 297 355
#     4  10  20  37  61  89 121 156 198 245 295 353
#     4  11  22  39  63  89 120 157 200 247 296 352
#     4  10  23  41  60  85 120 159 198 245 299 353
#     4  12  25  40  60  88 122 158 199 246 298 356
#
# _framework density 18.957186
#
# number of rings (size 3 to 8) (size 9 to 14) (size 15 to 20)
#    0.000    1.200    0.000    7.800    0.000    8.000 
#    0.000    2.000    0.000    0.000    0.000    0.000 
#    0.000    0.000    0.000    0.000    0.000    0.000 
#
# Total GULP energy -223807.116671 kJ/mol
# GULP energy per Si atom -5595.177917 kJ/mol
# Density = 1.891404 g / cm^3
# Si number density = 18.957186 Si / 1000 Ang^3
#
#
#
# Elastic Constant Matrix: (Units=GPa)
#
#
# Indices 1 2 3 4 5 6 
#
# 1 130.0722 89.7106 84.6202 0.0000 0.0000 0.0000
# 2 89.7106 145.6374 105.1305 0.0000 0.0000 0.0000
# 3 84.6202 105.1305 133.2428 0.0000 0.0000 0.0000
# 4 0.0000 0.0000 0.0000 341.8120 0.0000 0.0000
# 5 0.0000 0.0000 0.0000 0.0000 30.0850 0.0000
# 6 0.0000 0.0000 0.0000 0.0000 0.0000 37.8676
#
#
#
# Elastic Compliance Matrix: (Units=1/GPa)
#
#
# Indices 1 2 3 4 5 6 
#
# 1 0.014720 -0.005388 -0.005098 0.000000 0.000000 0.000000
# 2 -0.005388 0.017924 -0.010721 0.000000 0.000000 0.000000
# 3 -0.005098 -0.010721 0.019201 0.000000 0.000000 0.000000
# 4 0.000000 0.000000 0.000000 0.002926 0.000000 0.000000
# 5 0.000000 0.000000 0.000000 0.000000 0.033239 0.000000
# 6 0.000000 0.000000 0.000000 0.000000 0.000000 0.026408
#
#
# Mechanical properties :
#
#
# Convention : Reuss Voigt Hill
#
# Bulk Modulus (GPa) = 106.00437 107.54168 106.77302
# Shear Modulus (GPa) = 31.25502 90.58565 60.92034
#
# Velocity S-wave (km/s) = 4.06484 6.92012 5.67499
# Velocity P-wave (km/s) = 8.83571 10.98647 9.96926
#
# Compressibility (1/GPa) = 0.00943357
#
# Stress axis : x y z
#
# Youngs Moduli (GPa) = 67.93381 55.79131 52.08002
#
# Poissons Ratio (x) = 0.30058 0.26548
# Poissons Ratio (y) = 0.36600 0.55833
# Poissons Ratio (z) = 0.34630 0.59812
#
# Static dielectric constant tensor:
#      x y z
#    x 1.635350 0.000000 0.000000 
#    y 0.000000 1.618690 0.000000 
#    z 0.000000 0.000000 1.637120 
# 
# From -- ./inp_files/47880.got.cif
#   From: 2010.05.17/outbox.cif.g08.bks.cpg/sg64_24_cif.got.tgz:47880.got - 2010.06.03 16:29:19.
