data_PCOD9479580
_publ_section_title
;
Structure prediction by ZEFSAII (Michael W. Deem and Ramdas Pophale) SiO2 
 PCOD9479580
Probable space group: C M C A
;
_chemical_formula_sum "Si O2"
_cell_formula_units_Z 80
_cell_length_a 21.725897
_cell_length_b 11.411950
_cell_length_c 14.642152
_cell_angle_alpha 90.000000
_cell_angle_beta 90.000000
_cell_angle_gamma 90.000000
_cell_volume 3630.299764
_symmetry_space_group_name_H-M "C M C A"
_symmetry_group_IT_number 64
_symmetry_cell_setting 'orthorhombic'
loop_
_space_group_symop_operation_xyz
x,y,z
-x,1/2-y,1/2+z
x,-y,-z
-x,1/2+y,1/2-z
-x,-y,-z
x,1/2+y,1/2-z
-x,y,z
x,1/2-y,1/2+z
1/2+x,1/2+y,z
1/2-x,-y,1/2+z
1/2+x,1/2-y,-z
1/2-x,y,1/2-z
1/2-x,1/2-y,-z
1/2+x,y,1/2-z
1/2-x,1/2+y,z
1/2+x,-y,1/2+z
loop_
_atom_site_type_symbol
_atom_site_label
_atom_site_fract_x
_atom_site_fract_y
_atom_site_fract_z
Si Si1 0.310666 0.829363 0.482865
Si Si2 0.628580 0.139050 0.131714
Si Si3 0.726592 0.453638 0.349249
Si Si4 0.500000 0.699116 0.695021
Si Si5 0.500000 0.431060 0.673468
Si Si6 0.365262 0.232607 0.337261
O O1 0.250000 0.750000 0.500000
O O2 0.360502 0.755231 0.425633
O O3 0.282949 0.924867 0.415141
O O4 0.342354 0.848511 0.580290
O O5 0.634693 0.169596 0.239305
O O6 0.683615 0.052000 0.108007
O O7 0.562983 0.078926 0.117629
O O8 0.750000 0.491049 0.250000
O O9 0.683112 0.339974 0.333951
O O10 0.500000 0.559763 0.723060
O O11 0.434501 0.719874 0.645772
O O12 0.500000 0.808498 0.767712
#
# Coordination Sequence:
#
# PCOD9479580 Si02
#       6
#    16  16  16   8   8  16
#     4  10  24  40  59  95 136 172 222 281 351 422
#     4  11  23  43  66  98 131 187 229 296 348 430
#     4  11  22  38  64  89 134 175 225 274 357 420
#     4  10  20  43  69 105 136 188 238 303 351 436
#     4  10  22  41  75  99 142 182 248 293 366 415
#     4  10  22  42  64  95 135 173 234 278 360 404
#
# _framework density 22.036747999999999
#
# number of rings (size 3 to 8) (size 9 to 14) (size 15 to 20)
#    0.000    1.600    4.000    0.000    5.600    4.000 
#    0.000    1.000    0.000    0.000    0.000    9.800 
#    0.000    0.000    0.000    0.000    0.000    0.000 
#
# Total GULP energy -223343.234636 kJ/mol
# GULP energy per Si atom -5583.580866 kJ/mol
# Density = 2.198659 g / cm^3
# Si number density = 22.036748 Si / 1000 Ang^3
#
#
#
# Elastic Constant Matrix: (Units=GPa)
#
#
# Indices 1 2 3 4 5 6 
#
# 1 83.7344 48.0478 10.7885 0.0000 0.0000 0.0000
# 2 48.0478 99.2822 13.2383 0.0000 0.0000 0.0000
# 3 10.7885 13.2383 94.2306 0.0000 0.0000 0.0000
# 4 0.0000 0.0000 0.0000 15.1634 0.0000 0.0000
# 5 0.0000 0.0000 0.0000 0.0000 12.0215 0.0000
# 6 0.0000 0.0000 0.0000 0.0000 0.0000 41.3199
#
#
#
# Elastic Compliance Matrix: (Units=1/GPa)
#
#
# Indices 1 2 3 4 5 6 
#
# 1 0.016591 -0.007924 -0.000786 0.000000 0.000000 0.000000
# 2 -0.007924 0.014050 -0.001067 0.000000 0.000000 0.000000
# 3 -0.000786 -0.001067 0.010852 0.000000 0.000000 0.000000
# 4 0.000000 0.000000 0.000000 0.065948 0.000000 0.000000
# 5 0.000000 0.000000 0.000000 0.000000 0.083184 0.000000
# 6 0.000000 0.000000 0.000000 0.000000 0.000000 0.024201
#
#
# Mechanical properties :
#
#
# Convention : Reuss Voigt Hill
#
# Bulk Modulus (GPa) = 45.58235 46.82182 46.20209
# Shear Modulus (GPa) = 20.68738 27.37914 24.03326
#
# Velocity S-wave (km/s) = 3.06726 3.52864 3.30600
# Velocity P-wave (km/s) = 5.76833 6.15589 5.96526
#
# Compressibility (1/GPa) = 0.02193832
#
# Stress axis : x y z
#
# Youngs Moduli (GPa) = 60.27400 71.17684 92.14794
#
# Poissons Ratio (x) = 0.56403 0.07245
# Poissons Ratio (y) = 0.47763 0.09828
# Poissons Ratio (z) = 0.04739 0.07591
#
# Static dielectric constant tensor:
#      x y z
#    x 1.805140 0.000000 0.000000 
#    y 0.000000 1.872550 0.000000 
#    z 0.000000 0.000000 1.818440 
# 
# From -- ./inp_files/27104.got.cif
#   From: 2010.05.17/outbox.cif.g08.bks.cpg/sg64_14_cif.got.tgz:27104.got - 2010.06.03 16:29:19.
