data_PCOD9479570
_publ_section_title
;
Structure prediction by ZEFSAII (Michael W. Deem and Ramdas Pophale) SiO2 
 PCOD9479570
Probable space group: C M C A
;
_chemical_formula_sum "Si O2"
_cell_formula_units_Z 80
_cell_length_a 25.710876
_cell_length_b 18.458436
_cell_length_c 9.000161
_cell_angle_alpha 90.000000
_cell_angle_beta 90.000000
_cell_angle_gamma 90.000000
_cell_volume 4271.319440
_symmetry_space_group_name_H-M "C M C A"
_symmetry_group_IT_number 64
_symmetry_cell_setting 'orthorhombic'
loop_
_space_group_symop_operation_xyz
x,y,z
-x,1/2-y,1/2+z
x,-y,-z
-x,1/2+y,1/2-z
-x,-y,-z
x,1/2+y,1/2-z
-x,y,z
x,1/2-y,1/2+z
1/2+x,1/2+y,z
1/2-x,-y,1/2+z
1/2+x,1/2-y,-z
1/2-x,y,1/2-z
1/2-x,1/2-y,-z
1/2+x,y,1/2-z
1/2-x,1/2+y,z
1/2+x,-y,1/2+z
loop_
_atom_site_type_symbol
_atom_site_label
_atom_site_fract_x
_atom_site_fract_y
_atom_site_fract_z
Si Si1 0.060855 0.428371 0.602616
Si Si2 0.286914 0.543274 0.863302
Si Si3 0.353907 0.552368 0.357843
Si Si4 0.141004 0.332103 0.479909
Si Si5 0.688897 0.798651 0.795706
O O1 0.068237 0.500000 0.500000
O O2 0.094682 0.435357 0.754799
O O3 0.082439 0.359991 0.506888
O O4 0.000000 0.421270 0.635517
O O5 0.250000 0.585683 0.750000
O O6 0.314521 0.486333 0.755813
O O7 0.328712 0.595842 0.932227
O O8 0.261354 0.500000 0.000000
O O9 0.363061 0.500000 0.500000
O O10 0.326088 0.629578 0.392181
O O11 0.160930 0.309678 0.640178
O O12 0.161281 0.269627 0.371987
O O13 0.750000 0.792524 0.750000
#
# Coordination Sequence:
#
# PCOD9479570 Si02
#       5
#    16  16  16  16  16
#     4  10  20  42  68  89 120 163 213 268 327 378
#     4  12  22  38  59  89 125 168 213 254 316 385
#     4  11  23  38  63  93 129 162 218 269 314 391
#     4  11  23  40  58  90 124 164 210 258 319 388
#     4  11  24  39  58  89 131 172 207 252 320 389
#
# _framework density 18.729574
#
# number of rings (size 3 to 8) (size 9 to 14) (size 15 to 20)
#    0.000    1.000    6.000    2.400    5.600    0.400 
#    0.000    4.000    0.000    0.000    0.000    0.000 
#    0.000    0.000    0.000    0.000    0.000    0.000 
#
# Total GULP energy -222966.593626 kJ/mol
# GULP energy per Si atom -5574.164841 kJ/mol
# Density = 1.868694 g / cm^3
# Si number density = 18.729574 Si / 1000 Ang^3
#
#
#
# Elastic Constant Matrix: (Units=GPa)
#
#
# Indices 1 2 3 4 5 6 
#
# 1 119.3595 34.4229 45.0979 0.0000 0.0000 0.0000
# 2 34.4229 76.7478 21.6270 0.0000 0.0000 0.0000
# 3 45.0979 21.6270 87.7793 0.0000 0.0000 0.0000
# 4 0.0000 0.0000 0.0000 62.5829 0.0000 0.0000
# 5 0.0000 0.0000 0.0000 0.0000 26.3602 0.0000
# 6 0.0000 0.0000 0.0000 0.0000 0.0000 16.6638
#
#
#
# Elastic Compliance Matrix: (Units=1/GPa)
#
#
# Indices 1 2 3 4 5 6 
#
# 1 0.011289 -0.003685 -0.004892 0.000000 0.000000 0.000000
# 2 -0.003685 0.015205 -0.001853 0.000000 0.000000 0.000000
# 3 -0.004892 -0.001853 0.014362 0.000000 0.000000 0.000000
# 4 0.000000 0.000000 0.000000 0.015979 0.000000 0.000000
# 5 0.000000 0.000000 0.000000 0.000000 0.037936 0.000000
# 6 0.000000 0.000000 0.000000 0.000000 0.000000 0.060010
#
#
# Mechanical properties :
#
#
# Convention : Reuss Voigt Hill
#
# Bulk Modulus (GPa) = 50.00985 54.02024 52.01505
# Shear Modulus (GPa) = 27.42641 33.30397 30.36519
#
# Velocity S-wave (km/s) = 3.83082 4.22138 4.03083
# Velocity P-wave (km/s) = 6.80631 7.25706 7.03530
#
# Compressibility (1/GPa) = 0.01999606
#
# Stress axis : x y z
#
# Youngs Moduli (GPa) = 88.58066 65.76973 69.62757
#
# Poissons Ratio (x) = 0.24235 0.34063
# Poissons Ratio (y) = 0.32641 0.12902
# Poissons Ratio (z) = 0.43335 0.12187
#
# Static dielectric constant tensor:
#      x y z
#    x 1.666520 0.000000 0.000000 
#    y 0.000000 1.753090 0.000000 
#    z 0.000000 0.000000 1.631920 
# 
# From -- ./inp_files/10186.got.cif
#   From: 2010.05.17/outbox.cif.g08.bks.cpg/sg64_6_cif.got.tgz:10186.got - 2010.06.03 16:29:19.
