data_PCOD9479880
_publ_section_title
;
Structure prediction by ZEFSAII (Michael W. Deem and Ramdas Pophale) SiO2 
 PCOD9479880
Probable space group: C M C A
;
_chemical_formula_sum "Si O2"
_cell_formula_units_Z 80
_cell_length_a 18.652019
_cell_length_b 14.953817
_cell_length_c 17.273609
_cell_angle_alpha 90.000000
_cell_angle_beta 90.000000
_cell_angle_gamma 90.000000
_cell_volume 4817.935655
_symmetry_space_group_name_H-M "C M C A"
_symmetry_group_IT_number 64
_symmetry_cell_setting 'orthorhombic'
loop_
_space_group_symop_operation_xyz
x,y,z
-x,1/2-y,1/2+z
x,-y,-z
-x,1/2+y,1/2-z
-x,-y,-z
x,1/2+y,1/2-z
-x,y,z
x,1/2-y,1/2+z
1/2+x,1/2+y,z
1/2-x,-y,1/2+z
1/2+x,1/2-y,-z
1/2-x,y,1/2-z
1/2-x,1/2-y,-z
1/2+x,y,1/2-z
1/2-x,1/2+y,z
1/2+x,-y,1/2+z
loop_
_atom_site_type_symbol
_atom_site_label
_atom_site_fract_x
_atom_site_fract_y
_atom_site_fract_z
Si Si1 0.686022 0.126659 0.806362
Si Si2 0.916862 0.568301 0.571675
Si Si3 0.672562 0.313086 0.722517
Si Si4 0.084636 0.486283 0.742553
Si Si5 0.711164 0.706587 0.927264
O O1 0.750000 0.094689 0.750000
O O2 0.659829 0.221315 0.770449
O O3 0.726898 0.148183 0.885185
O O4 0.624158 0.054648 0.800416
O O5 0.912947 0.500000 0.500000
O O6 0.900912 0.519955 0.654178
O O7 0.857824 0.644606 0.557720
O O8 0.000000 0.600836 0.576039
O O9 0.750000 0.348401 0.750000
O O10 0.615016 0.387995 0.740659
O O11 0.683959 0.280840 0.634500
O O12 0.000000 0.488318 0.753251
O O13 0.750000 0.750000 0.000000
#
# Coordination Sequence:
#
# PCOD9479880 Si02
#       5
#    16  16  16  16  16
#     4   9  18  37  55  81 108 139 189 239 262 325
#     4  10  22  36  53  83 116 146 187 235 281 336
#     4   9  20  34  56  82 107 140 187 235 266 326
#     4  11  21  35  58  82 112 153 184 226 290 333
#     4  10  21  37  59  82 112 149 186 231 293 333
#
# _framework density 16.604621999999999
#
# number of rings (size 3 to 8) (size 9 to 14) (size 15 to 20)
#    0.000    2.600    4.000    0.600    5.600    1.600 
#    0.000    1.000    0.000    1.200    0.000    0.000 
#    0.000    0.000    0.000    0.000    0.000    0.000 
#
# Total GULP energy -222838.357282 kJ/mol
# GULP energy per Si atom -5570.958932 kJ/mol
# Density = 1.656683 g / cm^3
# Si number density = 16.604622 Si / 1000 Ang^3
#
#
#
# Elastic Constant Matrix: (Units=GPa)
#
#
# Indices 1 2 3 4 5 6 
#
# 1 123.0454 80.2430 53.2136 0.0000 0.0000 0.0000
# 2 80.2430 78.5636 28.9401 0.0000 0.0000 0.0000
# 3 53.2136 28.9401 78.3076 0.0000 0.0000 0.0000
# 4 0.0000 0.0000 0.0000 9.9655 0.0000 0.0000
# 5 0.0000 0.0000 0.0000 0.0000 15.2149 0.0000
# 6 0.0000 0.0000 0.0000 0.0000 0.0000 13.4812
#
#
#
# Elastic Compliance Matrix: (Units=1/GPa)
#
#
# Indices 1 2 3 4 5 6 
#
# 1 0.030474 -0.027200 -0.010656 0.000000 0.000000 0.000000
# 2 -0.027200 0.039012 0.004066 0.000000 0.000000 0.000000
# 3 -0.010656 0.004066 0.018509 0.000000 0.000000 0.000000
# 4 0.000000 0.000000 0.000000 0.100346 0.000000 0.000000
# 5 0.000000 0.000000 0.000000 0.000000 0.065725 0.000000
# 6 0.000000 0.000000 0.000000 0.000000 0.000000 0.074178
#
#
# Mechanical properties :
#
#
# Convention : Reuss Voigt Hill
#
# Bulk Modulus (GPa) = 48.98467 67.19002 58.08734
# Shear Modulus (GPa) = 12.41842 15.56697 13.99270
#
# Velocity S-wave (km/s) = 2.73772 3.06520 2.90608
# Velocity P-wave (km/s) = 6.28953 7.28558 6.80580
#
# Compressibility (1/GPa) = 0.02041455
#
# Stress axis : x y z
#
# Youngs Moduli (GPa) = 32.81539 25.63321 54.02829
#
# Poissons Ratio (x) = 0.69721 0.57573
# Poissons Ratio (y) = 0.89257 -0.21967
# Poissons Ratio (z) = 0.34968 -0.10422
#
# Static dielectric constant tensor:
#      x y z
#    x 1.557640 0.000000 0.000000 
#    y 0.000000 1.560170 0.000000 
#    z 0.000000 0.000000 1.568940 
# 
# From -- ./inp_files/33028.got.cif
#   From: 2010.05.17/outbox.cif.g08.bks.cpg/sg64_17_cif.got.tgz:33028.got - 2010.06.03 16:29:19.
