data_PCOD9479855
_publ_section_title
;
Structure prediction by ZEFSAII (Michael W. Deem and Ramdas Pophale) SiO2 
 PCOD9479855
Probable space group: C M C A
;
_chemical_formula_sum "Si O2"
_cell_formula_units_Z 64
_cell_length_a 16.220880
_cell_length_b 8.074721
_cell_length_c 19.049534
_cell_angle_alpha 90.000000
_cell_angle_beta 90.000000
_cell_angle_gamma 90.000000
_cell_volume 2495.090445
_symmetry_space_group_name_H-M "C M C A"
_symmetry_group_IT_number 64
_symmetry_cell_setting 'orthorhombic'
loop_
_space_group_symop_operation_xyz
x,y,z
-x,1/2-y,1/2+z
x,-y,-z
-x,1/2+y,1/2-z
-x,-y,-z
x,1/2+y,1/2-z
-x,y,z
x,1/2-y,1/2+z
1/2+x,1/2+y,z
1/2-x,-y,1/2+z
1/2+x,1/2-y,-z
1/2-x,y,1/2-z
1/2-x,1/2-y,-z
1/2+x,y,1/2-z
1/2-x,1/2+y,z
1/2+x,-y,1/2+z
loop_
_atom_site_type_symbol
_atom_site_label
_atom_site_fract_x
_atom_site_fract_y
_atom_site_fract_z
Si Si1 0.669123 0.064593 0.145654
Si Si2 0.637226 0.062713 0.386889
Si Si3 0.594116 0.141510 0.737706
Si Si4 0.849208 0.255262 0.985962
O O1 0.766648 0.069640 0.134619
O O2 0.640869 0.218808 0.193411
O O3 0.633593 0.092598 0.066890
O O4 0.641128 0.908597 0.191471
O O5 0.613510 0.214649 0.437841
O O6 0.592978 0.016891 0.315134
O O7 0.629045 0.902436 0.437441
O O8 0.500000 0.185283 0.751289
O O9 0.750000 0.250000 0.000000
#
# Coordination Sequence:
#
# PCOD9479855 Si02
#       4
#    16  16  16  16
#     4  10  21  37  58  83 117 158 199 242 292 354
#     4   9  18  34  59  87 112 149 198 243 292 356
#     4  11  23  38  55  85 122 157 194 244 299 354
#     4   8  16  33  57  89 116 141 189 253 300 342
#
# _framework density 25.650372000000001
#
# number of rings (size 3 to 8) (size 9 to 14) (size 15 to 20)
#    0.000    2.500    0.000    1.500    0.000   10.000 
#    0.000   11.250    0.000    0.000    0.000   92.750 
#    0.000    0.000    0.000    0.000    0.000    0.000 
#
# Total GULP energy -178940.792178 kJ/mol
# GULP energy per Si atom -5591.899756 kJ/mol
# Density = 2.559199 g / cm^3
# Si number density = 25.650372 Si / 1000 Ang^3
#
#
#
# Elastic Constant Matrix: (Units=GPa)
#
#
# Indices 1 2 3 4 5 6 
#
# 1 66.8612 11.7547 27.3899 0.0000 0.0000 0.0000
# 2 11.7547 72.6750 50.3128 0.0000 0.0000 0.0000
# 3 27.3899 50.3128 209.9213 0.0000 0.0000 0.0000
# 4 0.0000 0.0000 0.0000 72.9059 0.0000 0.0000
# 5 0.0000 0.0000 0.0000 0.0000 -30.5403 0.0000
# 6 0.0000 0.0000 0.0000 0.0000 0.0000 15.0777
#
#
#
# Elastic Compliance Matrix: (Units=1/GPa)
#
#
# Indices 1 2 3 4 5 6 
#
# 1 0.015913 -0.001362 -0.001750 0.000000 0.000000 0.000000
# 2 -0.001362 0.016614 -0.003804 0.000000 0.000000 0.000000
# 3 -0.001750 -0.003804 0.005904 0.000000 0.000000 0.000000
# 4 0.000000 0.000000 0.000000 0.013716 0.000000 0.000000
# 5 0.000000 0.000000 0.000000 0.000000 -0.032744 0.000000
# 6 0.000000 0.000000 0.000000 0.000000 0.000000 0.066323
#
#
# Mechanical properties :
#
#
# Convention : Reuss Voigt Hill
#
# Bulk Modulus (GPa) = 40.65428 58.70804 49.68116
# Shear Modulus (GPa) = 46.40027 28.82198 37.61112
#
# Velocity S-wave (km/s) = 4.25779 3.35572 3.83338
# Velocity P-wave (km/s) = 6.32894 6.16052 6.24530
#
# Compressibility (1/GPa) = 0.02459766
#
# Stress axis : x y z
#
# Youngs Moduli (GPa) = 62.84307 60.19064 169.38405
#
# Poissons Ratio (x) = 0.08201 0.29637
# Poissons Ratio (y) = 0.08562 0.64436
# Poissons Ratio (z) = 0.10996 0.22897
#
# Static dielectric constant tensor:
#      x y z
#    x 1.897710 0.000000 0.000000 
#    y 0.000000 2.066910 0.000000 
#    z 0.000000 0.000000 2.010980 
# 
# From -- ./inp_files/31634.got.cif
#   From: 2010.05.17/outbox.cif.g08.bks.cpg/sg64_16_cif.got.tgz:31634.got - 2010.06.03 16:29:19.
