data_PCOD9479592
_publ_section_title
;
Structure prediction by ZEFSAII (Michael W. Deem and Ramdas Pophale) SiO2 
 PCOD9479592
Probable space group: C M C A
;
_chemical_formula_sum "Si O2"
_cell_formula_units_Z 64
_cell_length_a 10.868530
_cell_length_b 9.672550
_cell_length_c 23.249226
_cell_angle_alpha 90.000000
_cell_angle_beta 90.000000
_cell_angle_gamma 90.000000
_cell_volume 2444.107429
_symmetry_space_group_name_H-M "C M C A"
_symmetry_group_IT_number 64
_symmetry_cell_setting 'orthorhombic'
loop_
_space_group_symop_operation_xyz
x,y,z
-x,1/2-y,1/2+z
x,-y,-z
-x,1/2+y,1/2-z
-x,-y,-z
x,1/2+y,1/2-z
-x,y,z
x,1/2-y,1/2+z
1/2+x,1/2+y,z
1/2-x,-y,1/2+z
1/2+x,1/2-y,-z
1/2-x,y,1/2-z
1/2-x,1/2-y,-z
1/2+x,y,1/2-z
1/2-x,1/2+y,z
1/2+x,-y,1/2+z
loop_
_atom_site_type_symbol
_atom_site_label
_atom_site_fract_x
_atom_site_fract_y
_atom_site_fract_z
Si Si1 0.500000 0.774144 0.689345
Si Si2 0.000000 0.904135 0.419291
Si Si3 0.738045 0.900786 0.444655
Si Si4 0.756174 0.035506 0.184737
Si Si5 0.500000 0.735906 0.430513
Si Si6 0.000000 0.795490 0.688622
O O1 0.500000 0.650348 0.645122
O O2 0.623438 0.865751 0.684112
O O3 0.500000 0.713313 0.752915
O O4 0.000000 0.069496 0.427806
O O5 0.876851 0.845856 0.446473
O O6 0.762770 0.462025 0.378399
O O7 0.629401 0.792722 0.450872
O O8 0.724187 0.000000 0.500000
O O9 0.750000 0.966711 0.250000
O O10 0.627279 0.119632 0.184539
O O11 0.500000 0.799424 0.366004
#
# Coordination Sequence:
#
# PCOD9479592 Si02
#       6
#     8   8  16  16   8   8
#     4  10  23  42  75 107 144 192 250 305 376 439
#     4  12  27  48  74 107 147 197 248 308 371 450
#     4  12  27  49  74 111 153 198 249 313 371 442
#     4  10  21  44  76 105 144 195 245 305 376 443
#     4  12  26  48  74 108 151 195 248 304 376 448
#     4  10  20  44  69 106 144 185 244 305 365 441
#
# _framework density 26.18543
#
# number of rings (size 3 to 8) (size 9 to 14) (size 15 to 20)
#    0.000    1.000    2.500    3.000    0.000    3.000 
#    4.500    0.000    0.000    0.000    0.000    0.000 
#    0.000    0.000    0.000    0.000    0.000    0.000 
#
# Total GULP energy -178908.307542 kJ/mol
# GULP energy per Si atom -5590.884611 kJ/mol
# Density = 2.612583 g / cm^3
# Si number density = 26.185430 Si / 1000 Ang^3
#
#
#
# Elastic Constant Matrix: (Units=GPa)
#
#
# Indices 1 2 3 4 5 6 
#
# 1 286.1048 84.2191 58.0503 0.0000 0.0000 0.0000
# 2 84.2191 59.1786 82.5893 0.0000 0.0000 0.0000
# 3 58.0503 82.5893 262.7103 0.0000 0.0000 0.0000
# 4 0.0000 0.0000 0.0000 55.8994 0.0000 0.0000
# 5 0.0000 0.0000 0.0000 0.0000 -97.1774 0.0000
# 6 0.0000 0.0000 0.0000 0.0000 0.0000 134.8499
#
#
#
# Elastic Compliance Matrix: (Units=1/GPa)
#
#
# Indices 1 2 3 4 5 6 
#
# 1 0.007030 -0.013962 0.002836 0.000000 0.000000 0.000000
# 2 -0.013962 0.057839 -0.015098 0.000000 0.000000 0.000000
# 3 0.002836 -0.015098 0.007926 0.000000 0.000000 0.000000
# 4 0.000000 0.000000 0.000000 0.017889 0.000000 0.000000
# 5 0.000000 0.000000 0.000000 0.000000 -0.010290 0.000000
# 6 0.000000 0.000000 0.000000 0.000000 0.000000 0.007416
#
#
# Mechanical properties :
#
#
# Convention : Reuss Voigt Hill
#
# Bulk Modulus (GPa) = 49.14855 117.52346 83.33600
# Shear Modulus (GPa) = 34.00458 44.25674 39.13066
#
# Velocity S-wave (km/s) = 3.60753 4.11558 3.86990
# Velocity P-wave (km/s) = 6.01353 8.21965 7.20157
#
# Compressibility (1/GPa) = 0.02034648
#
# Stress axis : x y z
#
# Youngs Moduli (GPa) = 142.25163 17.28952 126.16488
#
# Poissons Ratio (x) = 0.24140 -0.35781
# Poissons Ratio (y) = 1.98616 1.90480
# Poissons Ratio (z) = -0.40343 0.26103
#
# Static dielectric constant tensor:
#      x y z
#    x 2.056720 0.000000 0.000000 
#    y 0.000000 2.025570 0.000000 
#    z 0.000000 0.000000 2.165820 
# 
# From -- ./inp_files/43781.got.cif
#   From: 2010.05.17/outbox.cif.g08.bks.cpg/sg64_22_cif.got.tgz:43781.got - 2010.06.03 16:29:19.
