data_PCOD9479558
_publ_section_title
;
Structure prediction by ZEFSAII (Michael W. Deem and Ramdas Pophale) SiO2 
 PCOD9479558
Probable space group: C M C A
;
_chemical_formula_sum "Si O2"
_cell_formula_units_Z 80
_cell_length_a 26.990349
_cell_length_b 15.622745
_cell_length_c 10.051607
_cell_angle_alpha 90.000000
_cell_angle_beta 90.000000
_cell_angle_gamma 90.000000
_cell_volume 4238.394179
_symmetry_space_group_name_H-M "C M C A"
_symmetry_group_IT_number 64
_symmetry_cell_setting 'orthorhombic'
loop_
_space_group_symop_operation_xyz
x,y,z
-x,1/2-y,1/2+z
x,-y,-z
-x,1/2+y,1/2-z
-x,-y,-z
x,1/2+y,1/2-z
-x,y,z
x,1/2-y,1/2+z
1/2+x,1/2+y,z
1/2-x,-y,1/2+z
1/2+x,1/2-y,-z
1/2-x,y,1/2-z
1/2-x,1/2-y,-z
1/2+x,y,1/2-z
1/2-x,1/2+y,z
1/2+x,-y,1/2+z
loop_
_atom_site_type_symbol
_atom_site_label
_atom_site_fract_x
_atom_site_fract_y
_atom_site_fract_z
Si Si1 0.626548 0.255038 0.264746
Si Si2 0.398229 0.932295 0.836128
Si Si3 0.557614 0.601146 0.629061
Si Si4 0.692635 0.733849 0.472172
Si Si5 0.709759 0.455358 0.634400
O O1 0.606070 0.157917 0.241545
O O2 0.582899 0.322467 0.289530
O O3 0.662370 0.257489 0.392424
O O4 0.661110 0.282766 0.140166
O O5 0.345592 0.983659 0.825841
O O6 0.436520 0.007915 0.801895
O O7 0.413175 0.906267 0.987621
O O8 0.500000 0.617681 0.602906
O O9 0.750000 0.750000 0.500000
O O10 0.696498 0.640252 0.408571
O O11 0.727737 0.500000 0.500000
O O12 0.750000 0.460822 0.750000
#
# Coordination Sequence:
#
# PCOD9479558 Si02
#       5
#    16  16  16  16  16
#     4  11  21  40  64  93 131 165 219 267 310 391
#     4  10  20  42  62  89 129 165 219 263 312 397
#     4  11  22  40  68  91 121 175 219 270 329 372
#     4  11  22  39  60  91 131 173 204 253 325 389
#     4  11  21  37  60  90 126 167 214 257 317 387
#
# _framework density 18.875073
#
# number of rings (size 3 to 8) (size 9 to 14) (size 15 to 20)
#    0.000    1.200    6.000    4.200    0.000    4.800 
#    0.000    1.000    0.000    1.200    0.000    0.000 
#    0.000    0.000    0.000    0.000    0.000    0.000 
#
# Total GULP energy -222746.223239 kJ/mol
# GULP energy per Si atom -5568.655581 kJ/mol
# Density = 1.883211 g / cm^3
# Si number density = 18.875073 Si / 1000 Ang^3
#
#
#
# Elastic Constant Matrix: (Units=GPa)
#
#
# Indices 1 2 3 4 5 6 
#
# 1 138.8016 43.4209 50.5426 0.0000 0.0000 0.0000
# 2 43.4209 77.0030 28.3417 0.0000 0.0000 0.0000
# 3 50.5426 28.3417 76.8555 0.0000 0.0000 0.0000
# 4 0.0000 0.0000 0.0000 32.7074 0.0000 0.0000
# 5 0.0000 0.0000 0.0000 0.0000 7.0490 0.0000
# 6 0.0000 0.0000 0.0000 0.0000 0.0000 25.5883
#
#
#
# Elastic Compliance Matrix: (Units=1/GPa)
#
#
# Indices 1 2 3 4 5 6 
#
# 1 0.010380 -0.003865 -0.005401 0.000000 0.000000 0.000000
# 2 -0.003865 0.016465 -0.003530 0.000000 0.000000 0.000000
# 3 -0.005401 -0.003530 0.017865 0.000000 0.000000 0.000000
# 4 0.000000 0.000000 0.000000 0.030574 0.000000 0.000000
# 5 0.000000 0.000000 0.000000 0.000000 0.141865 0.000000
# 6 0.000000 0.000000 0.000000 0.000000 0.000000 0.039080
#
#
# Mechanical properties :
#
#
# Convention : Reuss Voigt Hill
#
# Bulk Modulus (GPa) = 52.30632 59.69673 56.00152
# Shear Modulus (GPa) = 17.34932 24.42592 20.88762
#
# Velocity S-wave (km/s) = 3.03506 3.60124 3.33021
# Velocity P-wave (km/s) = 6.32884 6.99913 6.67241
#
# Compressibility (1/GPa) = 0.01911815
#
# Stress axis : x y z
#
# Youngs Moduli (GPa) = 96.33463 60.73347 55.97534
#
# Poissons Ratio (x) = 0.23477 0.30233
# Poissons Ratio (y) = 0.37238 0.19758
# Poissons Ratio (z) = 0.52031 0.21438
#
# Static dielectric constant tensor:
#      x y z
#    x 1.841190 0.000000 0.000000 
#    y 0.000000 1.647780 0.000000 
#    z 0.000000 0.000000 1.682670 
# 
# From -- ./inp_files/10209.got.cif
#   From: 2010.05.17/outbox.cif.g08.bks.cpg/sg64_6_cif.got.tgz:10209.got - 2010.06.03 16:29:19.
