data_PCOD9479367
_publ_section_title
;
Structure prediction by ZEFSAII (Michael W. Deem and Ramdas Pophale) SiO2 
 PCOD9479367
Probable space group: C M C A
;
_chemical_formula_sum "Si O2"
_cell_formula_units_Z 64
_cell_length_a 10.263363
_cell_length_b 20.267391
_cell_length_c 17.939147
_cell_angle_alpha 90.000000
_cell_angle_beta 90.000000
_cell_angle_gamma 90.000000
_cell_volume 3731.550507
_symmetry_space_group_name_H-M "C M C A"
_symmetry_group_IT_number 64
_symmetry_cell_setting 'orthorhombic'
loop_
_space_group_symop_operation_xyz
x,y,z
-x,1/2-y,1/2+z
x,-y,-z
-x,1/2+y,1/2-z
-x,-y,-z
x,1/2+y,1/2-z
-x,y,z
x,1/2-y,1/2+z
1/2+x,1/2+y,z
1/2-x,-y,1/2+z
1/2+x,1/2-y,-z
1/2-x,y,1/2-z
1/2-x,1/2-y,-z
1/2+x,y,1/2-z
1/2-x,1/2+y,z
1/2+x,-y,1/2+z
loop_
_atom_site_type_symbol
_atom_site_label
_atom_site_fract_x
_atom_site_fract_y
_atom_site_fract_z
Si Si1 0.230050 0.896867 0.043010
Si Si2 0.500000 0.822778 0.823425
Si Si3 0.250000 0.113356 0.250000
Si Si4 0.000000 0.201975 0.922006
Si Si5 0.000000 0.337997 0.993242
Si Si6 0.345473 0.530246 0.109336
O O1 0.126653 0.843121 0.070570
O O2 0.226775 0.960877 0.095872
O O3 0.371241 0.865323 0.031920
O O4 0.182901 0.924320 0.962659
O O5 0.371121 0.843535 0.779375
O O6 0.500000 0.746111 0.847273
O O7 0.500000 0.858362 0.905186
O O8 0.299127 0.067887 0.317566
O O9 0.000000 0.258357 0.986557
O O10 0.500000 0.517097 0.111937
#
# Coordination Sequence:
#
# PCOD9479367 Si02
#       6
#    16   8   8   8   8  16
#     4  11  20  38  62  91 118 149 206 243 302 339
#     4  10  24  37  63  85 118 161 194 243 288 362
#     4  12  22  42  58  88 122 160 200 236 310 352
#     4  10  20  39  60  86 118 154 199 247 291 355
#     4  10  22  34  58  97 116 147 191 260 290 341
#     4  11  21  36  64  86 119 160 192 253 291 367
#
# _framework density 17.151047999999999
#
# number of rings (size 3 to 8) (size 9 to 14) (size 15 to 20)
#    0.750    0.500    6.250    1.500    0.000    3.000 
#    0.000    2.500    0.000    0.000    0.000    0.000 
#    0.000    0.000    0.000    0.000    0.000    0.000 
#
# Total GULP energy -178513.381855 kJ/mol
# GULP energy per Si atom -5578.543183 kJ/mol
# Density = 1.711201 g / cm^3
# Si number density = 17.151048 Si / 1000 Ang^3
#
#
#
# Elastic Constant Matrix: (Units=GPa)
#
#
# Indices 1 2 3 4 5 6 
#
# 1 149.0925 68.2551 47.3572 0.0000 0.0000 0.0000
# 2 68.2551 135.1502 61.6070 0.0000 0.0000 0.0000
# 3 47.3572 61.6070 77.2904 0.0000 0.0000 0.0000
# 4 0.0000 0.0000 0.0000 24.4918 0.0000 0.0000
# 5 0.0000 0.0000 0.0000 0.0000 10.7362 0.0000
# 6 0.0000 0.0000 0.0000 0.0000 0.0000 3.1434
#
#
#
# Elastic Compliance Matrix: (Units=1/GPa)
#
#
# Indices 1 2 3 4 5 6 
#
# 1 0.009153 -0.003245 -0.003021 0.000000 0.000000 0.000000
# 2 -0.003245 0.012772 -0.008192 0.000000 0.000000 0.000000
# 3 -0.003021 -0.008192 0.021319 0.000000 0.000000 0.000000
# 4 0.000000 0.000000 0.000000 0.040830 0.000000 0.000000
# 5 0.000000 0.000000 0.000000 0.000000 0.093143 0.000000
# 6 0.000000 0.000000 0.000000 0.000000 0.000000 0.318123
#
#
# Mechanical properties :
#
#
# Convention : Reuss Voigt Hill
#
# Bulk Modulus (GPa) = 69.79901 79.55241 74.67571
# Shear Modulus (GPa) = 9.45120 19.96189 14.70654
#
# Velocity S-wave (km/s) = 2.35001 3.41528 2.93144
# Velocity P-wave (km/s) = 6.93890 7.87631 7.42242
#
# Compressibility (1/GPa) = 0.01432685
#
# Stress axis : x y z
#
# Youngs Moduli (GPa) = 109.25940 78.29331 46.90547
#
# Poissons Ratio (x) = 0.25407 0.14172
# Poissons Ratio (y) = 0.35456 0.38427
# Poissons Ratio (z) = 0.33011 0.64141
#
# Static dielectric constant tensor:
#      x y z
#    x 1.555320 0.000000 0.000000 
#    y 0.000000 1.571940 0.000000 
#    z 0.000000 0.000000 1.567110 
# 
# From -- ./inp_files/29315.got.cif
#   From: 2010.05.17/outbox.cif.g08.bks.cpg/sg64_15_cif.got.tgz:29315.got - 2010.06.03 16:29:19.
