data_PCOD9479257
_publ_section_title
;
Structure prediction by ZEFSAII (Michael W. Deem and Ramdas Pophale) SiO2 
 PCOD9479257
Probable space group: C M C A
;
_chemical_formula_sum "Si O2"
_cell_formula_units_Z 88
_cell_length_a 29.114385
_cell_length_b 8.623737
_cell_length_c 16.092783
_cell_angle_alpha 90.000000
_cell_angle_beta 90.000000
_cell_angle_gamma 90.000000
_cell_volume 4040.492260
_symmetry_space_group_name_H-M "C M C A"
_symmetry_group_IT_number 64
_symmetry_cell_setting 'orthorhombic'
loop_
_space_group_symop_operation_xyz
x,y,z
-x,1/2-y,1/2+z
x,-y,-z
-x,1/2+y,1/2-z
-x,-y,-z
x,1/2+y,1/2-z
-x,y,z
x,1/2-y,1/2+z
1/2+x,1/2+y,z
1/2-x,-y,1/2+z
1/2+x,1/2-y,-z
1/2-x,y,1/2-z
1/2-x,1/2-y,-z
1/2+x,y,1/2-z
1/2-x,1/2+y,z
1/2+x,-y,1/2+z
loop_
_atom_site_type_symbol
_atom_site_label
_atom_site_fract_x
_atom_site_fract_y
_atom_site_fract_z
Si Si1 0.450487 0.791987 0.412640
Si Si2 0.414911 0.500000 0.500000
Si Si3 0.241530 0.000000 0.500000
Si Si4 0.189381 0.217326 0.085909
Si Si5 0.612019 0.643575 0.668365
Si Si6 0.617529 0.500000 0.000000
Si Si7 0.946542 0.605945 0.260043
O O1 0.500000 0.862994 0.425385
O O2 0.443904 0.650268 0.476144
O O3 0.413109 0.921321 0.429618
O O4 0.448132 0.711030 0.323325
O O5 0.387649 0.453414 0.417307
O O6 0.211786 0.865377 0.458269
O O7 0.272143 0.917688 0.573058
O O8 0.162634 0.275908 0.169415
O O9 0.148386 0.139048 0.033999
O O10 0.591477 0.524479 0.736657
O O11 0.573893 0.780029 0.670425
O O12 0.000000 0.554856 0.272877
#
# Coordination Sequence:
#
# PCOD9479257 Si02
#       7
#    16   8   8  16  16   8  16
#     4  10  21  36  53  87 130 173 218 271 323 375
#     4  10  20  38  62  88 119 175 232 286 322 383
#     4   9  21  42  68 102 128 148 203 297 354 412
#     4  10  21  39  67  97 121 161 207 271 345 405
#     4  11  22  41  65  94 128 179 229 275 331 412
#     4  11  21  34  60  98 125 163 221 267 323 393
#     4  10  24  40  57  88 134 183 219 263 326 386
#
# _framework density 21.779523000000001
#
# number of rings (size 3 to 8) (size 9 to 14) (size 15 to 20)
#    0.000    1.818    1.818    1.636    5.091    2.182 
#    0.000    0.000    0.000    3.273    0.000    0.000 
#    0.000    0.000    0.000    0.000    0.000    0.000 
#
# Total GULP energy -245160.428123 kJ/mol
# GULP energy per Si atom -5571.827912 kJ/mol
# Density = 2.172995 g / cm^3
# Si number density = 21.779523 Si / 1000 Ang^3
#
#
#
# Elastic Constant Matrix: (Units=GPa)
#
#
# Indices 1 2 3 4 5 6 
#
# 1 129.6340 58.7239 16.4106 0.0000 0.0000 0.0000
# 2 58.7239 130.6205 25.9810 0.0000 0.0000 0.0000
# 3 16.4106 25.9810 42.6707 0.0000 0.0000 0.0000
# 4 0.0000 0.0000 0.0000 53.2696 0.0000 0.0000
# 5 0.0000 0.0000 0.0000 0.0000 21.3679 0.0000
# 6 0.0000 0.0000 0.0000 0.0000 0.0000 100.0513
#
#
#
# Elastic Compliance Matrix: (Units=1/GPa)
#
#
# Indices 1 2 3 4 5 6 
#
# 1 0.009743 -0.004136 -0.001229 0.000000 0.000000 0.000000
# 2 -0.004136 0.010466 -0.004782 0.000000 0.000000 0.000000
# 3 -0.001229 -0.004782 0.026820 0.000000 0.000000 0.000000
# 4 0.000000 0.000000 0.000000 0.018772 0.000000 0.000000
# 5 0.000000 0.000000 0.000000 0.000000 0.046799 0.000000
# 6 0.000000 0.000000 0.000000 0.000000 0.000000 0.009995
#
#
# Mechanical properties :
#
#
# Convention : Reuss Voigt Hill
#
# Bulk Modulus (GPa) = 37.40357 56.12848 46.76603
# Shear Modulus (GPa) = 32.93789 48.39174 40.66482
#
# Velocity S-wave (km/s) = 3.89309 4.71881 4.32570
# Velocity P-wave (km/s) = 6.11713 7.45095 6.81674
#
# Compressibility (1/GPa) = 0.02673542
#
# Stress axis : x y z
#
# Youngs Moduli (GPa) = 102.63646 95.54452 37.28625
#
# Poissons Ratio (x) = 0.39516 0.04582
# Poissons Ratio (y) = 0.42449 0.17830
# Poissons Ratio (z) = 0.12613 0.45690
#
# Static dielectric constant tensor:
#      x y z
#    x 1.817400 0.000000 0.000000 
#    y 0.000000 1.846140 0.000000 
#    z 0.000000 0.000000 1.812590 
# 
# From -- ./inp_files/35744.got.cif
#   From: 2010.05.17/outbox.cif.g08.bks.cpg/sg64_18_cif.got.tgz:35744.got - 2010.06.03 16:29:19.
