data_PCOD9479509
_publ_section_title
;
Structure prediction by ZEFSAII (Michael W. Deem and Ramdas Pophale) SiO2 
 PCOD9479509
Probable space group: C M C A
;
_chemical_formula_sum "Si O2"
_cell_formula_units_Z 64
_cell_length_a 22.504437
_cell_length_b 25.019689
_cell_length_c 4.950593
_cell_angle_alpha 90.000000
_cell_angle_beta 90.000000
_cell_angle_gamma 90.000000
_cell_volume 2787.451265
_symmetry_space_group_name_H-M "C M C A"
_symmetry_group_IT_number 64
_symmetry_cell_setting 'orthorhombic'
loop_
_space_group_symop_operation_xyz
x,y,z
-x,1/2-y,1/2+z
x,-y,-z
-x,1/2+y,1/2-z
-x,-y,-z
x,1/2+y,1/2-z
-x,y,z
x,1/2-y,1/2+z
1/2+x,1/2+y,z
1/2-x,-y,1/2+z
1/2+x,1/2-y,-z
1/2-x,y,1/2-z
1/2-x,1/2-y,-z
1/2+x,y,1/2-z
1/2-x,1/2+y,z
1/2+x,-y,1/2+z
loop_
_atom_site_type_symbol
_atom_site_label
_atom_site_fract_x
_atom_site_fract_y
_atom_site_fract_z
Si Si1 0.500000 0.285273 0.959912
Si Si2 0.869775 0.286912 0.418131
Si Si3 0.813761 0.891172 0.884084
Si Si4 0.500000 0.039838 0.749452
Si Si5 0.872107 0.560194 0.884469
O O1 0.500000 0.268453 0.647058
O O2 0.563502 0.309992 0.033028
O O3 0.864073 0.263551 0.119432
O O4 0.823301 0.332186 0.496036
O O5 0.750000 0.899090 0.750000
O O6 0.858793 0.901951 0.637505
O O7 0.827827 0.929929 0.135436
O O8 0.438101 0.070339 0.769681
O O9 0.500000 0.000000 0.500000
O O10 0.500000 0.000000 0.000000
O O11 0.867668 0.500000 0.000000
#
# Coordination Sequence:
#
# PCOD9479509 Si02
#       5
#     8  16  16   8  16
#     4   8  16  32  56  86 119 156 203 253 316 381
#     4  10  21  39  62  90 126 165 207 266 322 369
#     4  12  26  42  64  96 130 174 227 256 304 393
#     4  10  20  40  68  96 124 158 208 265 330 393
#     4  11  24  44  67  94 129 167 210 272 329 375
#
# _framework density 22.960041
#
# number of rings (size 3 to 8) (size 9 to 14) (size 15 to 20)
#    0.000    1.500    0.000    6.000    0.000    5.000 
#    0.000    3.750    0.000    0.000    0.000    0.000 
#    0.000    0.000    0.000    0.000    0.000    0.000 
#
# Total GULP energy -178986.232110 kJ/mol
# GULP energy per Si atom -5593.319753 kJ/mol
# Density = 2.290778 g / cm^3
# Si number density = 22.960041 Si / 1000 Ang^3
#
#
#
# Elastic Constant Matrix: (Units=GPa)
#
#
# Indices 1 2 3 4 5 6 
#
# 1 88.3444 38.8457 24.0145 0.0000 0.0000 0.0000
# 2 38.8457 78.2096 26.7149 0.0000 0.0000 0.0000
# 3 24.0145 26.7149 112.9500 0.0000 0.0000 0.0000
# 4 0.0000 0.0000 0.0000 41.9109 0.0000 0.0000
# 5 0.0000 0.0000 0.0000 0.0000 75.5993 0.0000
# 6 0.0000 0.0000 0.0000 0.0000 0.0000 23.7939
#
#
#
# Elastic Compliance Matrix: (Units=1/GPa)
#
#
# Indices 1 2 3 4 5 6 
#
# 1 0.014719 -0.006791 -0.001523 0.000000 0.000000 0.000000
# 2 -0.006791 0.017043 -0.002587 0.000000 0.000000 0.000000
# 3 -0.001523 -0.002587 0.009789 0.000000 0.000000 0.000000
# 4 0.000000 0.000000 0.000000 0.023860 0.000000 0.000000
# 5 0.000000 0.000000 0.000000 0.000000 0.013228 0.000000
# 6 0.000000 0.000000 0.000000 0.000000 0.000000 0.042028
#
#
# Mechanical properties :
#
#
# Convention : Reuss Voigt Hill
#
# Bulk Modulus (GPa) = 50.63542 50.96159 50.79850
# Shear Modulus (GPa) = 33.54540 40.92275 37.23408
#
# Velocity S-wave (km/s) = 3.82649 4.22636 4.03139
# Velocity P-wave (km/s) = 6.45169 6.78676 6.62135
#
# Compressibility (1/GPa) = 0.01974902
#
# Stress axis : x y z
#
# Youngs Moduli (GPa) = 67.93804 58.67633 102.15254
#
# Poissons Ratio (x) = 0.39844 0.15562
# Poissons Ratio (y) = 0.46133 0.26429
# Poissons Ratio (z) = 0.10350 0.15181
#
# Static dielectric constant tensor:
#      x y z
#    x 1.992100 0.000000 0.000000 
#    y 0.000000 1.860270 0.000000 
#    z 0.000000 0.000000 1.798680 
# 
# From -- ./inp_files/1815.got.cif
#   From: 2010.05.17/outbox.cif.g08.bks.cpg/sg64_1_cif.got.tgz:1815.got - 2010.06.03 16:29:19.
