data_PCOD9479512
_publ_section_title
;
Structure prediction by ZEFSAII (Michael W. Deem and Ramdas Pophale) SiO2 
 PCOD9479512
Probable space group: C M C A
;
_chemical_formula_sum "Si O2"
_cell_formula_units_Z 40
_cell_length_a 10.005434
_cell_length_b 16.129539
_cell_length_c 9.486054
_cell_angle_alpha 90.000000
_cell_angle_beta 90.000000
_cell_angle_gamma 90.000000
_cell_volume 1530.888212
_symmetry_space_group_name_H-M "C M C A"
_symmetry_group_IT_number 64
_symmetry_cell_setting 'orthorhombic'
loop_
_space_group_symop_operation_xyz
x,y,z
-x,1/2-y,1/2+z
x,-y,-z
-x,1/2+y,1/2-z
-x,-y,-z
x,1/2+y,1/2-z
-x,y,z
x,1/2-y,1/2+z
1/2+x,1/2+y,z
1/2-x,-y,1/2+z
1/2+x,1/2-y,-z
1/2-x,y,1/2-z
1/2-x,1/2-y,-z
1/2+x,y,1/2-z
1/2-x,1/2+y,z
1/2+x,-y,1/2+z
loop_
_atom_site_type_symbol
_atom_site_label
_atom_site_fract_x
_atom_site_fract_y
_atom_site_fract_z
Si Si1 0.000000 0.767688 0.425230
Si Si2 0.000000 0.635152 0.651140
Si Si3 0.250000 0.972576 0.250000
Si Si4 0.350525 0.866779 0.860290
O O1 0.000000 0.788373 0.261832
O O2 0.125813 0.817324 0.496038
O O3 0.000000 0.677672 0.497657
O O4 0.870190 0.581233 0.687795
O O5 0.298118 0.039742 0.133600
O O6 0.500000 0.876544 0.801099
O O7 0.250000 0.824093 0.750000
#
# Coordination Sequence:
#
# PCOD9479512 Si02
#       4
#     8   8   8  16
#     4  10  25  43  67  93 141 178 211 270 338 388
#     4  12  25  43  67  99 135 176 221 268 330 396
#     4  10  20  40  68  98 122 168 226 272 324 394
#     4   8  17  40  65  94 126 170 208 281 322 394
#
# _framework density 26.128620999999999
#
# number of rings (size 3 to 8) (size 9 to 14) (size 15 to 20)
#    2.400    0.000    2.000    0.000    2.800    4.800 
#    0.000    0.000    0.000    7.200    0.000    0.000 
#    0.000    0.000    0.000    0.000    0.000    0.000 
#
# Total GULP energy -111765.524594 kJ/mol
# GULP energy per Si atom -5588.276230 kJ/mol
# Density = 2.606915 g / cm^3
# Si number density = 26.128621 Si / 1000 Ang^3
#
#
#
# Elastic Constant Matrix: (Units=GPa)
#
#
# Indices 1 2 3 4 5 6 
#
# 1 154.9646 50.3132 -1.5657 0.0000 0.0000 0.0000
# 2 50.3132 158.5368 7.3755 0.0000 0.0000 0.0000
# 3 -1.5657 7.3755 99.1134 0.0000 0.0000 0.0000
# 4 0.0000 0.0000 0.0000 3.4359 0.0000 0.0000
# 5 0.0000 0.0000 0.0000 0.0000 -6.1093 0.0000
# 6 0.0000 0.0000 0.0000 0.0000 0.0000 -291.5534
#
#
#
# Elastic Compliance Matrix: (Units=1/GPa)
#
#
# Indices 1 2 3 4 5 6 
#
# 1 0.007202 -0.002299 0.000285 0.000000 0.000000 0.000000
# 2 -0.002299 0.007063 -0.000562 0.000000 0.000000 0.000000
# 3 0.000285 -0.000562 0.010136 0.000000 0.000000 0.000000
# 4 0.000000 0.000000 0.000000 0.291040 0.000000 0.000000
# 5 0.000000 0.000000 0.000000 0.000000 -0.163685 0.000000
# 6 0.000000 0.000000 0.000000 0.000000 0.000000 -0.003430
#
#
# Mechanical properties :
#
#
# Convention : Reuss Voigt Hill
#
# Bulk Modulus (GPa) = 51.94958 58.31786 55.13372
# Shear Modulus (GPa) = 31.27047 -35.07923 -1.90438
#
# Velocity S-wave (km/s) = 3.46322 -3.66807 -0.85465
# Velocity P-wave (km/s) = 5.99310 2.10436 4.49141
#
# Compressibility (1/GPa) = 0.01924943
#
# Stress axis : x y z
#
# Youngs Moduli (GPa) = 138.84278 141.57418 98.66044
#
# Poissons Ratio (x) = 0.32548 -0.02810
# Poissons Ratio (y) = 0.31920 0.05544
# Poissons Ratio (z) = -0.03955 0.07956
#
# Static dielectric constant tensor:
#      x y z
#    x 2.071300 0.000000 0.000000 
#    y 0.000000 2.039250 0.000000 
#    z 0.000000 0.000000 2.103390 
# 
# From -- ./inp_files/12534.got.cif
#   From: 2010.05.17/outbox.cif.g08.bks.cpg/sg64_7_cif.got.tgz:12534.got - 2010.06.03 16:29:19.
