data_PCOD9479435
_publ_section_title
;
Structure prediction by ZEFSAII (Michael W. Deem and Ramdas Pophale) SiO2 
 PCOD9479435
Probable space group: C M C A
;
_chemical_formula_sum "Si O2"
_cell_formula_units_Z 52
_cell_length_a 21.290069
_cell_length_b 4.894925
_cell_length_c 18.516768
_cell_angle_alpha 90.000000
_cell_angle_beta 90.000000
_cell_angle_gamma 90.000000
_cell_volume 1929.693332
_symmetry_space_group_name_H-M "C M C A"
_symmetry_group_IT_number 64
_symmetry_cell_setting 'orthorhombic'
loop_
_space_group_symop_operation_xyz
x,y,z
-x,1/2-y,1/2+z
x,-y,-z
-x,1/2+y,1/2-z
-x,-y,-z
x,1/2+y,1/2-z
-x,y,z
x,1/2-y,1/2+z
1/2+x,1/2+y,z
1/2-x,-y,1/2+z
1/2+x,1/2-y,-z
1/2-x,y,1/2-z
1/2-x,1/2-y,-z
1/2+x,y,1/2-z
1/2-x,1/2+y,z
1/2+x,-y,1/2+z
loop_
_atom_site_type_symbol
_atom_site_label
_atom_site_fract_x
_atom_site_fract_y
_atom_site_fract_z
Si Si1 0.808711 0.000000 0.000000
Si Si2 0.500000 0.500000 0.500000
Si Si3 0.394149 0.863528 0.892454
Si Si4 0.785298 0.768680 0.352387
Si Si5 0.500000 0.678844 0.799360
O O1 0.852971 0.811739 0.051541
O O2 0.780288 0.210346 0.060513
O O3 0.554861 0.469567 0.438146
O O4 0.436781 0.657314 0.845926
O O5 0.349435 0.064408 0.846597
O O6 0.770570 0.466666 0.325116
O O7 0.500000 0.481567 0.732237
#
# Coordination Sequence:
#
# PCOD9479435 Si02
#       5
#     8   4  16  16   8
#     4  12  22  38  64 110 147 181 214 278 350 436
#     4  10  20  40  56 104 134 172 214 282 338 414
#     4  11  25  41  71 103 141 181 228 285 353 413
#     4  12  24  39  64 106 152 184 214 267 350 432
#     4  11  30  52  74  96 131 188 246 296 338 403
#
# _framework density 26.947286999999999
#
# number of rings (size 3 to 8) (size 9 to 14) (size 15 to 20)
#    0.000    0.615    6.154    0.923    4.308    2.462 
#    0.000    0.000    0.000    5.538    0.000    0.000 
#    0.000    0.000    0.000    0.000    0.000    0.000 
#
# Total GULP energy -144896.411332 kJ/mol
# GULP energy per Si atom -5572.938897 kJ/mol
# Density = 2.688595 g / cm^3
# Si number density = 26.947287 Si / 1000 Ang^3
#
#
#
# Elastic Constant Matrix: (Units=GPa)
#
#
# Indices 1 2 3 4 5 6 
#
# 1 157.7928 46.5788 17.2081 0.0000 0.0000 0.0000
# 2 46.5788 121.2657 -5.3455 0.0000 0.0000 0.0000
# 3 17.2081 -5.3455 91.2366 0.0000 0.0000 0.0000
# 4 0.0000 0.0000 0.0000 23.7113 0.0000 0.0000
# 5 0.0000 0.0000 0.0000 0.0000 25.4774 0.0000
# 6 0.0000 0.0000 0.0000 0.0000 0.0000 17.5987
#
#
#
# Elastic Compliance Matrix: (Units=1/GPa)
#
#
# Indices 1 2 3 4 5 6 
#
# 1 0.007362 -0.002897 -0.001558 0.000000 0.000000 0.000000
# 2 -0.002897 0.009407 0.001098 0.000000 0.000000 0.000000
# 3 -0.001558 0.001098 0.011319 0.000000 0.000000 0.000000
# 4 0.000000 0.000000 0.000000 0.042174 0.000000 0.000000
# 5 0.000000 0.000000 0.000000 0.000000 0.039250 0.000000
# 6 0.000000 0.000000 0.000000 0.000000 0.000000 0.056822
#
#
# Mechanical properties :
#
#
# Convention : Reuss Voigt Hill
#
# Bulk Modulus (GPa) = 46.78676 54.13087 50.45882
# Shear Modulus (GPa) = 27.75085 34.14774 30.94930
#
# Velocity S-wave (km/s) = 3.21256 3.56364 3.39265
# Velocity P-wave (km/s) = 5.58218 6.08802 5.84058
#
# Compressibility (1/GPa) = 0.02137357
#
# Stress axis : x y z
#
# Youngs Moduli (GPa) = 135.82479 106.29991 88.34909
#
# Poissons Ratio (x) = 0.30791 0.13768
# Poissons Ratio (y) = 0.39344 -0.09696
# Poissons Ratio (z) = 0.21166 -0.11666
#
# Static dielectric constant tensor:
#      x y z
#    x 2.069460 0.000000 0.000000 
#    y 0.000000 2.168330 0.000000 
#    z 0.000000 0.000000 2.170020 
# 
# From -- ./inp_files/40652.got.cif
#   From: 2010.05.17/outbox.cif.g08.bks.cpg/sg64_21_cif.got.tgz:40652.got - 2010.06.03 16:29:19.
