data_PCOD9479582
_publ_section_title
;
Structure prediction by ZEFSAII (Michael W. Deem and Ramdas Pophale) SiO2 
 PCOD9479582
Probable space group: C M C A
;
_chemical_formula_sum "Si O2"
_cell_formula_units_Z 80
_cell_length_a 25.586793
_cell_length_b 9.423322
_cell_length_c 15.400504
_cell_angle_alpha 90.000000
_cell_angle_beta 90.000000
_cell_angle_gamma 90.000000
_cell_volume 3713.255397
_symmetry_space_group_name_H-M "C M C A"
_symmetry_group_IT_number 64
_symmetry_cell_setting 'orthorhombic'
loop_
_space_group_symop_operation_xyz
x,y,z
-x,1/2-y,1/2+z
x,-y,-z
-x,1/2+y,1/2-z
-x,-y,-z
x,1/2+y,1/2-z
-x,y,z
x,1/2-y,1/2+z
1/2+x,1/2+y,z
1/2-x,-y,1/2+z
1/2+x,1/2-y,-z
1/2-x,y,1/2-z
1/2-x,1/2-y,-z
1/2+x,y,1/2-z
1/2-x,1/2+y,z
1/2+x,-y,1/2+z
loop_
_atom_site_type_symbol
_atom_site_label
_atom_site_fract_x
_atom_site_fract_y
_atom_site_fract_z
Si Si1 0.849548 0.670375 0.005557
Si Si2 0.181273 0.863268 0.317756
Si Si3 0.285917 0.586876 0.911482
Si Si4 0.636878 0.089111 0.293447
Si Si5 0.560901 0.146481 0.446090
O O1 0.831458 0.708244 0.909238
O O2 0.906880 0.739536 0.004190
O O3 0.849359 0.500000 0.000000
O O4 0.808326 0.757362 0.064022
O O5 0.239206 0.914253 0.341200
O O6 0.169217 0.726231 0.259889
O O7 0.140241 0.983626 0.289365
O O8 0.331452 0.502514 0.863905
O O9 0.272269 0.500000 0.000000
O O10 0.584711 0.129219 0.347638
O O11 0.500000 0.182172 0.440139
O O12 0.566596 0.000000 0.500000
#
# Coordination Sequence:
#
# PCOD9479582 Si02
#       5
#    16  16  16  16  16
#     4  11  23  40  65  95 133 168 226 284 319 394
#     4  11  26  38  62  89 136 179 216 263 332 399
#     4  12  22  43  63  89 131 182 223 263 323 395
#     4  11  24  43  59  97 133 170 219 273 322 401
#     4  10  20  43  74  95 121 171 222 275 337 387
#
# _framework density 21.544438
#
# number of rings (size 3 to 8) (size 9 to 14) (size 15 to 20)
#    0.000    1.000    6.000    1.800    5.600    2.000 
#    0.000    4.000    0.000    0.000    0.000    0.000 
#    0.000    0.000    0.000    0.000    0.000    0.000 
#
# Total GULP energy -222675.163475 kJ/mol
# GULP energy per Si atom -5566.879087 kJ/mol
# Density = 2.149540 g / cm^3
# Si number density = 21.544438 Si / 1000 Ang^3
#
#
#
# Elastic Constant Matrix: (Units=GPa)
#
#
# Indices 1 2 3 4 5 6 
#
# 1 112.8565 15.6543 1.2505 0.0000 0.0000 0.0000
# 2 15.6543 122.3781 -11.9405 0.0000 0.0000 0.0000
# 3 1.2505 -11.9405 65.5945 0.0000 0.0000 0.0000
# 4 0.0000 0.0000 0.0000 33.5599 0.0000 0.0000
# 5 0.0000 0.0000 0.0000 0.0000 18.7642 0.0000
# 6 0.0000 0.0000 0.0000 0.0000 0.0000 13.4125
#
#
#
# Elastic Compliance Matrix: (Units=1/GPa)
#
#
# Indices 1 2 3 4 5 6 
#
# 1 0.009031 -0.001193 -0.000389 0.000000 0.000000 0.000000
# 2 -0.001193 0.008477 0.001566 0.000000 0.000000 0.000000
# 3 -0.000389 0.001566 0.015538 0.000000 0.000000 0.000000
# 4 0.000000 0.000000 0.000000 0.029797 0.000000 0.000000
# 5 0.000000 0.000000 0.000000 0.000000 0.053293 0.000000
# 6 0.000000 0.000000 0.000000 0.000000 0.000000 0.074557
#
#
# Mechanical properties :
#
#
# Convention : Reuss Voigt Hill
#
# Bulk Modulus (GPa) = 30.29234 34.52865 32.41050
# Shear Modulus (GPa) = 24.78558 32.87164 28.82861
#
# Velocity S-wave (km/s) = 3.39549 3.91034 3.66197
# Velocity P-wave (km/s) = 5.42802 6.03731 5.74076
#
# Compressibility (1/GPa) = 0.03301164
#
# Stress axis : x y z
#
# Youngs Moduli (GPa) = 110.73426 117.96902 64.35986
#
# Poissons Ratio (x) = 0.14076 0.02506
# Poissons Ratio (y) = 0.13212 -0.10078
# Poissons Ratio (z) = 0.04312 -0.18472
#
# Static dielectric constant tensor:
#      x y z
#    x 2.035250 0.000000 0.000000 
#    y 0.000000 1.970400 0.000000 
#    z 0.000000 0.000000 2.062220 
# 
# From -- ./inp_files/35326.got.cif
#   From: 2010.05.17/outbox.cif.g08.bks.cpg/sg64_18_cif.got.tgz:35326.got - 2010.06.03 16:29:19.
