data_PCOD9479675
_publ_section_title
;
Structure prediction by ZEFSAII (Michael W. Deem and Ramdas Pophale) SiO2 
 PCOD9479675
Probable space group: C M C A
;
_chemical_formula_sum "Si O2"
_cell_formula_units_Z 116
_cell_length_a 9.532481
_cell_length_b 24.474268
_cell_length_c 28.356163
_cell_angle_alpha 90.000000
_cell_angle_beta 90.000000
_cell_angle_gamma 90.000000
_cell_volume 6615.506856
_symmetry_space_group_name_H-M "C M C A"
_symmetry_group_IT_number 64
_symmetry_cell_setting 'orthorhombic'
loop_
_space_group_symop_operation_xyz
x,y,z
-x,1/2-y,1/2+z
x,-y,-z
-x,1/2+y,1/2-z
-x,-y,-z
x,1/2+y,1/2-z
-x,y,z
x,1/2-y,1/2+z
1/2+x,1/2+y,z
1/2-x,-y,1/2+z
1/2+x,1/2-y,-z
1/2-x,y,1/2-z
1/2-x,1/2-y,-z
1/2+x,y,1/2-z
1/2-x,1/2+y,z
1/2+x,-y,1/2+z
loop_
_atom_site_type_symbol
_atom_site_label
_atom_site_fract_x
_atom_site_fract_y
_atom_site_fract_z
Si Si1 0.333711 0.332652 0.608763
Si Si2 0.660917 0.980421 0.704502
Si Si3 0.162345 0.227537 0.956089
Si Si4 0.842925 0.122554 0.556938
Si Si5 0.336236 0.651839 0.203677
Si Si6 0.000000 0.000000 0.000000
Si Si7 0.738133 0.429784 0.540761
Si Si8 0.343399 0.983390 0.117090
O O1 0.500000 0.348105 0.614143
O O2 0.330009 0.273903 0.583805
O O3 0.251313 0.331111 0.657778
O O4 0.257428 0.377064 0.575120
O O5 0.500000 0.998410 0.707901
O O6 0.750000 0.998181 0.750000
O O7 0.662562 0.914395 0.703650
O O8 0.731835 0.000464 0.656389
O O9 0.230162 0.170346 0.941366
O O10 0.000000 0.220042 0.969227
O O11 0.250000 0.250000 0.000000
O O12 0.835513 0.092322 0.506384
O O13 0.818289 0.076578 0.596178
O O14 0.000000 0.145365 0.562339
O O15 0.500000 0.669471 0.203582
O O16 0.250000 0.669558 0.250000
O O17 0.121725 0.959372 0.977306
O O18 0.663825 0.475320 0.572935
O O19 0.500000 0.986570 0.137610
#
# Coordination Sequence:
#
# PCOD9479675 Si02
#       8
#    16  16  16  16  16   4  16  16
#     4  11  23  39  60  86 118 158 200 245 301 356
#     4  10  21  35  55  83 117 148 188 232 286 349
#     4  11  24  39  59  84 115 156 201 249 294 343
#     4  11  23  40  58  82 117 158 202 241 291 347
#     4  10  21  36  58  88 119 153 190 239 296 356
#     4  12  28  36  50  92 124 156 202 244 286 352
#     4  12  23  36  56  81 122 156 196 240 291 347
#     4  11  22  36  58  83 114 155 191 235 292 349
#
# _framework density 17.534559000000002
#
# number of rings (size 3 to 8) (size 9 to 14) (size 15 to 20)
#    0.000    1.103    4.138    2.483    2.897    3.862 
#    0.000    0.000    0.000    0.828    0.000    5.793 
#    0.000    0.000    0.000    0.000    0.000    0.000 
#
# Total GULP energy -323252.969110 kJ/mol
# GULP energy per Si atom -5573.327054 kJ/mol
# Density = 1.749465 g / cm^3
# Si number density = 17.534559 Si / 1000 Ang^3
#
#
#
# Elastic Constant Matrix: (Units=GPa)
#
#
# Indices 1 2 3 4 5 6 
#
# 1 159.1716 60.1248 68.7473 0.0000 0.0000 0.0000
# 2 60.1248 66.9912 19.5903 0.0000 0.0000 0.0000
# 3 68.7473 19.5903 88.4803 0.0000 0.0000 0.0000
# 4 0.0000 0.0000 0.0000 10.9313 0.0000 0.0000
# 5 0.0000 0.0000 0.0000 0.0000 9.8544 0.0000
# 6 0.0000 0.0000 0.0000 0.0000 0.0000 117.6338
#
#
#
# Elastic Compliance Matrix: (Units=1/GPa)
#
#
# Indices 1 2 3 4 5 6 
#
# 1 0.013592 -0.009741 -0.008404 0.000000 0.000000 0.000000
# 2 -0.009741 0.022942 0.002489 0.000000 0.000000 0.000000
# 3 -0.008404 0.002489 0.017280 0.000000 0.000000 0.000000
# 4 0.000000 0.000000 0.000000 0.091481 0.000000 0.000000
# 5 0.000000 0.000000 0.000000 0.000000 0.101478 0.000000
# 6 0.000000 0.000000 0.000000 0.000000 0.000000 0.008501
#
#
# Mechanical properties :
#
#
# Convention : Reuss Voigt Hill
#
# Bulk Modulus (GPa) = 44.43914 67.95199 56.19556
# Shear Modulus (GPa) = 17.00182 38.76261 27.88222
#
# Velocity S-wave (km/s) = 3.11725 4.70685 3.99197
# Velocity P-wave (km/s) = 6.19315 8.26901 7.30519
#
# Compressibility (1/GPa) = 0.02250269
#
# Stress axis : x y z
#
# Youngs Moduli (GPa) = 73.57424 43.58792 57.86916
#
# Poissons Ratio (x) = 0.42459 0.48632
# Poissons Ratio (y) = 0.71669 -0.14404
# Poissons Ratio (z) = 0.61830 -0.10849
#
# Static dielectric constant tensor:
#      x y z
#    x 1.609570 0.000000 0.000000 
#    y 0.000000 1.581100 0.000000 
#    z 0.000000 0.000000 1.580970 
# 
# From -- ./inp_files/48554.got.cif
#   From: 2010.05.17/outbox.cif.g08.bks.cpg/sg64_25_cif.got.tgz:48554.got - 2010.06.03 16:29:19.
