data_PCOD9479214
_publ_section_title
;
Structure prediction by ZEFSAII (Michael W. Deem and Ramdas Pophale) SiO2 
 PCOD9479214
Probable space group: C M C A
;
_chemical_formula_sum "Si O2"
_cell_formula_units_Z 116
_cell_length_a 25.483192
_cell_length_b 23.030756
_cell_length_c 8.497416
_cell_angle_alpha 90.000000
_cell_angle_beta 90.000000
_cell_angle_gamma 90.000000
_cell_volume 4987.109463
_symmetry_space_group_name_H-M "C M C A"
_symmetry_group_IT_number 64
_symmetry_cell_setting 'orthorhombic'
loop_
_space_group_symop_operation_xyz
x,y,z
-x,1/2-y,1/2+z
x,-y,-z
-x,1/2+y,1/2-z
-x,-y,-z
x,1/2+y,1/2-z
-x,y,z
x,1/2-y,1/2+z
1/2+x,1/2+y,z
1/2-x,-y,1/2+z
1/2+x,1/2-y,-z
1/2-x,y,1/2-z
1/2-x,1/2-y,-z
1/2+x,y,1/2-z
1/2-x,1/2+y,z
1/2+x,-y,1/2+z
loop_
_atom_site_type_symbol
_atom_site_label
_atom_site_fract_x
_atom_site_fract_y
_atom_site_fract_z
Si Si1 0.000000 0.000000 0.000000
Si Si2 0.610250 0.488284 0.828257
Si Si3 0.805930 0.723820 0.301124
Si Si4 0.056987 0.183193 0.532731
Si Si5 0.835125 0.326231 0.375490
Si Si6 0.652268 0.386025 0.618538
Si Si7 0.196772 0.435485 0.185201
Si Si8 0.444408 0.315173 0.091214
O O1 0.048185 0.996362 0.864218
O O2 0.626468 0.427935 0.747849
O O3 0.641355 0.532995 0.717185
O O4 0.635338 0.500000 0.000000
O O5 0.750000 0.747207 0.250000
O O6 0.807561 0.705660 0.480773
O O7 0.844650 0.775800 0.254426
O O8 0.818257 0.666808 0.201909
O O9 0.104551 0.143544 0.477312
O O10 0.061786 0.249644 0.472099
O O11 0.052860 0.183621 0.720766
O O12 0.000000 0.162313 0.470538
O O13 0.805815 0.377878 0.292657
O O14 0.890848 0.347795 0.445684
O O15 0.692179 0.417988 0.498164
O O16 0.250000 0.466098 0.250000
O O17 0.500000 0.339593 0.029248
#
# Coordination Sequence:
#
# PCOD9479214 Si02
#       8
#     4  16  16  16  16  16  16  16
#     4   8  24  56  78 104 144 176 250 302 372 430
#     4  10  25  50  75 104 137 184 235 301 364 434
#     4  12  25  40  64  96 139 188 235 290 345 419
#     4  10  21  37  61  95 137 180 230 282 345 419
#     4  12  22  42  63  97 139 189 237 291 352 421
#     4  12  24  44  70 104 137 184 236 289 366 428
#     4  12  26  46  72 105 143 186 241 301 364 436
#     4  10  20  38  59  91 133 180 221 279 339 413
#
# _framework density 23.259967
#
# number of rings (size 3 to 8) (size 9 to 14) (size 15 to 20)
#    0.414    0.552    2.759    4.552    0.966    1.655 
#    2.483    0.690    0.000    0.000    0.000    0.000 
#    0.000    0.000    0.000    0.000    0.000    0.000 
#
# Total GULP energy -323503.980136 kJ/mol
# GULP energy per Si atom -5577.654830 kJ/mol
# Density = 2.320703 g / cm^3
# Si number density = 23.259967 Si / 1000 Ang^3
#
#
#
# Elastic Constant Matrix: (Units=GPa)
#
#
# Indices 1 2 3 4 5 6 
#
# 1 145.0709 7.2456 15.2212 0.0000 0.0000 0.0000
# 2 7.2456 31.2837 11.3957 0.0000 0.0000 0.0000
# 3 15.2212 11.3957 82.2098 0.0000 0.0000 0.0000
# 4 0.0000 0.0000 0.0000 35.0054 0.0000 0.0000
# 5 0.0000 0.0000 0.0000 0.0000 31.5877 0.0000
# 6 0.0000 0.0000 0.0000 0.0000 0.0000 20.5278
#
#
#
# Elastic Compliance Matrix: (Units=1/GPa)
#
#
# Indices 1 2 3 4 5 6 
#
# 1 0.007074 -0.001223 -0.001140 0.000000 0.000000 0.000000
# 2 -0.001223 0.033877 -0.004469 0.000000 0.000000 0.000000
# 3 -0.001140 -0.004469 0.012995 0.000000 0.000000 0.000000
# 4 0.000000 0.000000 0.000000 0.028567 0.000000 0.000000
# 5 0.000000 0.000000 0.000000 0.000000 0.031658 0.000000
# 6 0.000000 0.000000 0.000000 0.000000 0.000000 0.048714
#
#
# Mechanical properties :
#
#
# Convention : Reuss Voigt Hill
#
# Bulk Modulus (GPa) = 24.82622 36.25438 30.54030
# Shear Modulus (GPa) = 26.31900 32.40431 29.36165
#
# Velocity S-wave (km/s) = 3.36745 3.73652 3.55678
# Velocity P-wave (km/s) = 5.08096 5.85115 5.47960
#
# Compressibility (1/GPa) = 0.04027999
#
# Stress axis : x y z
#
# Youngs Moduli (GPa) = 141.36480 29.51870 76.95472
#
# Poissons Ratio (x) = 0.03610 0.08774
# Poissons Ratio (y) = 0.17289 0.34395
# Poissons Ratio (z) = 0.16118 0.13193
#
# Static dielectric constant tensor:
#      x y z
#    x 1.986420 0.000000 0.000000 
#    y 0.000000 1.884930 0.000000 
#    z 0.000000 0.000000 1.955280 
# 
# From -- ./inp_files/10652.got.cif
#   From: 2010.05.17/outbox.cif.g08.bks.cpg/sg64_6_cif.got.tgz:10652.got - 2010.06.03 16:29:19.
