data_PCOD9479620
_publ_section_title
;
Structure prediction by ZEFSAII (Michael W. Deem and Ramdas Pophale) SiO2 
 PCOD9479620
Probable space group: C M C A
;
_chemical_formula_sum "Si O2"
_cell_formula_units_Z 96
_cell_length_a 25.344199
_cell_length_b 22.409118
_cell_length_c 8.957526
_cell_angle_alpha 90.000000
_cell_angle_beta 90.000000
_cell_angle_gamma 90.000000
_cell_volume 5087.347582
_symmetry_space_group_name_H-M "C M C A"
_symmetry_group_IT_number 64
_symmetry_cell_setting 'orthorhombic'
loop_
_space_group_symop_operation_xyz
x,y,z
-x,1/2-y,1/2+z
x,-y,-z
-x,1/2+y,1/2-z
-x,-y,-z
x,1/2+y,1/2-z
-x,y,z
x,1/2-y,1/2+z
1/2+x,1/2+y,z
1/2-x,-y,1/2+z
1/2+x,1/2-y,-z
1/2-x,y,1/2-z
1/2-x,1/2-y,-z
1/2+x,y,1/2-z
1/2-x,1/2+y,z
1/2+x,-y,1/2+z
loop_
_atom_site_type_symbol
_atom_site_label
_atom_site_fract_x
_atom_site_fract_y
_atom_site_fract_z
Si Si1 0.438276 0.207484 0.045713
Si Si2 0.787599 0.275225 0.626380
Si Si3 0.845833 0.154994 0.651232
Si Si4 0.761080 0.440646 0.074265
Si Si5 0.653175 0.116082 0.516339
Si Si6 0.561213 0.332492 0.884809
O O1 0.500000 0.192714 0.014850
O O2 0.427619 0.194145 0.219805
O O3 0.396776 0.170143 0.947360
O O4 0.432295 0.277233 0.001418
O O5 0.750000 0.303536 0.750000
O O6 0.750000 0.250000 0.500000
O O7 0.818459 0.218244 0.690302
O O8 0.825746 0.322111 0.552702
O O9 0.801956 0.114592 0.566823
O O10 0.857826 0.123021 0.807684
O O11 0.750000 0.449313 0.250000
O O12 0.703951 0.426408 0.001215
O O13 0.783379 0.500000 0.000000
O O14 0.598376 0.111967 0.428384
O O15 0.500000 0.349660 0.887380
#
# Coordination Sequence:
#
# PCOD9479620 Si02
#       6
#    16  16  16  16  16  16
#     4  10  21  34  51  78 113 149 184 222 267 322
#     4  12  21  32  48  78 114 143 176 215 266 329
#     4  11  21  36  54  79 112 144 179 224 272 325
#     4  10  23  41  57  80 109 140 181 227 275 325
#     4  11  22  35  55  79 111 146 179 224 272 324
#     4  10  21  34  50  78 113 148 185 222 265 322
#
# _framework density 18.870342999999998
#
# number of rings (size 3 to 8) (size 9 to 14) (size 15 to 20)
#    0.000    1.333    5.000    1.500    2.333    4.000 
#    0.000    0.000    0.000    1.000    0.000    0.000 
#    0.000    0.000    0.000    0.000    0.000    0.000 
#
# Total GULP energy -267822.397629 kJ/mol
# GULP energy per Si atom -5579.633284 kJ/mol
# Density = 1.882739 g / cm^3
# Si number density = 18.870343 Si / 1000 Ang^3
#
#
#
# Elastic Constant Matrix: (Units=GPa)
#
#
# Indices 1 2 3 4 5 6 
#
# 1 107.7713 18.4604 38.0810 0.0000 0.0000 0.0000
# 2 18.4604 49.5401 -2.0890 0.0000 0.0000 0.0000
# 3 38.0810 -2.0890 53.3691 0.0000 0.0000 0.0000
# 4 0.0000 0.0000 0.0000 17.1763 0.0000 0.0000
# 5 0.0000 0.0000 0.0000 0.0000 36.9127 0.0000
# 6 0.0000 0.0000 0.0000 0.0000 0.0000 11.0739
#
#
#
# Elastic Compliance Matrix: (Units=1/GPa)
#
#
# Indices 1 2 3 4 5 6 
#
# 1 0.013783 -0.005560 -0.010053 0.000000 0.000000 0.000000
# 2 -0.005560 0.022462 0.004847 0.000000 0.000000 0.000000
# 3 -0.010053 0.004847 0.026100 0.000000 0.000000 0.000000
# 4 0.000000 0.000000 0.000000 0.058220 0.000000 0.000000
# 5 0.000000 0.000000 0.000000 0.000000 0.027091 0.000000
# 6 0.000000 0.000000 0.000000 0.000000 0.000000 0.090303
#
#
# Mechanical properties :
#
#
# Convention : Reuss Voigt Hill
#
# Bulk Modulus (GPa) = 24.50196 35.50948 30.00572
# Shear Modulus (GPa) = 18.30862 23.44779 20.87820
#
# Velocity S-wave (km/s) = 3.11823 3.52884 3.32987
# Velocity P-wave (km/s) = 5.09677 5.95500 5.54252
#
# Compressibility (1/GPa) = 0.04081305
#
# Stress axis : x y z
#
# Youngs Moduli (GPa) = 72.55106 44.51982 38.31408
#
# Poissons Ratio (x) = 0.24753 0.38516
# Poissons Ratio (y) = 0.40339 -0.18569
# Poissons Ratio (z) = 0.72933 -0.21577
#
# Static dielectric constant tensor:
#      x y z
#    x 1.940180 0.000000 0.000000 
#    y 0.000000 1.649150 0.000000 
#    z 0.000000 0.000000 1.726280 
# 
# From -- ./inp_files/9488.got.cif
#   From: 2010.05.17/outbox.cif.g08.bks.cpg/sg64_5_cif.got.tgz:9488.got - 2010.06.03 16:29:19.
