data_PCOD9479581
_publ_section_title
;
Structure prediction by ZEFSAII (Michael W. Deem and Ramdas Pophale) SiO2 
 PCOD9479581
Probable space group: C M C A
;
_chemical_formula_sum "Si O2"
_cell_formula_units_Z 68
_cell_length_a 22.780065
_cell_length_b 10.130212
_cell_length_c 14.462235
_cell_angle_alpha 90.000000
_cell_angle_beta 90.000000
_cell_angle_gamma 90.000000
_cell_volume 3337.404962
_symmetry_space_group_name_H-M "C M C A"
_symmetry_group_IT_number 64
_symmetry_cell_setting 'orthorhombic'
loop_
_space_group_symop_operation_xyz
x,y,z
-x,1/2-y,1/2+z
x,-y,-z
-x,1/2+y,1/2-z
-x,-y,-z
x,1/2+y,1/2-z
-x,y,z
x,1/2-y,1/2+z
1/2+x,1/2+y,z
1/2-x,-y,1/2+z
1/2+x,1/2-y,-z
1/2-x,y,1/2-z
1/2-x,1/2-y,-z
1/2+x,y,1/2-z
1/2-x,1/2+y,z
1/2+x,-y,1/2+z
loop_
_atom_site_type_symbol
_atom_site_label
_atom_site_fract_x
_atom_site_fract_y
_atom_site_fract_z
Si Si1 0.588764 0.043786 0.330223
Si Si2 0.934815 0.751395 0.672691
Si Si3 0.332855 0.357942 0.543800
Si Si4 0.500000 0.500000 0.000000
Si Si5 0.294315 0.613663 0.078821
O O1 0.565530 0.148308 0.257116
O O2 0.551759 0.046458 0.425206
O O3 0.657167 0.072338 0.347833
O O4 0.580746 0.895092 0.294131
O O5 0.887121 0.800098 0.599738
O O6 0.000000 0.742207 0.628763
O O7 0.346529 0.500000 0.500000
O O8 0.314935 0.251967 0.465671
O O9 0.273860 0.372931 0.605878
O O10 0.295209 0.500000 0.000000
#
# Coordination Sequence:
#
# PCOD9479581 Si02
#       5
#    16  16  16   4  16
#     4  12  25  43  71  96 135 179 225 277 339 407
#     4  12  25  45  62 101 138 171 227 282 336 403
#     4  10  23  41  68 101 135 175 225 280 330 400
#     4  12  20  44  72  94 122 184 214 262 344 420
#     4  10  20  43  69  96 131 180 230 267 329 410
#
# _framework density 20.375111
#
# number of rings (size 3 to 8) (size 9 to 14) (size 15 to 20)
#    0.000    0.941    5.882    0.000    3.294    1.412 
#    0.000    2.353    0.000    0.000    0.000    0.000 
#    0.000    0.000    0.000    0.000    0.000    0.000 
#
# Total GULP energy -189520.781232 kJ/mol
# GULP energy per Si atom -5574.140624 kJ/mol
# Density = 2.032874 g / cm^3
# Si number density = 20.375111 Si / 1000 Ang^3
#
#
#
# Elastic Constant Matrix: (Units=GPa)
#
#
# Indices 1 2 3 4 5 6 
#
# 1 164.9056 41.5552 21.5460 0.0000 0.0000 0.0000
# 2 41.5552 159.1652 22.7637 0.0000 0.0000 0.0000
# 3 21.5460 22.7637 28.4216 0.0000 0.0000 0.0000
# 4 0.0000 0.0000 0.0000 16.1167 0.0000 0.0000
# 5 0.0000 0.0000 0.0000 0.0000 -203.7970 0.0000
# 6 0.0000 0.0000 0.0000 0.0000 0.0000 29.2953
#
#
#
# Elastic Compliance Matrix: (Units=1/GPa)
#
#
# Indices 1 2 3 4 5 6 
#
# 1 0.006926 -0.001194 -0.004294 0.000000 0.000000 0.000000
# 2 -0.001194 0.007301 -0.004943 0.000000 0.000000 0.000000
# 3 -0.004294 -0.004943 0.042399 0.000000 0.000000 0.000000
# 4 0.000000 0.000000 0.000000 0.062047 0.000000 0.000000
# 5 0.000000 0.000000 0.000000 0.000000 -0.004907 0.000000
# 6 0.000000 0.000000 0.000000 0.000000 0.000000 0.034135
#
#
# Mechanical properties :
#
#
# Convention : Reuss Voigt Hill
#
# Bulk Modulus (GPa) = 27.96095 58.24691 43.10393
# Shear Modulus (GPa) = 27.67248 -13.90183 6.88533
#
# Velocity S-wave (km/s) = 3.68931 -2.61491 1.84028
# Velocity P-wave (km/s) = 5.64809 4.41954 5.07115
#
# Compressibility (1/GPa) = 0.03576416
#
# Stress axis : x y z
#
# Youngs Moduli (GPa) = 144.38256 136.95924 23.58572
#
# Poissons Ratio (x) = 0.16355 0.10128
# Poissons Ratio (y) = 0.17241 0.11658
# Poissons Ratio (z) = 0.62000 0.67695
#
# Static dielectric constant tensor:
#      x y z
#    x 1.757870 0.000000 0.000000 
#    y 0.000000 1.778020 0.000000 
#    z 0.000000 0.000000 1.712370 
# 
# From -- ./inp_files/26032.got.cif
#   From: 2010.05.17/outbox.cif.g08.bks.cpg/sg64_14_cif.got.tgz:26032.got - 2010.06.03 16:29:19.
