data_PCOD9479397
_publ_section_title
;
Structure prediction by ZEFSAII (Michael W. Deem and Ramdas Pophale) SiO2 
 PCOD9479397
Probable space group: C M C A
;
_chemical_formula_sum "Si O2"
_cell_formula_units_Z 80
_cell_length_a 10.236579
_cell_length_b 25.156244
_cell_length_c 16.592028
_cell_angle_alpha 90.000000
_cell_angle_beta 90.000000
_cell_angle_gamma 90.000000
_cell_volume 4272.677492
_symmetry_space_group_name_H-M "C M C A"
_symmetry_group_IT_number 64
_symmetry_cell_setting 'orthorhombic'
loop_
_space_group_symop_operation_xyz
x,y,z
-x,1/2-y,1/2+z
x,-y,-z
-x,1/2+y,1/2-z
-x,-y,-z
x,1/2+y,1/2-z
-x,y,z
x,1/2-y,1/2+z
1/2+x,1/2+y,z
1/2-x,-y,1/2+z
1/2+x,1/2-y,-z
1/2-x,y,1/2-z
1/2-x,1/2-y,-z
1/2+x,y,1/2-z
1/2-x,1/2+y,z
1/2+x,-y,1/2+z
loop_
_atom_site_type_symbol
_atom_site_label
_atom_site_fract_x
_atom_site_fract_y
_atom_site_fract_z
Si Si1 0.500000 0.452343 0.565299
Si Si2 0.842525 0.770511 0.573730
Si Si3 0.000000 0.492510 0.239318
Si Si4 0.756296 0.118412 0.055219
Si Si5 0.347545 0.657322 0.881186
Si Si6 0.250000 0.919772 0.250000
Si Si7 0.500000 0.540811 0.080028
O O1 0.500000 0.500000 0.500000
O O2 0.500000 0.469905 0.659919
O O3 0.372140 0.417234 0.549771
O O4 0.750000 0.750000 0.500000
O O5 0.786031 0.827363 0.602027
O O6 0.832086 0.720268 0.633428
O O7 0.000000 0.775353 0.553156
O O8 0.127563 0.456655 0.233483
O O9 0.000000 0.513633 0.331812
O O10 0.873449 0.079287 0.080115
O O11 0.802732 0.141774 0.970143
O O12 0.500000 0.644680 0.872896
O O13 0.269560 0.619250 0.823911
O O14 0.500000 0.500000 0.000000
#
# Coordination Sequence:
#
# PCOD9479397 Si02
#       7
#     8  16   8  16  16   8   8
#     4  12  24  40  60  94 126 168 216 272 314 370
#     4   9  19  36  62  93 125 159 204 260 316 382
#     4  12  26  42  62  92 130 162 218 270 320 368
#     4  11  21  40  65  92 125 165 215 258 317 377
#     4  10  20  39  64  92 123 162 205 252 319 388
#     4  12  22  42  62  90 124 166 202 268 320 370
#     4  12  24  42  66  92 124 180 222 256 318 388
#
# _framework density 18.723621999999999
#
# number of rings (size 3 to 8) (size 9 to 14) (size 15 to 20)
#    0.000    1.200    3.000    4.200    1.400    0.000 
#    1.800    2.000    0.000    0.000    0.000    0.000 
#    0.000    0.000    0.000    0.000    0.000    0.000 
#
# Total GULP energy -222777.209999 kJ/mol
# GULP energy per Si atom -5569.430250 kJ/mol
# Density = 1.868101 g / cm^3
# Si number density = 18.723622 Si / 1000 Ang^3
#
#
#
# Elastic Constant Matrix: (Units=GPa)
#
#
# Indices 1 2 3 4 5 6 
#
# 1 131.2074 64.8946 -12.2873 0.0000 0.0000 0.0000
# 2 64.8946 147.6135 25.7430 0.0000 0.0000 0.0000
# 3 -12.2873 25.7430 36.2424 0.0000 0.0000 0.0000
# 4 0.0000 0.0000 0.0000 24.5915 0.0000 0.0000
# 5 0.0000 0.0000 0.0000 0.0000 19.8905 0.0000
# 6 0.0000 0.0000 0.0000 0.0000 0.0000 60.2998
#
#
#
# Elastic Compliance Matrix: (Units=1/GPa)
#
#
# Indices 1 2 3 4 5 6 
#
# 1 0.011747 -0.006687 0.008732 0.000000 0.000000 0.000000
# 2 -0.006687 0.011539 -0.010463 0.000000 0.000000 0.000000
# 3 0.008732 -0.010463 0.037984 0.000000 0.000000 0.000000
# 4 0.000000 0.000000 0.000000 0.040665 0.000000 0.000000
# 5 0.000000 0.000000 0.000000 0.000000 0.050275 0.000000
# 6 0.000000 0.000000 0.000000 0.000000 0.000000 0.016584
#
#
# Mechanical properties :
#
#
# Convention : Reuss Voigt Hill
#
# Bulk Modulus (GPa) = 22.50522 52.41820 37.46171
# Shear Modulus (GPa) = 24.94504 36.73722 30.84113
#
# Velocity S-wave (km/s) = 3.65400 4.43434 4.06295
# Velocity P-wave (km/s) = 5.46334 7.36711 6.48546
#
# Compressibility (1/GPa) = 0.04443414
#
# Stress axis : x y z
#
# Youngs Moduli (GPa) = 85.13100 86.66328 26.32655
#
# Poissons Ratio (x) = 0.57951 -0.22989
# Poissons Ratio (y) = 0.56927 0.27546
# Poissons Ratio (z) = -0.74338 0.90677
#
# Static dielectric constant tensor:
#      x y z
#    x 1.656440 0.000000 0.000000 
#    y 0.000000 1.684710 0.000000 
#    z 0.000000 0.000000 1.772030 
# 
# From -- ./inp_files/29887.got.cif
#   From: 2010.05.17/outbox.cif.g08.bks.cpg/sg64_15_cif.got.tgz:29887.got - 2010.06.03 16:29:19.
