data_PCOD9479317
_publ_section_title
;
Structure prediction by ZEFSAII (Michael W. Deem and Ramdas Pophale) SiO2 
 PCOD9479317
Probable space group: C M C A
;
_chemical_formula_sum "Si O2"
_cell_formula_units_Z 80
_cell_length_a 17.708868
_cell_length_b 11.511929
_cell_length_c 20.927821
_cell_angle_alpha 90.000000
_cell_angle_beta 90.000000
_cell_angle_gamma 90.000000
_cell_volume 4266.413209
_symmetry_space_group_name_H-M "C M C A"
_symmetry_group_IT_number 64
_symmetry_cell_setting 'orthorhombic'
loop_
_space_group_symop_operation_xyz
x,y,z
-x,1/2-y,1/2+z
x,-y,-z
-x,1/2+y,1/2-z
-x,-y,-z
x,1/2+y,1/2-z
-x,y,z
x,1/2-y,1/2+z
1/2+x,1/2+y,z
1/2-x,-y,1/2+z
1/2+x,1/2-y,-z
1/2-x,y,1/2-z
1/2-x,1/2-y,-z
1/2+x,y,1/2-z
1/2-x,1/2+y,z
1/2+x,-y,1/2+z
loop_
_atom_site_type_symbol
_atom_site_label
_atom_site_fract_x
_atom_site_fract_y
_atom_site_fract_z
Si Si1 0.500000 0.668783 0.636162
Si Si2 0.500000 0.678145 0.018523
Si Si3 0.836535 0.948304 0.136285
Si Si4 0.620606 0.830986 0.703349
Si Si5 0.500000 0.823927 0.368070
Si Si6 0.750000 0.828573 0.250000
Si Si7 0.500000 0.078230 0.202986
Si Si8 0.630823 0.000000 0.500000
O O1 0.500000 0.707891 0.562239
O O2 0.569190 0.737210 0.668000
O O3 0.500000 0.534880 0.658060
O O4 0.573155 0.596167 0.029480
O O5 0.500000 0.701177 0.943409
O O6 0.921294 0.892304 0.146387
O O7 0.774198 0.897707 0.185510
O O8 0.840619 0.083020 0.154233
O O9 0.824299 0.943915 0.059477
O O10 0.679978 0.755537 0.740506
O O11 0.572240 0.913091 0.750578
O O12 0.500000 0.701314 0.332908
#
# Coordination Sequence:
#
# PCOD9479317 Si02
#       8
#     8   8  16  16   8   8   8   8
#     4  11  21  37  62  89 121 154 202 257 307 363
#     4   9  17  34  64  94 115 152 203 255 306 366
#     4  11  21  40  65  89 122 159 207 261 305 371
#     4  11  23  37  57  89 121 159 203 253 306 368
#     4  10  20  38  65  92 116 155 208 255 307 366
#     4  12  24  38  58  92 128 162 206 250 318 358
#     4  11  22  35  57  88 128 157 193 254 311 350
#     4   9  18  36  66  92 116 157 206 256 308 371
#
# _framework density 18.751113
#
# number of rings (size 3 to 8) (size 9 to 14) (size 15 to 20)
#    0.000    1.400    4.000    3.600    2.800    0.400 
#    0.000    1.000    0.000    0.000    0.000    0.000 
#    0.000    0.800    0.000    0.000    0.000    0.000 
#
# Total GULP energy -222897.863301 kJ/mol
# GULP energy per Si atom -5572.446583 kJ/mol
# Density = 1.870843 g / cm^3
# Si number density = 18.751113 Si / 1000 Ang^3
#
#
#
# Elastic Constant Matrix: (Units=GPa)
#
#
# Indices 1 2 3 4 5 6 
#
# 1 40.5614 -0.2310 26.4801 0.0000 0.0000 0.0000
# 2 -0.2310 74.1676 34.6541 0.0000 0.0000 0.0000
# 3 26.4801 34.6541 115.5149 0.0000 0.0000 0.0000
# 4 0.0000 0.0000 0.0000 87.3084 0.0000 0.0000
# 5 0.0000 0.0000 0.0000 0.0000 41.7284 0.0000
# 6 0.0000 0.0000 0.0000 0.0000 0.0000 -49.0416
#
#
#
# Elastic Compliance Matrix: (Units=1/GPa)
#
#
# Indices 1 2 3 4 5 6 
#
# 1 0.029901 0.003833 -0.008004 0.000000 0.000000 0.000000
# 2 0.003833 0.016172 -0.005730 0.000000 0.000000 0.000000
# 3 -0.008004 -0.005730 0.012211 0.000000 0.000000 0.000000
# 4 0.000000 0.000000 0.000000 0.011454 0.000000 0.000000
# 5 0.000000 0.000000 0.000000 0.000000 0.023965 0.000000
# 6 0.000000 0.000000 0.000000 0.000000 0.000000 -0.020391
#
#
# Mechanical properties :
#
#
# Convention : Reuss Voigt Hill
#
# Bulk Modulus (GPa) = 25.98662 39.11670 32.55166
# Shear Modulus (GPa) = 47.19554 27.28841 37.24197
#
# Velocity S-wave (km/s) = 5.02236 3.81897 4.46143
# Velocity P-wave (km/s) = 6.89354 6.35235 6.62847
#
# Compressibility (1/GPa) = 0.03848134
#
# Stress axis : x y z
#
# Youngs Moduli (GPa) = 33.44329 61.83395 81.89438
#
# Poissons Ratio (x) = -0.23701 0.65551
# Poissons Ratio (y) = -0.12819 0.46928
# Poissons Ratio (z) = 0.26769 0.35433
#
# Static dielectric constant tensor:
#      x y z
#    x 1.628460 0.000000 0.000000 
#    y 0.000000 1.637660 0.000000 
#    z 0.000000 0.000000 1.707190 
# 
# From -- ./inp_files/40026.got.cif
#   From: 2010.05.17/outbox.cif.g08.bks.cpg/sg64_21_cif.got.tgz:40026.got - 2010.06.03 16:29:19.
