data_PCOD9479847
_publ_section_title
;
Structure prediction by ZEFSAII (Michael W. Deem and Ramdas Pophale) SiO2 
 PCOD9479847
Probable space group: C M C A
;
_chemical_formula_sum "Si O2"
_cell_formula_units_Z 88
_cell_length_a 20.509074
_cell_length_b 15.143655
_cell_length_c 14.820845
_cell_angle_alpha 90.000000
_cell_angle_beta 90.000000
_cell_angle_gamma 90.000000
_cell_volume 4603.092736
_symmetry_space_group_name_H-M "C M C A"
_symmetry_group_IT_number 64
_symmetry_cell_setting 'orthorhombic'
loop_
_space_group_symop_operation_xyz
x,y,z
-x,1/2-y,1/2+z
x,-y,-z
-x,1/2+y,1/2-z
-x,-y,-z
x,1/2+y,1/2-z
-x,y,z
x,1/2-y,1/2+z
1/2+x,1/2+y,z
1/2-x,-y,1/2+z
1/2+x,1/2-y,-z
1/2-x,y,1/2-z
1/2-x,1/2-y,-z
1/2+x,y,1/2-z
1/2-x,1/2+y,z
1/2+x,-y,1/2+z
loop_
_atom_site_type_symbol
_atom_site_label
_atom_site_fract_x
_atom_site_fract_y
_atom_site_fract_z
Si Si1 0.868936 0.308244 0.679396
Si Si2 0.246164 0.445295 0.413871
Si Si3 0.500000 0.390897 0.088446
Si Si4 0.634554 0.307715 0.150988
Si Si5 0.750000 0.571786 0.250000
Si Si6 0.178700 0.292222 0.008649
Si Si7 0.000000 0.902751 0.872730
O O1 0.867095 0.225585 0.747243
O O2 0.808943 0.369141 0.711680
O O3 0.857952 0.268700 0.580254
O O4 0.935913 0.362754 0.674846
O O5 0.218657 0.500000 0.500000
O O6 0.191245 0.378879 0.372976
O O7 0.268387 0.509871 0.334410
O O8 0.306317 0.388601 0.453165
O O9 0.565499 0.347223 0.124728
O O10 0.500000 0.491503 0.123342
O O11 0.500000 0.381256 0.979901
O O12 0.647144 0.221346 0.088595
O O13 0.250000 0.250000 0.000000
#
# Coordination Sequence:
#
# PCOD9479847 Si02
#       7
#    16  16   8  16   8  16   8
#     4  12  23  42  62  93 127 168 210 260 319 382
#     4  11  22  36  58  91 124 161 203 260 314 368
#     4  11  23  40  64  93 116 166 210 266 312 375
#     4  11  22  39  62  86 124 164 210 258 314 380
#     4  12  22  36  62  92 124 160 204 262 314 374
#     4  10  21  37  57  86 120 162 200 251 309 372
#     4  11  25  40  66  91 127 159 214 266 321 368
#
# _framework density 19.117581999999999
#
# number of rings (size 3 to 8) (size 9 to 14) (size 15 to 20)
#    0.000    0.909    1.818    8.182    2.545    0.000 
#    0.000    0.000    0.000    0.000    0.000    5.727 
#    0.000    0.000    0.000    0.000    0.000    0.000 
#
# Total GULP energy -245783.654561 kJ/mol
# GULP energy per Si atom -5585.992149 kJ/mol
# Density = 1.907407 g / cm^3
# Si number density = 19.117582 Si / 1000 Ang^3
#
#
#
# Elastic Constant Matrix: (Units=GPa)
#
#
# Indices 1 2 3 4 5 6 
#
# 1 75.0102 15.7910 -13.7684 0.0000 0.0000 0.0000
# 2 15.7910 61.5055 -0.5022 0.0000 0.0000 0.0000
# 3 -13.7684 -0.5022 56.5682 0.0000 0.0000 0.0000
# 4 0.0000 0.0000 0.0000 44.2411 0.0000 0.0000
# 5 0.0000 0.0000 0.0000 0.0000 21.7943 0.0000
# 6 0.0000 0.0000 0.0000 0.0000 0.0000 14.9693
#
#
#
# Elastic Compliance Matrix: (Units=1/GPa)
#
#
# Indices 1 2 3 4 5 6 
#
# 1 0.014778 -0.003765 0.003564 0.000000 0.000000 0.000000
# 2 -0.003765 0.017219 -0.000764 0.000000 0.000000 0.000000
# 3 0.003564 -0.000764 0.018538 0.000000 0.000000 0.000000
# 4 0.000000 0.000000 0.000000 0.022603 0.000000 0.000000
# 5 0.000000 0.000000 0.000000 0.000000 0.045884 0.000000
# 6 0.000000 0.000000 0.000000 0.000000 0.000000 0.066803
#
#
# Mechanical properties :
#
#
# Convention : Reuss Voigt Hill
#
# Bulk Modulus (GPa) = 20.57381 21.79165 21.18273
# Shear Modulus (GPa) = 24.51482 28.97183 26.74333
#
# Velocity S-wave (km/s) = 3.58483 3.89711 3.74423
# Velocity P-wave (km/s) = 5.28392 5.62791 5.45863
#
# Compressibility (1/GPa) = 0.04860548
#
# Stress axis : x y z
#
# Youngs Moduli (GPa) = 67.66710 58.07497 53.94224
#
# Poissons Ratio (x) = 0.21866 -0.19222
# Poissons Ratio (y) = 0.25477 0.04119
# Poissons Ratio (z) = -0.24113 0.04434
#
# Static dielectric constant tensor:
#      x y z
#    x 1.633080 0.000000 0.000000 
#    y 0.000000 1.728910 0.000000 
#    z 0.000000 0.000000 1.663140 
# 
# From -- ./inp_files/26270.got.cif
#   From: 2010.05.17/outbox.cif.g08.bks.cpg/sg64_14_cif.got.tgz:26270.got - 2010.06.03 16:29:19.
