data_PCOD9479790
_publ_section_title
;
Structure prediction by ZEFSAII (Michael W. Deem and Ramdas Pophale) SiO2 
 PCOD9479790
Probable space group: C M C A
;
_chemical_formula_sum "Si O2"
_cell_formula_units_Z 44
_cell_length_a 10.132137
_cell_length_b 23.823024
_cell_length_c 7.085508
_cell_angle_alpha 90.000000
_cell_angle_beta 90.000000
_cell_angle_gamma 90.000000
_cell_volume 1710.286763
_symmetry_space_group_name_H-M "C M C A"
_symmetry_group_IT_number 64
_symmetry_cell_setting 'orthorhombic'
loop_
_space_group_symop_operation_xyz
x,y,z
-x,1/2-y,1/2+z
x,-y,-z
-x,1/2+y,1/2-z
-x,-y,-z
x,1/2+y,1/2-z
-x,y,z
x,1/2-y,1/2+z
1/2+x,1/2+y,z
1/2-x,-y,1/2+z
1/2+x,1/2-y,-z
1/2-x,y,1/2-z
1/2-x,1/2-y,-z
1/2+x,y,1/2-z
1/2-x,1/2+y,z
1/2+x,-y,1/2+z
loop_
_atom_site_type_symbol
_atom_site_label
_atom_site_fract_x
_atom_site_fract_y
_atom_site_fract_z
Si Si1 0.500000 0.801693 0.085885
Si Si2 0.230591 0.118996 0.523822
Si Si3 0.250000 0.021764 0.250000
Si Si4 0.000000 0.328712 0.525310
Si Si5 0.000000 0.500000 0.500000
O O1 0.371364 0.829803 0.995132
O O2 0.500000 0.821821 0.300182
O O3 0.500000 0.734814 0.095579
O O4 0.250000 0.113487 0.750000
O O5 0.193067 0.062688 0.416571
O O6 0.370205 0.136358 0.432657
O O7 0.380684 0.993457 0.339344
#
# Coordination Sequence:
#
# PCOD9479790 Si02
#       5
#     8  16   8   8   4
#     4  10  21  36  63 101 151 205 264 318 372 468
#     4  10  23  43  68 106 151 208 260 327 398 482
#     4  12  28  54  84 116 158 208 274 346 438 486
#     4  10  21  36  62 101 151 202 267 308 377 461
#     4  12  32  56  86 128 150 212 274 358 422 516
#
# _framework density 25.726679000000001
#
# number of rings (size 3 to 8) (size 9 to 14) (size 15 to 20)
#    0.000    1.455    0.000    3.273    7.636    0.727 
#    0.000    0.000    0.000    0.000    0.000    0.000 
#    0.000    0.000    0.000    0.000    0.000    0.000 
#
# Total GULP energy -122631.365195 kJ/mol
# GULP energy per Si atom -5574.152963 kJ/mol
# Density = 2.566812 g / cm^3
# Si number density = 25.726679 Si / 1000 Ang^3
#
#
#
# Elastic Constant Matrix: (Units=GPa)
#
#
# Indices 1 2 3 4 5 6 
#
# 1 198.4947 49.6523 36.1195 0.0000 0.0000 0.0000
# 2 49.6523 93.6738 11.6103 0.0000 0.0000 0.0000
# 3 36.1195 11.6103 122.5130 0.0000 0.0000 0.0000
# 4 0.0000 0.0000 0.0000 49.3142 0.0000 0.0000
# 5 0.0000 0.0000 0.0000 0.0000 30.6175 0.0000
# 6 0.0000 0.0000 0.0000 0.0000 0.0000 30.2441
#
#
#
# Elastic Compliance Matrix: (Units=1/GPa)
#
#
# Indices 1 2 3 4 5 6 
#
# 1 0.006069 -0.003031 -0.001502 0.000000 0.000000 0.000000
# 2 -0.003031 0.012316 -0.000274 0.000000 0.000000 0.000000
# 3 -0.001502 -0.000274 0.008631 0.000000 0.000000 0.000000
# 4 0.000000 0.000000 0.000000 0.020278 0.000000 0.000000
# 5 0.000000 0.000000 0.000000 0.000000 0.032661 0.000000
# 6 0.000000 0.000000 0.000000 0.000000 0.000000 0.033064
#
#
# Mechanical properties :
#
#
# Convention : Reuss Voigt Hill
#
# Bulk Modulus (GPa) = 57.46101 67.71621 62.58861
# Shear Modulus (GPa) = 38.93041 43.18845 41.05943
#
# Velocity S-wave (km/s) = 3.89425 4.10169 3.99931
# Velocity P-wave (km/s) = 6.52717 6.98644 6.76070
#
# Compressibility (1/GPa) = 0.01740311
#
# Stress axis : x y z
#
# Youngs Moduli (GPa) = 164.75989 81.19630 115.85884
#
# Poissons Ratio (x) = 0.24610 0.17404
# Poissons Ratio (y) = 0.49938 0.03169
# Poissons Ratio (z) = 0.24750 0.02221
#
# Static dielectric constant tensor:
#      x y z
#    x 1.994650 0.000000 0.000000 
#    y 0.000000 2.139150 0.000000 
#    z 0.000000 0.000000 2.076950 
# 
# From -- ./inp_files/3908.got.cif
#   From: 2010.05.17/outbox.cif.g08.bks.cpg/sg64_2_cif.got.tgz:3908.got - 2010.06.03 16:29:19.
