data_PCOD9479178
_publ_section_title
;
Structure prediction by ZEFSAII (Michael W. Deem and Ramdas Pophale) SiO2 
 PCOD9479178
Probable space group: C M C A
;
_chemical_formula_sum "Si O2"
_cell_formula_units_Z 116
_cell_length_a 28.606611
_cell_length_b 21.502771
_cell_length_c 8.837880
_cell_angle_alpha 90.000000
_cell_angle_beta 90.000000
_cell_angle_gamma 90.000000
_cell_volume 5436.369167
_symmetry_space_group_name_H-M "C M C A"
_symmetry_group_IT_number 64
_symmetry_cell_setting 'orthorhombic'
loop_
_space_group_symop_operation_xyz
x,y,z
-x,1/2-y,1/2+z
x,-y,-z
-x,1/2+y,1/2-z
-x,-y,-z
x,1/2+y,1/2-z
-x,y,z
x,1/2-y,1/2+z
1/2+x,1/2+y,z
1/2-x,-y,1/2+z
1/2+x,1/2-y,-z
1/2-x,y,1/2-z
1/2-x,1/2-y,-z
1/2+x,y,1/2-z
1/2-x,1/2+y,z
1/2+x,-y,1/2+z
loop_
_atom_site_type_symbol
_atom_site_label
_atom_site_fract_x
_atom_site_fract_y
_atom_site_fract_z
Si Si1 0.162548 0.334101 0.513235
Si Si2 0.500000 0.000000 0.500000
Si Si3 0.788921 0.946212 0.878096
Si Si4 0.626514 0.735870 0.267926
Si Si5 0.878682 0.990038 0.680498
Si Si6 0.053813 0.874925 0.652831
Si Si7 0.078078 0.094233 0.892281
Si Si8 0.950461 0.815522 0.347833
O O1 0.203511 0.384439 0.519364
O O2 0.151949 0.282576 0.384367
O O3 0.164885 0.300523 0.673757
O O4 0.116325 0.377090 0.502701
O O5 0.459353 0.948182 0.470117
O O6 0.750000 0.938157 0.750000
O O7 0.835132 0.964731 0.779346
O O8 0.778838 0.000000 0.000000
O O9 0.587354 0.684719 0.316666
O O10 0.596028 0.775367 0.147257
O O11 0.920502 0.939193 0.689558
O O12 0.868435 0.000000 0.500000
O O13 0.895508 0.052972 0.764421
O O14 0.049627 0.869384 0.471540
O O15 0.000000 0.871284 0.712091
O O16 0.052943 0.152302 0.813869
O O17 0.000000 0.780972 0.366053
#
# Coordination Sequence:
#
# PCOD9479178 Si02
#       8
#    16   4  16  16  16  16  16  16
#     4  11  24  45  70  98 137 181 232 292 349 425
#     4  12  24  36  54  92 132 200 246 296 358 412
#     4  12  26  51  78 109 137 174 226 298 373 451
#     4  11  22  41  65  94 134 190 238 283 338 400
#     4  12  24  41  68 101 137 182 232 292 364 430
#     4  11  23  35  59  95 140 187 237 279 338 403
#     4  11  23  38  61  90 139 182 238 292 355 412
#     4  10  20  38  53  87 133 188 241 286 325 395
#
# _framework density 21.337772000000001
#
# number of rings (size 3 to 8) (size 9 to 14) (size 15 to 20)
#    0.000    0.828    6.207    1.655    0.966    0.276 
#    1.241    0.690    0.000    0.000    0.000    0.000 
#    0.000    0.000    0.000    0.000    0.000    0.000 
#
# Total GULP energy -322901.514400 kJ/mol
# GULP energy per Si atom -5567.267490 kJ/mol
# Density = 2.128921 g / cm^3
# Si number density = 21.337772 Si / 1000 Ang^3
#
#
#
# Elastic Constant Matrix: (Units=GPa)
#
#
# Indices 1 2 3 4 5 6 
#
# 1 45.5694 14.4958 13.6490 0.0000 0.0000 0.0000
# 2 14.4958 76.4001 17.4736 0.0000 0.0000 0.0000
# 3 13.6490 17.4736 79.4750 0.0000 0.0000 0.0000
# 4 0.0000 0.0000 0.0000 45.4269 0.0000 0.0000
# 5 0.0000 0.0000 0.0000 0.0000 27.1368 0.0000
# 6 0.0000 0.0000 0.0000 0.0000 0.0000 18.4008
#
#
#
# Elastic Compliance Matrix: (Units=1/GPa)
#
#
# Indices 1 2 3 4 5 6 
#
# 1 0.024152 -0.003826 -0.003307 0.000000 0.000000 0.000000
# 2 -0.003826 0.014388 -0.002506 0.000000 0.000000 0.000000
# 3 -0.003307 -0.002506 0.013701 0.000000 0.000000 0.000000
# 4 0.000000 0.000000 0.000000 0.022013 0.000000 0.000000
# 5 0.000000 0.000000 0.000000 0.000000 0.036850 0.000000
# 6 0.000000 0.000000 0.000000 0.000000 0.000000 0.054345
#
#
# Mechanical properties :
#
#
# Convention : Reuss Voigt Hill
#
# Bulk Modulus (GPa) = 30.33665 32.52014 31.42840
# Shear Modulus (GPa) = 25.54709 28.58132 27.06420
#
# Velocity S-wave (km/s) = 3.46391 3.66385 3.56528
# Velocity P-wave (km/s) = 5.49968 5.75952 5.63110
#
# Compressibility (1/GPa) = 0.03296343
#
# Stress axis : x y z
#
# Youngs Moduli (GPa) = 41.40429 69.50147 72.98473
#
# Poissons Ratio (x) = 0.26593 0.24133
# Poissons Ratio (y) = 0.15842 0.18292
# Poissons Ratio (z) = 0.13691 0.17419
#
# Static dielectric constant tensor:
#      x y z
#    x 1.773230 0.000000 0.000000 
#    y 0.000000 1.782930 0.000000 
#    z 0.000000 0.000000 1.811400 
# 
# From -- ./inp_files/11297.got.cif
#   From: 2010.05.17/outbox.cif.g08.bks.cpg/sg64_6_cif.got.tgz:11297.got - 2010.06.03 16:29:19.
