data_PCOD9479688
_publ_section_title
;
Structure prediction by ZEFSAII (Michael W. Deem and Ramdas Pophale) SiO2 
 PCOD9479688
Probable space group: C M C A
;
_chemical_formula_sum "Si O2"
_cell_formula_units_Z 116
_cell_length_a 22.597047
_cell_length_b 26.861651
_cell_length_c 8.698988
_cell_angle_alpha 90.000000
_cell_angle_beta 90.000000
_cell_angle_gamma 90.000000
_cell_volume 5280.233436
_symmetry_space_group_name_H-M "C M C A"
_symmetry_group_IT_number 64
_symmetry_cell_setting 'orthorhombic'
loop_
_space_group_symop_operation_xyz
x,y,z
-x,1/2-y,1/2+z
x,-y,-z
-x,1/2+y,1/2-z
-x,-y,-z
x,1/2+y,1/2-z
-x,y,z
x,1/2-y,1/2+z
1/2+x,1/2+y,z
1/2-x,-y,1/2+z
1/2+x,1/2-y,-z
1/2-x,y,1/2-z
1/2-x,1/2-y,-z
1/2+x,y,1/2-z
1/2-x,1/2+y,z
1/2+x,-y,1/2+z
loop_
_atom_site_type_symbol
_atom_site_label
_atom_site_fract_x
_atom_site_fract_y
_atom_site_fract_z
Si Si1 0.257775 0.304391 0.566595
Si Si2 0.929453 0.049185 0.602947
Si Si3 0.000000 0.000000 0.000000
Si Si4 0.893214 0.565755 0.565374
Si Si5 0.427743 0.679932 0.889574
Si Si6 0.568601 0.271791 0.428717
Si Si7 0.380378 0.356662 0.584252
Si Si8 0.693297 0.103937 0.359899
O O1 0.250000 0.298744 0.750000
O O2 0.250000 0.250000 0.500000
O O3 0.321127 0.328287 0.526953
O O4 0.212893 0.349461 0.534079
O O5 0.895945 0.043194 0.763854
O O6 0.904638 0.097484 0.515651
O O7 0.000000 0.055742 0.639147
O O8 0.923824 0.000000 0.500000
O O9 0.947871 0.958191 0.976156
O O10 0.906341 0.624198 0.589351
O O11 0.833172 0.561957 0.469132
O O12 0.500000 0.678765 0.890370
O O13 0.407747 0.702546 0.725412
O O14 0.405790 0.719283 0.017180
O O15 0.500000 0.262715 0.397582
O O16 0.573550 0.311571 0.568151
O O17 0.359630 0.378376 0.747223
O O18 0.750000 0.091726 0.250000
#
# Coordination Sequence:
#
# PCOD9479688 Si02
#       8
#    16  16   4  16  16  16  16  16
#     4   9  21  40  63  96 132 179 244 297 357 436
#     4  11  24  43  69 106 148 191 248 303 375 446
#     4  12  28  44  74 120 128 192 258 306 406 424
#     4  12  24  45  72 102 149 189 243 319 372 457
#     4  10  21  38  56  93 144 184 231 288 361 454
#     4  10  21  35  57  93 141 186 227 278 364 452
#     4  10  21  39  65  94 138 188 234 300 359 437
#     4   9  24  46  67  97 145 187 246 304 365 441
#
# _framework density 21.968726
#
# number of rings (size 3 to 8) (size 9 to 14) (size 15 to 20)
#    0.000    2.069    2.759    0.414    5.793    2.207 
#    1.241    2.069    6.069    0.000    0.000    0.000 
#    0.000    0.000    0.000    0.000    0.000    0.000 
#
# Total GULP energy -323194.514767 kJ/mol
# GULP energy per Si atom -5572.319220 kJ/mol
# Density = 2.191872 g / cm^3
# Si number density = 21.968726 Si / 1000 Ang^3
#
#
#
# Elastic Constant Matrix: (Units=GPa)
#
#
# Indices 1 2 3 4 5 6 
#
# 1 80.7702 37.9694 43.9477 0.0000 0.0000 0.0000
# 2 37.9694 118.3207 42.3662 0.0000 0.0000 0.0000
# 3 43.9477 42.3662 67.5456 0.0000 0.0000 0.0000
# 4 0.0000 0.0000 0.0000 35.0787 0.0000 0.0000
# 5 0.0000 0.0000 0.0000 0.0000 11.5795 0.0000
# 6 0.0000 0.0000 0.0000 0.0000 0.0000 8.3174
#
#
#
# Elastic Compliance Matrix: (Units=1/GPa)
#
#
# Indices 1 2 3 4 5 6 
#
# 1 0.019609 -0.002224 -0.011364 0.000000 0.000000 0.000000
# 2 -0.002224 0.011152 -0.005548 0.000000 0.000000 0.000000
# 3 -0.011364 -0.005548 0.025678 0.000000 0.000000 0.000000
# 4 0.000000 0.000000 0.000000 0.028507 0.000000 0.000000
# 5 0.000000 0.000000 0.000000 0.000000 0.086359 0.000000
# 6 0.000000 0.000000 0.000000 0.000000 0.000000 0.120230
#
#
# Mechanical properties :
#
#
# Convention : Reuss Voigt Hill
#
# Bulk Modulus (GPa) = 55.03984 57.24477 56.14231
# Shear Modulus (GPa) = 14.88705 20.48534 17.68619
#
# Velocity S-wave (km/s) = 2.60599 3.05696 2.84044
# Velocity P-wave (km/s) = 5.84491 6.21080 6.03063
#
# Compressibility (1/GPa) = 0.01816866
#
# Stress axis : x y z
#
# Youngs Moduli (GPa) = 50.99636 89.67296 38.94362
#
# Poissons Ratio (x) = 0.19941 0.44254
# Poissons Ratio (y) = 0.11340 0.21605
# Poissons Ratio (z) = 0.57951 0.49748
#
# Static dielectric constant tensor:
#      x y z
#    x 1.854370 0.000000 0.000000 
#    y 0.000000 1.824150 0.000000 
#    z 0.000000 0.000000 1.872030 
# 
# From -- ./inp_files/9725.got.cif
#   From: 2010.05.17/outbox.cif.g08.bks.cpg/sg64_5_cif.got.tgz:9725.got - 2010.06.03 16:29:19.
