data_PCOD9479029
_publ_section_title
;
Structure prediction by ZEFSAII (Michael W. Deem and Ramdas Pophale) SiO2 
 PCOD9479029
Probable space group: C M C A
;
_chemical_formula_sum "Si O2"
_cell_formula_units_Z 96
_cell_length_a 22.222882
_cell_length_b 8.340859
_cell_length_c 26.468522
_cell_angle_alpha 90.000000
_cell_angle_beta 90.000000
_cell_angle_gamma 90.000000
_cell_volume 4906.150325
_symmetry_space_group_name_H-M "C M C A"
_symmetry_group_IT_number 64
_symmetry_cell_setting 'orthorhombic'
loop_
_space_group_symop_operation_xyz
x,y,z
-x,1/2-y,1/2+z
x,-y,-z
-x,1/2+y,1/2-z
-x,-y,-z
x,1/2+y,1/2-z
-x,y,z
x,1/2-y,1/2+z
1/2+x,1/2+y,z
1/2-x,-y,1/2+z
1/2+x,1/2-y,-z
1/2-x,y,1/2-z
1/2-x,1/2-y,-z
1/2+x,y,1/2-z
1/2-x,1/2+y,z
1/2+x,-y,1/2+z
loop_
_atom_site_type_symbol
_atom_site_label
_atom_site_fract_x
_atom_site_fract_y
_atom_site_fract_z
Si Si1 0.798229 0.702854 0.795364
Si Si2 0.000000 0.436790 0.264647
Si Si3 0.250787 0.726580 0.399958
Si Si4 0.876138 0.726196 0.133361
Si Si5 0.131649 0.024867 0.778734
Si Si6 0.500000 0.609909 0.330565
Si Si7 0.332509 0.535220 0.943897
O O1 0.750000 0.693596 0.750000
O O2 0.767971 0.679597 0.849236
O O3 0.848627 0.576947 0.777549
O O4 0.826735 0.879975 0.795733
O O5 0.061877 0.520670 0.280795
O O6 0.000000 0.262450 0.291135
O O7 0.000000 0.451596 0.203973
O O8 0.314116 0.640883 0.383741
O O9 0.195465 0.620711 0.417614
O O10 0.274533 0.845529 0.443318
O O11 0.938146 0.631000 0.138364
O O12 0.863641 0.817733 0.186191
O O13 0.879213 0.871497 0.092138
O O14 0.353767 0.500000 0.000000
#
# Coordination Sequence:
#
# PCOD9479029 Si02
#       7
#    16   8  16  16  16   8  16
#     4  12  21  31  51  78 113 140 173 210 265 315
#     4  10  22  34  54  70 107 149 188 200 260 294
#     4  10  21  34  53  83 108 139 173 222 271 327
#     4   9  20  34  55  76 109 136 181 215 265 311
#     4  11  21  34  50  76 109 146 175 216 249 322
#     4  10  20  40  51  78 106 150 183 220 240 322
#     4  10  20  37  57  81 106 136 177 229 282 320
#
# _framework density 19.567277000000001
#
# number of rings (size 3 to 8) (size 9 to 14) (size 15 to 20)
#    1.000    0.667    3.333    3.000    2.333    0.000 
#    0.000    0.417    0.000    0.000    0.000    0.583 
#    0.000    0.000    0.000    0.000    0.000    0.000 
#
# Total GULP energy -267390.446129 kJ/mol
# GULP energy per Si atom -5570.634294 kJ/mol
# Density = 1.952274 g / cm^3
# Si number density = 19.567277 Si / 1000 Ang^3
#
#
#
# Elastic Constant Matrix: (Units=GPa)
#
#
# Indices 1 2 3 4 5 6 
#
# 1 68.8628 -0.0706 12.4900 0.0000 0.0000 0.0000
# 2 -0.0706 22.5682 -10.5448 0.0000 0.0000 0.0000
# 3 12.4900 -10.5448 67.3840 0.0000 0.0000 0.0000
# 4 0.0000 0.0000 0.0000 23.2723 0.0000 0.0000
# 5 0.0000 0.0000 0.0000 0.0000 14.9264 0.0000
# 6 0.0000 0.0000 0.0000 0.0000 0.0000 16.3735
#
#
#
# Elastic Compliance Matrix: (Units=1/GPa)
#
#
# Indices 1 2 3 4 5 6 
#
# 1 0.015065 -0.001357 -0.003005 0.000000 0.000000 0.000000
# 2 -0.001357 0.047928 0.007752 0.000000 0.000000 0.000000
# 3 -0.003005 0.007752 0.016610 0.000000 0.000000 0.000000
# 4 0.000000 0.000000 0.000000 0.042970 0.000000 0.000000
# 5 0.000000 0.000000 0.000000 0.000000 0.066996 0.000000
# 6 0.000000 0.000000 0.000000 0.000000 0.000000 0.061074
#
#
# Mechanical properties :
#
#
# Convention : Reuss Voigt Hill
#
# Bulk Modulus (GPa) = 11.57633 18.06271 14.81952
# Shear Modulus (GPa) = 18.33806 21.37712 19.85759
#
# Velocity S-wave (km/s) = 3.06466 3.30887 3.18911
# Velocity P-wave (km/s) = 4.29556 4.88358 4.59898
#
# Compressibility (1/GPa) = 0.08638317
#
# Stress axis : x y z
#
# Youngs Moduli (GPa) = 66.37802 20.86477 60.20368
#
# Poissons Ratio (x) = 0.02831 0.18090
# Poissons Ratio (y) = 0.09006 -0.46667
# Poissons Ratio (z) = 0.19945 -0.16173
#
# Static dielectric constant tensor:
#      x y z
#    x 1.707750 0.000000 0.000000 
#    y 0.000000 1.744320 0.000000 
#    z 0.000000 0.000000 1.675250 
# 
# From -- ./inp_files/50989.got.cif
#   From: 2010.05.17/outbox.cif.g08.bks.cpg/sg64_26_cif.got.tgz:50989.got - 2010.06.03 16:29:19.
