data_PCOD9479217
_publ_section_title
;
Structure prediction by ZEFSAII (Michael W. Deem and Ramdas Pophale) SiO2 
 PCOD9479217
Probable space group: C M C A
;
_chemical_formula_sum "Si O2"
_cell_formula_units_Z 64
_cell_length_a 14.333505
_cell_length_b 16.427290
_cell_length_c 13.820911
_cell_angle_alpha 90.000000
_cell_angle_beta 90.000000
_cell_angle_gamma 90.000000
_cell_volume 3254.280596
_symmetry_space_group_name_H-M "C M C A"
_symmetry_group_IT_number 64
_symmetry_cell_setting 'orthorhombic'
loop_
_space_group_symop_operation_xyz
x,y,z
-x,1/2-y,1/2+z
x,-y,-z
-x,1/2+y,1/2-z
-x,-y,-z
x,1/2+y,1/2-z
-x,y,z
x,1/2-y,1/2+z
1/2+x,1/2+y,z
1/2-x,-y,1/2+z
1/2+x,1/2-y,-z
1/2-x,y,1/2-z
1/2-x,1/2-y,-z
1/2+x,y,1/2-z
1/2-x,1/2+y,z
1/2+x,-y,1/2+z
loop_
_atom_site_type_symbol
_atom_site_label
_atom_site_fract_x
_atom_site_fract_y
_atom_site_fract_z
Si Si1 0.652142 0.591349 0.723725
Si Si2 0.000000 0.178852 0.435076
Si Si3 0.000000 0.966207 0.707424
Si Si4 0.840763 0.771001 0.433179
Si Si5 0.500000 0.365462 0.903343
Si Si6 0.000000 0.865499 0.120085
O O1 0.750000 0.553151 0.750000
O O2 0.587455 0.522073 0.678625
O O3 0.674634 0.671384 0.659819
O O4 0.591067 0.613879 0.817800
O O5 0.091223 0.174821 0.500540
O O6 0.000000 0.269038 0.392306
O O7 0.000000 0.114971 0.352043
O O8 0.000000 0.933742 0.819493
O O9 0.750000 0.750000 0.500000
O O10 0.907108 0.693735 0.401776
O O11 0.500000 0.400698 0.012223
#
# Coordination Sequence:
#
# PCOD9479217 Si02
#       6
#    16   8   8  16   8   8
#     4  11  22  37  56  84 118 153 189 239 299 352
#     4  10  20  38  60  83 110 150 192 241 294 345
#     4  11  24  38  56  85 124 157 190 241 302 368
#     4  10  21  38  63  87 111 149 202 250 291 353
#     4  10  21  38  59  87 112 150 201 243 298 357
#     4   9  19  39  63  81 110 151 199 250 288 347
#
# _framework density 19.666404
#
# number of rings (size 3 to 8) (size 9 to 14) (size 15 to 20)
#    0.000    2.000    0.000    7.500    0.000    6.000 
#    0.000    3.750    0.000    0.000    0.000    0.000 
#    0.000    0.000    0.000    0.000    0.000    0.000 
#
# Total GULP energy -178273.637865 kJ/mol
# GULP energy per Si atom -5571.051183 kJ/mol
# Density = 1.962164 g / cm^3
# Si number density = 19.666404 Si / 1000 Ang^3
#
#
#
# Elastic Constant Matrix: (Units=GPa)
#
#
# Indices 1 2 3 4 5 6 
#
# 1 153.5813 16.4949 28.5141 0.0000 0.0000 0.0000
# 2 16.4949 61.4915 24.8126 0.0000 0.0000 0.0000
# 3 28.5141 24.8126 77.7155 0.0000 0.0000 0.0000
# 4 0.0000 0.0000 0.0000 5.6257 0.0000 0.0000
# 5 0.0000 0.0000 0.0000 0.0000 1202.4550 0.0000
# 6 0.0000 0.0000 0.0000 0.0000 0.0000 -34.4312
#
#
#
# Elastic Compliance Matrix: (Units=1/GPa)
#
#
# Indices 1 2 3 4 5 6 
#
# 1 0.007037 -0.000971 -0.002272 0.000000 0.000000 0.000000
# 2 -0.000971 0.018801 -0.005647 0.000000 0.000000 0.000000
# 3 -0.002272 -0.005647 0.015504 0.000000 0.000000 0.000000
# 4 0.000000 0.000000 0.000000 0.177757 0.000000 0.000000
# 5 0.000000 0.000000 0.000000 0.000000 0.000832 0.000000
# 6 0.000000 0.000000 0.000000 0.000000 0.000000 -0.029043
#
#
# Mechanical properties :
#
#
# Convention : Reuss Voigt Hill
#
# Bulk Modulus (GPa) = 42.43857 48.04795 45.24326
# Shear Modulus (GPa) = 23.09240 249.59432 136.34336
#
# Velocity S-wave (km/s) = 3.43039 11.27784 8.33538
# Velocity P-wave (km/s) = 6.10869 13.93092 10.75609
#
# Compressibility (1/GPa) = 0.02356347
#
# Stress axis : x y z
#
# Youngs Moduli (GPa) = 142.09958 53.18780 64.50008
#
# Poissons Ratio (x) = 0.05164 0.14655
# Poissons Ratio (y) = 0.13797 0.36420
# Poissons Ratio (z) = 0.32285 0.30033
#
# Static dielectric constant tensor:
#      x y z
#    x 1.652670 0.000000 0.000000 
#    y 0.000000 1.681100 0.000000 
#    z 0.000000 0.000000 1.826110 
# 
# From -- ./inp_files/23449.got.cif
#   From: 2010.05.17/outbox.cif.g08.bks.cpg/sg64_12_cif.got.tgz:23449.got - 2010.06.03 16:29:19.
