data_PCOD9479600
_publ_section_title
;
Structure prediction by ZEFSAII (Michael W. Deem and Ramdas Pophale) SiO2 
 PCOD9479600
Probable space group: C M C A
;
_chemical_formula_sum "Si O2"
_cell_formula_units_Z 116
_cell_length_a 9.211379
_cell_length_b 23.573699
_cell_length_c 29.140693
_cell_angle_alpha 90.000000
_cell_angle_beta 90.000000
_cell_angle_gamma 90.000000
_cell_volume 6327.792963
_symmetry_space_group_name_H-M "C M C A"
_symmetry_group_IT_number 64
_symmetry_cell_setting 'orthorhombic'
loop_
_space_group_symop_operation_xyz
x,y,z
-x,1/2-y,1/2+z
x,-y,-z
-x,1/2+y,1/2-z
-x,-y,-z
x,1/2+y,1/2-z
-x,y,z
x,1/2-y,1/2+z
1/2+x,1/2+y,z
1/2-x,-y,1/2+z
1/2+x,1/2-y,-z
1/2-x,y,1/2-z
1/2-x,1/2-y,-z
1/2+x,y,1/2-z
1/2-x,1/2+y,z
1/2+x,-y,1/2+z
loop_
_atom_site_type_symbol
_atom_site_label
_atom_site_fract_x
_atom_site_fract_y
_atom_site_fract_z
Si Si1 0.664804 0.449207 0.887589
Si Si2 0.665641 0.382021 0.346484
Si Si3 0.325287 0.769713 0.102169
Si Si4 0.246659 0.442275 0.059160
Si Si5 0.665127 0.670915 0.982753
Si Si6 0.326244 0.160508 0.079868
Si Si7 0.828489 0.978629 0.203363
Si Si8 0.000000 0.500000 0.000000
O O1 0.500000 0.426413 0.887664
O O2 0.673896 0.501369 0.923234
O O3 0.777277 0.400867 0.901738
O O4 0.698038 0.477081 0.838144
O O5 0.500000 0.384557 0.329865
O O6 0.703944 0.317251 0.358949
O O7 0.676181 0.414401 0.395361
O O8 0.768108 0.417603 0.313136
O O9 0.500000 0.764311 0.097623
O O10 0.254068 0.793779 0.055186
O O11 0.246427 0.710056 0.110330
O O12 0.340707 0.393077 0.036569
O O13 0.125157 0.460567 0.023734
O O14 0.500000 0.692399 0.988611
O O15 0.752916 0.668672 0.030011
O O16 0.500000 0.164972 0.077557
O O17 0.750000 0.995631 0.250000
O O18 0.000000 0.975246 0.210102
#
# Coordination Sequence:
#
# PCOD9479600 Si02
#       8
#    16  16  16  16  16  16  16   4
#     4  10  22  39  56  79 113 149 190 232 285 339
#     4   9  18  35  57  82 110 141 178 224 280 329
#     4  10  21  38  58  78 107 145 191 239 284 328
#     4  10  21  31  53  76 109 146 187 232 281 328
#     4  11  22  36  54  75 107 146 196 246 287 327
#     4  12  25  36  52  76 108 151 196 236 281 329
#     4  10  21  37  62  92 118 144 174 221 279 346
#     4  12  20  28  46  76 112 144 190 224 272 322
#
# _framework density 18.331827000000001
#
# number of rings (size 3 to 8) (size 9 to 14) (size 15 to 20)
#    0.000    1.655    0.690    4.138    4.828    4.966 
#    0.000    2.069    0.000    0.828    0.000    3.862 
#    0.000    0.000    0.000    0.000    0.000    0.000 
#
# Total GULP energy -323341.064277 kJ/mol
# GULP energy per Si atom -5574.845936 kJ/mol
# Density = 1.829010 g / cm^3
# Si number density = 18.331827 Si / 1000 Ang^3
#
#
#
# Elastic Constant Matrix: (Units=GPa)
#
#
# Indices 1 2 3 4 5 6 
#
# 1 122.4325 39.2423 29.8280 0.0000 0.0000 0.0000
# 2 39.2423 91.9344 9.9578 0.0000 0.0000 0.0000
# 3 29.8280 9.9578 26.2537 0.0000 0.0000 0.0000
# 4 0.0000 0.0000 0.0000 9.0546 0.0000 0.0000
# 5 0.0000 0.0000 0.0000 0.0000 14.3374 0.0000
# 6 0.0000 0.0000 0.0000 0.0000 0.0000 18.4922
#
#
#
# Elastic Compliance Matrix: (Units=1/GPa)
#
#
# Indices 1 2 3 4 5 6 
#
# 1 0.012548 -0.003975 -0.012748 0.000000 0.000000 0.000000
# 2 -0.003975 0.012603 -0.000264 0.000000 0.000000 0.000000
# 3 -0.012748 -0.000264 0.052674 0.000000 0.000000 0.000000
# 4 0.000000 0.000000 0.000000 0.110441 0.000000 0.000000
# 5 0.000000 0.000000 0.000000 0.000000 0.069748 0.000000
# 6 0.000000 0.000000 0.000000 0.000000 0.000000 0.054077
#
#
# Mechanical properties :
#
#
# Convention : Reuss Voigt Hill
#
# Bulk Modulus (GPa) = 22.80504 44.29741 33.55122
# Shear Modulus (GPa) = 13.86266 19.14967 16.50617
#
# Velocity S-wave (km/s) = 2.75291 3.23555 3.00394
# Velocity P-wave (km/s) = 4.75098 6.17860 5.51121
#
# Compressibility (1/GPa) = 0.04384996
#
# Stress axis : x y z
#
# Youngs Moduli (GPa) = 79.69545 79.34803 18.98473
#
# Poissons Ratio (x) = 0.31543 0.24202
# Poissons Ratio (y) = 0.31681 0.00501
# Poissons Ratio (z) = 1.01598 0.02092
#
# Static dielectric constant tensor:
#      x y z
#    x 1.619690 0.000000 0.000000 
#    y 0.000000 1.664790 0.000000 
#    z 0.000000 0.000000 1.619940 
# 
# From -- ./inp_files/48555.got.cif
#   From: 2010.05.17/outbox.cif.g08.bks.cpg/sg64_25_cif.got.tgz:48555.got - 2010.06.03 16:29:19.
