data_PCOD9479653
_publ_section_title
;
Structure prediction by ZEFSAII (Michael W. Deem and Ramdas Pophale) SiO2 
 PCOD9479653
Probable space group: C M C A
;
_chemical_formula_sum "Si O2"
_cell_formula_units_Z 116
_cell_length_a 9.646330
_cell_length_b 25.688975
_cell_length_c 23.286158
_cell_angle_alpha 90.000000
_cell_angle_beta 90.000000
_cell_angle_gamma 90.000000
_cell_volume 5770.410786
_symmetry_space_group_name_H-M "C M C A"
_symmetry_group_IT_number 64
_symmetry_cell_setting 'orthorhombic'
loop_
_space_group_symop_operation_xyz
x,y,z
-x,1/2-y,1/2+z
x,-y,-z
-x,1/2+y,1/2-z
-x,-y,-z
x,1/2+y,1/2-z
-x,y,z
x,1/2-y,1/2+z
1/2+x,1/2+y,z
1/2-x,-y,1/2+z
1/2+x,1/2-y,-z
1/2-x,y,1/2-z
1/2-x,1/2-y,-z
1/2+x,y,1/2-z
1/2-x,1/2+y,z
1/2+x,-y,1/2+z
loop_
_atom_site_type_symbol
_atom_site_label
_atom_site_fract_x
_atom_site_fract_y
_atom_site_fract_z
Si Si1 0.849795 0.109969 0.978878
Si Si2 0.345977 0.676489 0.366850
Si Si3 0.658925 0.582353 0.114363
Si Si4 0.273813 0.971863 0.098325
Si Si5 0.000000 0.500000 0.000000
Si Si6 0.336215 0.386168 0.308800
Si Si7 0.154593 0.300588 0.001560
Si Si8 0.669083 0.213469 0.689698
O O1 0.839891 0.061986 0.935860
O O2 0.000000 0.136365 0.973755
O O3 0.835468 0.090895 0.044836
O O4 0.729021 0.151347 0.967614
O O5 0.500000 0.664900 0.344063
O O6 0.243845 0.628816 0.356245
O O7 0.355582 0.681633 0.435493
O O8 0.304880 0.733351 0.344589
O O9 0.500000 0.585225 0.131668
O O10 0.719420 0.525432 0.124719
O O11 0.330620 0.934201 0.147716
O O12 0.381798 0.986195 0.048522
O O13 0.500000 0.373535 0.298036
O O14 0.250000 0.397849 0.250000
O O15 0.248099 0.337357 0.334355
O O16 0.000000 0.290173 0.023808
O O17 0.250000 0.250000 0.000000
O O18 0.500000 0.206728 0.693396
O O19 0.750000 0.220151 0.750000
#
# Coordination Sequence:
#
# PCOD9479653 Si02
#       8
#    16  16  16  16   4  16  16  16
#     4  10  21  36  56  84 122 162 208 257 317 386
#     4   9  21  38  59  83 116 160 202 250 319 374
#     4  10  21  37  59  90 125 162 208 262 323 384
#     4  12  24  39  66  95 133 171 221 274 334 404
#     4  12  24  40  66 100 132 168 226 274 332 398
#     4  11  25  43  65  95 127 171 216 267 329 389
#     4  10  21  35  52  79 118 157 200 249 308 381
#     4  10  21  41  66  93 123 164 216 273 326 391
#
# _framework density 20.102554999999999
#
# number of rings (size 3 to 8) (size 9 to 14) (size 15 to 20)
#    0.000    1.655    2.069    2.483    3.862    4.966 
#    0.000    0.690    0.000    0.000    0.000    0.000 
#    0.000    0.000    0.000    0.000    0.000    0.000 
#
# Total GULP energy -323041.220580 kJ/mol
# GULP energy per Si atom -5569.676217 kJ/mol
# Density = 2.005680 g / cm^3
# Si number density = 20.102555 Si / 1000 Ang^3
#
#
#
# Elastic Constant Matrix: (Units=GPa)
#
#
# Indices 1 2 3 4 5 6 
#
# 1 164.2756 92.6562 28.1375 0.0000 0.0000 0.0000
# 2 92.6562 158.6116 35.6880 0.0000 0.0000 0.0000
# 3 28.1375 35.6880 60.2840 0.0000 0.0000 0.0000
# 4 0.0000 0.0000 0.0000 33.1729 0.0000 0.0000
# 5 0.0000 0.0000 0.0000 0.0000 -292.2796 0.0000
# 6 0.0000 0.0000 0.0000 0.0000 0.0000 113.4961
#
#
#
# Elastic Compliance Matrix: (Units=1/GPa)
#
#
# Indices 1 2 3 4 5 6 
#
# 1 0.009163 -0.005065 -0.001278 0.000000 0.000000 0.000000
# 2 -0.005065 0.010074 -0.003599 0.000000 0.000000 0.000000
# 3 -0.001278 -0.003599 0.019316 0.000000 0.000000 0.000000
# 4 0.000000 0.000000 0.000000 0.030145 0.000000 0.000000
# 5 0.000000 0.000000 0.000000 0.000000 -0.003421 0.000000
# 6 0.000000 0.000000 0.000000 0.000000 0.000000 0.008811
#
#
# Mechanical properties :
#
#
# Convention : Reuss Voigt Hill
#
# Bulk Modulus (GPa) = 53.57160 77.34829 65.45994
# Shear Modulus (GPa) = 49.90273 -14.00948 17.94662
#
# Velocity S-wave (km/s) = 4.98778 -2.64275 2.99114
# Velocity P-wave (km/s) = 7.73806 5.40816 6.67555
#
# Compressibility (1/GPa) = 0.01866661
#
# Stress axis : x y z
#
# Youngs Moduli (GPa) = 109.13160 99.26992 51.77167
#
# Poissons Ratio (x) = 0.50283 0.06618
# Poissons Ratio (y) = 0.55278 0.18634
# Poissons Ratio (z) = 0.13950 0.35730
#
# Static dielectric constant tensor:
#      x y z
#    x 1.400900 0.000000 0.000000 
#    y 0.000000 1.721640 0.000000 
#    z 0.000000 0.000000 1.720970 
# 
# From -- ./inp_files/43423.got.cif
#   From: 2010.05.17/outbox.cif.g08.bks.cpg/sg64_22_cif.got.tgz:43423.got - 2010.06.03 16:29:19.
