data_PCOD9479297
_publ_section_title
;
Structure prediction by ZEFSAII (Michael W. Deem and Ramdas Pophale) SiO2 
 PCOD9479297
Probable space group: C M C A
;
_chemical_formula_sum "Si O2"
_cell_formula_units_Z 104
_cell_length_a 18.311900
_cell_length_b 28.473883
_cell_length_c 9.896903
_cell_angle_alpha 90.000000
_cell_angle_beta 90.000000
_cell_angle_gamma 90.000000
_cell_volume 5160.353082
_symmetry_space_group_name_H-M "C M C A"
_symmetry_group_IT_number 64
_symmetry_cell_setting 'orthorhombic'
loop_
_space_group_symop_operation_xyz
x,y,z
-x,1/2-y,1/2+z
x,-y,-z
-x,1/2+y,1/2-z
-x,-y,-z
x,1/2+y,1/2-z
-x,y,z
x,1/2-y,1/2+z
1/2+x,1/2+y,z
1/2-x,-y,1/2+z
1/2+x,1/2-y,-z
1/2-x,y,1/2-z
1/2-x,1/2-y,-z
1/2+x,y,1/2-z
1/2-x,1/2+y,z
1/2+x,-y,1/2+z
loop_
_atom_site_type_symbol
_atom_site_label
_atom_site_fract_x
_atom_site_fract_y
_atom_site_fract_z
Si Si1 0.356604 0.342155 0.537817
Si Si2 0.177666 0.491994 0.840251
Si Si3 0.912009 0.647128 0.530071
Si Si4 0.337028 0.594522 0.722835
Si Si5 0.750000 0.691105 0.250000
Si Si6 0.833415 0.258637 0.549685
Si Si7 0.917460 0.904231 0.752439
O O1 0.349383 0.378086 0.416004
O O2 0.281316 0.338856 0.625963
O O3 0.371494 0.290898 0.475536
O O4 0.413544 0.361832 0.645245
O O5 0.250000 0.487086 0.750000
O O6 0.140099 0.540342 0.791821
O O7 0.130383 0.446182 0.808126
O O8 0.193260 0.500000 0.000000
O O9 0.880014 0.620296 0.658488
O O10 0.874772 0.698314 0.519608
O O11 0.892265 0.617204 0.395489
O O12 0.000000 0.651308 0.534759
O O13 0.250000 0.595515 0.750000
O O14 0.817157 0.723887 0.297913
O O15 0.750000 0.250000 0.500000
O O16 0.000000 0.920827 0.769652
#
# Coordination Sequence:
#
# PCOD9479297 Si02
#       7
#    16  16  16  16   8  16  16
#     4  11  23  38  68  94 135 174 223 279 332 392
#     4  11  26  44  71 104 135 172 224 290 337 401
#     4  11  26  47  69  99 141 183 227 284 344 413
#     4  11  25  42  67 107 132 173 227 284 344 403
#     4  10  20  38  64 102 132 176 226 282 330 406
#     4  10  22  37  67 102 132 178 225 276 333 402
#     4  11  26  46  69  95 134 186 228 270 344 416
#
# _framework density 20.153659000000001
#
# number of rings (size 3 to 8) (size 9 to 14) (size 15 to 20)
#    0.000    1.231    3.077    1.846   10.769    2.154 
#    0.000    3.077    0.000    0.000    0.000    0.000 
#    0.000    0.000    0.000    0.000    0.000    0.000 
#
# Total GULP energy -290354.143065 kJ/mol
# GULP energy per Si atom -5583.733520 kJ/mol
# Density = 2.010779 g / cm^3
# Si number density = 20.153659 Si / 1000 Ang^3
#
#
#
# Elastic Constant Matrix: (Units=GPa)
#
#
# Indices 1 2 3 4 5 6 
#
# 1 68.9085 49.4180 40.2868 0.0000 0.0000 0.0000
# 2 49.4180 148.1252 48.6713 0.0000 0.0000 0.0000
# 3 40.2868 48.6713 120.9912 0.0000 0.0000 0.0000
# 4 0.0000 0.0000 0.0000 30.3095 0.0000 0.0000
# 5 0.0000 0.0000 0.0000 0.0000 21.1299 0.0000
# 6 0.0000 0.0000 0.0000 0.0000 0.0000 1.8153
#
#
#
# Elastic Compliance Matrix: (Units=1/GPa)
#
#
# Indices 1 2 3 4 5 6 
#
# 1 0.021316 -0.005507 -0.004882 0.000000 0.000000 0.000000
# 2 -0.005507 0.009202 -0.001868 0.000000 0.000000 0.000000
# 3 -0.004882 -0.001868 0.010642 0.000000 0.000000 0.000000
# 4 0.000000 0.000000 0.000000 0.032993 0.000000 0.000000
# 5 0.000000 0.000000 0.000000 0.000000 0.047326 0.000000
# 6 0.000000 0.000000 0.000000 0.000000 0.000000 0.550883
#
#
# Mechanical properties :
#
#
# Convention : Reuss Voigt Hill
#
# Bulk Modulus (GPa) = 60.07708 68.30859 64.19284
# Shear Modulus (GPa) = 7.11818 23.96084 15.53951
#
# Velocity S-wave (km/s) = 1.88139 3.45179 2.77979
# Velocity P-wave (km/s) = 5.88164 7.06074 6.49799
#
# Compressibility (1/GPa) = 0.01664528
#
# Stress axis : x y z
#
# Youngs Moduli (GPa) = 46.91325 108.66971 93.96591
#
# Poissons Ratio (x) = 0.59848 0.45876
# Poissons Ratio (y) = 0.25836 0.17553
# Poissons Ratio (z) = 0.22904 0.20300
#
# Static dielectric constant tensor:
#      x y z
#    x 1.747940 0.000000 0.000000 
#    y 0.000000 1.730030 0.000000 
#    z 0.000000 0.000000 1.745850 
# 
# From -- ./inp_files/8656.got.cif
#   From: 2010.05.17/outbox.cif.g08.bks.cpg/sg64_5_cif.got.tgz:8656.got - 2010.06.03 16:29:19.
