data_PCOD9479930
_publ_section_title
;
Structure prediction by ZEFSAII (Michael W. Deem and Ramdas Pophale) SiO2 
 PCOD9479930
Probable space group: C M C A
;
_chemical_formula_sum "Si O2"
_cell_formula_units_Z 96
_cell_length_a 18.426291
_cell_length_b 14.337442
_cell_length_c 15.881203
_cell_angle_alpha 90.000000
_cell_angle_beta 90.000000
_cell_angle_gamma 90.000000
_cell_volume 4195.589566
_symmetry_space_group_name_H-M "C M C A"
_symmetry_group_IT_number 64
_symmetry_cell_setting 'orthorhombic'
loop_
_space_group_symop_operation_xyz
x,y,z
-x,1/2-y,1/2+z
x,-y,-z
-x,1/2+y,1/2-z
-x,-y,-z
x,1/2+y,1/2-z
-x,y,z
x,1/2-y,1/2+z
1/2+x,1/2+y,z
1/2-x,-y,1/2+z
1/2+x,1/2-y,-z
1/2-x,y,1/2-z
1/2-x,1/2-y,-z
1/2+x,y,1/2-z
1/2-x,1/2+y,z
1/2+x,-y,1/2+z
loop_
_atom_site_type_symbol
_atom_site_label
_atom_site_fract_x
_atom_site_fract_y
_atom_site_fract_z
Si Si1 0.581043 0.989894 0.393213
Si Si2 0.672580 0.232650 0.788240
Si Si3 0.306343 0.643678 0.046924
Si Si4 0.385425 0.219607 0.601791
Si Si5 0.362534 0.086056 0.059206
Si Si6 0.831972 0.483056 0.222678
O O1 0.500000 0.029354 0.400788
O O2 0.574993 0.878623 0.410517
O O3 0.614725 0.988052 0.300610
O O4 0.638468 0.057373 0.439314
O O5 0.750000 0.259475 0.750000
O O6 0.668229 0.290261 0.874861
O O7 0.623634 0.238487 0.702293
O O8 0.672844 0.123001 0.810013
O O9 0.223644 0.608491 0.049453
O O10 0.314628 0.691181 0.954642
O O11 0.406480 0.316862 0.557605
O O12 0.364853 0.048385 0.153172
O O13 0.383767 0.000000 0.000000
O O14 0.750000 0.509469 0.250000
#
# Coordination Sequence:
#
# PCOD9479930 Si02
#       6
#    16  16  16  16  16  16
#     4  11  25  45  69  98 134 183 234 281 345 416
#     4  10  21  37  61  93 136 177 220 279 344 404
#     4  12  23  38  63  99 138 180 228 286 346 407
#     4  11  24  39  61  95 137 182 225 285 340 407
#     4  12  23  36  64 101 136 174 225 290 349 404
#     4  10  21  40  65  96 137 177 224 282 338 402
#
# _framework density 22.881170999999998
#
# number of rings (size 3 to 8) (size 9 to 14) (size 15 to 20)
#    0.000    1.000    3.333    4.000    4.667    1.333 
#    0.000    7.500    0.000    6.000    0.000    0.000 
#    0.000    0.000    0.000    0.000    0.000    0.000 
#
# Total GULP energy -267506.547978 kJ/mol
# GULP energy per Si atom -5573.053083 kJ/mol
# Density = 2.282909 g / cm^3
# Si number density = 22.881171 Si / 1000 Ang^3
#
#
#
# Elastic Constant Matrix: (Units=GPa)
#
#
# Indices 1 2 3 4 5 6 
#
# 1 52.6199 4.8814 3.3168 0.0000 0.0000 0.0000
# 2 4.8814 127.1084 32.6904 0.0000 0.0000 0.0000
# 3 3.3168 32.6904 86.3814 0.0000 0.0000 0.0000
# 4 0.0000 0.0000 0.0000 -24.3836 0.0000 0.0000
# 5 0.0000 0.0000 0.0000 0.0000 -20.8874 0.0000
# 6 0.0000 0.0000 0.0000 0.0000 0.0000 -2.6306
#
#
#
# Elastic Compliance Matrix: (Units=1/GPa)
#
#
# Indices 1 2 3 4 5 6 
#
# 1 0.019092 -0.000603 -0.000505 0.000000 0.000000 0.000000
# 2 -0.000603 0.008735 -0.003282 0.000000 0.000000 0.000000
# 3 -0.000505 -0.003282 0.012838 0.000000 0.000000 0.000000
# 4 0.000000 0.000000 0.000000 -0.041011 0.000000 0.000000
# 5 0.000000 0.000000 0.000000 0.000000 -0.047876 0.000000
# 6 0.000000 0.000000 0.000000 0.000000 0.000000 -0.380147
#
#
# Mechanical properties :
#
#
# Convention : Reuss Voigt Hill
#
# Bulk Modulus (GPa) = 31.36391 38.65409 35.00900
# Shear Modulus (GPa) = -12.22613 5.43443 -3.39585
#
# Velocity S-wave (km/s) = -2.31407 1.54280 -1.21957
# Velocity P-wave (km/s) = 2.56850 4.48372 3.65383
#
# Compressibility (1/GPa) = 0.03188378
#
# Stress axis : x y z
#
# Youngs Moduli (GPa) = 52.37794 114.48642 77.89288
#
# Poissons Ratio (x) = 0.06908 0.03932
# Poissons Ratio (y) = 0.03160 0.25568
# Poissons Ratio (z) = 0.02644 0.37579
#
# Static dielectric constant tensor:
#      x y z
#    x 1.787810 0.000000 0.000000 
#    y 0.000000 1.943450 0.000000 
#    z 0.000000 0.000000 1.908650 
# 
# From -- ./inp_files/26301.got.cif
#   From: 2010.05.17/outbox.cif.g08.bks.cpg/sg64_14_cif.got.tgz:26301.got - 2010.06.03 16:29:19.
