data_PCOD9479034
_publ_section_title
;
Structure prediction by ZEFSAII (Michael W. Deem and Ramdas Pophale) SiO2 
 PCOD9479034
Probable space group: C M C A
;
_chemical_formula_sum "Si O2"
_cell_formula_units_Z 96
_cell_length_a 23.410935
_cell_length_b 20.287675
_cell_length_c 8.626176
_cell_angle_alpha 90.000000
_cell_angle_beta 90.000000
_cell_angle_gamma 90.000000
_cell_volume 4097.031972
_symmetry_space_group_name_H-M "C M C A"
_symmetry_group_IT_number 64
_symmetry_cell_setting 'orthorhombic'
loop_
_space_group_symop_operation_xyz
x,y,z
-x,1/2-y,1/2+z
x,-y,-z
-x,1/2+y,1/2-z
-x,-y,-z
x,1/2+y,1/2-z
-x,y,z
x,1/2-y,1/2+z
1/2+x,1/2+y,z
1/2-x,-y,1/2+z
1/2+x,1/2-y,-z
1/2-x,y,1/2-z
1/2-x,1/2-y,-z
1/2+x,y,1/2-z
1/2-x,1/2+y,z
1/2+x,-y,1/2+z
loop_
_atom_site_type_symbol
_atom_site_label
_atom_site_fract_x
_atom_site_fract_y
_atom_site_fract_z
Si Si1 0.189178 0.736569 0.338662
Si Si2 0.061992 0.844146 0.093127
Si Si3 0.433265 0.300684 0.669750
Si Si4 0.817077 0.479857 0.254616
Si Si5 0.371514 0.632870 0.586090
Si Si6 0.842126 0.398466 0.567480
O O1 0.250000 0.742709 0.250000
O O2 0.128798 0.717410 0.251334
O O3 0.174164 0.806408 0.418789
O O4 0.193559 0.669384 0.439748
O O5 0.060910 0.766045 0.066158
O O6 0.094761 0.854889 0.253349
O O7 0.000000 0.871616 0.114426
O O8 0.092165 0.878223 0.949703
O O9 0.500000 0.307751 0.732870
O O10 0.415515 0.359205 0.554376
O O11 0.750000 0.479576 0.250000
O O12 0.842298 0.437629 0.113452
O O13 0.831060 0.440342 0.413026
O O14 0.833710 0.555652 0.284465
#
# Coordination Sequence:
#
# PCOD9479034 Si02
#       6
#    16  16  16  16  16  16
#     4  11  23  36  60  92 123 159 213 264 309 367
#     4   9  18  35  60  87 118 160 204 256 306 364
#     4  10  21  37  60  91 126 164 204 255 315 374
#     4  10  22  39  60  84 121 163 200 255 316 375
#     4  10  20  37  57  90 121 158 205 255 311 370
#     4  10  21  40  59  89 118 159 211 250 311 373
#
# _framework density 23.431597
#
# number of rings (size 3 to 8) (size 9 to 14) (size 15 to 20)
#    0.000    2.000    1.667    1.500    2.333    2.000 
#    0.000    7.500    0.000    1.000    0.000    0.000 
#    0.000    0.000    0.000    0.000    0.000    0.000 
#
# Total GULP energy -267414.580237 kJ/mol
# GULP energy per Si atom -5571.137088 kJ/mol
# Density = 2.337827 g / cm^3
# Si number density = 23.431597 Si / 1000 Ang^3
#
#
#
# Elastic Constant Matrix: (Units=GPa)
#
#
# Indices 1 2 3 4 5 6 
#
# 1 154.3603 35.3059 30.4087 0.0000 0.0000 0.0000
# 2 35.3059 83.7924 8.7536 0.0000 0.0000 0.0000
# 3 30.4087 8.7536 36.5872 0.0000 0.0000 0.0000
# 4 0.0000 0.0000 0.0000 15.9817 0.0000 0.0000
# 5 0.0000 0.0000 0.0000 0.0000 58.3187 0.0000
# 6 0.0000 0.0000 0.0000 0.0000 0.0000 1044.0812
#
#
#
# Elastic Compliance Matrix: (Units=1/GPa)
#
#
# Indices 1 2 3 4 5 6 
#
# 1 0.008370 -0.002872 -0.006270 0.000000 0.000000 0.000000
# 2 -0.002872 0.013226 -0.000777 0.000000 0.000000 0.000000
# 3 -0.006270 -0.000777 0.032729 0.000000 0.000000 0.000000
# 4 0.000000 0.000000 0.000000 0.062571 0.000000 0.000000
# 5 0.000000 0.000000 0.000000 0.000000 0.017147 0.000000
# 6 0.000000 0.000000 0.000000 0.000000 0.000000 0.000958
#
#
# Mechanical properties :
#
#
# Convention : Reuss Voigt Hill
#
# Bulk Modulus (GPa) = 28.99652 47.07515 38.03584
# Shear Modulus (GPa) = 30.05988 237.02778 133.54383
#
# Velocity S-wave (km/s) = 3.58561 10.06861 7.55756
# Velocity P-wave (km/s) = 5.43544 12.46208 9.61372
#
# Compressibility (1/GPa) = 0.03448689
#
# Stress axis : x y z
#
# Youngs Moduli (GPa) = 119.46944 75.61143 30.55400
#
# Poissons Ratio (x) = 0.21715 0.19157
# Poissons Ratio (y) = 0.34310 0.02375
# Poissons Ratio (z) = 0.74904 0.05878
#
# Static dielectric constant tensor:
#      x y z
#    x 2.029490 0.000000 0.000000 
#    y 0.000000 1.882960 0.000000 
#    z 0.000000 0.000000 2.119810 
# 
# From -- ./inp_files/17382.got.cif
#   From: 2010.05.17/outbox.cif.g08.bks.cpg/sg64_9_cif.got.tgz:17382.got - 2010.06.03 16:29:19.
