data_PCOD9479223
_publ_section_title
;
Structure prediction by ZEFSAII (Michael W. Deem and Ramdas Pophale) SiO2 
 PCOD9479223
Probable space group: C M C A
;
_chemical_formula_sum "Si O2"
_cell_formula_units_Z 64
_cell_length_a 15.848010
_cell_length_b 10.165741
_cell_length_c 17.056678
_cell_angle_alpha 90.000000
_cell_angle_beta 90.000000
_cell_angle_gamma 90.000000
_cell_volume 2747.946215
_symmetry_space_group_name_H-M "C M C A"
_symmetry_group_IT_number 64
_symmetry_cell_setting 'orthorhombic'
loop_
_space_group_symop_operation_xyz
x,y,z
-x,1/2-y,1/2+z
x,-y,-z
-x,1/2+y,1/2-z
-x,-y,-z
x,1/2+y,1/2-z
-x,y,z
x,1/2-y,1/2+z
1/2+x,1/2+y,z
1/2-x,-y,1/2+z
1/2+x,1/2-y,-z
1/2-x,y,1/2-z
1/2-x,1/2-y,-z
1/2+x,y,1/2-z
1/2-x,1/2+y,z
1/2+x,-y,1/2+z
loop_
_atom_site_type_symbol
_atom_site_label
_atom_site_fract_x
_atom_site_fract_y
_atom_site_fract_z
Si Si1 0.735910 0.000000 0.000000
Si Si2 0.907412 0.607862 0.703123
Si Si3 0.355004 0.872492 0.608633
Si Si4 0.750000 0.219492 0.250000
Si Si5 0.091293 0.922369 0.381648
O O1 0.799889 0.888349 0.969428
O O2 0.672701 0.032499 0.929242
O O3 0.903826 0.504971 0.631848
O O4 0.824217 0.697054 0.707707
O O5 0.904281 0.541412 0.789782
O O6 0.000000 0.676103 0.700336
O O7 0.291765 0.862421 0.681792
O O8 0.405621 0.736854 0.611651
O O9 0.000000 0.969783 0.410825
#
# Coordination Sequence:
#
# PCOD9479223 Si02
#       5
#     8  16  16   8  16
#     4  12  23  38  57  84 120 160 192 230 286 350
#     4  10  21  39  63  88 113 147 196 248 294 342
#     4  11  21  38  59  84 116 153 192 238 291 348
#     4  10  20  38  60  86 114 150 194 244 294 346
#     4  10  22  39  59  84 115 151 193 241 289 342
#
# _framework density 23.290122
#
# number of rings (size 3 to 8) (size 9 to 14) (size 15 to 20)
#    0.000    1.500    0.000    7.125    0.000    1.000 
#    0.000    7.500    0.000    0.000    0.000    0.000 
#    0.000    0.000    0.000    0.000    0.000    0.000 
#
# Total GULP energy -178642.982755 kJ/mol
# GULP energy per Si atom -5582.593211 kJ/mol
# Density = 2.323711 g / cm^3
# Si number density = 23.290122 Si / 1000 Ang^3
#
#
#
# Elastic Constant Matrix: (Units=GPa)
#
#
# Indices 1 2 3 4 5 6 
#
# 1 145.0687 19.6893 18.4877 0.0000 0.0000 0.0000
# 2 19.6893 31.7491 -3.5127 0.0000 0.0000 0.0000
# 3 18.4877 -3.5127 37.5751 0.0000 0.0000 0.0000
# 4 0.0000 0.0000 0.0000 2.0565 0.0000 0.0000
# 5 0.0000 0.0000 0.0000 0.0000 4.5712 0.0000
# 6 0.0000 0.0000 0.0000 0.0000 0.0000 -8.0313
#
#
#
# Elastic Compliance Matrix: (Units=1/GPa)
#
#
# Indices 1 2 3 4 5 6 
#
# 1 0.008239 -0.005616 -0.004579 0.000000 0.000000 0.000000
# 2 -0.005616 0.035654 0.006096 0.000000 0.000000 0.000000
# 3 -0.004579 0.006096 0.029436 0.000000 0.000000 0.000000
# 4 0.000000 0.000000 0.000000 0.486268 0.000000 0.000000
# 5 0.000000 0.000000 0.000000 0.000000 0.218760 0.000000
# 6 0.000000 0.000000 0.000000 0.000000 0.000000 -0.124513
#
#
# Mechanical properties :
#
#
# Convention : Reuss Voigt Hill
#
# Bulk Modulus (GPa) = 15.35335 31.52464 23.43899
# Shear Modulus (GPa) = 7.31259 11.70119 9.50689
#
# Velocity S-wave (km/s) = 1.77387 2.24388 2.02257
# Velocity P-wave (km/s) = 3.28664 4.50315 3.94210
#
# Compressibility (1/GPa) = 0.06513236
#
# Stress axis : x y z
#
# Youngs Moduli (GPa) = 121.37329 28.04715 33.97189
#
# Poissons Ratio (x) = 0.15751 0.15555
# Poissons Ratio (y) = 0.68164 -0.20710
# Poissons Ratio (z) = 0.55574 -0.17098
#
# Static dielectric constant tensor:
#      x y z
#    x 1.940040 0.000000 0.000000 
#    y 0.000000 1.871420 0.000000 
#    z 0.000000 0.000000 1.855200 
# 
# From -- ./inp_files/24936.got.cif
#   From: 2010.05.17/outbox.cif.g08.bks.cpg/sg64_13_cif.got.tgz:24936.got - 2010.06.03 16:29:19.
