data_PCOD9479861
_publ_section_title
;
Structure prediction by ZEFSAII (Michael W. Deem and Ramdas Pophale) SiO2 
 PCOD9479861
Probable space group: C M C A
;
_chemical_formula_sum "Si O2"
_cell_formula_units_Z 80
_cell_length_a 26.206514
_cell_length_b 9.408522
_cell_length_c 15.809562
_cell_angle_alpha 90.000000
_cell_angle_beta 90.000000
_cell_angle_gamma 90.000000
_cell_volume 3898.077754
_symmetry_space_group_name_H-M "C M C A"
_symmetry_group_IT_number 64
_symmetry_cell_setting 'orthorhombic'
loop_
_space_group_symop_operation_xyz
x,y,z
-x,1/2-y,1/2+z
x,-y,-z
-x,1/2+y,1/2-z
-x,-y,-z
x,1/2+y,1/2-z
-x,y,z
x,1/2-y,1/2+z
1/2+x,1/2+y,z
1/2-x,-y,1/2+z
1/2+x,1/2-y,-z
1/2-x,y,1/2-z
1/2-x,1/2-y,-z
1/2+x,y,1/2-z
1/2-x,1/2+y,z
1/2+x,-y,1/2+z
loop_
_atom_site_type_symbol
_atom_site_label
_atom_site_fract_x
_atom_site_fract_y
_atom_site_fract_z
Si Si1 0.056856 0.131175 0.566386
Si Si2 0.853043 0.757466 0.542666
Si Si3 0.718507 0.295082 0.396107
Si Si4 0.184772 0.481939 0.357591
Si Si5 0.633294 0.497988 0.318992
O O1 0.100568 0.226436 0.523264
O O2 0.000000 0.191022 0.574589
O O3 0.054461 0.000000 0.500000
O O4 0.079135 0.069700 0.654318
O O5 0.801013 0.807479 0.494117
O O6 0.849511 0.596666 0.573288
O O7 0.860893 0.861205 0.623078
O O8 0.769734 0.363782 0.357868
O O9 0.674843 0.384145 0.349483
O O10 0.712604 0.128611 0.378464
O O11 0.148981 0.515679 0.277729
#
# Coordination Sequence:
#
# PCOD9479861 Si02
#       5
#    16  16  16  16  16
#     4   8  16  35  63  88 111 148 194 235 284 352
#     4  10  21  38  59  84 115 154 199 243 289 353
#     4  11  23  37  55  80 116 161 197 234 289 354
#     4  12  23  37  56  85 120 155 196 246 297 342
#     4  10  21  37  58  85 116 149 195 247 294 345
#
# _framework density 20.522936000000001
#
# number of rings (size 3 to 8) (size 9 to 14) (size 15 to 20)
#    0.000    1.800    0.000    6.000    0.000    3.200 
#    0.000    1.000    0.000   21.600    0.000    0.000 
#    0.000    0.000    0.000    0.000    0.000    0.000 
#
# Total GULP energy -222915.894062 kJ/mol
# GULP energy per Si atom -5572.897352 kJ/mol
# Density = 2.047622 g / cm^3
# Si number density = 20.522936 Si / 1000 Ang^3
#
#
#
# Elastic Constant Matrix: (Units=GPa)
#
#
# Indices 1 2 3 4 5 6 
#
# 1 129.2649 25.2218 53.3773 0.0000 0.0000 0.0000
# 2 25.2218 113.9787 28.6846 0.0000 0.0000 0.0000
# 3 53.3773 28.6846 82.6921 0.0000 0.0000 0.0000
# 4 0.0000 0.0000 0.0000 -4.3558 0.0000 0.0000
# 5 0.0000 0.0000 0.0000 0.0000 20.0297 0.0000
# 6 0.0000 0.0000 0.0000 0.0000 0.0000 17.5285
#
#
#
# Elastic Compliance Matrix: (Units=1/GPa)
#
#
# Indices 1 2 3 4 5 6 
#
# 1 0.010596 -0.000683 -0.006603 0.000000 0.000000 0.000000
# 2 -0.000683 0.009657 -0.002909 0.000000 0.000000 0.000000
# 3 -0.006603 -0.002909 0.017364 0.000000 0.000000 0.000000
# 4 0.000000 0.000000 0.000000 -0.229581 0.000000 0.000000
# 5 0.000000 0.000000 0.000000 0.000000 0.049926 0.000000
# 6 0.000000 0.000000 0.000000 0.000000 0.000000 0.057050
#
#
# Mechanical properties :
#
#
# Convention : Reuss Voigt Hill
#
# Bulk Modulus (GPa) = 58.04650 60.05589 59.05120
# Shear Modulus (GPa) = -84.95115 21.21728 -31.86694
#
# Velocity S-wave (km/s) = -6.44074 3.21881 -3.94477
# Velocity P-wave (km/s) = 5.19285 6.56816 2.84385
#
# Compressibility (1/GPa) = 0.01722757
#
# Stress axis : x y z
#
# Youngs Moduli (GPa) = 94.37779 103.55412 57.59035
#
# Poissons Ratio (x) = 0.07073 0.38024
# Poissons Ratio (y) = 0.06446 0.16752
# Poissons Ratio (z) = 0.62313 0.30123
#
# Static dielectric constant tensor:
#      x y z
#    x 1.786040 0.000000 0.000000 
#    y 0.000000 1.732030 0.000000 
#    z 0.000000 0.000000 1.879710 
# 
# From -- ./inp_files/35377.got.cif
#   From: 2010.05.17/outbox.cif.g08.bks.cpg/sg64_18_cif.got.tgz:35377.got - 2010.06.03 16:29:19.
