data_PCOD9479140
_publ_section_title
;
Structure prediction by ZEFSAII (Michael W. Deem and Ramdas Pophale) SiO2 
 PCOD9479140
Probable space group: C M C A
;
_chemical_formula_sum "Si O2"
_cell_formula_units_Z 80
_cell_length_a 9.924655
_cell_length_b 16.421718
_cell_length_c 23.503550
_cell_angle_alpha 90.000000
_cell_angle_beta 90.000000
_cell_angle_gamma 90.000000
_cell_volume 3830.605892
_symmetry_space_group_name_H-M "C M C A"
_symmetry_group_IT_number 64
_symmetry_cell_setting 'orthorhombic'
loop_
_space_group_symop_operation_xyz
x,y,z
-x,1/2-y,1/2+z
x,-y,-z
-x,1/2+y,1/2-z
-x,-y,-z
x,1/2+y,1/2-z
-x,y,z
x,1/2-y,1/2+z
1/2+x,1/2+y,z
1/2-x,-y,1/2+z
1/2+x,1/2-y,-z
1/2-x,y,1/2-z
1/2-x,1/2-y,-z
1/2+x,y,1/2-z
1/2-x,1/2+y,z
1/2+x,-y,1/2+z
loop_
_atom_site_type_symbol
_atom_site_label
_atom_site_fract_x
_atom_site_fract_y
_atom_site_fract_z
Si Si1 0.701519 0.885805 0.578624
Si Si2 0.500000 0.153872 0.078579
Si Si3 0.000000 0.530990 0.603103
Si Si4 0.000000 0.103202 0.768716
Si Si5 0.000000 0.676467 0.513267
Si Si6 0.170303 0.847638 0.796667
Si Si7 0.000000 0.704538 0.211272
Si Si8 0.750000 0.511855 0.750000
O O1 0.628919 0.841191 0.526479
O O2 0.677874 0.831168 0.635643
O O3 0.860839 0.894146 0.569852
O O4 0.625600 0.971752 0.588008
O O5 0.500000 0.182597 0.144259
O O6 0.500000 0.234029 0.039539
O O7 0.000000 0.565935 0.667526
O O8 0.000000 0.609227 0.562778
O O9 0.000000 0.199214 0.775989
O O10 0.871470 0.070295 0.734489
O O11 0.336039 0.822502 0.777677
O O12 0.189152 0.946317 0.793465
O O13 0.000000 0.832630 0.785518
#
# Coordination Sequence:
#
# PCOD9479140 Si02
#       8
#    16   8   8   8   8  16   8   8
#     4  11  22  41  70  92 124 171 220 258 314 382
#     4  12  23  40  64 100 124 161 222 271 309 362
#     4  11  21  47  63  93 123 178 213 256 317 387
#     4  12  24  39  61  95 135 162 207 265 326 377
#     4  11  25  43  67  91 130 173 212 268 316 375
#     4  10  20  37  63  90 121 162 215 243 310 384
#     4  12  23  37  62  94 135 167 202 267 325 380
#     4  10  22  38  62  88 126 164 208 258 306 382
#
# _framework density 20.884423999999999
#
# number of rings (size 3 to 8) (size 9 to 14) (size 15 to 20)
#    0.600    0.400    5.000    3.600    1.400    0.800 
#    0.000    2.000    0.000    0.000    0.000    0.000 
#    0.000    0.000    0.000    0.000    0.000    0.000 
#
# Total GULP energy -222705.763769 kJ/mol
# GULP energy per Si atom -5567.644094 kJ/mol
# Density = 2.083689 g / cm^3
# Si number density = 20.884424 Si / 1000 Ang^3
#
#
#
# Elastic Constant Matrix: (Units=GPa)
#
#
# Indices 1 2 3 4 5 6 
#
# 1 167.0263 65.2983 25.7319 0.0000 0.0000 0.0000
# 2 65.2983 114.3111 5.7867 0.0000 0.0000 0.0000
# 3 25.7319 5.7867 93.6180 0.0000 0.0000 0.0000
# 4 0.0000 0.0000 0.0000 -2.2604 0.0000 0.0000
# 5 0.0000 0.0000 0.0000 0.0000 30.7628 0.0000
# 6 0.0000 0.0000 0.0000 0.0000 0.0000 30.6987
#
#
#
# Elastic Compliance Matrix: (Units=1/GPa)
#
#
# Indices 1 2 3 4 5 6 
#
# 1 0.008043 -0.004496 -0.001933 0.000000 0.000000 0.000000
# 2 -0.004496 0.011289 0.000538 0.000000 0.000000 0.000000
# 3 -0.001933 0.000538 0.011180 0.000000 0.000000 0.000000
# 4 0.000000 0.000000 0.000000 -0.442407 0.000000 0.000000
# 5 0.000000 0.000000 0.000000 0.000000 0.032507 0.000000
# 6 0.000000 0.000000 0.000000 0.000000 0.000000 0.032575
#
#
# Mechanical properties :
#
#
# Convention : Reuss Voigt Hill
#
# Bulk Modulus (GPa) = 53.39136 63.17658 58.28397
# Shear Modulus (GPa) = -15.20735 30.38280 7.58772
#
# Velocity S-wave (km/s) = -2.70138 3.81833 1.90816
# Velocity P-wave (km/s) = 3.98631 7.05378 5.72916
#
# Compressibility (1/GPa) = 0.01872962
#
# Stress axis : x y z
#
# Youngs Moduli (GPa) = 124.33654 88.57930 89.44808
#
# Poissons Ratio (x) = 0.39829 0.17288
# Poissons Ratio (y) = 0.55907 -0.04813
# Poissons Ratio (z) = 0.24030 -0.04766
#
# Static dielectric constant tensor:
#      x y z
#    x 1.938570 0.000000 0.000000 
#    y 0.000000 1.673820 0.000000 
#    z 0.000000 0.000000 1.767830 
# 
# From -- ./inp_files/47958.got.cif
#   From: 2010.05.17/outbox.cif.g08.bks.cpg/sg64_24_cif.got.tgz:47958.got - 2010.06.03 16:29:19.
