data_PCOD9479095
_publ_section_title
;
Structure prediction by ZEFSAII (Michael W. Deem and Ramdas Pophale) SiO2 
 PCOD9479095
Probable space group: C M C A
;
_chemical_formula_sum "Si O2"
_cell_formula_units_Z 112
_cell_length_a 15.135975
_cell_length_b 32.561010
_cell_length_c 11.399560
_cell_angle_alpha 90.000000
_cell_angle_beta 90.000000
_cell_angle_gamma 90.000000
_cell_volume 5618.189169
_symmetry_space_group_name_H-M "C M C A"
_symmetry_group_IT_number 64
_symmetry_cell_setting 'orthorhombic'
loop_
_space_group_symop_operation_xyz
x,y,z
-x,1/2-y,1/2+z
x,-y,-z
-x,1/2+y,1/2-z
-x,-y,-z
x,1/2+y,1/2-z
-x,y,z
x,1/2-y,1/2+z
1/2+x,1/2+y,z
1/2-x,-y,1/2+z
1/2+x,1/2-y,-z
1/2-x,y,1/2-z
1/2-x,1/2-y,-z
1/2+x,y,1/2-z
1/2-x,1/2+y,z
1/2+x,-y,1/2+z
loop_
_atom_site_type_symbol
_atom_site_label
_atom_site_fract_x
_atom_site_fract_y
_atom_site_fract_z
Si Si1 0.846076 0.399360 0.785506
Si Si2 0.789009 0.548020 0.991995
Si Si3 0.895735 0.841368 0.116593
Si Si4 0.401825 0.826236 0.934410
Si Si5 0.200338 0.245561 0.875347
Si Si6 0.392516 0.384590 0.359927
Si Si7 0.101036 0.581569 0.467178
O O1 0.750000 0.382025 0.750000
O O2 0.823761 0.431712 0.887133
O O3 0.901218 0.362428 0.839221
O O4 0.890567 0.419577 0.673040
O O5 0.683280 0.555768 0.982546
O O6 0.806940 0.500000 0.000000
O O7 0.841673 0.573796 0.893472
O O8 0.847533 0.798260 0.116892
O O9 0.872653 0.868486 0.230624
O O10 0.000000 0.832986 0.123327
O O11 0.880728 0.871342 0.006522
O O12 0.500000 0.814650 0.971605
O O13 0.359216 0.786219 0.880009
O O14 0.361143 0.848954 0.048759
O O15 0.250000 0.246045 0.750000
O O16 0.250000 0.250000 0.000000
O O17 0.500000 0.389655 0.372748
O O18 0.000000 0.571277 0.504258
#
# Coordination Sequence:
#
# PCOD9479095 Si02
#       7
#    16  16  16  16  16  16  16
#     4   9  19  37  62  87 122 153 205 255 311 371
#     4  10  22  40  67  97 124 163 211 263 323 389
#     4  10  23  43  63  89 125 172 213 259 325 392
#     4  10  20  37  61  87 119 162 205 258 310 364
#     4  12  27  39  61  94 129 166 218 271 322 382
#     4   9  20  41  66  93 129 168 213 266 327 385
#     4  10  22  40  63  89 126 167 206 253 314 384
#
# _framework density 19.935248000000001
#
# number of rings (size 3 to 8) (size 9 to 14) (size 15 to 20)
#    0.000    2.000    0.000    2.143   10.000    1.143 
#    7.714    1.429    0.000    0.000    0.000    0.000 
#    0.000    0.000    0.000    0.000    0.000    0.000 
#
# Total GULP energy -312424.050877 kJ/mol
# GULP energy per Si atom -5579.000909 kJ/mol
# Density = 1.988987 g / cm^3
# Si number density = 19.935248 Si / 1000 Ang^3
#
#
#
# Elastic Constant Matrix: (Units=GPa)
#
#
# Indices 1 2 3 4 5 6 
#
# 1 78.0684 61.9650 31.0679 0.0000 0.0000 0.0000
# 2 61.9650 147.3452 40.2756 0.0000 0.0000 0.0000
# 3 31.0679 40.2756 73.7441 0.0000 0.0000 0.0000
# 4 0.0000 0.0000 0.0000 13.0979 0.0000 0.0000
# 5 0.0000 0.0000 0.0000 0.0000 23.9554 0.0000
# 6 0.0000 0.0000 0.0000 0.0000 0.0000 1.2847
#
#
#
# Elastic Compliance Matrix: (Units=1/GPa)
#
#
# Indices 1 2 3 4 5 6 
#
# 1 0.020481 -0.007352 -0.004613 0.000000 0.000000 0.000000
# 2 -0.007352 0.010617 -0.002701 0.000000 0.000000 0.000000
# 3 -0.004613 -0.002701 0.016979 0.000000 0.000000 0.000000
# 4 0.000000 0.000000 0.000000 0.076348 0.000000 0.000000
# 5 0.000000 0.000000 0.000000 0.000000 0.041744 0.000000
# 6 0.000000 0.000000 0.000000 0.000000 0.000000 0.778401
#
#
# Mechanical properties :
#
#
# Convention : Reuss Voigt Hill
#
# Bulk Modulus (GPa) = 53.34959 62.86385 58.10672
# Shear Modulus (GPa) = 5.10126 18.72420 11.91273
#
# Velocity S-wave (km/s) = 1.60140 3.06804 2.44718
# Velocity P-wave (km/s) = 5.49898 6.64477 6.09885
#
# Compressibility (1/GPa) = 0.01874429
#
# Stress axis : x y z
#
# Youngs Moduli (GPa) = 48.82673 94.18882 58.89609
#
# Poissons Ratio (x) = 0.69248 0.27169
# Poissons Ratio (y) = 0.35898 0.15909
# Poissons Ratio (z) = 0.22524 0.25442
#
# Static dielectric constant tensor:
#      x y z
#    x 1.796290 0.000000 0.000000 
#    y 0.000000 1.667990 0.000000 
#    z 0.000000 0.000000 1.503230 
# 
# From -- ./inp_files/14955.got.cif
#   From: 2010.05.17/outbox.cif.g08.bks.cpg/sg64_8_cif.got.tgz:14955.got - 2010.06.03 16:29:19.
