data_PCOD9479871
_publ_section_title
;
Structure prediction by ZEFSAII (Michael W. Deem and Ramdas Pophale) SiO2 
 PCOD9479871
Probable space group: C M C A
;
_chemical_formula_sum "Si O2"
_cell_formula_units_Z 56
_cell_length_a 25.877809
_cell_length_b 17.905784
_cell_length_c 5.079402
_cell_angle_alpha 90.000000
_cell_angle_beta 90.000000
_cell_angle_gamma 90.000000
_cell_volume 2353.604198
_symmetry_space_group_name_H-M "C M C A"
_symmetry_group_IT_number 64
_symmetry_cell_setting 'orthorhombic'
loop_
_space_group_symop_operation_xyz
x,y,z
-x,1/2-y,1/2+z
x,-y,-z
-x,1/2+y,1/2-z
-x,-y,-z
x,1/2+y,1/2-z
-x,y,z
x,1/2-y,1/2+z
1/2+x,1/2+y,z
1/2-x,-y,1/2+z
1/2+x,1/2-y,-z
1/2-x,y,1/2-z
1/2-x,1/2-y,-z
1/2+x,y,1/2-z
1/2-x,1/2+y,z
1/2+x,-y,1/2+z
loop_
_atom_site_type_symbol
_atom_site_label
_atom_site_fract_x
_atom_site_fract_y
_atom_site_fract_z
Si Si1 0.310111 0.300950 0.273391
Si Si2 0.439236 0.697042 0.326054
Si Si3 0.892784 0.587425 0.548314
Si Si4 0.000000 0.553196 0.751860
O O1 0.318232 0.265881 0.561525
O O2 0.250000 0.323342 0.250000
O O3 0.346949 0.368574 0.190337
O O4 0.500000 0.675323 0.320688
O O5 0.430312 0.756568 0.089779
O O6 0.406080 0.626752 0.229804
O O7 0.882421 0.500000 0.500000
O O8 0.945968 0.595595 0.717899
O O9 0.000000 0.500000 0.500000
O O10 0.000000 0.500000 0.000000
#
# Coordination Sequence:
#
# PCOD9479871 Si02
#       4
#    16  16  16   8
#     4  10  23  46  72  97 130 173 224 280 336 393
#     4  10  21  37  58  86 121 167 217 259 305 375
#     4  11  23  42  65  98 134 176 216 273 330 399
#     4  10  24  40  56  88 136 176 205 256 329 388
#
# _framework density 23.793295000000001
#
# number of rings (size 3 to 8) (size 9 to 14) (size 15 to 20)
#    0.000    1.714    1.429    1.714    0.000    9.143 
#    0.000    5.714    0.000    0.000    0.000    0.000 
#    0.000    0.000    0.000    0.000    0.000    0.000 
#
# Total GULP energy -157081.330172 kJ/mol
# GULP energy per Si atom -5610.047506 kJ/mol
# Density = 2.373914 g / cm^3
# Si number density = 23.793295 Si / 1000 Ang^3
#
#
#
# Elastic Constant Matrix: (Units=GPa)
#
#
# Indices 1 2 3 4 5 6 
#
# 1 179.7836 64.4051 10.5214 0.0000 0.0000 0.0000
# 2 64.4051 178.6992 34.1617 0.0000 0.0000 0.0000
# 3 10.5214 34.1617 135.5854 0.0000 0.0000 0.0000
# 4 0.0000 0.0000 0.0000 36.7903 0.0000 0.0000
# 5 0.0000 0.0000 0.0000 0.0000 36.4223 0.0000
# 6 0.0000 0.0000 0.0000 0.0000 0.0000 48.2946
#
#
#
# Elastic Compliance Matrix: (Units=1/GPa)
#
#
# Indices 1 2 3 4 5 6 
#
# 1 0.006388 -0.002319 0.000089 0.000000 0.000000 0.000000
# 2 -0.002319 0.006721 -0.001513 0.000000 0.000000 0.000000
# 3 0.000089 -0.001513 0.007750 0.000000 0.000000 0.000000
# 4 0.000000 0.000000 0.000000 0.027181 0.000000 0.000000
# 5 0.000000 0.000000 0.000000 0.000000 0.027456 0.000000
# 6 0.000000 0.000000 0.000000 0.000000 0.000000 0.020706
#
#
# Mechanical properties :
#
#
# Convention : Reuss Voigt Hill
#
# Bulk Modulus (GPa) = 74.78950 79.13829 76.96389
# Shear Modulus (GPa) = 46.23334 49.96676 48.10005
#
# Velocity S-wave (km/s) = 4.41287 4.58759 4.50108
# Velocity P-wave (km/s) = 7.58062 7.83545 7.70909
#
# Compressibility (1/GPa) = 0.01337086
#
# Stress axis : x y z
#
# Youngs Moduli (GPa) = 156.54641 148.78305 129.03425
#
# Poissons Ratio (x) = 0.34506 -0.01144
# Poissons Ratio (y) = 0.36306 0.19529
# Poissons Ratio (z) = -0.01388 0.22518
#
# Static dielectric constant tensor:
#      x y z
#    x 1.975910 0.000000 0.000000 
#    y 0.000000 1.858560 0.000000 
#    z 0.000000 0.000000 1.944670 
# 
# From -- ./inp_files/2651.got.cif
#   From: 2010.05.17/outbox.cif.g08.bks.cpg/sg64_2_cif.got.tgz:2651.got - 2010.06.03 16:29:19.
