data_PCOD9479906
_publ_section_title
;
Structure prediction by ZEFSAII (Michael W. Deem and Ramdas Pophale) SiO2 
 PCOD9479906
Probable space group: C M C A
;
_chemical_formula_sum "Si O2"
_cell_formula_units_Z 72
_cell_length_a 9.627826
_cell_length_b 17.050032
_cell_length_c 21.607199
_cell_angle_alpha 90.000000
_cell_angle_beta 90.000000
_cell_angle_gamma 90.000000
_cell_volume 3546.924164
_symmetry_space_group_name_H-M "C M C A"
_symmetry_group_IT_number 64
_symmetry_cell_setting 'orthorhombic'
loop_
_space_group_symop_operation_xyz
x,y,z
-x,1/2-y,1/2+z
x,-y,-z
-x,1/2+y,1/2-z
-x,-y,-z
x,1/2+y,1/2-z
-x,y,z
x,1/2-y,1/2+z
1/2+x,1/2+y,z
1/2-x,-y,1/2+z
1/2+x,1/2-y,-z
1/2-x,y,1/2-z
1/2-x,1/2-y,-z
1/2+x,y,1/2-z
1/2-x,1/2+y,z
1/2+x,-y,1/2+z
loop_
_atom_site_type_symbol
_atom_site_label
_atom_site_fract_x
_atom_site_fract_y
_atom_site_fract_z
Si Si1 0.500000 0.562153 0.352910
Si Si2 0.000000 0.609859 0.005135
Si Si3 0.221687 0.479057 0.316231
Si Si4 0.241532 0.634965 0.919053
Si Si5 0.500000 0.752063 0.624043
Si Si6 0.500000 0.611449 0.219093
Si Si7 0.000000 0.202406 0.993505
O O1 0.500000 0.588175 0.423441
O O2 0.366356 0.510182 0.341292
O O3 0.500000 0.621282 0.293775
O O4 0.000000 0.703941 0.006897
O O5 0.863211 0.588529 0.965418
O O6 0.250000 0.439193 0.250000
O O7 0.179521 0.417984 0.368588
O O8 0.127192 0.554802 0.301749
O O9 0.136941 0.696958 0.884858
O O10 0.360206 0.674220 0.960574
O O11 0.500000 0.805497 0.684842
O O12 0.500000 0.814240 0.566885
#
# Coordination Sequence:
#
# PCOD9479906 Si02
#       7
#     8   8  16  16   8   8   8
#     4  10  22  40  62  83 124 161 203 242 313 364
#     4  10  21  38  61  88 121 161 200 250 301 368
#     4  10  22  41  60  86 123 162 198 252 305 360
#     4  10  21  39  63  88 121 162 201 249 302 361
#     4  10  21  40  61  88 124 154 201 248 306 361
#     4  10  23  41  63  88 127 159 197 262 310 354
#     4  10  21  37  60  88 124 155 187 260 308 348
#
# _framework density 20.299278000000001
#
# number of rings (size 3 to 8) (size 9 to 14) (size 15 to 20)
#    0.000    2.222    0.000    4.667    6.222    1.778 
#    4.000    1.111    0.000    0.000    0.000    0.000 
#    0.000    0.000    0.000    0.000    0.000    0.000 
#
# Total GULP energy -200684.990980 kJ/mol
# GULP energy per Si atom -5574.583083 kJ/mol
# Density = 2.025308 g / cm^3
# Si number density = 20.299278 Si / 1000 Ang^3
#
#
#
# Elastic Constant Matrix: (Units=GPa)
#
#
# Indices 1 2 3 4 5 6 
#
# 1 91.3909 5.5205 12.0656 0.0000 0.0000 0.0000
# 2 5.5205 41.6616 46.8460 0.0000 0.0000 0.0000
# 3 12.0656 46.8460 167.1997 0.0000 0.0000 0.0000
# 4 0.0000 0.0000 0.0000 46.7084 0.0000 0.0000
# 5 0.0000 0.0000 0.0000 0.0000 19.1198 0.0000
# 6 0.0000 0.0000 0.0000 0.0000 0.0000 -2.0132
#
#
#
# Elastic Compliance Matrix: (Units=1/GPa)
#
#
# Indices 1 2 3 4 5 6 
#
# 1 0.011067 -0.000830 -0.000566 0.000000 0.000000 0.000000
# 2 -0.000830 0.035105 -0.009776 0.000000 0.000000 0.000000
# 3 -0.000566 -0.009776 0.008761 0.000000 0.000000 0.000000
# 4 0.000000 0.000000 0.000000 0.021409 0.000000 0.000000
# 5 0.000000 0.000000 0.000000 0.000000 0.052302 0.000000
# 6 0.000000 0.000000 0.000000 0.000000 0.000000 -0.496715
#
#
# Mechanical properties :
#
#
# Convention : Reuss Voigt Hill
#
# Bulk Modulus (GPa) = 30.68512 47.67961 39.18237
# Shear Modulus (GPa) = -14.93144 28.48432 6.77644
#
# Velocity S-wave (km/s) = -2.71507 3.75002 1.82907
# Velocity P-wave (km/s) = 2.30659 6.50304 4.87903
#
# Compressibility (1/GPa) = 0.03258908
#
# Stress axis : x y z
#
# Youngs Moduli (GPa) = 90.35968 28.48569 114.14557
#
# Poissons Ratio (x) = 0.02364 0.06462
# Poissons Ratio (y) = 0.07499 1.11588
# Poissons Ratio (z) = 0.05115 0.27847
#
# Static dielectric constant tensor:
#      x y z
#    x 1.713980 0.000000 0.000000 
#    y 0.000000 1.740990 0.000000 
#    z 0.000000 0.000000 1.796650 
# 
# From -- ./inp_files/42686.got.cif
#   From: 2010.05.17/outbox.cif.g08.bks.cpg/sg64_22_cif.got.tgz:42686.got - 2010.06.03 16:29:19.
