data_PCOD9479020
_publ_section_title
;
Structure prediction by ZEFSAII (Michael W. Deem and Ramdas Pophale) SiO2 
 PCOD9479020
Probable space group: C M C A
;
_chemical_formula_sum "Si O2"
_cell_formula_units_Z 88
_cell_length_a 7.384323
_cell_length_b 20.065004
_cell_length_c 25.150786
_cell_angle_alpha 90.000000
_cell_angle_beta 90.000000
_cell_angle_gamma 90.000000
_cell_volume 3726.503193
_symmetry_space_group_name_H-M "C M C A"
_symmetry_group_IT_number 64
_symmetry_cell_setting 'orthorhombic'
loop_
_space_group_symop_operation_xyz
x,y,z
-x,1/2-y,1/2+z
x,-y,-z
-x,1/2+y,1/2-z
-x,-y,-z
x,1/2+y,1/2-z
-x,y,z
x,1/2-y,1/2+z
1/2+x,1/2+y,z
1/2-x,-y,1/2+z
1/2+x,1/2-y,-z
1/2-x,y,1/2-z
1/2-x,1/2-y,-z
1/2+x,y,1/2-z
1/2-x,1/2+y,z
1/2+x,-y,1/2+z
loop_
_atom_site_type_symbol
_atom_site_label
_atom_site_fract_x
_atom_site_fract_y
_atom_site_fract_z
Si Si1 0.250000 0.142715 0.250000
Si Si2 0.214045 0.884688 0.188136
Si Si3 0.713752 0.691301 0.459048
Si Si4 0.204946 0.452918 0.544028
Si Si5 0.776917 0.535178 0.335792
Si Si6 0.722735 0.740314 0.342822
O O1 0.307593 0.086861 0.205918
O O2 0.193821 0.197547 0.205206
O O3 0.250000 0.872968 0.250000
O O4 0.278439 0.817856 0.159124
O O5 0.000000 0.887619 0.178110
O O6 0.279332 0.958902 0.174919
O O7 0.500000 0.680323 0.456431
O O8 0.750000 0.750000 0.500000
O O9 0.798648 0.622027 0.476917
O O10 0.774174 0.710521 0.399721
O O11 0.292458 0.500000 0.500000
O O12 0.278743 0.449810 0.603739
O O13 0.000000 0.478960 0.551951
O O14 0.000000 0.542035 0.329864
O O15 0.500000 0.736581 0.336426
#
# Coordination Sequence:
#
# PCOD9479020 Si02
#       6
#     8  16  16  16  16  16
#     4  12  18  36  60  88 126 154 204 248 306 362
#     4  10  20  37  56  82 116 155 196 238 295 363
#     4  11  24  43  64  90 123 162 210 261 316 372
#     4  10  22  41  65  91 121 162 207 255 312 373
#     4  10  21  35  58  87 119 158 201 247 301 371
#     4  10  22  37  59  86 121 161 198 252 311 366
#
# _framework density 23.614629999999998
#
# number of rings (size 3 to 8) (size 9 to 14) (size 15 to 20)
#    0.000    1.636    3.636    1.091    2.545    0.364 
#    0.000    2.727    0.000    0.000    0.000    0.000 
#    0.000    0.000    0.000    0.000    0.000    0.000 
#
# Total GULP energy -245362.991832 kJ/mol
# GULP energy per Si atom -5576.431633 kJ/mol
# Density = 2.356088 g / cm^3
# Si number density = 23.614630 Si / 1000 Ang^3
#
#
#
# Elastic Constant Matrix: (Units=GPa)
#
#
# Indices 1 2 3 4 5 6 
#
# 1 100.6850 2.3955 6.0549 0.0000 0.0000 0.0000
# 2 2.3955 179.7722 47.6008 0.0000 0.0000 0.0000
# 3 6.0549 47.6008 155.1077 0.0000 0.0000 0.0000
# 4 0.0000 0.0000 0.0000 55.0160 0.0000 0.0000
# 5 0.0000 0.0000 0.0000 0.0000 -7.9717 0.0000
# 6 0.0000 0.0000 0.0000 0.0000 0.0000 -11.8430
#
#
#
# Elastic Compliance Matrix: (Units=1/GPa)
#
#
# Indices 1 2 3 4 5 6 
#
# 1 0.009956 -0.000032 -0.000379 0.000000 0.000000 0.000000
# 2 -0.000032 0.006055 -0.001857 0.000000 0.000000 0.000000
# 3 -0.000379 -0.001857 0.007032 0.000000 0.000000 0.000000
# 4 0.000000 0.000000 0.000000 0.018177 0.000000 0.000000
# 5 0.000000 0.000000 0.000000 0.000000 -0.125443 0.000000
# 6 0.000000 0.000000 0.000000 0.000000 0.000000 -0.084438
#
#
# Mechanical properties :
#
#
# Convention : Reuss Voigt Hill
#
# Bulk Modulus (GPa) = 54.03621 60.85191 57.44406
# Shear Modulus (GPa) = -31.65386 32.34117 0.34366
#
# Velocity S-wave (km/s) = -3.66517 3.70474 0.38189
# Velocity P-wave (km/s) = 2.24074 6.64265 4.95710
#
# Compressibility (1/GPa) = 0.01850611
#
# Stress axis : x y z
#
# Youngs Moduli (GPa) = 100.44686 165.16116 142.21186
#
# Poissons Ratio (x) = 0.00535 0.05385
# Poissons Ratio (y) = 0.00325 0.26407
# Poissons Ratio (z) = 0.03804 0.30668
#
# Static dielectric constant tensor:
#      x y z
#    x 1.981190 0.000000 0.000000 
#    y 0.000000 1.878120 0.000000 
#    z 0.000000 0.000000 1.834360 
# 
# From -- ./inp_files/38120.got.cif
#   From: 2010.05.17/outbox.cif.g08.bks.cpg/sg64_20_cif.got.tgz:38120.got - 2010.06.03 16:29:19.
