data_PCOD9479079
_publ_section_title
;
Structure prediction by ZEFSAII (Michael W. Deem and Ramdas Pophale) SiO2 
 PCOD9479079
Probable space group: C M C A
;
_chemical_formula_sum "Si O2"
_cell_formula_units_Z 64
_cell_length_a 8.722924
_cell_length_b 20.738050
_cell_length_c 17.906066
_cell_angle_alpha 90.000000
_cell_angle_beta 90.000000
_cell_angle_gamma 90.000000
_cell_volume 3239.143487
_symmetry_space_group_name_H-M "C M C A"
_symmetry_group_IT_number 64
_symmetry_cell_setting 'orthorhombic'
loop_
_space_group_symop_operation_xyz
x,y,z
-x,1/2-y,1/2+z
x,-y,-z
-x,1/2+y,1/2-z
-x,-y,-z
x,1/2+y,1/2-z
-x,y,z
x,1/2-y,1/2+z
1/2+x,1/2+y,z
1/2-x,-y,1/2+z
1/2+x,1/2-y,-z
1/2-x,y,1/2-z
1/2-x,1/2-y,-z
1/2+x,y,1/2-z
1/2-x,1/2+y,z
1/2+x,-y,1/2+z
loop_
_atom_site_type_symbol
_atom_site_label
_atom_site_fract_x
_atom_site_fract_y
_atom_site_fract_z
Si Si1 0.318669 0.145922 0.557600
Si Si2 0.315588 0.126524 0.107729
Si Si3 0.323289 0.515438 0.589073
Si Si4 0.682475 0.247155 0.828342
O O1 0.500000 0.153248 0.548305
O O2 0.239584 0.141753 0.476588
O O3 0.250214 0.204189 0.605047
O O4 0.279027 0.078415 0.598808
O O5 0.500000 0.131139 0.110708
O O6 0.273544 0.052174 0.125304
O O7 0.238433 0.179752 0.159148
O O8 0.322769 0.500000 0.500000
O O9 0.500000 0.529806 0.609507
O O10 0.500000 0.243809 0.828413
O O11 0.750000 0.223334 0.750000
#
# Coordination Sequence:
#
# PCOD9479079 Si02
#       4
#    16  16  16  16
#     4  11  21  35  58  87 116 147 186 229 275 327
#     4  10  20  37  60  86 115 147 185 228 276 328
#     4   8  16  32  55  83 114 145 180 226 275 324
#     4  12  25  41  58  79 111 148 188 232 280 332
#
# _framework density 19.758310000000002
#
# number of rings (size 3 to 8) (size 9 to 14) (size 15 to 20)
#    0.000    1.750    0.000    7.500    0.000    5.500 
#    0.000    1.250    0.000    6.000    0.000    0.000 
#    0.000    0.000    0.000    0.000    0.000    0.000 
#
# Total GULP energy -178773.701496 kJ/mol
# GULP energy per Si atom -5586.678172 kJ/mol
# Density = 1.971334 g / cm^3
# Si number density = 19.758310 Si / 1000 Ang^3
#
#
#
# Elastic Constant Matrix: (Units=GPa)
#
#
# Indices 1 2 3 4 5 6 
#
# 1 63.5118 10.6903 -13.2732 0.0000 0.0000 0.0000
# 2 10.6903 67.0556 -4.5538 0.0000 0.0000 0.0000
# 3 -13.2732 -4.5538 21.7108 0.0000 0.0000 0.0000
# 4 0.0000 0.0000 0.0000 4.0283 0.0000 0.0000
# 5 0.0000 0.0000 0.0000 0.0000 25.0901 0.0000
# 6 0.0000 0.0000 0.0000 0.0000 0.0000 35.9212
#
#
#
# Elastic Compliance Matrix: (Units=1/GPa)
#
#
# Indices 1 2 3 4 5 6 
#
# 1 0.018365 -0.002197 0.010767 0.000000 0.000000 0.000000
# 2 -0.002197 0.015391 0.001885 0.000000 0.000000 0.000000
# 3 0.010767 0.001885 0.053038 0.000000 0.000000 0.000000
# 4 0.000000 0.000000 0.000000 0.248245 0.000000 0.000000
# 5 0.000000 0.000000 0.000000 0.000000 0.039856 0.000000
# 6 0.000000 0.000000 0.000000 0.000000 0.000000 0.027839
#
#
# Mechanical properties :
#
#
# Convention : Reuss Voigt Hill
#
# Bulk Modulus (GPa) = 9.28460 15.33387 12.30924
# Shear Modulus (GPa) = 11.96962 23.63558 17.80260
#
# Velocity S-wave (km/s) = 2.46397 3.46241 3.00495
# Velocity P-wave (km/s) = 3.57829 4.87463 4.27587
#
# Compressibility (1/GPa) = 0.10770525
#
# Stress axis : x y z
#
# Youngs Moduli (GPa) = 54.45147 64.97205 18.85447
#
# Poissons Ratio (x) = 0.14272 -0.20300
# Poissons Ratio (y) = 0.11961 -0.03555
# Poissons Ratio (z) = -0.58627 -0.12249
#
# Static dielectric constant tensor:
#      x y z
#    x 1.652620 0.000000 0.000000 
#    y 0.000000 1.728770 0.000000 
#    z 0.000000 0.000000 2.036700 
# 
# From -- ./inp_files/29245.got.cif
#   From: 2010.05.17/outbox.cif.g08.bks.cpg/sg64_15_cif.got.tgz:29245.got - 2010.06.03 16:29:19.
