data_PCOD9479664
_publ_section_title
;
Structure prediction by ZEFSAII (Michael W. Deem and Ramdas Pophale) SiO2 
 PCOD9479664
Probable space group: C M C A
;
_chemical_formula_sum "Si O2"
_cell_formula_units_Z 88
_cell_length_a 14.765955
_cell_length_b 18.409963
_cell_length_c 13.076896
_cell_angle_alpha 90.000000
_cell_angle_beta 90.000000
_cell_angle_gamma 90.000000
_cell_volume 3554.832369
_symmetry_space_group_name_H-M "C M C A"
_symmetry_group_IT_number 64
_symmetry_cell_setting 'orthorhombic'
loop_
_space_group_symop_operation_xyz
x,y,z
-x,1/2-y,1/2+z
x,-y,-z
-x,1/2+y,1/2-z
-x,-y,-z
x,1/2+y,1/2-z
-x,y,z
x,1/2-y,1/2+z
1/2+x,1/2+y,z
1/2-x,-y,1/2+z
1/2+x,1/2-y,-z
1/2-x,y,1/2-z
1/2-x,1/2-y,-z
1/2+x,y,1/2-z
1/2-x,1/2+y,z
1/2+x,-y,1/2+z
loop_
_atom_site_type_symbol
_atom_site_label
_atom_site_fract_x
_atom_site_fract_y
_atom_site_fract_z
Si Si1 0.344776 0.208438 0.696244
Si Si2 0.899063 0.021770 0.117574
Si Si3 0.606347 0.129560 0.124763
Si Si4 0.108825 0.670318 0.478448
Si Si5 0.750000 0.533799 0.250000
Si Si6 0.605803 0.827134 0.091131
O O1 0.250000 0.224254 0.750000
O O2 0.388262 0.286595 0.665302
O O3 0.344586 0.165773 0.588948
O O4 0.389028 0.161508 0.787806
O O5 0.878521 0.107683 0.104560
O O6 0.815144 0.988530 0.176445
O O7 0.000000 0.009532 0.160237
O O8 0.901876 0.000000 0.000000
O O9 0.500000 0.107236 0.134336
O O10 0.676685 0.080662 0.186763
O O11 0.639117 0.126331 0.005471
O O12 0.140270 0.745531 0.429536
O O13 0.000000 0.670910 0.498781
O O14 0.500000 0.824017 0.067414
#
# Coordination Sequence:
#
# PCOD9479664 Si02
#       6
#    16  16  16  16   8  16
#     4  11  20  29  50  84 119 158 193 230 280 344
#     4  10  23  44  66  87 114 151 197 250 303 352
#     4  10  21  35  53  83 120 156 192 231 281 346
#     4   9  19  35  56  78 110 155 196 234 286 346
#     4  12  22  38  66  90 112 146 196 242 286 348
#     4   9  18  32  50  76 118 157 187 226 278 341
#
# _framework density 24.755034999999999
#
# number of rings (size 3 to 8) (size 9 to 14) (size 15 to 20)
#    0.000    2.000    0.909    4.364    2.545    2.909 
#    1.636    0.000    0.000    2.182    0.000    0.000 
#    0.000    0.000    0.000    0.000    0.000    0.000 
#
# Total GULP energy -245638.657758 kJ/mol
# GULP energy per Si atom -5582.696767 kJ/mol
# Density = 2.469869 g / cm^3
# Si number density = 24.755035 Si / 1000 Ang^3
#
#
#
# Elastic Constant Matrix: (Units=GPa)
#
#
# Indices 1 2 3 4 5 6 
#
# 1 132.7046 8.9089 55.9473 0.0000 0.0000 0.0000
# 2 8.9089 29.5363 1.1509 0.0000 0.0000 0.0000
# 3 55.9473 1.1509 150.2039 0.0000 0.0000 0.0000
# 4 0.0000 0.0000 0.0000 19.2579 0.0000 0.0000
# 5 0.0000 0.0000 0.0000 0.0000 55.1888 0.0000
# 6 0.0000 0.0000 0.0000 0.0000 0.0000 1.1573
#
#
#
# Elastic Compliance Matrix: (Units=1/GPa)
#
#
# Indices 1 2 3 4 5 6 
#
# 1 0.009138 -0.002624 -0.003384 0.000000 0.000000 0.000000
# 2 -0.002624 0.034620 0.000712 0.000000 0.000000 0.000000
# 3 -0.003384 0.000712 0.007912 0.000000 0.000000 0.000000
# 4 0.000000 0.000000 0.000000 0.051927 0.000000 0.000000
# 5 0.000000 0.000000 0.000000 0.000000 0.018120 0.000000
# 6 0.000000 0.000000 0.000000 0.000000 0.000000 0.864106
#
#
# Mechanical properties :
#
#
# Convention : Reuss Voigt Hill
#
# Bulk Modulus (GPa) = 24.34305 49.38431 36.86368
# Shear Modulus (GPa) = 4.94997 31.54997 18.24997
#
# Velocity S-wave (km/s) = 1.41560 3.57387 2.71813
# Velocity P-wave (km/s) = 3.53932 6.08462 4.97742
#
# Compressibility (1/GPa) = 0.04107948
#
# Stress axis : x y z
#
# Youngs Moduli (GPa) = 109.43007 28.88467 126.38237
#
# Poissons Ratio (x) = 0.07581 0.42764
# Poissons Ratio (y) = 0.28720 -0.09002
# Poissons Ratio (z) = 0.37028 -0.02057
#
# Static dielectric constant tensor:
#      x y z
#    x 1.984080 0.000000 0.000000 
#    y 0.000000 2.022690 0.000000 
#    z 0.000000 0.000000 2.079430 
# 
# From -- ./inp_files/14582.got.cif
#   From: 2010.05.17/outbox.cif.g08.bks.cpg/sg64_8_cif.got.tgz:14582.got - 2010.06.03 16:29:19.
