data_PCOD9479116
_publ_section_title
;
Structure prediction by ZEFSAII (Michael W. Deem and Ramdas Pophale) SiO2 
 PCOD9479116
Probable space group: C M C A
;
_chemical_formula_sum "Si O2"
_cell_formula_units_Z 80
_cell_length_a 13.369221
_cell_length_b 18.553144
_cell_length_c 14.291959
_cell_angle_alpha 90.000000
_cell_angle_beta 90.000000
_cell_angle_gamma 90.000000
_cell_volume 3544.992980
_symmetry_space_group_name_H-M "C M C A"
_symmetry_group_IT_number 64
_symmetry_cell_setting 'orthorhombic'
loop_
_space_group_symop_operation_xyz
x,y,z
-x,1/2-y,1/2+z
x,-y,-z
-x,1/2+y,1/2-z
-x,-y,-z
x,1/2+y,1/2-z
-x,y,z
x,1/2-y,1/2+z
1/2+x,1/2+y,z
1/2-x,-y,1/2+z
1/2+x,1/2-y,-z
1/2-x,y,1/2-z
1/2-x,1/2-y,-z
1/2+x,y,1/2-z
1/2-x,1/2+y,z
1/2+x,-y,1/2+z
loop_
_atom_site_type_symbol
_atom_site_label
_atom_site_fract_x
_atom_site_fract_y
_atom_site_fract_z
Si Si1 0.180707 0.679465 0.954026
Si Si2 0.793154 0.981439 0.893584
Si Si3 0.111215 0.874813 0.137014
Si Si4 0.390998 0.935069 0.169679
Si Si5 0.720466 0.681931 0.141753
O O1 0.293683 0.658946 0.915531
O O2 0.114938 0.612638 0.923330
O O3 0.153742 0.753252 0.900570
O O4 0.188470 0.685043 0.065758
O O5 0.819789 0.899263 0.872786
O O6 0.880860 0.038812 0.877712
O O7 0.696026 0.006436 0.834937
O O8 0.764328 0.000000 0.000000
O O9 0.126127 0.875265 0.248913
O O10 0.000000 0.848521 0.112307
O O11 0.500000 0.967181 0.182300
O O12 0.750000 0.692981 0.250000
#
# Coordination Sequence:
#
# PCOD9479116 Si02
#       5
#    16  16  16  16  16
#     4  10  21  40  60  86 117 155 195 241 293 346
#     4  11  20  38  59  85 120 155 194 239 294 347
#     4  10  20  37  62  88 116 155 198 237 286 349
#     4  10  20  37  62  88 116 155 198 237 286 349
#     4  11  21  37  62  86 118 157 195 243 296 346
#
# _framework density 22.567041
#
# number of rings (size 3 to 8) (size 9 to 14) (size 15 to 20)
#    0.000    1.600    4.000    4.800    0.000    0.800 
#    0.000    6.000    0.000   10.800    0.000    0.000 
#    0.000    0.000    0.000    0.000    0.000    0.000 
#
# Total GULP energy -222911.969532 kJ/mol
# GULP energy per Si atom -5572.799238 kJ/mol
# Density = 2.251568 g / cm^3
# Si number density = 22.567041 Si / 1000 Ang^3
#
#
#
# Elastic Constant Matrix: (Units=GPa)
#
#
# Indices 1 2 3 4 5 6 
#
# 1 102.6093 -8.2699 4.7808 0.0000 0.0000 0.0000
# 2 -8.2699 110.7519 0.6689 0.0000 0.0000 0.0000
# 3 4.7808 0.6689 135.4189 0.0000 0.0000 0.0000
# 4 0.0000 0.0000 0.0000 34.2551 0.0000 0.0000
# 5 0.0000 0.0000 0.0000 0.0000 12.8020 0.0000
# 6 0.0000 0.0000 0.0000 0.0000 0.0000 2.3869
#
#
#
# Elastic Compliance Matrix: (Units=1/GPa)
#
#
# Indices 1 2 3 4 5 6 
#
# 1 0.009821 0.000735 -0.000350 0.000000 0.000000 0.000000
# 2 0.000735 0.009085 -0.000071 0.000000 0.000000 0.000000
# 3 -0.000350 -0.000071 0.007397 0.000000 0.000000 0.000000
# 4 0.000000 0.000000 0.000000 0.029193 0.000000 0.000000
# 5 0.000000 0.000000 0.000000 0.000000 0.078113 0.000000
# 6 0.000000 0.000000 0.000000 0.000000 0.000000 0.418962
#
#
# Mechanical properties :
#
#
# Convention : Reuss Voigt Hill
#
# Bulk Modulus (GPa) = 37.13108 38.12662 37.62885
# Shear Modulus (GPa) = 8.91394 33.32880 21.12137
#
# Velocity S-wave (km/s) = 1.98961 3.84719 3.06263
# Velocity P-wave (km/s) = 4.66556 6.05524 5.40525
#
# Compressibility (1/GPa) = 0.02693162
#
# Stress axis : x y z
#
# Youngs Moduli (GPa) = 101.81945 110.07715 135.18606
#
# Poissons Ratio (x) = -0.08096 0.04736
# Poissons Ratio (y) = -0.07489 0.00958
# Poissons Ratio (z) = 0.03567 0.00780
#
# Static dielectric constant tensor:
#      x y z
#    x 1.799150 0.000000 0.000000 
#    y 0.000000 1.889710 0.000000 
#    z 0.000000 0.000000 2.038690 
# 
# From -- ./inp_files/23657.got.cif
#   From: 2010.05.17/outbox.cif.g08.bks.cpg/sg64_12_cif.got.tgz:23657.got - 2010.06.03 16:29:19.
