data_PCOD9479989
_publ_section_title
;
Structure prediction by ZEFSAII (Michael W. Deem and Ramdas Pophale) SiO2 
 PCOD9479989
Probable space group: C M C A
;
_chemical_formula_sum "Si O2"
_cell_formula_units_Z 96
_cell_length_a 17.860605
_cell_length_b 11.982498
_cell_length_c 23.006052
_cell_angle_alpha 90.000000
_cell_angle_beta 90.000000
_cell_angle_gamma 90.000000
_cell_volume 4923.632482
_symmetry_space_group_name_H-M "C M C A"
_symmetry_group_IT_number 64
_symmetry_cell_setting 'orthorhombic'
loop_
_space_group_symop_operation_xyz
x,y,z
-x,1/2-y,1/2+z
x,-y,-z
-x,1/2+y,1/2-z
-x,-y,-z
x,1/2+y,1/2-z
-x,y,z
x,1/2-y,1/2+z
1/2+x,1/2+y,z
1/2-x,-y,1/2+z
1/2+x,1/2-y,-z
1/2-x,y,1/2-z
1/2-x,1/2-y,-z
1/2+x,y,1/2-z
1/2-x,1/2+y,z
1/2+x,-y,1/2+z
loop_
_atom_site_type_symbol
_atom_site_label
_atom_site_fract_x
_atom_site_fract_y
_atom_site_fract_z
Si Si1 0.672568 0.204753 0.651701
Si Si2 0.917107 0.074100 0.336979
Si Si3 0.410824 0.136824 0.767849
Si Si4 0.859343 0.947386 0.439418
Si Si5 0.183378 0.997839 0.069132
Si Si6 0.843119 0.734982 0.373906
O O1 0.632157 0.322459 0.644815
O O2 0.641001 0.163940 0.713303
O O3 0.760601 0.230581 0.648877
O O4 0.655374 0.112979 0.602286
O O5 0.000000 0.112952 0.321479
O O6 0.889524 0.989291 0.287553
O O7 0.915728 0.993457 0.392001
O O8 0.500000 0.137479 0.755139
O O9 0.395415 0.224476 0.820574
O O10 0.857505 0.814693 0.429882
O O11 0.880750 0.000000 0.500000
O O12 0.774337 0.990401 0.427224
O O13 0.156552 0.107994 0.103859
O O14 0.165022 0.000000 0.000000
#
# Coordination Sequence:
#
# PCOD9479989 Si02
#       6
#    16  16  16  16  16  16
#     4  11  22  38  63  90 122 158 203 251 305 366
#     4  10  21  38  58  86 121 158 204 247 299 365
#     4  10  23  42  62  87 119 159 202 251 308 363
#     4   9  19  34  60  87 117 156 200 248 301 355
#     4  10  22  37  62  93 124 160 199 253 311 359
#     4  10  21  39  61  93 123 155 201 256 301 360
#
# _framework density 19.497800999999999
#
# number of rings (size 3 to 8) (size 9 to 14) (size 15 to 20)
#    0.000    2.000    1.667    1.000    4.667    2.333 
#    0.000    0.833    0.000    2.500    0.000    0.000 
#    0.000    0.000    0.000    0.000    0.000    0.000 
#
# Total GULP energy -267518.660132 kJ/mol
# GULP energy per Si atom -5573.305419 kJ/mol
# Density = 1.945342 g / cm^3
# Si number density = 19.497801 Si / 1000 Ang^3
#
#
#
# Elastic Constant Matrix: (Units=GPa)
#
#
# Indices 1 2 3 4 5 6 
#
# 1 36.7486 30.3353 18.6190 0.0000 0.0000 0.0000
# 2 30.3353 123.0821 38.6106 0.0000 0.0000 0.0000
# 3 18.6190 38.6106 83.7661 0.0000 0.0000 0.0000
# 4 0.0000 0.0000 0.0000 20.3736 0.0000 0.0000
# 5 0.0000 0.0000 0.0000 0.0000 -59.0151 0.0000
# 6 0.0000 0.0000 0.0000 0.0000 0.0000 2.3147
#
#
#
# Elastic Compliance Matrix: (Units=1/GPa)
#
#
# Indices 1 2 3 4 5 6 
#
# 1 0.035567 -0.007349 -0.004518 0.000000 0.000000 0.000000
# 2 -0.007349 0.011016 -0.003444 0.000000 0.000000 0.000000
# 3 -0.004518 -0.003444 0.014530 0.000000 0.000000 0.000000
# 4 0.000000 0.000000 0.000000 0.049083 0.000000 0.000000
# 5 0.000000 0.000000 0.000000 0.000000 -0.016945 0.000000
# 6 0.000000 0.000000 0.000000 0.000000 0.000000 0.432024
#
#
# Mechanical properties :
#
#
# Convention : Reuss Voigt Hill
#
# Bulk Modulus (GPa) = 32.79688 46.52520 39.66104
# Shear Modulus (GPa) = 8.83295 3.13676 5.98486
#
# Velocity S-wave (km/s) = 2.13074 1.26975 1.75390
# Velocity P-wave (km/s) = 4.78652 5.10522 4.94843
#
# Compressibility (1/GPa) = 0.03049071
#
# Stress axis : x y z
#
# Youngs Moduli (GPa) = 28.11563 90.77427 68.82325
#
# Poissons Ratio (x) = 0.66707 0.31097
# Poissons Ratio (y) = 0.20661 0.23705
# Poissons Ratio (z) = 0.12704 0.31266
#
# Static dielectric constant tensor:
#      x y z
#    x 1.676660 0.000000 0.000000 
#    y 0.000000 1.733600 0.000000 
#    z 0.000000 0.000000 1.713050 
# 
# From -- ./inp_files/40853.got.cif
#   From: 2010.05.17/outbox.cif.g08.bks.cpg/sg64_21_cif.got.tgz:40853.got - 2010.06.03 16:29:19.
