data_PCOD9479593
_publ_section_title
;
Structure prediction by ZEFSAII (Michael W. Deem and Ramdas Pophale) SiO2 
 PCOD9479593
Probable space group: C M C A
;
_chemical_formula_sum "Si O2"
_cell_formula_units_Z 76
_cell_length_a 15.078045
_cell_length_b 9.451148
_cell_length_c 21.535742
_cell_angle_alpha 90.000000
_cell_angle_beta 90.000000
_cell_angle_gamma 90.000000
_cell_volume 3068.947357
_symmetry_space_group_name_H-M "C M C A"
_symmetry_group_IT_number 64
_symmetry_cell_setting 'orthorhombic'
loop_
_space_group_symop_operation_xyz
x,y,z
-x,1/2-y,1/2+z
x,-y,-z
-x,1/2+y,1/2-z
-x,-y,-z
x,1/2+y,1/2-z
-x,y,z
x,1/2-y,1/2+z
1/2+x,1/2+y,z
1/2-x,-y,1/2+z
1/2+x,1/2-y,-z
1/2-x,y,1/2-z
1/2-x,1/2-y,-z
1/2+x,y,1/2-z
1/2-x,1/2+y,z
1/2+x,-y,1/2+z
loop_
_atom_site_type_symbol
_atom_site_label
_atom_site_fract_x
_atom_site_fract_y
_atom_site_fract_z
Si Si1 0.331745 0.907009 0.577123
Si Si2 0.673812 0.000000 0.000000
Si Si3 0.500000 0.000000 0.500000
Si Si4 0.396842 0.631785 0.621280
Si Si5 0.402368 0.392068 0.169092
Si Si6 0.349287 0.408003 0.724882
O O1 0.242602 0.900467 0.537601
O O2 0.420258 0.908806 0.535237
O O3 0.342261 0.776890 0.624016
O O4 0.336771 0.053900 0.615622
O O5 0.615757 0.922186 0.051068
O O6 0.500000 0.654676 0.636412
O O7 0.359167 0.512849 0.666712
O O8 0.500000 0.379197 0.139077
O O9 0.403402 0.514362 0.220782
O O10 0.379639 0.246378 0.202973
O O11 0.250000 0.402074 0.750000
#
# Coordination Sequence:
#
# PCOD9479593 Si02
#       6
#    16   8   4  16  16  16
#     4  11  24  46  76 107 150 198 252 303 376 443
#     4  11  27  43  71 110 152 194 253 311 373 445
#     4  10  20  44  70 110 142 200 234 304 360 438
#     4  12  25  49  74 110 147 200 249 314 371 446
#     4  12  24  46  73 107 140 191 241 304 366 445
#     4  12  28  47  72 105 147 189 243 305 375 441
#
# _framework density 24.764192000000001
#
# number of rings (size 3 to 8) (size 9 to 14) (size 15 to 20)
#    0.000    0.421    2.105    6.000    0.000    8.421 
#    3.789    1.053    0.000    0.000    0.000    0.000 
#    0.000    0.000    0.000    0.000    0.000    0.000 
#
# Total GULP energy -212554.575064 kJ/mol
# GULP energy per Si atom -5593.541449 kJ/mol
# Density = 2.470783 g / cm^3
# Si number density = 24.764192 Si / 1000 Ang^3
#
#
#
# Elastic Constant Matrix: (Units=GPa)
#
#
# Indices 1 2 3 4 5 6 
#
# 1 76.5705 -2.7897 -9.0589 0.0000 0.0000 0.0000
# 2 -2.7897 137.5505 31.5694 0.0000 0.0000 0.0000
# 3 -9.0589 31.5694 78.7750 0.0000 0.0000 0.0000
# 4 0.0000 0.0000 0.0000 43.6020 0.0000 0.0000
# 5 0.0000 0.0000 0.0000 0.0000 34.7656 0.0000
# 6 0.0000 0.0000 0.0000 0.0000 0.0000 2.1766
#
#
#
# Elastic Compliance Matrix: (Units=1/GPa)
#
#
# Indices 1 2 3 4 5 6 
#
# 1 0.013241 -0.000089 0.001558 0.000000 0.000000 0.000000
# 2 -0.000089 0.008007 -0.003219 0.000000 0.000000 0.000000
# 3 0.001558 -0.003219 0.014164 0.000000 0.000000 0.000000
# 4 0.000000 0.000000 0.000000 0.022935 0.000000 0.000000
# 5 0.000000 0.000000 0.000000 0.000000 0.028764 0.000000
# 6 0.000000 0.000000 0.000000 0.000000 0.000000 0.459424
#
#
# Mechanical properties :
#
#
# Convention : Reuss Voigt Hill
#
# Bulk Modulus (GPa) = 31.33616 36.92639 34.13128
# Shear Modulus (GPa) = 8.91787 34.32053 21.61920
#
# Velocity S-wave (km/s) = 1.89972 3.72680 2.95787
# Velocity P-wave (km/s) = 4.18249 5.78466 5.04755
#
# Compressibility (1/GPa) = 0.03191202
#
# Stress axis : x y z
#
# Youngs Moduli (GPa) = 75.52313 124.88958 70.60326
#
# Poissons Ratio (x) = 0.01113 -0.11003
# Poissons Ratio (y) = 0.00673 0.22728
# Poissons Ratio (z) = -0.11769 0.40203
#
# Static dielectric constant tensor:
#      x y z
#    x 1.909990 0.000000 0.000000 
#    y 0.000000 1.987080 0.000000 
#    z 0.000000 0.000000 2.030630 
# 
# From -- ./inp_files/39015.got.cif
#   From: 2010.05.17/outbox.cif.g08.bks.cpg/sg64_20_cif.got.tgz:39015.got - 2010.06.03 16:29:19.
