data_PCOD9479113
_publ_section_title
;
Structure prediction by ZEFSAII (Michael W. Deem and Ramdas Pophale) SiO2 
 PCOD9479113
Probable space group: C M C A
;
_chemical_formula_sum "Si O2"
_cell_formula_units_Z 112
_cell_length_a 14.726286
_cell_length_b 11.360824
_cell_length_c 29.729833
_cell_angle_alpha 90.000000
_cell_angle_beta 90.000000
_cell_angle_gamma 90.000000
_cell_volume 4973.882622
_symmetry_space_group_name_H-M "C M C A"
_symmetry_group_IT_number 64
_symmetry_cell_setting 'orthorhombic'
loop_
_space_group_symop_operation_xyz
x,y,z
-x,1/2-y,1/2+z
x,-y,-z
-x,1/2+y,1/2-z
-x,-y,-z
x,1/2+y,1/2-z
-x,y,z
x,1/2-y,1/2+z
1/2+x,1/2+y,z
1/2-x,-y,1/2+z
1/2+x,1/2-y,-z
1/2-x,y,1/2-z
1/2-x,1/2-y,-z
1/2+x,y,1/2-z
1/2-x,1/2+y,z
1/2+x,-y,1/2+z
loop_
_atom_site_type_symbol
_atom_site_label
_atom_site_fract_x
_atom_site_fract_y
_atom_site_fract_z
Si Si1 0.389928 0.564566 0.644008
Si Si2 0.109827 0.670434 0.195598
Si Si3 0.893191 0.309079 0.390989
Si Si4 0.738384 0.808055 0.552912
Si Si5 0.392810 0.579617 0.120542
Si Si6 0.109731 0.213301 0.204049
Si Si7 0.826977 0.053067 0.540107
O O1 0.500000 0.566380 0.642500
O O2 0.359158 0.448818 0.671229
O O3 0.359510 0.675270 0.674352
O O4 0.358426 0.558169 0.592095
O O5 0.129159 0.771927 0.159804
O O6 0.143985 0.697640 0.245424
O O7 0.000000 0.660216 0.198879
O O8 0.831946 0.235932 0.424847
O O9 0.875324 0.447080 0.394707
O O10 0.000000 0.286183 0.398538
O O11 0.663223 0.828875 0.591567
O O12 0.701012 0.688587 0.528556
O O13 0.754017 0.944707 0.539016
O O14 0.500000 0.602787 0.114623
O O15 0.371786 0.600289 0.172934
O O16 0.000000 0.225739 0.207422
O O17 0.890153 0.000000 0.500000
#
# Coordination Sequence:
#
# PCOD9479113 Si02
#       7
#    16  16  16  16  16  16  16
#     4  10  20  37  61  92 128 167 218 276 329 390
#     4   9  18  32  56  90 127 168 214 264 324 397
#     4  10  21  38  64  94 130 177 220 264 332 404
#     4  12  23  44  69  96 130 170 219 286 343 402
#     4  10  21  38  64  94 130 177 220 264 332 404
#     4   9  18  32  56  90 127 168 214 264 324 397
#     4  12  26  43  66  93 127 176 226 276 345 408
#
# _framework density 22.517620999999998
#
# number of rings (size 3 to 8) (size 9 to 14) (size 15 to 20)
#    0.000    1.714    4.286    0.429    2.000    0.286 
#    0.000    0.714    0.000    6.857    0.000    0.000 
#    0.000    0.000    0.000    0.000    0.000    0.000 
#
# Total GULP energy -312288.334511 kJ/mol
# GULP energy per Si atom -5576.577402 kJ/mol
# Density = 2.246637 g / cm^3
# Si number density = 22.517621 Si / 1000 Ang^3
#
#
#
# Elastic Constant Matrix: (Units=GPa)
#
#
# Indices 1 2 3 4 5 6 
#
# 1 58.9158 54.7911 26.6472 0.0000 0.0000 0.0000
# 2 54.7911 131.5146 72.5165 0.0000 0.0000 0.0000
# 3 26.6472 72.5165 87.0588 0.0000 0.0000 0.0000
# 4 0.0000 0.0000 0.0000 31.7036 0.0000 0.0000
# 5 0.0000 0.0000 0.0000 0.0000 -25.4740 0.0000
# 6 0.0000 0.0000 0.0000 0.0000 0.0000 25.8458
#
#
#
# Elastic Compliance Matrix: (Units=1/GPa)
#
#
# Indices 1 2 3 4 5 6 
#
# 1 0.027918 -0.012797 0.002114 0.000000 0.000000 0.000000
# 2 -0.012797 0.019928 -0.012682 0.000000 0.000000 0.000000
# 3 0.002114 -0.012682 0.021403 0.000000 0.000000 0.000000
# 4 0.000000 0.000000 0.000000 0.031542 0.000000 0.000000
# 5 0.000000 0.000000 0.000000 0.000000 -0.039256 0.000000
# 6 0.000000 0.000000 0.000000 0.000000 0.000000 0.038691
#
#
# Mechanical properties :
#
#
# Convention : Reuss Voigt Hill
#
# Bulk Modulus (GPa) = 44.40673 65.04431 54.72552
# Shear Modulus (GPa) = 32.37003 14.65071 23.51037
#
# Velocity S-wave (km/s) = 3.79561 2.55352 3.23474
# Velocity P-wave (km/s) = 6.24280 6.13536 6.18931
#
# Compressibility (1/GPa) = 0.02251911
#
# Stress axis : x y z
#
# Youngs Moduli (GPa) = 35.81908 50.18046 46.72147
#
# Poissons Ratio (x) = 0.64215 -0.09877
# Poissons Ratio (y) = 0.45837 0.59254
# Poissons Ratio (z) = -0.07572 0.63641
#
# Static dielectric constant tensor:
#      x y z
#    x 1.874000 0.000000 0.000000 
#    y 0.000000 1.842230 0.000000 
#    z 0.000000 0.000000 1.987060 
# 
# From -- ./inp_files/53248.got.cif
#   From: 2010.05.17/outbox.cif.g08.bks.cpg/sg64_27_cif.got.tgz:53248.got - 2010.06.03 16:29:19.
