data_PCOD9479485
_publ_section_title
;
Structure prediction by ZEFSAII (Michael W. Deem and Ramdas Pophale) SiO2 
 PCOD9479485
Probable space group: C M C A
;
_chemical_formula_sum "Si O2"
_cell_formula_units_Z 80
_cell_length_a 24.626126
_cell_length_b 10.937400
_cell_length_c 13.088770
_cell_angle_alpha 90.000000
_cell_angle_beta 90.000000
_cell_angle_gamma 90.000000
_cell_volume 3525.405102
_symmetry_space_group_name_H-M "C M C A"
_symmetry_group_IT_number 64
_symmetry_cell_setting 'orthorhombic'
loop_
_space_group_symop_operation_xyz
x,y,z
-x,1/2-y,1/2+z
x,-y,-z
-x,1/2+y,1/2-z
-x,-y,-z
x,1/2+y,1/2-z
-x,y,z
x,1/2-y,1/2+z
1/2+x,1/2+y,z
1/2-x,-y,1/2+z
1/2+x,1/2-y,-z
1/2-x,y,1/2-z
1/2-x,1/2-y,-z
1/2+x,y,1/2-z
1/2-x,1/2+y,z
1/2+x,-y,1/2+z
loop_
_atom_site_type_symbol
_atom_site_label
_atom_site_fract_x
_atom_site_fract_y
_atom_site_fract_z
Si Si1 0.684972 0.285687 0.896784
Si Si2 0.382223 0.431762 0.317104
Si Si3 0.797639 0.391511 0.920549
Si Si4 0.000000 0.445953 0.155667
Si Si5 0.089580 0.042512 0.108810
Si Si6 0.000000 0.812454 0.779975
O O1 0.656019 0.186714 0.824146
O O2 0.744910 0.331795 0.869126
O O3 0.648649 0.403772 0.907154
O O4 0.682508 0.216207 0.005468
O O5 0.344128 0.546356 0.351362
O O6 0.437878 0.429088 0.385704
O O7 0.403460 0.448898 0.201924
O O8 0.780607 0.500000 0.000000
O O9 0.000000 0.331478 0.236399
O O10 0.000000 0.587849 0.189936
O O11 0.051699 0.149149 0.153086
O O12 0.067813 0.000000 0.000000
#
# Coordination Sequence:
#
# PCOD9479485 Si02
#       6
#    16  16  16   8  16   8
#     4  10  20  40  65  90 131 171 222 281 341 409
#     4  10  22  41  67  96 131 178 225 281 345 408
#     4   9  20  40  65  95 131 170 218 283 342 410
#     4  10  20  42  72 101 138 175 230 290 343 416
#     4  11  23  39  63  95 133 178 228 276 338 413
#     4  10  21  42  69  98 139 177 231 288 346 408
#
# _framework density 22.692428
#
# number of rings (size 3 to 8) (size 9 to 14) (size 15 to 20)
#    0.000    2.000    2.000    0.900    0.000    2.400 
#    3.600   11.500    0.000    0.000    0.000    0.000 
#    0.000    0.000    0.000    0.000    0.000    0.000 
#
# Total GULP energy -222803.200667 kJ/mol
# GULP energy per Si atom -5570.080017 kJ/mol
# Density = 2.264078 g / cm^3
# Si number density = 22.692428 Si / 1000 Ang^3
#
#
#
# Elastic Constant Matrix: (Units=GPa)
#
#
# Indices 1 2 3 4 5 6 
#
# 1 150.7703 46.4539 35.7819 0.0000 0.0000 0.0000
# 2 46.4539 68.1270 23.4655 0.0000 0.0000 0.0000
# 3 35.7819 23.4655 76.1293 0.0000 0.0000 0.0000
# 4 0.0000 0.0000 0.0000 16.9757 0.0000 0.0000
# 5 0.0000 0.0000 0.0000 0.0000 1.4627 0.0000
# 6 0.0000 0.0000 0.0000 0.0000 0.0000 49.4091
#
#
#
# Elastic Compliance Matrix: (Units=1/GPa)
#
#
# Indices 1 2 3 4 5 6 
#
# 1 0.008823 -0.005133 -0.002565 0.000000 0.000000 0.000000
# 2 -0.005133 0.019408 -0.003570 0.000000 0.000000 0.000000
# 3 -0.002565 -0.003570 0.015441 0.000000 0.000000 0.000000
# 4 0.000000 0.000000 0.000000 0.058908 0.000000 0.000000
# 5 0.000000 0.000000 0.000000 0.000000 0.683689 0.000000
# 6 0.000000 0.000000 0.000000 0.000000 0.000000 0.020239
#
#
# Mechanical properties :
#
#
# Convention : Reuss Voigt Hill
#
# Bulk Modulus (GPa) = 47.30889 56.26993 51.78941
# Shear Modulus (GPa) = 5.98023 26.19118 16.08570
#
# Velocity S-wave (km/s) = 1.62513 3.40101 2.66533
# Velocity P-wave (km/s) = 4.94111 6.34611 5.68716
#
# Compressibility (1/GPa) = 0.02113768
#
# Stress axis : x y z
#
# Youngs Moduli (GPa) = 113.34416 51.52583 64.76126
#
# Poissons Ratio (x) = 0.26446 0.16610
# Poissons Ratio (y) = 0.58174 0.23118
# Poissons Ratio (z) = 0.29070 0.18393
#
# Static dielectric constant tensor:
#      x y z
#    x 1.882940 0.000000 0.000000 
#    y 0.000000 1.843080 0.000000 
#    z 0.000000 0.000000 1.927170 
# 
# From -- ./inp_files/27102.got.cif
#   From: 2010.05.17/outbox.cif.g08.bks.cpg/sg64_14_cif.got.tgz:27102.got - 2010.06.03 16:29:19.
