data_PCOD9479365
_publ_section_title
;
Structure prediction by ZEFSAII (Michael W. Deem and Ramdas Pophale) SiO2 
 PCOD9479365
Probable space group: C M C A
;
_chemical_formula_sum "Si O2"
_cell_formula_units_Z 88
_cell_length_a 30.608633
_cell_length_b 25.682309
_cell_length_c 5.638487
_cell_angle_alpha 90.000000
_cell_angle_beta 90.000000
_cell_angle_gamma 90.000000
_cell_volume 4432.416721
_symmetry_space_group_name_H-M "C M C A"
_symmetry_group_IT_number 64
_symmetry_cell_setting 'orthorhombic'
loop_
_space_group_symop_operation_xyz
x,y,z
-x,1/2-y,1/2+z
x,-y,-z
-x,1/2+y,1/2-z
-x,-y,-z
x,1/2+y,1/2-z
-x,y,z
x,1/2-y,1/2+z
1/2+x,1/2+y,z
1/2-x,-y,1/2+z
1/2+x,1/2-y,-z
1/2-x,y,1/2-z
1/2-x,1/2-y,-z
1/2+x,y,1/2-z
1/2-x,1/2+y,z
1/2+x,-y,1/2+z
loop_
_atom_site_type_symbol
_atom_site_label
_atom_site_fract_x
_atom_site_fract_y
_atom_site_fract_z
Si Si1 0.228001 0.937497 0.502431
Si Si2 0.951252 0.443377 0.872786
Si Si3 0.702347 0.795075 0.820546
Si Si4 0.099320 0.000000 0.000000
Si Si5 0.674686 0.182065 0.674881
Si Si6 0.367994 0.084204 0.850496
O O1 0.250000 0.919144 0.750000
O O2 0.176237 0.925524 0.498046
O O3 0.233062 0.000000 0.500000
O O4 0.250000 0.919663 0.250000
O O5 0.932674 0.457539 0.616177
O O6 0.000000 0.421140 0.874049
O O7 0.953290 0.500000 0.000000
O O8 0.912488 0.413186 0.001431
O O9 0.750000 0.774025 0.750000
O O10 0.691043 0.829143 0.591180
O O11 0.670112 0.745133 0.838287
O O12 0.702364 0.821446 0.078054
O O13 0.127890 0.033280 0.817238
O O14 0.637898 0.139144 0.718512
#
# Coordination Sequence:
#
# PCOD9479365 Si02
#       6
#    16  16  16   8  16  16
#     4  10  23  37  52  71 110 161 204 232 272 332
#     4   9  19  37  60  86 116 153 199 254 313 362
#     4  10  20  39  60  83 118 147 202 267 309 352
#     4  10  21  36  62  84 122 160 206 256 313 362
#     4  10  21  34  58  85 113 150 189 242 315 358
#     4  11  24  36  59  85 121 156 206 252 305 367
#
# _framework density 19.853726999999999
#
# number of rings (size 3 to 8) (size 9 to 14) (size 15 to 20)
#    0.000    2.000    0.000    4.636    8.909    3.636 
#    0.000    0.000    0.000    0.000    0.000    5.091 
#    0.000    0.000    0.000    0.000    0.000    0.000 
#
# Total GULP energy -244996.083541 kJ/mol
# GULP energy per Si atom -5568.092808 kJ/mol
# Density = 1.980854 g / cm^3
# Si number density = 19.853727 Si / 1000 Ang^3
#
#
#
# Elastic Constant Matrix: (Units=GPa)
#
#
# Indices 1 2 3 4 5 6 
#
# 1 138.4367 47.8302 54.7437 0.0000 0.0000 0.0000
# 2 47.8302 75.1852 32.3201 0.0000 0.0000 0.0000
# 3 54.7437 32.3201 129.6708 0.0000 0.0000 0.0000
# 4 0.0000 0.0000 0.0000 26.4506 0.0000 0.0000
# 5 0.0000 0.0000 0.0000 0.0000 9.1491 0.0000
# 6 0.0000 0.0000 0.0000 0.0000 0.0000 13.9172
#
#
#
# Elastic Compliance Matrix: (Units=1/GPa)
#
#
# Indices 1 2 3 4 5 6 
#
# 1 0.010213 -0.005201 -0.003015 0.000000 0.000000 0.000000
# 2 -0.005201 0.017545 -0.002177 0.000000 0.000000 0.000000
# 3 -0.003015 -0.002177 0.009528 0.000000 0.000000 0.000000
# 4 0.000000 0.000000 0.000000 0.037806 0.000000 0.000000
# 5 0.000000 0.000000 0.000000 0.000000 0.109300 0.000000
# 6 0.000000 0.000000 0.000000 0.000000 0.000000 0.071853
#
#
# Mechanical properties :
#
#
# Convention : Reuss Voigt Hill
#
# Bulk Modulus (GPa) = 60.61209 68.12007 64.36608
# Shear Modulus (GPa) = 17.69711 23.79663 20.74687
#
# Velocity S-wave (km/s) = 2.98883 3.46583 3.23613
# Velocity P-wave (km/s) = 6.51969 7.09940 6.81571
#
# Compressibility (1/GPa) = 0.01649836
#
# Stress axis : x y z
#
# Youngs Moduli (GPa) = 97.91654 56.99600 104.95906
#
# Poissons Ratio (x) = 0.29643 0.31648
# Poissons Ratio (y) = 0.50925 0.22854
# Poissons Ratio (z) = 0.29525 0.12410
#
# Static dielectric constant tensor:
#      x y z
#    x 1.690720 0.000000 0.000000 
#    y 0.000000 1.742730 0.000000 
#    z 0.000000 0.000000 1.820820 
# 
# From -- ./inp_files/3398.got.cif
#   From: 2010.05.17/outbox.cif.g08.bks.cpg/sg64_2_cif.got.tgz:3398.got - 2010.06.03 16:29:19.
