data_PCOD9479965
_publ_section_title
;
Structure prediction by ZEFSAII (Michael W. Deem and Ramdas Pophale) SiO2 
 PCOD9479965
Probable space group: C M C A
;
_chemical_formula_sum "Si O2"
_cell_formula_units_Z 64
_cell_length_a 27.841719
_cell_length_b 18.526263
_cell_length_c 5.360477
_cell_angle_alpha 90.000000
_cell_angle_beta 90.000000
_cell_angle_gamma 90.000000
_cell_volume 2764.950164
_symmetry_space_group_name_H-M "C M C A"
_symmetry_group_IT_number 64
_symmetry_cell_setting 'orthorhombic'
loop_
_space_group_symop_operation_xyz
x,y,z
-x,1/2-y,1/2+z
x,-y,-z
-x,1/2+y,1/2-z
-x,-y,-z
x,1/2+y,1/2-z
-x,y,z
x,1/2-y,1/2+z
1/2+x,1/2+y,z
1/2-x,-y,1/2+z
1/2+x,1/2-y,-z
1/2-x,y,1/2-z
1/2-x,1/2-y,-z
1/2+x,y,1/2-z
1/2-x,1/2+y,z
1/2+x,-y,1/2+z
loop_
_atom_site_type_symbol
_atom_site_label
_atom_site_fract_x
_atom_site_fract_y
_atom_site_fract_z
Si Si1 0.058038 0.293302 0.266890
Si Si2 0.304563 0.222302 0.447712
Si Si3 0.399818 0.545797 0.745697
Si Si4 0.705392 0.076333 0.600327
O O1 0.072306 0.253091 0.523217
O O2 0.076301 0.375601 0.254806
O O3 0.000000 0.296414 0.265927
O O4 0.327041 0.264701 0.218898
O O5 0.250000 0.250000 0.500000
O O6 0.306108 0.137098 0.395177
O O7 0.413192 0.500000 0.500000
O O8 0.342419 0.560134 0.746137
O O9 0.409502 0.500000 0.000000
O O10 0.750000 0.107881 0.750000
O O11 0.722176 0.000000 0.500000
#
# Coordination Sequence:
#
# PCOD9479965 Si02
#       4
#    16  16  16  16
#     4  10  22  43  71 102 133 170 212 263 330 397
#     4  10  21  38  55  81 109 144 202 260 302 369
#     4  11  25  43  63  97 133 173 221 268 328 389
#     4  11  24  39  62  87 124 171 215 266 317 371
#
# _framework density 23.146889999999999
#
# number of rings (size 3 to 8) (size 9 to 14) (size 15 to 20)
#    0.000    1.500    2.500    2.250    3.500    7.000 
#    0.000    0.000    0.000    0.000    0.000    0.000 
#    0.000    0.000    0.000    0.000    0.000    0.000 
#
# Total GULP energy -178960.179430 kJ/mol
# GULP energy per Si atom -5592.505607 kJ/mol
# Density = 2.309421 g / cm^3
# Si number density = 23.146890 Si / 1000 Ang^3
#
#
#
# Elastic Constant Matrix: (Units=GPa)
#
#
# Indices 1 2 3 4 5 6 
#
# 1 65.9517 24.8056 42.3845 0.0000 0.0000 0.0000
# 2 24.8056 217.2705 94.1290 0.0000 0.0000 0.0000
# 3 42.3845 94.1290 194.5693 0.0000 0.0000 0.0000
# 4 0.0000 0.0000 0.0000 42.9449 0.0000 0.0000
# 5 0.0000 0.0000 0.0000 0.0000 26.0097 0.0000
# 6 0.0000 0.0000 0.0000 0.0000 0.0000 22.5086
#
#
#
# Elastic Compliance Matrix: (Units=1/GPa)
#
#
# Indices 1 2 3 4 5 6 
#
# 1 0.017664 -0.000442 -0.003634 0.000000 0.000000 0.000000
# 2 -0.000442 0.005834 -0.002726 0.000000 0.000000 0.000000
# 3 -0.003634 -0.002726 0.007250 0.000000 0.000000 0.000000
# 4 0.000000 0.000000 0.000000 0.023286 0.000000 0.000000
# 5 0.000000 0.000000 0.000000 0.000000 0.038447 0.000000
# 6 0.000000 0.000000 0.000000 0.000000 0.000000 0.044427
#
#
# Mechanical properties :
#
#
# Convention : Reuss Voigt Hill
#
# Bulk Modulus (GPa) = 58.33050 88.93664 73.63357
# Shear Modulus (GPa) = 32.00451 39.39082 35.69766
#
# Velocity S-wave (km/s) = 3.72246 4.12973 3.93137
# Velocity P-wave (km/s) = 6.61290 7.82597 7.24487
#
# Compressibility (1/GPa) = 0.01714369
#
# Stress axis : x y z
#
# Youngs Moduli (GPa) = 56.61104 171.40657 137.93134
#
# Poissons Ratio (x) = 0.07583 0.50124
# Poissons Ratio (y) = 0.02504 0.37601
# Poissons Ratio (z) = 0.20572 0.46726
#
# Static dielectric constant tensor:
#      x y z
#    x 2.068890 0.000000 0.000000 
#    y 0.000000 1.804530 0.000000 
#    z 0.000000 0.000000 1.958680 
# 
# From -- ./inp_files/3151.got.cif
#   From: 2010.05.17/outbox.cif.g08.bks.cpg/sg64_2_cif.got.tgz:3151.got - 2010.06.03 16:29:19.
