data_PCOD9479129
_publ_section_title
;
Structure prediction by ZEFSAII (Michael W. Deem and Ramdas Pophale) SiO2 
 PCOD9479129
Probable space group: C M C A
;
_chemical_formula_sum "Si O2"
_cell_formula_units_Z 88
_cell_length_a 27.319807
_cell_length_b 11.369224
_cell_length_c 12.891190
_cell_angle_alpha 90.000000
_cell_angle_beta 90.000000
_cell_angle_gamma 90.000000
_cell_volume 4004.068140
_symmetry_space_group_name_H-M "C M C A"
_symmetry_group_IT_number 64
_symmetry_cell_setting 'orthorhombic'
loop_
_space_group_symop_operation_xyz
x,y,z
-x,1/2-y,1/2+z
x,-y,-z
-x,1/2+y,1/2-z
-x,-y,-z
x,1/2+y,1/2-z
-x,y,z
x,1/2-y,1/2+z
1/2+x,1/2+y,z
1/2-x,-y,1/2+z
1/2+x,1/2-y,-z
1/2-x,y,1/2-z
1/2-x,1/2-y,-z
1/2+x,y,1/2-z
1/2-x,1/2+y,z
1/2+x,-y,1/2+z
loop_
_atom_site_type_symbol
_atom_site_label
_atom_site_fract_x
_atom_site_fract_y
_atom_site_fract_z
Si Si1 0.250000 0.896018 0.750000
Si Si2 0.334042 0.510235 0.386687
Si Si3 0.500000 0.300357 0.996771
Si Si4 0.602948 0.438172 0.227604
Si Si5 0.604921 0.738327 0.440567
Si Si6 0.000000 0.006944 0.174014
Si Si7 0.327179 0.600700 0.084046
O O1 0.289104 0.971665 0.811505
O O2 0.284142 0.843096 0.656704
O O3 0.313142 0.500000 0.500000
O O4 0.368952 0.414506 0.334383
O O5 0.370321 0.620646 0.399924
O O6 0.449421 0.230394 0.011397
O O7 0.500000 0.404495 0.084820
O O8 0.500000 0.370597 0.888223
O O9 0.600139 0.322697 0.158841
O O10 0.548994 0.490099 0.239109
O O11 0.634796 0.531864 0.159922
O O12 0.642153 0.804847 0.518432
O O13 0.310215 0.500000 0.000000
#
# Coordination Sequence:
#
# PCOD9479129 Si02
#       7
#     8  16   8  16  16   8  16
#     4  10  22  40  60  82 110 162 208 248 308 370
#     4  11  25  42  60  85 125 157 197 258 318 364
#     4   9  16  31  62  97 121 153 203 247 292 351
#     4   9  19  36  60  88 120 158 202 246 292 369
#     4  10  20  37  62  92 122 156 200 250 305 359
#     4   9  14  31  62  93 117 155 208 244 276 352
#     4   9  17  34  59  85 113 148 200 255 299 353
#
# _framework density 21.977647999999999
#
# number of rings (size 3 to 8) (size 9 to 14) (size 15 to 20)
#    0.000    2.364    1.818    0.545    0.000    4.364 
#    0.000   10.909    0.000    0.000    0.000    0.000 
#    0.000    0.000    0.000    0.000    0.000    0.000 
#
# Total GULP energy -245356.098994 kJ/mol
# GULP energy per Si atom -5576.274977 kJ/mol
# Density = 2.192763 g / cm^3
# Si number density = 21.977648 Si / 1000 Ang^3
#
#
#
# Elastic Constant Matrix: (Units=GPa)
#
#
# Indices 1 2 3 4 5 6 
#
# 1 150.2083 13.8606 50.1912 0.0000 0.0000 0.0000
# 2 13.8606 30.4433 -0.9292 0.0000 0.0000 0.0000
# 3 50.1912 -0.9292 106.5913 0.0000 0.0000 0.0000
# 4 0.0000 0.0000 0.0000 -6.2438 0.0000 0.0000
# 5 0.0000 0.0000 0.0000 0.0000 -2.3156 0.0000
# 6 0.0000 0.0000 0.0000 0.0000 0.0000 -3.9789
#
#
#
# Elastic Compliance Matrix: (Units=1/GPa)
#
#
# Indices 1 2 3 4 5 6 
#
# 1 0.008343 -0.003920 -0.003963 0.000000 0.000000 0.000000
# 2 -0.003920 0.034698 0.002148 0.000000 0.000000 0.000000
# 3 -0.003963 0.002148 0.011266 0.000000 0.000000 0.000000
# 4 0.000000 0.000000 0.000000 -0.160158 0.000000 0.000000
# 5 0.000000 0.000000 0.000000 0.000000 -0.431849 0.000000
# 6 0.000000 0.000000 0.000000 0.000000 0.000000 -0.251325
#
#
# Mechanical properties :
#
#
# Convention : Reuss Voigt Hill
#
# Bulk Modulus (GPa) = 23.34313 45.94311 34.64312
# Shear Modulus (GPa) = -6.55072 12.43367 2.94148
#
# Velocity S-wave (km/s) = -1.72832 2.38111 1.15815
# Velocity P-wave (km/s) = 2.58100 5.33942 4.19351
#
# Compressibility (1/GPa) = 0.04283916
#
# Stress axis : x y z
#
# Youngs Moduli (GPa) = 119.85732 28.82002 88.75994
#
# Poissons Ratio (x) = 0.11296 0.35174
# Poissons Ratio (y) = 0.46979 -0.19067
# Poissons Ratio (z) = 0.47497 -0.06191
#
# Static dielectric constant tensor:
#      x y z
#    x 1.796400 0.000000 0.000000 
#    y 0.000000 1.793030 0.000000 
#    z 0.000000 0.000000 1.895380 
# 
# From -- ./inp_files/28002.got.cif
#   From: 2010.05.17/outbox.cif.g08.bks.cpg/sg64_15_cif.got.tgz:28002.got - 2010.06.03 16:29:19.
