data_PCOD9479805
_publ_section_title
;
Structure prediction by ZEFSAII (Michael W. Deem and Ramdas Pophale) SiO2 
 PCOD9479805
Probable space group: C M C A
;
_chemical_formula_sum "Si O2"
_cell_formula_units_Z 96
_cell_length_a 9.446035
_cell_length_b 20.165107
_cell_length_c 30.321597
_cell_angle_alpha 90.000000
_cell_angle_beta 90.000000
_cell_angle_gamma 90.000000
_cell_volume 5775.667090
_symmetry_space_group_name_H-M "C M C A"
_symmetry_group_IT_number 64
_symmetry_cell_setting 'orthorhombic'
loop_
_space_group_symop_operation_xyz
x,y,z
-x,1/2-y,1/2+z
x,-y,-z
-x,1/2+y,1/2-z
-x,-y,-z
x,1/2+y,1/2-z
-x,y,z
x,1/2-y,1/2+z
1/2+x,1/2+y,z
1/2-x,-y,1/2+z
1/2+x,1/2-y,-z
1/2-x,y,1/2-z
1/2-x,1/2-y,-z
1/2+x,y,1/2-z
1/2-x,1/2+y,z
1/2+x,-y,1/2+z
loop_
_atom_site_type_symbol
_atom_site_label
_atom_site_fract_x
_atom_site_fract_y
_atom_site_fract_z
Si Si1 0.836783 0.105304 0.793139
Si Si2 0.165458 0.427974 0.021521
Si Si3 0.162526 0.233015 0.292776
Si Si4 0.834669 0.265813 0.621348
Si Si5 0.166534 0.107509 0.619990
Si Si6 0.831282 0.689688 0.476661
O O1 0.750000 0.083524 0.750000
O O2 0.835612 0.186148 0.792601
O O3 0.760085 0.085741 0.838541
O O4 0.000000 0.084144 0.791524
O O5 0.199812 0.427143 0.073615
O O6 0.000000 0.406070 0.018159
O O7 0.177030 0.500000 0.000000
O O8 0.265756 0.376855 0.996452
O O9 0.250000 0.211157 0.250000
O O10 0.237558 0.212690 0.338114
O O11 0.000000 0.211790 0.290634
O O12 0.812175 0.186854 0.613347
O O13 0.807432 0.303253 0.575742
O O14 0.000000 0.273522 0.633394
O O15 0.000000 0.097913 0.630086
O O16 0.750000 0.750000 0.500000
O O17 0.000000 0.694302 0.484383
#
# Coordination Sequence:
#
# PCOD9479805 Si02
#       6
#    16  16  16  16  16  16
#     4   9  16  25  39  63  92 124 159 198 244 295
#     4  10  21  37  54  74 103 139 176 214 260 310
#     4   9  16  25  39  62  93 127 159 196 243 298
#     4   9  17  29  45  67  95 128 164 206 250 296
#     4   9  16  29  46  66  95 130 164 202 248 297
#     4  11  21  34  53  76 103 134 173 215 257 302
#
# _framework density 16.621455999999998
#
# number of rings (size 3 to 8) (size 9 to 14) (size 15 to 20)
#    0.000    2.500    1.667    1.500    0.000    6.333 
#    0.000    0.000    0.000    0.000    0.000    1.167 
#    0.000    8.000    0.000    0.000    0.000    0.000 
#
# Total GULP energy -267608.899300 kJ/mol
# GULP energy per Si atom -5575.185402 kJ/mol
# Density = 1.658363 g / cm^3
# Si number density = 16.621456 Si / 1000 Ang^3
#
#
#
# Elastic Constant Matrix: (Units=GPa)
#
#
# Indices 1 2 3 4 5 6 
#
# 1 128.1317 34.4890 115.4771 0.0000 0.0000 0.0000
# 2 34.4890 27.6575 35.6774 0.0000 0.0000 0.0000
# 3 115.4771 35.6774 169.4798 0.0000 0.0000 0.0000
# 4 0.0000 0.0000 0.0000 11.7642 0.0000 0.0000
# 5 0.0000 0.0000 0.0000 0.0000 35.6624 0.0000
# 6 0.0000 0.0000 0.0000 0.0000 0.0000 13.5324
#
#
#
# Elastic Compliance Matrix: (Units=1/GPa)
#
#
# Indices 1 2 3 4 5 6 
#
# 1 0.022570 -0.011404 -0.012978 0.000000 0.000000 0.000000
# 2 -0.011404 0.055397 -0.003891 0.000000 0.000000 0.000000
# 3 -0.012978 -0.003891 0.015562 0.000000 0.000000 0.000000
# 4 0.000000 0.000000 0.000000 0.085003 0.000000 0.000000
# 5 0.000000 0.000000 0.000000 0.000000 0.028041 0.000000
# 6 0.000000 0.000000 0.000000 0.000000 0.000000 0.073897
#
#
# Mechanical properties :
#
#
# Convention : Reuss Voigt Hill
#
# Bulk Modulus (GPa) = 27.03943 77.39511 52.21727
# Shear Modulus (GPa) = 14.31253 21.50018 17.90635
#
# Velocity S-wave (km/s) = 2.93761 3.60045 3.28579
# Velocity P-wave (km/s) = 5.27344 7.99680 6.77340
#
# Compressibility (1/GPa) = 0.03698303
#
# Stress axis : x y z
#
# Youngs Moduli (GPa) = 44.30640 18.05142 64.25853
#
# Poissons Ratio (x) = 0.20586 0.83393
# Poissons Ratio (y) = 0.50527 0.25006
# Poissons Ratio (z) = 0.57500 0.07025
#
# Static dielectric constant tensor:
#      x y z
#    x 1.560470 0.000000 0.000000 
#    y 0.000000 1.528940 0.000000 
#    z 0.000000 0.000000 1.554500 
# 
# From -- ./inp_files/48064.got.cif
#   From: 2010.05.17/outbox.cif.g08.bks.cpg/sg64_25_cif.got.tgz:48064.got - 2010.06.03 16:29:19.
