data_PCOD9479983
_publ_section_title
;
Structure prediction by ZEFSAII (Michael W. Deem and Ramdas Pophale) SiO2 
 PCOD9479983
Probable space group: C M C A
;
_chemical_formula_sum "Si O2"
_cell_formula_units_Z 96
_cell_length_a 8.866940
_cell_length_b 19.926404
_cell_length_c 24.207678
_cell_angle_alpha 90.000000
_cell_angle_beta 90.000000
_cell_angle_gamma 90.000000
_cell_volume 4277.163331
_symmetry_space_group_name_H-M "C M C A"
_symmetry_group_IT_number 64
_symmetry_cell_setting 'orthorhombic'
loop_
_space_group_symop_operation_xyz
x,y,z
-x,1/2-y,1/2+z
x,-y,-z
-x,1/2+y,1/2-z
-x,-y,-z
x,1/2+y,1/2-z
-x,y,z
x,1/2-y,1/2+z
1/2+x,1/2+y,z
1/2-x,-y,1/2+z
1/2+x,1/2-y,-z
1/2-x,y,1/2-z
1/2-x,1/2-y,-z
1/2+x,y,1/2-z
1/2-x,1/2+y,z
1/2+x,-y,1/2+z
loop_
_atom_site_type_symbol
_atom_site_label
_atom_site_fract_x
_atom_site_fract_y
_atom_site_fract_z
Si Si1 0.321316 0.057688 0.307409
Si Si2 0.324353 0.844540 0.307251
Si Si3 0.325533 0.335578 0.536748
Si Si4 0.675408 0.011957 0.081171
Si Si5 0.321407 0.623124 0.929983
Si Si6 0.823007 0.693350 0.158131
O O1 0.500000 0.047345 0.309713
O O2 0.250000 0.035932 0.250000
O O3 0.236712 0.021054 0.357029
O O4 0.280818 0.136327 0.315872
O O5 0.500000 0.864738 0.305636
O O6 0.250000 0.867099 0.250000
O O7 0.261042 0.865797 0.367455
O O8 0.315956 0.763600 0.311010
O O9 0.500000 0.319869 0.526159
O O10 0.313563 0.414118 0.554964
O O11 0.237446 0.330114 0.479528
O O12 0.280140 0.298382 0.593421
O O13 0.500000 0.992021 0.078650
O O14 0.774427 0.952936 0.055637
O O15 0.500000 0.631360 0.927262
O O16 0.000000 0.670353 0.158590
#
# Coordination Sequence:
#
# PCOD9479983 Si02
#       6
#    16  16  16  16  16  16
#     4  11  21  34  55  84 114 145 186 235 286 337
#     4  10  23  41  59  81 112 151 191 232 277 328
#     4   9  19  36  59  85 112 144 183 229 284 340
#     4  10  21  38  58  81 112 150 190 233 284 338
#     4  11  23  37  55  83 117 150 188 233 278 331
#     4   9  19  38  60  83 113 146 184 232 283 333
#
# _framework density 22.444782
#
# number of rings (size 3 to 8) (size 9 to 14) (size 15 to 20)
#    0.000    2.000    0.000    4.500    0.000   10.000 
#    0.000    1.667    0.000    0.000    0.000    0.000 
#    0.000    0.000    0.000    0.000    0.000    0.000 
#
# Total GULP energy -268287.472761 kJ/mol
# GULP energy per Si atom -5589.322349 kJ/mol
# Density = 2.239370 g / cm^3
# Si number density = 22.444782 Si / 1000 Ang^3
#
#
#
# Elastic Constant Matrix: (Units=GPa)
#
#
# Indices 1 2 3 4 5 6 
#
# 1 41.4034 -3.1778 52.4127 0.0000 0.0000 0.0000
# 2 -3.1778 34.4024 2.6478 0.0000 0.0000 0.0000
# 3 52.4127 2.6478 165.5562 0.0000 0.0000 0.0000
# 4 0.0000 0.0000 0.0000 -28.4608 0.0000 0.0000
# 5 0.0000 0.0000 0.0000 0.0000 34.1306 0.0000
# 6 0.0000 0.0000 0.0000 0.0000 0.0000 8.0228
#
#
#
# Elastic Compliance Matrix: (Units=1/GPa)
#
#
# Indices 1 2 3 4 5 6 
#
# 1 0.041083 0.004802 -0.013083 0.000000 0.000000 0.000000
# 2 0.004802 0.029665 -0.001995 0.000000 0.000000 0.000000
# 3 -0.013083 -0.001995 0.010214 0.000000 0.000000 0.000000
# 4 0.000000 0.000000 0.000000 -0.035136 0.000000 0.000000
# 5 0.000000 0.000000 0.000000 0.000000 0.029299 0.000000
# 6 0.000000 0.000000 0.000000 0.000000 0.000000 0.124644
#
#
# Mechanical properties :
#
#
# Convention : Reuss Voigt Hill
#
# Bulk Modulus (GPa) = 16.55346 38.34749 27.45047
# Shear Modulus (GPa) = 20.79363 15.37048 18.08205
#
# Velocity S-wave (km/s) = 3.04704 2.61973 2.84143
# Velocity P-wave (km/s) = 4.44640 5.12572 4.79810
#
# Compressibility (1/GPa) = 0.06041034
#
# Stress axis : x y z
#
# Youngs Moduli (GPa) = 24.34084 33.70998 97.90401
#
# Poissons Ratio (x) = -0.16187 1.28089
# Poissons Ratio (y) = -0.11688 0.19529
# Poissons Ratio (z) = 0.31845 0.06724
#
# Static dielectric constant tensor:
#      x y z
#    x 1.762440 0.000000 0.000000 
#    y 0.000000 1.886210 0.000000 
#    z 0.000000 0.000000 1.679470 
# 
# From -- ./inp_files/42996.got.cif
#   From: 2010.05.17/outbox.cif.g08.bks.cpg/sg64_22_cif.got.tgz:42996.got - 2010.06.03 16:29:19.
