data_PCOD9479733
_publ_section_title
;
Structure prediction by ZEFSAII (Michael W. Deem and Ramdas Pophale) SiO2 
 PCOD9479733
Probable space group: C M C A
;
_chemical_formula_sum "Si O2"
_cell_formula_units_Z 88
_cell_length_a 23.254978
_cell_length_b 9.554600
_cell_length_c 22.057755
_cell_angle_alpha 90.000000
_cell_angle_beta 90.000000
_cell_angle_gamma 90.000000
_cell_volume 4901.056981
_symmetry_space_group_name_H-M "C M C A"
_symmetry_group_IT_number 64
_symmetry_cell_setting 'orthorhombic'
loop_
_space_group_symop_operation_xyz
x,y,z
-x,1/2-y,1/2+z
x,-y,-z
-x,1/2+y,1/2-z
-x,-y,-z
x,1/2+y,1/2-z
-x,y,z
x,1/2-y,1/2+z
1/2+x,1/2+y,z
1/2-x,-y,1/2+z
1/2+x,1/2-y,-z
1/2-x,y,1/2-z
1/2-x,1/2-y,-z
1/2+x,y,1/2-z
1/2-x,1/2+y,z
1/2+x,-y,1/2+z
loop_
_atom_site_type_symbol
_atom_site_label
_atom_site_fract_x
_atom_site_fract_y
_atom_site_fract_z
Si Si1 0.250000 0.844018 0.750000
Si Si2 0.170289 0.055478 0.139714
Si Si3 0.565450 0.781326 0.674234
Si Si4 0.659472 0.241401 0.152121
Si Si5 0.435333 0.459807 0.704800
Si Si6 0.232930 0.123141 0.456947
O O1 0.208722 0.922706 0.798825
O O2 0.293619 0.760850 0.793380
O O3 0.120173 0.171577 0.135117
O O4 0.213266 0.067752 0.082934
O O5 0.142869 0.901750 0.142228
O O6 0.500000 0.780691 0.648490
O O7 0.565703 0.896398 0.727776
O O8 0.576604 0.625658 0.700904
O O9 0.609454 0.134999 0.169358
O O10 0.688859 0.180764 0.092307
O O11 0.500000 0.439508 0.681159
O O12 0.250000 0.250000 0.500000
O O13 0.210695 0.000000 0.500000
#
# Coordination Sequence:
#
# PCOD9479733 Si02
#       6
#     8  16  16  16  16  16
#     4  10  22  32  54  90 122 146 186 230 302 344
#     4  11  22  36  60  85 120 153 191 243 286 355
#     4  10  21  36  56  85 120 155 191 235 290 350
#     4  11  22  36  60  85 120 153 190 244 285 354
#     4  10  21  36  56  85 120 155 192 234 291 350
#     4  11  24  43  60  85 116 155 201 241 292 341
#
# _framework density 17.955310000000001
#
# number of rings (size 3 to 8) (size 9 to 14) (size 15 to 20)
#    0.000    1.455    3.636    1.636    2.545    3.636 
#    0.000    0.000    0.000    2.182    0.000    0.000 
#    0.000    0.000    0.000    0.000    0.000    0.000 
#
# Total GULP energy -245390.623738 kJ/mol
# GULP energy per Si atom -5577.059630 kJ/mol
# Density = 1.791444 g / cm^3
# Si number density = 17.955310 Si / 1000 Ang^3
#
#
#
# Elastic Constant Matrix: (Units=GPa)
#
#
# Indices 1 2 3 4 5 6 
#
# 1 74.0491 24.3071 9.8860 0.0000 0.0000 0.0000
# 2 24.3071 102.8368 6.9613 0.0000 0.0000 0.0000
# 3 9.8860 6.9613 70.6125 0.0000 0.0000 0.0000
# 4 0.0000 0.0000 0.0000 22.2535 0.0000 0.0000
# 5 0.0000 0.0000 0.0000 0.0000 17.6940 0.0000
# 6 0.0000 0.0000 0.0000 0.0000 0.0000 -6.3989
#
#
#
# Elastic Compliance Matrix: (Units=1/GPa)
#
#
# Indices 1 2 3 4 5 6 
#
# 1 0.014851 -0.003392 -0.001745 0.000000 0.000000 0.000000
# 2 -0.003392 0.010564 -0.000567 0.000000 0.000000 0.000000
# 3 -0.001745 -0.000567 0.014462 0.000000 0.000000 0.000000
# 4 0.000000 0.000000 0.000000 0.044937 0.000000 0.000000
# 5 0.000000 0.000000 0.000000 0.000000 0.056516 0.000000
# 6 0.000000 0.000000 0.000000 0.000000 0.000000 -0.156276
#
#
# Mechanical properties :
#
#
# Convention : Reuss Voigt Hill
#
# Bulk Modulus (GPa) = 35.12441 36.64523 35.88482
# Shear Modulus (GPa) = 840.11616 20.46596 430.29106
#
# Velocity S-wave (km/s) = 21.65430 3.37980 15.49728
# Velocity P-wave (km/s) = 25.39323 5.97362 18.44587
#
# Compressibility (1/GPa) = 0.02847023
#
# Stress axis : x y z
#
# Youngs Moduli (GPa) = 67.33557 94.65852 69.14706
#
# Poissons Ratio (x) = 0.32110 0.12065
# Poissons Ratio (y) = 0.22841 0.03918
# Poissons Ratio (z) = 0.11748 0.05363
#
# Static dielectric constant tensor:
#      x y z
#    x 1.655110 0.000000 0.000000 
#    y 0.000000 1.635530 0.000000 
#    z 0.000000 0.000000 1.603570 
# 
# From -- ./inp_files/41371.got.cif
#   From: 2010.05.17/outbox.cif.g08.bks.cpg/sg64_21_cif.got.tgz:41371.got - 2010.06.03 16:29:19.
