data_PCOD9479074
_publ_section_title
;
Structure prediction by ZEFSAII (Michael W. Deem and Ramdas Pophale) SiO2 
 PCOD9479074
Probable space group: C M C A
;
_chemical_formula_sum "Si O2"
_cell_formula_units_Z 80
_cell_length_a 9.299203
_cell_length_b 14.300788
_cell_length_c 30.263554
_cell_angle_alpha 90.000000
_cell_angle_beta 90.000000
_cell_angle_gamma 90.000000
_cell_volume 4024.626894
_symmetry_space_group_name_H-M "C M C A"
_symmetry_group_IT_number 64
_symmetry_cell_setting 'orthorhombic'
loop_
_space_group_symop_operation_xyz
x,y,z
-x,1/2-y,1/2+z
x,-y,-z
-x,1/2+y,1/2-z
-x,-y,-z
x,1/2+y,1/2-z
-x,y,z
x,1/2-y,1/2+z
1/2+x,1/2+y,z
1/2-x,-y,1/2+z
1/2+x,1/2-y,-z
1/2-x,y,1/2-z
1/2-x,1/2-y,-z
1/2+x,y,1/2-z
1/2-x,1/2+y,z
1/2+x,-y,1/2+z
loop_
_atom_site_type_symbol
_atom_site_label
_atom_site_fract_x
_atom_site_fract_y
_atom_site_fract_z
Si Si1 0.835206 0.608843 0.120540
Si Si2 0.165199 0.616798 0.706024
Si Si3 0.171524 0.740693 0.546652
Si Si4 0.169205 0.614424 0.883700
Si Si5 0.838011 0.388684 0.706927
O O1 0.807644 0.666086 0.076139
O O2 0.820872 0.498075 0.113120
O O3 0.734577 0.638070 0.160890
O O4 0.000000 0.627014 0.134135
O O5 0.250000 0.645540 0.750000
O O6 0.252745 0.641951 0.662016
O O7 0.160108 0.502761 0.707044
O O8 0.000000 0.649910 0.704921
O O9 0.250000 0.750000 0.500000
O O10 0.246446 0.660660 0.575893
O O11 0.000000 0.725253 0.541646
O O12 0.000000 0.639677 0.883452
O O13 0.750000 0.360109 0.750000
O O14 0.000000 0.354222 0.709548
#
# Coordination Sequence:
#
# PCOD9479074 Si02
#       5
#    16  16  16  16  16
#     4   9  20  38  59  82 113 150 186 225 276 333
#     4   9  16  28  49  80 115 151 187 225 270 324
#     4  11  24  42  61  83 111 144 184 234 286 338
#     4  10  20  37  60  85 113 148 187 229 277 331
#     4   9  16  27  49  80 114 149 186 225 269 322
#
# _framework density 19.877618999999999
#
# number of rings (size 3 to 8) (size 9 to 14) (size 15 to 20)
#    0.000    2.400    0.000    2.400    0.000    8.000 
#    0.000    5.000    0.000    4.800    0.000    0.000 
#    0.000    0.000    0.000    0.000    0.000    0.000 
#
# Total GULP energy -223574.176447 kJ/mol
# GULP energy per Si atom -5589.354411 kJ/mol
# Density = 1.983238 g / cm^3
# Si number density = 19.877619 Si / 1000 Ang^3
#
#
#
# Elastic Constant Matrix: (Units=GPa)
#
#
# Indices 1 2 3 4 5 6 
#
# 1 206.0151 51.4174 148.1020 0.0000 0.0000 0.0000
# 2 51.4174 58.6593 39.1812 0.0000 0.0000 0.0000
# 3 148.1020 39.1812 196.4826 0.0000 0.0000 0.0000
# 4 0.0000 0.0000 0.0000 27.8598 0.0000 0.0000
# 5 0.0000 0.0000 0.0000 0.0000 45.4264 0.0000
# 6 0.0000 0.0000 0.0000 0.0000 0.0000 15.9178
#
#
#
# Elastic Compliance Matrix: (Units=1/GPa)
#
#
# Indices 1 2 3 4 5 6 
#
# 1 0.011770 -0.005066 -0.007862 0.000000 0.000000 0.000000
# 2 -0.005066 0.021847 -0.000538 0.000000 0.000000 0.000000
# 3 -0.007862 -0.000538 0.011123 0.000000 0.000000 0.000000
# 4 0.000000 0.000000 0.000000 0.035894 0.000000 0.000000
# 5 0.000000 0.000000 0.000000 0.000000 0.022014 0.000000
# 6 0.000000 0.000000 0.000000 0.000000 0.000000 0.062823
#
#
# Mechanical properties :
#
#
# Convention : Reuss Voigt Hill
#
# Bulk Modulus (GPa) = 56.15200 104.28425 80.21812
# Shear Modulus (GPa) = 25.20948 32.67124 28.94036
#
# Velocity S-wave (km/s) = 3.56509 4.05856 3.81980
# Velocity P-wave (km/s) = 6.72731 8.63363 7.73939
#
# Compressibility (1/GPa) = 0.01780881
#
# Stress axis : x y z
#
# Youngs Moduli (GPa) = 84.96201 45.77190 89.90630
#
# Poissons Ratio (x) = 0.23187 0.70681
# Poissons Ratio (y) = 0.43040 0.04840
# Poissons Ratio (z) = 0.66794 0.02464
#
# Static dielectric constant tensor:
#      x y z
#    x 1.677650 0.000000 0.000000 
#    y 0.000000 1.747370 0.000000 
#    z 0.000000 0.000000 1.640730 
# 
# From -- ./inp_files/47816.got.cif
#   From: 2010.05.17/outbox.cif.g08.bks.cpg/sg64_24_cif.got.tgz:47816.got - 2010.06.03 16:29:19.
