data_PCOD9479611
_publ_section_title
;
Structure prediction by ZEFSAII (Michael W. Deem and Ramdas Pophale) SiO2 
 PCOD9479611
Probable space group: C M C A
;
_chemical_formula_sum "Si O2"
_cell_formula_units_Z 88
_cell_length_a 13.673759
_cell_length_b 22.230324
_cell_length_c 14.683176
_cell_angle_alpha 90.000000
_cell_angle_beta 90.000000
_cell_angle_gamma 90.000000
_cell_volume 4463.275739
_symmetry_space_group_name_H-M "C M C A"
_symmetry_group_IT_number 64
_symmetry_cell_setting 'orthorhombic'
loop_
_space_group_symop_operation_xyz
x,y,z
-x,1/2-y,1/2+z
x,-y,-z
-x,1/2+y,1/2-z
-x,-y,-z
x,1/2+y,1/2-z
-x,y,z
x,1/2-y,1/2+z
1/2+x,1/2+y,z
1/2-x,-y,1/2+z
1/2+x,1/2-y,-z
1/2-x,y,1/2-z
1/2-x,1/2-y,-z
1/2+x,y,1/2-z
1/2-x,1/2+y,z
1/2+x,-y,1/2+z
loop_
_atom_site_type_symbol
_atom_site_label
_atom_site_fract_x
_atom_site_fract_y
_atom_site_fract_z
Si Si1 0.809490 0.067464 0.980501
Si Si2 0.889684 0.100317 0.610086
Si Si3 0.892888 0.214829 0.486728
Si Si4 0.886533 0.642586 0.688270
Si Si5 0.750000 0.246730 0.750000
Si Si6 0.190693 0.821287 0.904831
O O1 0.696115 0.068164 0.945940
O O2 0.864238 0.100769 0.897762
O O3 0.823586 0.109624 0.069412
O O4 0.841225 0.000000 0.000000
O O5 0.890353 0.168794 0.572141
O O6 0.868945 0.105967 0.717487
O O7 0.000000 0.076224 0.596351
O O8 0.870610 0.280819 0.524676
O O9 0.804584 0.192500 0.425397
O O10 0.000000 0.211296 0.444849
O O11 0.815558 0.700413 0.690661
O O12 0.000000 0.660837 0.688910
O O13 0.821019 0.290726 0.692974
#
# Coordination Sequence:
#
# PCOD9479611 Si02
#       6
#    16  16  16  16   8  16
#     4  11  23  40  56  84 120 162 200 233 279 338
#     4   9  17  34  62  89 111 148 196 243 291 341
#     4   9  16  32  57  84 112 138 181 239 298 344
#     4  11  21  37  63  88 114 150 190 240 296 352
#     4  12  20  38  58  88 118 142 192 242 304 346
#     4  10  21  33  52  83 114 148 185 236 285 342
#
# _framework density 19.716460000000001
#
# number of rings (size 3 to 8) (size 9 to 14) (size 15 to 20)
#    0.000    1.818    3.636    2.182    0.000    3.636 
#    3.273    0.000    0.000    0.000    0.000    0.000 
#    0.000    0.000    0.000    0.000    0.000    0.000 
#
# Total GULP energy -245454.099866 kJ/mol
# GULP energy per Si atom -5578.502270 kJ/mol
# Density = 1.967158 g / cm^3
# Si number density = 19.716460 Si / 1000 Ang^3
#
#
#
# Elastic Constant Matrix: (Units=GPa)
#
#
# Indices 1 2 3 4 5 6 
#
# 1 62.8658 -1.6847 -5.9633 0.0000 0.0000 0.0000
# 2 -1.6847 127.8986 40.7333 0.0000 0.0000 0.0000
# 3 -5.9633 40.7333 60.6173 0.0000 0.0000 0.0000
# 4 0.0000 0.0000 0.0000 23.8299 0.0000 0.0000
# 5 0.0000 0.0000 0.0000 0.0000 15.9040 0.0000
# 6 0.0000 0.0000 0.0000 0.0000 0.0000 6.4541
#
#
#
# Elastic Compliance Matrix: (Units=1/GPa)
#
#
# Indices 1 2 3 4 5 6 
#
# 1 0.016071 -0.000371 0.001830 0.000000 0.000000 0.000000
# 2 -0.000371 0.009956 -0.006727 0.000000 0.000000 0.000000
# 3 0.001830 -0.006727 0.021197 0.000000 0.000000 0.000000
# 4 0.000000 0.000000 0.000000 0.041964 0.000000 0.000000
# 5 0.000000 0.000000 0.000000 0.000000 0.062877 0.000000
# 6 0.000000 0.000000 0.000000 0.000000 0.000000 0.154940
#
#
# Mechanical properties :
#
#
# Convention : Reuss Voigt Hill
#
# Bulk Modulus (GPa) = 27.25634 35.28359 31.26997
# Shear Modulus (GPa) = 15.16208 23.79069 19.47638
#
# Velocity S-wave (km/s) = 2.77610 3.47744 3.14638
# Velocity P-wave (km/s) = 4.91221 5.83591 5.39387
#
# Compressibility (1/GPa) = 0.03668871
#
# Stress axis : x y z
#
# Youngs Moduli (GPa) = 62.22553 100.44030 47.17595
#
# Poissons Ratio (x) = 0.03729 -0.08635
# Poissons Ratio (y) = 0.02310 0.31734
# Poissons Ratio (z) = -0.11390 0.67564
#
# Static dielectric constant tensor:
#      x y z
#    x 1.726900 0.000000 0.000000 
#    y 0.000000 1.665100 0.000000 
#    z 0.000000 0.000000 1.775220 
# 
# From -- ./inp_files/23760.got.cif
#   From: 2010.05.17/outbox.cif.g08.bks.cpg/sg64_12_cif.got.tgz:23760.got - 2010.06.03 16:29:19.
