data_PCOD9479328
_publ_section_title
;
Structure prediction by ZEFSAII (Michael W. Deem and Ramdas Pophale) SiO2 
 PCOD9479328
Probable space group: C M C A
;
_chemical_formula_sum "Si O2"
_cell_formula_units_Z 88
_cell_length_a 31.224576
_cell_length_b 16.329167
_cell_length_c 9.032944
_cell_angle_alpha 90.000000
_cell_angle_beta 90.000000
_cell_angle_gamma 90.000000
_cell_volume 4605.639045
_symmetry_space_group_name_H-M "C M C A"
_symmetry_group_IT_number 64
_symmetry_cell_setting 'orthorhombic'
loop_
_space_group_symop_operation_xyz
x,y,z
-x,1/2-y,1/2+z
x,-y,-z
-x,1/2+y,1/2-z
-x,-y,-z
x,1/2+y,1/2-z
-x,y,z
x,1/2-y,1/2+z
1/2+x,1/2+y,z
1/2-x,-y,1/2+z
1/2+x,1/2-y,-z
1/2-x,y,1/2-z
1/2-x,1/2-y,-z
1/2+x,y,1/2-z
1/2-x,1/2+y,z
1/2+x,-y,1/2+z
loop_
_atom_site_type_symbol
_atom_site_label
_atom_site_fract_x
_atom_site_fract_y
_atom_site_fract_z
Si Si1 0.295993 0.484340 0.177262
Si Si2 0.000000 0.908071 0.946170
Si Si3 0.301444 0.662433 0.214983
Si Si4 0.000000 0.690564 0.174808
Si Si5 0.837514 0.317818 0.381317
Si Si6 0.438037 0.836395 0.328255
Si Si7 0.000000 0.082243 0.602661
O O1 0.250000 0.475435 0.250000
O O2 0.315415 0.568215 0.243385
O O3 0.319535 0.398950 0.199097
O O4 0.292418 0.500000 0.000000
O O5 0.040748 0.864899 0.018612
O O6 0.000000 0.889899 0.774846
O O7 0.000000 0.000000 0.000000
O O8 0.250000 0.665309 0.250000
O O9 0.322574 0.732605 0.312163
O O10 0.317123 0.679307 0.046533
O O11 0.040475 0.748786 0.207103
O O12 0.000000 0.659148 0.008642
O O13 0.888221 0.327070 0.357987
O O14 0.458207 0.901092 0.208394
O O15 0.000000 0.000000 0.500000
#
# Coordination Sequence:
#
# PCOD9479328 Si02
#       7
#    16   8  16   8  16  16   8
#     4   9  20  40  61  83 118 160 199 250 300 365
#     4  10  21  38  63  86 114 160 200 248 311 380
#     4  10  22  40  62  89 122 167 208 248 322 374
#     4  10  20  38  66  78 122 162 200 248 308 382
#     4  11  23  38  63  91 127 157 209 263 303 376
#     4  10  22  38  58  89 122 157 206 248 320 372
#     4  10  21  42  61  88 124 166 206 258 319 384
#
# _framework density 19.107011
#
# number of rings (size 3 to 8) (size 9 to 14) (size 15 to 20)
#    0.000    2.182    0.000    4.364    5.091    5.091 
#    3.273    0.909    0.000    0.000    0.000    0.000 
#    0.000    0.000    0.000    0.000    0.000    0.000 
#
# Total GULP energy -245046.903107 kJ/mol
# GULP energy per Si atom -5569.247798 kJ/mol
# Density = 1.906352 g / cm^3
# Si number density = 19.107011 Si / 1000 Ang^3
#
#
#
# Elastic Constant Matrix: (Units=GPa)
#
#
# Indices 1 2 3 4 5 6 
#
# 1 116.9198 48.5140 29.5275 0.0000 0.0000 0.0000
# 2 48.5140 96.0270 30.3189 0.0000 0.0000 0.0000
# 3 29.5275 30.3189 69.7679 0.0000 0.0000 0.0000
# 4 0.0000 0.0000 0.0000 38.9484 0.0000 0.0000
# 5 0.0000 0.0000 0.0000 0.0000 -64.4818 0.0000
# 6 0.0000 0.0000 0.0000 0.0000 0.0000 26.6586
#
#
#
# Elastic Compliance Matrix: (Units=1/GPa)
#
#
# Indices 1 2 3 4 5 6 
#
# 1 0.011229 -0.004836 -0.002651 0.000000 0.000000 0.000000
# 2 -0.004836 0.014153 -0.004104 0.000000 0.000000 0.000000
# 3 -0.002651 -0.004104 0.017238 0.000000 0.000000 0.000000
# 4 0.000000 0.000000 0.000000 0.025675 0.000000 0.000000
# 5 0.000000 0.000000 0.000000 0.000000 -0.015508 0.000000
# 6 0.000000 0.000000 0.000000 0.000000 0.000000 0.037511
#
#
# Mechanical properties :
#
#
# Convention : Reuss Voigt Hill
#
# Bulk Modulus (GPa) = 51.44244 55.49283 53.46764
# Shear Modulus (GPa) = 41.68104 11.84864 26.76484
#
# Velocity S-wave (km/s) = 4.67567 2.49292 3.74677
# Velocity P-wave (km/s) = 7.49206 6.11494 6.83825
#
# Compressibility (1/GPa) = 0.01943920
#
# Stress axis : x y z
#
# Youngs Moduli (GPa) = 89.05542 70.65837 58.01005
#
# Poissons Ratio (x) = 0.34171 0.15377
# Poissons Ratio (y) = 0.43068 0.23805
# Poissons Ratio (z) = 0.23607 0.28995
#
# Static dielectric constant tensor:
#      x y z
#    x 1.717990 0.000000 0.000000 
#    y 0.000000 1.699510 0.000000 
#    z 0.000000 0.000000 1.737580 
# 
# From -- ./inp_files/11118.got.cif
#   From: 2010.05.17/outbox.cif.g08.bks.cpg/sg64_6_cif.got.tgz:11118.got - 2010.06.03 16:29:19.
