data_PCOD9479017
_publ_section_title
;
Structure prediction by ZEFSAII (Michael W. Deem and Ramdas Pophale) SiO2 
 PCOD9479017
Probable space group: C M C A
;
_chemical_formula_sum "Si O2"
_cell_formula_units_Z 88
_cell_length_a 14.782168
_cell_length_b 9.520453
_cell_length_c 27.421972
_cell_angle_alpha 90.000000
_cell_angle_beta 90.000000
_cell_angle_gamma 90.000000
_cell_volume 3859.174622
_symmetry_space_group_name_H-M "C M C A"
_symmetry_group_IT_number 64
_symmetry_cell_setting 'orthorhombic'
loop_
_space_group_symop_operation_xyz
x,y,z
-x,1/2-y,1/2+z
x,-y,-z
-x,1/2+y,1/2-z
-x,-y,-z
x,1/2+y,1/2-z
-x,y,z
x,1/2-y,1/2+z
1/2+x,1/2+y,z
1/2-x,-y,1/2+z
1/2+x,1/2-y,-z
1/2-x,y,1/2-z
1/2-x,1/2-y,-z
1/2+x,y,1/2-z
1/2-x,1/2+y,z
1/2+x,-y,1/2+z
loop_
_atom_site_type_symbol
_atom_site_label
_atom_site_fract_x
_atom_site_fract_y
_atom_site_fract_z
Si Si1 0.109052 0.897081 0.430539
Si Si2 0.400061 0.240562 0.191311
Si Si3 0.220008 0.007601 0.352445
Si Si4 0.101797 0.539613 0.605018
Si Si5 0.891017 0.713070 0.030640
Si Si6 0.750000 0.360736 0.250000
O O1 0.167758 0.886543 0.382175
O O2 0.137887 0.792966 0.474122
O O3 0.000000 0.887302 0.423150
O O4 0.129860 0.058453 0.447839
O O5 0.500000 0.191886 0.204719
O O6 0.407932 0.374121 0.155670
O O7 0.338725 0.269660 0.238252
O O8 0.349636 0.131377 0.156870
O O9 0.310189 0.051085 0.381868
O O10 0.239555 0.951285 0.298428
O O11 0.130926 0.650998 0.562929
O O12 0.000000 0.482814 0.593551
O O13 0.000000 0.714849 0.029580
#
# Coordination Sequence:
#
# PCOD9479017 Si02
#       6
#    16  16  16  16  16   8
#     4   9  16  27  51  83 110 137 173 218 265 319
#     4  10  20  37  56  74 105 141 172 218 272 318
#     4  11  20  33  56  80 102 137 188 226 263 321
#     4   9  18  33  53  78 110 143 173 212 262 315
#     4   8  14  28  49  79 113 140 169 210 264 321
#     4  10  24  38  50  78 108 134 180 230 276 322
#
# _framework density 22.802803999999998
#
# number of rings (size 3 to 8) (size 9 to 14) (size 15 to 20)
#    0.000    2.545    1.818    2.182    0.000    2.182 
#    0.000    4.545    0.000    2.182    0.000    2.545 
#    0.000    0.000    0.000    0.000    0.000    0.000 
#
# Total GULP energy -245359.659905 kJ/mol
# GULP energy per Si atom -5576.355907 kJ/mol
# Density = 2.275090 g / cm^3
# Si number density = 22.802804 Si / 1000 Ang^3
#
#
#
# Elastic Constant Matrix: (Units=GPa)
#
#
# Indices 1 2 3 4 5 6 
#
# 1 111.2568 16.0561 0.5417 0.0000 0.0000 0.0000
# 2 16.0561 30.4588 -5.2882 0.0000 0.0000 0.0000
# 3 0.5417 -5.2882 75.2869 0.0000 0.0000 0.0000
# 4 0.0000 0.0000 0.0000 -7.6229 0.0000 0.0000
# 5 0.0000 0.0000 0.0000 0.0000 40.6508 0.0000
# 6 0.0000 0.0000 0.0000 0.0000 0.0000 23.4087
#
#
#
# Elastic Compliance Matrix: (Units=1/GPa)
#
#
# Indices 1 2 3 4 5 6 
#
# 1 0.009742 -0.005211 -0.000436 0.000000 0.000000 0.000000
# 2 -0.005211 0.036024 0.002568 0.000000 0.000000 0.000000
# 3 -0.000436 0.002568 0.013466 0.000000 0.000000 0.000000
# 4 0.000000 0.000000 0.000000 -0.131183 0.000000 0.000000
# 5 0.000000 0.000000 0.000000 0.000000 0.024600 0.000000
# 6 0.000000 0.000000 0.000000 0.000000 0.000000 0.042719
#
#
# Mechanical properties :
#
#
# Convention : Reuss Voigt Hill
#
# Bulk Modulus (GPa) = 18.84187 26.62463 22.73325
# Shear Modulus (GPa) = 260.16358 25.00018 142.58188
#
# Velocity S-wave (km/s) = 10.69301 3.31473 7.91606
# Velocity P-wave (km/s) = 12.67813 5.13335 9.67177
#
# Compressibility (1/GPa) = 0.05307328
#
# Stress axis : x y z
#
# Youngs Moduli (GPa) = 102.64396 27.75918 74.26096
#
# Poissons Ratio (x) = 0.14466 0.03239
# Poissons Ratio (y) = 0.53491 -0.19069
# Poissons Ratio (z) = 0.04477 -0.07128
#
# Static dielectric constant tensor:
#      x y z
#    x 1.946960 0.000000 0.000000 
#    y 0.000000 1.935470 0.000000 
#    z 0.000000 0.000000 1.879880 
# 
# From -- ./inp_files/49960.got.cif
#   From: 2010.05.17/outbox.cif.g08.bks.cpg/sg64_25_cif.got.tgz:49960.got - 2010.06.03 16:29:19.
