data_PCOD9479755
_publ_section_title
;
Structure prediction by ZEFSAII (Michael W. Deem and Ramdas Pophale) SiO2 
 PCOD9479755
Probable space group: C M C A
;
_chemical_formula_sum "Si O2"
_cell_formula_units_Z 88
_cell_length_a 30.989222
_cell_length_b 5.050205
_cell_length_c 23.721211
_cell_angle_alpha 90.000000
_cell_angle_beta 90.000000
_cell_angle_gamma 90.000000
_cell_volume 3712.415159
_symmetry_space_group_name_H-M "C M C A"
_symmetry_group_IT_number 64
_symmetry_cell_setting 'orthorhombic'
loop_
_space_group_symop_operation_xyz
x,y,z
-x,1/2-y,1/2+z
x,-y,-z
-x,1/2+y,1/2-z
-x,-y,-z
x,1/2+y,1/2-z
-x,y,z
x,1/2-y,1/2+z
1/2+x,1/2+y,z
1/2-x,-y,1/2+z
1/2+x,1/2-y,-z
1/2-x,y,1/2-z
1/2-x,1/2-y,-z
1/2+x,y,1/2-z
1/2-x,1/2+y,z
1/2+x,-y,1/2+z
loop_
_atom_site_type_symbol
_atom_site_label
_atom_site_fract_x
_atom_site_fract_y
_atom_site_fract_z
Si Si1 0.576775 0.500000 0.500000
Si Si2 0.815236 0.735497 0.281213
Si Si3 0.049795 0.576854 0.125070
Si Si4 0.345983 0.824135 0.547278
Si Si5 0.104869 0.069983 0.156124
Si Si6 0.221992 0.994950 0.393834
O O1 0.552635 0.597982 0.443647
O O2 0.609253 0.274414 0.478994
O O3 0.802032 0.432783 0.269494
O O4 0.866322 0.685905 0.292841
O O5 0.796760 0.895749 0.334001
O O6 0.070578 0.294921 0.139954
O O7 0.000000 0.597233 0.141631
O O8 0.078975 0.796477 0.156299
O O9 0.360002 0.963495 0.605512
O O10 0.315903 0.580521 0.563661
O O11 0.324129 0.000000 0.500000
O O12 0.261919 0.791802 0.400871
#
# Coordination Sequence:
#
# PCOD9479755 Si02
#       6
#     8  16  16  16  16  16
#     4  10  21  36  58  88 120 168 216 246 272 358
#     4  11  23  42  70  90 112 156 204 251 306 361
#     4  11  21  36  60  90 127 160 195 249 304 343
#     4  10  21  38  60  81 122 167 204 238 290 346
#     4  10  22  39  60  90 122 156 203 247 292 367
#     4  11  26  41  59  91 125 153 198 252 303 359
#
# _framework density 23.704246000000001
#
# number of rings (size 3 to 8) (size 9 to 14) (size 15 to 20)
#    0.000    1.455    1.818    3.000    2.545    5.818 
#    0.000    2.727    0.000   10.909    0.000    0.000 
#    0.000    0.000    0.000    0.000    0.000    0.000 
#
# Total GULP energy -245898.071394 kJ/mol
# GULP energy per Si atom -5588.592532 kJ/mol
# Density = 2.365029 g / cm^3
# Si number density = 23.704246 Si / 1000 Ang^3
#
#
#
# Elastic Constant Matrix: (Units=GPa)
#
#
# Indices 1 2 3 4 5 6 
#
# 1 81.9426 7.5313 4.5846 0.0000 0.0000 0.0000
# 2 7.5313 94.0765 22.8645 0.0000 0.0000 0.0000
# 3 4.5846 22.8645 32.6437 0.0000 0.0000 0.0000
# 4 0.0000 0.0000 0.0000 30.8554 0.0000 0.0000
# 5 0.0000 0.0000 0.0000 0.0000 25.0173 0.0000
# 6 0.0000 0.0000 0.0000 0.0000 0.0000 -166.1017
#
#
#
# Elastic Compliance Matrix: (Units=1/GPa)
#
#
# Indices 1 2 3 4 5 6 
#
# 1 0.012337 -0.000683 -0.001254 0.000000 0.000000 0.000000
# 2 -0.000683 0.012848 -0.008903 0.000000 0.000000 0.000000
# 3 -0.001254 -0.008903 0.037046 0.000000 0.000000 0.000000
# 4 0.000000 0.000000 0.000000 0.032409 0.000000 0.000000
# 5 0.000000 0.000000 0.000000 0.000000 0.039972 0.000000
# 6 0.000000 0.000000 0.000000 0.000000 0.000000 -0.006020
#
#
# Mechanical properties :
#
#
# Convention : Reuss Voigt Hill
#
# Bulk Modulus (GPa) = 24.66094 30.95819 27.80956
# Shear Modulus (GPa) = 30.52696 -10.46697 10.02999
#
# Velocity S-wave (km/s) = 3.59252 -2.10363 2.05925
# Velocity P-wave (km/s) = 5.25685 2.68109 4.17269
#
# Compressibility (1/GPa) = 0.04054996
#
# Stress axis : x y z
#
# Youngs Moduli (GPa) = 81.05958 77.83204 26.99338
#
# Poissons Ratio (x) = 0.05314 0.03386
# Poissons Ratio (y) = 0.05534 0.24033
# Poissons Ratio (z) = 0.10168 0.69296
#
# Static dielectric constant tensor:
#      x y z
#    x 1.863490 0.000000 0.000000 
#    y 0.000000 1.867190 0.000000 
#    z 0.000000 0.000000 2.006210 
# 
# From -- ./inp_files/47072.got.cif
#   From: 2010.05.17/outbox.cif.g08.bks.cpg/sg64_24_cif.got.tgz:47072.got - 2010.06.03 16:29:19.
