data_PCOD9479094
_publ_section_title
;
Structure prediction by ZEFSAII (Michael W. Deem and Ramdas Pophale) SiO2 
 PCOD9479094
Probable space group: C M C A
;
_chemical_formula_sum "Si O2"
_cell_formula_units_Z 112
_cell_length_a 15.944725
_cell_length_b 13.537296
_cell_length_c 24.765026
_cell_angle_alpha 90.000000
_cell_angle_beta 90.000000
_cell_angle_gamma 90.000000
_cell_volume 5345.492773
_symmetry_space_group_name_H-M "C M C A"
_symmetry_group_IT_number 64
_symmetry_cell_setting 'orthorhombic'
loop_
_space_group_symop_operation_xyz
x,y,z
-x,1/2-y,1/2+z
x,-y,-z
-x,1/2+y,1/2-z
-x,-y,-z
x,1/2+y,1/2-z
-x,y,z
x,1/2-y,1/2+z
1/2+x,1/2+y,z
1/2-x,-y,1/2+z
1/2+x,1/2-y,-z
1/2-x,y,1/2-z
1/2-x,1/2-y,-z
1/2+x,y,1/2-z
1/2-x,1/2+y,z
1/2+x,-y,1/2+z
loop_
_atom_site_type_symbol
_atom_site_label
_atom_site_fract_x
_atom_site_fract_y
_atom_site_fract_z
Si Si1 0.159425 0.956610 0.661090
Si Si2 0.590406 0.066297 0.052931
Si Si3 0.346156 0.065870 0.370847
Si Si4 0.401670 0.037403 0.728004
Si Si5 0.225633 0.843012 0.965274
Si Si6 0.100382 0.232375 0.839550
Si Si7 0.904371 0.607534 0.555115
O O1 0.098853 0.985330 0.611391
O O2 0.253872 0.975949 0.642388
O O3 0.144074 0.838064 0.669515
O O4 0.143020 0.013101 0.716298
O O5 0.500000 0.122457 0.054230
O O6 0.682838 0.112528 0.047001
O O7 0.585312 0.000000 0.000000
O O8 0.324712 0.160611 0.408242
O O9 0.390014 0.055637 0.313109
O O10 0.395838 0.991097 0.409336
O O11 0.500000 0.047784 0.738576
O O12 0.374241 0.139848 0.698688
O O13 0.250000 0.750000 0.000000
O O14 0.162449 0.894858 0.007399
O O15 0.114006 0.194031 0.900990
O O16 0.000000 0.245880 0.832624
O O17 0.000000 0.617961 0.535552
#
# Coordination Sequence:
#
# PCOD9479094 Si02
#       7
#    16  16  16  16  16  16  16
#     4  11  20  37  62  84 117 160 200 248 311 374
#     4  10  21  38  59  83 113 152 200 251 301 360
#     4  10  21  36  54  82 116 150 196 250 297 357
#     4  10  21  38  59  86 118 154 204 258 311 380
#     4  11  22  35  55  85 118 153 199 250 305 376
#     4   9  19  36  60  88 114 151 204 251 300 372
#     4  10  20  37  61  86 116 155 198 248 310 377
#
# _framework density 20.952231000000001
#
# number of rings (size 3 to 8) (size 9 to 14) (size 15 to 20)
#    0.000    1.857    0.000    6.857    0.000    3.429 
#    0.000    8.571    0.000    1.714    0.000    0.000 
#    0.000    0.000    0.000    0.000    0.000    0.000 
#
# Total GULP energy -311816.680811 kJ/mol
# GULP energy per Si atom -5568.155014 kJ/mol
# Density = 2.090454 g / cm^3
# Si number density = 20.952231 Si / 1000 Ang^3
#
#
#
# Elastic Constant Matrix: (Units=GPa)
#
#
# Indices 1 2 3 4 5 6 
#
# 1 100.6316 13.2345 21.3237 0.0000 0.0000 0.0000
# 2 13.2345 51.4481 24.1328 0.0000 0.0000 0.0000
# 3 21.3237 24.1328 129.5801 0.0000 0.0000 0.0000
# 4 0.0000 0.0000 0.0000 36.0116 0.0000 0.0000
# 5 0.0000 0.0000 0.0000 0.0000 50.4309 0.0000
# 6 0.0000 0.0000 0.0000 0.0000 0.0000 30.0854
#
#
#
# Elastic Compliance Matrix: (Units=1/GPa)
#
#
# Indices 1 2 3 4 5 6 
#
# 1 0.010494 -0.002070 -0.001341 0.000000 0.000000 0.000000
# 2 -0.002070 0.021706 -0.003702 0.000000 0.000000 0.000000
# 3 -0.001341 -0.003702 0.008627 0.000000 0.000000 0.000000
# 4 0.000000 0.000000 0.000000 0.027769 0.000000 0.000000
# 5 0.000000 0.000000 0.000000 0.000000 0.019829 0.000000
# 6 0.000000 0.000000 0.000000 0.000000 0.000000 0.033239
#
#
# Mechanical properties :
#
#
# Convention : Reuss Voigt Hill
#
# Bulk Modulus (GPa) = 37.59339 44.33798 40.96569
# Shear Modulus (GPa) = 34.54058 38.17017 36.35537
#
# Velocity S-wave (km/s) = 4.06463 4.27285 4.17004
# Velocity P-wave (km/s) = 6.32532 6.74910 6.54064
#
# Compressibility (1/GPa) = 0.02660042
#
# Stress axis : x y z
#
# Youngs Moduli (GPa) = 95.29511 46.07021 115.91007
#
# Poissons Ratio (x) = 0.09538 0.15547
# Poissons Ratio (y) = 0.19728 0.42908
# Poissons Ratio (z) = 0.12782 0.17054
#
# Static dielectric constant tensor:
#      x y z
#    x 1.762340 0.000000 0.000000 
#    y 0.000000 1.848430 0.000000 
#    z 0.000000 0.000000 1.838330 
# 
# From -- ./inp_files/45223.got.cif
#   From: 2010.05.17/outbox.cif.g08.bks.cpg/sg64_23_cif.got.tgz:45223.got - 2010.06.03 16:29:19.
