data_PCOD9479996
_publ_section_title
;
Structure prediction by ZEFSAII (Michael W. Deem and Ramdas Pophale) SiO2 
 PCOD9479996
Probable space group: C M C A
;
_chemical_formula_sum "Si O2"
_cell_formula_units_Z 96
_cell_length_a 8.811473
_cell_length_b 30.575614
_cell_length_c 19.680012
_cell_angle_alpha 90.000000
_cell_angle_beta 90.000000
_cell_angle_gamma 90.000000
_cell_volume 5302.113994
_symmetry_space_group_name_H-M "C M C A"
_symmetry_group_IT_number 64
_symmetry_cell_setting 'orthorhombic'
loop_
_space_group_symop_operation_xyz
x,y,z
-x,1/2-y,1/2+z
x,-y,-z
-x,1/2+y,1/2-z
-x,-y,-z
x,1/2+y,1/2-z
-x,y,z
x,1/2-y,1/2+z
1/2+x,1/2+y,z
1/2-x,-y,1/2+z
1/2+x,1/2-y,-z
1/2-x,y,1/2-z
1/2-x,1/2-y,-z
1/2+x,y,1/2-z
1/2-x,1/2+y,z
1/2+x,-y,1/2+z
loop_
_atom_site_type_symbol
_atom_site_label
_atom_site_fract_x
_atom_site_fract_y
_atom_site_fract_z
Si Si1 0.182155 0.612641 0.590847
Si Si2 0.182696 0.130979 0.065997
Si Si3 0.182731 0.268758 0.569705
Si Si4 0.818946 0.933752 0.676566
Si Si5 0.317626 0.693635 0.674815
Si Si6 0.181929 0.464312 0.176039
O O1 0.221672 0.619275 0.511786
O O2 0.252515 0.652058 0.634480
O O3 0.246893 0.567697 0.620722
O O4 0.000000 0.613586 0.597223
O O5 0.230777 0.181059 0.079624
O O6 0.255499 0.097599 0.118655
O O7 0.000000 0.128733 0.072406
O O8 0.250000 0.250000 0.500000
O O9 0.224063 0.236788 0.631501
O O10 0.000000 0.268491 0.563559
O O11 0.750000 0.922408 0.750000
O O12 0.000000 0.930332 0.680035
O O13 0.780732 0.984764 0.662771
O O14 0.500000 0.690482 0.678033
O O15 0.250000 0.695114 0.750000
O O16 0.250000 0.452923 0.250000
O O17 0.000000 0.459467 0.177762
#
# Coordination Sequence:
#
# PCOD9479996 Si02
#       6
#    16  16  16  16  16  16
#     4  11  22  37  59  86 119 155 192 238 291 348
#     4  10  22  39  60  87 119 153 193 239 290 349
#     4  10  21  39  61  85 115 153 195 238 288 345
#     4  10  22  40  62  86 115 153 195 243 292 344
#     4  11  23  38  59  86 118 154 195 242 290 344
#     4  10  21  38  59  84 116 153 196 241 290 347
#
# _framework density 18.105986999999999
#
# number of rings (size 3 to 8) (size 9 to 14) (size 15 to 20)
#    0.000    1.667    1.667    2.500    0.000    6.000 
#    0.000    5.000    0.000    0.000    0.000    0.000 
#    0.000    0.000    0.000    0.000    0.000    0.000 
#
# Total GULP energy -268240.954287 kJ/mol
# GULP energy per Si atom -5588.353214 kJ/mol
# Density = 1.806478 g / cm^3
# Si number density = 18.105987 Si / 1000 Ang^3
#
#
#
# Elastic Constant Matrix: (Units=GPa)
#
#
# Indices 1 2 3 4 5 6 
#
# 1 49.3264 54.5226 66.8164 0.0000 0.0000 0.0000
# 2 54.5226 138.2307 115.7042 0.0000 0.0000 0.0000
# 3 66.8164 115.7042 183.1661 0.0000 0.0000 0.0000
# 4 0.0000 0.0000 0.0000 39.8531 0.0000 0.0000
# 5 0.0000 0.0000 0.0000 0.0000 33.9605 0.0000
# 6 0.0000 0.0000 0.0000 0.0000 0.0000 28.4570
#
#
#
# Elastic Compliance Matrix: (Units=1/GPa)
#
#
# Indices 1 2 3 4 5 6 
#
# 1 0.044200 -0.008356 -0.010845 0.000000 0.000000 0.000000
# 2 -0.008356 0.016931 -0.007647 0.000000 0.000000 0.000000
# 3 -0.010845 -0.007647 0.014246 0.000000 0.000000 0.000000
# 4 0.000000 0.000000 0.000000 0.025092 0.000000 0.000000
# 5 0.000000 0.000000 0.000000 0.000000 0.029446 0.000000
# 6 0.000000 0.000000 0.000000 0.000000 0.000000 0.035141
#
#
# Mechanical properties :
#
#
# Convention : Reuss Voigt Hill
#
# Bulk Modulus (GPa) = 46.12372 93.86774 69.99573
# Shear Modulus (GPa) = 22.12595 29.36612 25.74603
#
# Velocity S-wave (km/s) = 3.49954 4.03165 3.77498
# Velocity P-wave (km/s) = 6.46982 8.58070 7.59891
#
# Compressibility (1/GPa) = 0.02168082
#
# Stress axis : x y z
#
# Youngs Moduli (GPa) = 22.62445 59.06332 70.19468
#
# Poissons Ratio (x) = 0.49355 0.76126
# Poissons Ratio (y) = 0.18906 0.53677
# Poissons Ratio (z) = 0.24536 0.45165
#
# Static dielectric constant tensor:
#      x y z
#    x 1.608750 0.000000 0.000000 
#    y 0.000000 1.612950 0.000000 
#    z 0.000000 0.000000 1.579140 
# 
# From -- ./inp_files/37124.got.cif
#   From: 2010.05.17/outbox.cif.g08.bks.cpg/sg64_19_cif.got.tgz:37124.got - 2010.06.03 16:29:19.
