data_PCOD9479960
_publ_section_title
;
Structure prediction by ZEFSAII (Michael W. Deem and Ramdas Pophale) SiO2 
 PCOD9479960
Probable space group: C M C A
;
_chemical_formula_sum "Si O2"
_cell_formula_units_Z 80
_cell_length_a 21.346738
_cell_length_b 18.076129
_cell_length_c 10.037023
_cell_angle_alpha 90.000000
_cell_angle_beta 90.000000
_cell_angle_gamma 90.000000
_cell_volume 3872.949830
_symmetry_space_group_name_H-M "C M C A"
_symmetry_group_IT_number 64
_symmetry_cell_setting 'orthorhombic'
loop_
_space_group_symop_operation_xyz
x,y,z
-x,1/2-y,1/2+z
x,-y,-z
-x,1/2+y,1/2-z
-x,-y,-z
x,1/2+y,1/2-z
-x,y,z
x,1/2-y,1/2+z
1/2+x,1/2+y,z
1/2-x,-y,1/2+z
1/2+x,1/2-y,-z
1/2-x,y,1/2-z
1/2-x,1/2-y,-z
1/2+x,y,1/2-z
1/2-x,1/2+y,z
1/2+x,-y,1/2+z
loop_
_atom_site_type_symbol
_atom_site_label
_atom_site_fract_x
_atom_site_fract_y
_atom_site_fract_z
Si Si1 0.000000 0.964327 0.145805
Si Si2 0.705756 0.467214 0.630291
Si Si3 0.000000 0.569290 0.103184
Si Si4 0.129896 0.101887 0.758091
Si Si5 0.620660 0.338632 0.526427
Si Si6 0.792904 0.778154 0.122233
O O1 0.063768 0.917724 0.173649
O O2 0.000000 0.030791 0.253674
O O3 0.000000 0.000000 0.000000
O O4 0.738909 0.500000 0.500000
O O5 0.750000 0.449054 0.750000
O O6 0.656074 0.527445 0.686572
O O7 0.673656 0.394285 0.577252
O O8 0.058391 0.622044 0.076357
O O9 0.000000 0.500000 0.000000
O O10 0.120660 0.159000 0.634362
O O11 0.183658 0.137474 0.852123
O O12 0.640914 0.262611 0.594102
O O13 0.750000 0.759377 0.250000
O O14 0.750000 0.750000 0.000000
#
# Coordination Sequence:
#
# PCOD9479960 Si02
#       6
#     8  16   8  16  16  16
#     4  12  26  45  70 108 144 174 234 309 352 408
#     4  10  21  37  66  99 133 179 236 285 346 409
#     4  12  20  45  76 100 134 184 238 285 351 421
#     4  11  23  45  68  98 141 184 230 295 351 408
#     4  11  22  42  72  98 133 191 237 282 347 424
#     4  12  26  45  70 101 148 190 232 289 352 422
#
# _framework density 20.656089999999999
#
# number of rings (size 3 to 8) (size 9 to 14) (size 15 to 20)
#    0.000    0.800    6.000    1.800    2.800    3.200 
#    0.000    0.000    0.000    0.000    0.000    0.000 
#    0.000    0.000    0.000    0.000    0.000    0.000 
#
# Total GULP energy -223228.202679 kJ/mol
# GULP energy per Si atom -5580.705067 kJ/mol
# Density = 2.060908 g / cm^3
# Si number density = 20.656090 Si / 1000 Ang^3
#
#
#
# Elastic Constant Matrix: (Units=GPa)
#
#
# Indices 1 2 3 4 5 6 
#
# 1 98.8723 12.5245 64.4159 0.0000 0.0000 0.0000
# 2 12.5245 58.9186 24.7794 0.0000 0.0000 0.0000
# 3 64.4159 24.7794 153.3120 0.0000 0.0000 0.0000
# 4 0.0000 0.0000 0.0000 21.4271 0.0000 0.0000
# 5 0.0000 0.0000 0.0000 0.0000 33.5711 0.0000
# 6 0.0000 0.0000 0.0000 0.0000 0.0000 44.3185
#
#
#
# Elastic Compliance Matrix: (Units=1/GPa)
#
#
# Indices 1 2 3 4 5 6 
#
# 1 0.013942 -0.000537 -0.005771 0.000000 0.000000 0.000000
# 2 -0.000537 0.018231 -0.002721 0.000000 0.000000 0.000000
# 3 -0.005771 -0.002721 0.009387 0.000000 0.000000 0.000000
# 4 0.000000 0.000000 0.000000 0.046670 0.000000 0.000000
# 5 0.000000 0.000000 0.000000 0.000000 0.029787 0.000000
# 6 0.000000 0.000000 0.000000 0.000000 0.000000 0.022564
#
#
# Mechanical properties :
#
#
# Convention : Reuss Voigt Hill
#
# Bulk Modulus (GPa) = 42.54858 57.17140 49.85999
# Shear Modulus (GPa) = 30.03478 33.82221 31.92849
#
# Velocity S-wave (km/s) = 3.81732 4.05087 3.93583
# Velocity P-wave (km/s) = 6.33029 7.04395 6.69663
#
# Compressibility (1/GPa) = 0.02350254
#
# Stress axis : x y z
#
# Youngs Moduli (GPa) = 71.72579 54.85140 106.52686
#
# Poissons Ratio (x) = 0.02943 0.61479
# Poissons Ratio (y) = 0.03848 0.28988
# Poissons Ratio (z) = 0.41394 0.14926
#
# Static dielectric constant tensor:
#      x y z
#    x 1.835940 0.000000 0.000000 
#    y 0.000000 1.750330 0.000000 
#    z 0.000000 0.000000 1.767660 
# 
# From -- ./inp_files/8142.got.cif
#   From: 2010.05.17/outbox.cif.g08.bks.cpg/sg64_5_cif.got.tgz:8142.got - 2010.06.03 16:29:19.
