data_PCOD9479891
_publ_section_title
;
Structure prediction by ZEFSAII (Michael W. Deem and Ramdas Pophale) SiO2 
 PCOD9479891
Probable space group: C M C A
;
_chemical_formula_sum "Si O2"
_cell_formula_units_Z 52
_cell_length_a 17.707837
_cell_length_b 27.522212
_cell_length_c 4.980709
_cell_angle_alpha 90.000000
_cell_angle_beta 90.000000
_cell_angle_gamma 90.000000
_cell_volume 2427.392580
_symmetry_space_group_name_H-M "C M C A"
_symmetry_group_IT_number 64
_symmetry_cell_setting 'orthorhombic'
loop_
_space_group_symop_operation_xyz
x,y,z
-x,1/2-y,1/2+z
x,-y,-z
-x,1/2+y,1/2-z
-x,-y,-z
x,1/2+y,1/2-z
-x,y,z
x,1/2-y,1/2+z
1/2+x,1/2+y,z
1/2-x,-y,1/2+z
1/2+x,1/2-y,-z
1/2-x,y,1/2-z
1/2-x,1/2-y,-z
1/2+x,y,1/2-z
1/2-x,1/2+y,z
1/2+x,-y,1/2+z
loop_
_atom_site_type_symbol
_atom_site_label
_atom_site_fract_x
_atom_site_fract_y
_atom_site_fract_z
Si Si1 0.417159 0.919052 0.807615
Si Si2 0.410767 0.281868 0.367926
Si Si3 0.837680 0.382079 0.302035
Si Si4 0.000000 0.500000 0.500000
O O1 0.500000 0.893718 0.802174
O O2 0.361034 0.891758 0.607629
O O3 0.435678 0.971203 0.681341
O O4 0.386904 0.917177 0.108398
O O5 0.500000 0.293568 0.338881
O O6 0.395761 0.262721 0.665802
O O7 0.362491 0.328247 0.286223
O O8 0.750000 0.389856 0.250000
#
# Coordination Sequence:
#
# PCOD9479891 Si02
#       4
#    16  16  16   4
#     4  10  22  42  68  93 122 167 225 263 318 396
#     4  10  21  37  59  88 125 174 227 265 304 374
#     4  12  24  39  63  99 137 169 207 272 341 386
#     4   8  24  42  76  94 112 170 226 270 316 390
#
# _framework density 21.422163000000001
#
# number of rings (size 3 to 8) (size 9 to 14) (size 15 to 20)
#    0.923    0.615    0.000    5.538    0.000    6.154 
#    0.000    3.077    0.000    0.000    0.000    0.000 
#    0.000    0.000    0.000    0.000    0.000    0.000 
#
# Total GULP energy -144754.817326 kJ/mol
# GULP energy per Si atom -5567.492974 kJ/mol
# Density = 2.137340 g / cm^3
# Si number density = 21.422163 Si / 1000 Ang^3
#
#
#
# Elastic Constant Matrix: (Units=GPa)
#
#
# Indices 1 2 3 4 5 6 
#
# 1 75.7088 -9.5976 -4.8695 0.0000 0.0000 0.0000
# 2 -9.5976 56.3532 -8.7728 0.0000 0.0000 0.0000
# 3 -4.8695 -8.7728 67.3911 0.0000 0.0000 0.0000
# 4 0.0000 0.0000 0.0000 37.7799 0.0000 0.0000
# 5 0.0000 0.0000 0.0000 0.0000 52.6577 0.0000
# 6 0.0000 0.0000 0.0000 0.0000 0.0000 -227.3041
#
#
#
# Elastic Compliance Matrix: (Units=1/GPa)
#
#
# Indices 1 2 3 4 5 6 
#
# 1 0.013613 0.002523 0.001312 0.000000 0.000000 0.000000
# 2 0.002523 0.018580 0.002601 0.000000 0.000000 0.000000
# 3 0.001312 0.002601 0.015272 0.000000 0.000000 0.000000
# 4 0.000000 0.000000 0.000000 0.026469 0.000000 0.000000
# 5 0.000000 0.000000 0.000000 0.000000 0.018991 0.000000
# 6 0.000000 0.000000 0.000000 0.000000 0.000000 -0.004399
#
#
# Mechanical properties :
#
#
# Convention : Reuss Voigt Hill
#
# Bulk Modulus (GPa) = 16.57391 16.99704 16.78547
# Shear Modulus (GPa) = 52.21081 -12.52709 19.84186
#
# Velocity S-wave (km/s) = 4.94219 -2.42083 3.04671
# Velocity P-wave (km/s) = 6.34985 0.37102 4.49768
#
# Compressibility (1/GPa) = 0.06033578
#
# Stress axis : x y z
#
# Youngs Moduli (GPa) = 73.46089 53.82200 65.47867
#
# Poissons Ratio (x) = -0.13577 -0.08591
# Poissons Ratio (y) = -0.18532 -0.17031
# Poissons Ratio (z) = -0.09638 -0.13999
#
# Static dielectric constant tensor:
#      x y z
#    x 1.734130 0.000000 0.000000 
#    y 0.000000 1.803640 0.000000 
#    z 0.000000 0.000000 1.731050 
# 
# From -- ./inp_files/1174.got.cif
#   From: 2010.05.17/outbox.cif.g08.bks.cpg/sg64_1_cif.got.tgz:1174.got - 2010.06.03 16:29:19.
