data_PCOD9479149
_publ_section_title
;
Structure prediction by ZEFSAII (Michael W. Deem and Ramdas Pophale) SiO2 
 PCOD9479149
Probable space group: C M C A
;
_chemical_formula_sum "Si O2"
_cell_formula_units_Z 72
_cell_length_a 28.187066
_cell_length_b 15.083805
_cell_length_c 7.695528
_cell_angle_alpha 90.000000
_cell_angle_beta 90.000000
_cell_angle_gamma 90.000000
_cell_volume 3271.893842
_symmetry_space_group_name_H-M "C M C A"
_symmetry_group_IT_number 64
_symmetry_cell_setting 'orthorhombic'
loop_
_space_group_symop_operation_xyz
x,y,z
-x,1/2-y,1/2+z
x,-y,-z
-x,1/2+y,1/2-z
-x,-y,-z
x,1/2+y,1/2-z
-x,y,z
x,1/2-y,1/2+z
1/2+x,1/2+y,z
1/2-x,-y,1/2+z
1/2+x,1/2-y,-z
1/2-x,y,1/2-z
1/2-x,1/2-y,-z
1/2+x,y,1/2-z
1/2-x,1/2+y,z
1/2+x,-y,1/2+z
loop_
_atom_site_type_symbol
_atom_site_label
_atom_site_fract_x
_atom_site_fract_y
_atom_site_fract_z
Si Si1 0.164294 0.000000 0.500000
Si Si2 0.500000 0.633388 0.074689
Si Si3 0.606001 0.358410 0.962794
Si Si4 0.601026 0.850058 0.120011
Si Si5 0.205273 0.940906 0.836063
Si Si6 0.500000 0.839778 0.162583
O O1 0.133939 0.089367 0.503554
O O2 0.192563 0.995509 0.322798
O O3 0.555091 0.601147 0.107658
O O4 0.500000 0.732900 0.150637
O O5 0.500000 0.637920 0.865354
O O6 0.605912 0.253973 0.917834
O O7 0.655551 0.395295 0.889030
O O8 0.607233 0.367076 0.173220
O O9 0.547085 0.874319 0.075567
O O10 0.250000 0.887365 0.750000
O O11 0.219044 0.000000 0.000000
#
# Coordination Sequence:
#
# PCOD9479149 Si02
#       6
#     8   8  16  16  16   8
#     4  12  24  41  66  94 132 171 216 276 330 378
#     4   8  16  32  60  90 129 172 212 264 320 367
#     4  10  20  40  65  96 132 175 222 267 317 394
#     4  10  20  37  63  97 136 176 220 266 321 382
#     4  12  25  46  69  94 128 171 218 273 337 391
#     4   8  16  31  55  90 133 177 214 256 313 381
#
# _framework density 22.005604000000002
#
# number of rings (size 3 to 8) (size 9 to 14) (size 15 to 20)
#    0.000    1.778    3.333    1.333    0.000    2.222 
#    0.000    7.222    0.000    0.000    0.000    0.000 
#    0.000    0.000    0.000    0.000    0.000    0.000 
#
# Total GULP energy -200549.300895 kJ/mol
# GULP energy per Si atom -5570.813914 kJ/mol
# Density = 2.195552 g / cm^3
# Si number density = 22.005604 Si / 1000 Ang^3
#
#
#
# Elastic Constant Matrix: (Units=GPa)
#
#
# Indices 1 2 3 4 5 6 
#
# 1 176.5124 39.0418 55.7552 0.0000 0.0000 0.0000
# 2 39.0418 38.7238 15.1460 0.0000 0.0000 0.0000
# 3 55.7552 15.1460 112.6012 0.0000 0.0000 0.0000
# 4 0.0000 0.0000 0.0000 23.8674 0.0000 0.0000
# 5 0.0000 0.0000 0.0000 0.0000 84.7747 0.0000
# 6 0.0000 0.0000 0.0000 0.0000 0.0000 25.0969
#
#
#
# Elastic Compliance Matrix: (Units=1/GPa)
#
#
# Indices 1 2 3 4 5 6 
#
# 1 0.008211 -0.007060 -0.003116 0.000000 0.000000 0.000000
# 2 -0.007060 0.033328 -0.000987 0.000000 0.000000 0.000000
# 3 -0.003116 -0.000987 0.010557 0.000000 0.000000 0.000000
# 4 0.000000 0.000000 0.000000 0.041898 0.000000 0.000000
# 5 0.000000 0.000000 0.000000 0.000000 0.011796 0.000000
# 6 0.000000 0.000000 0.000000 0.000000 0.000000 0.039846
#
#
# Mechanical properties :
#
#
# Convention : Reuss Voigt Hill
#
# Bulk Modulus (GPa) = 33.59174 60.85817 47.22495
# Shear Modulus (GPa) = 28.10808 41.27409 34.69108
#
# Velocity S-wave (km/s) = 3.57783 4.33554 3.97478
# Velocity P-wave (km/s) = 5.68912 7.26487 6.52474
#
# Compressibility (1/GPa) = 0.02976922
#
# Stress axis : x y z
#
# Youngs Moduli (GPa) = 121.78573 30.00503 94.72656
#
# Poissons Ratio (x) = 0.21183 0.29519
# Poissons Ratio (y) = 0.85977 0.09352
# Poissons Ratio (z) = 0.37951 0.02962
#
# Static dielectric constant tensor:
#      x y z
#    x 1.942670 0.000000 0.000000 
#    y 0.000000 1.764800 0.000000 
#    z 0.000000 0.000000 1.741120 
# 
# From -- ./inp_files/10065.got.cif
#   From: 2010.05.17/outbox.cif.g08.bks.cpg/sg64_6_cif.got.tgz:10065.got - 2010.06.03 16:29:19.
