data_PCOD9479553
_publ_section_title
;
Structure prediction by ZEFSAII (Michael W. Deem and Ramdas Pophale) SiO2 
 PCOD9479553
Probable space group: C M C A
;
_chemical_formula_sum "Si O2"
_cell_formula_units_Z 72
_cell_length_a 12.568180
_cell_length_b 13.104056
_cell_length_c 23.797267
_cell_angle_alpha 90.000000
_cell_angle_beta 90.000000
_cell_angle_gamma 90.000000
_cell_volume 3919.270293
_symmetry_space_group_name_H-M "C M C A"
_symmetry_group_IT_number 64
_symmetry_cell_setting 'orthorhombic'
loop_
_space_group_symop_operation_xyz
x,y,z
-x,1/2-y,1/2+z
x,-y,-z
-x,1/2+y,1/2-z
-x,-y,-z
x,1/2+y,1/2-z
-x,y,z
x,1/2-y,1/2+z
1/2+x,1/2+y,z
1/2-x,-y,1/2+z
1/2+x,1/2-y,-z
1/2-x,y,1/2-z
1/2-x,1/2-y,-z
1/2+x,y,1/2-z
1/2-x,1/2+y,z
1/2+x,-y,1/2+z
loop_
_atom_site_type_symbol
_atom_site_label
_atom_site_fract_x
_atom_site_fract_y
_atom_site_fract_z
Si Si1 0.500000 0.419843 0.678557
Si Si2 0.287258 0.281677 0.415956
Si Si3 0.373320 0.378667 0.995645
Si Si4 0.175581 0.254316 0.800209
Si Si5 0.500000 0.886298 0.111983
Si Si6 0.500000 0.621280 0.741271
O O1 0.399470 0.346458 0.680807
O O2 0.500000 0.493404 0.624716
O O3 0.500000 0.499810 0.730786
O O4 0.324712 0.171614 0.439279
O O5 0.192882 0.324628 0.454781
O O6 0.244943 0.280394 0.352777
O O7 0.393230 0.350667 0.418368
O O8 0.500000 0.357659 0.998818
O O9 0.358719 0.500000 0.000000
O O10 0.250000 0.290230 0.750000
O O11 0.101434 0.164708 0.774505
O O12 0.500000 0.839449 0.176120
#
# Coordination Sequence:
#
# PCOD9479553 Si02
#       6
#     8  16  16  16   8   8
#     4   9  23  36  58  92 124 164 208 239 301 367
#     4  11  23  41  67  88 126 165 201 262 305 362
#     4  10  24  45  63  91 120 161 213 258 312 364
#     4  11  21  38  62  92 124 162 202 244 309 368
#     4  10  20  42  58  90 129 161 199 247 308 362
#     4   9  21  40  52  89 133 156 195 252 293 370
#
# _framework density 18.370766
#
# number of rings (size 3 to 8) (size 9 to 14) (size 15 to 20)
#    0.667    1.111    3.333    0.000    6.222    2.667 
#    0.000    0.556    0.000    0.000    0.000    0.000 
#    0.000    0.000    0.000    0.000    0.000    0.000 
#
# Total GULP energy -200703.262039 kJ/mol
# GULP energy per Si atom -5575.090612 kJ/mol
# Density = 1.832895 g / cm^3
# Si number density = 18.370766 Si / 1000 Ang^3
#
#
#
# Elastic Constant Matrix: (Units=GPa)
#
#
# Indices 1 2 3 4 5 6 
#
# 1 94.5995 16.7363 -2.2040 0.0000 0.0000 0.0000
# 2 16.7363 55.1770 -28.3025 0.0000 0.0000 0.0000
# 3 -2.2040 -28.3025 30.7485 0.0000 0.0000 0.0000
# 4 0.0000 0.0000 0.0000 15.5811 0.0000 0.0000
# 5 0.0000 0.0000 0.0000 0.0000 31.4225 0.0000
# 6 0.0000 0.0000 0.0000 0.0000 0.0000 15.3739
#
#
#
# Elastic Compliance Matrix: (Units=1/GPa)
#
#
# Indices 1 2 3 4 5 6 
#
# 1 0.011492 -0.005803 -0.004518 0.000000 0.000000 0.000000
# 2 -0.005803 0.037264 0.033884 0.000000 0.000000 0.000000
# 3 -0.004518 0.033884 0.063386 0.000000 0.000000 0.000000
# 4 0.000000 0.000000 0.000000 0.064180 0.000000 0.000000
# 5 0.000000 0.000000 0.000000 0.000000 0.031824 0.000000
# 6 0.000000 0.000000 0.000000 0.000000 0.000000 0.065045
#
#
# Mechanical properties :
#
#
# Convention : Reuss Voigt Hill
#
# Bulk Modulus (GPa) = 6.27874 16.99829 11.63852
# Shear Modulus (GPa) = 17.91111 25.42853 21.66982
#
# Velocity S-wave (km/s) = 3.12585 3.72450 3.43823
# Velocity P-wave (km/s) = 4.05625 5.26962 4.70223
#
# Compressibility (1/GPa) = 0.15926770
#
# Stress axis : x y z
#
# Youngs Moduli (GPa) = 87.01467 26.83559 15.77630
#
# Poissons Ratio (x) = 0.15573 0.07127
# Poissons Ratio (y) = 0.50496 -0.53456
# Poissons Ratio (z) = 0.39312 -0.90929
#
# Static dielectric constant tensor:
#      x y z
#    x 1.627240 0.000000 0.000000 
#    y 0.000000 1.611560 0.000000 
#    z 0.000000 0.000000 1.625390 
# 
# From -- ./inp_files/49084.got.cif
#   From: 2010.05.17/outbox.cif.g08.bks.cpg/sg64_25_cif.got.tgz:49084.got - 2010.06.03 16:29:19.
