data_PCOD9479286
_publ_section_title
;
Structure prediction by ZEFSAII (Michael W. Deem and Ramdas Pophale) SiO2 
 PCOD9479286
Probable space group: C M C A
;
_chemical_formula_sum "Si O2"
_cell_formula_units_Z 96
_cell_length_a 16.616630
_cell_length_b 24.624219
_cell_length_c 11.609057
_cell_angle_alpha 90.000000
_cell_angle_beta 90.000000
_cell_angle_gamma 90.000000
_cell_volume 4750.095686
_symmetry_space_group_name_H-M "C M C A"
_symmetry_group_IT_number 64
_symmetry_cell_setting 'orthorhombic'
loop_
_space_group_symop_operation_xyz
x,y,z
-x,1/2-y,1/2+z
x,-y,-z
-x,1/2+y,1/2-z
-x,-y,-z
x,1/2+y,1/2-z
-x,y,z
x,1/2-y,1/2+z
1/2+x,1/2+y,z
1/2-x,-y,1/2+z
1/2+x,1/2-y,-z
1/2-x,y,1/2-z
1/2-x,1/2-y,-z
1/2+x,y,1/2-z
1/2-x,1/2+y,z
1/2+x,-y,1/2+z
loop_
_atom_site_type_symbol
_atom_site_label
_atom_site_fract_x
_atom_site_fract_y
_atom_site_fract_z
Si Si1 0.652122 0.028403 0.241197
Si Si2 0.907031 0.801115 0.805542
Si Si3 0.344445 0.090451 0.716821
Si Si4 0.167113 0.130129 0.398986
Si Si5 0.905748 0.817870 0.373151
Si Si6 0.646722 0.104290 0.446982
O O1 0.750000 0.025798 0.250000
O O2 0.632522 0.071318 0.140591
O O3 0.623238 0.055750 0.360312
O O4 0.625524 0.966508 0.229480
O O5 0.856199 0.828940 0.703717
O O6 0.875170 0.742332 0.842743
O O7 0.903602 0.842733 0.912477
O O8 0.000000 0.795654 0.766847
O O9 0.250000 0.096579 0.750000
O O10 0.390235 0.141772 0.767645
O O11 0.354425 0.088151 0.579539
O O12 0.134716 0.154561 0.516721
O O13 0.261835 0.120701 0.414024
O O14 0.000000 0.812442 0.397306
#
# Coordination Sequence:
#
# PCOD9479286 Si02
#       6
#    16  16  16  16  16  16
#     4   8  18  35  62  88 117 151 188 239 296 351
#     4  10  23  40  60  83 118 163 198 243 302 353
#     4  11  21  37  59  90 121 152 193 242 294 349
#     4  10  20  41  62  88 118 153 202 248 291 355
#     4  11  25  40  57  85 120 161 199 243 301 354
#     4  10  20  38  63  91 116 151 203 244 290 351
#
# _framework density 20.210118999999999
#
# number of rings (size 3 to 8) (size 9 to 14) (size 15 to 20)
#    0.000    2.000    1.667    2.500    2.333    3.333 
#    0.000    5.000    0.000    5.000    0.000    0.000 
#    0.000    0.000    0.000    0.000    0.000    0.000 
#
# Total GULP energy -267982.113062 kJ/mol
# GULP energy per Si atom -5582.960689 kJ/mol
# Density = 2.016412 g / cm^3
# Si number density = 20.210119 Si / 1000 Ang^3
#
#
#
# Elastic Constant Matrix: (Units=GPa)
#
#
# Indices 1 2 3 4 5 6 
#
# 1 19.3663 2.3438 -1.2546 0.0000 0.0000 0.0000
# 2 2.3438 122.3716 9.4524 0.0000 0.0000 0.0000
# 3 -1.2546 9.4524 54.9405 0.0000 0.0000 0.0000
# 4 0.0000 0.0000 0.0000 17.8933 0.0000 0.0000
# 5 0.0000 0.0000 0.0000 0.0000 6.3773 0.0000
# 6 0.0000 0.0000 0.0000 0.0000 0.0000 26.9532
#
#
#
# Elastic Compliance Matrix: (Units=1/GPa)
#
#
# Indices 1 2 3 4 5 6 
#
# 1 0.051858 -0.001099 0.001373 0.000000 0.000000 0.000000
# 2 -0.001099 0.008305 -0.001454 0.000000 0.000000 0.000000
# 3 0.001373 -0.001454 0.018483 0.000000 0.000000 0.000000
# 4 0.000000 0.000000 0.000000 0.055887 0.000000 0.000000
# 5 0.000000 0.000000 0.000000 0.000000 0.156805 0.000000
# 6 0.000000 0.000000 0.000000 0.000000 0.000000 0.037101
#
#
# Mechanical properties :
#
#
# Convention : Reuss Voigt Hill
#
# Bulk Modulus (GPa) = 13.10853 24.19575 18.65214
# Shear Modulus (GPa) = 14.03594 22.65389 18.34491
#
# Velocity S-wave (km/s) = 2.63820 3.35164 3.01609
# Velocity P-wave (km/s) = 3.97244 5.19385 4.62366
#
# Compressibility (1/GPa) = 0.07628619
#
# Stress axis : x y z
#
# Youngs Moduli (GPa) = 19.28344 120.40658 54.10373
#
# Poissons Ratio (x) = 0.13236 -0.07430
# Poissons Ratio (y) = 0.02120 0.07867
# Poissons Ratio (z) = -0.02648 0.17507
#
# Static dielectric constant tensor:
#      x y z
#    x 1.746900 0.000000 0.000000 
#    y 0.000000 1.720250 0.000000 
#    z 0.000000 0.000000 1.705720 
# 
# From -- ./inp_files/16191.got.cif
#   From: 2010.05.17/outbox.cif.g08.bks.cpg/sg64_9_cif.got.tgz:16191.got - 2010.06.03 16:29:19.
