data_PCOD9479194
_publ_section_title
;
Structure prediction by ZEFSAII (Michael W. Deem and Ramdas Pophale) SiO2 
 PCOD9479194
Probable space group: C M C A
;
_chemical_formula_sum "Si O2"
_cell_formula_units_Z 104
_cell_length_a 26.666327
_cell_length_b 23.149145
_cell_length_c 8.532171
_cell_angle_alpha 90.000000
_cell_angle_beta 90.000000
_cell_angle_gamma 90.000000
_cell_volume 5266.931942
_symmetry_space_group_name_H-M "C M C A"
_symmetry_group_IT_number 64
_symmetry_cell_setting 'orthorhombic'
loop_
_space_group_symop_operation_xyz
x,y,z
-x,1/2-y,1/2+z
x,-y,-z
-x,1/2+y,1/2-z
-x,-y,-z
x,1/2+y,1/2-z
-x,y,z
x,1/2-y,1/2+z
1/2+x,1/2+y,z
1/2-x,-y,1/2+z
1/2+x,1/2-y,-z
1/2-x,y,1/2-z
1/2-x,1/2-y,-z
1/2+x,y,1/2-z
1/2-x,1/2+y,z
1/2+x,-y,1/2+z
loop_
_atom_site_type_symbol
_atom_site_label
_atom_site_fract_x
_atom_site_fract_y
_atom_site_fract_z
Si Si1 0.441077 0.031691 0.665393
Si Si2 0.446492 0.233014 0.661355
Si Si3 0.892564 0.687955 0.373656
Si Si4 0.177824 0.285124 0.006959
Si Si5 0.250000 0.758181 0.750000
Si Si6 0.089497 0.133605 0.628706
Si Si7 0.942710 0.589955 0.205959
O O1 0.500000 0.050239 0.655478
O O2 0.408872 0.084433 0.736032
O O3 0.428729 0.000000 0.500000
O O4 0.436895 0.978531 0.784769
O O5 0.500000 0.262622 0.661521
O O6 0.436626 0.203897 0.495477
O O7 0.403553 0.277510 0.712298
O O8 0.442915 0.184092 0.792529
O O9 0.847309 0.720830 0.463689
O O10 0.902489 0.622710 0.318670
O O11 0.224226 0.282768 0.124703
O O12 0.140148 0.334126 0.070811
O O13 0.205279 0.292409 0.839325
O O14 0.064557 0.109181 0.472500
O O15 0.000000 0.602772 0.258626
#
# Coordination Sequence:
#
# PCOD9479194 Si02
#       7
#    16  16  16  16   8  16  16
#     4  10  21  36  53  77 112 155 197 232 266 311
#     4  11  20  30  47  71 109 152 181 216 262 314
#     4  11  21  33  49  77 111 143 186 227 269 333
#     4  10  21  36  57  82 109 140 175 228 293 350
#     4  10  20  38  58  80 108 134 170 224 296 364
#     4  11  21  35  53  78 109 143 191 235 275 332
#     4  11  21  33  52  78 113 154 192 229 265 310
#
# _framework density 19.745840000000001
#
# number of rings (size 3 to 8) (size 9 to 14) (size 15 to 20)
#    0.000    1.385    0.000    8.769    0.000    2.462 
#    0.000    0.000    0.000    0.000    0.000   16.154 
#    0.000    0.000    0.000    0.000    0.000    0.000 
#
# Total GULP energy -289785.603271 kJ/mol
# GULP energy per Si atom -5572.800063 kJ/mol
# Density = 1.970090 g / cm^3
# Si number density = 19.745840 Si / 1000 Ang^3
#
#
#
# Elastic Constant Matrix: (Units=GPa)
#
#
# Indices 1 2 3 4 5 6 
#
# 1 84.3696 29.6616 22.5343 0.0000 0.0000 0.0000
# 2 29.6616 84.7186 21.7707 0.0000 0.0000 0.0000
# 3 22.5343 21.7707 92.0485 0.0000 0.0000 0.0000
# 4 0.0000 0.0000 0.0000 39.0180 0.0000 0.0000
# 5 0.0000 0.0000 0.0000 0.0000 35.4712 0.0000
# 6 0.0000 0.0000 0.0000 0.0000 0.0000 17.8233
#
#
#
# Elastic Compliance Matrix: (Units=1/GPa)
#
#
# Indices 1 2 3 4 5 6 
#
# 1 0.014003 -0.004282 -0.002415 0.000000 0.000000 0.000000
# 2 -0.004282 0.013877 -0.002234 0.000000 0.000000 0.000000
# 3 -0.002415 -0.002234 0.011983 0.000000 0.000000 0.000000
# 4 0.000000 0.000000 0.000000 0.025629 0.000000 0.000000
# 5 0.000000 0.000000 0.000000 0.000000 0.028192 0.000000
# 6 0.000000 0.000000 0.000000 0.000000 0.000000 0.056106
#
#
# Mechanical properties :
#
#
# Convention : Reuss Voigt Hill
#
# Bulk Modulus (GPa) = 45.45203 45.45220 45.45212
# Shear Modulus (GPa) = 28.57352 30.94052 29.75702
#
# Velocity S-wave (km/s) = 3.80816 3.96275 3.88622
# Velocity P-wave (km/s) = 6.51188 6.63374 6.57309
#
# Compressibility (1/GPa) = 0.02200122
#
# Stress axis : x y z
#
# Youngs Moduli (GPa) = 71.41247 72.06139 83.44843
#
# Poissons Ratio (x) = 0.30857 0.20155
# Poissons Ratio (y) = 0.30579 0.18641
# Poissons Ratio (z) = 0.17248 0.16097
#
# Static dielectric constant tensor:
#      x y z
#    x 1.749490 0.000000 0.000000 
#    y 0.000000 1.704250 0.000000 
#    z 0.000000 0.000000 1.788780 
# 
# From -- ./inp_files/10587.got.cif
#   From: 2010.05.17/outbox.cif.g08.bks.cpg/sg64_6_cif.got.tgz:10587.got - 2010.06.03 16:29:19.
