data_PCOD9479480
_publ_section_title
;
Structure prediction by ZEFSAII (Michael W. Deem and Ramdas Pophale) SiO2 
 PCOD9479480
Probable space group: C M C A
;
_chemical_formula_sum "Si O2"
_cell_formula_units_Z 72
_cell_length_a 16.010104
_cell_length_b 8.775011
_cell_length_c 22.349639
_cell_angle_alpha 90.000000
_cell_angle_beta 90.000000
_cell_angle_gamma 90.000000
_cell_volume 3139.874829
_symmetry_space_group_name_H-M "C M C A"
_symmetry_group_IT_number 64
_symmetry_cell_setting 'orthorhombic'
loop_
_space_group_symop_operation_xyz
x,y,z
-x,1/2-y,1/2+z
x,-y,-z
-x,1/2+y,1/2-z
-x,-y,-z
x,1/2+y,1/2-z
-x,y,z
x,1/2-y,1/2+z
1/2+x,1/2+y,z
1/2-x,-y,1/2+z
1/2+x,1/2-y,-z
1/2-x,y,1/2-z
1/2-x,1/2-y,-z
1/2+x,y,1/2-z
1/2-x,1/2+y,z
1/2+x,-y,1/2+z
loop_
_atom_site_type_symbol
_atom_site_label
_atom_site_fract_x
_atom_site_fract_y
_atom_site_fract_z
Si Si1 0.863880 0.880026 0.597220
Si Si2 0.000000 0.552962 0.408042
Si Si3 0.000000 0.597611 0.201454
Si Si4 0.864728 0.068041 0.194074
Si Si5 0.500000 0.741223 0.483824
Si Si6 0.229441 0.843627 0.352261
O O1 0.927695 0.857062 0.652318
O O2 0.787465 0.764340 0.607004
O O3 0.917879 0.847153 0.538372
O O4 0.827279 0.048467 0.606489
O O5 0.079951 0.550617 0.365575
O O6 0.000000 0.401666 0.447788
O O7 0.000000 0.705921 0.447787
O O8 0.073527 0.551351 0.250414
O O9 0.826347 0.236776 0.189918
O O10 0.789603 0.950423 0.186935
#
# Coordination Sequence:
#
# PCOD9479480 Si02
#       6
#    16   8   8  16   8  16
#     4  10  22  40  59  88 117 158 196 246 291 360
#     4  10  20  40  65  87 116 158 201 245 296 355
#     4  10  24  36  62  84 120 158 202 240 292 352
#     4  10  22  40  59  88 117 158 196 246 291 360
#     4  10  20  40  65  87 116 158 201 245 296 355
#     4  10  22  39  59  86 124 152 197 243 302 346
#
# _framework density 22.930848999999998
#
# number of rings (size 3 to 8) (size 9 to 14) (size 15 to 20)
#    0.000    2.000    2.222    0.000    0.000   12.444 
#    0.000    8.889    0.000    0.000    0.000    0.000 
#    0.000    0.000    0.000    0.000    0.000    0.000 
#
# Total GULP energy -200536.015664 kJ/mol
# GULP energy per Si atom -5570.444880 kJ/mol
# Density = 2.287866 g / cm^3
# Si number density = 22.930849 Si / 1000 Ang^3
#
#
#
# Elastic Constant Matrix: (Units=GPa)
#
#
# Indices 1 2 3 4 5 6 
#
# 1 104.2483 35.5458 1.4281 0.0000 0.0000 0.0000
# 2 35.5458 101.4296 -0.9911 0.0000 0.0000 0.0000
# 3 1.4281 -0.9911 61.7351 0.0000 0.0000 0.0000
# 4 0.0000 0.0000 0.0000 13.9891 0.0000 0.0000
# 5 0.0000 0.0000 0.0000 0.0000 -2.3403 0.0000
# 6 0.0000 0.0000 0.0000 0.0000 0.0000 7.9327
#
#
#
# Elastic Compliance Matrix: (Units=1/GPa)
#
#
# Indices 1 2 3 4 5 6 
#
# 1 0.010900 -0.003823 -0.000314 0.000000 0.000000 0.000000
# 2 -0.003823 0.011201 0.000268 0.000000 0.000000 0.000000
# 3 -0.000314 0.000268 0.016210 0.000000 0.000000 0.000000
# 4 0.000000 0.000000 0.000000 0.071484 0.000000 0.000000
# 5 0.000000 0.000000 0.000000 0.000000 -0.427297 0.000000
# 6 0.000000 0.000000 0.000000 0.000000 0.000000 0.126060
#
#
# Mechanical properties :
#
#
# Convention : Reuss Voigt Hill
#
# Bulk Modulus (GPa) = 32.70651 37.70872 35.20762
# Shear Modulus (GPa) = -28.81642 19.34499 -4.73572
#
# Velocity S-wave (km/s) = -3.54879 2.90767 -1.43865
# Velocity P-wave (km/s) = 1.58046 5.26811 3.55353
#
# Compressibility (1/GPa) = 0.03057495
#
# Stress axis : x y z
#
# Youngs Moduli (GPa) = 91.74029 89.27405 61.69107
#
# Poissons Ratio (x) = 0.34130 0.01934
# Poissons Ratio (y) = 0.35073 -0.01655
# Poissons Ratio (z) = 0.02876 -0.02395
#
# Static dielectric constant tensor:
#      x y z
#    x 1.838620 0.000000 0.000000 
#    y 0.000000 1.916120 0.000000 
#    z 0.000000 0.000000 1.838280 
# 
# From -- ./inp_files/45657.got.cif
#   From: 2010.05.17/outbox.cif.g08.bks.cpg/sg64_23_cif.got.tgz:45657.got - 2010.06.03 16:29:19.
