data_PCOD9479595
_publ_section_title
;
Structure prediction by ZEFSAII (Michael W. Deem and Ramdas Pophale) SiO2 
 PCOD9479595
Probable space group: C M C A
;
_chemical_formula_sum "Si O2"
_cell_formula_units_Z 88
_cell_length_a 17.654638
_cell_length_b 7.109726
_cell_length_c 29.616573
_cell_angle_alpha 90.000000
_cell_angle_beta 90.000000
_cell_angle_gamma 90.000000
_cell_volume 3717.461546
_symmetry_space_group_name_H-M "C M C A"
_symmetry_group_IT_number 64
_symmetry_cell_setting 'orthorhombic'
loop_
_space_group_symop_operation_xyz
x,y,z
-x,1/2-y,1/2+z
x,-y,-z
-x,1/2+y,1/2-z
-x,-y,-z
x,1/2+y,1/2-z
-x,y,z
x,1/2-y,1/2+z
1/2+x,1/2+y,z
1/2-x,-y,1/2+z
1/2+x,1/2-y,-z
1/2-x,y,1/2-z
1/2-x,1/2-y,-z
1/2+x,y,1/2-z
1/2-x,1/2+y,z
1/2+x,-y,1/2+z
loop_
_atom_site_type_symbol
_atom_site_label
_atom_site_fract_x
_atom_site_fract_y
_atom_site_fract_z
Si Si1 0.500000 0.045906 0.215215
Si Si2 0.689722 0.073858 0.549842
Si Si3 0.250000 0.774672 0.250000
Si Si4 0.000000 0.118628 0.181999
Si Si5 0.661088 0.478002 0.693025
Si Si6 0.628773 0.273989 0.880816
Si Si7 0.365679 0.007016 0.049598
O O1 0.500000 0.837746 0.195313
O O2 0.420172 0.121540 0.196719
O O3 0.500000 0.024901 0.269222
O O4 0.651225 0.274722 0.560801
O O5 0.664309 0.000000 0.500000
O O6 0.672653 0.926396 0.589451
O O7 0.781001 0.086373 0.546349
O O8 0.325193 0.888842 0.236930
O O9 0.271384 0.663012 0.295378
O O10 0.073894 0.104882 0.151168
O O11 0.668350 0.613717 0.650419
O O12 0.590546 0.128512 0.916295
O O13 0.399859 0.000000 0.000000
#
# Coordination Sequence:
#
# PCOD9479595 Si02
#       7
#     8  16   8   8  16  16  16
#     4  10  20  46  66  78 122 182 206 248 326 404
#     4  11  20  37  63  93 131 175 211 259 333 393
#     4  10  22  38  56  96 128 152 202 284 354 358
#     4  10  24  46  68  92 118 170 228 270 308 394
#     4  10  22  38  62  88 125 165 211 266 327 394
#     4  11  23  40  62  95 126 162 227 265 309 398
#     4  11  20  37  63  93 131 174 212 260 331 394
#
# _framework density 23.672069
#
# number of rings (size 3 to 8) (size 9 to 14) (size 15 to 20)
#    0.000    1.455    3.636    3.273    2.545    0.000 
#   13.091    0.909    0.000    0.000    0.000    0.000 
#    0.000    0.000    0.000    0.000    0.000    0.000 
#
# Total GULP energy -245235.158657 kJ/mol
# GULP energy per Si atom -5573.526333 kJ/mol
# Density = 2.361819 g / cm^3
# Si number density = 23.672069 Si / 1000 Ang^3
#
#
#
# Elastic Constant Matrix: (Units=GPa)
#
#
# Indices 1 2 3 4 5 6 
#
# 1 64.4831 4.7483 11.7179 0.0000 0.0000 0.0000
# 2 4.7483 62.3503 2.1552 0.0000 0.0000 0.0000
# 3 11.7179 2.1552 99.1430 0.0000 0.0000 0.0000
# 4 0.0000 0.0000 0.0000 9.1453 0.0000 0.0000
# 5 0.0000 0.0000 0.0000 0.0000 10.2175 0.0000
# 6 0.0000 0.0000 0.0000 0.0000 0.0000 17.3156
#
#
#
# Elastic Compliance Matrix: (Units=1/GPa)
#
#
# Indices 1 2 3 4 5 6 
#
# 1 0.015930 -0.001149 -0.001858 0.000000 0.000000 0.000000
# 2 -0.001149 0.016133 -0.000215 0.000000 0.000000 0.000000
# 3 -0.001858 -0.000215 0.010311 0.000000 0.000000 0.000000
# 4 0.000000 0.000000 0.000000 0.109346 0.000000 0.000000
# 5 0.000000 0.000000 0.000000 0.000000 0.097872 0.000000
# 6 0.000000 0.000000 0.000000 0.000000 0.000000 0.057752
#
#
# Mechanical properties :
#
#
# Convention : Reuss Voigt Hill
#
# Bulk Modulus (GPa) = 27.83128 29.24657 28.53893
# Shear Modulus (GPa) = 15.34855 21.15932 18.25394
#
# Velocity S-wave (km/s) = 2.54910 2.99298 2.77991
# Velocity P-wave (km/s) = 4.52177 4.93210 4.73139
#
# Compressibility (1/GPa) = 0.03593079
#
# Stress axis : x y z
#
# Youngs Moduli (GPa) = 62.77400 61.98344 96.98667
#
# Poissons Ratio (x) = 0.07122 0.18019
# Poissons Ratio (y) = 0.07212 0.02084
# Poissons Ratio (z) = 0.11662 0.01332
#
# Static dielectric constant tensor:
#      x y z
#    x 2.543140 0.000000 0.000000 
#    y 0.000000 1.989820 0.000000 
#    z 0.000000 0.000000 2.529300 
# 
# From -- ./inp_files/46249.got.cif
#   From: 2010.05.17/outbox.cif.g08.bks.cpg/sg64_24_cif.got.tgz:46249.got - 2010.06.03 16:29:19.
