data_PCOD9479766
_publ_section_title
;
Structure prediction by ZEFSAII (Michael W. Deem and Ramdas Pophale) SiO2 
 PCOD9479766
Probable space group: C M C A
;
_chemical_formula_sum "Si O2"
_cell_formula_units_Z 80
_cell_length_a 30.239923
_cell_length_b 5.275407
_cell_length_c 21.562767
_cell_angle_alpha 90.000000
_cell_angle_beta 90.000000
_cell_angle_gamma 90.000000
_cell_volume 3439.862969
_symmetry_space_group_name_H-M "C M C A"
_symmetry_group_IT_number 64
_symmetry_cell_setting 'orthorhombic'
loop_
_space_group_symop_operation_xyz
x,y,z
-x,1/2-y,1/2+z
x,-y,-z
-x,1/2+y,1/2-z
-x,-y,-z
x,1/2+y,1/2-z
-x,y,z
x,1/2-y,1/2+z
1/2+x,1/2+y,z
1/2-x,-y,1/2+z
1/2+x,1/2-y,-z
1/2-x,y,1/2-z
1/2-x,1/2-y,-z
1/2+x,y,1/2-z
1/2-x,1/2+y,z
1/2+x,-y,1/2+z
loop_
_atom_site_type_symbol
_atom_site_label
_atom_site_fract_x
_atom_site_fract_y
_atom_site_fract_z
Si Si1 0.867376 0.682292 0.104131
Si Si2 0.401565 0.506476 0.791336
Si Si3 0.000000 0.423867 0.288069
Si Si4 0.549569 0.880289 0.069781
Si Si5 0.222915 0.471962 0.074539
Si Si6 0.898732 0.000000 0.000000
O O1 0.869153 0.906961 0.154005
O O2 0.913016 0.523832 0.108465
O O3 0.824025 0.513893 0.107457
O O4 0.868770 0.797970 0.034719
O O5 0.396574 0.232171 0.759846
O O6 0.452208 0.521783 0.816864
O O7 0.000000 0.631067 0.232406
O O8 0.500000 0.885805 0.094899
O O9 0.569228 0.608462 0.052600
O O10 0.547799 0.000000 0.000000
O O11 0.244409 0.203669 0.090634
O O12 0.217400 0.500000 0.000000
#
# Coordination Sequence:
#
# PCOD9479766 Si02
#       6
#    16  16   8  16  16   8
#     4  11  24  38  65  90 129 163 220 267 325 392
#     4  10  23  41  62  89 123 169 215 267 317 373
#     4   8  16  36  58  81 115 157 217 262 302 358
#     4   9  19  35  54  85 128 166 203 246 313 390
#     4  10  23  40  65  95 128 162 205 263 327 385
#     4  10  21  36  58  92 128 172 204 258 327 384
#
# _framework density 23.256739
#
# number of rings (size 3 to 8) (size 9 to 14) (size 15 to 20)
#    0.000    2.200    0.000    2.100   11.200    0.800 
#    0.000    0.000    0.000    3.600    0.000    0.000 
#    0.000    0.000    0.000    0.000    0.000    0.000 
#
# Total GULP energy -223646.183298 kJ/mol
# GULP energy per Si atom -5591.154582 kJ/mol
# Density = 2.320381 g / cm^3
# Si number density = 23.256739 Si / 1000 Ang^3
#
#
#
# Elastic Constant Matrix: (Units=GPa)
#
#
# Indices 1 2 3 4 5 6 
#
# 1 107.2356 17.8680 21.8488 0.0000 0.0000 0.0000
# 2 17.8680 84.5021 26.7763 0.0000 0.0000 0.0000
# 3 21.8488 26.7763 72.4438 0.0000 0.0000 0.0000
# 4 0.0000 0.0000 0.0000 37.7332 0.0000 0.0000
# 5 0.0000 0.0000 0.0000 0.0000 20.8107 0.0000
# 6 0.0000 0.0000 0.0000 0.0000 0.0000 28.2247
#
#
#
# Elastic Compliance Matrix: (Units=1/GPa)
#
#
# Indices 1 2 3 4 5 6 
#
# 1 0.010064 -0.001321 -0.002547 0.000000 0.000000 0.000000
# 2 -0.001321 0.013577 -0.004620 0.000000 0.000000 0.000000
# 3 -0.002547 -0.004620 0.016280 0.000000 0.000000 0.000000
# 4 0.000000 0.000000 0.000000 0.026502 0.000000 0.000000
# 5 0.000000 0.000000 0.000000 0.000000 0.048052 0.000000
# 6 0.000000 0.000000 0.000000 0.000000 0.000000 0.035430
#
#
# Mechanical properties :
#
#
# Convention : Reuss Voigt Hill
#
# Bulk Modulus (GPa) = 43.58230 44.12975 43.85602
# Shear Modulus (GPa) = 28.64842 30.53295 29.59069
#
# Velocity S-wave (km/s) = 3.51356 3.62728 3.57087
# Velocity P-wave (km/s) = 5.93636 6.04641 5.99164
#
# Compressibility (1/GPa) = 0.02294509
#
# Stress axis : x y z
#
# Youngs Moduli (GPa) = 99.36073 73.65237 61.42652
#
# Poissons Ratio (x) = 0.09729 0.15646
# Poissons Ratio (y) = 0.13126 0.28379
# Poissons Ratio (z) = 0.25308 0.34027
#
# Static dielectric constant tensor:
#      x y z
#    x 1.855140 0.000000 0.000000 
#    y 0.000000 1.961610 0.000000 
#    z 0.000000 0.000000 1.893200 
# 
# From -- ./inp_files/47052.got.cif
#   From: 2010.05.17/outbox.cif.g08.bks.cpg/sg64_24_cif.got.tgz:47052.got - 2010.06.03 16:29:19.
