data_PCOD9479614
_publ_section_title
;
Structure prediction by ZEFSAII (Michael W. Deem and Ramdas Pophale) SiO2 
 PCOD9479614
Probable space group: C M C A
;
_chemical_formula_sum "Si O2"
_cell_formula_units_Z 72
_cell_length_a 19.922690
_cell_length_b 28.570437
_cell_length_c 5.608451
_cell_angle_alpha 90.000000
_cell_angle_beta 90.000000
_cell_angle_gamma 90.000000
_cell_volume 3192.330082
_symmetry_space_group_name_H-M "C M C A"
_symmetry_group_IT_number 64
_symmetry_cell_setting 'orthorhombic'
loop_
_space_group_symop_operation_xyz
x,y,z
-x,1/2-y,1/2+z
x,-y,-z
-x,1/2+y,1/2-z
-x,-y,-z
x,1/2+y,1/2-z
-x,y,z
x,1/2-y,1/2+z
1/2+x,1/2+y,z
1/2-x,-y,1/2+z
1/2+x,1/2-y,-z
1/2-x,y,1/2-z
1/2-x,1/2-y,-z
1/2+x,y,1/2-z
1/2-x,1/2+y,z
1/2+x,-y,1/2+z
loop_
_atom_site_type_symbol
_atom_site_label
_atom_site_fract_x
_atom_site_fract_y
_atom_site_fract_z
Si Si1 0.184501 0.383087 0.342622
Si Si2 0.250000 0.053735 0.250000
Si Si3 0.418896 0.227889 0.017306
Si Si4 0.616260 0.452049 0.545312
Si Si5 0.924156 0.360723 0.699661
O O1 0.250000 0.354710 0.250000
O O2 0.225195 0.414673 0.533017
O O3 0.144273 0.419308 0.169961
O O4 0.128950 0.354922 0.489214
O O5 0.182086 0.028327 0.315411
O O6 0.500000 0.233283 0.008457
O O7 0.394920 0.254574 0.258876
O O8 0.405816 0.173578 0.081663
O O9 0.577195 0.500000 0.500000
O O10 0.580284 0.414127 0.712409
O O11 0.000000 0.349364 0.622814
#
# Coordination Sequence:
#
# PCOD9479614 Si02
#       5
#    16   8  16  16  16
#     4   9  19  37  57  82 115 160 204 255 298 361
#     4   8  18  32  52  80 106 150 204 256 298 340
#     4   9  19  36  61  90 119 157 210 265 315 375
#     4  10  21  33  54  83 117 159 205 250 301 364
#     4  10  22  37  57  88 123 160 201 254 319 377
#
# _framework density 22.55406
#
# number of rings (size 3 to 8) (size 9 to 14) (size 15 to 20)
#    0.000    2.667    0.000    0.000    7.778    4.000 
#    0.000    1.111    0.000    1.333    0.000    0.000 
#    0.000    0.000    0.000    0.000    0.000    0.000 
#
# Total GULP energy -200406.412165 kJ/mol
# GULP energy per Si atom -5566.844782 kJ/mol
# Density = 2.250273 g / cm^3
# Si number density = 22.554060 Si / 1000 Ang^3
#
#
#
# Elastic Constant Matrix: (Units=GPa)
#
#
# Indices 1 2 3 4 5 6 
#
# 1 75.5496 14.7425 13.4402 0.0000 0.0000 0.0000
# 2 14.7425 114.7098 18.8099 0.0000 0.0000 0.0000
# 3 13.4402 18.8099 68.6125 0.0000 0.0000 0.0000
# 4 0.0000 0.0000 0.0000 34.6948 0.0000 0.0000
# 5 0.0000 0.0000 0.0000 0.0000 11.4691 0.0000
# 6 0.0000 0.0000 0.0000 0.0000 0.0000 -3.6640
#
#
#
# Elastic Compliance Matrix: (Units=1/GPa)
#
#
# Indices 1 2 3 4 5 6 
#
# 1 0.013927 -0.001406 -0.002343 0.000000 0.000000 0.000000
# 2 -0.001406 0.009270 -0.002266 0.000000 0.000000 0.000000
# 3 -0.002343 -0.002266 0.015655 0.000000 0.000000 0.000000
# 4 0.000000 0.000000 0.000000 0.028823 0.000000 0.000000
# 5 0.000000 0.000000 0.000000 0.000000 0.087191 0.000000
# 6 0.000000 0.000000 0.000000 0.000000 0.000000 -0.272923
#
#
# Mechanical properties :
#
#
# Convention : Reuss Voigt Hill
#
# Bulk Modulus (GPa) = 37.28144 39.20637 38.24390
# Shear Modulus (GPa) = -51.49992 22.62525 -14.43734
#
# Velocity S-wave (km/s) = -4.78368 3.17070 -2.53281
# Velocity P-wave (km/s) = 3.73440 5.55207 2.90515
#
# Compressibility (1/GPa) = 0.02682300
#
# Stress axis : x y z
#
# Youngs Moduli (GPa) = 71.80069 107.87618 63.87849
#
# Poissons Ratio (x) = 0.15165 0.14965
# Poissons Ratio (y) = 0.10094 0.14474
# Poissons Ratio (z) = 0.16821 0.24444
#
# Static dielectric constant tensor:
#      x y z
#    x 1.845680 0.000000 0.000000 
#    y 0.000000 1.844840 0.000000 
#    z 0.000000 0.000000 1.970450 
# 
# From -- ./inp_files/2276.got.cif
#   From: 2010.05.17/outbox.cif.g08.bks.cpg/sg64_2_cif.got.tgz:2276.got - 2010.06.03 16:29:19.
