data_PCOD9479097
_publ_section_title
;
Structure prediction by ZEFSAII (Michael W. Deem and Ramdas Pophale) SiO2 
 PCOD9479097
Probable space group: C M C A
;
_chemical_formula_sum "Si O2"
_cell_formula_units_Z 96
_cell_length_a 25.800226
_cell_length_b 9.067987
_cell_length_c 18.297559
_cell_angle_alpha 90.000000
_cell_angle_beta 90.000000
_cell_angle_gamma 90.000000
_cell_volume 4280.825799
_symmetry_space_group_name_H-M "C M C A"
_symmetry_group_IT_number 64
_symmetry_cell_setting 'orthorhombic'
loop_
_space_group_symop_operation_xyz
x,y,z
-x,1/2-y,1/2+z
x,-y,-z
-x,1/2+y,1/2-z
-x,-y,-z
x,1/2+y,1/2-z
-x,y,z
x,1/2-y,1/2+z
1/2+x,1/2+y,z
1/2-x,-y,1/2+z
1/2+x,1/2-y,-z
1/2-x,y,1/2-z
1/2-x,1/2-y,-z
1/2+x,y,1/2-z
1/2-x,1/2+y,z
1/2+x,-y,1/2+z
loop_
_atom_site_type_symbol
_atom_site_label
_atom_site_fract_x
_atom_site_fract_y
_atom_site_fract_z
Si Si1 0.000000 0.278096 0.911867
Si Si2 0.682939 0.004465 0.682910
Si Si3 0.500000 0.435483 0.898246
Si Si4 0.887897 0.051828 0.680085
Si Si5 0.750000 0.744260 0.750000
Si Si6 0.500000 0.543091 0.275657
Si Si7 0.385918 0.361624 0.550469
Si Si8 0.616269 0.834513 0.575822
O O1 0.000000 0.308884 0.824716
O O2 0.051714 0.348519 0.944261
O O3 0.000000 0.104994 0.922012
O O4 0.641824 0.051656 0.744383
O O5 0.724957 0.135482 0.688988
O O6 0.651283 0.962768 0.610426
O O7 0.710334 0.854857 0.710786
O O8 0.500000 0.427530 0.809949
O O9 0.445038 0.370782 0.923936
O O10 0.948441 0.040144 0.698924
O O11 0.878775 0.195196 0.630962
O O12 0.870423 0.908257 0.632283
O O13 0.372166 0.500000 0.500000
O O14 0.367953 0.220335 0.504872
#
# Coordination Sequence:
#
# PCOD9479097 Si02
#       8
#     8  16   8  16   8   8  16  16
#     4  10  22  36  51  79 128 181 207 241 296 348
#     4  11  21  40  66  89 118 153 201 256 315 366
#     4  12  24  31  54  90 134 161 207 247 293 359
#     4  10  20  37  61  87 121 162 202 246 303 361
#     4  10  24  40  62  92 118 150 196 260 320 380
#     4  10  21  33  54  87 126 159 197 247 289 352
#     4   9  20  38  58  82 118 166 214 246 292 368
#     4  11  22  36  60  89 123 164 202 246 299 363
#
# _framework density 22.425581000000001
#
# number of rings (size 3 to 8) (size 9 to 14) (size 15 to 20)
#    0.000    1.667    3.333    1.250    2.333    6.667 
#    0.000    0.000    0.000    6.000    0.000    0.000 
#    0.000    0.000    0.000    0.000    0.000    0.000 
#
# Total GULP energy -268247.229713 kJ/mol
# GULP energy per Si atom -5588.483952 kJ/mol
# Density = 2.237454 g / cm^3
# Si number density = 22.425581 Si / 1000 Ang^3
#
#
#
# Elastic Constant Matrix: (Units=GPa)
#
#
# Indices 1 2 3 4 5 6 
#
# 1 59.9412 36.4199 5.0918 0.0000 0.0000 0.0000
# 2 36.4199 100.3672 25.9423 0.0000 0.0000 0.0000
# 3 5.0918 25.9423 69.2284 0.0000 0.0000 0.0000
# 4 0.0000 0.0000 0.0000 36.7225 0.0000 0.0000
# 5 0.0000 0.0000 0.0000 0.0000 -2.2834 0.0000
# 6 0.0000 0.0000 0.0000 0.0000 0.0000 21.8036
#
#
#
# Elastic Compliance Matrix: (Units=1/GPa)
#
#
# Indices 1 2 3 4 5 6 
#
# 1 0.021539 -0.008201 0.001489 0.000000 0.000000 0.000000
# 2 -0.008201 0.014154 -0.004701 0.000000 0.000000 0.000000
# 3 0.001489 -0.004701 0.016097 0.000000 0.000000 0.000000
# 4 0.000000 0.000000 0.000000 0.027231 0.000000 0.000000
# 5 0.000000 0.000000 0.000000 0.000000 -0.437939 0.000000
# 6 0.000000 0.000000 0.000000 0.000000 0.000000 0.045864
#
#
# Mechanical properties :
#
#
# Convention : Reuss Voigt Hill
#
# Bulk Modulus (GPa) = 34.52442 40.49384 37.50913
# Shear Modulus (GPa) = -17.82069 22.05405 2.11668
#
# Velocity S-wave (km/s) = -2.82203 3.13937 0.97258
# Velocity P-wave (km/s) = 2.19319 5.58901 4.24542
#
# Compressibility (1/GPa) = 0.02896501
#
# Stress axis : x y z
#
# Youngs Moduli (GPa) = 46.42687 70.65016 62.12330
#
# Poissons Ratio (x) = 0.57938 -0.09249
# Poissons Ratio (y) = 0.38073 0.29204
# Poissons Ratio (z) = -0.06912 0.33212
#
# Static dielectric constant tensor:
#      x y z
#    x 1.812470 0.000000 0.000000 
#    y 0.000000 1.868360 0.000000 
#    z 0.000000 0.000000 1.845790 
# 
# From -- ./inp_files/46877.got.cif
#   From: 2010.05.17/outbox.cif.g08.bks.cpg/sg64_24_cif.got.tgz:46877.got - 2010.06.03 16:29:19.
