data_PCOD9479125
_publ_section_title
;
Structure prediction by ZEFSAII (Michael W. Deem and Ramdas Pophale) SiO2 
 PCOD9479125
Probable space group: C M C A
;
_chemical_formula_sum "Si O2"
_cell_formula_units_Z 80
_cell_length_a 23.595928
_cell_length_b 11.098848
_cell_length_c 13.226945
_cell_angle_alpha 90.000000
_cell_angle_beta 90.000000
_cell_angle_gamma 90.000000
_cell_volume 3463.973123
_symmetry_space_group_name_H-M "C M C A"
_symmetry_group_IT_number 64
_symmetry_cell_setting 'orthorhombic'
loop_
_space_group_symop_operation_xyz
x,y,z
-x,1/2-y,1/2+z
x,-y,-z
-x,1/2+y,1/2-z
-x,-y,-z
x,1/2+y,1/2-z
-x,y,z
x,1/2-y,1/2+z
1/2+x,1/2+y,z
1/2-x,-y,1/2+z
1/2+x,1/2-y,-z
1/2-x,y,1/2-z
1/2-x,1/2-y,-z
1/2+x,y,1/2-z
1/2-x,1/2+y,z
1/2+x,-y,1/2+z
loop_
_atom_site_type_symbol
_atom_site_label
_atom_site_fract_x
_atom_site_fract_y
_atom_site_fract_z
Si Si1 0.937135 0.053606 0.248246
Si Si2 0.344946 0.039482 0.616280
Si Si3 0.231928 0.126746 0.562925
Si Si4 0.938637 0.733784 0.589036
Si Si5 0.396829 0.890244 0.082318
O O1 0.937308 0.160175 0.329418
O O2 0.000000 0.055246 0.199994
O O3 0.879837 0.057849 0.181432
O O4 0.928744 0.935124 0.318525
O O5 0.282479 0.090584 0.639762
O O6 0.387864 0.148971 0.616351
O O7 0.341540 0.000000 0.500000
O O8 0.250000 0.250000 0.500000
O O9 0.168431 0.144677 0.604088
O O10 0.226295 0.000000 0.500000
O O11 0.928206 0.785482 0.477383
O O12 0.000000 0.674948 0.592057
O O13 0.396676 0.000000 0.000000
#
# Coordination Sequence:
#
# PCOD9479125 Si02
#       5
#    16  16  16  16  16
#     4  10  22  39  60  91 126 166 222 272 320 394
#     4  11  24  40  61  91 129 170 214 272 338 399
#     4  10  20  39  67  95 125 166 215 269 324 392
#     4  10  20  37  62  89 123 169 215 268 330 390
#     4   9  18  36  64  88 119 162 212 267 317 382
#
# _framework density 23.094866
#
# number of rings (size 3 to 8) (size 9 to 14) (size 15 to 20)
#    0.000    2.000    2.000    1.200    0.000    6.400 
#    0.000    2.000    0.000    0.000    0.000    0.000 
#    0.000    0.000    0.000    0.000    0.000    0.000 
#
# Total GULP energy -223075.520891 kJ/mol
# GULP energy per Si atom -5576.888022 kJ/mol
# Density = 2.304230 g / cm^3
# Si number density = 23.094866 Si / 1000 Ang^3
#
#
#
# Elastic Constant Matrix: (Units=GPa)
#
#
# Indices 1 2 3 4 5 6 
#
# 1 150.9603 13.5033 14.3744 0.0000 0.0000 0.0000
# 2 13.5033 74.1769 3.7943 0.0000 0.0000 0.0000
# 3 14.3744 3.7943 57.7714 0.0000 0.0000 0.0000
# 4 0.0000 0.0000 0.0000 20.1206 0.0000 0.0000
# 5 0.0000 0.0000 0.0000 0.0000 32.9789 0.0000
# 6 0.0000 0.0000 0.0000 0.0000 0.0000 39.6800
#
#
#
# Elastic Compliance Matrix: (Units=1/GPa)
#
#
# Indices 1 2 3 4 5 6 
#
# 1 0.006885 -0.001170 -0.001636 0.000000 0.000000 0.000000
# 2 -0.001170 0.013725 -0.000610 0.000000 0.000000 0.000000
# 3 -0.001636 -0.000610 0.017757 0.000000 0.000000 0.000000
# 4 0.000000 0.000000 0.000000 0.049700 0.000000 0.000000
# 5 0.000000 0.000000 0.000000 0.000000 0.030322 0.000000
# 6 0.000000 0.000000 0.000000 0.000000 0.000000 0.025202
#
#
# Mechanical properties :
#
#
# Convention : Reuss Voigt Hill
#
# Bulk Modulus (GPa) = 31.71139 38.47252 35.09195
# Shear Modulus (GPa) = 31.06842 35.30502 33.18672
#
# Velocity S-wave (km/s) = 3.67175 3.91410 3.79486
# Velocity P-wave (km/s) = 5.63350 6.09274 5.86762
#
# Compressibility (1/GPa) = 0.03153441
#
# Stress axis : x y z
#
# Youngs Moduli (GPa) = 145.25006 72.85750 56.31645
#
# Poissons Ratio (x) = 0.08521 0.09214
# Poissons Ratio (y) = 0.16988 0.03438
# Poissons Ratio (z) = 0.23766 0.04448
#
# Static dielectric constant tensor:
#      x y z
#    x 1.898810 0.000000 0.000000 
#    y 0.000000 1.935990 0.000000 
#    z 0.000000 0.000000 1.919090 
# 
# From -- ./inp_files/27044.got.cif
#   From: 2010.05.17/outbox.cif.g08.bks.cpg/sg64_14_cif.got.tgz:27044.got - 2010.06.03 16:29:19.
