data_PCOD9479566
_publ_section_title
;
Structure prediction by ZEFSAII (Michael W. Deem and Ramdas Pophale) SiO2 
 PCOD9479566
Probable space group: C M C A
;
_chemical_formula_sum "Si O2"
_cell_formula_units_Z 104
_cell_length_a 19.758942
_cell_length_b 8.902111
_cell_length_c 26.747772
_cell_angle_alpha 90.000000
_cell_angle_beta 90.000000
_cell_angle_gamma 90.000000
_cell_volume 4704.833992
_symmetry_space_group_name_H-M "C M C A"
_symmetry_group_IT_number 64
_symmetry_cell_setting 'orthorhombic'
loop_
_space_group_symop_operation_xyz
x,y,z
-x,1/2-y,1/2+z
x,-y,-z
-x,1/2+y,1/2-z
-x,-y,-z
x,1/2+y,1/2-z
-x,y,z
x,1/2-y,1/2+z
1/2+x,1/2+y,z
1/2-x,-y,1/2+z
1/2+x,1/2-y,-z
1/2-x,y,1/2-z
1/2-x,1/2-y,-z
1/2+x,y,1/2-z
1/2-x,1/2+y,z
1/2+x,-y,1/2+z
loop_
_atom_site_type_symbol
_atom_site_label
_atom_site_fract_x
_atom_site_fract_y
_atom_site_fract_z
Si Si1 0.574512 0.321846 0.899354
Si Si2 0.093271 0.862010 0.301908
Si Si3 0.700769 0.352818 0.032716
Si Si4 0.199478 0.986397 0.133288
Si Si5 0.255371 0.755727 0.195676
Si Si6 0.500000 0.371878 0.739349
Si Si7 0.921758 0.824582 0.508146
O O1 0.500000 0.390567 0.897333
O O2 0.577118 0.188441 0.858854
O O3 0.628549 0.446211 0.884303
O O4 0.585442 0.255827 0.954292
O O5 0.174587 0.850045 0.301074
O O6 0.058797 0.734250 0.266915
O O7 0.059232 0.017321 0.285415
O O8 0.731934 0.407964 0.084905
O O9 0.685183 0.500000 0.000000
O O10 0.750000 0.250000 0.000000
O O11 0.632919 0.257319 0.042562
O O12 0.239118 0.128670 0.154058
O O13 0.196770 0.867848 0.178153
O O14 0.250000 0.685262 0.250000
O O15 0.000000 0.810326 0.524551
O O16 0.906712 0.000000 0.500000
#
# Coordination Sequence:
#
# PCOD9479566 Si02
#       7
#    16  16  16  16  16   8  16
#     4  10  20  42  69  99 137 183 224 290 351 424
#     4  10  23  39  69  95 137 172 227 279 348 409
#     4  12  24  43  68 101 140 185 236 299 349 427
#     4  11  25  44  66 102 134 186 238 280 360 421
#     4  11  26  44  69  96 139 184 231 290 347 419
#     4  10  20  42  66 102 124 176 225 285 343 409
#     4  10  23  44  73 101 140 180 232 289 365 424
#
# _framework density 22.104924
#
# number of rings (size 3 to 8) (size 9 to 14) (size 15 to 20)
#    0.000    1.385    3.077    1.846    8.615    0.923 
#    0.000    0.000    0.000    0.000    0.000    0.000 
#    0.000    0.000    0.000    0.000    0.000    0.000 
#
# Total GULP energy -289547.923051 kJ/mol
# GULP energy per Si atom -5568.229289 kJ/mol
# Density = 2.205461 g / cm^3
# Si number density = 22.104924 Si / 1000 Ang^3
#
#
#
# Elastic Constant Matrix: (Units=GPa)
#
#
# Indices 1 2 3 4 5 6 
#
# 1 60.5221 34.5293 6.7995 0.0000 0.0000 0.0000
# 2 34.5293 86.6041 18.4544 0.0000 0.0000 0.0000
# 3 6.7995 18.4544 60.1629 0.0000 0.0000 0.0000
# 4 0.0000 0.0000 0.0000 19.4519 0.0000 0.0000
# 5 0.0000 0.0000 0.0000 0.0000 24.5829 0.0000
# 6 0.0000 0.0000 0.0000 0.0000 0.0000 28.4148
#
#
#
# Elastic Compliance Matrix: (Units=1/GPa)
#
#
# Indices 1 2 3 4 5 6 
#
# 1 0.021391 -0.008574 0.000212 0.000000 0.000000 0.000000
# 2 -0.008574 0.015791 -0.003875 0.000000 0.000000 0.000000
# 3 0.000212 -0.003875 0.017786 0.000000 0.000000 0.000000
# 4 0.000000 0.000000 0.000000 0.051409 0.000000 0.000000
# 5 0.000000 0.000000 0.000000 0.000000 0.040679 0.000000
# 6 0.000000 0.000000 0.000000 0.000000 0.000000 0.035193
#
#
# Mechanical properties :
#
#
# Convention : Reuss Voigt Hill
#
# Bulk Modulus (GPa) = 32.79186 36.31727 34.55456
# Shear Modulus (GPa) = 23.05368 24.32364 23.68866
#
# Velocity S-wave (km/s) = 3.23293 3.32078 3.27715
# Velocity P-wave (km/s) = 5.36681 5.58289 5.47591
#
# Compressibility (1/GPa) = 0.03049537
#
# Stress axis : x y z
#
# Youngs Moduli (GPa) = 46.74962 63.32790 56.22380
#
# Poissons Ratio (x) = 0.54296 -0.01194
# Poissons Ratio (y) = 0.40082 0.21785
# Poissons Ratio (z) = -0.00993 0.24538
#
# Static dielectric constant tensor:
#      x y z
#    x 1.895860 0.000000 0.000000 
#    y 0.000000 1.802470 0.000000 
#    z 0.000000 0.000000 1.835810 
# 
# From -- ./inp_files/50743.got.cif
#   From: 2010.05.17/outbox.cif.g08.bks.cpg/sg64_26_cif.got.tgz:50743.got - 2010.06.03 16:29:19.
