data_PCOD9479304
_publ_section_title
;
Structure prediction by ZEFSAII (Michael W. Deem and Ramdas Pophale) SiO2 
 PCOD9479304
Probable space group: C M C A
;
_chemical_formula_sum "Si O2"
_cell_formula_units_Z 72
_cell_length_a 26.498518
_cell_length_b 13.713204
_cell_length_c 9.584805
_cell_angle_alpha 90.000000
_cell_angle_beta 90.000000
_cell_angle_gamma 90.000000
_cell_volume 3482.922444
_symmetry_space_group_name_H-M "C M C A"
_symmetry_group_IT_number 64
_symmetry_cell_setting 'orthorhombic'
loop_
_space_group_symop_operation_xyz
x,y,z
-x,1/2-y,1/2+z
x,-y,-z
-x,1/2+y,1/2-z
-x,-y,-z
x,1/2+y,1/2-z
-x,y,z
x,1/2-y,1/2+z
1/2+x,1/2+y,z
1/2-x,-y,1/2+z
1/2+x,1/2-y,-z
1/2-x,y,1/2-z
1/2-x,1/2-y,-z
1/2+x,y,1/2-z
1/2-x,1/2+y,z
1/2+x,-y,1/2+z
loop_
_atom_site_type_symbol
_atom_site_label
_atom_site_fract_x
_atom_site_fract_y
_atom_site_fract_z
Si Si1 0.389203 0.335068 0.192744
Si Si2 0.668904 0.280717 0.467236
Si Si3 0.088079 0.000000 0.000000
Si Si4 0.500000 0.628003 0.128040
Si Si5 0.500000 0.729709 0.851949
Si Si6 0.261191 0.095879 0.410673
O O1 0.361501 0.326442 0.339042
O O2 0.381207 0.435385 0.108935
O O3 0.449330 0.322057 0.202245
O O4 0.367870 0.250258 0.092485
O O5 0.696404 0.180611 0.417889
O O6 0.711752 0.353364 0.522061
O O7 0.050001 0.931467 0.911941
O O8 0.500000 0.664060 0.285052
O O9 0.500000 0.718273 0.018667
O O10 0.250000 0.071063 0.250000
O O11 0.272938 0.000000 0.500000
#
# Coordination Sequence:
#
# PCOD9479304 Si02
#       6
#    16  16   8   8   8  16
#     4  11  22  41  68  97 137 184 225 280 334 407
#     4  11  25  44  69 100 137 176 228 279 348 407
#     4   9  20  34  64  96 128 174 238 266 330 399
#     4   9  18  38  60  89 124 182 230 273 326 389
#     4  10  20  38  64  88 136 182 214 270 332 386
#     4  11  26  46  71 100 134 174 226 289 349 412
#
# _framework density 20.672294999999998
#
# number of rings (size 3 to 8) (size 9 to 14) (size 15 to 20)
#    0.000    1.556    2.222    3.333    4.667    0.000 
#    4.000    0.000    0.000   10.667    0.000    0.000 
#    0.000    0.000    0.000    0.000    0.000    0.000 
#
# Total GULP energy -201243.298955 kJ/mol
# GULP energy per Si atom -5590.091638 kJ/mol
# Density = 2.062524 g / cm^3
# Si number density = 20.672295 Si / 1000 Ang^3
#
#
#
# Elastic Constant Matrix: (Units=GPa)
#
#
# Indices 1 2 3 4 5 6 
#
# 1 110.9785 20.6569 46.8999 0.0000 0.0000 0.0000
# 2 20.6569 79.4254 31.5338 0.0000 0.0000 0.0000
# 3 46.8999 31.5338 102.6948 0.0000 0.0000 0.0000
# 4 0.0000 0.0000 0.0000 40.0867 0.0000 0.0000
# 5 0.0000 0.0000 0.0000 0.0000 33.7510 0.0000
# 6 0.0000 0.0000 0.0000 0.0000 0.0000 3.9239
#
#
#
# Elastic Compliance Matrix: (Units=1/GPa)
#
#
# Indices 1 2 3 4 5 6 
#
# 1 0.011236 -0.001008 -0.004822 0.000000 0.000000 0.000000
# 2 -0.001008 0.014429 -0.003970 0.000000 0.000000 0.000000
# 3 -0.004822 -0.003970 0.013159 0.000000 0.000000 0.000000
# 4 0.000000 0.000000 0.000000 0.024946 0.000000 0.000000
# 5 0.000000 0.000000 0.000000 0.000000 0.029629 0.000000
# 6 0.000000 0.000000 0.000000 0.000000 0.000000 0.254849
#
#
# Mechanical properties :
#
#
# Convention : Reuss Voigt Hill
#
# Bulk Modulus (GPa) = 52.01929 54.58664 53.30297
# Shear Modulus (GPa) = 13.35986 28.48621 20.92304
#
# Velocity S-wave (km/s) = 2.54494 3.71616 3.18485
# Velocity P-wave (km/s) = 5.81842 6.69896 6.27416
#
# Compressibility (1/GPa) = 0.01922364
#
# Stress axis : x y z
#
# Youngs Moduli (GPa) = 88.99863 69.30559 75.99436
#
# Poissons Ratio (x) = 0.06985 0.36644
# Poissons Ratio (y) = 0.08970 0.30172
# Poissons Ratio (z) = 0.42915 0.27516
#
# Static dielectric constant tensor:
#      x y z
#    x 1.761160 0.000000 0.000000 
#    y 0.000000 1.754070 0.000000 
#    z 0.000000 0.000000 1.704280 
# 
# From -- ./inp_files/10058.got.cif
#   From: 2010.05.17/outbox.cif.g08.bks.cpg/sg64_6_cif.got.tgz:10058.got - 2010.06.03 16:29:19.
