data_PCOD9479645
_publ_section_title
;
Structure prediction by ZEFSAII (Michael W. Deem and Ramdas Pophale) SiO2 
 PCOD9479645
Probable space group: C M C A
;
_chemical_formula_sum "Si O2"
_cell_formula_units_Z 72
_cell_length_a 16.070955
_cell_length_b 16.244523
_cell_length_c 13.505108
_cell_angle_alpha 90.000000
_cell_angle_beta 90.000000
_cell_angle_gamma 90.000000
_cell_volume 3525.710995
_symmetry_space_group_name_H-M "C M C A"
_symmetry_group_IT_number 64
_symmetry_cell_setting 'orthorhombic'
loop_
_space_group_symop_operation_xyz
x,y,z
-x,1/2-y,1/2+z
x,-y,-z
-x,1/2+y,1/2-z
-x,-y,-z
x,1/2+y,1/2-z
-x,y,z
x,1/2-y,1/2+z
1/2+x,1/2+y,z
1/2-x,-y,1/2+z
1/2+x,1/2-y,-z
1/2-x,y,1/2-z
1/2-x,1/2-y,-z
1/2+x,y,1/2-z
1/2-x,1/2+y,z
1/2+x,-y,1/2+z
loop_
_atom_site_type_symbol
_atom_site_label
_atom_site_fract_x
_atom_site_fract_y
_atom_site_fract_z
Si Si1 0.661868 0.876885 0.233700
Si Si2 0.000000 0.045438 0.837490
Si Si3 0.500000 0.853324 0.702978
Si Si4 0.398395 0.401710 0.487526
Si Si5 0.500000 0.682495 0.982859
Si Si6 0.369652 0.281270 0.645663
O O1 0.750000 0.922123 0.250000
O O2 0.582509 0.920597 0.283469
O O3 0.674073 0.790369 0.292107
O O4 0.636025 0.872203 0.118632
O O5 0.000000 0.088268 0.945153
O O6 0.000000 0.948463 0.824769
O O7 0.500000 0.806629 0.599243
O O8 0.576867 0.827285 0.770618
O O9 0.389385 0.500000 0.500000
O O10 0.500000 0.386031 0.496832
O O11 0.344520 0.355362 0.572480
O O12 0.577301 0.726936 0.931857
#
# Coordination Sequence:
#
# PCOD9479645 Si02
#       6
#    16   8   8  16   8  16
#     4  11  24  42  64  93 130 168 212 266 317 380
#     4  10  21  39  62  88 123 163 209 260 322 378
#     4  11  18  34  62  91 117 161 212 254 319 379
#     4  11  21  38  66  96 126 169 216 264 315 378
#     4   9  18  31  53  89 120 154 199 254 314 379
#     4  10  21  34  59  91 122 162 214 256 313 374
#
# _framework density 20.421413000000001
#
# number of rings (size 3 to 8) (size 9 to 14) (size 15 to 20)
#    0.000    1.556    3.333    3.667    0.000    0.889 
#    0.000    8.889    0.000    0.000    0.000    0.000 
#    0.000    0.000    0.000    0.000    0.000    0.000 
#
# Total GULP energy -200449.609045 kJ/mol
# GULP energy per Si atom -5568.044696 kJ/mol
# Density = 2.037493 g / cm^3
# Si number density = 20.421413 Si / 1000 Ang^3
#
#
#
# Elastic Constant Matrix: (Units=GPa)
#
#
# Indices 1 2 3 4 5 6 
#
# 1 78.5529 14.4985 16.6798 0.0000 0.0000 0.0000
# 2 14.4985 96.6444 29.8226 0.0000 0.0000 0.0000
# 3 16.6798 29.8226 167.2373 0.0000 0.0000 0.0000
# 4 0.0000 0.0000 0.0000 32.5836 0.0000 0.0000
# 5 0.0000 0.0000 0.0000 0.0000 16.4077 0.0000
# 6 0.0000 0.0000 0.0000 0.0000 0.0000 -12.2629
#
#
#
# Elastic Compliance Matrix: (Units=1/GPa)
#
#
# Indices 1 2 3 4 5 6 
#
# 1 0.013256 -0.001673 -0.001024 0.000000 0.000000 0.000000
# 2 -0.001673 0.011161 -0.001823 0.000000 0.000000 0.000000
# 3 -0.001024 -0.001823 0.006407 0.000000 0.000000 0.000000
# 4 0.000000 0.000000 0.000000 0.030690 0.000000 0.000000
# 5 0.000000 0.000000 0.000000 0.000000 0.060947 0.000000
# 6 0.000000 0.000000 0.000000 0.000000 0.000000 -0.081546
#
#
# Mechanical properties :
#
#
# Convention : Reuss Voigt Hill
#
# Bulk Modulus (GPa) = 45.90536 51.60405 48.75470
# Shear Modulus (GPa) = 87.38794 26.10794 56.74794
#
# Velocity S-wave (km/s) = 6.54868 3.57943 5.27719
# Velocity P-wave (km/s) = 8.92794 6.51211 7.81395
#
# Compressibility (1/GPa) = 0.02178395
#
# Stress axis : x y z
#
# Youngs Moduli (GPa) = 75.43514 89.59911 156.08408
#
# Poissons Ratio (x) = 0.14988 0.15981
# Poissons Ratio (y) = 0.12619 0.28461
# Poissons Ratio (z) = 0.07724 0.16338
#
# Static dielectric constant tensor:
#      x y z
#    x 1.754620 0.000000 0.000000 
#    y 0.000000 1.775900 0.000000 
#    z 0.000000 0.000000 1.725830 
# 
# From -- ./inp_files/15797.got.cif
#   From: 2010.05.17/outbox.cif.g08.bks.cpg/sg64_8_cif.got.tgz:15797.got - 2010.06.03 16:29:19.
