data_PCOD9479481
_publ_section_title
;
Structure prediction by ZEFSAII (Michael W. Deem and Ramdas Pophale) SiO2 
 PCOD9479481
Probable space group: C M C A
;
_chemical_formula_sum "Si O2"
_cell_formula_units_Z 40
_cell_length_a 17.971100
_cell_length_b 22.741006
_cell_length_c 4.858418
_cell_angle_alpha 90.000000
_cell_angle_beta 90.000000
_cell_angle_gamma 90.000000
_cell_volume 1985.542606
_symmetry_space_group_name_H-M "C M C A"
_symmetry_group_IT_number 64
_symmetry_cell_setting 'orthorhombic'
loop_
_space_group_symop_operation_xyz
x,y,z
-x,1/2-y,1/2+z
x,-y,-z
-x,1/2+y,1/2-z
-x,-y,-z
x,1/2+y,1/2-z
-x,y,z
x,1/2-y,1/2+z
1/2+x,1/2+y,z
1/2-x,-y,1/2+z
1/2+x,1/2-y,-z
1/2-x,y,1/2-z
1/2-x,1/2-y,-z
1/2+x,y,1/2-z
1/2-x,1/2+y,z
1/2+x,-y,1/2+z
loop_
_atom_site_type_symbol
_atom_site_label
_atom_site_fract_x
_atom_site_fract_y
_atom_site_fract_z
Si Si1 0.583118 0.106277 0.877406
Si Si2 0.500000 0.288204 0.596154
Si Si3 0.328479 0.934942 0.624509
O O1 0.500000 0.087127 0.786549
O O2 0.638690 0.103702 0.622879
O O3 0.569173 0.170843 0.007428
O O4 0.613835 0.066700 0.124284
O O5 0.500000 0.229462 0.413130
O O6 0.250000 0.915050 0.750000
O O7 0.318884 0.000000 0.500000
#
# Coordination Sequence:
#
# PCOD9479481 Si02
#       3
#    16   8  16
#     4  10  23  38  62  94 111 163 203 254 285 351
#     4  10  20  40  65  88 115 152 200 256 318 342
#     4  12  23  39  59  87 130 167 193 232 302 363
#
# _framework density 20.145626
#
# number of rings (size 3 to 8) (size 9 to 14) (size 15 to 20)
#    1.200    0.000    0.000    8.400    0.000    4.800 
#    0.000    0.000    0.000   24.000    0.000    0.000 
#    0.000    0.000    0.000    0.000    0.000    0.000 
#
# Total GULP energy -111635.499787 kJ/mol
# GULP energy per Si atom -5581.774989 kJ/mol
# Density = 2.009977 g / cm^3
# Si number density = 20.145626 Si / 1000 Ang^3
#
#
#
# Elastic Constant Matrix: (Units=GPa)
#
#
# Indices 1 2 3 4 5 6 
#
# 1 78.7296 9.4589 29.1513 0.0000 0.0000 0.0000
# 2 9.4589 26.9166 9.1403 0.0000 0.0000 0.0000
# 3 29.1513 9.1403 101.5090 0.0000 0.0000 0.0000
# 4 0.0000 0.0000 0.0000 45.0871 0.0000 0.0000
# 5 0.0000 0.0000 0.0000 0.0000 -80.1698 0.0000
# 6 0.0000 0.0000 0.0000 0.0000 0.0000 84.3034
#
#
#
# Elastic Compliance Matrix: (Units=1/GPa)
#
#
# Indices 1 2 3 4 5 6 
#
# 1 0.014584 -0.003820 -0.003844 0.000000 0.000000 0.000000
# 2 -0.003820 0.039324 -0.002444 0.000000 0.000000 0.000000
# 3 -0.003844 -0.002444 0.011175 0.000000 0.000000 0.000000
# 4 0.000000 0.000000 0.000000 0.022179 0.000000 0.000000
# 5 0.000000 0.000000 0.000000 0.000000 -0.012474 0.000000
# 6 0.000000 0.000000 0.000000 0.000000 0.000000 0.011862
#
#
# Mechanical properties :
#
#
# Convention : Reuss Voigt Hill
#
# Bulk Modulus (GPa) = 22.28777 33.62849 27.95813
# Shear Modulus (GPa) = 41.04318 20.47113 30.75716
#
# Velocity S-wave (km/s) = 4.51857 3.19118 3.91159
# Velocity P-wave (km/s) = 6.18956 5.50519 5.85738
#
# Compressibility (1/GPa) = 0.04486766
#
# Stress axis : x y z
#
# Youngs Moduli (GPa) = 68.56808 25.42973 89.48211
#
# Poissons Ratio (x) = 0.09713 0.34400
# Poissons Ratio (y) = 0.26191 0.21869
# Poissons Ratio (z) = 0.26360 0.06215
#
# Static dielectric constant tensor:
#      x y z
#    x 1.719600 0.000000 0.000000 
#    y 0.000000 1.728540 0.000000 
#    z 0.000000 0.000000 1.702980 
# 
# From -- ./inp_files/584.got.cif
#   From: 2010.05.17/outbox.cif.g08.bks.cpg/sg64_1_cif.got.tgz:584.got - 2010.06.03 16:29:19.
