data_PCOD9479205
_publ_section_title
;
Structure prediction by ZEFSAII (Michael W. Deem and Ramdas Pophale) SiO2 
 PCOD9479205
Probable space group: C M C A
;
_chemical_formula_sum "Si O2"
_cell_formula_units_Z 96
_cell_length_a 8.749158
_cell_length_b 20.931036
_cell_length_c 29.132222
_cell_angle_alpha 90.000000
_cell_angle_beta 90.000000
_cell_angle_gamma 90.000000
_cell_volume 5334.952966
_symmetry_space_group_name_H-M "C M C A"
_symmetry_group_IT_number 64
_symmetry_cell_setting 'orthorhombic'
loop_
_space_group_symop_operation_xyz
x,y,z
-x,1/2-y,1/2+z
x,-y,-z
-x,1/2+y,1/2-z
-x,-y,-z
x,1/2+y,1/2-z
-x,y,z
x,1/2-y,1/2+z
1/2+x,1/2+y,z
1/2-x,-y,1/2+z
1/2+x,1/2-y,-z
1/2-x,y,1/2-z
1/2-x,1/2-y,-z
1/2+x,y,1/2-z
1/2-x,1/2+y,z
1/2+x,-y,1/2+z
loop_
_atom_site_type_symbol
_atom_site_label
_atom_site_fract_x
_atom_site_fract_y
_atom_site_fract_z
Si Si1 0.315326 0.871885 0.603391
Si Si2 0.815664 0.504194 0.553583
Si Si3 0.683490 0.824050 0.701347
Si Si4 0.683669 0.824859 0.201277
Si Si5 0.817514 0.249780 0.449032
Si Si6 0.183686 0.872060 0.396606
O O1 0.500000 0.864254 0.600502
O O2 0.271466 0.864810 0.656877
O O3 0.238381 0.813979 0.576345
O O4 0.275498 0.939009 0.580117
O O5 0.770239 0.500000 0.500000
O O6 0.742043 0.564357 0.578872
O O7 0.000000 0.511215 0.554784
O O8 0.500000 0.824845 0.704331
O O9 0.750000 0.845518 0.750000
O O10 0.730487 0.749631 0.694070
O O11 0.500000 0.825640 0.204019
O O12 0.750000 0.846192 0.250000
O O13 0.729895 0.865601 0.156928
O O14 0.750000 0.250000 0.500000
O O15 0.752588 0.310920 0.422325
O O16 0.000000 0.252501 0.450550
O O17 0.000000 0.868786 0.398858
#
# Coordination Sequence:
#
# PCOD9479205 Si02
#       6
#    16  16  16  16  16  16
#     4  10  20  38  59  82 117 152 188 239 294 341
#     4  10  22  39  59  83 114 156 199 237 287 349
#     4   9  17  32  54  81 113 148 186 232 288 342
#     4   9  18  33  55  83 114 148 187 233 286 341
#     4  12  24  37  58  86 115 147 191 240 288 342
#     4  11  22  39  60  85 118 152 192 241 290 340
#
# _framework density 17.994534999999999
#
# number of rings (size 3 to 8) (size 9 to 14) (size 15 to 20)
#    0.000    1.833    1.667    3.000    0.000    4.333 
#    0.000    0.833    0.000    4.000    0.000    0.000 
#    0.000    0.000    0.000    0.000    0.000    0.000 
#
# Total GULP energy -268058.785453 kJ/mol
# GULP energy per Si atom -5584.558030 kJ/mol
# Density = 1.795358 g / cm^3
# Si number density = 17.994535 Si / 1000 Ang^3
#
#
#
# Elastic Constant Matrix: (Units=GPa)
#
#
# Indices 1 2 3 4 5 6 
#
# 1 37.6902 54.3987 53.7223 0.0000 0.0000 0.0000
# 2 54.3987 130.5695 91.1881 0.0000 0.0000 0.0000
# 3 53.7223 91.1881 205.1037 0.0000 0.0000 0.0000
# 4 0.0000 0.0000 0.0000 28.2311 0.0000 0.0000
# 5 0.0000 0.0000 0.0000 0.0000 32.4084 0.0000
# 6 0.0000 0.0000 0.0000 0.0000 0.0000 25.2721
#
#
#
# Elastic Compliance Matrix: (Units=1/GPa)
#
#
# Indices 1 2 3 4 5 6 
#
# 1 0.075321 -0.025530 -0.008378 0.000000 0.000000 0.000000
# 2 -0.025530 0.019761 -0.002099 0.000000 0.000000 0.000000
# 3 -0.008378 -0.002099 0.008003 0.000000 0.000000 0.000000
# 4 0.000000 0.000000 0.000000 0.035422 0.000000 0.000000
# 5 0.000000 0.000000 0.000000 0.000000 0.030856 0.000000
# 6 0.000000 0.000000 0.000000 0.000000 0.000000 0.039569
#
#
# Mechanical properties :
#
#
# Convention : Reuss Voigt Hill
#
# Bulk Modulus (GPa) = 32.18320 85.77573 58.97947
# Shear Modulus (GPa) = 17.16424 28.78594 22.97509
#
# Velocity S-wave (km/s) = 3.09181 4.00397 3.57708
# Velocity P-wave (km/s) = 5.53801 8.31546 7.06457
#
# Compressibility (1/GPa) = 0.03107211
#
# Stress axis : x y z
#
# Youngs Moduli (GPa) = 13.27644 50.60555 124.95061
#
# Poissons Ratio (x) = 1.29193 1.04689
# Poissons Ratio (y) = 0.33894 0.26222
# Poissons Ratio (z) = 0.11124 0.10620
#
# Static dielectric constant tensor:
#      x y z
#    x 1.609460 0.000000 0.000000 
#    y 0.000000 1.585070 0.000000 
#    z 0.000000 0.000000 1.617730 
# 
# From -- ./inp_files/48041.got.cif
#   From: 2010.05.17/outbox.cif.g08.bks.cpg/sg64_25_cif.got.tgz:48041.got - 2010.06.03 16:29:19.
