data_PCOD9479571
_publ_section_title
;
Structure prediction by ZEFSAII (Michael W. Deem and Ramdas Pophale) SiO2 
 PCOD9479571
Probable space group: C M C A
;
_chemical_formula_sum "Si O2"
_cell_formula_units_Z 68
_cell_length_a 23.004344
_cell_length_b 27.878395
_cell_length_c 5.048407
_cell_angle_alpha 90.000000
_cell_angle_beta 90.000000
_cell_angle_gamma 90.000000
_cell_volume 3237.665524
_symmetry_space_group_name_H-M "C M C A"
_symmetry_group_IT_number 64
_symmetry_cell_setting 'orthorhombic'
loop_
_space_group_symop_operation_xyz
x,y,z
-x,1/2-y,1/2+z
x,-y,-z
-x,1/2+y,1/2-z
-x,-y,-z
x,1/2+y,1/2-z
-x,y,z
x,1/2-y,1/2+z
1/2+x,1/2+y,z
1/2-x,-y,1/2+z
1/2+x,1/2-y,-z
1/2-x,y,1/2-z
1/2-x,1/2-y,-z
1/2+x,y,1/2-z
1/2-x,1/2+y,z
1/2+x,-y,1/2+z
loop_
_atom_site_type_symbol
_atom_site_label
_atom_site_fract_x
_atom_site_fract_y
_atom_site_fract_z
Si Si1 0.104876 0.432131 0.405865
Si Si2 0.623162 0.716416 0.227929
Si Si3 0.750000 0.215080 0.250000
Si Si4 0.210398 0.000000 0.000000
Si Si5 0.500000 0.500000 0.000000
Si Si6 0.568170 0.123023 0.077493
O O1 0.166638 0.458191 0.404116
O O2 0.091453 0.412777 0.698490
O O3 0.052033 0.468910 0.349059
O O4 0.100193 0.389044 0.196057
O O5 0.618690 0.759891 0.439379
O O6 0.686992 0.691009 0.250268
O O7 0.578018 0.676247 0.311895
O O8 0.750000 0.250000 0.500000
O O9 0.250000 0.014272 0.250000
O O10 0.500000 0.114826 0.041914
#
# Coordination Sequence:
#
# PCOD9479571 Si02
#       6
#    16  16   8   8   4  16
#     4  11  24  41  67  95 127 168 211 265 313 380
#     4  10  21  38  61  86 122 171 212 255 317 369
#     4   8  16  34  56  78 106 152 212 252 286 360
#     4  11  24  47  68  93 132 167 208 260 330 395
#     4  10  20  42  68  90 116 168 212 240 316 372
#     4  12  23  40  61  98 134 160 216 267 309 377
#
# _framework density 21.002789
#
# number of rings (size 3 to 8) (size 9 to 14) (size 15 to 20)
#    0.000    1.412    2.353    2.824    0.000    4.706 
#    6.353    0.000    0.000    0.000    0.000    0.000 
#    0.000    0.000    0.000    0.000    0.000    0.000 
#
# Total GULP energy -189324.879530 kJ/mol
# GULP energy per Si atom -5568.378810 kJ/mol
# Density = 2.095499 g / cm^3
# Si number density = 21.002789 Si / 1000 Ang^3
#
#
#
# Elastic Constant Matrix: (Units=GPa)
#
#
# Indices 1 2 3 4 5 6 
#
# 1 99.6808 16.5046 20.5165 0.0000 0.0000 0.0000
# 2 16.5046 39.5579 -12.7229 0.0000 0.0000 0.0000
# 3 20.5165 -12.7229 74.2186 0.0000 0.0000 0.0000
# 4 0.0000 0.0000 0.0000 26.3236 0.0000 0.0000
# 5 0.0000 0.0000 0.0000 0.0000 21.2893 0.0000
# 6 0.0000 0.0000 0.0000 0.0000 0.0000 31.1437
#
#
#
# Elastic Compliance Matrix: (Units=1/GPa)
#
#
# Indices 1 2 3 4 5 6 
#
# 1 0.012007 -0.006432 -0.004422 0.000000 0.000000 0.000000
# 2 -0.006432 0.030200 0.006955 0.000000 0.000000 0.000000
# 3 -0.004422 0.006955 0.015888 0.000000 0.000000 0.000000
# 4 0.000000 0.000000 0.000000 0.037989 0.000000 0.000000
# 5 0.000000 0.000000 0.000000 0.000000 0.046972 0.000000
# 6 0.000000 0.000000 0.000000 0.000000 0.000000 0.032109
#
#
# Mechanical properties :
#
#
# Convention : Reuss Voigt Hill
#
# Bulk Modulus (GPa) = 19.88150 29.11707 24.49929
# Shear Modulus (GPa) = 25.03405 28.36195 26.69800
#
# Velocity S-wave (km/s) = 3.45619 3.67875 3.56921
# Velocity P-wave (km/s) = 5.04120 5.65135 5.35497
#
# Compressibility (1/GPa) = 0.05029801
#
# Stress axis : x y z
#
# Youngs Moduli (GPa) = 83.28439 33.11280 62.93952
#
# Poissons Ratio (x) = 0.21297 0.27830
# Poissons Ratio (y) = 0.53567 -0.43774
# Poissons Ratio (z) = 0.36826 -0.23030
#
# Static dielectric constant tensor:
#      x y z
#    x 1.783620 0.000000 0.000000 
#    y 0.000000 1.777760 0.000000 
#    z 0.000000 0.000000 1.744750 
# 
# From -- ./inp_files/1880.got.cif
#   From: 2010.05.17/outbox.cif.g08.bks.cpg/sg64_1_cif.got.tgz:1880.got - 2010.06.03 16:29:19.
