data_PCOD9479107
_publ_section_title
;
Structure prediction by ZEFSAII (Michael W. Deem and Ramdas Pophale) SiO2 
 PCOD9479107
Probable space group: C M C A
;
_chemical_formula_sum "Si O2"
_cell_formula_units_Z 88
_cell_length_a 13.841645
_cell_length_b 22.556994
_cell_length_c 13.671381
_cell_angle_alpha 90.000000
_cell_angle_beta 90.000000
_cell_angle_gamma 90.000000
_cell_volume 4268.559281
_symmetry_space_group_name_H-M "C M C A"
_symmetry_group_IT_number 64
_symmetry_cell_setting 'orthorhombic'
loop_
_space_group_symop_operation_xyz
x,y,z
-x,1/2-y,1/2+z
x,-y,-z
-x,1/2+y,1/2-z
-x,-y,-z
x,1/2+y,1/2-z
-x,y,z
x,1/2-y,1/2+z
1/2+x,1/2+y,z
1/2-x,-y,1/2+z
1/2+x,1/2-y,-z
1/2-x,y,1/2-z
1/2-x,1/2-y,-z
1/2+x,y,1/2-z
1/2-x,1/2+y,z
1/2+x,-y,1/2+z
loop_
_atom_site_type_symbol
_atom_site_label
_atom_site_fract_x
_atom_site_fract_y
_atom_site_fract_z
Si Si1 0.750000 0.111148 0.250000
Si Si2 0.209827 0.002462 0.384240
Si Si3 0.809079 0.204956 0.107711
Si Si4 0.603408 0.236786 0.062062
Si Si5 0.891080 0.695784 0.765669
Si Si6 0.611525 0.061412 0.717980
O O1 0.821453 0.155181 0.190574
O O2 0.789944 0.067414 0.333850
O O3 0.311808 0.971501 0.352225
O O4 0.128304 0.967207 0.324615
O O5 0.199053 0.000000 0.500000
O O6 0.701428 0.198740 0.063442
O O7 0.822701 0.268881 0.160337
O O8 0.881239 0.210798 0.017202
O O9 0.500000 0.206897 0.044771
O O10 0.602076 0.265009 0.168818
O O11 0.863540 0.630324 0.732206
O O12 0.000000 0.692460 0.808390
O O13 0.500000 0.055901 0.686695
#
# Coordination Sequence:
#
# PCOD9479107 Si02
#       6
#     8  16  16  16  16  16
#     4  10  22  40  58  92 118 162 202 242 318 358
#     4  10  24  41  64  87 116 156 211 261 302 358
#     4  11  21  37  60  84 132 160 190 246 304 356
#     4  10  22  35  55  90 121 159 200 230 289 367
#     4  10  20  37  61  90 119 155 198 237 293 363
#     4   9  21  41  63  87 117 157 203 251 302 357
#
# _framework density 20.615856000000001
#
# number of rings (size 3 to 8) (size 9 to 14) (size 15 to 20)
#    0.000    2.182    1.818    0.545    7.636    2.182 
#    0.000   10.909    0.000    0.000    0.000    0.000 
#    0.000    0.000    0.000    0.000    0.000    0.000 
#
# Total GULP energy -245192.375447 kJ/mol
# GULP energy per Si atom -5572.553987 kJ/mol
# Density = 2.056893 g / cm^3
# Si number density = 20.615856 Si / 1000 Ang^3
#
#
#
# Elastic Constant Matrix: (Units=GPa)
#
#
# Indices 1 2 3 4 5 6 
#
# 1 95.3506 -9.4895 -18.3780 0.0000 0.0000 0.0000
# 2 -9.4895 52.7121 -8.2687 0.0000 0.0000 0.0000
# 3 -18.3780 -8.2687 99.4854 0.0000 0.0000 0.0000
# 4 0.0000 0.0000 0.0000 22.0799 0.0000 0.0000
# 5 0.0000 0.0000 0.0000 0.0000 14.8947 0.0000
# 6 0.0000 0.0000 0.0000 0.0000 0.0000 12.4027
#
#
#
# Elastic Compliance Matrix: (Units=1/GPa)
#
#
# Indices 1 2 3 4 5 6 
#
# 1 0.011158 0.002363 0.002258 0.000000 0.000000 0.000000
# 2 0.002363 0.019722 0.002076 0.000000 0.000000 0.000000
# 3 0.002258 0.002076 0.010641 0.000000 0.000000 0.000000
# 4 0.000000 0.000000 0.000000 0.045290 0.000000 0.000000
# 5 0.000000 0.000000 0.000000 0.000000 0.067138 0.000000
# 6 0.000000 0.000000 0.000000 0.000000 0.000000 0.080628
#
#
# Mechanical properties :
#
#
# Convention : Reuss Voigt Hill
#
# Bulk Modulus (GPa) = 18.21050 19.47506 18.84278
# Shear Modulus (GPa) = 20.87780 28.78776 24.83278
#
# Velocity S-wave (km/s) = 3.18576 3.74088 3.47442
# Velocity P-wave (km/s) = 4.73122 5.30340 5.02546
#
# Compressibility (1/GPa) = 0.05491338
#
# Stress axis : x y z
#
# Youngs Moduli (GPa) = 89.62256 50.70496 93.97348
#
# Poissons Ratio (x) = -0.11981 -0.21215
# Poissons Ratio (y) = -0.21176 -0.19506
# Poissons Ratio (z) = -0.20233 -0.10525
#
# Static dielectric constant tensor:
#      x y z
#    x 1.791270 0.000000 0.000000 
#    y 0.000000 1.744450 0.000000 
#    z 0.000000 0.000000 1.754810 
# 
# From -- ./inp_files/24097.got.cif
#   From: 2010.05.17/outbox.cif.g08.bks.cpg/sg64_13_cif.got.tgz:24097.got - 2010.06.03 16:29:19.
