data_PCOD9479546
_publ_section_title
;
Structure prediction by ZEFSAII (Michael W. Deem and Ramdas Pophale) SiO2 
 PCOD9479546
Probable space group: C M C A
;
_chemical_formula_sum "Si O2"
_cell_formula_units_Z 80
_cell_length_a 24.878579
_cell_length_b 9.848183
_cell_length_c 17.036211
_cell_angle_alpha 90.000000
_cell_angle_beta 90.000000
_cell_angle_gamma 90.000000
_cell_volume 4174.021593
_symmetry_space_group_name_H-M "C M C A"
_symmetry_group_IT_number 64
_symmetry_cell_setting 'orthorhombic'
loop_
_space_group_symop_operation_xyz
x,y,z
-x,1/2-y,1/2+z
x,-y,-z
-x,1/2+y,1/2-z
-x,-y,-z
x,1/2+y,1/2-z
-x,y,z
x,1/2-y,1/2+z
1/2+x,1/2+y,z
1/2-x,-y,1/2+z
1/2+x,1/2-y,-z
1/2-x,y,1/2-z
1/2-x,1/2-y,-z
1/2+x,y,1/2-z
1/2-x,1/2+y,z
1/2+x,-y,1/2+z
loop_
_atom_site_type_symbol
_atom_site_label
_atom_site_fract_x
_atom_site_fract_y
_atom_site_fract_z
Si Si1 0.844343 0.969105 0.667476
Si Si2 0.060014 0.380299 0.937053
Si Si3 0.935611 0.861483 0.951770
Si Si4 0.652791 0.204879 0.325269
Si Si5 0.754451 0.879131 0.943452
O O1 0.901217 0.929152 0.630266
O O2 0.839576 0.877092 0.744746
O O3 0.799038 0.927911 0.603100
O O4 0.844110 0.131155 0.684125
O O5 0.000000 0.347106 0.908393
O O6 0.056524 0.500000 0.000000
O O7 0.081702 0.254123 0.986574
O O8 0.901069 0.839739 0.872971
O O9 0.000000 0.846696 0.936508
O O10 0.927339 0.000000 0.000000
O O11 0.701596 0.158770 0.379792
O O12 0.750000 0.750000 0.000000
O O13 0.772433 0.000000 0.000000
#
# Coordination Sequence:
#
# PCOD9479546 Si02
#       5
#    16  16  16  16  16
#     4  12  27  43  63  97 134 166 212 262 322 386
#     4  10  20  41  70  92 123 171 218 262 310 369
#     4  10  22  42  68  97 128 168 218 265 311 374
#     4  12  27  43  64  96 134 169 208 264 324 381
#     4  12  25  45  71  92 121 167 217 267 315 377
#
# _framework density 19.166167000000002
#
# number of rings (size 3 to 8) (size 9 to 14) (size 15 to 20)
#    0.000    0.800    4.000    3.000    5.600    2.400 
#    0.000    0.000    0.000    0.000    0.000    0.000 
#    0.000    0.000    0.000    0.000    0.000    0.000 
#
# Total GULP energy -223444.326265 kJ/mol
# GULP energy per Si atom -5586.108157 kJ/mol
# Density = 1.912254 g / cm^3
# Si number density = 19.166167 Si / 1000 Ang^3
#
#
#
# Elastic Constant Matrix: (Units=GPa)
#
#
# Indices 1 2 3 4 5 6 
#
# 1 52.0148 1.4246 35.2222 0.0000 0.0000 0.0000
# 2 1.4246 146.3525 53.4601 0.0000 0.0000 0.0000
# 3 35.2222 53.4601 120.3844 0.0000 0.0000 0.0000
# 4 0.0000 0.0000 0.0000 39.7252 0.0000 0.0000
# 5 0.0000 0.0000 0.0000 0.0000 -53.9864 0.0000
# 6 0.0000 0.0000 0.0000 0.0000 0.0000 23.7848
#
#
#
# Elastic Compliance Matrix: (Units=1/GPa)
#
#
# Indices 1 2 3 4 5 6 
#
# 1 0.024962 0.002894 -0.008589 0.000000 0.000000 0.000000
# 2 0.002894 0.008491 -0.004618 0.000000 0.000000 0.000000
# 3 -0.008589 -0.004618 0.012870 0.000000 0.000000 0.000000
# 4 0.000000 0.000000 0.000000 0.025173 0.000000 0.000000
# 5 0.000000 0.000000 0.000000 0.000000 -0.018523 0.000000
# 6 0.000000 0.000000 0.000000 0.000000 0.000000 0.042044
#
#
# Mechanical properties :
#
#
# Convention : Reuss Voigt Hill
#
# Bulk Modulus (GPa) = 38.91130 55.44062 47.17596
# Shear Modulus (GPa) = 40.25523 17.14772 28.70148
#
# Velocity S-wave (km/s) = 4.58791 2.99438 3.87396
# Velocity P-wave (km/s) = 6.95782 6.39876 6.68414
#
# Compressibility (1/GPa) = 0.02569947
#
# Stress axis : x y z
#
# Youngs Moduli (GPa) = 40.06099 117.76618 77.69873
#
# Poissons Ratio (x) = -0.34085 0.66733
# Poissons Ratio (y) = -0.11595 0.35879
# Poissons Ratio (z) = 0.34407 0.54381
#
# Static dielectric constant tensor:
#      x y z
#    x 1.705620 0.000000 0.000000 
#    y 0.000000 2.014610 0.000000 
#    z 0.000000 0.000000 1.788030 
# 
# From -- ./inp_files/35345.got.cif
#   From: 2010.05.17/outbox.cif.g08.bks.cpg/sg64_18_cif.got.tgz:35345.got - 2010.06.03 16:29:19.
