data_PCOD9479104
_publ_section_title
;
Structure prediction by ZEFSAII (Michael W. Deem and Ramdas Pophale) SiO2 
 PCOD9479104
Probable space group: C M C A
;
_chemical_formula_sum "Si O2"
_cell_formula_units_Z 80
_cell_length_a 7.986421
_cell_length_b 13.915650
_cell_length_c 31.081929
_cell_angle_alpha 90.000000
_cell_angle_beta 90.000000
_cell_angle_gamma 90.000000
_cell_volume 3454.328702
_symmetry_space_group_name_H-M "C M C A"
_symmetry_group_IT_number 64
_symmetry_cell_setting 'orthorhombic'
loop_
_space_group_symop_operation_xyz
x,y,z
-x,1/2-y,1/2+z
x,-y,-z
-x,1/2+y,1/2-z
-x,-y,-z
x,1/2+y,1/2-z
-x,y,z
x,1/2-y,1/2+z
1/2+x,1/2+y,z
1/2-x,-y,1/2+z
1/2+x,1/2-y,-z
1/2-x,y,1/2-z
1/2-x,1/2-y,-z
1/2+x,y,1/2-z
1/2-x,1/2+y,z
1/2+x,-y,1/2+z
loop_
_atom_site_type_symbol
_atom_site_label
_atom_site_fract_x
_atom_site_fract_y
_atom_site_fract_z
Si Si1 0.806589 0.428713 0.629445
Si Si2 0.303856 0.848186 0.445135
Si Si3 0.695386 0.716202 0.857328
Si Si4 0.691133 0.064412 0.796583
Si Si5 0.794594 0.627448 0.462479
O O1 0.793632 0.315463 0.640348
O O2 0.711993 0.484030 0.666857
O O3 0.749075 0.435332 0.579372
O O4 0.000000 0.460347 0.631145
O O5 0.500000 0.873646 0.443925
O O6 0.240573 0.853165 0.396248
O O7 0.278911 0.733769 0.453897
O O8 0.238736 0.896790 0.488891
O O9 0.500000 0.738042 0.865685
O O10 0.710643 0.657368 0.813700
O O11 0.500000 0.093400 0.793536
O O12 0.750000 0.030489 0.750000
O O13 0.000000 0.633150 0.462301
#
# Coordination Sequence:
#
# PCOD9479104 Si02
#       5
#    16  16  16  16  16
#     4  10  20  37  61  89 120 154 192 234 283 338
#     4   8  14  26  48  79 114 151 188 225 268 322
#     4  10  20  37  61  89 120 154 192 234 283 338
#     4  12  26  44  63  84 111 145 190 243 297 348
#     4   8  14  26  48  79 114 151 188 225 268 322
#
# _framework density 23.159348000000001
#
# number of rings (size 3 to 8) (size 9 to 14) (size 15 to 20)
#    0.000    2.400    0.000    3.000    0.000    2.400 
#    0.000    5.000    0.000    6.000    0.000    0.000 
#    0.000    0.000    0.000    0.000    0.000    0.000 
#
# Total GULP energy -223306.070670 kJ/mol
# GULP energy per Si atom -5582.651767 kJ/mol
# Density = 2.310664 g / cm^3
# Si number density = 23.159348 Si / 1000 Ang^3
#
#
#
# Elastic Constant Matrix: (Units=GPa)
#
#
# Indices 1 2 3 4 5 6 
#
# 1 48.3488 1.4972 15.5137 0.0000 0.0000 0.0000
# 2 1.4972 62.5755 33.4775 0.0000 0.0000 0.0000
# 3 15.5137 33.4775 168.1875 0.0000 0.0000 0.0000
# 4 0.0000 0.0000 0.0000 19.7511 0.0000 0.0000
# 5 0.0000 0.0000 0.0000 0.0000 20.7895 0.0000
# 6 0.0000 0.0000 0.0000 0.0000 0.0000 18.1305
#
#
#
# Elastic Compliance Matrix: (Units=1/GPa)
#
#
# Indices 1 2 3 4 5 6 
#
# 1 0.021334 0.000607 -0.002089 0.000000 0.000000 0.000000
# 2 0.000607 0.017903 -0.003619 0.000000 0.000000 0.000000
# 3 -0.002089 -0.003619 0.006859 0.000000 0.000000 0.000000
# 4 0.000000 0.000000 0.000000 0.050630 0.000000 0.000000
# 5 0.000000 0.000000 0.000000 0.000000 0.048101 0.000000
# 6 0.000000 0.000000 0.000000 0.000000 0.000000 0.055156
#
#
# Mechanical properties :
#
#
# Convention : Reuss Voigt Hill
#
# Bulk Modulus (GPa) = 27.86018 42.23207 35.04612
# Shear Modulus (GPa) = 22.50734 26.97578 24.74156
#
# Velocity S-wave (km/s) = 3.12083 3.41660 3.27206
# Velocity P-wave (km/s) = 5.00420 5.81715 5.42592
#
# Compressibility (1/GPa) = 0.03589352
#
# Stress axis : x y z
#
# Youngs Moduli (GPa) = 46.87252 55.85785 145.79676
#
# Poissons Ratio (x) = -0.03391 0.30453
# Poissons Ratio (y) = -0.02845 0.52771
# Poissons Ratio (z) = 0.09790 0.20218
#
# Static dielectric constant tensor:
#      x y z
#    x 1.853790 0.000000 0.000000 
#    y 0.000000 1.891330 0.000000 
#    z 0.000000 0.000000 1.947710 
# 
# From -- ./inp_files/51751.got.cif
#   From: 2010.05.17/outbox.cif.g08.bks.cpg/sg64_26_cif.got.tgz:51751.got - 2010.06.03 16:29:19.
