data_PCOD9479083
_publ_section_title
;
Structure prediction by ZEFSAII (Michael W. Deem and Ramdas Pophale) SiO2 
 PCOD9479083
Probable space group: C M C A
;
_chemical_formula_sum "Si O2"
_cell_formula_units_Z 96
_cell_length_a 8.693231
_cell_length_b 25.800170
_cell_length_c 23.946896
_cell_angle_alpha 90.000000
_cell_angle_beta 90.000000
_cell_angle_gamma 90.000000
_cell_volume 5370.973575
_symmetry_space_group_name_H-M "C M C A"
_symmetry_group_IT_number 64
_symmetry_cell_setting 'orthorhombic'
loop_
_space_group_symop_operation_xyz
x,y,z
-x,1/2-y,1/2+z
x,-y,-z
-x,1/2+y,1/2-z
-x,-y,-z
x,1/2+y,1/2-z
-x,y,z
x,1/2-y,1/2+z
1/2+x,1/2+y,z
1/2-x,-y,1/2+z
1/2+x,1/2-y,-z
1/2-x,y,1/2-z
1/2-x,1/2-y,-z
1/2+x,y,1/2-z
1/2-x,1/2+y,z
1/2+x,-y,1/2+z
loop_
_atom_site_type_symbol
_atom_site_label
_atom_site_fract_x
_atom_site_fract_y
_atom_site_fract_z
Si Si1 0.184942 0.556598 0.311600
Si Si2 0.184294 0.346581 0.872468
Si Si3 0.185060 0.156422 0.889326
Si Si4 0.683869 0.252700 0.311554
Si Si5 0.684153 0.191916 0.003584
Si Si6 0.315116 0.562508 0.810906
O O1 0.250000 0.568795 0.250000
O O2 0.254513 0.597509 0.354450
O O3 0.229380 0.496860 0.323832
O O4 0.000000 0.560321 0.310964
O O5 0.260242 0.303262 0.832973
O O6 0.223004 0.332290 0.936325
O O7 0.000000 0.344128 0.866058
O O8 0.250769 0.204776 0.854380
O O9 0.232458 0.104118 0.857103
O O10 0.000000 0.159817 0.889897
O O11 0.247488 0.160169 0.951908
O O12 0.500000 0.254886 0.310545
O O13 0.750000 0.262742 0.250000
O O14 0.500000 0.194267 0.998784
O O15 0.750000 0.250000 0.000000
O O16 0.500000 0.563918 0.807297
O O17 0.250000 0.576302 0.750000
#
# Coordination Sequence:
#
# PCOD9479083 Si02
#       6
#    16  16  16  16  16  16
#     4  10  20  37  60  86 116 151 191 234 287 344
#     4  11  23  39  58  83 114 149 192 238 286 342
#     4  11  22  38  59  85 117 150 192 238 285 344
#     4  12  24  37  56  83 116 150 187 233 290 345
#     4  11  23  39  60  83 113 153 196 238 289 343
#     4   9  20  37  59  86 116 152 190 234 286 342
#
# _framework density 17.873854999999999
#
# number of rings (size 3 to 8) (size 9 to 14) (size 15 to 20)
#    0.000    1.333    1.667    4.500    0.000    5.333 
#    0.000    0.833    0.000    5.000    0.000    0.000 
#    0.000    0.000    0.000    0.000    0.000    0.000 
#
# Total GULP energy -268333.150104 kJ/mol
# GULP energy per Si atom -5590.273960 kJ/mol
# Density = 1.783317 g / cm^3
# Si number density = 17.873855 Si / 1000 Ang^3
#
#
#
# Elastic Constant Matrix: (Units=GPa)
#
#
# Indices 1 2 3 4 5 6 
#
# 1 62.9179 26.7303 33.9595 0.0000 0.0000 0.0000
# 2 26.7303 91.3424 42.8991 0.0000 0.0000 0.0000
# 3 33.9595 42.8991 83.3375 0.0000 0.0000 0.0000
# 4 0.0000 0.0000 0.0000 26.0048 0.0000 0.0000
# 5 0.0000 0.0000 0.0000 0.0000 34.2987 0.0000
# 6 0.0000 0.0000 0.0000 0.0000 0.0000 25.4914
#
#
#
# Elastic Compliance Matrix: (Units=1/GPa)
#
#
# Indices 1 2 3 4 5 6 
#
# 1 0.020901 -0.002791 -0.007080 0.000000 0.000000 0.000000
# 2 -0.002791 0.014811 -0.006487 0.000000 0.000000 0.000000
# 3 -0.007080 -0.006487 0.018224 0.000000 0.000000 0.000000
# 4 0.000000 0.000000 0.000000 0.038454 0.000000 0.000000
# 5 0.000000 0.000000 0.000000 0.000000 0.029156 0.000000
# 6 0.000000 0.000000 0.000000 0.000000 0.000000 0.039229
#
#
# Mechanical properties :
#
#
# Convention : Reuss Voigt Hill
#
# Bulk Modulus (GPa) = 47.12670 49.41950 48.27310
# Shear Modulus (GPa) = 24.92960 26.09290 25.51125
#
# Velocity S-wave (km/s) = 3.73869 3.82493 3.78205
# Velocity P-wave (km/s) = 6.71272 6.87138 6.79251
#
# Compressibility (1/GPa) = 0.02121939
#
# Stress axis : x y z
#
# Youngs Moduli (GPa) = 47.84448 67.51646 54.87346
#
# Poissons Ratio (x) = 0.18845 0.38852
# Poissons Ratio (y) = 0.13354 0.35596
# Poissons Ratio (z) = 0.33875 0.43797
#
# Static dielectric constant tensor:
#      x y z
#    x 1.606460 0.000000 0.000000 
#    y 0.000000 1.602080 0.000000 
#    z 0.000000 0.000000 1.593080 
# 
# From -- ./inp_files/37002.got.cif
#   From: 2010.05.17/outbox.cif.g08.bks.cpg/sg64_19_cif.got.tgz:37002.got - 2010.06.03 16:29:19.
