data_PCOD9479997
_publ_section_title
;
Structure prediction by ZEFSAII (Michael W. Deem and Ramdas Pophale) SiO2 
 PCOD9479997
Probable space group: C M C A
;
_chemical_formula_sum "Si O2"
_cell_formula_units_Z 96
_cell_length_a 19.528266
_cell_length_b 26.891105
_cell_length_c 9.839961
_cell_angle_alpha 90.000000
_cell_angle_beta 90.000000
_cell_angle_gamma 90.000000
_cell_volume 5167.324170
_symmetry_space_group_name_H-M "C M C A"
_symmetry_group_IT_number 64
_symmetry_cell_setting 'orthorhombic'
loop_
_space_group_symop_operation_xyz
x,y,z
-x,1/2-y,1/2+z
x,-y,-z
-x,1/2+y,1/2-z
-x,-y,-z
x,1/2+y,1/2-z
-x,y,z
x,1/2-y,1/2+z
1/2+x,1/2+y,z
1/2-x,-y,1/2+z
1/2+x,1/2-y,-z
1/2-x,y,1/2-z
1/2-x,1/2-y,-z
1/2+x,y,1/2-z
1/2-x,1/2+y,z
1/2+x,-y,1/2+z
loop_
_atom_site_type_symbol
_atom_site_label
_atom_site_fract_x
_atom_site_fract_y
_atom_site_fract_z
Si Si1 0.073552 0.057885 0.456186
Si Si2 0.205137 0.382802 0.389310
Si Si3 0.326667 0.772003 0.486640
Si Si4 0.719942 0.952979 0.898018
Si Si5 0.918102 0.261992 0.233785
Si Si6 0.076479 0.381674 0.235626
O O1 0.142256 0.064995 0.372666
O O2 0.080864 0.090805 0.591726
O O3 0.000000 0.069919 0.391544
O O4 0.071443 0.000000 0.500000
O O5 0.250000 0.380071 0.250000
O O6 0.187927 0.328538 0.445529
O O7 0.240292 0.412736 0.510626
O O8 0.132996 0.403822 0.335773
O O9 0.250000 0.750000 0.500000
O O10 0.375914 0.749667 0.369900
O O11 0.373696 0.764638 0.618290
O O12 0.750000 0.964460 0.750000
O O13 0.718324 0.000000 0.000000
O O14 0.912972 0.322286 0.215318
O O15 0.000000 0.250191 0.236667
O O16 0.000000 0.388337 0.290094
#
# Coordination Sequence:
#
# PCOD9479997 Si02
#       6
#    16  16  16  16  16  16
#     4   9  18  34  60  89 115 149 195 238 286 349
#     4  11  21  39  61  84 117 153 199 250 299 355
#     4  11  22  36  58  88 117 155 198 249 303 354
#     4  11  24  39  62  90 121 158 198 242 297 355
#     4  10  21  38  59  84 118 159 202 244 298 360
#     4   9  18  35  61  87 113 155 197 238 294 354
#
# _framework density 18.578281
#
# number of rings (size 3 to 8) (size 9 to 14) (size 15 to 20)
#    0.000    1.833    1.667    3.500    2.333    2.000 
#    0.000    0.833    0.000    1.000    0.000    0.000 
#    0.000    0.000    0.000    0.000    0.000    0.000 
#
# Total GULP energy -267420.875151 kJ/mol
# GULP energy per Si atom -5571.268232 kJ/mol
# Density = 1.853600 g / cm^3
# Si number density = 18.578281 Si / 1000 Ang^3
#
#
#
# Elastic Constant Matrix: (Units=GPa)
#
#
# Indices 1 2 3 4 5 6 
#
# 1 183.7992 29.8820 63.6866 0.0000 0.0000 0.0000
# 2 29.8820 25.8673 19.4706 0.0000 0.0000 0.0000
# 3 63.6866 19.4706 108.4231 0.0000 0.0000 0.0000
# 4 0.0000 0.0000 0.0000 20.4071 0.0000 0.0000
# 5 0.0000 0.0000 0.0000 0.0000 17.9327 0.0000
# 6 0.0000 0.0000 0.0000 0.0000 0.0000 21.2057
#
#
#
# Elastic Compliance Matrix: (Units=1/GPa)
#
#
# Indices 1 2 3 4 5 6 
#
# 1 0.007623 -0.006285 -0.003349 0.000000 0.000000 0.000000
# 2 -0.006285 0.049884 -0.005266 0.000000 0.000000 0.000000
# 3 -0.003349 -0.005266 0.012136 0.000000 0.000000 0.000000
# 4 0.000000 0.000000 0.000000 0.049003 0.000000 0.000000
# 5 0.000000 0.000000 0.000000 0.000000 0.055764 0.000000
# 6 0.000000 0.000000 0.000000 0.000000 0.000000 0.047157
#
#
# Mechanical properties :
#
#
# Convention : Reuss Voigt Hill
#
# Bulk Modulus (GPa) = 25.09937 60.46312 42.78125
# Shear Modulus (GPa) = 18.89304 25.57912 22.23608
#
# Velocity S-wave (km/s) = 3.19241 3.71459 3.46336
# Velocity P-wave (km/s) = 5.20846 7.14236 6.25065
#
# Compressibility (1/GPa) = 0.03984163
#
# Stress axis : x y z
#
# Youngs Moduli (GPa) = 131.18197 20.04670 82.39970
#
# Poissons Ratio (x) = 0.12600 0.27595
# Poissons Ratio (y) = 0.82452 0.43393
# Poissons Ratio (z) = 0.43932 0.10557
#
# Static dielectric constant tensor:
#      x y z
#    x 1.705450 0.000000 0.000000 
#    y 0.000000 1.659600 0.000000 
#    z 0.000000 0.000000 1.612820 
# 
# From -- ./inp_files/8386.got.cif
#   From: 2010.05.17/outbox.cif.g08.bks.cpg/sg64_5_cif.got.tgz:8386.got - 2010.06.03 16:29:19.
