data_PCOD9479982
_publ_section_title
;
Structure prediction by ZEFSAII (Michael W. Deem and Ramdas Pophale) SiO2 
 PCOD9479982
Probable space group: C M C A
;
_chemical_formula_sum "Si O2"
_cell_formula_units_Z 80
_cell_length_a 16.650132
_cell_length_b 13.808274
_cell_length_c 18.584830
_cell_angle_alpha 90.000000
_cell_angle_beta 90.000000
_cell_angle_gamma 90.000000
_cell_volume 4272.830549
_symmetry_space_group_name_H-M "C M C A"
_symmetry_group_IT_number 64
_symmetry_cell_setting 'orthorhombic'
loop_
_space_group_symop_operation_xyz
x,y,z
-x,1/2-y,1/2+z
x,-y,-z
-x,1/2+y,1/2-z
-x,-y,-z
x,1/2+y,1/2-z
-x,y,z
x,1/2-y,1/2+z
1/2+x,1/2+y,z
1/2-x,-y,1/2+z
1/2+x,1/2-y,-z
1/2-x,y,1/2-z
1/2-x,1/2-y,-z
1/2+x,y,1/2-z
1/2-x,1/2+y,z
1/2+x,-y,1/2+z
loop_
_atom_site_type_symbol
_atom_site_label
_atom_site_fract_x
_atom_site_fract_y
_atom_site_fract_z
Si Si1 0.134897 0.727118 0.632622
Si Si2 0.910381 0.613001 0.231410
Si Si3 0.655011 0.401754 0.268146
Si Si4 0.905158 0.887760 0.988137
Si Si5 0.177630 0.278029 0.643503
O O1 0.091243 0.824024 0.658883
O O2 0.120962 0.650409 0.697057
O O3 0.109648 0.675570 0.559600
O O4 0.228389 0.758475 0.631679
O O5 0.886165 0.503190 0.218350
O O6 0.845475 0.658556 0.286375
O O7 0.000000 0.619441 0.263454
O O8 0.750000 0.413940 0.250000
O O9 0.644363 0.327914 0.334516
O O10 0.859553 0.834061 0.923575
O O11 0.000000 0.890452 0.972078
O O12 0.878808 0.000000 0.000000
#
# Coordination Sequence:
#
# PCOD9479982 Si02
#       5
#    16  16  16  16  16
#     4  10  21  38  58  81 111 147 189 228 269 328
#     4  11  21  34  57  86 115 145 180 228 279 325
#     4   9  19  36  58  82 108 144 186 227 271 325
#     4  11  23  38  58  84 113 145 183 231 283 329
#     4  10  21  38  58  80 110 148 188 229 271 327
#
# _framework density 18.722951999999999
#
# number of rings (size 3 to 8) (size 9 to 14) (size 15 to 20)
#    0.000    1.800    0.000    6.000    0.000    8.000 
#    0.000    1.000    0.000    2.400    0.000    0.000 
#    0.000    0.000    0.000    0.000    0.000    0.000 
#
# Total GULP energy -223227.543822 kJ/mol
# GULP energy per Si atom -5580.688596 kJ/mol
# Density = 1.868034 g / cm^3
# Si number density = 18.722952 Si / 1000 Ang^3
#
#
#
# Elastic Constant Matrix: (Units=GPa)
#
#
# Indices 1 2 3 4 5 6 
#
# 1 47.6012 42.6081 17.3932 0.0000 0.0000 0.0000
# 2 42.6081 163.8996 60.9659 0.0000 0.0000 0.0000
# 3 17.3932 60.9659 100.1716 0.0000 0.0000 0.0000
# 4 0.0000 0.0000 0.0000 20.9479 0.0000 0.0000
# 5 0.0000 0.0000 0.0000 0.0000 21.7240 0.0000
# 6 0.0000 0.0000 0.0000 0.0000 0.0000 -235.5765
#
#
#
# Elastic Compliance Matrix: (Units=1/GPa)
#
#
# Indices 1 2 3 4 5 6 
#
# 1 0.027402 -0.006920 -0.000546 0.000000 0.000000 0.000000
# 2 -0.006920 0.009635 -0.004662 0.000000 0.000000 0.000000
# 3 -0.000546 -0.004662 0.012915 0.000000 0.000000 0.000000
# 4 0.000000 0.000000 0.000000 0.047738 0.000000 0.000000
# 5 0.000000 0.000000 0.000000 0.000000 0.046032 0.000000
# 6 0.000000 0.000000 0.000000 0.000000 0.000000 -0.004245
#
#
# Mechanical properties :
#
#
# Convention : Reuss Voigt Hill
#
# Bulk Modulus (GPa) = 38.91894 61.51189 50.21542
# Shear Modulus (GPa) = 29.01948 -25.86723 1.57612
#
# Velocity S-wave (km/s) = 3.94120 -3.72099 0.91850
# Velocity P-wave (km/s) = 6.44536 3.80316 5.29182
#
# Compressibility (1/GPa) = 0.02569443
#
# Stress axis : x y z
#
# Youngs Moduli (GPa) = 36.49381 103.79336 77.42878
#
# Poissons Ratio (x) = 0.71829 0.04228
# Poissons Ratio (y) = 0.25255 0.36098
# Poissons Ratio (z) = 0.01993 0.48389
#
# Static dielectric constant tensor:
#      x y z
#    x 1.664840 0.000000 0.000000 
#    y 0.000000 1.637250 0.000000 
#    z 0.000000 0.000000 1.632080 
# 
# From -- ./inp_files/32978.got.cif
#   From: 2010.05.17/outbox.cif.g08.bks.cpg/sg64_17_cif.got.tgz:32978.got - 2010.06.03 16:29:19.
