data_PCOD9479596
_publ_section_title
;
Structure prediction by ZEFSAII (Michael W. Deem and Ramdas Pophale) SiO2 
 PCOD9479596
Probable space group: C M C A
;
_chemical_formula_sum "Si O2"
_cell_formula_units_Z 80
_cell_length_a 24.408117
_cell_length_b 14.880377
_cell_length_c 10.113790
_cell_angle_alpha 90.000000
_cell_angle_beta 90.000000
_cell_angle_gamma 90.000000
_cell_volume 3673.348582
_symmetry_space_group_name_H-M "C M C A"
_symmetry_group_IT_number 64
_symmetry_cell_setting 'orthorhombic'
loop_
_space_group_symop_operation_xyz
x,y,z
-x,1/2-y,1/2+z
x,-y,-z
-x,1/2+y,1/2-z
-x,-y,-z
x,1/2+y,1/2-z
-x,y,z
x,1/2-y,1/2+z
1/2+x,1/2+y,z
1/2-x,-y,1/2+z
1/2+x,1/2-y,-z
1/2-x,y,1/2-z
1/2-x,1/2-y,-z
1/2+x,y,1/2-z
1/2-x,1/2+y,z
1/2+x,-y,1/2+z
loop_
_atom_site_type_symbol
_atom_site_label
_atom_site_fract_x
_atom_site_fract_y
_atom_site_fract_z
Si Si1 0.381929 0.406089 0.316259
Si Si2 0.000000 0.337376 0.494697
Si Si3 0.312961 0.225214 0.993537
Si Si4 0.000000 0.343743 0.169841
Si Si5 0.797267 0.447830 0.861336
Si Si6 0.382137 0.101515 0.511897
O O1 0.338905 0.340191 0.385024
O O2 0.443985 0.396218 0.365672
O O3 0.353826 0.502653 0.324553
O O4 0.384632 0.377988 0.166118
O O5 0.000000 0.245316 0.578667
O O6 0.944701 0.389505 0.536065
O O7 0.000000 0.325892 0.331896
O O8 0.314543 0.156048 0.118106
O O9 0.343904 0.318433 0.965226
O O10 0.250000 0.250000 0.000000
O O11 0.750000 0.457950 0.750000
O O12 0.779930 0.500000 0.000000
O O13 0.361701 0.000000 0.500000
#
# Coordination Sequence:
#
# PCOD9479596 Si02
#       6
#    16   8  16   8  16  16
#     4  10  24  43  70 102 143 178 238 290 354 420
#     4  10  21  46  71 103 140 182 243 285 363 420
#     4  11  26  42  66 103 140 188 234 289 351 420
#     4  10  20  46  72 106 141 186 229 299 350 430
#     4  10  25  46  70 103 144 184 238 288 350 425
#     4  11  25  41  71 101 140 187 237 293 351 422
#
# _framework density 21.778494999999999
#
# number of rings (size 3 to 8) (size 9 to 14) (size 15 to 20)
#    0.000    1.600    2.000    0.300   11.200    0.000 
#    0.000    5.500    0.000    0.000    0.000    0.000 
#    0.000    0.000    0.000    0.000    0.000    0.000 
#
# Total GULP energy -222812.685003 kJ/mol
# GULP energy per Si atom -5570.317125 kJ/mol
# Density = 2.172893 g / cm^3
# Si number density = 21.778495 Si / 1000 Ang^3
#
#
#
# Elastic Constant Matrix: (Units=GPa)
#
#
# Indices 1 2 3 4 5 6 
#
# 1 64.4473 24.4853 -13.1364 0.0000 0.0000 0.0000
# 2 24.4853 124.0962 -21.7792 0.0000 0.0000 0.0000
# 3 -13.1364 -21.7792 32.1441 0.0000 0.0000 0.0000
# 4 0.0000 0.0000 0.0000 14.5864 0.0000 0.0000
# 5 0.0000 0.0000 0.0000 0.0000 24.3578 0.0000
# 6 0.0000 0.0000 0.0000 0.0000 0.0000 32.3110
#
#
#
# Elastic Compliance Matrix: (Units=1/GPa)
#
#
# Indices 1 2 3 4 5 6 
#
# 1 0.017588 -0.002507 0.005489 0.000000 0.000000 0.000000
# 2 -0.002507 0.009503 0.005414 0.000000 0.000000 0.000000
# 3 0.005489 0.005414 0.037022 0.000000 0.000000 0.000000
# 4 0.000000 0.000000 0.000000 0.068557 0.000000 0.000000
# 5 0.000000 0.000000 0.000000 0.000000 0.041055 0.000000
# 6 0.000000 0.000000 0.000000 0.000000 0.000000 0.030949
#
#
# Mechanical properties :
#
#
# Convention : Reuss Voigt Hill
#
# Bulk Modulus (GPa) = 12.36007 22.20302 17.28154
# Shear Modulus (GPa) = 23.27214 29.65889 26.46552
#
# Velocity S-wave (km/s) = 3.27247 3.69432 3.48977
# Velocity P-wave (km/s) = 4.46838 5.33051 4.91837
#
# Compressibility (1/GPa) = 0.08090572
#
# Stress axis : x y z
#
# Youngs Moduli (GPa) = 56.85746 105.22856 27.01122
#
# Poissons Ratio (x) = 0.26380 -0.14827
# Poissons Ratio (y) = 0.14254 -0.14625
# Poissons Ratio (z) = -0.31210 -0.56974
#
# Static dielectric constant tensor:
#      x y z
#    x 1.865170 0.000000 0.000000 
#    y 0.000000 19.299250 0.000000 
#    z 0.000000 0.000000 1.945420 
# 
# From -- ./inp_files/18114.got.cif
#   From: 2010.05.17/outbox.cif.g08.bks.cpg/sg64_10_cif.got.tgz:18114.got - 2010.06.03 16:29:19.
