data_PCOD9479458
_publ_section_title
;
Structure prediction by ZEFSAII (Michael W. Deem and Ramdas Pophale) SiO2 
 PCOD9479458
Probable space group: C M C A
;
_chemical_formula_sum "Si O2"
_cell_formula_units_Z 72
_cell_length_a 9.667368
_cell_length_b 29.679787
_cell_length_c 12.567818
_cell_angle_alpha 90.000000
_cell_angle_beta 90.000000
_cell_angle_gamma 90.000000
_cell_volume 3606.026497
_symmetry_space_group_name_H-M "C M C A"
_symmetry_group_IT_number 64
_symmetry_cell_setting 'orthorhombic'
loop_
_space_group_symop_operation_xyz
x,y,z
-x,1/2-y,1/2+z
x,-y,-z
-x,1/2+y,1/2-z
-x,-y,-z
x,1/2+y,1/2-z
-x,y,z
x,1/2-y,1/2+z
1/2+x,1/2+y,z
1/2-x,-y,1/2+z
1/2+x,1/2-y,-z
1/2-x,y,1/2-z
1/2-x,1/2-y,-z
1/2+x,y,1/2-z
1/2-x,1/2+y,z
1/2+x,-y,1/2+z
loop_
_atom_site_type_symbol
_atom_site_label
_atom_site_fract_x
_atom_site_fract_y
_atom_site_fract_z
Si Si1 0.341145 0.772238 0.658057
Si Si2 0.500000 0.037642 0.909055
Si Si3 0.000000 0.510946 0.621885
Si Si4 0.500000 0.380577 0.172255
Si Si5 0.500000 0.865621 0.071971
Si Si6 0.250000 0.513268 0.750000
Si Si7 0.220209 0.182652 0.939525
O O1 0.500000 0.762266 0.690091
O O2 0.250000 0.795013 0.750000
O O3 0.255857 0.726818 0.629670
O O4 0.344989 0.800722 0.549549
O O5 0.500000 0.084272 0.970664
O O6 0.639815 0.036075 0.834462
O O7 0.500000 0.000000 0.000000
O O8 0.000000 0.500000 0.500000
O O9 0.000000 0.565975 0.641750
O O10 0.862652 0.490487 0.674924
O O11 0.500000 0.372180 0.299053
O O12 0.630150 0.354109 0.122808
O O13 0.366676 0.839181 0.036617
#
# Coordination Sequence:
#
# PCOD9479458 Si02
#       7
#    16   8   8   8   8   8  16
#     4  11  24  43  64  88 129 170 207 252 310 376
#     4  11  23  40  66  93 129 167 206 261 323 377
#     4  11  23  40  66  91 127 167 202 259 327 373
#     4  12  22  40  65  93 129 153 211 266 312 358
#     4  12  22  38  67  95 125 155 209 270 314 358
#     4  10  20  40  62  94 120 162 204 256 316 376
#     4  11  25  39  63  98 124 163 210 257 313 368
#
# _framework density 19.966574999999999
#
# number of rings (size 3 to 8) (size 9 to 14) (size 15 to 20)
#    0.000    0.889    4.444    4.000    3.111    0.000 
#    0.000    0.000   14.667    0.000    0.000    0.000 
#    0.000    0.000    0.000    0.000    0.000    0.000 
#
# Total GULP energy -200714.367751 kJ/mol
# GULP energy per Si atom -5575.399104 kJ/mol
# Density = 1.992113 g / cm^3
# Si number density = 19.966575 Si / 1000 Ang^3
#
#
#
# Elastic Constant Matrix: (Units=GPa)
#
#
# Indices 1 2 3 4 5 6 
#
# 1 157.7640 6.0567 35.9723 0.0000 0.0000 0.0000
# 2 6.0567 62.3081 21.0609 0.0000 0.0000 0.0000
# 3 35.9723 21.0609 89.5904 0.0000 0.0000 0.0000
# 4 0.0000 0.0000 0.0000 14.0336 0.0000 0.0000
# 5 0.0000 0.0000 0.0000 0.0000 31.3262 0.0000
# 6 0.0000 0.0000 0.0000 0.0000 0.0000 0.1298
#
#
#
# Elastic Compliance Matrix: (Units=1/GPa)
#
#
# Indices 1 2 3 4 5 6 
#
# 1 0.006982 0.000292 -0.002872 0.000000 0.000000 0.000000
# 2 0.000292 0.017447 -0.004219 0.000000 0.000000 0.000000
# 3 -0.002872 -0.004219 0.013307 0.000000 0.000000 0.000000
# 4 0.000000 0.000000 0.000000 0.071257 0.000000 0.000000
# 5 0.000000 0.000000 0.000000 0.000000 0.031922 0.000000
# 6 0.000000 0.000000 0.000000 0.000000 0.000000 7.702137
#
#
# Mechanical properties :
#
#
# Convention : Reuss Voigt Hill
#
# Bulk Modulus (GPa) = 41.42764 48.42691 44.92727
# Shear Modulus (GPa) = 0.63575 25.53611 13.08593
#
# Velocity S-wave (km/s) = 0.56489 3.58011 2.56284
# Velocity P-wave (km/s) = 4.60641 6.43399 5.59532
#
# Compressibility (1/GPa) = 0.02413847
#
# Stress axis : x y z
#
# Youngs Moduli (GPa) = 143.22003 57.31693 75.14912
#
# Poissons Ratio (x) = -0.01674 0.21584
# Poissons Ratio (y) = -0.04184 0.31703
# Poissons Ratio (z) = 0.41135 0.24180
#
# Static dielectric constant tensor:
#      x y z
#    x 1.792940 0.000000 0.000000 
#    y 0.000000 1.694100 0.000000 
#    z 0.000000 0.000000 1.738010 
# 
# From -- ./inp_files/21197.got.cif
#   From: 2010.05.17/outbox.cif.g08.bks.cpg/sg64_11_cif.got.tgz:21197.got - 2010.06.03 16:29:19.
