data_PCOD9479898
_publ_section_title
;
Structure prediction by ZEFSAII (Michael W. Deem and Ramdas Pophale) SiO2 
 PCOD9479898
Probable space group: C M C A
;
_chemical_formula_sum "Si O2"
_cell_formula_units_Z 112
_cell_length_a 14.421831
_cell_length_b 27.765853
_cell_length_c 14.295155
_cell_angle_alpha 90.000000
_cell_angle_beta 90.000000
_cell_angle_gamma 90.000000
_cell_volume 5724.272381
_symmetry_space_group_name_H-M "C M C A"
_symmetry_group_IT_number 64
_symmetry_cell_setting 'orthorhombic'
loop_
_space_group_symop_operation_xyz
x,y,z
-x,1/2-y,1/2+z
x,-y,-z
-x,1/2+y,1/2-z
-x,-y,-z
x,1/2+y,1/2-z
-x,y,z
x,1/2-y,1/2+z
1/2+x,1/2+y,z
1/2-x,-y,1/2+z
1/2+x,1/2-y,-z
1/2-x,y,1/2-z
1/2-x,1/2-y,-z
1/2+x,y,1/2-z
1/2-x,1/2+y,z
1/2+x,-y,1/2+z
loop_
_atom_site_type_symbol
_atom_site_label
_atom_site_fract_x
_atom_site_fract_y
_atom_site_fract_z
Si Si1 0.111720 0.464922 0.412538
Si Si2 0.894833 0.762832 0.753430
Si Si3 0.733486 0.122684 0.524991
Si Si4 0.106669 0.033948 0.246853
Si Si5 0.247909 0.726453 0.897921
Si Si6 0.337958 0.365692 0.817991
Si Si7 0.390267 0.052705 0.045713
O O1 0.132753 0.500000 0.500000
O O2 0.161928 0.414982 0.430552
O O3 0.145005 0.491826 0.318341
O O4 0.000000 0.459587 0.408836
O O5 0.846140 0.738213 0.842453
O O6 0.829758 0.749397 0.665502
O O7 0.891509 0.819628 0.777972
O O8 0.000000 0.747589 0.737980
O O9 0.744021 0.169336 0.589035
O O10 0.694892 0.140353 0.424311
O O11 0.827771 0.092722 0.504698
O O12 0.109710 0.083653 0.189594
O O13 0.147029 0.045671 0.348395
O O14 0.000000 0.020573 0.265920
O O15 0.250000 0.750000 0.000000
O O16 0.250000 0.369549 0.750000
O O17 0.500000 0.066247 0.046855
O O18 0.382710 0.000000 0.000000
#
# Coordination Sequence:
#
# PCOD9479898 Si02
#       7
#    16  16  16  16  16  16  16
#     4  10  21  37  59  96 134 164 207 256 316 394
#     4  11  25  46  70  95 132 176 220 274 340 403
#     4  12  23  39  69  93 130 176 213 272 336 386
#     4  10  21  38  61  92 128 164 204 262 319 380
#     4  11  24  47  66  99 136 169 227 287 335 402
#     4  12  20  37  66  99 126 158 211 269 324 397
#     4  10  23  42  62  92 128 167 220 265 316 395
#
# _framework density 19.565805999999998
#
# number of rings (size 3 to 8) (size 9 to 14) (size 15 to 20)
#    0.000    1.143    5.714    0.857    0.000    2.286 
#    5.143    0.000    0.000    0.000    0.000    0.000 
#    0.000    0.000    0.000    0.000    0.000    0.000 
#
# Total GULP energy -312846.655731 kJ/mol
# GULP energy per Si atom -5586.547424 kJ/mol
# Density = 1.952127 g / cm^3
# Si number density = 19.565806 Si / 1000 Ang^3
#
#
#
# Elastic Constant Matrix: (Units=GPa)
#
#
# Indices 1 2 3 4 5 6 
#
# 1 87.4581 34.0775 24.0757 0.0000 0.0000 0.0000
# 2 34.0775 127.3014 42.2555 0.0000 0.0000 0.0000
# 3 24.0757 42.2555 81.0618 0.0000 0.0000 0.0000
# 4 0.0000 0.0000 0.0000 37.8404 0.0000 0.0000
# 5 0.0000 0.0000 0.0000 0.0000 11.9722 0.0000
# 6 0.0000 0.0000 0.0000 0.0000 0.0000 17.4229
#
#
#
# Elastic Compliance Matrix: (Units=1/GPa)
#
#
# Indices 1 2 3 4 5 6 
#
# 1 0.013174 -0.002694 -0.002509 0.000000 0.000000 0.000000
# 2 -0.002694 0.010050 -0.004439 0.000000 0.000000 0.000000
# 3 -0.002509 -0.004439 0.015395 0.000000 0.000000 0.000000
# 4 0.000000 0.000000 0.000000 0.026427 0.000000 0.000000
# 5 0.000000 0.000000 0.000000 0.000000 0.083527 0.000000
# 6 0.000000 0.000000 0.000000 0.000000 0.000000 0.057396
#
#
# Mechanical properties :
#
#
# Convention : Reuss Voigt Hill
#
# Bulk Modulus (GPa) = 51.71442 55.18209 53.44825
# Shear Modulus (GPa) = 21.57997 26.47461 24.02729
#
# Velocity S-wave (km/s) = 3.32466 3.68245 3.50812
# Velocity P-wave (km/s) = 6.42077 6.80773 6.61708
#
# Compressibility (1/GPa) = 0.01933697
#
# Stress axis : x y z
#
# Youngs Moduli (GPa) = 75.90541 99.50389 64.95595
#
# Poissons Ratio (x) = 0.26806 0.16294
# Poissons Ratio (y) = 0.20449 0.28831
# Poissons Ratio (z) = 0.19041 0.44166
#
# Static dielectric constant tensor:
#      x y z
#    x 1.702990 0.000000 0.000000 
#    y 0.000000 1.591570 0.000000 
#    z 0.000000 0.000000 1.689340 
# 
# From -- ./inp_files/24256.got.cif
#   From: 2010.05.17/outbox.cif.g08.bks.cpg/sg64_13_cif.got.tgz:24256.got - 2010.06.03 16:29:19.
