data_PCOD9479551
_publ_section_title
;
Structure prediction by ZEFSAII (Michael W. Deem and Ramdas Pophale) SiO2 
 PCOD9479551
Probable space group: C M C A
;
_chemical_formula_sum "Si O2"
_cell_formula_units_Z 52
_cell_length_a 13.262019
_cell_length_b 18.246224
_cell_length_c 7.970579
_cell_angle_alpha 90.000000
_cell_angle_beta 90.000000
_cell_angle_gamma 90.000000
_cell_volume 1928.734809
_symmetry_space_group_name_H-M "C M C A"
_symmetry_group_IT_number 64
_symmetry_cell_setting 'orthorhombic'
loop_
_space_group_symop_operation_xyz
x,y,z
-x,1/2-y,1/2+z
x,-y,-z
-x,1/2+y,1/2-z
-x,-y,-z
x,1/2+y,1/2-z
-x,y,z
x,1/2-y,1/2+z
1/2+x,1/2+y,z
1/2-x,-y,1/2+z
1/2+x,1/2-y,-z
1/2-x,y,1/2-z
1/2-x,1/2-y,-z
1/2+x,y,1/2-z
1/2-x,1/2+y,z
1/2+x,-y,1/2+z
loop_
_atom_site_type_symbol
_atom_site_label
_atom_site_fract_x
_atom_site_fract_y
_atom_site_fract_z
Si Si1 0.000000 0.000000 0.000000
Si Si2 0.887888 0.370232 0.916274
Si Si3 0.887362 0.226845 0.082427
Si Si4 0.798715 0.595743 0.572839
O O1 0.907227 0.058971 0.957125
O O2 0.876099 0.315267 0.758837
O O3 0.000000 0.405039 0.900715
O O4 0.886271 0.314648 0.074663
O O5 0.791185 0.421041 0.938242
O O6 0.000000 0.211387 0.022199
O O7 0.815890 0.182651 0.958200
O O8 0.750000 0.578065 0.750000
#
# Coordination Sequence:
#
# PCOD9479551 Si02
#       4
#     4  16  16  16
#     4  12  32  56  70 106 144 196 260 314 364 440
#     4  10  22  39  75 118 152 195 239 299 381 447
#     4  10  20  41  72 114 160 189 238 304 366 451
#     4  12  26  47  77 100 146 196 247 311 369 436
#
# _framework density 26.96068
#
# number of rings (size 3 to 8) (size 9 to 14) (size 15 to 20)
#    0.000    1.231    1.538    3.692    2.154    4.923 
#    0.000    0.769    0.000    0.000    0.000    0.000 
#    0.000    0.000    0.000    0.000    0.000    0.000 
#
# Total GULP energy -144744.754737 kJ/mol
# GULP energy per Si atom -5567.105951 kJ/mol
# Density = 2.689932 g / cm^3
# Si number density = 26.960680 Si / 1000 Ang^3
#
#
#
# Elastic Constant Matrix: (Units=GPa)
#
#
# Indices 1 2 3 4 5 6 
#
# 1 303.8516 33.0485 37.7925 0.0000 0.0000 0.0000
# 2 33.0485 89.9588 5.9974 0.0000 0.0000 0.0000
# 3 37.7925 5.9974 79.5052 0.0000 0.0000 0.0000
# 4 0.0000 0.0000 0.0000 5.9841 0.0000 0.0000
# 5 0.0000 0.0000 0.0000 0.0000 29.1819 0.0000
# 6 0.0000 0.0000 0.0000 0.0000 0.0000 15.2625
#
#
#
# Elastic Compliance Matrix: (Units=1/GPa)
#
#
# Indices 1 2 3 4 5 6 
#
# 1 0.003627 -0.001224 -0.001632 0.000000 0.000000 0.000000
# 2 -0.001224 0.011585 -0.000292 0.000000 0.000000 0.000000
# 3 -0.001632 -0.000292 0.013376 0.000000 0.000000 0.000000
# 4 0.000000 0.000000 0.000000 0.167110 0.000000 0.000000
# 5 0.000000 0.000000 0.000000 0.000000 0.034268 0.000000
# 6 0.000000 0.000000 0.000000 0.000000 0.000000 0.065520
#
#
# Mechanical properties :
#
#
# Convention : Reuss Voigt Hill
#
# Bulk Modulus (GPa) = 44.85844 69.66580 57.26212
# Shear Modulus (GPa) = 16.17013 36.51750 26.34382
#
# Velocity S-wave (km/s) = 2.45167 3.68431 3.12928
# Velocity P-wave (km/s) = 4.96879 6.63285 5.86019
#
# Compressibility (1/GPa) = 0.02229235
#
# Stress axis : x y z
#
# Youngs Moduli (GPa) = 275.69899 86.31665 74.76338
#
# Poissons Ratio (x) = 0.10563 0.12200
# Poissons Ratio (y) = 0.33738 0.02185
# Poissons Ratio (z) = 0.44990 0.02522
#
# Static dielectric constant tensor:
#      x y z
#    x 2.136850 0.000000 0.000000 
#    y 0.000000 2.138630 0.000000 
#    z 0.000000 0.000000 2.233510 
# 
# From -- ./inp_files/5258.got.cif
#   From: 2010.05.17/outbox.cif.g08.bks.cpg/sg64_3_cif.got.tgz:5258.got - 2010.06.03 16:29:19.
