data_PCOD9479191
_publ_section_title
;
Structure prediction by ZEFSAII (Michael W. Deem and Ramdas Pophale) SiO2 
 PCOD9479191
Probable space group: C M C A
;
_chemical_formula_sum "Si O2"
_cell_formula_units_Z 96
_cell_length_a 22.123267
_cell_length_b 8.717687
_cell_length_c 22.937699
_cell_angle_alpha 90.000000
_cell_angle_beta 90.000000
_cell_angle_gamma 90.000000
_cell_volume 4423.849891
_symmetry_space_group_name_H-M "C M C A"
_symmetry_group_IT_number 64
_symmetry_cell_setting 'orthorhombic'
loop_
_space_group_symop_operation_xyz
x,y,z
-x,1/2-y,1/2+z
x,-y,-z
-x,1/2+y,1/2-z
-x,-y,-z
x,1/2+y,1/2-z
-x,y,z
x,1/2-y,1/2+z
1/2+x,1/2+y,z
1/2-x,-y,1/2+z
1/2+x,1/2-y,-z
1/2-x,y,1/2-z
1/2-x,1/2-y,-z
1/2+x,y,1/2-z
1/2-x,1/2+y,z
1/2+x,-y,1/2+z
loop_
_atom_site_type_symbol
_atom_site_label
_atom_site_fract_x
_atom_site_fract_y
_atom_site_fract_z
Si Si1 0.604534 0.860484 0.287707
Si Si2 0.066057 0.638472 0.846308
Si Si3 0.813419 0.644459 0.268634
Si Si4 0.699215 0.048443 0.435640
Si Si5 0.304792 0.367468 0.377657
Si Si6 0.934860 0.489782 0.604990
O O1 0.572752 0.864087 0.224302
O O2 0.648552 0.715804 0.284313
O O3 0.564438 0.882367 0.343983
O O4 0.646898 0.008823 0.292793
O O5 0.126562 0.567266 0.874867
O O6 0.000000 0.573581 0.861497
O O7 0.066372 0.817349 0.866795
O O8 0.750000 0.081012 0.250000
O O9 0.801667 0.778492 0.315540
O O10 0.749117 0.978437 0.391196
O O11 0.629783 0.992532 0.426539
O O12 0.718396 0.000000 0.500000
O O13 0.698249 0.230390 0.424743
O O14 0.000000 0.500027 0.573437
#
# Coordination Sequence:
#
# PCOD9479191 Si02
#       6
#    16  16  16  16  16  16
#     4  11  18  35  51  82 113 155 188 220 273 338
#     4   9  19  35  56  82 114 153 186 219 275 342
#     4  11  22  31  54  83 123 152 185 223 277 342
#     4  11  22  40  63  85 109 148 198 247 298 340
#     4  10  22  39  58  85 115 149 187 241 290 335
#     4  10  20  38  57  83 118 149 189 237 284 335
#
# _framework density 21.700555999999999
#
# number of rings (size 3 to 8) (size 9 to 14) (size 15 to 20)
#    0.000    1.667    5.000    2.500    4.667    0.333 
#    0.000    0.000    0.000    0.500    0.000    0.000 
#    0.000    0.000    0.000    0.000    0.000    0.000 
#
# Total GULP energy -267755.019197 kJ/mol
# GULP energy per Si atom -5578.229567 kJ/mol
# Density = 2.165116 g / cm^3
# Si number density = 21.700556 Si / 1000 Ang^3
#
#
#
# Elastic Constant Matrix: (Units=GPa)
#
#
# Indices 1 2 3 4 5 6 
#
# 1 187.1222 34.3186 19.8657 0.0000 0.0000 0.0000
# 2 34.3186 31.1066 12.3186 0.0000 0.0000 0.0000
# 3 19.8657 12.3186 59.0806 0.0000 0.0000 0.0000
# 4 0.0000 0.0000 0.0000 19.6286 0.0000 0.0000
# 5 0.0000 0.0000 0.0000 0.0000 13.3187 0.0000
# 6 0.0000 0.0000 0.0000 0.0000 0.0000 13.6014
#
#
#
# Elastic Compliance Matrix: (Units=1/GPa)
#
#
# Indices 1 2 3 4 5 6 
#
# 1 0.006732 -0.007119 -0.000779 0.000000 0.000000 0.000000
# 2 -0.007119 0.042568 -0.006482 0.000000 0.000000 0.000000
# 3 -0.000779 -0.006482 0.018540 0.000000 0.000000 0.000000
# 4 0.000000 0.000000 0.000000 0.050946 0.000000 0.000000
# 5 0.000000 0.000000 0.000000 0.000000 0.075082 0.000000
# 6 0.000000 0.000000 0.000000 0.000000 0.000000 0.073522
#
#
# Mechanical properties :
#
#
# Convention : Reuss Voigt Hill
#
# Bulk Modulus (GPa) = 25.58868 45.59057 35.58962
# Shear Modulus (GPa) = 16.17190 23.36352 19.76771
#
# Velocity S-wave (km/s) = 2.73285 3.28477 3.02144
# Velocity P-wave (km/s) = 4.66640 5.95322 5.34865
#
# Compressibility (1/GPa) = 0.03907979
#
# Stress axis : x y z
#
# Youngs Moduli (GPa) = 148.53345 23.49156 53.93848
#
# Poissons Ratio (x) = 0.16724 0.04204
# Poissons Ratio (y) = 1.05741 0.34963
# Poissons Ratio (z) = 0.11577 0.15227
#
# Static dielectric constant tensor:
#      x y z
#    x 1.878860 0.000000 0.000000 
#    y 0.000000 1.772280 0.000000 
#    z 0.000000 0.000000 1.820090 
# 
# From -- ./inp_files/46615.got.cif
#   From: 2010.05.17/outbox.cif.g08.bks.cpg/sg64_24_cif.got.tgz:46615.got - 2010.06.03 16:29:19.
