data_PCOD9479550
_publ_section_title
;
Structure prediction by ZEFSAII (Michael W. Deem and Ramdas Pophale) SiO2 
 PCOD9479550
Probable space group: C M C A
;
_chemical_formula_sum "Si O2"
_cell_formula_units_Z 112
_cell_length_a 24.456079
_cell_length_b 14.679245
_cell_length_c 14.537834
_cell_angle_alpha 90.000000
_cell_angle_beta 90.000000
_cell_angle_gamma 90.000000
_cell_volume 5219.035527
_symmetry_space_group_name_H-M "C M C A"
_symmetry_group_IT_number 64
_symmetry_cell_setting 'orthorhombic'
loop_
_space_group_symop_operation_xyz
x,y,z
-x,1/2-y,1/2+z
x,-y,-z
-x,1/2+y,1/2-z
-x,-y,-z
x,1/2+y,1/2-z
-x,y,z
x,1/2-y,1/2+z
1/2+x,1/2+y,z
1/2-x,-y,1/2+z
1/2+x,1/2-y,-z
1/2-x,y,1/2-z
1/2-x,1/2-y,-z
1/2+x,y,1/2-z
1/2-x,1/2+y,z
1/2+x,-y,1/2+z
loop_
_atom_site_type_symbol
_atom_site_label
_atom_site_fract_x
_atom_site_fract_y
_atom_site_fract_z
Si Si1 0.250483 0.038875 0.360274
Si Si2 0.864886 0.826402 0.196224
Si Si3 0.063830 0.657025 0.255665
Si Si4 0.877918 0.481328 0.605672
Si Si5 0.696486 0.711377 0.451593
Si Si6 0.167958 0.615718 0.877137
Si Si7 0.939123 0.000750 0.610853
O O1 0.250000 0.033325 0.250000
O O2 0.312888 0.040366 0.393166
O O3 0.215875 0.126227 0.390739
O O4 0.218096 0.951226 0.397917
O O5 0.908775 0.753836 0.233691
O O6 0.833771 0.783696 0.110267
O O7 0.822305 0.836155 0.280432
O O8 0.885905 0.924507 0.162138
O O9 0.092550 0.599739 0.337862
O O10 0.068417 0.595437 0.162723
O O11 0.000000 0.667538 0.277029
O O12 0.895064 0.500000 0.500000
O O13 0.750000 0.750000 0.500000
O O14 0.659155 0.678820 0.535666
O O15 0.112316 0.560717 0.861279
O O16 0.000000 0.034173 0.638125
O O17 0.937865 0.000000 0.500000
#
# Coordination Sequence:
#
# PCOD9479550 Si02
#       7
#    16  16  16  16  16  16  16
#     4  12  23  44  70 101 148 193 236 296 364 439
#     4  12  26  45  71 106 142 193 246 298 361 438
#     4  11  26  49  73 104 142 188 245 312 370 431
#     4  12  26  48  74 105 150 195 245 302 373 450
#     4  12  28  40  68 106 148 190 238 295 361 439
#     4  12  24  43  69  98 143 186 241 290 363 429
#     4  10  20  41  72 100 130 176 236 301 364 421
#
# _framework density 21.459903000000001
#
# number of rings (size 3 to 8) (size 9 to 14) (size 15 to 20)
#    0.000    0.429    2.857    6.429    6.000    1.429 
#    0.000    0.000    0.000    0.000    0.000    0.000 
#    0.000    0.000    0.000    0.000    0.000    0.000 
#
# Total GULP energy -313373.027934 kJ/mol
# GULP energy per Si atom -5595.946927 kJ/mol
# Density = 2.141106 g / cm^3
# Si number density = 21.459903 Si / 1000 Ang^3
#
#
#
# Elastic Constant Matrix: (Units=GPa)
#
#
# Indices 1 2 3 4 5 6 
#
# 1 90.6349 27.3012 12.7627 0.0000 0.0000 0.0000
# 2 27.3012 64.4089 13.8570 0.0000 0.0000 0.0000
# 3 12.7627 13.8570 104.4351 0.0000 0.0000 0.0000
# 4 0.0000 0.0000 0.0000 39.0213 0.0000 0.0000
# 5 0.0000 0.0000 0.0000 0.0000 28.7726 0.0000
# 6 0.0000 0.0000 0.0000 0.0000 0.0000 20.0864
#
#
#
# Elastic Compliance Matrix: (Units=1/GPa)
#
#
# Indices 1 2 3 4 5 6 
#
# 1 0.012723 -0.005207 -0.000864 0.000000 0.000000 0.000000
# 2 -0.005207 0.018113 -0.001767 0.000000 0.000000 0.000000
# 3 -0.000864 -0.001767 0.009915 0.000000 0.000000 0.000000
# 4 0.000000 0.000000 0.000000 0.025627 0.000000 0.000000
# 5 0.000000 0.000000 0.000000 0.000000 0.034755 0.000000
# 6 0.000000 0.000000 0.000000 0.000000 0.000000 0.049785
#
#
# Mechanical properties :
#
#
# Convention : Reuss Voigt Hill
#
# Bulk Modulus (GPa) = 39.87947 40.81343 40.34645
# Shear Modulus (GPa) = 28.57890 31.27993 29.92942
#
# Velocity S-wave (km/s) = 3.65325 3.82199 3.73858
# Velocity P-wave (km/s) = 6.03478 6.20778 6.12189
#
# Compressibility (1/GPa) = 0.02507556
#
# Stress axis : x y z
#
# Youngs Moduli (GPa) = 78.59494 55.20848 100.85363
#
# Poissons Ratio (x) = 0.28748 0.08713
# Poissons Ratio (y) = 0.40926 0.17821
# Poissons Ratio (z) = 0.06790 0.09755
#
# Static dielectric constant tensor:
#      x y z
#    x 1.760970 0.000000 0.000000 
#    y 0.000000 1.894130 0.000000 
#    z 0.000000 0.000000 1.807030 
# 
# From -- ./inp_files/27401.got.cif
#   From: 2010.05.17/outbox.cif.g08.bks.cpg/sg64_14_cif.got.tgz:27401.got - 2010.06.03 16:29:19.
