data_PCOD9479030
_publ_section_title
;
Structure prediction by ZEFSAII (Michael W. Deem and Ramdas Pophale) SiO2 
 PCOD9479030
Probable space group: C M C A
;
_chemical_formula_sum "Si O2"
_cell_formula_units_Z 116
_cell_length_a 7.860138
_cell_length_b 24.885631
_cell_length_c 27.123656
_cell_angle_alpha 90.000000
_cell_angle_beta 90.000000
_cell_angle_gamma 90.000000
_cell_volume 5305.509004
_symmetry_space_group_name_H-M "C M C A"
_symmetry_group_IT_number 64
_symmetry_cell_setting 'orthorhombic'
loop_
_space_group_symop_operation_xyz
x,y,z
-x,1/2-y,1/2+z
x,-y,-z
-x,1/2+y,1/2-z
-x,-y,-z
x,1/2+y,1/2-z
-x,y,z
x,1/2-y,1/2+z
1/2+x,1/2+y,z
1/2-x,-y,1/2+z
1/2+x,1/2-y,-z
1/2-x,y,1/2-z
1/2-x,1/2-y,-z
1/2+x,y,1/2-z
1/2-x,1/2+y,z
1/2+x,-y,1/2+z
loop_
_atom_site_type_symbol
_atom_site_label
_atom_site_fract_x
_atom_site_fract_y
_atom_site_fract_z
Si Si1 0.703260 0.051275 0.872856
Si Si2 0.195892 0.663242 0.193826
Si Si3 0.795786 0.802975 0.030808
Si Si4 0.196500 0.755964 0.132255
Si Si5 0.500000 0.000000 0.500000
Si Si6 0.301337 0.576826 0.512842
Si Si7 0.304410 0.955941 0.695763
Si Si8 0.296575 0.649365 0.694717
O O1 0.500000 0.047409 0.867372
O O2 0.738738 0.060605 0.930090
O O3 0.762678 0.102882 0.842205
O O4 0.778789 0.999117 0.846813
O O5 0.250000 0.673548 0.250000
O O6 0.277394 0.700435 0.151436
O O7 0.211840 0.599920 0.184946
O O8 0.000000 0.678275 0.192566
O O9 0.729371 0.788487 0.085873
O O10 0.718371 0.858582 0.010807
O O11 0.000000 0.811117 0.031202
O O12 0.750000 0.750000 0.000000
O O13 0.209532 0.795545 0.178645
O O14 0.000000 0.746851 0.117356
O O15 0.653562 0.044123 0.485228
O O16 0.500000 0.563515 0.501334
O O17 0.500000 0.941099 0.700536
O O18 0.250000 0.977074 0.750000
O O19 0.500000 0.655441 0.690319
O O20 0.250000 0.634384 0.750000
#
# Coordination Sequence:
#
# PCOD9479030 Si02
#       8
#    16  16  16  16   4  16  16  16
#     4  10  22  40  63  91 127 169 214 268 332 397
#     4  10  20  37  57  83 122 167 216 267 323 388
#     4  11  23  44  71 100 136 179 231 291 360 432
#     4  10  22  39  62  90 124 167 212 268 332 393
#     4  12  26  48  76 106 140 180 230 282 360 434
#     4  11  24  47  74 104 140 180 229 294 361 428
#     4  11  22  36  58  85 122 171 220 270 323 389
#     4  11  22  35  57  91 128 167 212 259 317 392
#
# _framework density 21.864065
#
# number of rings (size 3 to 8) (size 9 to 14) (size 15 to 20)
#    0.000    1.379    2.069    4.345    0.966    4.966 
#    2.483    0.000    0.000    0.000    0.000    0.000 
#    0.000    0.000    0.000    0.000    0.000    0.000 
#
# Total GULP energy -323422.700517 kJ/mol
# GULP energy per Si atom -5576.253457 kJ/mol
# Density = 2.181430 g / cm^3
# Si number density = 21.864065 Si / 1000 Ang^3
#
#
#
# Elastic Constant Matrix: (Units=GPa)
#
#
# Indices 1 2 3 4 5 6 
#
# 1 60.5952 13.8228 9.2386 0.0000 0.0000 0.0000
# 2 13.8228 118.9329 14.7468 0.0000 0.0000 0.0000
# 3 9.2386 14.7468 22.6563 0.0000 0.0000 0.0000
# 4 0.0000 0.0000 0.0000 -80.7537 0.0000 0.0000
# 5 0.0000 0.0000 0.0000 0.0000 12.7362 0.0000
# 6 0.0000 0.0000 0.0000 0.0000 0.0000 171.4418
#
#
#
# Elastic Compliance Matrix: (Units=1/GPa)
#
#
# Indices 1 2 3 4 5 6 
#
# 1 0.017771 -0.001269 -0.006420 0.000000 0.000000 0.000000
# 2 -0.001269 0.009237 -0.005495 0.000000 0.000000 0.000000
# 3 -0.006420 -0.005495 0.050332 0.000000 0.000000 0.000000
# 4 0.000000 0.000000 0.000000 -0.012383 0.000000 0.000000
# 5 0.000000 0.000000 0.000000 0.000000 0.078517 0.000000
# 6 0.000000 0.000000 0.000000 0.000000 0.000000 0.005833
#
#
# Mechanical properties :
#
#
# Convention : Reuss Voigt Hill
#
# Bulk Modulus (GPa) = 19.61872 30.86674 25.24273
# Shear Modulus (GPa) = 25.95165 31.64327 28.79746
#
# Velocity S-wave (km/s) = 3.44896 3.80843 3.63314
# Velocity P-wave (km/s) = 4.98527 5.78680 5.40093
#
# Compressibility (1/GPa) = 0.05097174
#
# Stress axis : x y z
#
# Youngs Moduli (GPa) = 56.27016 108.26121 19.86800
#
# Poissons Ratio (x) = 0.13742 0.12756
# Poissons Ratio (y) = 0.07143 0.10917
# Poissons Ratio (z) = 0.36128 0.59485
#
# Static dielectric constant tensor:
#      x y z
#    x 2.350910 0.000000 0.000000 
#    y 0.000000 1.802800 0.000000 
#    z 0.000000 0.000000 1.840190 
# 
# From -- ./inp_files/48558.got.cif
#   From: 2010.05.17/outbox.cif.g08.bks.cpg/sg64_25_cif.got.tgz:48558.got - 2010.06.03 16:29:19.
