data_PCOD9479086
_publ_section_title
;
Structure prediction by ZEFSAII (Michael W. Deem and Ramdas Pophale) SiO2 
 PCOD9479086
Probable space group: C M C A
;
_chemical_formula_sum "Si O2"
_cell_formula_units_Z 96
_cell_length_a 8.717744
_cell_length_b 29.450272
_cell_length_c 20.880826
_cell_angle_alpha 90.000000
_cell_angle_beta 90.000000
_cell_angle_gamma 90.000000
_cell_volume 5360.941848
_symmetry_space_group_name_H-M "C M C A"
_symmetry_group_IT_number 64
_symmetry_cell_setting 'orthorhombic'
loop_
_space_group_symop_operation_xyz
x,y,z
-x,1/2-y,1/2+z
x,-y,-z
-x,1/2+y,1/2-z
-x,-y,-z
x,1/2+y,1/2-z
-x,y,z
x,1/2-y,1/2+z
1/2+x,1/2+y,z
1/2-x,-y,1/2+z
1/2+x,1/2-y,-z
1/2-x,y,1/2-z
1/2-x,1/2-y,-z
1/2+x,y,1/2-z
1/2-x,1/2+y,z
1/2+x,-y,1/2+z
loop_
_atom_site_type_symbol
_atom_site_label
_atom_site_fract_x
_atom_site_fract_y
_atom_site_fract_z
Si Si1 0.684750 0.874758 0.878000
Si Si2 0.184926 0.467555 0.060339
Si Si3 0.816871 0.277283 0.060864
Si Si4 0.184591 0.028788 0.319401
Si Si5 0.182299 0.128060 0.979084
Si Si6 0.183615 0.777178 0.680314
O O1 0.500000 0.876584 0.887967
O O2 0.731982 0.920609 0.841612
O O3 0.720172 0.829417 0.838401
O O4 0.763343 0.872343 0.947036
O O5 0.229964 0.493506 0.125197
O O6 0.264147 0.419282 0.051467
O O7 0.000000 0.461400 0.060058
O O8 0.221926 0.500000 0.000000
O O9 0.761287 0.328956 0.054363
O O10 0.754597 0.254162 0.125201
O O11 0.000000 0.274933 0.058779
O O12 0.750000 0.250000 0.000000
O O13 0.250000 0.017994 0.250000
O O14 0.000000 0.028627 0.316350
O O15 0.000000 0.132922 0.975969
O O16 0.250000 0.766765 0.750000
O O17 0.000000 0.772317 0.680198
#
# Coordination Sequence:
#
# PCOD9479086 Si02
#       6
#    16  16  16  16  16  16
#     4  10  20  37  60  87 123 164 199 241 299 363
#     4  10  20  39  63  84 117 161 203 244 297 360
#     4  12  24  41  64  90 122 160 205 253 305 365
#     4  10  21  37  59  87 120 161 198 242 300 357
#     4  12  24  37  60  93 123 154 201 256 305 354
#     4  11  23  39  62  91 127 166 204 248 303 364
#
# _framework density 17.907301
#
# number of rings (size 3 to 8) (size 9 to 14) (size 15 to 20)
#    0.000    1.167    3.333    4.000    0.000    2.333 
#    0.000    0.833    0.000    2.000    0.000    0.000 
#    0.000    0.000    0.000    0.000    0.000    0.000 
#
# Total GULP energy -268395.156913 kJ/mol
# GULP energy per Si atom -5591.565769 kJ/mol
# Density = 1.786654 g / cm^3
# Si number density = 17.907301 Si / 1000 Ang^3
#
#
#
# Elastic Constant Matrix: (Units=GPa)
#
#
# Indices 1 2 3 4 5 6 
#
# 1 70.6450 56.5113 64.8622 0.0000 0.0000 0.0000
# 2 56.5113 135.6061 88.0609 0.0000 0.0000 0.0000
# 3 64.8622 88.0609 182.8865 0.0000 0.0000 0.0000
# 4 0.0000 0.0000 0.0000 20.2619 0.0000 0.0000
# 5 0.0000 0.0000 0.0000 0.0000 32.4977 0.0000
# 6 0.0000 0.0000 0.0000 0.0000 0.0000 26.7930
#
#
#
# Elastic Compliance Matrix: (Units=1/GPa)
#
#
# Indices 1 2 3 4 5 6 
#
# 1 0.024519 -0.006650 -0.005494 0.000000 0.000000 0.000000
# 2 -0.006650 0.012533 -0.003676 0.000000 0.000000 0.000000
# 3 -0.005494 -0.003676 0.009186 0.000000 0.000000 0.000000
# 4 0.000000 0.000000 0.000000 0.049354 0.000000 0.000000
# 5 0.000000 0.000000 0.000000 0.000000 0.030771 0.000000
# 6 0.000000 0.000000 0.000000 0.000000 0.000000 0.037323
#
#
# Mechanical properties :
#
#
# Convention : Reuss Voigt Hill
#
# Bulk Modulus (GPa) = 68.50215 89.77851 79.14033
# Shear Modulus (GPa) = 24.97591 27.89074 26.43332
#
# Velocity S-wave (km/s) = 3.73866 3.95081 3.84620
# Velocity P-wave (km/s) = 7.54809 8.42946 8.00092
#
# Compressibility (1/GPa) = 0.01459808
#
# Stress axis : x y z
#
# Youngs Moduli (GPa) = 40.78444 79.79010 108.85746
#
# Poissons Ratio (x) = 0.53063 0.59804
# Poissons Ratio (y) = 0.27123 0.40017
# Poissons Ratio (z) = 0.22406 0.29331
#
# Static dielectric constant tensor:
#      x y z
#    x 1.602180 0.000000 0.000000 
#    y 0.000000 1.599010 0.000000 
#    z 0.000000 0.000000 1.578650 
# 
# From -- ./inp_files/37115.got.cif
#   From: 2010.05.17/outbox.cif.g08.bks.cpg/sg64_19_cif.got.tgz:37115.got - 2010.06.03 16:29:19.
