data_PCOD9479962
_publ_section_title
;
Structure prediction by ZEFSAII (Michael W. Deem and Ramdas Pophale) SiO2 
 PCOD9479962
Probable space group: C M C A
;
_chemical_formula_sum "Si O2"
_cell_formula_units_Z 96
_cell_length_a 28.050524
_cell_length_b 8.857499
_cell_length_c 16.876784
_cell_angle_alpha 90.000000
_cell_angle_beta 90.000000
_cell_angle_gamma 90.000000
_cell_volume 4193.163363
_symmetry_space_group_name_H-M "C M C A"
_symmetry_group_IT_number 64
_symmetry_cell_setting 'orthorhombic'
loop_
_space_group_symop_operation_xyz
x,y,z
-x,1/2-y,1/2+z
x,-y,-z
-x,1/2+y,1/2-z
-x,-y,-z
x,1/2+y,1/2-z
-x,y,z
x,1/2-y,1/2+z
1/2+x,1/2+y,z
1/2-x,-y,1/2+z
1/2+x,1/2-y,-z
1/2-x,y,1/2-z
1/2-x,1/2-y,-z
1/2+x,y,1/2-z
1/2-x,1/2+y,z
1/2+x,-y,1/2+z
loop_
_atom_site_type_symbol
_atom_site_label
_atom_site_fract_x
_atom_site_fract_y
_atom_site_fract_z
Si Si1 0.213435 0.369062 0.391225
Si Si2 0.307164 0.787961 0.574039
Si Si3 0.103795 0.080560 0.584551
Si Si4 0.051788 0.281076 0.690197
Si Si5 0.125992 0.283979 0.829044
Si Si6 0.946197 0.076837 0.915929
O O1 0.268945 0.326416 0.387028
O O2 0.201852 0.546456 0.390098
O O3 0.200961 0.307329 0.479578
O O4 0.178751 0.284127 0.330491
O O5 0.359160 0.718459 0.580996
O O6 0.057160 0.152836 0.623410
O O7 0.097637 0.000000 0.500000
O O8 0.125342 0.955964 0.643459
O O9 0.095625 0.265775 0.749666
O O10 0.053947 0.443950 0.648994
O O11 0.000000 0.265805 0.730341
O O12 0.094455 0.193585 0.893696
O O13 0.000000 0.141721 0.919442
O O14 0.936386 0.000000 0.000000
#
# Coordination Sequence:
#
# PCOD9479962 Si02
#       6
#    16  16  16  16  16  16
#     4  10  21  37  67  99 139 181 223 274 340 406
#     4  10  21  39  64 102 137 175 227 281 334 401
#     4  12  24  41  67 103 138 175 231 293 343 413
#     4  11  26  46  66  94 136 181 227 287 357 424
#     4  12  23  38  65  96 133 182 225 280 348 410
#     4  10  22  41  64  90 124 174 232 283 341 412
#
# _framework density 22.894410000000001
#
# number of rings (size 3 to 8) (size 9 to 14) (size 15 to 20)
#    0.000    1.167    1.667    4.500    4.667    3.000 
#    0.000    0.833    0.000    4.000    0.000    0.000 
#    0.000    0.000    0.000    0.000    0.000    0.000 
#
# Total GULP energy -268687.366058 kJ/mol
# GULP energy per Si atom -5597.653460 kJ/mol
# Density = 2.284230 g / cm^3
# Si number density = 22.894410 Si / 1000 Ang^3
#
#
#
# Elastic Constant Matrix: (Units=GPa)
#
#
# Indices 1 2 3 4 5 6 
#
# 1 67.4030 12.1069 31.6326 0.0000 0.0000 0.0000
# 2 12.1069 78.4259 19.3898 0.0000 0.0000 0.0000
# 3 31.6326 19.3898 59.2425 0.0000 0.0000 0.0000
# 4 0.0000 0.0000 0.0000 21.5206 0.0000 0.0000
# 5 0.0000 0.0000 0.0000 0.0000 35.8396 0.0000
# 6 0.0000 0.0000 0.0000 0.0000 0.0000 3.1080
#
#
#
# Elastic Compliance Matrix: (Units=1/GPa)
#
#
# Indices 1 2 3 4 5 6 
#
# 1 0.019814 -0.000482 -0.010422 0.000000 0.000000 0.000000
# 2 -0.000482 0.013885 -0.004287 0.000000 0.000000 0.000000
# 3 -0.010422 -0.004287 0.023848 0.000000 0.000000 0.000000
# 4 0.000000 0.000000 0.000000 0.046467 0.000000 0.000000
# 5 0.000000 0.000000 0.000000 0.000000 0.027902 0.000000
# 6 0.000000 0.000000 0.000000 0.000000 0.000000 0.321748
#
#
# Mechanical properties :
#
#
# Convention : Reuss Voigt Hill
#
# Bulk Modulus (GPa) = 36.81261 36.81443 36.81352
# Shear Modulus (GPa) = 10.13992 21.55647 15.84820
#
# Velocity S-wave (km/s) = 2.10680 3.07181 2.63388
# Velocity P-wave (km/s) = 4.69386 5.35690 5.03631
#
# Compressibility (1/GPa) = 0.02716460
#
# Stress axis : x y z
#
# Youngs Moduli (GPa) = 50.47014 72.01889 41.93289
#
# Poissons Ratio (x) = 0.03472 0.43701
# Poissons Ratio (y) = 0.02433 0.17977
# Poissons Ratio (z) = 0.52599 0.30876
#
# Static dielectric constant tensor:
#      x y z
#    x 1.819900 0.000000 0.000000 
#    y 0.000000 1.829850 0.000000 
#    z 0.000000 0.000000 1.871820 
# 
# From -- ./inp_files/41824.got.cif
#   From: 2010.05.17/outbox.cif.g08.bks.cpg/sg64_21_cif.got.tgz:41824.got - 2010.06.03 16:29:19.
