data_PCOD9479473
_publ_section_title
;
Structure prediction by ZEFSAII (Michael W. Deem and Ramdas Pophale) SiO2 
 PCOD9479473
Probable space group: C M C A
;
_chemical_formula_sum "Si O2"
_cell_formula_units_Z 88
_cell_length_a 16.325033
_cell_length_b 9.066218
_cell_length_c 31.209290
_cell_angle_alpha 90.000000
_cell_angle_beta 90.000000
_cell_angle_gamma 90.000000
_cell_volume 4619.171789
_symmetry_space_group_name_H-M "C M C A"
_symmetry_group_IT_number 64
_symmetry_cell_setting 'orthorhombic'
loop_
_space_group_symop_operation_xyz
x,y,z
-x,1/2-y,1/2+z
x,-y,-z
-x,1/2+y,1/2-z
-x,-y,-z
x,1/2+y,1/2-z
-x,y,z
x,1/2-y,1/2+z
1/2+x,1/2+y,z
1/2-x,-y,1/2+z
1/2+x,1/2-y,-z
1/2-x,y,1/2-z
1/2-x,1/2-y,-z
1/2+x,y,1/2-z
1/2-x,1/2+y,z
1/2+x,-y,1/2+z
loop_
_atom_site_type_symbol
_atom_site_label
_atom_site_fract_x
_atom_site_fract_y
_atom_site_fract_z
Si Si1 0.170392 0.189837 0.955240
Si Si2 0.500000 0.224942 0.589613
Si Si3 0.750000 0.026264 0.750000
Si Si4 0.635129 0.771013 0.775585
Si Si5 0.000000 0.376818 0.609189
Si Si6 0.000000 0.613767 0.168512
Si Si7 0.500000 0.721013 0.702072
Si Si8 0.666227 0.159947 0.445077
O O1 0.247400 0.266828 0.931771
O O2 0.083552 0.231447 0.936090
O O3 0.180255 0.014717 0.949408
O O4 0.160421 0.220827 0.006146
O O5 0.500000 0.371202 0.618539
O O6 0.500000 0.057127 0.609882
O O7 0.695443 0.133603 0.721225
O O8 0.688393 0.918180 0.773520
O O9 0.576269 0.791867 0.814985
O O10 0.578574 0.754890 0.732736
O O11 0.000000 0.312933 0.657781
O O12 0.083133 0.325266 0.583467
O O13 0.000000 0.452206 0.189353
#
# Coordination Sequence:
#
# PCOD9479473 Si02
#       8
#    16   8   8  16   8   8   8  16
#     4   9  18  36  59  83 111 147 192 237 283 338
#     4  10  22  37  56  84 114 157 189 232 285 342
#     4  10  20  40  64  90 104 140 198 238 280 336
#     4  10  22  40  62  84 112 148 192 232 282 340
#     4  10  22  37  56  84 114 157 189 232 285 342
#     4  11  23  40  57  82 118 155 184 233 284 345
#     4  11  23  40  57  82 118 155 184 233 284 345
#     4   9  18  36  59  83 111 147 192 237 283 338
#
# _framework density 19.051034999999999
#
# number of rings (size 3 to 8) (size 9 to 14) (size 15 to 20)
#    0.000    2.182    1.818    0.545    2.545    3.636 
#    6.545    0.000    0.000    5.455    0.000    0.000 
#    0.000    0.000    0.000    0.000    0.000    0.000 
#
# Total GULP energy -245018.231511 kJ/mol
# GULP energy per Si atom -5568.596171 kJ/mol
# Density = 1.900767 g / cm^3
# Si number density = 19.051035 Si / 1000 Ang^3
#
#
#
# Elastic Constant Matrix: (Units=GPa)
#
#
# Indices 1 2 3 4 5 6 
#
# 1 146.5761 43.6027 31.7978 0.0000 0.0000 0.0000
# 2 43.6027 49.5779 12.3512 0.0000 0.0000 0.0000
# 3 31.7978 12.3512 49.9904 0.0000 0.0000 0.0000
# 4 0.0000 0.0000 0.0000 -91.2690 0.0000 0.0000
# 5 0.0000 0.0000 0.0000 0.0000 -8.0280 0.0000
# 6 0.0000 0.0000 0.0000 0.0000 0.0000 214.7874
#
#
#
# Elastic Compliance Matrix: (Units=1/GPa)
#
#
# Indices 1 2 3 4 5 6 
#
# 1 0.010113 -0.007770 -0.004513 0.000000 0.000000 0.000000
# 2 -0.007770 0.027463 -0.001843 0.000000 0.000000 0.000000
# 3 -0.004513 -0.001843 0.023330 0.000000 0.000000 0.000000
# 4 0.000000 0.000000 0.000000 -0.010957 0.000000 0.000000
# 5 0.000000 0.000000 0.000000 0.000000 -0.124564 0.000000
# 6 0.000000 0.000000 0.000000 0.000000 0.000000 0.004656
#
#
# Mechanical properties :
#
#
# Convention : Reuss Voigt Hill
#
# Bulk Modulus (GPa) = 30.62420 46.84976 38.73698
# Shear Modulus (GPa) = -162.21024 33.65759 -64.27632
#
# Velocity S-wave (km/s) = -9.23742 4.20778 -5.81483
# Velocity P-wave (km/s) = 9.88249 6.94639 4.97047
#
# Compressibility (1/GPa) = 0.03265391
#
# Stress axis : x y z
#
# Youngs Moduli (GPa) = 98.88614 36.41314 42.86379
#
# Poissons Ratio (x) = 0.28291 0.19344
# Poissons Ratio (y) = 0.76830 0.07900
# Poissons Ratio (z) = 0.44625 0.06712
#
# Static dielectric constant tensor:
#      x y z
#    x 1.646060 0.000000 0.000000 
#    y 0.000000 1.668800 0.000000 
#    z 0.000000 0.000000 1.643510 
# 
# From -- ./inp_files/53604.got.cif
#   From: 2010.05.17/outbox.cif.g08.bks.cpg/sg64_27_cif.got.tgz:53604.got - 2010.06.03 16:29:19.
