data_PCOD9479518
_publ_section_title
;
Structure prediction by ZEFSAII (Michael W. Deem and Ramdas Pophale) SiO2 
 PCOD9479518
Probable space group: C M C A
;
_chemical_formula_sum "Si O2"
_cell_formula_units_Z 112
_cell_length_a 13.871190
_cell_length_b 25.773630
_cell_length_c 14.248837
_cell_angle_alpha 90.000000
_cell_angle_beta 90.000000
_cell_angle_gamma 90.000000
_cell_volume 5094.114807
_symmetry_space_group_name_H-M "C M C A"
_symmetry_group_IT_number 64
_symmetry_cell_setting 'orthorhombic'
loop_
_space_group_symop_operation_xyz
x,y,z
-x,1/2-y,1/2+z
x,-y,-z
-x,1/2+y,1/2-z
-x,-y,-z
x,1/2+y,1/2-z
-x,y,z
x,1/2-y,1/2+z
1/2+x,1/2+y,z
1/2-x,-y,1/2+z
1/2+x,1/2-y,-z
1/2-x,y,1/2-z
1/2-x,1/2-y,-z
1/2+x,y,1/2-z
1/2-x,1/2+y,z
1/2+x,-y,1/2+z
loop_
_atom_site_type_symbol
_atom_site_label
_atom_site_fract_x
_atom_site_fract_y
_atom_site_fract_z
Si Si1 0.205780 0.484423 0.392847
Si Si2 0.883324 0.750708 0.814417
Si Si3 0.713059 0.121012 0.516723
Si Si4 0.112708 0.031240 0.289122
Si Si5 0.385178 0.716465 0.882761
Si Si6 0.384027 0.369946 0.822812
Si Si7 0.386843 0.185650 0.999045
O O1 0.182597 0.500000 0.500000
O O2 0.206395 0.422361 0.403657
O O3 0.133669 0.502580 0.310836
O O4 0.309824 0.507661 0.361433
O O5 0.854970 0.716906 0.724904
O O6 0.850589 0.810447 0.811808
O O7 0.859138 0.720300 0.908565
O O8 0.000000 0.753830 0.811433
O O9 0.664197 0.173699 0.553647
O O10 0.662662 0.108019 0.418049
O O11 0.823618 0.134746 0.497206
O O12 0.134738 0.091587 0.264073
O O13 0.000000 0.026092 0.314904
O O14 0.500000 0.708060 0.891318
O O15 0.367297 0.775184 0.916203
O O16 0.500000 0.369665 0.835049
O O17 0.500000 0.174388 0.995465
#
# Coordination Sequence:
#
# PCOD9479518 Si02
#       7
#    16  16  16  16  16  16  16
#     4  11  25  45  66 100 137 166 227 293 341 402
#     4   9  19  36  59  90 130 164 203 261 314 384
#     4  12  23  39  66  95 124 176 218 272 333 395
#     4  10  24  46  71  97 132 176 224 283 350 403
#     4  10  21  38  61  95 132 167 211 263 322 394
#     4  10  20  40  70  97 123 169 230 280 325 390
#     4  10  22  40  57  87 134 168 208 260 318 397
#
# _framework density 21.986155
#
# number of rings (size 3 to 8) (size 9 to 14) (size 15 to 20)
#    0.000    1.714    2.857    0.857    0.000    6.286 
#    0.000    2.857    0.000    0.000    0.000    0.000 
#    0.000    0.000    0.000    0.000    0.000    0.000 
#
# Total GULP energy -313122.823330 kJ/mol
# GULP energy per Si atom -5591.478988 kJ/mol
# Density = 2.193611 g / cm^3
# Si number density = 21.986155 Si / 1000 Ang^3
#
#
#
# Elastic Constant Matrix: (Units=GPa)
#
#
# Indices 1 2 3 4 5 6 
#
# 1 46.2723 -10.4501 6.1029 0.0000 0.0000 0.0000
# 2 -10.4501 26.2384 -0.4638 0.0000 0.0000 0.0000
# 3 6.1029 -0.4638 53.9834 0.0000 0.0000 0.0000
# 4 0.0000 0.0000 0.0000 12.4632 0.0000 0.0000
# 5 0.0000 0.0000 0.0000 0.0000 25.2818 0.0000
# 6 0.0000 0.0000 0.0000 0.0000 0.0000 18.6030
#
#
#
# Elastic Compliance Matrix: (Units=1/GPa)
#
#
# Indices 1 2 3 4 5 6 
#
# 1 0.024119 0.009559 -0.002645 0.000000 0.000000 0.000000
# 2 0.009559 0.041906 -0.000721 0.000000 0.000000 0.000000
# 3 -0.002645 -0.000721 0.018817 0.000000 0.000000 0.000000
# 4 0.000000 0.000000 0.000000 0.080236 0.000000 0.000000
# 5 0.000000 0.000000 0.000000 0.000000 0.039554 0.000000
# 6 0.000000 0.000000 0.000000 0.000000 0.000000 0.053755
#
#
# Mechanical properties :
#
#
# Convention : Reuss Voigt Hill
#
# Bulk Modulus (GPa) = 10.28486 12.98578 11.63532
# Shear Modulus (GPa) = 17.95916 20.02327 18.99122
#
# Velocity S-wave (km/s) = 2.86114 3.02109 2.94220
# Velocity P-wave (km/s) = 3.95005 4.25306 4.10435
#
# Compressibility (1/GPa) = 0.09723031
#
# Stress axis : x y z
#
# Youngs Moduli (GPa) = 41.46139 23.86266 53.14343
#
# Poissons Ratio (x) = -0.22811 0.14054
# Poissons Ratio (y) = -0.39634 0.03830
# Poissons Ratio (z) = 0.10965 0.01720
#
# Static dielectric constant tensor:
#      x y z
#    x 1.828540 0.000000 0.000000 
#    y 0.000000 1.819510 0.000000 
#    z 0.000000 0.000000 1.799370 
# 
# From -- ./inp_files/24257.got.cif
#   From: 2010.05.17/outbox.cif.g08.bks.cpg/sg64_13_cif.got.tgz:24257.got - 2010.06.03 16:29:19.
