data_PCOD9479585
_publ_section_title
;
Structure prediction by ZEFSAII (Michael W. Deem and Ramdas Pophale) SiO2 
 PCOD9479585
Probable space group: C M C A
;
_chemical_formula_sum "Si O2"
_cell_formula_units_Z 96
_cell_length_a 22.479359
_cell_length_b 11.523416
_cell_length_c 19.299508
_cell_angle_alpha 90.000000
_cell_angle_beta 90.000000
_cell_angle_gamma 90.000000
_cell_volume 4999.325353
_symmetry_space_group_name_H-M "C M C A"
_symmetry_group_IT_number 64
_symmetry_cell_setting 'orthorhombic'
loop_
_space_group_symop_operation_xyz
x,y,z
-x,1/2-y,1/2+z
x,-y,-z
-x,1/2+y,1/2-z
-x,-y,-z
x,1/2+y,1/2-z
-x,y,z
x,1/2-y,1/2+z
1/2+x,1/2+y,z
1/2-x,-y,1/2+z
1/2+x,1/2-y,-z
1/2-x,y,1/2-z
1/2-x,1/2-y,-z
1/2+x,y,1/2-z
1/2-x,1/2+y,z
1/2+x,-y,1/2+z
loop_
_atom_site_type_symbol
_atom_site_label
_atom_site_fract_x
_atom_site_fract_y
_atom_site_fract_z
Si Si1 0.777764 0.130447 0.821254
Si Si2 0.500000 0.490830 0.808667
Si Si3 0.685374 0.614553 0.455630
Si Si4 0.128267 0.334442 0.814361
Si Si5 0.806921 0.732162 0.419236
Si Si6 0.373504 0.445467 0.834089
Si Si7 0.500000 0.248906 0.219553
O O1 0.750000 0.085084 0.750000
O O2 0.818872 0.241344 0.802444
O O3 0.726684 0.168656 0.874461
O O4 0.823033 0.037808 0.851664
O O5 0.438751 0.491905 0.850499
O O6 0.500000 0.361057 0.773551
O O7 0.500000 0.611637 0.763174
O O8 0.681032 0.500000 0.500000
O O9 0.645415 0.609271 0.387350
O O10 0.753263 0.642548 0.434446
O O11 0.669643 0.719197 0.508190
O O12 0.128085 0.420538 0.748722
O O13 0.063402 0.274309 0.817547
O O14 0.856936 0.672173 0.373283
#
# Coordination Sequence:
#
# PCOD9479585 Si02
#       7
#    16   8  16  16  16  16   8
#     4  11  21  32  59  91 121 155 195 259 314 375
#     4  10  22  40  67  93 131 167 213 269 322 374
#     4  10  22  39  57  85 125 169 202 252 324 382
#     4  10  22  38  60  87 124 159 211 257 312 372
#     4  10  22  38  57  89 125 162 201 261 318 388
#     4  11  22  37  62  94 124 160 213 265 315 373
#     4  10  20  44  62  95 124 174 211 268 322 370
#
# _framework density 19.202591000000002
#
# number of rings (size 3 to 8) (size 9 to 14) (size 15 to 20)
#    0.000    1.667    3.333    1.000    7.000    0.000 
#    3.000    1.250    0.000    1.000    0.000    0.000 
#    0.000    0.000    0.000    0.000    0.000    0.000 
#
# Total GULP energy -267613.661213 kJ/mol
# GULP energy per Si atom -5575.284609 kJ/mol
# Density = 1.915888 g / cm^3
# Si number density = 19.202591 Si / 1000 Ang^3
#
#
#
# Elastic Constant Matrix: (Units=GPa)
#
#
# Indices 1 2 3 4 5 6 
#
# 1 50.5211 32.6215 21.4345 0.0000 0.0000 0.0000
# 2 32.6215 61.4876 5.1507 0.0000 0.0000 0.0000
# 3 21.4345 5.1507 61.5454 0.0000 0.0000 0.0000
# 4 0.0000 0.0000 0.0000 24.9700 0.0000 0.0000
# 5 0.0000 0.0000 0.0000 0.0000 2.4442 0.0000
# 6 0.0000 0.0000 0.0000 0.0000 0.0000 25.0576
#
#
#
# Elastic Compliance Matrix: (Units=1/GPa)
#
#
# Indices 1 2 3 4 5 6 
#
# 1 0.036375 -0.018366 -0.011131 0.000000 0.000000 0.000000
# 2 -0.018366 0.025651 0.004250 0.000000 0.000000 0.000000
# 3 -0.011131 0.004250 0.019769 0.000000 0.000000 0.000000
# 4 0.000000 0.000000 0.000000 0.040048 0.000000 0.000000
# 5 0.000000 0.000000 0.000000 0.000000 0.409125 0.000000
# 6 0.000000 0.000000 0.000000 0.000000 0.000000 0.039908
#
#
# Mechanical properties :
#
#
# Convention : Reuss Voigt Hill
#
# Bulk Modulus (GPa) = 31.94864 32.44083 32.19474
# Shear Modulus (GPa) = 7.91381 18.11754 13.01568
#
# Velocity S-wave (km/s) = 2.03228 3.07497 2.60630
# Velocity P-wave (km/s) = 4.70964 5.43488 5.08520
#
# Compressibility (1/GPa) = 0.03130023
#
# Stress axis : x y z
#
# Youngs Moduli (GPa) = 27.49105 38.98427 50.58355
#
# Poissons Ratio (x) = 0.71599 0.56307
# Poissons Ratio (y) = 0.50490 -0.21496
# Poissons Ratio (z) = 0.30602 -0.16567
#
# Static dielectric constant tensor:
#      x y z
#    x 1.670700 0.000000 0.000000 
#    y 0.000000 1.728120 0.000000 
#    z 0.000000 0.000000 1.672440 
# 
# From -- ./inp_files/34979.got.cif
#   From: 2010.05.17/outbox.cif.g08.bks.cpg/sg64_18_cif.got.tgz:34979.got - 2010.06.03 16:29:19.
