data_PCOD9479844
_publ_section_title
;
Structure prediction by ZEFSAII (Michael W. Deem and Ramdas Pophale) SiO2 
 PCOD9479844
Probable space group: C M C A
;
_chemical_formula_sum "Si O2"
_cell_formula_units_Z 96
_cell_length_a 8.739545
_cell_length_b 30.741282
_cell_length_c 19.703849
_cell_angle_alpha 90.000000
_cell_angle_beta 90.000000
_cell_angle_gamma 90.000000
_cell_volume 5293.730994
_symmetry_space_group_name_H-M "C M C A"
_symmetry_group_IT_number 64
_symmetry_cell_setting 'orthorhombic'
loop_
_space_group_symop_operation_xyz
x,y,z
-x,1/2-y,1/2+z
x,-y,-z
-x,1/2+y,1/2-z
-x,-y,-z
x,1/2+y,1/2-z
-x,y,z
x,1/2-y,1/2+z
1/2+x,1/2+y,z
1/2-x,-y,1/2+z
1/2+x,1/2-y,-z
1/2-x,y,1/2-z
1/2-x,1/2-y,-z
1/2+x,y,1/2-z
1/2-x,1/2+y,z
1/2+x,-y,1/2+z
loop_
_atom_site_type_symbol
_atom_site_label
_atom_site_fract_x
_atom_site_fract_y
_atom_site_fract_z
Si Si1 0.683294 0.382965 0.566068
Si Si2 0.684979 0.864660 0.088784
Si Si3 0.316376 0.816936 0.675670
Si Si4 0.184185 0.521435 0.427645
Si Si5 0.184197 0.782824 0.323954
Si Si6 0.816522 0.444707 0.325394
O O1 0.500000 0.380938 0.569743
O O2 0.731343 0.370448 0.489373
O O3 0.753670 0.349798 0.619924
O O4 0.738608 0.431924 0.579889
O O5 0.500000 0.867446 0.091745
O O6 0.731980 0.818501 0.120992
O O7 0.753572 0.903244 0.133858
O O8 0.500000 0.819050 0.677956
O O9 0.250000 0.827325 0.750000
O O10 0.270278 0.766840 0.659995
O O11 0.226895 0.500000 0.500000
O O12 0.225473 0.487742 0.368283
O O13 0.000000 0.526951 0.427623
O O14 0.250000 0.794185 0.250000
O O15 0.000000 0.783726 0.319659
O O16 0.750000 0.445829 0.250000
O O17 0.000000 0.442153 0.322599
#
# Coordination Sequence:
#
# PCOD9479844 Si02
#       6
#    16  16  16  16  16  16
#     4  11  23  37  59  88 118 152 190 237 291 346
#     4  10  21  37  57  85 120 153 190 234 284 342
#     4  10  21  39  61  83 113 151 194 241 288 341
#     4  10  21  40  61  81 111 152 196 238 283 340
#     4   9  19  36  57  82 113 152 193 236 285 338
#     4  11  23  38  59  86 116 149 190 238 287 342
#
# _framework density 18.134658999999999
#
# number of rings (size 3 to 8) (size 9 to 14) (size 15 to 20)
#    0.000    1.833    1.667    2.000    0.000    6.333 
#    0.000    1.667    0.000    0.000    0.000    0.000 
#    0.000    0.000    0.000    0.000    0.000    0.000 
#
# Total GULP energy -268144.388089 kJ/mol
# GULP energy per Si atom -5586.341419 kJ/mol
# Density = 1.809338 g / cm^3
# Si number density = 18.134659 Si / 1000 Ang^3
#
#
#
# Elastic Constant Matrix: (Units=GPa)
#
#
# Indices 1 2 3 4 5 6 
#
# 1 32.8943 48.3516 53.0082 0.0000 0.0000 0.0000
# 2 48.3516 159.4726 126.5984 0.0000 0.0000 0.0000
# 3 53.0082 126.5984 186.6675 0.0000 0.0000 0.0000
# 4 0.0000 0.0000 0.0000 39.1240 0.0000 0.0000
# 5 0.0000 0.0000 0.0000 0.0000 25.8830 0.0000
# 6 0.0000 0.0000 0.0000 0.0000 0.0000 17.0570
#
#
#
# Elastic Compliance Matrix: (Units=1/GPa)
#
#
# Indices 1 2 3 4 5 6 
#
# 1 0.063483 -0.010695 -0.010774 0.000000 0.000000 0.000000
# 2 -0.010695 0.015386 -0.007398 0.000000 0.000000 0.000000
# 3 -0.010774 -0.007398 0.013434 0.000000 0.000000 0.000000
# 4 0.000000 0.000000 0.000000 0.025560 0.000000 0.000000
# 5 0.000000 0.000000 0.000000 0.000000 0.038635 0.000000
# 6 0.000000 0.000000 0.000000 0.000000 0.000000 0.058627
#
#
# Mechanical properties :
#
#
# Convention : Reuss Voigt Hill
#
# Bulk Modulus (GPa) = 28.92735 92.77233 60.84984
# Shear Modulus (GPa) = 17.58200 26.48456 22.03328
#
# Velocity S-wave (km/s) = 3.11710 3.82571 3.48944
# Velocity P-wave (km/s) = 5.37969 8.41328 7.06132
#
# Compressibility (1/GPa) = 0.03456936
#
# Stress axis : x y z
#
# Youngs Moduli (GPa) = 15.75232 64.99335 74.43802
#
# Poissons Ratio (x) = 0.69508 0.80201
# Poissons Ratio (y) = 0.16847 0.55069
# Poissons Ratio (z) = 0.16972 0.48082
#
# Static dielectric constant tensor:
#      x y z
#    x 1.606830 0.000000 0.000000 
#    y 0.000000 1.602940 0.000000 
#    z 0.000000 0.000000 1.591070 
# 
# From -- ./inp_files/37023.got.cif
#   From: 2010.05.17/outbox.cif.g08.bks.cpg/sg64_19_cif.got.tgz:37023.got - 2010.06.03 16:29:19.
