data_PCOD9479606
_publ_section_title
;
Structure prediction by ZEFSAII (Michael W. Deem and Ramdas Pophale) SiO2 
 PCOD9479606
Probable space group: C M C A
;
_chemical_formula_sum "Si O2"
_cell_formula_units_Z 56
_cell_length_a 26.308563
_cell_length_b 22.886571
_cell_length_c 5.045945
_cell_angle_alpha 90.000000
_cell_angle_beta 90.000000
_cell_angle_gamma 90.000000
_cell_volume 3038.228047
_symmetry_space_group_name_H-M "C M C A"
_symmetry_group_IT_number 64
_symmetry_cell_setting 'orthorhombic'
loop_
_space_group_symop_operation_xyz
x,y,z
-x,1/2-y,1/2+z
x,-y,-z
-x,1/2+y,1/2-z
-x,-y,-z
x,1/2+y,1/2-z
-x,y,z
x,1/2-y,1/2+z
1/2+x,1/2+y,z
1/2-x,-y,1/2+z
1/2+x,1/2-y,-z
1/2-x,y,1/2-z
1/2-x,1/2-y,-z
1/2+x,y,1/2-z
1/2-x,1/2+y,z
1/2+x,-y,1/2+z
loop_
_atom_site_type_symbol
_atom_site_label
_atom_site_fract_x
_atom_site_fract_y
_atom_site_fract_z
Si Si1 0.250000 0.793547 0.750000
Si Si2 0.610395 0.708306 0.835357
Si Si3 0.805011 0.626848 0.897522
Si Si4 0.000000 0.710917 0.769716
Si Si5 0.713299 0.000000 0.000000
O O1 0.250000 0.750000 0.500000
O O2 0.204882 0.837637 0.669475
O O3 0.614629 0.760287 0.617719
O O4 0.653511 0.661844 0.768081
O O5 0.553813 0.681848 0.796523
O O6 0.750000 0.627266 0.750000
O O7 0.817303 0.559293 0.947058
O O8 0.000000 0.767546 0.573149
O O9 0.750000 0.988294 0.750000
#
# Coordination Sequence:
#
# PCOD9479606 Si02
#       5
#     8  16  16   8   8
#     4  12  22  32  48  74 108 128 158 210 260 308
#     4  10  21  32  53  76 104 134 166 212 263 309
#     4  11  23  36  52  76 107 141 177 211 256 310
#     4   8  16  34  48  71 100 133 168 200 254 318
#     4  10  22  38  52  67 102 147 182 208 244 306
#
# _framework density 18.431798000000001
#
# number of rings (size 3 to 8) (size 9 to 14) (size 15 to 20)
#    0.000    1.714    2.857    1.714    4.000    0.000 
#    0.000    0.000    0.000    0.857    0.000    0.000 
#    0.000   20.571    0.000    0.000    0.000    3.000 
#
# Total GULP energy -156236.483448 kJ/mol
# GULP energy per Si atom -5579.874409 kJ/mol
# Density = 1.838985 g / cm^3
# Si number density = 18.431798 Si / 1000 Ang^3
#
#
#
# Elastic Constant Matrix: (Units=GPa)
#
#
# Indices 1 2 3 4 5 6 
#
# 1 113.6361 37.9684 7.5218 0.0000 0.0000 0.0000
# 2 37.9684 106.6012 9.7257 0.0000 0.0000 0.0000
# 3 7.5218 9.7257 98.2335 0.0000 0.0000 0.0000
# 4 0.0000 0.0000 0.0000 14.8624 0.0000 0.0000
# 5 0.0000 0.0000 0.0000 0.0000 22.5931 0.0000
# 6 0.0000 0.0000 0.0000 0.0000 0.0000 8.8588
#
#
#
# Elastic Compliance Matrix: (Units=1/GPa)
#
#
# Indices 1 2 3 4 5 6 
#
# 1 0.010006 -0.003526 -0.000417 0.000000 0.000000 0.000000
# 2 -0.003526 0.010709 -0.000790 0.000000 0.000000 0.000000
# 3 -0.000417 -0.000790 0.010290 0.000000 0.000000 0.000000
# 4 0.000000 0.000000 0.000000 0.067284 0.000000 0.000000
# 5 0.000000 0.000000 0.000000 0.000000 0.044261 0.000000
# 6 0.000000 0.000000 0.000000 0.000000 0.000000 0.112882
#
#
# Mechanical properties :
#
#
# Convention : Reuss Voigt Hill
#
# Bulk Modulus (GPa) = 46.42908 47.65585 47.04247
# Shear Modulus (GPa) = 18.37718 26.81319 22.59518
#
# Velocity S-wave (km/s) = 3.16101 3.81822 3.50506
# Velocity P-wave (km/s) = 6.21024 6.73423 6.47753
#
# Compressibility (1/GPa) = 0.02153823
#
# Stress axis : x y z
#
# Youngs Moduli (GPa) = 99.94369 93.38285 97.18168
#
# Poissons Ratio (x) = 0.32924 0.04053
# Poissons Ratio (y) = 0.35237 0.07680
# Poissons Ratio (z) = 0.04168 0.07380
#
# Static dielectric constant tensor:
#      x y z
#    x 1.707040 0.000000 0.000000 
#    y 0.000000 1.627870 0.000000 
#    z 0.000000 0.000000 1.682660 
# 
# From -- ./inp_files/2797.got.cif
#   From: 2010.05.17/outbox.cif.g08.bks.cpg/sg64_2_cif.got.tgz:2797.got - 2010.06.03 16:29:19.
