data_PCOD9479789
_publ_section_title
;
Structure prediction by ZEFSAII (Michael W. Deem and Ramdas Pophale) SiO2 
 PCOD9479789
Probable space group: C M C A
;
_chemical_formula_sum "Si O2"
_cell_formula_units_Z 96
_cell_length_a 21.294244
_cell_length_b 19.163438
_cell_length_c 10.896761
_cell_angle_alpha 90.000000
_cell_angle_beta 90.000000
_cell_angle_gamma 90.000000
_cell_volume 4446.651337
_symmetry_space_group_name_H-M "C M C A"
_symmetry_group_IT_number 64
_symmetry_cell_setting 'orthorhombic'
loop_
_space_group_symop_operation_xyz
x,y,z
-x,1/2-y,1/2+z
x,-y,-z
-x,1/2+y,1/2-z
-x,-y,-z
x,1/2+y,1/2-z
-x,y,z
x,1/2-y,1/2+z
1/2+x,1/2+y,z
1/2-x,-y,1/2+z
1/2+x,1/2-y,-z
1/2-x,y,1/2-z
1/2-x,1/2-y,-z
1/2+x,y,1/2-z
1/2-x,1/2+y,z
1/2+x,-y,1/2+z
loop_
_atom_site_type_symbol
_atom_site_label
_atom_site_fract_x
_atom_site_fract_y
_atom_site_fract_z
Si Si1 0.645087 0.866141 0.762183
Si Si2 0.570991 0.614643 0.660776
Si Si3 0.304514 0.641603 0.509459
Si Si4 0.570279 0.766740 0.347017
Si Si5 0.573344 0.992591 0.639755
Si Si6 0.679360 0.190935 0.495039
O O1 0.597470 0.809914 0.822479
O O2 0.609748 0.931753 0.708062
O O3 0.676848 0.827587 0.647751
O O4 0.690799 0.887968 0.872161
O O5 0.500000 0.603091 0.605188
O O6 0.634907 0.612012 0.580897
O O7 0.570616 0.691949 0.718615
O O8 0.576409 0.560560 0.773618
O O9 0.309850 0.725808 0.496286
O O10 0.232451 0.641265 0.556678
O O11 0.500000 0.762723 0.395194
O O12 0.612821 0.812836 0.437733
O O13 0.500000 0.973088 0.630312
O O14 0.596972 0.000000 0.500000
#
# Coordination Sequence:
#
# PCOD9479789 Si02
#       6
#    16  16  16  16  16  16
#     4  11  21  38  63  93 126 167 218 272 320 387
#     4  10  21  40  62  93 130 166 214 269 325 390
#     4  10  22  38  62  93 126 170 214 267 331 385
#     4  10  21  36  61  95 126 161 210 267 319 381
#     4  10  22  40  65  94 131 174 215 265 333 397
#     4  10  21  38  62  91 127 166 214 264 320 387
#
# _framework density 21.589279000000001
#
# number of rings (size 3 to 8) (size 9 to 14) (size 15 to 20)
#    0.000    1.833    1.667    2.000    0.000    7.333 
#    0.000    1.667   18.333    0.000    0.000    0.000 
#    0.000    0.000    0.000    0.000    0.000    0.000 
#
# Total GULP energy -267570.900115 kJ/mol
# GULP energy per Si atom -5574.393752 kJ/mol
# Density = 2.154014 g / cm^3
# Si number density = 21.589279 Si / 1000 Ang^3
#
#
#
# Elastic Constant Matrix: (Units=GPa)
#
#
# Indices 1 2 3 4 5 6 
#
# 1 153.7163 18.0822 58.8264 0.0000 0.0000 0.0000
# 2 18.0822 63.6358 12.9041 0.0000 0.0000 0.0000
# 3 58.8264 12.9041 70.8942 0.0000 0.0000 0.0000
# 4 0.0000 0.0000 0.0000 28.9262 0.0000 0.0000
# 5 0.0000 0.0000 0.0000 0.0000 22.8104 0.0000
# 6 0.0000 0.0000 0.0000 0.0000 0.0000 1.4859
#
#
#
# Elastic Compliance Matrix: (Units=1/GPa)
#
#
# Indices 1 2 3 4 5 6 
#
# 1 0.009614 -0.001157 -0.007767 0.000000 0.000000 0.000000
# 2 -0.001157 0.016456 -0.002035 0.000000 0.000000 0.000000
# 3 -0.007767 -0.002035 0.020921 0.000000 0.000000 0.000000
# 4 0.000000 0.000000 0.000000 0.034571 0.000000 0.000000
# 5 0.000000 0.000000 0.000000 0.000000 0.043840 0.000000
# 6 0.000000 0.000000 0.000000 0.000000 0.000000 0.672992
#
#
# Mechanical properties :
#
#
# Convention : Reuss Voigt Hill
#
# Bulk Modulus (GPa) = 39.88441 51.98575 45.93508
# Shear Modulus (GPa) = 6.03377 23.87341 14.95359
#
# Velocity S-wave (km/s) = 1.67358 3.32896 2.63466
# Velocity P-wave (km/s) = 4.71686 6.23760 5.52976
#
# Compressibility (1/GPa) = 0.02507245
#
# Stress axis : x y z
#
# Youngs Moduli (GPa) = 104.01610 60.76858 47.79945
#
# Poissons Ratio (x) = 0.07030 0.37125
# Poissons Ratio (y) = 0.12033 0.09729
# Poissons Ratio (z) = 0.80788 0.12369
#
# Static dielectric constant tensor:
#      x y z
#    x 1.912440 0.000000 0.000000 
#    y 0.000000 1.760730 0.000000 
#    z 0.000000 0.000000 1.799650 
# 
# From -- ./inp_files/17341.got.cif
#   From: 2010.05.17/outbox.cif.g08.bks.cpg/sg64_9_cif.got.tgz:17341.got - 2010.06.03 16:29:19.
