data_PCOD9479843
_publ_section_title
;
Structure prediction by ZEFSAII (Michael W. Deem and Ramdas Pophale) SiO2 
 PCOD9479843
Probable space group: C M C A
;
_chemical_formula_sum "Si O2"
_cell_formula_units_Z 96
_cell_length_a 10.877369
_cell_length_b 18.214770
_cell_length_c 23.795685
_cell_angle_alpha 90.000000
_cell_angle_beta 90.000000
_cell_angle_gamma 90.000000
_cell_volume 4714.609908
_symmetry_space_group_name_H-M "C M C A"
_symmetry_group_IT_number 64
_symmetry_cell_setting 'orthorhombic'
loop_
_space_group_symop_operation_xyz
x,y,z
-x,1/2-y,1/2+z
x,-y,-z
-x,1/2+y,1/2-z
-x,-y,-z
x,1/2+y,1/2-z
-x,y,z
x,1/2-y,1/2+z
1/2+x,1/2+y,z
1/2-x,-y,1/2+z
1/2+x,1/2-y,-z
1/2-x,y,1/2-z
1/2-x,1/2-y,-z
1/2+x,y,1/2-z
1/2-x,1/2+y,z
1/2+x,-y,1/2+z
loop_
_atom_site_type_symbol
_atom_site_label
_atom_site_fract_x
_atom_site_fract_y
_atom_site_fract_z
Si Si1 0.860470 0.737289 0.101450
Si Si2 0.861842 0.895153 0.523138
Si Si3 0.222064 0.111584 0.601748
Si Si4 0.276471 0.886863 0.813566
Si Si5 0.139034 0.965254 0.906739
Si Si6 0.631015 0.544203 0.711596
O O1 0.849526 0.688374 0.045098
O O2 0.772130 0.806283 0.103066
O O3 0.832854 0.678825 0.150691
O O4 0.000000 0.763456 0.106103
O O5 0.848455 0.899768 0.456655
O O6 0.748155 0.937255 0.552211
O O7 0.000000 0.920103 0.540559
O O8 0.142753 0.093456 0.656372
O O9 0.330953 0.050679 0.603302
O O10 0.250000 0.863807 0.750000
O O11 0.161348 0.919049 0.849322
O O12 0.360553 0.959452 0.808367
O O13 0.000000 0.954645 0.927351
O O14 0.500000 0.556623 0.740483
O O15 0.750000 0.556842 0.750000
#
# Coordination Sequence:
#
# PCOD9479843 Si02
#       6
#    16  16  16  16  16  16
#     4  10  21  37  57  85 119 155 194 238 291 349
#     4  10  22  41  63  85 115 157 201 242 289 351
#     4  11  22  36  59  88 121 155 193 241 298 353
#     4   9  20  38  62  85 114 156 201 242 287 346
#     4  10  22  38  59  90 122 153 196 248 298 348
#     4  10  22  40  63  89 117 152 197 247 296 348
#
# _framework density 20.362235999999999
#
# number of rings (size 3 to 8) (size 9 to 14) (size 15 to 20)
#    0.000    2.000    0.000    2.500    0.000   15.333 
#    0.000    8.333    0.000    0.000    0.000    0.000 
#    0.000    0.000    0.000    0.000    0.000    0.000 
#
# Total GULP energy -267970.759233 kJ/mol
# GULP energy per Si atom -5582.724151 kJ/mol
# Density = 2.031589 g / cm^3
# Si number density = 20.362236 Si / 1000 Ang^3
#
#
#
# Elastic Constant Matrix: (Units=GPa)
#
#
# Indices 1 2 3 4 5 6 
#
# 1 159.5653 33.5632 45.1751 0.0000 0.0000 0.0000
# 2 33.5632 56.7695 19.9310 0.0000 0.0000 0.0000
# 3 45.1751 19.9310 104.0365 0.0000 0.0000 0.0000
# 4 0.0000 0.0000 0.0000 8.4536 0.0000 0.0000
# 5 0.0000 0.0000 0.0000 0.0000 3.6728 0.0000
# 6 0.0000 0.0000 0.0000 0.0000 0.0000 -1.8059
#
#
#
# Elastic Compliance Matrix: (Units=1/GPa)
#
#
# Indices 1 2 3 4 5 6 
#
# 1 0.007798 -0.003668 -0.002683 0.000000 0.000000 0.000000
# 2 -0.003668 0.020611 -0.002356 0.000000 0.000000 0.000000
# 3 -0.002683 -0.002356 0.011229 0.000000 0.000000 0.000000
# 4 0.000000 0.000000 0.000000 0.118293 0.000000 0.000000
# 5 0.000000 0.000000 0.000000 0.000000 0.272271 0.000000
# 6 0.000000 0.000000 0.000000 0.000000 0.000000 -0.553736
#
#
# Mechanical properties :
#
#
# Convention : Reuss Voigt Hill
#
# Bulk Modulus (GPa) = 44.99886 57.52330 51.26108
# Shear Modulus (GPa) = -50.65259 16.84425 -16.90417
#
# Velocity S-wave (km/s) = -4.99297 2.87928 -2.88440
# Velocity P-wave (km/s) = 3.33054 6.27415 3.75982
#
# Compressibility (1/GPa) = 0.02222278
#
# Stress axis : x y z
#
# Youngs Moduli (GPa) = 128.23200 48.51788 89.05896
#
# Poissons Ratio (x) = 0.17798 0.23899
# Poissons Ratio (y) = 0.47041 0.20979
# Poissons Ratio (z) = 0.34410 0.11429
#
# Static dielectric constant tensor:
#      x y z
#    x 1.739030 0.000000 0.000000 
#    y 0.000000 1.696560 0.000000 
#    z 0.000000 0.000000 1.750670 
# 
# From -- ./inp_files/44236.got.cif
#   From: 2010.05.17/outbox.cif.g08.bks.cpg/sg64_23_cif.got.tgz:44236.got - 2010.06.03 16:29:19.
