data_PCOD9479195
_publ_section_title
;
Structure prediction by ZEFSAII (Michael W. Deem and Ramdas Pophale) SiO2 
 PCOD9479195
Probable space group: C M C A
;
_chemical_formula_sum "Si O2"
_cell_formula_units_Z 64
_cell_length_a 13.226793
_cell_length_b 7.947564
_cell_length_c 25.881090
_cell_angle_alpha 90.000000
_cell_angle_beta 90.000000
_cell_angle_gamma 90.000000
_cell_volume 2720.640469
_symmetry_space_group_name_H-M "C M C A"
_symmetry_group_IT_number 64
_symmetry_cell_setting 'orthorhombic'
loop_
_space_group_symop_operation_xyz
x,y,z
-x,1/2-y,1/2+z
x,-y,-z
-x,1/2+y,1/2-z
-x,-y,-z
x,1/2+y,1/2-z
-x,y,z
x,1/2-y,1/2+z
1/2+x,1/2+y,z
1/2-x,-y,1/2+z
1/2+x,1/2-y,-z
1/2-x,y,1/2-z
1/2-x,1/2-y,-z
1/2+x,y,1/2-z
1/2-x,1/2+y,z
1/2+x,-y,1/2+z
loop_
_atom_site_type_symbol
_atom_site_label
_atom_site_fract_x
_atom_site_fract_y
_atom_site_fract_z
Si Si1 0.617804 0.932634 0.598407
Si Si2 0.111412 0.097606 0.343131
Si Si3 0.820516 0.926557 0.443430
Si Si4 0.290416 0.258939 0.307150
O O1 0.500000 0.983276 0.595109
O O2 0.638393 0.761051 0.565314
O O3 0.644274 0.870452 0.657582
O O4 0.702929 0.054138 0.573909
O O5 0.183675 0.254575 0.336395
O O6 0.000000 0.135900 0.325841
O O7 0.118826 0.037404 0.401771
O O8 0.154728 0.937534 0.311162
O O9 0.833021 0.000000 0.500000
O O10 0.250000 0.218427 0.250000
#
# Coordination Sequence:
#
# PCOD9479195 Si02
#       4
#    16  16  16  16
#     4  10  22  39  58  83 115 148 185 231 279 329
#     4  10  22  38  56  82 113 145 185 230 277 331
#     4  10  20  38  59  83 115 147 186 232 275 330
#     4  10  20  38  58  80 112 145 184 232 276 329
#
# _framework density 23.523872000000001
#
# number of rings (size 3 to 8) (size 9 to 14) (size 15 to 20)
#    0.000    2.000    0.000    4.500    0.000    4.500 
#    0.000   22.500    0.000    0.000    0.000    0.000 
#    0.000    0.000    0.000    0.000    0.000    0.000 
#
# Total GULP energy -178687.298049 kJ/mol
# GULP energy per Si atom -5583.978064 kJ/mol
# Density = 2.347033 g / cm^3
# Si number density = 23.523872 Si / 1000 Ang^3
#
#
#
# Elastic Constant Matrix: (Units=GPa)
#
#
# Indices 1 2 3 4 5 6 
#
# 1 150.2779 -7.2122 -25.9009 0.0000 0.0000 0.0000
# 2 -7.2122 38.5652 -19.8809 0.0000 0.0000 0.0000
# 3 -25.9009 -19.8809 67.9017 0.0000 0.0000 0.0000
# 4 0.0000 0.0000 0.0000 5.3273 0.0000 0.0000
# 5 0.0000 0.0000 0.0000 0.0000 -7.4901 0.0000
# 6 0.0000 0.0000 0.0000 0.0000 0.0000-6768.5813
#
#
#
# Elastic Compliance Matrix: (Units=1/GPa)
#
#
# Indices 1 2 3 4 5 6 
#
# 1 0.007479 0.003379 0.003842 0.000000 0.000000 0.000000
# 2 0.003379 0.032067 0.010678 0.000000 0.000000 0.000000
# 3 0.003842 0.010678 0.019319 0.000000 0.000000 0.000000
# 4 0.000000 0.000000 0.000000 0.187713 0.000000 0.000000
# 5 0.000000 0.000000 0.000000 0.000000 -0.133509 0.000000
# 6 0.000000 0.000000 0.000000 0.000000 0.000000 -0.000148
#
#
# Mechanical properties :
#
#
# Convention : Reuss Voigt Hill
#
# Bulk Modulus (GPa) = 10.56380 16.75075 13.65727
# Shear Modulus (GPa) = 46.00815 -1333.49957 -643.74571
#
# Velocity S-wave (km/s) = 4.42725 -23.83488 -16.56051
# Velocity P-wave (km/s) = 5.53484 27.39219 18.96968
#
# Compressibility (1/GPa) = 0.09466295
#
# Stress axis : x y z
#
# Youngs Moduli (GPa) = 133.71250 31.18509 51.76228
#
# Poissons Ratio (x) = -0.10538 -0.19888
# Poissons Ratio (y) = -0.45186 -0.55271
# Poissons Ratio (z) = -0.51375 -0.33299
#
# Static dielectric constant tensor:
#      x y z
#    x 1.885310 0.000000 0.000000 
#    y 0.000000 1.951450 0.000000 
#    z 0.000000 0.000000 1.960330 
# 
# From -- ./inp_files/43711.got.cif
#   From: 2010.05.17/outbox.cif.g08.bks.cpg/sg64_22_cif.got.tgz:43711.got - 2010.06.03 16:29:19.
