data_PCOD9479612
_publ_section_title
;
Structure prediction by ZEFSAII (Michael W. Deem and Ramdas Pophale) SiO2 
 PCOD9479612
Probable space group: C M C A
;
_chemical_formula_sum "Si O2"
_cell_formula_units_Z 80
_cell_length_a 26.063203
_cell_length_b 9.459667
_cell_length_c 12.939639
_cell_angle_alpha 90.000000
_cell_angle_beta 90.000000
_cell_angle_gamma 90.000000
_cell_volume 3190.257920
_symmetry_space_group_name_H-M "C M C A"
_symmetry_group_IT_number 64
_symmetry_cell_setting 'orthorhombic'
loop_
_space_group_symop_operation_xyz
x,y,z
-x,1/2-y,1/2+z
x,-y,-z
-x,1/2+y,1/2-z
-x,-y,-z
x,1/2+y,1/2-z
-x,y,z
x,1/2-y,1/2+z
1/2+x,1/2+y,z
1/2-x,-y,1/2+z
1/2+x,1/2-y,-z
1/2-x,y,1/2-z
1/2-x,1/2-y,-z
1/2+x,y,1/2-z
1/2-x,1/2+y,z
1/2+x,-y,1/2+z
loop_
_atom_site_type_symbol
_atom_site_label
_atom_site_fract_x
_atom_site_fract_y
_atom_site_fract_z
Si Si1 0.790410 0.689426 0.915396
Si Si2 0.705886 0.986436 0.626808
Si Si3 0.500000 0.601169 0.258146
Si Si4 0.000000 0.624253 0.887372
Si Si5 0.599482 0.751186 0.514078
Si Si6 0.901622 0.464233 0.346073
O O1 0.761483 0.557272 0.866553
O O2 0.845896 0.674442 0.968967
O O3 0.794388 0.823717 0.840949
O O4 0.750000 0.750000 0.000000
O O5 0.657809 0.055225 0.686377
O O6 0.694822 0.000000 0.500000
O O7 0.500000 0.545893 0.374144
O O8 0.500000 0.755942 0.208586
O O9 0.551189 0.514796 0.222327
O O10 0.052846 0.664764 0.941689
O O11 0.587220 0.815175 0.401559
O O12 0.602039 0.897514 0.579902
#
# Coordination Sequence:
#
# PCOD9479612 Si02
#       6
#    16  16   8   8  16  16
#     4   9  14  24  43  71 102 119 143 189 246 288
#     4   9  14  24  42  71 104 113 147 189 239 291
#     4  10  21  33  53  67  95 132 162 202 244 284
#     4  10  21  35  51  69  97 132 166 200 244 288
#     4   9  15  28  51  76  96 120 162 208 238 282
#     4   9  14  28  49  77  92 119 165 206 231 279
#
# _framework density 25.076342
#
# number of rings (size 3 to 8) (size 9 to 14) (size 15 to 20)
#    0.000    2.800    6.000    0.600    0.000    2.400 
#    0.000    2.000    0.000    2.400    0.000    8.400 
#    0.000    0.000    0.000    0.000    0.000    0.000 
#
# Total GULP energy -222777.721538 kJ/mol
# GULP energy per Si atom -5569.443038 kJ/mol
# Density = 2.501927 g / cm^3
# Si number density = 25.076342 Si / 1000 Ang^3
#
#
#
# Elastic Constant Matrix: (Units=GPa)
#
#
# Indices 1 2 3 4 5 6 
#
# 1 151.5505 29.1172 29.8724 0.0000 0.0000 0.0000
# 2 29.1172 98.0723 12.4699 0.0000 0.0000 0.0000
# 3 29.8724 12.4699 26.0415 0.0000 0.0000 0.0000
# 4 0.0000 0.0000 0.0000 27.0009 0.0000 0.0000
# 5 0.0000 0.0000 0.0000 0.0000 24.0992 0.0000
# 6 0.0000 0.0000 0.0000 0.0000 0.0000 29.7922
#
#
#
# Elastic Compliance Matrix: (Units=1/GPa)
#
#
# Indices 1 2 3 4 5 6 
#
# 1 0.008703 -0.001400 -0.009313 0.000000 0.000000 0.000000
# 2 -0.001400 0.011083 -0.003701 0.000000 0.000000 0.000000
# 3 -0.009313 -0.003701 0.050856 0.000000 0.000000 0.000000
# 4 0.000000 0.000000 0.000000 0.037036 0.000000 0.000000
# 5 0.000000 0.000000 0.000000 0.000000 0.041495 0.000000
# 6 0.000000 0.000000 0.000000 0.000000 0.000000 0.033566
#
#
# Mechanical properties :
#
#
# Convention : Reuss Voigt Hill
#
# Bulk Modulus (GPa) = 23.91587 46.50924 35.21256
# Shear Modulus (GPa) = 22.17253 29.79214 25.98233
#
# Velocity S-wave (km/s) = 2.97678 3.45056 3.22239
# Velocity P-wave (km/s) = 4.62308 5.87048 5.28372
#
# Compressibility (1/GPa) = 0.04181324
#
# Stress axis : x y z
#
# Youngs Moduli (GPa) = 114.90142 90.23024 19.66348
#
# Poissons Ratio (x) = 0.12630 0.18313
# Poissons Ratio (y) = 0.16083 0.07278
# Poissons Ratio (z) = 1.07009 0.33397
#
# Static dielectric constant tensor:
#      x y z
#    x 2.085960 0.000000 0.000000 
#    y 0.000000 2.016190 0.000000 
#    z 0.000000 0.000000 2.270480 
# 
# From -- ./inp_files/34896.got.cif
#   From: 2010.05.17/outbox.cif.g08.bks.cpg/sg64_18_cif.got.tgz:34896.got - 2010.06.03 16:29:19.
