data_PCOD9479356
_publ_section_title
;
Structure prediction by ZEFSAII (Michael W. Deem and Ramdas Pophale) SiO2 
 PCOD9479356
Probable space group: C M C A
;
_chemical_formula_sum "Si O2"
_cell_formula_units_Z 112
_cell_length_a 29.539304
_cell_length_b 14.965016
_cell_length_c 13.836190
_cell_angle_alpha 90.000000
_cell_angle_beta 90.000000
_cell_angle_gamma 90.000000
_cell_volume 6116.372979
_symmetry_space_group_name_H-M "C M C A"
_symmetry_group_IT_number 64
_symmetry_cell_setting 'orthorhombic'
loop_
_space_group_symop_operation_xyz
x,y,z
-x,1/2-y,1/2+z
x,-y,-z
-x,1/2+y,1/2-z
-x,-y,-z
x,1/2+y,1/2-z
-x,y,z
x,1/2-y,1/2+z
1/2+x,1/2+y,z
1/2-x,-y,1/2+z
1/2+x,1/2-y,-z
1/2-x,y,1/2-z
1/2-x,1/2-y,-z
1/2+x,y,1/2-z
1/2-x,1/2+y,z
1/2+x,-y,1/2+z
loop_
_atom_site_type_symbol
_atom_site_label
_atom_site_fract_x
_atom_site_fract_y
_atom_site_fract_z
Si Si1 0.788352 0.892259 0.497953
Si Si2 0.155113 0.837238 0.320613
Si Si3 0.395265 0.774906 0.531130
Si Si4 0.050254 0.438547 0.594463
Si Si5 0.365960 0.527914 0.230679
Si Si6 0.186207 0.088058 0.059578
Si Si7 0.143701 0.802175 0.648453
O O1 0.802306 0.852928 0.393090
O O2 0.735868 0.884363 0.526194
O O3 0.816804 0.837371 0.577244
O O4 0.798811 0.000000 0.500000
O O5 0.115062 0.802228 0.391158
O O6 0.159517 0.766155 0.232783
O O7 0.143243 0.933016 0.277026
O O8 0.436005 0.838428 0.562140
O O9 0.350273 0.836448 0.539026
O O10 0.393869 0.741288 0.421585
O O11 0.050013 0.500000 0.500000
O O12 0.090685 0.474091 0.661176
O O13 0.000000 0.440610 0.638146
O O14 0.321490 0.559179 0.170184
O O15 0.374979 0.608208 0.303628
O O16 0.173718 0.000000 0.000000
#
# Coordination Sequence:
#
# PCOD9479356 Si02
#       7
#    16  16  16  16  16  16  16
#     4  10  22  39  55  84 121 161 211 253 298 349
#     4  11  21  38  61  86 117 166 202 245 303 360
#     4  10  21  38  58  87 119 157 197 245 309 356
#     4  10  20  39  66  92 118 149 196 249 304 364
#     4  11  21  39  61  85 119 159 197 246 305 360
#     4  10  20  39  55  78 118 159 203 258 290 343
#     4  11  21  37  60  85 116 159 203 243 299 360
#
# _framework density 18.311506000000001
#
# number of rings (size 3 to 8) (size 9 to 14) (size 15 to 20)
#    0.000    1.571    4.286    3.429    0.000    2.857 
#    2.571    4.286    0.000    0.000    0.000    3.000 
#    0.000    0.000    0.000    0.000    0.000    0.000 
#
# Total GULP energy -312386.670834 kJ/mol
# GULP energy per Si atom -5578.333408 kJ/mol
# Density = 1.826983 g / cm^3
# Si number density = 18.311506 Si / 1000 Ang^3
#
#
#
# Elastic Constant Matrix: (Units=GPa)
#
#
# Indices 1 2 3 4 5 6 
#
# 1 84.6030 21.0260 34.3085 0.0000 0.0000 0.0000
# 2 21.0260 84.2464 38.4472 0.0000 0.0000 0.0000
# 3 34.3085 38.4472 105.4132 0.0000 0.0000 0.0000
# 4 0.0000 0.0000 0.0000 53.4226 0.0000 0.0000
# 5 0.0000 0.0000 0.0000 0.0000 -9.2488 0.0000
# 6 0.0000 0.0000 0.0000 0.0000 0.0000 -4.3098
#
#
#
# Elastic Compliance Matrix: (Units=1/GPa)
#
#
# Indices 1 2 3 4 5 6 
#
# 1 0.013811 -0.001674 -0.003884 0.000000 0.000000 0.000000
# 2 -0.001674 0.014443 -0.004723 0.000000 0.000000 0.000000
# 3 -0.003884 -0.004723 0.012473 0.000000 0.000000 0.000000
# 4 0.000000 0.000000 0.000000 0.018719 0.000000 0.000000
# 5 0.000000 0.000000 0.000000 0.000000 -0.108122 0.000000
# 6 0.000000 0.000000 0.000000 0.000000 0.000000 -0.232030
#
#
# Mechanical properties :
#
#
# Convention : Reuss Voigt Hill
#
# Bulk Modulus (GPa) = 49.59212 51.31400 50.45306
# Shear Modulus (GPa) = -19.72998 20.00487 0.13745
#
# Velocity S-wave (km/s) = -3.28604 3.30885 0.27427
# Velocity P-wave (km/s) = 3.56986 6.53312 5.26429
#
# Compressibility (1/GPa) = 0.02016449
#
# Stress axis : x y z
#
# Youngs Moduli (GPa) = 72.40482 69.23683 80.17117
#
# Poissons Ratio (x) = 0.11592 0.31142
# Poissons Ratio (y) = 0.12122 0.37864
# Poissons Ratio (z) = 0.28125 0.32700
#
# Static dielectric constant tensor:
#      x y z
#    x 1.611610 0.000000 0.000000 
#    y 0.000000 1.467510 0.000000 
#    z 0.000000 0.000000 1.695380 
# 
# From -- ./inp_files/28470.got.cif
#   From: 2010.05.17/outbox.cif.g08.bks.cpg/sg64_15_cif.got.tgz:28470.got - 2010.06.03 16:29:19.
