data_PCOD9479190
_publ_section_title
;
Structure prediction by ZEFSAII (Michael W. Deem and Ramdas Pophale) SiO2 
 PCOD9479190
Probable space group: C M C A
;
_chemical_formula_sum "Si O2"
_cell_formula_units_Z 104
_cell_length_a 21.637756
_cell_length_b 28.564786
_cell_length_c 6.993991
_cell_angle_alpha 90.000000
_cell_angle_beta 90.000000
_cell_angle_gamma 90.000000
_cell_volume 4322.831058
_symmetry_space_group_name_H-M "C M C A"
_symmetry_group_IT_number 64
_symmetry_cell_setting 'orthorhombic'
loop_
_space_group_symop_operation_xyz
x,y,z
-x,1/2-y,1/2+z
x,-y,-z
-x,1/2+y,1/2-z
-x,-y,-z
x,1/2+y,1/2-z
-x,y,z
x,1/2-y,1/2+z
1/2+x,1/2+y,z
1/2-x,-y,1/2+z
1/2+x,1/2-y,-z
1/2-x,y,1/2-z
1/2-x,1/2-y,-z
1/2+x,y,1/2-z
1/2-x,1/2+y,z
1/2+x,-y,1/2+z
loop_
_atom_site_type_symbol
_atom_site_label
_atom_site_fract_x
_atom_site_fract_y
_atom_site_fract_z
Si Si1 0.426072 0.358907 0.729360
Si Si2 0.665042 0.184825 0.699438
Si Si3 0.566487 0.615631 0.716859
Si Si4 0.158331 0.538475 0.752590
Si Si5 0.316738 0.207451 0.144893
Si Si6 0.250000 0.609078 0.750000
Si Si7 0.680590 0.934972 0.687115
O O1 0.500000 0.354958 0.791030
O O2 0.432936 0.369287 0.503187
O O3 0.378323 0.314314 0.746187
O O4 0.378861 0.400809 0.793794
O O5 0.600898 0.158271 0.677960
O O6 0.674921 0.236479 0.625163
O O7 0.710328 0.144543 0.622815
O O8 0.679437 0.188700 0.927478
O O9 0.500000 0.613107 0.801263
O O10 0.593307 0.563349 0.728113
O O11 0.202033 0.576027 0.858896
O O12 0.166547 0.484448 0.794893
O O13 0.179530 0.548758 0.534445
O O14 0.250000 0.199658 0.250000
O O15 0.750000 0.919085 0.750000
#
# Coordination Sequence:
#
# PCOD9479190 Si02
#       7
#    16  16  16  16  16   8  16
#     4  10  24  42  61  87 124 165 210 252 302 364
#     4  10  22  35  60  87 122 152 199 249 299 364
#     4   9  21  42  62  86 121 169 206 247 303 370
#     4  10  23  38  62  89 122 159 198 251 308 364
#     4  11  22  37  59  91 118 159 199 253 305 358
#     4  10  20  38  56  86 122 148 194 236 304 354
#     4  11  24  39  62  95 123 160 200 257 310 360
#
# _framework density 24.058306999999999
#
# number of rings (size 3 to 8) (size 9 to 14) (size 15 to 20)
#    0.000    1.846    1.538    0.923    8.615    3.692 
#    0.000    3.077    0.000    0.000    0.000    0.000 
#    0.000    0.000    0.000    0.000    0.000    0.000 
#
# Total GULP energy -289885.907751 kJ/mol
# GULP energy per Si atom -5574.728995 kJ/mol
# Density = 2.400355 g / cm^3
# Si number density = 24.058307 Si / 1000 Ang^3
#
#
#
# Elastic Constant Matrix: (Units=GPa)
#
#
# Indices 1 2 3 4 5 6 
#
# 1 225.6923 91.6073 16.0392 0.0000 0.0000 0.0000
# 2 91.6073 191.7429 8.6331 0.0000 0.0000 0.0000
# 3 16.0392 8.6331 69.3299 0.0000 0.0000 0.0000
# 4 0.0000 0.0000 0.0000 33.3899 0.0000 0.0000
# 5 0.0000 0.0000 0.0000 0.0000 22.5225 0.0000
# 6 0.0000 0.0000 0.0000 0.0000 0.0000 14.5808
#
#
#
# Elastic Compliance Matrix: (Units=1/GPa)
#
#
# Indices 1 2 3 4 5 6 
#
# 1 0.005560 -0.002613 -0.000961 0.000000 0.000000 0.000000
# 2 -0.002613 0.006473 -0.000202 0.000000 0.000000 0.000000
# 3 -0.000961 -0.000202 0.014671 0.000000 0.000000 0.000000
# 4 0.000000 0.000000 0.000000 0.029949 0.000000 0.000000
# 5 0.000000 0.000000 0.000000 0.000000 0.044400 0.000000
# 6 0.000000 0.000000 0.000000 0.000000 0.000000 0.068583
#
#
# Mechanical properties :
#
#
# Convention : Reuss Voigt Hill
#
# Bulk Modulus (GPa) = 52.21105 79.92491 66.06798
# Shear Modulus (GPa) = 27.23740 38.79767 33.01753
#
# Velocity S-wave (km/s) = 3.36838 4.02014 3.70861
# Velocity P-wave (km/s) = 6.07264 7.40555 6.77197
#
# Compressibility (1/GPa) = 0.01915303
#
# Stress axis : x y z
#
# Youngs Moduli (GPa) = 179.86678 154.49384 68.16088
#
# Poissons Ratio (x) = 0.40368 0.06549
# Poissons Ratio (y) = 0.46998 0.01373
# Poissons Ratio (z) = 0.17282 0.03113
#
# Static dielectric constant tensor:
#      x y z
#    x 2.001800 0.000000 0.000000 
#    y 0.000000 1.934650 0.000000 
#    z 0.000000 0.000000 2.173120 
# 
# From -- ./inp_files/8527.got.cif
#   From: 2010.05.17/outbox.cif.g08.bks.cpg/sg64_5_cif.got.tgz:8527.got - 2010.06.03 16:29:19.
