data_PCOD9479842
_publ_section_title
;
Structure prediction by ZEFSAII (Michael W. Deem and Ramdas Pophale) SiO2 
 PCOD9479842
Probable space group: C M C A
;
_chemical_formula_sum "Si O2"
_cell_formula_units_Z 80
_cell_length_a 25.282633
_cell_length_b 9.362912
_cell_length_c 16.985347
_cell_angle_alpha 90.000000
_cell_angle_beta 90.000000
_cell_angle_gamma 90.000000
_cell_volume 4020.755510
_symmetry_space_group_name_H-M "C M C A"
_symmetry_group_IT_number 64
_symmetry_cell_setting 'orthorhombic'
loop_
_space_group_symop_operation_xyz
x,y,z
-x,1/2-y,1/2+z
x,-y,-z
-x,1/2+y,1/2-z
-x,-y,-z
x,1/2+y,1/2-z
-x,y,z
x,1/2-y,1/2+z
1/2+x,1/2+y,z
1/2-x,-y,1/2+z
1/2+x,1/2-y,-z
1/2-x,y,1/2-z
1/2-x,1/2-y,-z
1/2+x,y,1/2-z
1/2-x,1/2+y,z
1/2+x,-y,1/2+z
loop_
_atom_site_type_symbol
_atom_site_label
_atom_site_fract_x
_atom_site_fract_y
_atom_site_fract_z
Si Si1 0.213709 0.735894 0.075612
Si Si2 0.282388 0.021253 0.326486
Si Si3 0.400614 0.730304 0.965426
Si Si4 0.000000 0.491918 0.279784
Si Si5 0.602676 0.574377 0.126272
Si Si6 0.000000 0.318862 0.866009
O O1 0.243060 0.632842 0.134596
O O2 0.154606 0.692174 0.052463
O O3 0.211429 0.888814 0.115983
O O4 0.250000 0.750000 0.000000
O O5 0.250000 0.973019 0.250000
O O6 0.342230 0.084984 0.324786
O O7 0.397991 0.575422 0.921976
O O8 0.449445 0.807437 0.923569
O O9 0.403407 0.694757 0.058547
O O10 0.052248 0.563487 0.317503
O O11 0.000000 0.540310 0.188632
O O12 0.000000 0.324464 0.308433
#
# Coordination Sequence:
#
# PCOD9479842 Si02
#       6
#    16  16  16   8  16   8
#     4  11  21  39  60  86 118 154 200 240 289 352
#     4  11  23  37  58  88 121 155 192 245 297 352
#     4   9  18  35  60  83 106 150 198 239 269 346
#     4  10  21  37  57  85 111 148 182 246 290 340
#     4   9  18  36  58  81 112 149 196 230 285 347
#     4  10  21  37  61  85 115 146 194 238 293 341
#
# _framework density 19.896758999999999
#
# number of rings (size 3 to 8) (size 9 to 14) (size 15 to 20)
#    0.000    2.000    2.000    1.800    2.800    2.400 
#    3.600    0.000    0.000    1.200    0.000    0.000 
#    0.000    0.000    0.000    0.000    0.000    0.000 
#
# Total GULP energy -223033.776634 kJ/mol
# GULP energy per Si atom -5575.844416 kJ/mol
# Density = 1.985147 g / cm^3
# Si number density = 19.896759 Si / 1000 Ang^3
#
#
#
# Elastic Constant Matrix: (Units=GPa)
#
#
# Indices 1 2 3 4 5 6 
#
# 1 174.4443 6.6039 39.1045 0.0000 0.0000 0.0000
# 2 6.6039 17.4303 -9.2193 0.0000 0.0000 0.0000
# 3 39.1045 -9.2193 77.5285 0.0000 0.0000 0.0000
# 4 0.0000 0.0000 0.0000 32.2016 0.0000 0.0000
# 5 0.0000 0.0000 0.0000 0.0000 29.2746 0.0000
# 6 0.0000 0.0000 0.0000 0.0000 0.0000 10.5770
#
#
#
# Elastic Compliance Matrix: (Units=1/GPa)
#
#
# Indices 1 2 3 4 5 6 
#
# 1 0.006804 -0.004688 -0.003989 0.000000 0.000000 0.000000
# 2 -0.004688 0.064452 0.010029 0.000000 0.000000 0.000000
# 3 -0.003989 0.010029 0.016103 0.000000 0.000000 0.000000
# 4 0.000000 0.000000 0.000000 0.031054 0.000000 0.000000
# 5 0.000000 0.000000 0.000000 0.000000 0.034159 0.000000
# 6 0.000000 0.000000 0.000000 0.000000 0.000000 0.094545
#
#
# Mechanical properties :
#
#
# Convention : Reuss Voigt Hill
#
# Bulk Modulus (GPa) = 11.10344 38.04237 24.57291
# Shear Modulus (GPa) = 18.21916 29.93824 24.07870
#
# Velocity S-wave (km/s) = 3.02931 3.88323 3.48254
# Velocity P-wave (km/s) = 4.22235 6.26637 5.34301
#
# Compressibility (1/GPa) = 0.09006215
#
# Stress axis : x y z
#
# Youngs Moduli (GPa) = 146.96660 15.51544 62.09908
#
# Poissons Ratio (x) = 0.07274 0.24774
# Poissons Ratio (y) = 0.68899 -0.62278
# Poissons Ratio (z) = 0.58632 -0.15560
#
# Static dielectric constant tensor:
#      x y z
#    x 1.721280 0.000000 0.000000 
#    y 0.000000 1.755630 0.000000 
#    z 0.000000 0.000000 1.572660 
# 
# From -- ./inp_files/34050.got.cif
#   From: 2010.05.17/outbox.cif.g08.bks.cpg/sg64_18_cif.got.tgz:34050.got - 2010.06.03 16:29:19.
