data_PCOD9479780
_publ_section_title
;
Structure prediction by ZEFSAII (Michael W. Deem and Ramdas Pophale) SiO2 
 PCOD9479780
Probable space group: C M C A
;
_chemical_formula_sum "Si O2"
_cell_formula_units_Z 96
_cell_length_a 20.313222
_cell_length_b 11.737301
_cell_length_c 17.104420
_cell_angle_alpha 90.000000
_cell_angle_beta 90.000000
_cell_angle_gamma 90.000000
_cell_volume 4078.076882
_symmetry_space_group_name_H-M "C M C A"
_symmetry_group_IT_number 64
_symmetry_cell_setting 'orthorhombic'
loop_
_space_group_symop_operation_xyz
x,y,z
-x,1/2-y,1/2+z
x,-y,-z
-x,1/2+y,1/2-z
-x,-y,-z
x,1/2+y,1/2-z
-x,y,z
x,1/2-y,1/2+z
1/2+x,1/2+y,z
1/2-x,-y,1/2+z
1/2+x,1/2-y,-z
1/2-x,y,1/2-z
1/2-x,1/2-y,-z
1/2+x,y,1/2-z
1/2-x,1/2+y,z
1/2+x,-y,1/2+z
loop_
_atom_site_type_symbol
_atom_site_label
_atom_site_fract_x
_atom_site_fract_y
_atom_site_fract_z
Si Si1 0.426014 0.588988 0.393904
Si Si2 0.800091 0.428905 0.421171
Si Si3 0.928406 0.430321 0.615239
Si Si4 0.073204 0.244899 0.752753
Si Si5 0.370039 0.753368 0.013516
Si Si6 0.828587 0.607693 0.840940
O O1 0.500000 0.542610 0.392493
O O2 0.423837 0.698813 0.337167
O O3 0.406507 0.639087 0.477298
O O4 0.373934 0.498449 0.363997
O O5 0.777827 0.500000 0.500000
O O6 0.866890 0.487205 0.391476
O O7 0.819640 0.304800 0.453646
O O8 0.746645 0.429566 0.352135
O O9 0.924750 0.350935 0.691925
O O10 0.920028 0.344068 0.542170
O O11 0.000000 0.486559 0.613640
O O12 0.134699 0.164427 0.732707
O O13 0.000000 0.190799 0.741760
O O14 0.334558 0.796997 0.091121
#
# Coordination Sequence:
#
# PCOD9479780 Si02
#       6
#    16  16  16  16  16  16
#     4  11  23  38  60  90 120 155 201 252 304 357
#     4  10  21  37  61  91 121 158 200 248 302 354
#     4   9  19  38  62  87 118 159 205 247 293 355
#     4   9  21  41  61  83 118 161 199 243 300 358
#     4  10  21  36  60  90 122 158 199 248 296 356
#     4  11  22  40  62  86 119 158 198 245 303 363
#
# _framework density 23.540507999999999
#
# number of rings (size 3 to 8) (size 9 to 14) (size 15 to 20)
#    0.000    2.000    0.000    3.000    0.000   10.333 
#    0.000    8.333    0.000    0.000    0.000    0.000 
#    0.000    0.000    0.000    0.000    0.000    0.000 
#
# Total GULP energy -268454.381273 kJ/mol
# GULP energy per Si atom -5592.799610 kJ/mol
# Density = 2.348693 g / cm^3
# Si number density = 23.540508 Si / 1000 Ang^3
#
#
#
# Elastic Constant Matrix: (Units=GPa)
#
#
# Indices 1 2 3 4 5 6 
#
# 1 151.8076 38.9908 -1.6661 0.0000 0.0000 0.0000
# 2 38.9908 62.1755 -9.6106 0.0000 0.0000 0.0000
# 3 -1.6661 -9.6106 29.3946 0.0000 0.0000 0.0000
# 4 0.0000 0.0000 0.0000 27.3697 0.0000 0.0000
# 5 0.0000 0.0000 0.0000 0.0000 23.2073 0.0000
# 6 0.0000 0.0000 0.0000 0.0000 0.0000 17.2956
#
#
#
# Elastic Compliance Matrix: (Units=1/GPa)
#
#
# Indices 1 2 3 4 5 6 
#
# 1 0.007894 -0.005141 -0.001233 0.000000 0.000000 0.000000
# 2 -0.005141 0.020288 0.006342 0.000000 0.000000 0.000000
# 3 -0.001233 0.006342 0.036023 0.000000 0.000000 0.000000
# 4 0.000000 0.000000 0.000000 0.036537 0.000000 0.000000
# 5 0.000000 0.000000 0.000000 0.000000 0.043090 0.000000
# 6 0.000000 0.000000 0.000000 0.000000 0.000000 0.057818
#
#
# Mechanical properties :
#
#
# Convention : Reuss Voigt Hill
#
# Bulk Modulus (GPa) = 15.59100 33.20065 24.39583
# Shear Modulus (GPa) = 22.41187 27.95209 25.18198
#
# Velocity S-wave (km/s) = 3.08889 3.44961 3.27422
# Velocity P-wave (km/s) = 4.39989 5.47729 4.96788
#
# Compressibility (1/GPa) = 0.06413958
#
# Stress axis : x y z
#
# Youngs Moduli (GPa) = 126.67477 49.29056 27.75978
#
# Poissons Ratio (x) = 0.25341 0.03424
# Poissons Ratio (y) = 0.65126 -0.17605
# Poissons Ratio (z) = 0.15625 -0.31259
#
# Static dielectric constant tensor:
#      x y z
#    x 1.909530 0.000000 0.000000 
#    y 0.000000 1.867910 0.000000 
#    z 0.000000 0.000000 1.922760 
# 
# From -- ./inp_files/40870.got.cif
#   From: 2010.05.17/outbox.cif.g08.bks.cpg/sg64_21_cif.got.tgz:40870.got - 2010.06.03 16:29:19.
