data_PCOD9479026
_publ_section_title
;
Structure prediction by ZEFSAII (Michael W. Deem and Ramdas Pophale) SiO2 
 PCOD9479026
Probable space group: C M C A
;
_chemical_formula_sum "Si O2"
_cell_formula_units_Z 96
_cell_length_a 8.690535
_cell_length_b 24.118531
_cell_length_c 26.027610
_cell_angle_alpha 90.000000
_cell_angle_beta 90.000000
_cell_angle_gamma 90.000000
_cell_volume 5455.463520
_symmetry_space_group_name_H-M "C M C A"
_symmetry_group_IT_number 64
_symmetry_cell_setting 'orthorhombic'
loop_
_space_group_symop_operation_xyz
x,y,z
-x,1/2-y,1/2+z
x,-y,-z
-x,1/2+y,1/2-z
-x,-y,-z
x,1/2+y,1/2-z
-x,y,z
x,1/2-y,1/2+z
1/2+x,1/2+y,z
1/2-x,-y,1/2+z
1/2+x,1/2-y,-z
1/2-x,y,1/2-z
1/2-x,1/2-y,-z
1/2+x,y,1/2-z
1/2-x,1/2+y,z
1/2+x,-y,1/2+z
loop_
_atom_site_type_symbol
_atom_site_label
_atom_site_fract_x
_atom_site_fract_y
_atom_site_fract_z
Si Si1 0.684529 0.499059 0.939720
Si Si2 0.185134 0.811534 0.500937
Si Si3 0.186411 0.114850 0.597089
Si Si4 0.685314 0.812335 0.193733
Si Si5 0.184747 0.684594 0.306627
Si Si6 0.315167 0.383825 0.599435
O O1 0.500000 0.497122 0.938202
O O2 0.744039 0.554587 0.912472
O O3 0.752226 0.444761 0.912653
O O4 0.732775 0.500000 0.000000
O O5 0.250000 0.750000 0.500000
O O6 0.232305 0.846210 0.450770
O O7 0.233445 0.844536 0.551880
O O8 0.000000 0.808694 0.500747
O O9 0.235037 0.145126 0.649612
O O10 0.000000 0.110701 0.597068
O O11 0.500000 0.813656 0.196006
O O12 0.750000 0.825388 0.250000
O O13 0.729343 0.748620 0.180747
O O14 0.250000 0.672803 0.250000
O O15 0.251163 0.643073 0.348714
O O16 0.000000 0.681457 0.305995
O O17 0.500000 0.385383 0.601114
#
# Coordination Sequence:
#
# PCOD9479026 Si02
#       6
#    16  16  16  16  16  16
#     4  11  23  38  57  82 111 148 191 237 287 338
#     4  10  21  34  53  81 113 145 182 229 283 341
#     4  10  20  37  57  80 111 149 189 230 281 339
#     4   9  19  35  58  84 114 150 186 228 280 334
#     4  10  20  37  60  86 118 151 188 233 280 335
#     4  11  22  37  58  83 112 150 191 232 283 341
#
# _framework density 17.597038999999999
#
# number of rings (size 3 to 8) (size 9 to 14) (size 15 to 20)
#    0.000    1.833    1.667    2.500    0.000    5.333 
#    0.000    0.833    0.000    2.000    0.000    0.000 
#    0.000    0.000    0.000    0.000    0.000    0.000 
#
# Total GULP energy -268116.136874 kJ/mol
# GULP energy per Si atom -5585.752852 kJ/mol
# Density = 1.755699 g / cm^3
# Si number density = 17.597039 Si / 1000 Ang^3
#
#
#
# Elastic Constant Matrix: (Units=GPa)
#
#
# Indices 1 2 3 4 5 6 
#
# 1 37.1632 48.6842 46.6285 0.0000 0.0000 0.0000
# 2 48.6842 190.1274 119.3509 0.0000 0.0000 0.0000
# 3 46.6285 119.3509 159.5795 0.0000 0.0000 0.0000
# 4 0.0000 0.0000 0.0000 21.2809 0.0000 0.0000
# 5 0.0000 0.0000 0.0000 0.0000 27.6127 0.0000
# 6 0.0000 0.0000 0.0000 0.0000 0.0000 28.7718
#
#
#
# Elastic Compliance Matrix: (Units=1/GPa)
#
#
# Indices 1 2 3 4 5 6 
#
# 1 0.046195 -0.006325 -0.008767 0.000000 0.000000 0.000000
# 2 -0.006325 0.010780 -0.006215 0.000000 0.000000 0.000000
# 3 -0.008767 -0.006215 0.013476 0.000000 0.000000 0.000000
# 4 0.000000 0.000000 0.000000 0.046990 0.000000 0.000000
# 5 0.000000 0.000000 0.000000 0.000000 0.036215 0.000000
# 6 0.000000 0.000000 0.000000 0.000000 0.000000 0.034756
#
#
# Mechanical properties :
#
#
# Convention : Reuss Voigt Hill
#
# Bulk Modulus (GPa) = 35.92308 90.68856 63.30582
# Shear Modulus (GPa) = 20.80681 27.01352 23.91016
#
# Velocity S-wave (km/s) = 3.44234 3.92231 3.69014
# Velocity P-wave (km/s) = 6.02148 8.49475 7.36271
#
# Compressibility (1/GPa) = 0.02783726
#
# Stress axis : x y z
#
# Youngs Moduli (GPa) = 21.64758 92.76125 74.20482
#
# Poissons Ratio (x) = 0.58671 0.65058
# Poissons Ratio (y) = 0.13692 0.46115
# Poissons Ratio (z) = 0.18979 0.57647
#
# Static dielectric constant tensor:
#      x y z
#    x 1.596010 0.000000 0.000000 
#    y 0.000000 1.568120 0.000000 
#    z 0.000000 0.000000 1.580430 
# 
# From -- ./inp_files/42972.got.cif
#   From: 2010.05.17/outbox.cif.g08.bks.cpg/sg64_22_cif.got.tgz:42972.got - 2010.06.03 16:29:19.
