data_PCOD9479282
_publ_section_title
;
Structure prediction by ZEFSAII (Michael W. Deem and Ramdas Pophale) SiO2 
 PCOD9479282
Probable space group: C M C A
;
_chemical_formula_sum "Si O2"
_cell_formula_units_Z 56
_cell_length_a 16.766484
_cell_length_b 14.481194
_cell_length_c 9.200237
_cell_angle_alpha 90.000000
_cell_angle_beta 90.000000
_cell_angle_gamma 90.000000
_cell_volume 2233.805652
_symmetry_space_group_name_H-M "C M C A"
_symmetry_group_IT_number 64
_symmetry_cell_setting 'orthorhombic'
loop_
_space_group_symop_operation_xyz
x,y,z
-x,1/2-y,1/2+z
x,-y,-z
-x,1/2+y,1/2-z
-x,-y,-z
x,1/2+y,1/2-z
-x,y,z
x,1/2-y,1/2+z
1/2+x,1/2+y,z
1/2-x,-y,1/2+z
1/2+x,1/2-y,-z
1/2-x,y,1/2-z
1/2-x,1/2-y,-z
1/2+x,y,1/2-z
1/2-x,1/2+y,z
1/2+x,-y,1/2+z
loop_
_atom_site_type_symbol
_atom_site_label
_atom_site_fract_x
_atom_site_fract_y
_atom_site_fract_z
Si Si1 0.412290 0.956413 0.837039
Si Si2 0.750000 0.034083 0.750000
Si Si3 0.188752 0.292422 0.143795
Si Si4 0.412870 0.762826 0.392940
O O1 0.500000 0.984244 0.777314
O O2 0.414677 0.845956 0.856224
O O3 0.332979 0.980136 0.745262
O O4 0.406931 0.000000 0.000000
O O5 0.768302 0.108990 0.620528
O O6 0.250000 0.239908 0.250000
O O7 0.112711 0.314106 0.246442
O O8 0.155495 0.233644 0.013819
O O9 0.500000 0.791434 0.445709
#
# Coordination Sequence:
#
# PCOD9479282 Si02
#       4
#    16   8  16  16
#     4  10  20  38  63  89 117 161 210 250 308 372
#     4  10  22  36  64  88 122 160 202 262 304 362
#     4  10  22  38  58  91 121 158 205 248 313 362
#     4  11  22  39  64  90 123 162 205 258 307 373
#
# _framework density 25.069324999999999
#
# number of rings (size 3 to 8) (size 9 to 14) (size 15 to 20)
#    0.857    0.857    2.857    1.714    2.000    1.143 
#    0.000    0.000    0.000    0.857    0.000    0.000 
#    0.000    0.000    0.000    0.000    0.000    0.000 
#
# Total GULP energy -156132.371627 kJ/mol
# GULP energy per Si atom -5576.156130 kJ/mol
# Density = 2.501227 g / cm^3
# Si number density = 25.069325 Si / 1000 Ang^3
#
#
#
# Elastic Constant Matrix: (Units=GPa)
#
#
# Indices 1 2 3 4 5 6 
#
# 1 214.8173 46.1433 43.6021 0.0000 0.0000 0.0000
# 2 46.1433 56.0152 -1.1403 0.0000 0.0000 0.0000
# 3 43.6021 -1.1403 54.1280 0.0000 0.0000 0.0000
# 4 0.0000 0.0000 0.0000 1.8515 0.0000 0.0000
# 5 0.0000 0.0000 0.0000 0.0000 1.4229 0.0000
# 6 0.0000 0.0000 0.0000 0.0000 0.0000 23.3639
#
#
#
# Elastic Compliance Matrix: (Units=1/GPa)
#
#
# Indices 1 2 3 4 5 6 
#
# 1 0.007136 -0.005998 -0.005875 0.000000 0.000000 0.000000
# 2 -0.005998 0.022901 0.005314 0.000000 0.000000 0.000000
# 3 -0.005875 0.005314 0.023319 0.000000 0.000000 0.000000
# 4 0.000000 0.000000 0.000000 0.540110 0.000000 0.000000
# 5 0.000000 0.000000 0.000000 0.000000 0.702775 0.000000
# 6 0.000000 0.000000 0.000000 0.000000 0.000000 0.042801
#
#
# Mechanical properties :
#
#
# Convention : Reuss Voigt Hill
#
# Bulk Modulus (GPa) = 24.85149 55.79674 40.32412
# Shear Modulus (GPa) = 3.66147 21.08470 12.37308
#
# Velocity S-wave (km/s) = 1.20984 2.90324 2.22402
# Velocity P-wave (km/s) = 3.44764 5.79169 4.76602
#
# Compressibility (1/GPa) = 0.04023903
#
# Stress axis : x y z
#
# Youngs Moduli (GPa) = 140.13777 43.66569 42.88386
#
# Poissons Ratio (x) = 0.26190 0.25192
# Poissons Ratio (y) = 0.84052 -0.22788
# Poissons Ratio (z) = 0.82324 -0.23204
#
# Static dielectric constant tensor:
#      x y z
#    x 2.099720 0.000000 0.000000 
#    y 0.000000 1.981350 0.000000 
#    z 0.000000 0.000000 2.086350 
# 
# From -- ./inp_files/6433.got.cif
#   From: 2010.05.17/outbox.cif.g08.bks.cpg/sg64_4_cif.got.tgz:6433.got - 2010.06.03 16:29:19.
