data_PCOD9479862
_publ_section_title
;
Structure prediction by ZEFSAII (Michael W. Deem and Ramdas Pophale) SiO2 
 PCOD9479862
Probable space group: C M C A
;
_chemical_formula_sum "Si O2"
_cell_formula_units_Z 64
_cell_length_a 24.483133
_cell_length_b 13.849276
_cell_length_c 8.074307
_cell_angle_alpha 90.000000
_cell_angle_beta 90.000000
_cell_angle_gamma 90.000000
_cell_volume 2737.784877
_symmetry_space_group_name_H-M "C M C A"
_symmetry_group_IT_number 64
_symmetry_cell_setting 'orthorhombic'
loop_
_space_group_symop_operation_xyz
x,y,z
-x,1/2-y,1/2+z
x,-y,-z
-x,1/2+y,1/2-z
-x,-y,-z
x,1/2+y,1/2-z
-x,y,z
x,1/2-y,1/2+z
1/2+x,1/2+y,z
1/2-x,-y,1/2+z
1/2+x,1/2-y,-z
1/2-x,y,1/2-z
1/2-x,1/2-y,-z
1/2+x,y,1/2-z
1/2-x,1/2+y,z
1/2+x,-y,1/2+z
loop_
_atom_site_type_symbol
_atom_site_label
_atom_site_fract_x
_atom_site_fract_y
_atom_site_fract_z
Si Si1 0.374985 0.197974 0.405656
Si Si2 0.212610 0.410658 0.398460
Si Si3 0.560982 0.354469 0.227316
Si Si4 0.378823 0.478283 0.687952
O O1 0.316296 0.171905 0.489630
O O2 0.419197 0.163667 0.540734
O O3 0.394214 0.302124 0.344698
O O4 0.378750 0.132150 0.241607
O O5 0.240270 0.500000 0.500000
O O6 0.250000 0.371846 0.250000
O O7 0.164026 0.469563 0.309313
O O8 0.500000 0.317306 0.254887
O O9 0.565113 0.467307 0.269213
O O10 0.365670 0.500000 0.500000
#
# Coordination Sequence:
#
# PCOD9479862 Si02
#       4
#    16  16  16  16
#     4  10  22  38  57  87 120 155 205 258 302 362
#     4   9  18  35  60  88 118 157 201 248 309 368
#     4  11  22  37  58  82 117 162 203 251 309 362
#     4  10  21  37  58  85 117 153 200 255 305 365
#
# _framework density 23.376563000000001
#
# number of rings (size 3 to 8) (size 9 to 14) (size 15 to 20)
#    0.000    2.000    0.000    5.250    0.000    3.500 
#    0.000    5.000    0.000   15.000    0.000   21.000 
#    0.000    0.000    0.000    0.000    0.000    0.000 
#
# Total GULP energy -178620.630162 kJ/mol
# GULP energy per Si atom -5581.894693 kJ/mol
# Density = 2.332336 g / cm^3
# Si number density = 23.376563 Si / 1000 Ang^3
#
#
#
# Elastic Constant Matrix: (Units=GPa)
#
#
# Indices 1 2 3 4 5 6 
#
# 1 82.3816 26.5111 26.1812 0.0000 0.0000 0.0000
# 2 26.5111 45.4153 10.0725 0.0000 0.0000 0.0000
# 3 26.1812 10.0725 125.9063 0.0000 0.0000 0.0000
# 4 0.0000 0.0000 0.0000 38.0769 0.0000 0.0000
# 5 0.0000 0.0000 0.0000 0.0000 19.7789 0.0000
# 6 0.0000 0.0000 0.0000 0.0000 0.0000 9.9306
#
#
#
# Elastic Compliance Matrix: (Units=1/GPa)
#
#
# Indices 1 2 3 4 5 6 
#
# 1 0.015730 -0.008610 -0.002582 0.000000 0.000000 0.000000
# 2 -0.008610 0.027129 -0.000380 0.000000 0.000000 0.000000
# 3 -0.002582 -0.000380 0.008510 0.000000 0.000000 0.000000
# 4 0.000000 0.000000 0.000000 0.026263 0.000000 0.000000
# 5 0.000000 0.000000 0.000000 0.000000 0.050559 0.000000
# 6 0.000000 0.000000 0.000000 0.000000 0.000000 0.100699
#
#
# Mechanical properties :
#
#
# Convention : Reuss Voigt Hill
#
# Bulk Modulus (GPa) = 35.42931 42.13699 38.78315
# Shear Modulus (GPa) = 19.12477 26.28651 22.70564
#
# Velocity S-wave (km/s) = 2.86338 3.35697 3.11995
# Velocity P-wave (km/s) = 5.11084 5.75240 5.44108
#
# Compressibility (1/GPa) = 0.02822521
#
# Stress axis : x y z
#
# Youngs Moduli (GPa) = 63.57322 36.86077 117.51221
#
# Poissons Ratio (x) = 0.31736 0.30343
# Poissons Ratio (y) = 0.54734 0.04466
# Poissons Ratio (z) = 0.16416 0.01401
#
# Static dielectric constant tensor:
#      x y z
#    x 1.891720 0.000000 0.000000 
#    y 0.000000 1.905060 0.000000 
#    z 0.000000 0.000000 1.906450 
# 
# From -- ./inp_files/8962.got.cif
#   From: 2010.05.17/outbox.cif.g08.bks.cpg/sg64_5_cif.got.tgz:8962.got - 2010.06.03 16:29:19.
