data_PCOD9479396
_publ_section_title
;
Structure prediction by ZEFSAII (Michael W. Deem and Ramdas Pophale) SiO2 
 PCOD9479396
Probable space group: C M C A
;
_chemical_formula_sum "Si O2"
_cell_formula_units_Z 120
_cell_length_a 24.506531
_cell_length_b 12.958241
_cell_length_c 18.208112
_cell_angle_alpha 90.000000
_cell_angle_beta 90.000000
_cell_angle_gamma 90.000000
_cell_volume 5782.195992
_symmetry_space_group_name_H-M "C M C A"
_symmetry_group_IT_number 64
_symmetry_cell_setting 'orthorhombic'
loop_
_space_group_symop_operation_xyz
x,y,z
-x,1/2-y,1/2+z
x,-y,-z
-x,1/2+y,1/2-z
-x,-y,-z
x,1/2+y,1/2-z
-x,y,z
x,1/2-y,1/2+z
1/2+x,1/2+y,z
1/2-x,-y,1/2+z
1/2+x,1/2-y,-z
1/2-x,y,1/2-z
1/2-x,1/2-y,-z
1/2+x,y,1/2-z
1/2-x,1/2+y,z
1/2+x,-y,1/2+z
loop_
_atom_site_type_symbol
_atom_site_label
_atom_site_fract_x
_atom_site_fract_y
_atom_site_fract_z
Si Si1 0.437555 0.259021 0.896430
Si Si2 0.346225 0.000000 0.000000
Si Si3 0.170796 0.645226 0.872609
Si Si4 0.763539 0.340212 0.667285
Si Si5 0.640767 0.356135 0.626390
Si Si6 0.841119 0.503824 0.257886
Si Si7 0.061311 0.195106 0.931769
Si Si8 0.062032 0.504455 0.354008
O O1 0.500000 0.232739 0.876689
O O2 0.393207 0.175641 0.871889
O O3 0.425934 0.375243 0.867894
O O4 0.433803 0.270352 0.984344
O O5 0.377781 0.067833 0.060654
O O6 0.315912 0.919643 0.053957
O O7 0.201001 0.753755 0.871309
O O8 0.183136 0.576907 0.800522
O O9 0.750000 0.301770 0.750000
O O10 0.706843 0.351107 0.623977
O O11 0.797717 0.444151 0.686307
O O12 0.633559 0.405997 0.706194
O O13 0.608125 0.251971 0.614103
O O14 0.892140 0.459954 0.300895
O O15 0.000000 0.224029 0.905760
O O16 0.064759 0.071540 0.923826
O O17 0.000000 0.498034 0.325875
#
# Coordination Sequence:
#
# PCOD9479396 Si02
#       8
#    16   8  16  16  16  16  16  16
#     4  10  20  39  64  91 127 165 203 254 317 372
#     4  10  22  42  61  88 122 152 203 266 314 362
#     4  11  22  41  65  88 126 163 209 259 314 373
#     4  10  23  42  62  89 122 167 210 253 314 370
#     4  10  22  42  62  89 123 160 211 258 310 375
#     4  10  23  39  60  90 127 161 206 258 310 369
#     4  10  21  39  64  93 126 164 205 257 316 373
#     4  10  21  37  62  94 126 161 207 258 308 372
#
# _framework density 20.753361000000002
#
# number of rings (size 3 to 8) (size 9 to 14) (size 15 to 20)
#    0.000    1.867    2.667    0.400    3.733    5.867 
#    0.000    5.333    0.000    0.000    0.000    0.000 
#    0.000    0.000    0.000    0.000    0.000    0.000 
#
# Total GULP energy -334446.586070 kJ/mol
# GULP energy per Si atom -5574.109768 kJ/mol
# Density = 2.070613 g / cm^3
# Si number density = 20.753361 Si / 1000 Ang^3
#
#
#
# Elastic Constant Matrix: (Units=GPa)
#
#
# Indices 1 2 3 4 5 6 
#
# 1 90.5978 44.6500 34.3069 0.0000 0.0000 0.0000
# 2 44.6500 85.2384 28.7602 0.0000 0.0000 0.0000
# 3 34.3069 28.7602 36.7874 0.0000 0.0000 0.0000
# 4 0.0000 0.0000 0.0000 29.4602 0.0000 0.0000
# 5 0.0000 0.0000 0.0000 0.0000 7.6290 0.0000
# 6 0.0000 0.0000 0.0000 0.0000 0.0000 22.4771
#
#
#
# Elastic Compliance Matrix: (Units=1/GPa)
#
#
# Indices 1 2 3 4 5 6 
#
# 1 0.018678 -0.005307 -0.013270 0.000000 0.000000 0.000000
# 2 -0.005307 0.017443 -0.008688 0.000000 0.000000 0.000000
# 3 -0.013270 -0.008688 0.046351 0.000000 0.000000 0.000000
# 4 0.000000 0.000000 0.000000 0.033944 0.000000 0.000000
# 5 0.000000 0.000000 0.000000 0.000000 0.131079 0.000000
# 6 0.000000 0.000000 0.000000 0.000000 0.000000 0.044490
#
#
# Mechanical properties :
#
#
# Convention : Reuss Voigt Hill
#
# Bulk Modulus (GPa) = 35.78778 47.56197 41.67488
# Shear Modulus (GPa) = 14.05174 18.90702 16.47938
#
# Velocity S-wave (km/s) = 2.60490 3.02161 2.82096
# Velocity P-wave (km/s) = 5.13119 5.92798 5.54392
#
# Compressibility (1/GPa) = 0.02794250
#
# Stress axis : x y z
#
# Youngs Moduli (GPa) = 53.53879 57.32974 21.57474
#
# Poissons Ratio (x) = 0.30423 0.28629
# Poissons Ratio (y) = 0.28411 0.18744
# Poissons Ratio (z) = 0.71045 0.49808
#
# Static dielectric constant tensor:
#      x y z
#    x 1.762920 0.000000 0.000000 
#    y 0.000000 1.774340 0.000000 
#    z 0.000000 0.000000 1.728800 
# 
# From -- ./inp_files/41588.got.cif
#   From: 2010.05.17/outbox.cif.g08.bks.cpg/sg64_21_cif.got.tgz:41588.got - 2010.06.03 16:29:19.
