data_PCOD9479944
_publ_section_title
;
Structure prediction by ZEFSAII (Michael W. Deem and Ramdas Pophale) SiO2 
 PCOD9479944
Probable space group: C M C A
;
_chemical_formula_sum "Si O2"
_cell_formula_units_Z 116
_cell_length_a 7.651301
_cell_length_b 24.772933
_cell_length_c 30.286122
_cell_angle_alpha 90.000000
_cell_angle_beta 90.000000
_cell_angle_gamma 90.000000
_cell_volume 5740.588053
_symmetry_space_group_name_H-M "C M C A"
_symmetry_group_IT_number 64
_symmetry_cell_setting 'orthorhombic'
loop_
_space_group_symop_operation_xyz
x,y,z
-x,1/2-y,1/2+z
x,-y,-z
-x,1/2+y,1/2-z
-x,-y,-z
x,1/2+y,1/2-z
-x,y,z
x,1/2-y,1/2+z
1/2+x,1/2+y,z
1/2-x,-y,1/2+z
1/2+x,1/2-y,-z
1/2-x,y,1/2-z
1/2-x,1/2-y,-z
1/2+x,y,1/2-z
1/2-x,1/2+y,z
1/2+x,-y,1/2+z
loop_
_atom_site_type_symbol
_atom_site_label
_atom_site_fract_x
_atom_site_fract_y
_atom_site_fract_z
Si Si1 0.500000 0.500000 0.500000
Si Si2 0.291825 0.314153 0.801738
Si Si3 0.708337 0.887278 0.376644
Si Si4 0.706194 0.694791 0.698575
Si Si5 0.294691 0.997896 0.420258
Si Si6 0.705364 0.891962 0.877590
Si Si7 0.711736 0.186989 0.544656
Si Si8 0.706428 0.691156 0.448314
O O1 0.656989 0.501964 0.460754
O O2 0.500000 0.314399 0.807213
O O3 0.250000 0.319231 0.750000
O O4 0.221819 0.254202 0.815856
O O5 0.222339 0.364096 0.830039
O O6 0.500000 0.887437 0.380161
O O7 0.744916 0.856185 0.331242
O O8 0.777941 0.849487 0.415945
O O9 0.761806 0.947791 0.388728
O O10 0.500000 0.699876 0.695212
O O11 0.750000 0.687136 0.750000
O O12 0.500000 0.989715 0.434547
O O13 0.289527 0.051497 0.390120
O O14 0.500000 0.898997 0.886917
O O15 0.780562 0.846984 0.911063
O O16 0.500000 0.187845 0.544875
O O17 0.778476 0.248197 0.550208
O O18 0.768212 0.166467 0.496761
O O19 0.500000 0.696519 0.439959
#
# Coordination Sequence:
#
# PCOD9479944 Si02
#       8
#     4  16  16  16  16  16  16  16
#     4  12  26  48  68  90 128 172 226 272 328 368
#     4  10  21  38  62  95 127 164 208 260 321 388
#     4  10  22  39  60  85 120 160 207 263 315 374
#     4  10  21  37  63  94 127 163 206 257 320 387
#     4  11  26  44  66  96 127 170 224 271 321 382
#     4  11  22  39  61  87 122 166 210 264 319 379
#     4   9  18  33  51  77 110 149 191 240 300 365
#     4   9  19  32  51  78 111 149 193 240 299 368
#
# _framework density 20.206987999999999
#
# number of rings (size 3 to 8) (size 9 to 14) (size 15 to 20)
#    0.000    1.931    0.690    2.276    2.897    4.414 
#    0.000    3.448    0.000    3.310    0.000    0.000 
#    0.000    0.000    0.000    0.000    0.000    0.000 
#
# Total GULP energy -323038.150649 kJ/mol
# GULP energy per Si atom -5569.623287 kJ/mol
# Density = 2.016100 g / cm^3
# Si number density = 20.206988 Si / 1000 Ang^3
#
#
#
# Elastic Constant Matrix: (Units=GPa)
#
#
# Indices 1 2 3 4 5 6 
#
# 1 77.5941 16.7396 2.9290 0.0000 0.0000 0.0000
# 2 16.7396 112.3144 72.2465 0.0000 0.0000 0.0000
# 3 2.9290 72.2465 92.7524 0.0000 0.0000 0.0000
# 4 0.0000 0.0000 0.0000 35.1041 0.0000 0.0000
# 5 0.0000 0.0000 0.0000 0.0000 31.0362 0.0000
# 6 0.0000 0.0000 0.0000 0.0000 0.0000 -0.9527
#
#
#
# Elastic Compliance Matrix: (Units=1/GPa)
#
#
# Indices 1 2 3 4 5 6 
#
# 1 0.013555 -0.003497 0.002296 0.000000 0.000000 0.000000
# 2 -0.003497 0.018747 -0.014492 0.000000 0.000000 0.000000
# 3 0.002296 -0.014492 0.021997 0.000000 0.000000 0.000000
# 4 0.000000 0.000000 0.000000 0.028487 0.000000 0.000000
# 5 0.000000 0.000000 0.000000 0.000000 0.032220 0.000000
# 6 0.000000 0.000000 0.000000 0.000000 0.000000 -1.049638
#
#
# Mechanical properties :
#
#
# Convention : Reuss Voigt Hill
#
# Bulk Modulus (GPa) = 43.64348 51.83234 47.73791
# Shear Modulus (GPa) = -5.58279 25.75392 10.08556
#
# Velocity S-wave (km/s) = -1.66397 3.57390 2.23651
# Velocity P-wave (km/s) = 4.23714 6.53733 5.50863
#
# Compressibility (1/GPa) = 0.02291293
#
# Stress axis : x y z
#
# Youngs Moduli (GPa) = 73.77147 53.34317 45.46152
#
# Poissons Ratio (x) = 0.18655 -0.10438
# Poissons Ratio (y) = 0.25799 0.65881
# Poissons Ratio (z) = -0.16938 0.77303
#
# Static dielectric constant tensor:
#      x y z
#    x 1.753180 0.000000 0.000000 
#    y 0.000000 1.766510 0.000000 
#    z 0.000000 0.000000 1.700760 
# 
# From -- ./inp_files/48582.got.cif
#   From: 2010.05.17/outbox.cif.g08.bks.cpg/sg64_25_cif.got.tgz:48582.got - 2010.06.03 16:29:19.
