data_PCOD9479715
_publ_section_title
;
Structure prediction by ZEFSAII (Michael W. Deem and Ramdas Pophale) SiO2 
 PCOD9479715
Probable space group: C M C A
;
_chemical_formula_sum "Si O2"
_cell_formula_units_Z 64
_cell_length_a 18.374582
_cell_length_b 36.878715
_cell_length_c 5.013113
_cell_angle_alpha 90.000000
_cell_angle_beta 90.000000
_cell_angle_gamma 90.000000
_cell_volume 3397.040639
_symmetry_space_group_name_H-M "C M C A"
_symmetry_group_IT_number 64
_symmetry_cell_setting 'orthorhombic'
loop_
_space_group_symop_operation_xyz
x,y,z
-x,1/2-y,1/2+z
x,-y,-z
-x,1/2+y,1/2-z
-x,-y,-z
x,1/2+y,1/2-z
-x,y,z
x,1/2-y,1/2+z
1/2+x,1/2+y,z
1/2-x,-y,1/2+z
1/2+x,1/2-y,-z
1/2-x,y,1/2-z
1/2-x,1/2-y,-z
1/2+x,y,1/2-z
1/2-x,1/2+y,z
1/2+x,-y,1/2+z
loop_
_atom_site_type_symbol
_atom_site_label
_atom_site_fract_x
_atom_site_fract_y
_atom_site_fract_z
Si Si1 0.801639 0.580459 0.002021
Si Si2 0.081484 0.974282 0.247725
Si Si3 0.914071 0.274410 0.971770
Si Si4 0.698812 0.337461 0.508442
O O1 0.750000 0.584342 0.750000
O O2 0.865646 0.556045 0.874511
O O3 0.750000 0.566868 0.250000
O O4 0.826603 0.621293 0.073556
O O5 0.000000 0.039319 0.830257
O O6 0.073334 0.000000 0.500000
O O7 0.108035 0.000000 0.000000
O O8 0.898064 0.243014 0.185540
O O9 0.000000 0.282629 0.989631
O O10 0.867050 0.309885 0.024190
O O11 0.750000 0.325233 0.750000
O O12 0.750000 0.337621 0.250000
#
# Coordination Sequence:
#
# PCOD9479715 Si02
#       4
#    16  16  16  16
#     4  10  21  37  56  81 112 144 183 229 276 331
#     4  10  21  37  57  82 111 143 182 227 275 331
#     4  10  21  36  54  79 110 143 183 229 275 328
#     4  10  21  36  55  80 109 143 184 228 274 328
#
# _framework density 18.839929000000001
#
# number of rings (size 3 to 8) (size 9 to 14) (size 15 to 20)
#    0.000    2.000    0.000    3.000    0.000    6.000 
#    0.000    0.000    0.000   18.000    0.000    0.000 
#    0.000    0.000    0.000    0.000    0.000    0.000 
#
# Total GULP energy -178173.399018 kJ/mol
# GULP energy per Si atom -5567.918719 kJ/mol
# Density = 1.879705 g / cm^3
# Si number density = 18.839929 Si / 1000 Ang^3
#
#
#
# Elastic Constant Matrix: (Units=GPa)
#
#
# Indices 1 2 3 4 5 6 
#
# 1 85.6701 75.4670 12.4837 0.0000 0.0000 0.0000
# 2 75.4670 91.2142 0.0046 0.0000 0.0000 0.0000
# 3 12.4837 0.0046 101.5271 0.0000 0.0000 0.0000
# 4 0.0000 0.0000 0.0000 25.1528 0.0000 0.0000
# 5 0.0000 0.0000 0.0000 0.0000 26.1175 0.0000
# 6 0.0000 0.0000 0.0000 0.0000 0.0000 59.8201
#
#
#
# Elastic Compliance Matrix: (Units=1/GPa)
#
#
# Indices 1 2 3 4 5 6 
#
# 1 0.046088 -0.038131 -0.005665 0.000000 0.000000 0.000000
# 2 -0.038131 0.042511 0.004687 0.000000 0.000000 0.000000
# 3 -0.005665 0.004687 0.010546 0.000000 0.000000 0.000000
# 4 0.000000 0.000000 0.000000 0.039757 0.000000 0.000000
# 5 0.000000 0.000000 0.000000 0.000000 0.038289 0.000000
# 6 0.000000 0.000000 0.000000 0.000000 0.000000 0.016717
#
#
# Mechanical properties :
#
#
# Convention : Reuss Voigt Hill
#
# Bulk Modulus (GPa) = 47.78800 50.48023 49.13411
# Shear Modulus (GPa) = 17.91464 34.91517 26.41490
#
# Velocity S-wave (km/s) = 3.08699 4.30961 3.74849
# Velocity P-wave (km/s) = 6.17465 7.18444 6.69860
#
# Compressibility (1/GPa) = 0.02092575
#
# Stress axis : x y z
#
# Youngs Moduli (GPa) = 21.69770 23.52334 94.82292
#
# Poissons Ratio (x) = 0.89697 0.53719
# Poissons Ratio (y) = 0.82735 -0.44440
# Poissons Ratio (z) = 0.12292 -0.11025
#
# Static dielectric constant tensor:
#      x y z
#    x 1.695730 0.000000 0.000000 
#    y 0.000000 1.702000 0.000000 
#    z 0.000000 0.000000 1.661720 
# 
# From -- ./inp_files/1328.got.cif
#   From: 2010.05.17/outbox.cif.g08.bks.cpg/sg64_1_cif.got.tgz:1328.got - 2010.06.03 16:29:19.
