data_PCOD9479700
_publ_section_title
;
Structure prediction by ZEFSAII (Michael W. Deem and Ramdas Pophale) SiO2 
 PCOD9479700
Probable space group: C M C A
;
_chemical_formula_sum "Si O2"
_cell_formula_units_Z 80
_cell_length_a 14.057789
_cell_length_b 28.637793
_cell_length_c 10.793282
_cell_angle_alpha 90.000000
_cell_angle_beta 90.000000
_cell_angle_gamma 90.000000
_cell_volume 4345.203196
_symmetry_space_group_name_H-M "C M C A"
_symmetry_group_IT_number 64
_symmetry_cell_setting 'orthorhombic'
loop_
_space_group_symop_operation_xyz
x,y,z
-x,1/2-y,1/2+z
x,-y,-z
-x,1/2+y,1/2-z
-x,-y,-z
x,1/2+y,1/2-z
-x,y,z
x,1/2-y,1/2+z
1/2+x,1/2+y,z
1/2-x,-y,1/2+z
1/2+x,1/2-y,-z
1/2-x,y,1/2-z
1/2-x,1/2-y,-z
1/2+x,y,1/2-z
1/2-x,1/2+y,z
1/2+x,-y,1/2+z
loop_
_atom_site_type_symbol
_atom_site_label
_atom_site_fract_x
_atom_site_fract_y
_atom_site_fract_z
Si Si1 0.391890 0.429454 0.681248
Si Si2 0.811243 0.761022 0.123551
Si Si3 0.196354 0.949853 0.944988
Si Si4 0.895639 0.332773 0.939381
Si Si5 0.280489 0.637959 0.888847
O O1 0.500000 0.444286 0.652020
O O2 0.308457 0.449207 0.593630
O O3 0.362910 0.441594 0.820344
O O4 0.387442 0.373453 0.662732
O O5 0.750000 0.758147 0.250000
O O6 0.883702 0.718063 0.120704
O O7 0.844278 0.814895 0.114860
O O8 0.750000 0.750000 0.000000
O O9 0.180625 0.906758 0.038626
O O10 0.172651 0.000000 0.000000
O O11 0.000000 0.336406 0.997580
O O12 0.814008 0.344701 0.038073
O O13 0.250000 0.625225 0.750000
#
# Coordination Sequence:
#
# PCOD9479700 Si02
#       5
#    16  16  16  16  16
#     4   9  20  37  56  83 111 139 182 236 276 324
#     4   9  18  31  53  77 106 148 177 214 275 327
#     4  10  21  35  61  82 105 147 193 225 278 338
#     4   9  18  34  57  81 108 142 184 223 266 330
#     4   9  19  35  54  78 115 143 177 224 281 326
#
# _framework density 18.411107000000001
#
# number of rings (size 3 to 8) (size 9 to 14) (size 15 to 20)
#    0.000    2.800    0.000    0.000   11.200    0.800 
#    0.000   11.000    0.000    0.000    0.000    0.000 
#    0.000    0.000    0.000    0.000    0.000    0.000 
#
# Total GULP energy -222699.370051 kJ/mol
# GULP energy per Si atom -5567.484251 kJ/mol
# Density = 1.836920 g / cm^3
# Si number density = 18.411107 Si / 1000 Ang^3
#
#
#
# Elastic Constant Matrix: (Units=GPa)
#
#
# Indices 1 2 3 4 5 6 
#
# 1 43.3692 7.8354 -4.7197 0.0000 0.0000 0.0000
# 2 7.8354 103.4685 39.3635 0.0000 0.0000 0.0000
# 3 -4.7197 39.3635 87.7368 0.0000 0.0000 0.0000
# 4 0.0000 0.0000 0.0000 3.9035 0.0000 0.0000
# 5 0.0000 0.0000 0.0000 0.0000 5.6067 0.0000
# 6 0.0000 0.0000 0.0000 0.0000 0.0000 10.9588
#
#
#
# Elastic Compliance Matrix: (Units=1/GPa)
#
#
# Indices 1 2 3 4 5 6 
#
# 1 0.023832 -0.002764 0.002522 0.000000 0.000000 0.000000
# 2 -0.002764 0.011975 -0.005521 0.000000 0.000000 0.000000
# 3 0.002522 -0.005521 0.014010 0.000000 0.000000 0.000000
# 4 0.000000 0.000000 0.000000 0.256181 0.000000 0.000000
# 5 0.000000 0.000000 0.000000 0.000000 0.178357 0.000000
# 6 0.000000 0.000000 0.000000 0.000000 0.000000 0.091251
#
#
# Mechanical properties :
#
#
# Convention : Reuss Voigt Hill
#
# Bulk Modulus (GPa) = 26.11621 35.50364 30.80992
# Shear Modulus (GPa) = 8.33479 16.90015 12.61747
#
# Velocity S-wave (km/s) = 2.12999 3.03303 2.62070
# Velocity P-wave (km/s) = 4.50166 5.62062 5.09197
#
# Compressibility (1/GPa) = 0.03829040
#
# Stress axis : x y z
#
# Youngs Moduli (GPa) = 41.96084 83.51031 71.37508
#
# Poissons Ratio (x) = 0.23084 -0.18002
# Poissons Ratio (y) = 0.11599 0.39407
# Poissons Ratio (z) = -0.10583 0.46107
#
# Static dielectric constant tensor:
#      x y z
#    x 1.619710 0.000000 0.000000 
#    y 0.000000 1.658350 0.000000 
#    z 0.000000 0.000000 1.576190 
# 
# From -- ./inp_files/14714.got.cif
#   From: 2010.05.17/outbox.cif.g08.bks.cpg/sg64_8_cif.got.tgz:14714.got - 2010.06.03 16:29:19.
