data_PCOD9479049
_publ_section_title
;
Structure prediction by ZEFSAII (Michael W. Deem and Ramdas Pophale) SiO2 
 PCOD9479049
Probable space group: C M C A
;
_chemical_formula_sum "Si O2"
_cell_formula_units_Z 116
_cell_length_a 7.632122
_cell_length_b 30.228167
_cell_length_c 24.759532
_cell_angle_alpha 90.000000
_cell_angle_beta 90.000000
_cell_angle_gamma 90.000000
_cell_volume 5712.149276
_symmetry_space_group_name_H-M "C M C A"
_symmetry_group_IT_number 64
_symmetry_cell_setting 'orthorhombic'
loop_
_space_group_symop_operation_xyz
x,y,z
-x,1/2-y,1/2+z
x,-y,-z
-x,1/2+y,1/2-z
-x,-y,-z
x,1/2+y,1/2-z
-x,y,z
x,1/2-y,1/2+z
1/2+x,1/2+y,z
1/2-x,-y,1/2+z
1/2+x,1/2-y,-z
1/2-x,y,1/2-z
1/2-x,1/2-y,-z
1/2+x,y,1/2-z
1/2-x,1/2+y,z
1/2+x,-y,1/2+z
loop_
_atom_site_type_symbol
_atom_site_label
_atom_site_fract_x
_atom_site_fract_y
_atom_site_fract_z
Si Si1 0.209271 0.515226 0.312908
Si Si2 0.201341 0.201323 0.372016
Si Si3 0.209770 0.198945 0.490554
Si Si4 0.785514 0.144064 0.594274
Si Si5 0.298444 0.708789 0.687031
Si Si6 0.500000 0.000000 0.000000
Si Si7 0.207969 0.958927 0.083465
Si Si8 0.708733 0.886784 0.687114
O O1 0.250000 0.505386 0.250000
O O2 0.261348 0.480993 0.358979
O O3 0.275783 0.564412 0.328563
O O4 0.000000 0.517967 0.314595
O O5 0.281013 0.190865 0.430587
O O6 0.280085 0.242560 0.339600
O O7 0.209180 0.155549 0.340519
O O8 0.000000 0.214721 0.380050
O O9 0.250000 0.250000 0.500000
O O10 0.274635 0.169798 0.540234
O O11 0.000000 0.191946 0.489580
O O12 0.719384 0.172150 0.646247
O O13 0.724480 0.093780 0.590784
O O14 0.000000 0.143906 0.594340
O O15 0.500000 0.697322 0.687360
O O16 0.250000 0.709521 0.750000
O O17 0.343378 0.023229 0.961562
O O18 0.000000 0.969485 0.072734
O O19 0.500000 0.884619 0.678228
O O20 0.750000 0.883423 0.750000
#
# Coordination Sequence:
#
# PCOD9479049 Si02
#       8
#    16  16  16  16  16   4  16  16
#     4   9  21  40  66  98 130 169 222 279 342 412
#     4  11  22  36  57  88 122 163 213 261 316 384
#     4  10  21  38  61  88 122 163 212 259 315 379
#     4  10  22  43  65  93 130 172 216 268 334 396
#     4  11  23  39  62  89 128 171 215 268 325 389
#     4  12  26  48  72  98 144 180 222 286 340 402
#     4  11  25  46  72 104 137 181 228 280 347 416
#     4  10  20  37  58  86 124 162 206 262 319 381
#
# _framework density 20.307593000000001
#
# number of rings (size 3 to 8) (size 9 to 14) (size 15 to 20)
#    0.000    1.655    2.069    1.862    0.966    4.414 
#    2.483    4.138    0.000    0.000    0.000    0.000 
#    0.000    0.000    0.000    0.000    0.000    0.000 
#
# Total GULP energy -322979.774729 kJ/mol
# GULP energy per Si atom -5568.616806 kJ/mol
# Density = 2.026137 g / cm^3
# Si number density = 20.307593 Si / 1000 Ang^3
#
#
#
# Elastic Constant Matrix: (Units=GPa)
#
#
# Indices 1 2 3 4 5 6 
#
# 1 73.9462 7.5562 27.1893 0.0000 0.0000 0.0000
# 2 7.5562 154.4548 109.3616 0.0000 0.0000 0.0000
# 3 27.1893 109.3616 149.1223 0.0000 0.0000 0.0000
# 4 0.0000 0.0000 0.0000 35.5084 0.0000 0.0000
# 5 0.0000 0.0000 0.0000 0.0000 -4.7019 0.0000
# 6 0.0000 0.0000 0.0000 0.0000 0.0000 18.7865
#
#
#
# Elastic Compliance Matrix: (Units=1/GPa)
#
#
# Indices 1 2 3 4 5 6 
#
# 1 0.014942 0.002492 -0.004552 0.000000 0.000000 0.000000
# 2 0.002492 0.013883 -0.010636 0.000000 0.000000 0.000000
# 3 -0.004552 -0.010636 0.015336 0.000000 0.000000 0.000000
# 4 0.000000 0.000000 0.000000 0.028162 0.000000 0.000000
# 5 0.000000 0.000000 0.000000 0.000000 -0.212680 0.000000
# 6 0.000000 0.000000 0.000000 0.000000 0.000000 0.053230
#
#
# Mechanical properties :
#
#
# Convention : Reuss Voigt Hill
#
# Bulk Modulus (GPa) = 53.27705 73.97083 63.62394
# Shear Modulus (GPa) = -90.12553 25.47968 -32.32293
#
# Velocity S-wave (km/s) = -6.66907 3.54600 -3.99390
# Velocity P-wave (km/s) = 5.74544 7.29861 3.18274
#
# Compressibility (1/GPa) = 0.01876981
#
# Stress axis : x y z
#
# Youngs Moduli (GPa) = 66.92352 72.02956 65.20656
#
# Poissons Ratio (x) = -0.17950 0.29682
# Poissons Ratio (y) = -0.16678 0.69353
# Poissons Ratio (z) = 0.30464 0.76610
#
# Static dielectric constant tensor:
#      x y z
#    x 1.768990 0.000000 0.000000 
#    y 0.000000 1.736070 0.000000 
#    z 0.000000 0.000000 1.578080 
# 
# From -- ./inp_files/43373.got.cif
#   From: 2010.05.17/outbox.cif.g08.bks.cpg/sg64_22_cif.got.tgz:43373.got - 2010.06.03 16:29:19.
