data_PCOD9479199
_publ_section_title
;
Structure prediction by ZEFSAII (Michael W. Deem and Ramdas Pophale) SiO2 
 PCOD9479199
Probable space group: C M C A
;
_chemical_formula_sum "Si O2"
_cell_formula_units_Z 64
_cell_length_a 18.185270
_cell_length_b 12.375255
_cell_length_c 11.986615
_cell_angle_alpha 90.000000
_cell_angle_beta 90.000000
_cell_angle_gamma 90.000000
_cell_volume 2697.555983
_symmetry_space_group_name_H-M "C M C A"
_symmetry_group_IT_number 64
_symmetry_cell_setting 'orthorhombic'
loop_
_space_group_symop_operation_xyz
x,y,z
-x,1/2-y,1/2+z
x,-y,-z
-x,1/2+y,1/2-z
-x,-y,-z
x,1/2+y,1/2-z
-x,y,z
x,1/2-y,1/2+z
1/2+x,1/2+y,z
1/2-x,-y,1/2+z
1/2+x,1/2-y,-z
1/2-x,y,1/2-z
1/2-x,1/2-y,-z
1/2+x,y,1/2-z
1/2-x,1/2+y,z
1/2+x,-y,1/2+z
loop_
_atom_site_type_symbol
_atom_site_label
_atom_site_fract_x
_atom_site_fract_y
_atom_site_fract_z
Si Si1 0.415514 0.853366 0.942697
Si Si2 0.583085 0.383341 0.111356
Si Si3 0.178058 0.292122 0.566744
Si Si4 0.329071 0.459999 0.740934
O O1 0.500000 0.888464 0.953779
O O2 0.416483 0.745535 0.863675
O O3 0.359106 0.931801 0.881174
O O4 0.380480 0.806243 0.056554
O O5 0.500000 0.407299 0.077478
O O6 0.610135 0.464086 0.204246
O O7 0.640264 0.383393 0.010028
O O8 0.250000 0.250000 0.500000
O O9 0.184043 0.351037 0.684597
O O10 0.250000 0.517539 0.750000
#
# Coordination Sequence:
#
# PCOD9479199 Si02
#       4
#    16  16  16  16
#     4   9  21  38  57  86 119 155 200 251 303 359
#     4   9  21  38  58  88 120 154 206 251 298 364
#     4  10  20  38  58  84 121 153 200 251 304 357
#     4  12  21  34  62  89 118 166 200 249 310 361
#
# _framework density 23.725180000000002
#
# number of rings (size 3 to 8) (size 9 to 14) (size 15 to 20)
#    1.500    0.500    2.500    1.500    0.000    8.000 
#    0.000    0.000    0.000    0.000    0.000    7.000 
#    0.000    0.000    0.000    0.000    0.000    0.000 
#
# Total GULP energy -178306.910715 kJ/mol
# GULP energy per Si atom -5572.090960 kJ/mol
# Density = 2.367118 g / cm^3
# Si number density = 23.725180 Si / 1000 Ang^3
#
#
#
# Elastic Constant Matrix: (Units=GPa)
#
#
# Indices 1 2 3 4 5 6 
#
# 1 150.1008 19.8554 10.2202 0.0000 0.0000 0.0000
# 2 19.8554 87.8740 19.3802 0.0000 0.0000 0.0000
# 3 10.2202 19.3802 50.3160 0.0000 0.0000 0.0000
# 4 0.0000 0.0000 0.0000 10.4100 0.0000 0.0000
# 5 0.0000 0.0000 0.0000 0.0000 27.7659 0.0000
# 6 0.0000 0.0000 0.0000 0.0000 0.0000 4.9545
#
#
#
# Elastic Compliance Matrix: (Units=1/GPa)
#
#
# Indices 1 2 3 4 5 6 
#
# 1 0.006903 -0.001367 -0.000876 0.000000 0.000000 0.000000
# 2 -0.001367 0.012707 -0.004617 0.000000 0.000000 0.000000
# 3 -0.000876 -0.004617 0.021830 0.000000 0.000000 0.000000
# 4 0.000000 0.000000 0.000000 0.096062 0.000000 0.000000
# 5 0.000000 0.000000 0.000000 0.000000 0.036015 0.000000
# 6 0.000000 0.000000 0.000000 0.000000 0.000000 0.201836
#
#
# Mechanical properties :
#
#
# Convention : Reuss Voigt Hill
#
# Bulk Modulus (GPa) = 36.07241 43.02249 39.54745
# Shear Modulus (GPa) = 12.55299 24.54842 18.55070
#
# Velocity S-wave (km/s) = 2.30271 3.22016 2.79928
# Velocity P-wave (km/s) = 4.72306 5.65676 5.21087
#
# Compressibility (1/GPa) = 0.02772202
#
# Stress axis : x y z
#
# Youngs Moduli (GPa) = 144.87332 78.69744 45.80751
#
# Poissons Ratio (x) = 0.10754 0.04011
# Poissons Ratio (y) = 0.19797 0.21148
# Poissons Ratio (z) = 0.12687 0.36333
#
# Static dielectric constant tensor:
#      x y z
#    x 1.883140 0.000000 0.000000 
#    y 0.000000 1.953910 0.000000 
#    z 0.000000 0.000000 1.960770 
# 
# From -- ./inp_files/31783.got.cif
#   From: 2010.05.17/outbox.cif.g08.bks.cpg/sg64_16_cif.got.tgz:31783.got - 2010.06.03 16:29:19.
