data_PCOD9479314
_publ_section_title
;
Structure prediction by ZEFSAII (Michael W. Deem and Ramdas Pophale) SiO2 
 PCOD9479314
Probable space group: C M C A
;
_chemical_formula_sum "Si O2"
_cell_formula_units_Z 64
_cell_length_a 11.613124
_cell_length_b 18.899840
_cell_length_c 13.634936
_cell_angle_alpha 90.000000
_cell_angle_beta 90.000000
_cell_angle_gamma 90.000000
_cell_volume 2992.680092
_symmetry_space_group_name_H-M "C M C A"
_symmetry_group_IT_number 64
_symmetry_cell_setting 'orthorhombic'
loop_
_space_group_symop_operation_xyz
x,y,z
-x,1/2-y,1/2+z
x,-y,-z
-x,1/2+y,1/2-z
-x,-y,-z
x,1/2+y,1/2-z
-x,y,z
x,1/2-y,1/2+z
1/2+x,1/2+y,z
1/2-x,-y,1/2+z
1/2+x,1/2-y,-z
1/2-x,y,1/2-z
1/2-x,1/2-y,-z
1/2+x,y,1/2-z
1/2-x,1/2+y,z
1/2+x,-y,1/2+z
loop_
_atom_site_type_symbol
_atom_site_label
_atom_site_fract_x
_atom_site_fract_y
_atom_site_fract_z
Si Si1 0.625703 0.961524 0.147270
Si Si2 0.696139 0.195958 0.854734
Si Si3 0.626550 0.167900 0.469171
Si Si4 0.630228 0.982298 0.633375
O O1 0.500000 0.977999 0.101923
O O2 0.628969 0.877146 0.163636
O O3 0.627378 0.003984 0.249997
O O4 0.750974 0.979299 0.101292
O O5 0.750000 0.215368 0.750000
O O6 0.632674 0.263779 0.898922
O O7 0.786452 0.177287 0.941157
O O8 0.500000 0.163620 0.513446
O O9 0.643938 0.098039 0.403202
O O10 0.500000 0.006074 0.602299
#
# Coordination Sequence:
#
# PCOD9479314 Si02
#       4
#    16  16  16  16
#     4  10  20  38  64  95 131 173 218 266 325 388
#     4  11  23  42  66  95 132 172 224 279 338 393
#     4  10  24  43  66  96 130 175 226 277 333 401
#     4   9  19  39  63  93 130 169 216 263 324 395
#
# _framework density 21.385513
#
# number of rings (size 3 to 8) (size 9 to 14) (size 15 to 20)
#    0.000    2.000    2.500    0.750    3.500    4.000 
#    0.000   10.000    0.000    0.000    0.000    0.000 
#    0.000    0.000    0.000    0.000    0.000    0.000 
#
# Total GULP energy -178227.681727 kJ/mol
# GULP energy per Si atom -5569.615054 kJ/mol
# Density = 2.133684 g / cm^3
# Si number density = 21.385513 Si / 1000 Ang^3
#
#
#
# Elastic Constant Matrix: (Units=GPa)
#
#
# Indices 1 2 3 4 5 6 
#
# 1 172.4229 54.5537 10.8888 0.0000 0.0000 0.0000
# 2 54.5537 113.7423 34.3735 0.0000 0.0000 0.0000
# 3 10.8888 34.3735 123.7210 0.0000 0.0000 0.0000
# 4 0.0000 0.0000 0.0000 32.3212 0.0000 0.0000
# 5 0.0000 0.0000 0.0000 0.0000 -32.6239 0.0000
# 6 0.0000 0.0000 0.0000 0.0000 0.0000 19.0334
#
#
#
# Elastic Compliance Matrix: (Units=1/GPa)
#
#
# Indices 1 2 3 4 5 6 
#
# 1 0.006850 -0.003388 0.000338 0.000000 0.000000 0.000000
# 2 -0.003388 0.011273 -0.002834 0.000000 0.000000 0.000000
# 3 0.000338 -0.002834 0.008840 0.000000 0.000000 0.000000
# 4 0.000000 0.000000 0.000000 0.030939 0.000000 0.000000
# 5 0.000000 0.000000 0.000000 0.000000 -0.030652 0.000000
# 6 0.000000 0.000000 0.000000 0.000000 0.000000 0.052539
#
#
# Mechanical properties :
#
#
# Convention : Reuss Voigt Hill
#
# Bulk Modulus (GPa) = 65.80265 67.72424 66.76344
# Shear Modulus (GPa) = 51.74794 24.41747 38.08270
#
# Velocity S-wave (km/s) = 4.92445 3.38268 4.22450
# Velocity P-wave (km/s) = 7.94796 6.85520 7.42172
#
# Compressibility (1/GPa) = 0.01519696
#
# Stress axis : x y z
#
# Youngs Moduli (GPa) = 145.98106 88.70700 113.11891
#
# Poissons Ratio (x) = 0.30052 -0.03827
# Poissons Ratio (y) = 0.49455 0.32056
# Poissons Ratio (z) = -0.04939 0.25138
#
# Static dielectric constant tensor:
#      x y z
#    x 1.855710 0.000000 0.000000 
#    y 0.000000 1.765010 0.000000 
#    z 0.000000 0.000000 1.762440 
# 
# From -- ./inp_files/21969.got.cif
#   From: 2010.05.17/outbox.cif.g08.bks.cpg/sg64_11_cif.got.tgz:21969.got - 2010.06.03 16:29:19.
