data_PCOD9479298
_publ_section_title
;
Structure prediction by ZEFSAII (Michael W. Deem and Ramdas Pophale) SiO2 
 PCOD9479298
Probable space group: C M C A
;
_chemical_formula_sum "Si O2"
_cell_formula_units_Z 104
_cell_length_a 24.164806
_cell_length_b 8.759690
_cell_length_c 27.354606
_cell_angle_alpha 90.000000
_cell_angle_beta 90.000000
_cell_angle_gamma 90.000000
_cell_volume 5790.319310
_symmetry_space_group_name_H-M "C M C A"
_symmetry_group_IT_number 64
_symmetry_cell_setting 'orthorhombic'
loop_
_space_group_symop_operation_xyz
x,y,z
-x,1/2-y,1/2+z
x,-y,-z
-x,1/2+y,1/2-z
-x,-y,-z
x,1/2+y,1/2-z
-x,y,z
x,1/2-y,1/2+z
1/2+x,1/2+y,z
1/2-x,-y,1/2+z
1/2+x,1/2-y,-z
1/2-x,y,1/2-z
1/2-x,1/2-y,-z
1/2+x,y,1/2-z
1/2-x,1/2+y,z
1/2+x,-y,1/2+z
loop_
_atom_site_type_symbol
_atom_site_label
_atom_site_fract_x
_atom_site_fract_y
_atom_site_fract_z
Si Si1 0.696849 0.414029 0.949743
Si Si2 0.708407 0.268804 0.095211
Si Si3 0.292306 0.765689 0.680433
Si Si4 0.109344 0.569386 0.052107
Si Si5 0.891295 0.749137 0.897869
Si Si6 0.500000 0.766177 0.469502
Si Si7 0.750000 0.014173 0.750000
Si Si8 0.000000 0.403702 0.579110
O O1 0.700957 0.550021 0.909972
O O2 0.744275 0.290814 0.941646
O O3 0.639132 0.329054 0.943936
O O4 0.701513 0.500000 0.000000
O O5 0.736553 0.232400 0.147061
O O6 0.654243 0.176580 0.078998
O O7 0.345484 0.757932 0.645089
O O8 0.286899 0.619150 0.714926
O O9 0.288504 0.909839 0.715900
O O10 0.097400 0.424661 0.086966
O O11 0.054305 0.665561 0.040954
O O12 0.130063 0.500000 0.000000
O O13 0.946399 0.846789 0.891396
O O14 0.500000 0.816772 0.526401
O O15 0.500000 0.918349 0.435832
#
# Coordination Sequence:
#
# PCOD9479298 Si02
#       8
#    16  16  16  16  16   8   8   8
#     4  11  21  33  48  78 112 160 191 230 270 322
#     4  11  21  34  53  78 118 144 195 231 283 331
#     4  10  21  38  58  90 109 147 175 234 290 361
#     4  12  21  35  53  80 114 164 198 241 264 320
#     4  11  22  36  58  80 116 146 198 232 283 324
#     4  11  24  37  54  79 113 159 220 225 272 302
#     4  10  20  38  64  82 116 134 178 222 304 366
#     4  11  23  40  57  78 112 160 195 252 259 323
#
# _framework density 17.961013000000001
#
# number of rings (size 3 to 8) (size 9 to 14) (size 15 to 20)
#    0.000    1.077    1.538    8.077    2.154    0.000 
#    0.000    0.000    0.000    0.923    0.000    4.308 
#    0.000    0.000    0.000    0.000    0.000    0.000 
#
# Total GULP energy -290480.487964 kJ/mol
# GULP energy per Si atom -5586.163230 kJ/mol
# Density = 1.792013 g / cm^3
# Si number density = 17.961013 Si / 1000 Ang^3
#
#
#
# Elastic Constant Matrix: (Units=GPa)
#
#
# Indices 1 2 3 4 5 6 
#
# 1 94.9238 39.1435 23.3134 0.0000 0.0000 0.0000
# 2 39.1435 115.2415 32.3454 0.0000 0.0000 0.0000
# 3 23.3134 32.3454 88.0698 0.0000 0.0000 0.0000
# 4 0.0000 0.0000 0.0000 26.4842 0.0000 0.0000
# 5 0.0000 0.0000 0.0000 0.0000 16.8343 0.0000
# 6 0.0000 0.0000 0.0000 0.0000 0.0000 19.8271
#
#
#
# Elastic Compliance Matrix: (Units=1/GPa)
#
#
# Indices 1 2 3 4 5 6 
#
# 1 0.012546 -0.003712 -0.001958 0.000000 0.000000 0.000000
# 2 -0.003712 0.010773 -0.002974 0.000000 0.000000 0.000000
# 3 -0.001958 -0.002974 0.012965 0.000000 0.000000 0.000000
# 4 0.000000 0.000000 0.000000 0.037758 0.000000 0.000000
# 5 0.000000 0.000000 0.000000 0.000000 0.059403 0.000000
# 6 0.000000 0.000000 0.000000 0.000000 0.000000 0.050436
#
#
# Mechanical properties :
#
#
# Convention : Reuss Voigt Hill
#
# Bulk Modulus (GPa) = 52.64063 54.20442 53.42253
# Shear Modulus (GPa) = 24.09622 26.19130 25.14376
#
# Velocity S-wave (km/s) = 3.66674 3.82282 3.74559
# Velocity P-wave (km/s) = 6.87739 7.05193 6.96521
#
# Compressibility (1/GPa) = 0.01899673
#
# Stress axis : x y z
#
# Youngs Moduli (GPa) = 79.70444 92.82474 77.12983
#
# Poissons Ratio (x) = 0.34457 0.15101
# Poissons Ratio (y) = 0.29587 0.22938
# Poissons Ratio (z) = 0.15605 0.27606
#
# Static dielectric constant tensor:
#      x y z
#    x 1.609470 0.000000 0.000000 
#    y 0.000000 1.634490 0.000000 
#    z 0.000000 0.000000 1.639490 
# 
# From -- ./inp_files/50817.got.cif
#   From: 2010.05.17/outbox.cif.g08.bks.cpg/sg64_26_cif.got.tgz:50817.got - 2010.06.03 16:29:19.
