data_PCOD9479071
_publ_section_title
;
Structure prediction by ZEFSAII (Michael W. Deem and Ramdas Pophale) SiO2 
 PCOD9479071
Probable space group: C M C A
;
_chemical_formula_sum "Si O2"
_cell_formula_units_Z 72
_cell_length_a 9.707991
_cell_length_b 29.963844
_cell_length_c 13.384206
_cell_angle_alpha 90.000000
_cell_angle_beta 90.000000
_cell_angle_gamma 90.000000
_cell_volume 3893.314657
_symmetry_space_group_name_H-M "C M C A"
_symmetry_group_IT_number 64
_symmetry_cell_setting 'orthorhombic'
loop_
_space_group_symop_operation_xyz
x,y,z
-x,1/2-y,1/2+z
x,-y,-z
-x,1/2+y,1/2-z
-x,-y,-z
x,1/2+y,1/2-z
-x,y,z
x,1/2-y,1/2+z
1/2+x,1/2+y,z
1/2-x,-y,1/2+z
1/2+x,1/2-y,-z
1/2-x,y,1/2-z
1/2-x,1/2-y,-z
1/2+x,y,1/2-z
1/2-x,1/2+y,z
1/2+x,-y,1/2+z
loop_
_atom_site_type_symbol
_atom_site_label
_atom_site_fract_x
_atom_site_fract_y
_atom_site_fract_z
Si Si1 0.000000 0.533539 0.799631
Si Si2 0.340119 0.309197 0.436720
Si Si3 0.707415 0.087185 0.938569
Si Si4 0.663324 0.269035 0.654731
Si Si5 0.000000 0.456059 0.927602
Si Si6 0.500000 0.954582 0.435693
O O1 0.869080 0.558083 0.852093
O O2 0.000000 0.480801 0.823710
O O3 0.000000 0.537258 0.682453
O O4 0.500000 0.298247 0.411891
O O5 0.313981 0.361043 0.416252
O O6 0.322606 0.299219 0.555098
O O7 0.234963 0.277722 0.377147
O O8 0.863065 0.073466 0.953838
O O9 0.628716 0.073271 0.040054
O O10 0.500000 0.264398 0.676110
O O11 0.750000 0.285805 0.750000
O O12 0.000000 0.500000 0.000000
O O13 0.500000 0.000000 0.500000
#
# Coordination Sequence:
#
# PCOD9479071 Si02
#       6
#     8  16  16  16   8   8
#     4  10  20  38  60  79 108 156 194 226 286 359
#     4  10  20  40  62  85 116 155 201 248 291 343
#     4  10  20  37  60  84 112 147 192 245 287 335
#     4  10  22  38  60  88 120 158 192 238 297 358
#     4   8  16  36  60  77 100 152 191 224 281 351
#     4  12  24  36  52  88 124 148 185 244 297 336
#
# _framework density 18.49324
#
# number of rings (size 3 to 8) (size 9 to 14) (size 15 to 20)
#    0.000    2.222    2.222    3.333    1.556    2.667 
#    0.000    2.222    0.000    0.000    0.000    0.000 
#    0.000    0.000    0.000    0.000    0.000    0.000 
#
# Total GULP energy -200738.136452 kJ/mol
# GULP energy per Si atom -5576.059346 kJ/mol
# Density = 1.845115 g / cm^3
# Si number density = 18.493240 Si / 1000 Ang^3
#
#
#
# Elastic Constant Matrix: (Units=GPa)
#
#
# Indices 1 2 3 4 5 6 
#
# 1 155.7367 11.2000 40.9860 0.0000 0.0000 0.0000
# 2 11.2000 45.8113 15.0297 0.0000 0.0000 0.0000
# 3 40.9860 15.0297 65.8070 0.0000 0.0000 0.0000
# 4 0.0000 0.0000 0.0000 7.8039 0.0000 0.0000
# 5 0.0000 0.0000 0.0000 0.0000 13.9733 0.0000
# 6 0.0000 0.0000 0.0000 0.0000 0.0000 28.1393
#
#
#
# Elastic Compliance Matrix: (Units=1/GPa)
#
#
# Indices 1 2 3 4 5 6 
#
# 1 0.007685 -0.000334 -0.004710 0.000000 0.000000 0.000000
# 2 -0.000334 0.023611 -0.005185 0.000000 0.000000 0.000000
# 3 -0.004710 -0.005185 0.019314 0.000000 0.000000 0.000000
# 4 0.000000 0.000000 0.000000 0.128142 0.000000 0.000000
# 5 0.000000 0.000000 0.000000 0.000000 0.071565 0.000000
# 6 0.000000 0.000000 0.000000 0.000000 0.000000 0.035537
#
#
# Mechanical properties :
#
#
# Convention : Reuss Voigt Hill
#
# Bulk Modulus (GPa) = 33.16445 44.64295 38.90370
# Shear Modulus (GPa) = 15.80472 23.32592 19.56532
#
# Velocity S-wave (km/s) = 2.92656 3.55536 3.25618
# Velocity P-wave (km/s) = 5.42143 6.40677 5.93458
#
# Compressibility (1/GPa) = 0.03015277
#
# Stress axis : x y z
#
# Youngs Moduli (GPa) = 130.12993 42.35263 51.77699
#
# Poissons Ratio (x) = 0.01412 0.24387
# Poissons Ratio (y) = 0.04340 0.26846
# Poissons Ratio (z) = 0.61291 0.21959
#
# Static dielectric constant tensor:
#      x y z
#    x 1.633000 0.000000 0.000000 
#    y 0.000000 1.621700 0.000000 
#    z 0.000000 0.000000 1.690680 
# 
# From -- ./inp_files/21194.got.cif
#   From: 2010.05.17/outbox.cif.g08.bks.cpg/sg64_11_cif.got.tgz:21194.got - 2010.06.03 16:29:19.
