data_PCOD9479179
_publ_section_title
;
Structure prediction by ZEFSAII (Michael W. Deem and Ramdas Pophale) SiO2 
 PCOD9479179
Probable space group: C M C A
;
_chemical_formula_sum "Si O2"
_cell_formula_units_Z 104
_cell_length_a 22.574453
_cell_length_b 8.811316
_cell_length_c 26.081867
_cell_angle_alpha 90.000000
_cell_angle_beta 90.000000
_cell_angle_gamma 90.000000
_cell_volume 5187.960829
_symmetry_space_group_name_H-M "C M C A"
_symmetry_group_IT_number 64
_symmetry_cell_setting 'orthorhombic'
loop_
_space_group_symop_operation_xyz
x,y,z
-x,1/2-y,1/2+z
x,-y,-z
-x,1/2+y,1/2-z
-x,-y,-z
x,1/2+y,1/2-z
-x,y,z
x,1/2-y,1/2+z
1/2+x,1/2+y,z
1/2-x,-y,1/2+z
1/2+x,1/2-y,-z
1/2-x,y,1/2-z
1/2-x,1/2-y,-z
1/2+x,y,1/2-z
1/2-x,1/2+y,z
1/2+x,-y,1/2+z
loop_
_atom_site_type_symbol
_atom_site_label
_atom_site_fract_x
_atom_site_fract_y
_atom_site_fract_z
Si Si1 0.717893 0.500000 0.500000
Si Si2 0.217560 0.570103 0.158323
Si Si3 0.500000 0.591062 0.253762
Si Si4 0.123419 0.251828 0.773728
Si Si5 0.000000 0.176020 0.675134
Si Si6 0.300353 0.224332 0.566233
Si Si7 0.127263 0.685051 0.846512
Si Si8 0.847626 0.519800 0.647190
O O1 0.683237 0.635516 0.470973
O O2 0.760376 0.599759 0.537388
O O3 0.178765 0.654986 0.201792
O O4 0.231662 0.688403 0.113060
O O5 0.173755 0.440576 0.137195
O O6 0.280811 0.497630 0.170670
O O7 0.437736 0.654957 0.275931
O O8 0.500000 0.649813 0.194980
O O9 0.500000 0.417218 0.271251
O O10 0.136049 0.209976 0.714940
O O11 0.116595 0.100118 0.807521
O O12 0.059665 0.136264 0.646270
O O13 0.348494 0.129391 0.597986
O O14 0.133753 0.852553 0.868606
#
# Coordination Sequence:
#
# PCOD9479179 Si02
#       8
#     8  16   8  16   8  16  16  16
#     4  10  20  38  62  78 108 146 188 208 280 364
#     4  11  21  36  52  81 122 151 179 235 275 336
#     4  10  20  38  54  72 104 143 216 264 268 290
#     4  10  22  35  53  77 109 162 203 235 268 307
#     4  10  22  36  56  76 100 153 211 258 271 293
#     4  10  21  35  57  83 108 149 171 227 280 333
#     4  11  22  35  56  76 117 157 204 234 271 314
#     4  11  23  34  52  83 119 153 178 235 278 334
#
# _framework density 20.046412
#
# number of rings (size 3 to 8) (size 9 to 14) (size 15 to 20)
#    0.000    1.538    3.077    2.769    6.462    3.692 
#    0.000    0.000    0.000    0.000    0.000    0.000 
#    0.000   61.538    0.000    0.000    0.000    0.000 
#
# Total GULP energy -290048.505746 kJ/mol
# GULP energy per Si atom -5577.855880 kJ/mol
# Density = 2.000079 g / cm^3
# Si number density = 20.046412 Si / 1000 Ang^3
#
#
#
# Elastic Constant Matrix: (Units=GPa)
#
#
# Indices 1 2 3 4 5 6 
#
# 1 79.8392 16.8526 9.2527 0.0000 0.0000 0.0000
# 2 16.8526 121.5452 27.6335 0.0000 0.0000 0.0000
# 3 9.2527 27.6335 60.3512 0.0000 0.0000 0.0000
# 4 0.0000 0.0000 0.0000 45.7539 0.0000 0.0000
# 5 0.0000 0.0000 0.0000 0.0000 0.9042 0.0000
# 6 0.0000 0.0000 0.0000 0.0000 0.0000 29.3400
#
#
#
# Elastic Compliance Matrix: (Units=1/GPa)
#
#
# Indices 1 2 3 4 5 6 
#
# 1 0.012994 -0.001505 -0.001303 0.000000 0.000000 0.000000
# 2 -0.001505 0.009358 -0.004054 0.000000 0.000000 0.000000
# 3 -0.001303 -0.004054 0.018626 0.000000 0.000000 0.000000
# 4 0.000000 0.000000 0.000000 0.021856 0.000000 0.000000
# 5 0.000000 0.000000 0.000000 0.000000 1.105912 0.000000
# 6 0.000000 0.000000 0.000000 0.000000 0.000000 0.034083
#
#
# Mechanical properties :
#
#
# Convention : Reuss Voigt Hill
#
# Bulk Modulus (GPa) = 36.69329 41.02369 38.85849
# Shear Modulus (GPa) = 4.07951 29.06607 16.57279
#
# Velocity S-wave (km/s) = 1.42809 3.81194 2.87840
# Velocity P-wave (km/s) = 4.58946 6.31532 5.52026
#
# Compressibility (1/GPa) = 0.02725294
#
# Stress axis : x y z
#
# Youngs Moduli (GPa) = 76.95898 106.86276 53.68943
#
# Poissons Ratio (x) = 0.16088 0.06995
# Poissons Ratio (y) = 0.11586 0.21765
# Poissons Ratio (z) = 0.10026 0.43321
#
# Static dielectric constant tensor:
#      x y z
#    x 1.714640 0.000000 0.000000 
#    y 0.000000 1.796040 0.000000 
#    z 0.000000 0.000000 1.743060 
# 
# From -- ./inp_files/51066.got.cif
#   From: 2010.05.17/outbox.cif.g08.bks.cpg/sg64_26_cif.got.tgz:51066.got - 2010.06.03 16:29:19.
