data_PCOD9479703
_publ_section_title
;
Structure prediction by ZEFSAII (Michael W. Deem and Ramdas Pophale) SiO2 
 PCOD9479703
Probable space group: C M C A
;
_chemical_formula_sum "Si O2"
_cell_formula_units_Z 88
_cell_length_a 22.515233
_cell_length_b 19.714875
_cell_length_c 9.675019
_cell_angle_alpha 90.000000
_cell_angle_beta 90.000000
_cell_angle_gamma 90.000000
_cell_volume 4294.595849
_symmetry_space_group_name_H-M "C M C A"
_symmetry_group_IT_number 64
_symmetry_cell_setting 'orthorhombic'
loop_
_space_group_symop_operation_xyz
x,y,z
-x,1/2-y,1/2+z
x,-y,-z
-x,1/2+y,1/2-z
-x,-y,-z
x,1/2+y,1/2-z
-x,y,z
x,1/2-y,1/2+z
1/2+x,1/2+y,z
1/2-x,-y,1/2+z
1/2+x,1/2-y,-z
1/2-x,y,1/2-z
1/2-x,1/2-y,-z
1/2+x,y,1/2-z
1/2-x,1/2+y,z
1/2+x,-y,1/2+z
loop_
_atom_site_type_symbol
_atom_site_label
_atom_site_fract_x
_atom_site_fract_y
_atom_site_fract_z
Si Si1 0.133033 0.113275 0.766932
Si Si2 0.871100 0.337522 0.966720
Si Si3 0.000000 0.700949 0.104725
Si Si4 0.500000 0.363125 0.125846
Si Si5 0.791975 0.220723 0.880815
Si Si6 0.609184 0.473719 0.652486
Si Si7 0.500000 0.589402 0.183103
O O1 0.146543 0.155004 0.626134
O O2 0.062801 0.119698 0.801230
O O3 0.175414 0.147367 0.881872
O O4 0.142885 0.035025 0.727008
O O5 0.941845 0.328705 0.967144
O O6 0.845746 0.274091 0.884378
O O7 0.854549 0.406418 0.887022
O O8 0.000000 0.666263 0.256134
O O9 0.000000 0.781734 0.105655
O O10 0.500000 0.403424 0.980648
O O11 0.750000 0.223581 0.750000
O O12 0.750000 0.250000 0.000000
O O13 0.587555 0.500000 0.500000
O O14 0.556409 0.449004 0.751959
#
# Coordination Sequence:
#
# PCOD9479703 Si02
#       7
#    16  16   8   8  16  16   8
#     4  11  23  40  66  94 131 168 221 269 326 399
#     4  10  21  41  67  94 130 168 217 270 327 400
#     4  10  21  35  62  97 130 165 205 261 329 394
#     4  12  24  33  62 100 134 171 211 269 339 387
#     4  12  25  43  68  96 130 176 224 278 332 380
#     4   9  20  40  65  90 126 176 216 262 334 402
#     4  10  22  36  57  95 144 169 211 263 330 412
#
# _framework density 20.490870000000001
#
# number of rings (size 3 to 8) (size 9 to 14) (size 15 to 20)
#    0.000    1.455    3.636    1.364    2.545    7.273 
#    0.000    0.909    0.000    0.000    0.000    0.000 
#    0.000    0.000    0.000    0.000    0.000    0.000 
#
# Total GULP energy -245369.053072 kJ/mol
# GULP energy per Si atom -5576.569388 kJ/mol
# Density = 2.044423 g / cm^3
# Si number density = 20.490870 Si / 1000 Ang^3
#
#
#
# Elastic Constant Matrix: (Units=GPa)
#
#
# Indices 1 2 3 4 5 6 
#
# 1 70.3864 21.8643 33.8714 0.0000 0.0000 0.0000
# 2 21.8643 119.7481 34.2107 0.0000 0.0000 0.0000
# 3 33.8714 34.2107 68.9891 0.0000 0.0000 0.0000
# 4 0.0000 0.0000 0.0000 27.4588 0.0000 0.0000
# 5 0.0000 0.0000 0.0000 0.0000 32.4047 0.0000
# 6 0.0000 0.0000 0.0000 0.0000 0.0000 6.9059
#
#
#
# Elastic Compliance Matrix: (Units=1/GPa)
#
#
# Indices 1 2 3 4 5 6 
#
# 1 0.018689 -0.000922 -0.008719 0.000000 0.000000 0.000000
# 2 -0.000922 0.009775 -0.004395 0.000000 0.000000 0.000000
# 3 -0.008719 -0.004395 0.020955 0.000000 0.000000 0.000000
# 4 0.000000 0.000000 0.000000 0.036418 0.000000 0.000000
# 5 0.000000 0.000000 0.000000 0.000000 0.030860 0.000000
# 6 0.000000 0.000000 0.000000 0.000000 0.000000 0.144804
#
#
# Mechanical properties :
#
#
# Convention : Reuss Voigt Hill
#
# Bulk Modulus (GPa) = 46.84107 48.77961 47.81034
# Shear Modulus (GPa) = 16.85278 24.63236 20.74257
#
# Velocity S-wave (km/s) = 2.87096 3.47091 3.18509
# Velocity P-wave (km/s) = 5.82228 6.31824 6.07533
#
# Compressibility (1/GPa) = 0.02134879
#
# Stress axis : x y z
#
# Youngs Moduli (GPa) = 53.50676 102.30573 47.72141
#
# Poissons Ratio (x) = 0.09428 0.41607
# Poissons Ratio (y) = 0.04931 0.20972
# Poissons Ratio (z) = 0.46652 0.44960
#
# Static dielectric constant tensor:
#      x y z
#    x 1.771100 0.000000 0.000000 
#    y 0.000000 1.762070 0.000000 
#    z 0.000000 0.000000 1.761480 
# 
# From -- ./inp_files/9400.got.cif
#   From: 2010.05.17/outbox.cif.g08.bks.cpg/sg64_5_cif.got.tgz:9400.got - 2010.06.03 16:29:19.
