data_PCOD9479350
_publ_section_title
;
Structure prediction by ZEFSAII (Michael W. Deem and Ramdas Pophale) SiO2 
 PCOD9479350
Probable space group: C M C A
;
_chemical_formula_sum "Si O2"
_cell_formula_units_Z 56
_cell_length_a 28.080497
_cell_length_b 16.161142
_cell_length_c 5.274775
_cell_angle_alpha 90.000000
_cell_angle_beta 90.000000
_cell_angle_gamma 90.000000
_cell_volume 2393.760937
_symmetry_space_group_name_H-M "C M C A"
_symmetry_group_IT_number 64
_symmetry_cell_setting 'orthorhombic'
loop_
_space_group_symop_operation_xyz
x,y,z
-x,1/2-y,1/2+z
x,-y,-z
-x,1/2+y,1/2-z
-x,-y,-z
x,1/2+y,1/2-z
-x,y,z
x,1/2-y,1/2+z
1/2+x,1/2+y,z
1/2-x,-y,1/2+z
1/2+x,1/2-y,-z
1/2-x,y,1/2-z
1/2-x,1/2-y,-z
1/2+x,y,1/2-z
1/2-x,1/2+y,z
1/2+x,-y,1/2+z
loop_
_atom_site_type_symbol
_atom_site_label
_atom_site_fract_x
_atom_site_fract_y
_atom_site_fract_z
Si Si1 0.896177 0.911882 0.154175
Si Si2 0.811930 0.696471 0.463341
Si Si3 0.665067 0.000000 0.000000
Si Si4 0.250000 0.928649 0.250000
Si Si5 0.500000 0.058236 0.746741
O O1 0.862694 0.849228 0.004110
O O2 0.870192 0.926747 0.425353
O O3 0.950727 0.891863 0.218335
O O4 0.895141 0.000000 0.000000
O O5 0.809467 0.735398 0.186885
O O6 0.769255 0.633652 0.534823
O O7 0.704586 0.012474 0.785589
O O8 0.500000 0.000000 0.500000
O O9 0.500000 0.000000 0.000000
#
# Coordination Sequence:
#
# PCOD9479350 Si02
#       5
#    16  16   8   8   8
#     4  10  23  41  69  95 130 165 221 274 333 392
#     4  11  26  43  62  90 133 175 215 264 326 389
#     4  10  22  37  60  98 122 167 216 282 312 382
#     4  10  24  36  64  88 132 170 226 262 328 374
#     4  10  20  38  68 102 126 158 211 273 334 386
#
# _framework density 23.39415
#
# number of rings (size 3 to 8) (size 9 to 14) (size 15 to 20)
#    0.000    1.714    1.429    0.857   16.000    0.000 
#    0.000    1.429    0.000    0.000    0.000    0.000 
#    0.000    0.000    0.000    0.000    0.000    0.000 
#
# Total GULP energy -156089.053235 kJ/mol
# GULP energy per Si atom -5574.609044 kJ/mol
# Density = 2.334090 g / cm^3
# Si number density = 23.394150 Si / 1000 Ang^3
#
#
#
# Elastic Constant Matrix: (Units=GPa)
#
#
# Indices 1 2 3 4 5 6 
#
# 1 225.5157 39.1992 30.8423 0.0000 0.0000 0.0000
# 2 39.1992 60.4645 43.4517 0.0000 0.0000 0.0000
# 3 30.8423 43.4517 114.6811 0.0000 0.0000 0.0000
# 4 0.0000 0.0000 0.0000 42.9828 0.0000 0.0000
# 5 0.0000 0.0000 0.0000 0.0000 17.2826 0.0000
# 6 0.0000 0.0000 0.0000 0.0000 0.0000 30.9523
#
#
#
# Elastic Compliance Matrix: (Units=1/GPa)
#
#
# Indices 1 2 3 4 5 6 
#
# 1 0.005000 -0.003126 -0.000160 0.000000 0.000000 0.000000
# 2 -0.003126 0.024682 -0.008511 0.000000 0.000000 0.000000
# 3 -0.000160 -0.008511 0.011988 0.000000 0.000000 0.000000
# 4 0.000000 0.000000 0.000000 0.023265 0.000000 0.000000
# 5 0.000000 0.000000 0.000000 0.000000 0.057862 0.000000
# 6 0.000000 0.000000 0.000000 0.000000 0.000000 0.032308
#
#
# Mechanical properties :
#
#
# Convention : Reuss Voigt Hill
#
# Bulk Modulus (GPa) = 55.32693 69.73865 62.53279
# Shear Modulus (GPa) = 27.06767 37.38808 32.22788
#
# Velocity S-wave (km/s) = 3.40520 4.00206 3.71564
# Velocity P-wave (km/s) = 6.25794 7.15754 6.72280
#
# Compressibility (1/GPa) = 0.01807438
#
# Stress axis : x y z
#
# Youngs Moduli (GPa) = 200.01716 40.51613 83.41953
#
# Poissons Ratio (x) = 0.12666 0.01336
# Poissons Ratio (y) = 0.62529 0.70997
# Poissons Ratio (z) = 0.03202 0.34483
#
# Static dielectric constant tensor:
#      x y z
#    x 1.912040 0.000000 0.000000 
#    y 0.000000 1.891560 0.000000 
#    z 0.000000 0.000000 2.026830 
# 
# From -- ./inp_files/2656.got.cif
#   From: 2010.05.17/outbox.cif.g08.bks.cpg/sg64_2_cif.got.tgz:2656.got - 2010.06.03 16:29:19.
