data_PCOD9479925
_publ_section_title
;
Structure prediction by ZEFSAII (Michael W. Deem and Ramdas Pophale) SiO2 
 PCOD9479925
Probable space group: C M C A
;
_chemical_formula_sum "Si O2"
_cell_formula_units_Z 88
_cell_length_a 14.311362
_cell_length_b 14.980622
_cell_length_c 21.095026
_cell_angle_alpha 90.000000
_cell_angle_beta 90.000000
_cell_angle_gamma 90.000000
_cell_volume 4522.628112
_symmetry_space_group_name_H-M "C M C A"
_symmetry_group_IT_number 64
_symmetry_cell_setting 'orthorhombic'
loop_
_space_group_symop_operation_xyz
x,y,z
-x,1/2-y,1/2+z
x,-y,-z
-x,1/2+y,1/2-z
-x,-y,-z
x,1/2+y,1/2-z
-x,y,z
x,1/2-y,1/2+z
1/2+x,1/2+y,z
1/2-x,-y,1/2+z
1/2+x,1/2-y,-z
1/2-x,y,1/2-z
1/2-x,1/2-y,-z
1/2+x,y,1/2-z
1/2-x,1/2+y,z
1/2+x,-y,1/2+z
loop_
_atom_site_type_symbol
_atom_site_label
_atom_site_fract_x
_atom_site_fract_y
_atom_site_fract_z
Si Si1 0.393278 0.662713 0.493036
Si Si2 0.111610 0.596281 0.873032
Si Si3 0.206378 0.075884 0.388206
Si Si4 0.665770 0.000000 0.500000
Si Si5 0.391544 0.831823 0.423448
Si Si6 0.256290 0.238203 0.825208
O O1 0.500000 0.678488 0.510451
O O2 0.357137 0.608729 0.553115
O O3 0.383792 0.608117 0.428395
O O4 0.354199 0.759132 0.474775
O O5 0.171363 0.510799 0.850134
O O6 0.147570 0.688217 0.842993
O O7 0.000000 0.583495 0.866833
O O8 0.245419 0.159844 0.349365
O O9 0.276475 0.051108 0.445143
O O10 0.612372 0.074006 0.541331
O O11 0.500000 0.811364 0.407581
O O12 0.324974 0.817350 0.362693
O O13 0.250000 0.235604 0.750000
#
# Coordination Sequence:
#
# PCOD9479925 Si02
#       6
#    16  16  16   8  16  16
#     4   9  17  32  57  90 122 151 195 254 318 375
#     4  11  21  38  64  94 122 163 213 266 319 377
#     4  11  20  35  61  94 125 162 201 261 316 378
#     4  12  19  34  61  98 130 152 201 260 335 388
#     4  10  21  37  61  91 126 165 204 255 322 383
#     4  11  25  43  62  84 127 172 217 257 308 373
#
# _framework density 19.457712999999998
#
# number of rings (size 3 to 8) (size 9 to 14) (size 15 to 20)
#    0.000    1.455    3.636    1.909    0.000    6.545 
#    0.000    0.909    0.000    0.000    0.000    0.000 
#    0.000    0.000    0.000    0.000    0.000    0.000 
#
# Total GULP energy -245111.625251 kJ/mol
# GULP energy per Si atom -5570.718756 kJ/mol
# Density = 1.941343 g / cm^3
# Si number density = 19.457713 Si / 1000 Ang^3
#
#
#
# Elastic Constant Matrix: (Units=GPa)
#
#
# Indices 1 2 3 4 5 6 
#
# 1 78.7548 37.4379 25.8231 0.0000 0.0000 0.0000
# 2 37.4379 119.3274 43.1451 0.0000 0.0000 0.0000
# 3 25.8231 43.1451 66.8473 0.0000 0.0000 0.0000
# 4 0.0000 0.0000 0.0000 12.3617 0.0000 0.0000
# 5 0.0000 0.0000 0.0000 0.0000 8.7776 0.0000
# 6 0.0000 0.0000 0.0000 0.0000 0.0000 20.7048
#
#
#
# Elastic Compliance Matrix: (Units=1/GPa)
#
#
# Indices 1 2 3 4 5 6 
#
# 1 0.015610 -0.003544 -0.003742 0.000000 0.000000 0.000000
# 2 -0.003544 0.011736 -0.006206 0.000000 0.000000 0.000000
# 3 -0.003742 -0.006206 0.020410 0.000000 0.000000 0.000000
# 4 0.000000 0.000000 0.000000 0.080895 0.000000 0.000000
# 5 0.000000 0.000000 0.000000 0.000000 0.113926 0.000000
# 6 0.000000 0.000000 0.000000 0.000000 0.000000 0.048298
#
#
# Mechanical properties :
#
#
# Convention : Reuss Voigt Hill
#
# Bulk Modulus (GPa) = 48.14288 53.08239 50.61264
# Shear Modulus (GPa) = 15.39487 18.93704 17.16596
#
# Velocity S-wave (km/s) = 2.81587 3.12307 2.97344
# Velocity P-wave (km/s) = 5.94712 6.35176 6.15277
#
# Compressibility (1/GPa) = 0.02077150
#
# Stress axis : x y z
#
# Youngs Moduli (GPa) = 64.06323 85.20763 48.99449
#
# Poissons Ratio (x) = 0.30199 0.18336
# Poissons Ratio (y) = 0.22705 0.30404
# Poissons Ratio (z) = 0.23975 0.52877
#
# Static dielectric constant tensor:
#      x y z
#    x 1.719170 0.000000 0.000000 
#    y 0.000000 1.775940 0.000000 
#    z 0.000000 0.000000 1.661510 
# 
# From -- ./inp_files/39066.got.cif
#   From: 2010.05.17/outbox.cif.g08.bks.cpg/sg64_20_cif.got.tgz:39066.got - 2010.06.03 16:29:19.
