data_PCOD9479920
_publ_section_title
;
Structure prediction by ZEFSAII (Michael W. Deem and Ramdas Pophale) SiO2 
 PCOD9479920
Probable space group: C M C A
;
_chemical_formula_sum "Si O2"
_cell_formula_units_Z 80
_cell_length_a 13.758063
_cell_length_b 11.783037
_cell_length_c 22.859361
_cell_angle_alpha 90.000000
_cell_angle_beta 90.000000
_cell_angle_gamma 90.000000
_cell_volume 3705.771367
_symmetry_space_group_name_H-M "C M C A"
_symmetry_group_IT_number 64
_symmetry_cell_setting 'orthorhombic'
loop_
_space_group_symop_operation_xyz
x,y,z
-x,1/2-y,1/2+z
x,-y,-z
-x,1/2+y,1/2-z
-x,-y,-z
x,1/2+y,1/2-z
-x,y,z
x,1/2-y,1/2+z
1/2+x,1/2+y,z
1/2-x,-y,1/2+z
1/2+x,1/2-y,-z
1/2-x,y,1/2-z
1/2-x,1/2-y,-z
1/2+x,y,1/2-z
1/2-x,1/2+y,z
1/2+x,-y,1/2+z
loop_
_atom_site_type_symbol
_atom_site_label
_atom_site_fract_x
_atom_site_fract_y
_atom_site_fract_z
Si Si1 0.209388 0.759864 0.185572
Si Si2 0.601491 0.188689 0.886749
Si Si3 0.679798 0.061031 0.112302
Si Si4 0.110756 0.942834 0.107785
Si Si5 0.638787 0.245020 0.016922
O O1 0.250000 0.777045 0.250000
O O2 0.303124 0.762619 0.143171
O O3 0.168477 0.635196 0.171342
O O4 0.138300 0.858873 0.162155
O O5 0.500000 0.217813 0.856326
O O6 0.620902 0.054667 0.885437
O O7 0.594476 0.226240 0.953774
O O8 0.634457 0.139372 0.061350
O O9 0.794320 0.024860 0.102184
O O10 0.110721 0.858491 0.051666
O O11 0.000000 0.989540 0.113530
O O12 0.750000 0.250000 0.000000
#
# Coordination Sequence:
#
# PCOD9479920 Si02
#       5
#    16  16  16  16  16
#     4  10  23  43  62  80 116 158 198 248 298 343
#     4  11  23  38  62  90 118 153 199 241 290 350
#     4  10  21  37  61  88 122 153 194 237 295 347
#     4  10  22  39  62  90 120 154 195 242 293 350
#     4  11  19  38  60  88 124 158 185 231 291 355
#
# _framework density 21.587948000000001
#
# number of rings (size 3 to 8) (size 9 to 14) (size 15 to 20)
#    0.000    1.600    6.000    1.200    0.000    9.600 
#    0.000    1.000    0.000    0.000    0.000    0.000 
#    0.000    0.000    0.000    0.000    0.000    0.000 
#
# Total GULP energy -223117.384492 kJ/mol
# GULP energy per Si atom -5577.934612 kJ/mol
# Density = 2.153881 g / cm^3
# Si number density = 21.587948 Si / 1000 Ang^3
#
#
#
# Elastic Constant Matrix: (Units=GPa)
#
#
# Indices 1 2 3 4 5 6 
#
# 1 108.3368 -21.6147 -7.7786 0.0000 0.0000 0.0000
# 2 -21.6147 59.3550 3.6185 0.0000 0.0000 0.0000
# 3 -7.7786 3.6185 90.8732 0.0000 0.0000 0.0000
# 4 0.0000 0.0000 0.0000 9.2000 0.0000 0.0000
# 5 0.0000 0.0000 0.0000 0.0000 -3.8133 0.0000
# 6 0.0000 0.0000 0.0000 0.0000 0.0000 -19.3120
#
#
#
# Elastic Compliance Matrix: (Units=1/GPa)
#
#
# Indices 1 2 3 4 5 6 
#
# 1 0.009999 0.003598 0.000713 0.000000 0.000000 0.000000
# 2 0.003598 0.018183 -0.000416 0.000000 0.000000 0.000000
# 3 0.000713 -0.000416 0.011082 0.000000 0.000000 0.000000
# 4 0.000000 0.000000 0.000000 0.108696 0.000000 0.000000
# 5 0.000000 0.000000 0.000000 0.000000 -0.262241 0.000000
# 6 0.000000 0.000000 0.000000 0.000000 0.000000 -0.051781
#
#
# Mechanical properties :
#
#
# Convention : Reuss Voigt Hill
#
# Bulk Modulus (GPa) = 21.25223 23.00171 22.12697
# Shear Modulus (GPa) = -31.61235 16.17092 -7.72071
#
# Velocity S-wave (km/s) = -3.83084 2.73989 -1.89319
# Velocity P-wave (km/s) = 3.11468 4.54833 2.34373
#
# Compressibility (1/GPa) = 0.04705389
#
# Stress axis : x y z
#
# Youngs Moduli (GPa) = 100.00516 54.99533 90.23706
#
# Poissons Ratio (x) = -0.19787 -0.06431
# Poissons Ratio (y) = -0.35981 0.03754
# Poissons Ratio (z) = -0.07127 0.02288
#
# Static dielectric constant tensor:
#      x y z
#    x 1.721440 0.000000 0.000000 
#    y 0.000000 1.876770 0.000000 
#    z 0.000000 0.000000 1.781650 
# 
# From -- ./inp_files/44927.got.cif
#   From: 2010.05.17/outbox.cif.g08.bks.cpg/sg64_23_cif.got.tgz:44927.got - 2010.06.03 16:29:19.
