data_PCOD9479591
_publ_section_title
;
Structure prediction by ZEFSAII (Michael W. Deem and Ramdas Pophale) SiO2 
 PCOD9479591
Probable space group: C M C A
;
_chemical_formula_sum "Si O2"
_cell_formula_units_Z 88
_cell_length_a 25.534067
_cell_length_b 9.447222
_cell_length_c 15.584947
_cell_angle_alpha 90.000000
_cell_angle_beta 90.000000
_cell_angle_gamma 90.000000
_cell_volume 3759.494417
_symmetry_space_group_name_H-M "C M C A"
_symmetry_group_IT_number 64
_symmetry_cell_setting 'orthorhombic'
loop_
_space_group_symop_operation_xyz
x,y,z
-x,1/2-y,1/2+z
x,-y,-z
-x,1/2+y,1/2-z
-x,-y,-z
x,1/2+y,1/2-z
-x,y,z
x,1/2-y,1/2+z
1/2+x,1/2+y,z
1/2-x,-y,1/2+z
1/2+x,1/2-y,-z
1/2-x,y,1/2-z
1/2-x,1/2-y,-z
1/2+x,y,1/2-z
1/2-x,1/2+y,z
1/2+x,-y,1/2+z
loop_
_atom_site_type_symbol
_atom_site_label
_atom_site_fract_x
_atom_site_fract_y
_atom_site_fract_z
Si Si1 0.724016 0.500000 0.000000
Si Si2 0.374350 0.436120 0.280667
Si Si3 0.560718 0.049169 0.624935
Si Si4 0.637516 0.203911 0.413938
Si Si5 0.781743 0.862915 0.166750
Si Si6 0.368603 0.680132 0.414896
O O1 0.686421 0.615782 0.046688
O O2 0.749573 0.432508 0.086084
O O3 0.427346 0.444409 0.226427
O O4 0.361973 0.283712 0.322930
O O5 0.327173 0.460876 0.211219
O O6 0.379666 0.550902 0.353988
O O7 0.500000 0.047508 0.604379
O O8 0.590251 0.191255 0.595982
O O9 0.590425 0.910249 0.589337
O O10 0.632224 0.330139 0.483301
O O11 0.750000 0.817237 0.250000
O O12 0.813371 0.738716 0.121041
#
# Coordination Sequence:
#
# PCOD9479591 Si02
#       6
#     8  16  16  16  16  16
#     4  10  20  44  67  96 132 172 225 270 328 392
#     4  11  23  39  65  94 133 169 214 277 333 382
#     4  11  22  39  66  93 126 177 222 262 331 404
#     4  11  20  42  66  91 127 174 215 270 326 391
#     4  10  22  41  67  95 133 177 220 272 328 393
#     4  10  22  41  62  94 130 170 217 274 331 389
#
# _framework density 23.407402000000001
#
# number of rings (size 3 to 8) (size 9 to 14) (size 15 to 20)
#    0.000    1.455    5.455    2.727    0.000    5.091 
#    3.273    1.818    0.000    3.273    0.000    0.000 
#    0.000    0.000    0.000    0.000    0.000    0.000 
#
# Total GULP energy -245587.712986 kJ/mol
# GULP energy per Si atom -5581.538932 kJ/mol
# Density = 2.335413 g / cm^3
# Si number density = 23.407402 Si / 1000 Ang^3
#
#
#
# Elastic Constant Matrix: (Units=GPa)
#
#
# Indices 1 2 3 4 5 6 
#
# 1 89.9675 9.2703 26.1208 0.0000 0.0000 0.0000
# 2 9.2703 77.7587 42.7552 0.0000 0.0000 0.0000
# 3 26.1208 42.7552 156.0309 0.0000 0.0000 0.0000
# 4 0.0000 0.0000 0.0000 45.4178 0.0000 0.0000
# 5 0.0000 0.0000 0.0000 0.0000 11.5649 0.0000
# 6 0.0000 0.0000 0.0000 0.0000 0.0000 7.7937
#
#
#
# Elastic Compliance Matrix: (Units=1/GPa)
#
#
# Indices 1 2 3 4 5 6 
#
# 1 0.011692 -0.000374 -0.001855 0.000000 0.000000 0.000000
# 2 -0.000374 0.015154 -0.004090 0.000000 0.000000 0.000000
# 3 -0.001855 -0.004090 0.007840 0.000000 0.000000 0.000000
# 4 0.000000 0.000000 0.000000 0.022018 0.000000 0.000000
# 5 0.000000 0.000000 0.000000 0.000000 0.086469 0.000000
# 6 0.000000 0.000000 0.000000 0.000000 0.000000 0.128309
#
#
# Mechanical properties :
#
#
# Convention : Reuss Voigt Hill
#
# Bulk Modulus (GPa) = 45.35421 53.33886 49.34654
# Shear Modulus (GPa) = 17.15453 29.32932 23.24193
#
# Velocity S-wave (km/s) = 2.71009 3.54361 3.15450
# Velocity P-wave (km/s) = 5.40471 6.29122 5.86474
#
# Compressibility (1/GPa) = 0.02204867
#
# Stress axis : x y z
#
# Youngs Moduli (GPa) = 85.52709 65.99094 127.54835
#
# Poissons Ratio (x) = 0.02468 0.23659
# Poissons Ratio (y) = 0.03199 0.52164
# Poissons Ratio (z) = 0.15864 0.26989
#
# Static dielectric constant tensor:
#      x y z
#    x 1.898100 0.000000 0.000000 
#    y 0.000000 1.913120 0.000000 
#    z 0.000000 0.000000 1.997450 
# 
# From -- ./inp_files/27938.got.cif
#   From: 2010.05.17/outbox.cif.g08.bks.cpg/sg64_14_cif.got.tgz:27938.got - 2010.06.03 16:29:19.
