data_PCOD9479329
_publ_section_title
;
Structure prediction by ZEFSAII (Michael W. Deem and Ramdas Pophale) SiO2 
 PCOD9479329
Probable space group: C M C A
;
_chemical_formula_sum "Si O2"
_cell_formula_units_Z 80
_cell_length_a 16.471426
_cell_length_b 8.665416
_cell_length_c 25.577119
_cell_angle_alpha 90.000000
_cell_angle_beta 90.000000
_cell_angle_gamma 90.000000
_cell_volume 3650.667170
_symmetry_space_group_name_H-M "C M C A"
_symmetry_group_IT_number 64
_symmetry_cell_setting 'orthorhombic'
loop_
_space_group_symop_operation_xyz
x,y,z
-x,1/2-y,1/2+z
x,-y,-z
-x,1/2+y,1/2-z
-x,-y,-z
x,1/2+y,1/2-z
-x,y,z
x,1/2-y,1/2+z
1/2+x,1/2+y,z
1/2-x,-y,1/2+z
1/2+x,1/2-y,-z
1/2-x,y,1/2-z
1/2-x,1/2-y,-z
1/2+x,y,1/2-z
1/2-x,1/2+y,z
1/2+x,-y,1/2+z
loop_
_atom_site_type_symbol
_atom_site_label
_atom_site_fract_x
_atom_site_fract_y
_atom_site_fract_z
Si Si1 0.500000 0.403989 0.860130
Si Si2 0.000000 0.904803 0.610895
Si Si3 0.500000 0.219147 0.952945
Si Si4 0.227763 0.500000 0.500000
Si Si5 0.363220 0.774002 0.708983
Si Si6 0.000000 0.720017 0.706097
Si Si7 0.862913 0.723178 0.040155
Si Si8 0.750000 0.037625 0.750000
O O1 0.500000 0.381182 0.922175
O O2 0.579248 0.312968 0.839235
O O3 0.500000 0.571777 0.832514
O O4 0.000000 0.877651 0.672437
O O5 0.080101 0.820309 0.588345
O O6 0.000000 0.076049 0.587351
O O7 0.421669 0.203759 0.989819
O O8 0.172633 0.605472 0.537195
O O9 0.286700 0.609850 0.466497
O O10 0.422405 0.723766 0.756292
O O11 0.294296 0.643803 0.706852
O O12 0.316540 0.928662 0.724334
#
# Coordination Sequence:
#
# PCOD9479329 Si02
#       8
#     8   8   8   8  16   8  16   8
#     4  11  24  40  62  91 120 158 203 243 292 361
#     4  11  23  40  62  87 119 160 203 245 292 356
#     4  11  23  40  62  87 119 160 203 245 292 356
#     4  10  20  38  66  86 118 160 192 254 302 350
#     4  10  22  42  64  84 122 156 200 242 298 350
#     4  11  24  40  62  91 120 158 203 243 292 361
#     4  10  21  42  63  85 121 157 203 244 301 350
#     4  10  20  40  66  86 116 162 192 246 302 348
#
# _framework density 21.913803000000001
#
# number of rings (size 3 to 8) (size 9 to 14) (size 15 to 20)
#    0.000    1.600    4.000    0.600    5.600    0.800 
#    0.000   12.000    0.000    0.000    0.000    0.000 
#    0.000    0.000    0.000    0.000    0.000    0.000 
#
# Total GULP energy -223646.030427 kJ/mol
# GULP energy per Si atom -5591.150761 kJ/mol
# Density = 2.186393 g / cm^3
# Si number density = 21.913803 Si / 1000 Ang^3
#
#
#
# Elastic Constant Matrix: (Units=GPa)
#
#
# Indices 1 2 3 4 5 6 
#
# 1 102.4795 45.1195 1.5951 0.0000 0.0000 0.0000
# 2 45.1195 96.4053 2.9932 0.0000 0.0000 0.0000
# 3 1.5951 2.9932 38.9526 0.0000 0.0000 0.0000
# 4 0.0000 0.0000 0.0000 21.5625 0.0000 0.0000
# 5 0.0000 0.0000 0.0000 0.0000 3.1755 0.0000
# 6 0.0000 0.0000 0.0000 0.0000 0.0000 21.5303
#
#
#
# Elastic Compliance Matrix: (Units=1/GPa)
#
#
# Indices 1 2 3 4 5 6 
#
# 1 0.012291 -0.005750 -0.000061 0.000000 0.000000 0.000000
# 2 -0.005750 0.013088 -0.000770 0.000000 0.000000 0.000000
# 3 -0.000061 -0.000770 0.025734 0.000000 0.000000 0.000000
# 4 0.000000 0.000000 0.000000 0.046377 0.000000 0.000000
# 5 0.000000 0.000000 0.000000 0.000000 0.314910 0.000000
# 6 0.000000 0.000000 0.000000 0.000000 0.000000 0.046446
#
#
# Mechanical properties :
#
#
# Convention : Reuss Voigt Hill
#
# Bulk Modulus (GPa) = 26.35138 37.47254 31.91196
# Shear Modulus (GPa) = 10.31652 21.79563 16.05608
#
# Velocity S-wave (km/s) = 2.17209 3.15716 2.70977
# Velocity P-wave (km/s) = 4.28273 5.51610 4.93807
#
# Compressibility (1/GPa) = 0.03794867
#
# Stress axis : x y z
#
# Youngs Moduli (GPa) = 81.36174 76.40531 38.85918
#
# Poissons Ratio (x) = 0.43936 0.00239
# Poissons Ratio (y) = 0.46786 0.02993
# Poissons Ratio (z) = 0.00500 0.05885
#
# Static dielectric constant tensor:
#      x y z
#    x 1.815950 0.000000 0.000000 
#    y 0.000000 1.838540 0.000000 
#    z 0.000000 0.000000 1.776640 
# 
# From -- ./inp_files/35420.got.cif
#   From: 2010.05.17/outbox.cif.g08.bks.cpg/sg64_18_cif.got.tgz:35420.got - 2010.06.03 16:29:19.
