data_PCOD9479247
_publ_section_title
;
Structure prediction by ZEFSAII (Michael W. Deem and Ramdas Pophale) SiO2 
 PCOD9479247
Probable space group: C M C A
;
_chemical_formula_sum "Si O2"
_cell_formula_units_Z 80
_cell_length_a 29.829898
_cell_length_b 16.046272
_cell_length_c 8.282941
_cell_angle_alpha 90.000000
_cell_angle_beta 90.000000
_cell_angle_gamma 90.000000
_cell_volume 3964.701415
_symmetry_space_group_name_H-M "C M C A"
_symmetry_group_IT_number 64
_symmetry_cell_setting 'orthorhombic'
loop_
_space_group_symop_operation_xyz
x,y,z
-x,1/2-y,1/2+z
x,-y,-z
-x,1/2+y,1/2-z
-x,-y,-z
x,1/2+y,1/2-z
-x,y,z
x,1/2-y,1/2+z
1/2+x,1/2+y,z
1/2-x,-y,1/2+z
1/2+x,1/2-y,-z
1/2-x,y,1/2-z
1/2-x,1/2-y,-z
1/2+x,y,1/2-z
1/2-x,1/2+y,z
1/2+x,-y,1/2+z
loop_
_atom_site_type_symbol
_atom_site_label
_atom_site_fract_x
_atom_site_fract_y
_atom_site_fract_z
Si Si1 0.675464 0.743784 0.081453
Si Si2 0.208625 0.873727 0.164963
Si Si3 0.616634 0.027123 0.677863
Si Si4 0.620780 0.151986 0.171030
Si Si5 0.050735 0.595351 0.933122
O O1 0.700933 0.798487 0.210625
O O2 0.631563 0.701906 0.164679
O O3 0.707744 0.672674 0.007662
O O4 0.657233 0.808743 0.949340
O O5 0.250000 0.920533 0.250000
O O6 0.163937 0.927859 0.159405
O O7 0.582536 0.086410 0.776101
O O8 0.599870 0.000000 0.500000
O O9 0.625693 0.055496 0.217347
O O10 0.574353 0.151780 0.070675
O O11 0.000000 0.621830 0.897301
O O12 0.048612 0.500000 0.000000
#
# Coordination Sequence:
#
# PCOD9479247 Si02
#       5
#    16  16  16  16  16
#     4  10  21  38  61  83 118 166 196 254 307 372
#     4  11  22  39  59  89 120 161 210 249 307 367
#     4  11  21  39  60  90 124 160 204 260 307 369
#     4  10  20  38  62  82 121 157 204 247 314 369
#     4   9  19  37  63  88 114 153 200 248 304 367
#
# _framework density 20.178065
#
# number of rings (size 3 to 8) (size 9 to 14) (size 15 to 20)
#    0.000    1.800    4.000    0.600    0.000    0.400 
#    3.600    2.000    0.000    0.000    0.000    0.000 
#    0.000    0.000    0.000    0.000    0.000    0.000 
#
# Total GULP energy -222773.353856 kJ/mol
# GULP energy per Si atom -5569.333846 kJ/mol
# Density = 2.013214 g / cm^3
# Si number density = 20.178065 Si / 1000 Ang^3
#
#
#
# Elastic Constant Matrix: (Units=GPa)
#
#
# Indices 1 2 3 4 5 6 
#
# 1 53.1233 -0.2109 17.6890 0.0000 0.0000 0.0000
# 2 -0.2109 29.0682 13.8396 0.0000 0.0000 0.0000
# 3 17.6890 13.8396 84.7005 0.0000 0.0000 0.0000
# 4 0.0000 0.0000 0.0000 30.3446 0.0000 0.0000
# 5 0.0000 0.0000 0.0000 0.0000 15.5045 0.0000
# 6 0.0000 0.0000 0.0000 0.0000 0.0000 23.1724
#
#
#
# Elastic Compliance Matrix: (Units=1/GPa)
#
#
# Indices 1 2 3 4 5 6 
#
# 1 0.020379 0.002358 -0.004641 0.000000 0.000000 0.000000
# 2 0.002358 0.037577 -0.006632 0.000000 0.000000 0.000000
# 3 -0.004641 -0.006632 0.013859 0.000000 0.000000 0.000000
# 4 0.000000 0.000000 0.000000 0.032955 0.000000 0.000000
# 5 0.000000 0.000000 0.000000 0.000000 0.064497 0.000000
# 6 0.000000 0.000000 0.000000 0.000000 0.000000 0.043155
#
#
# Mechanical properties :
#
#
# Convention : Reuss Voigt Hill
#
# Bulk Modulus (GPa) = 18.52428 25.50304 22.01366
# Shear Modulus (GPa) = 20.14118 22.84260 21.49189
#
# Velocity S-wave (km/s) = 3.16281 3.36825 3.26715
# Velocity P-wave (km/s) = 4.74744 5.27193 5.01654
#
# Compressibility (1/GPa) = 0.05398319
#
# Stress axis : x y z
#
# Youngs Moduli (GPa) = 49.07030 26.61232 72.15402
#
# Poissons Ratio (x) = -0.06274 0.33488
# Poissons Ratio (y) = -0.11569 0.47854
# Poissons Ratio (z) = 0.22774 0.17650
#
# Static dielectric constant tensor:
#      x y z
#    x 1.758990 0.000000 0.000000 
#    y 0.000000 1.724790 0.000000 
#    z 0.000000 0.000000 1.785130 
# 
# From -- ./inp_files/11019.got.cif
#   From: 2010.05.17/outbox.cif.g08.bks.cpg/sg64_6_cif.got.tgz:11019.got - 2010.06.03 16:29:19.
