data_PCOD9479333
_publ_section_title
;
Structure prediction by ZEFSAII (Michael W. Deem and Ramdas Pophale) SiO2 
 PCOD9479333
Probable space group: C M C A
;
_chemical_formula_sum "Si O2"
_cell_formula_units_Z 112
_cell_length_a 17.153892
_cell_length_b 14.133300
_cell_length_c 24.031427
_cell_angle_alpha 90.000000
_cell_angle_beta 90.000000
_cell_angle_gamma 90.000000
_cell_volume 5826.205640
_symmetry_space_group_name_H-M "C M C A"
_symmetry_group_IT_number 64
_symmetry_cell_setting 'orthorhombic'
loop_
_space_group_symop_operation_xyz
x,y,z
-x,1/2-y,1/2+z
x,-y,-z
-x,1/2+y,1/2-z
-x,-y,-z
x,1/2+y,1/2-z
-x,y,z
x,1/2-y,1/2+z
1/2+x,1/2+y,z
1/2-x,-y,1/2+z
1/2+x,1/2-y,-z
1/2-x,y,1/2-z
1/2-x,1/2-y,-z
1/2+x,y,1/2-z
1/2-x,1/2+y,z
1/2+x,-y,1/2+z
loop_
_atom_site_type_symbol
_atom_site_label
_atom_site_fract_x
_atom_site_fract_y
_atom_site_fract_z
Si Si1 0.905774 0.887998 0.988873
Si Si2 0.592238 0.740979 0.905618
Si Si3 0.843809 0.119244 0.129027
Si Si4 0.090379 0.221420 0.228506
Si Si5 0.410471 0.563163 0.837927
Si Si6 0.337015 0.575858 0.724046
Si Si7 0.670146 0.383161 0.666326
O O1 0.861971 0.851860 0.933680
O O2 0.000000 0.882219 0.981027
O O3 0.884075 0.819465 0.040310
O O4 0.889423 0.000000 0.000000
O O5 0.500000 0.753745 0.909555
O O6 0.608888 0.670258 0.853905
O O7 0.629014 0.840034 0.888106
O O8 0.906039 0.158670 0.172910
O O9 0.855246 0.006507 0.128958
O O10 0.760552 0.140637 0.156058
O O11 0.134257 0.318527 0.211879
O O12 0.135032 0.167199 0.278457
O O13 0.000000 0.239135 0.244658
O O14 0.500000 0.547248 0.854254
O O15 0.395185 0.545144 0.773547
O O16 0.250000 0.577067 0.750000
O O17 0.338872 0.495427 0.677037
#
# Coordination Sequence:
#
# PCOD9479333 Si02
#       7
#    16  16  16  16  16  16  16
#     4  10  20  38  66  95 120 154 205 260 307 353
#     4  10  22  39  63  92 121 156 203 259 307 359
#     4  12  23  38  60  93 128 159 199 255 311 367
#     4  12  25  39  61  90 122 165 209 252 303 367
#     4  11  20  35  62  91 120 157 203 253 300 359
#     4  12  23  39  58  87 125 164 201 244 304 368
#     4  12  24  39  59  89 127 164 197 246 316 371
#
# _framework density 19.223489000000001
#
# number of rings (size 3 to 8) (size 9 to 14) (size 15 to 20)
#    0.000    0.714    5.714    3.429    0.000    2.286 
#    0.000    0.000    0.000    0.000    0.000    3.000 
#    0.000    0.000    0.000    0.000    0.000    0.000 
#
# Total GULP energy -312475.797829 kJ/mol
# GULP energy per Si atom -5579.924961 kJ/mol
# Density = 1.917973 g / cm^3
# Si number density = 19.223489 Si / 1000 Ang^3
#
#
#
# Elastic Constant Matrix: (Units=GPa)
#
#
# Indices 1 2 3 4 5 6 
#
# 1 79.7267 32.8323 26.0977 0.0000 0.0000 0.0000
# 2 32.8323 78.9911 18.8554 0.0000 0.0000 0.0000
# 3 26.0977 18.8554 84.4698 0.0000 0.0000 0.0000
# 4 0.0000 0.0000 0.0000 28.0455 0.0000 0.0000
# 5 0.0000 0.0000 0.0000 0.0000 17.0912 0.0000
# 6 0.0000 0.0000 0.0000 0.0000 0.0000 23.4314
#
#
#
# Elastic Compliance Matrix: (Units=1/GPa)
#
#
# Indices 1 2 3 4 5 6 
#
# 1 0.016152 -0.005833 -0.003688 0.000000 0.000000 0.000000
# 2 -0.005833 0.015479 -0.001653 0.000000 0.000000 0.000000
# 3 -0.003688 -0.001653 0.013347 0.000000 0.000000 0.000000
# 4 0.000000 0.000000 0.000000 0.035656 0.000000 0.000000
# 5 0.000000 0.000000 0.000000 0.000000 0.058510 0.000000
# 6 0.000000 0.000000 0.000000 0.000000 0.000000 0.042678
#
#
# Mechanical properties :
#
#
# Convention : Reuss Voigt Hill
#
# Bulk Modulus (GPa) = 44.19070 44.30646 44.24858
# Shear Modulus (GPa) = 23.61676 24.74044 24.17860
#
# Velocity S-wave (km/s) = 3.50885 3.59136 3.55034
# Velocity P-wave (km/s) = 6.28123 6.34785 6.31463
#
# Compressibility (1/GPa) = 0.02262920
#
# Stress axis : x y z
#
# Youngs Moduli (GPa) = 61.91038 64.60456 74.92283
#
# Poissons Ratio (x) = 0.37685 0.27634
# Poissons Ratio (y) = 0.36114 0.12384
# Poissons Ratio (z) = 0.22835 0.10679
#
# Static dielectric constant tensor:
#      x y z
#    x 1.676950 0.000000 0.000000 
#    y 0.000000 1.705960 0.000000 
#    z 0.000000 0.000000 1.702400 
# 
# From -- ./inp_files/50087.got.cif
#   From: 2010.05.17/outbox.cif.g08.bks.cpg/sg64_26_cif.got.tgz:50087.got - 2010.06.03 16:29:19.
