data_PCOD9479677
_publ_section_title
;
Structure prediction by ZEFSAII (Michael W. Deem and Ramdas Pophale) SiO2 
 PCOD9479677
Probable space group: C M C A
;
_chemical_formula_sum "Si O2"
_cell_formula_units_Z 112
_cell_length_a 13.414074
_cell_length_b 12.350666
_cell_length_c 26.727921
_cell_angle_alpha 90.000000
_cell_angle_beta 90.000000
_cell_angle_gamma 90.000000
_cell_volume 4428.088112
_symmetry_space_group_name_H-M "C M C A"
_symmetry_group_IT_number 64
_symmetry_cell_setting 'orthorhombic'
loop_
_space_group_symop_operation_xyz
x,y,z
-x,1/2-y,1/2+z
x,-y,-z
-x,1/2+y,1/2-z
-x,-y,-z
x,1/2+y,1/2-z
-x,y,z
x,1/2-y,1/2+z
1/2+x,1/2+y,z
1/2-x,-y,1/2+z
1/2+x,1/2-y,-z
1/2-x,y,1/2-z
1/2-x,1/2-y,-z
1/2+x,y,1/2-z
1/2-x,1/2+y,z
1/2+x,-y,1/2+z
loop_
_atom_site_type_symbol
_atom_site_label
_atom_site_fract_x
_atom_site_fract_y
_atom_site_fract_z
Si Si1 0.121256 0.740185 0.268001
Si Si2 0.119141 0.363772 0.411773
Si Si3 0.609415 0.560610 0.155146
Si Si4 0.342178 0.769236 0.575124
Si Si5 0.118244 0.336342 0.839851
Si Si6 0.621688 0.915389 0.155078
Si Si7 0.710550 0.881263 0.002968
O O1 0.153711 0.637595 0.302203
O O2 0.152950 0.720288 0.211418
O O3 0.147097 0.855450 0.292755
O O4 0.000000 0.738394 0.269800
O O5 0.147237 0.450436 0.368744
O O6 0.130841 0.247684 0.384955
O O7 0.193633 0.382094 0.458584
O O8 0.000000 0.378710 0.423952
O O9 0.500000 0.530318 0.174686
O O10 0.602320 0.642034 0.107694
O O11 0.336760 0.668228 0.613737
O O12 0.370414 0.701646 0.525316
O O13 0.255707 0.841027 0.548870
O O14 0.155076 0.459474 0.847790
O O15 0.000000 0.349580 0.833527
O O16 0.500000 0.913277 0.149167
O O17 0.668621 0.000000 0.000000
#
# Coordination Sequence:
#
# PCOD9479677 Si02
#       7
#    16  16  16  16  16  16  16
#     4   8  15  27  50  82 114 147 182 220 269 325
#     4  10  21  35  55  85 115 142 184 236 287 327
#     4   9  17  33  58  86 113 145 183 230 278 328
#     4  10  21  37  58  79 107 143 192 228 279 344
#     4   9  18  31  50  83 119 147 183 227 273 329
#     4   9  18  33  54  83 116 151 189 229 279 332
#     4  11  23  39  57  82 106 144 191 237 284 342
#
# _framework density 25.293084
#
# number of rings (size 3 to 8) (size 9 to 14) (size 15 to 20)
#    0.000    2.571    1.429    1.286    2.000    3.714 
#    0.000    0.000    0.000    7.714    0.000    0.000 
#    0.000    0.000    0.000    0.000    0.000    0.000 
#
# Total GULP energy -312336.585544 kJ/mol
# GULP energy per Si atom -5577.439028 kJ/mol
# Density = 2.523552 g / cm^3
# Si number density = 25.293084 Si / 1000 Ang^3
#
#
#
# Elastic Constant Matrix: (Units=GPa)
#
#
# Indices 1 2 3 4 5 6 
#
# 1 80.4589 9.2790 28.6318 0.0000 0.0000 0.0000
# 2 9.2790 155.5424 -5.5436 0.0000 0.0000 0.0000
# 3 28.6318 -5.5436 59.9475 0.0000 0.0000 0.0000
# 4 0.0000 0.0000 0.0000 28.5744 0.0000 0.0000
# 5 0.0000 0.0000 0.0000 0.0000 30.6450 0.0000
# 6 0.0000 0.0000 0.0000 0.0000 0.0000 26.6024
#
#
#
# Elastic Compliance Matrix: (Units=1/GPa)
#
#
# Indices 1 2 3 4 5 6 
#
# 1 0.015182 -0.001168 -0.007359 0.000000 0.000000 0.000000
# 2 -0.001168 0.006540 0.001163 0.000000 0.000000 0.000000
# 3 -0.007359 0.001163 0.020304 0.000000 0.000000 0.000000
# 4 0.000000 0.000000 0.000000 0.034996 0.000000 0.000000
# 5 0.000000 0.000000 0.000000 0.000000 0.032632 0.000000
# 6 0.000000 0.000000 0.000000 0.000000 0.000000 0.037591
#
#
# Mechanical properties :
#
#
# Convention : Reuss Voigt Hill
#
# Bulk Modulus (GPa) = 36.63417 40.07592 38.35505
# Shear Modulus (GPa) = 29.22728 34.73647 31.98188
#
# Velocity S-wave (km/s) = 3.40302 3.70991 3.55977
# Velocity P-wave (km/s) = 5.47321 5.85066 5.66508
#
# Compressibility (1/GPa) = 0.02729692
#
# Stress axis : x y z
#
# Youngs Moduli (GPa) = 65.86633 152.89981 49.25217
#
# Poissons Ratio (x) = 0.17859 0.36246
# Poissons Ratio (y) = 0.07693 -0.05726
# Poissons Ratio (z) = 0.48473 -0.17777
#
# Static dielectric constant tensor:
#      x y z
#    x 2.109490 0.000000 0.000000 
#    y 0.000000 1.967580 0.000000 
#    z 0.000000 0.000000 1.995610 
# 
# From -- ./inp_files/46365.got.cif
#   From: 2010.05.17/outbox.cif.g08.bks.cpg/sg64_24_cif.got.tgz:46365.got - 2010.06.03 16:29:19.
