data_PCOD9479278
_publ_section_title
;
Structure prediction by ZEFSAII (Michael W. Deem and Ramdas Pophale) SiO2 
 PCOD9479278
Probable space group: C M C A
;
_chemical_formula_sum "Si O2"
_cell_formula_units_Z 112
_cell_length_a 14.191538
_cell_length_b 27.467264
_cell_length_c 14.205053
_cell_angle_alpha 90.000000
_cell_angle_beta 90.000000
_cell_angle_gamma 90.000000
_cell_volume 5537.168309
_symmetry_space_group_name_H-M "C M C A"
_symmetry_group_IT_number 64
_symmetry_cell_setting 'orthorhombic'
loop_
_space_group_symop_operation_xyz
x,y,z
-x,1/2-y,1/2+z
x,-y,-z
-x,1/2+y,1/2-z
-x,-y,-z
x,1/2+y,1/2-z
-x,y,z
x,1/2-y,1/2+z
1/2+x,1/2+y,z
1/2-x,-y,1/2+z
1/2+x,1/2-y,-z
1/2-x,y,1/2-z
1/2-x,1/2-y,-z
1/2+x,y,1/2-z
1/2-x,1/2+y,z
1/2+x,-y,1/2+z
loop_
_atom_site_type_symbol
_atom_site_label
_atom_site_fract_x
_atom_site_fract_y
_atom_site_fract_z
Si Si1 0.604516 0.308255 0.390952
Si Si2 0.106547 0.317609 0.335506
Si Si3 0.890885 0.980901 0.390915
Si Si4 0.743444 0.767616 0.864143
Si Si5 0.760770 0.119440 0.107082
Si Si6 0.757801 0.606000 0.905892
Si Si7 0.891148 0.421433 0.774173
O O1 0.500000 0.303069 0.428639
O O2 0.601404 0.311668 0.277147
O O3 0.671918 0.263112 0.408910
O O4 0.656409 0.356568 0.423637
O O5 0.152638 0.267798 0.376122
O O6 0.178675 0.362584 0.351960
O O7 0.000000 0.325982 0.370617
O O8 0.810200 0.941546 0.368226
O O9 0.000000 0.962298 0.386549
O O10 0.878752 0.000000 0.500000
O O11 0.883132 0.023457 0.312819
O O12 0.750000 0.771247 0.750000
O O13 0.759548 0.822298 0.898483
O O14 0.830300 0.096076 0.184744
O O15 0.655109 0.107553 0.139816
O O16 0.784368 0.095447 0.008149
O O17 0.000000 0.410339 0.758468
#
# Coordination Sequence:
#
# PCOD9479278 Si02
#       7
#    16  16  16  16  16  16  16
#     4   9  19  36  57  85 117 157 206 248 292 352
#     4   9  20  38  56  82 119 163 206 241 291 359
#     4  10  20  38  63  88 111 146 197 252 305 353
#     4   9  17  34  55  80 118 159 197 244 295 351
#     4  11  22  37  57  92 122 154 197 246 302 361
#     4  11  21  36  61  87 123 155 193 254 304 353
#     4  10  22  40  59  85 121 156 197 243 295 359
#
# _framework density 20.226945000000001
#
# number of rings (size 3 to 8) (size 9 to 14) (size 15 to 20)
#    0.000    2.143    2.857    1.714    0.000    4.571 
#    5.143    1.429    0.000    0.429    0.000    0.000 
#    0.000    0.000    0.000    0.000    0.000    0.000 
#
# Total GULP energy -312101.008697 kJ/mol
# GULP energy per Si atom -5573.232298 kJ/mol
# Density = 2.018091 g / cm^3
# Si number density = 20.226945 Si / 1000 Ang^3
#
#
#
# Elastic Constant Matrix: (Units=GPa)
#
#
# Indices 1 2 3 4 5 6 
#
# 1 146.1043 68.2641 14.9706 0.0000 0.0000 0.0000
# 2 68.2641 96.2189 14.1973 0.0000 0.0000 0.0000
# 3 14.9706 14.1973 50.1367 0.0000 0.0000 0.0000
# 4 0.0000 0.0000 0.0000 7.6033 0.0000 0.0000
# 5 0.0000 0.0000 0.0000 0.0000 8.5444 0.0000
# 6 0.0000 0.0000 0.0000 0.0000 0.0000 10.5362
#
#
#
# Elastic Compliance Matrix: (Units=1/GPa)
#
#
# Indices 1 2 3 4 5 6 
#
# 1 0.010291 -0.007146 -0.001049 0.000000 0.000000 0.000000
# 2 -0.007146 0.015809 -0.002343 0.000000 0.000000 0.000000
# 3 -0.001049 -0.002343 0.020922 0.000000 0.000000 0.000000
# 4 0.000000 0.000000 0.000000 0.131522 0.000000 0.000000
# 5 0.000000 0.000000 0.000000 0.000000 0.117036 0.000000
# 6 0.000000 0.000000 0.000000 0.000000 0.000000 0.094911
#
#
# Mechanical properties :
#
#
# Convention : Reuss Voigt Hill
#
# Bulk Modulus (GPa) = 38.54253 54.14710 46.34482
# Shear Modulus (GPa) = 11.89865 18.33863 15.11864
#
# Velocity S-wave (km/s) = 2.42803 3.01432 2.73692
# Velocity P-wave (km/s) = 5.19200 6.24041 5.74019
#
# Compressibility (1/GPa) = 0.02594536
#
# Stress axis : x y z
#
# Youngs Moduli (GPa) = 97.17390 63.25667 47.79623
#
# Poissons Ratio (x) = 0.45204 0.05015
# Poissons Ratio (y) = 0.69442 0.11197
# Poissons Ratio (z) = 0.10196 0.14819
#
# Static dielectric constant tensor:
#      x y z
#    x 1.730000 0.000000 0.000000 
#    y 0.000000 1.753310 0.000000 
#    z 0.000000 0.000000 1.785940 
# 
# From -- ./inp_files/24423.got.cif
#   From: 2010.05.17/outbox.cif.g08.bks.cpg/sg64_13_cif.got.tgz:24423.got - 2010.06.03 16:29:19.
