data_PCOD9479617
_publ_section_title
;
Structure prediction by ZEFSAII (Michael W. Deem and Ramdas Pophale) SiO2 
 PCOD9479617
Probable space group: C M C A
;
_chemical_formula_sum "Si O2"
_cell_formula_units_Z 104
_cell_length_a 25.971628
_cell_length_b 18.791238
_cell_length_c 10.244440
_cell_angle_alpha 90.000000
_cell_angle_beta 90.000000
_cell_angle_gamma 90.000000
_cell_volume 4999.686694
_symmetry_space_group_name_H-M "C M C A"
_symmetry_group_IT_number 64
_symmetry_cell_setting 'orthorhombic'
loop_
_space_group_symop_operation_xyz
x,y,z
-x,1/2-y,1/2+z
x,-y,-z
-x,1/2+y,1/2-z
-x,-y,-z
x,1/2+y,1/2-z
-x,y,z
x,1/2-y,1/2+z
1/2+x,1/2+y,z
1/2-x,-y,1/2+z
1/2+x,1/2-y,-z
1/2-x,y,1/2-z
1/2-x,1/2-y,-z
1/2+x,y,1/2-z
1/2-x,1/2+y,z
1/2+x,-y,1/2+z
loop_
_atom_site_type_symbol
_atom_site_label
_atom_site_fract_x
_atom_site_fract_y
_atom_site_fract_z
Si Si1 0.887480 0.905725 0.276794
Si Si2 0.500000 0.704240 0.101917
Si Si3 0.606247 0.849898 0.511178
Si Si4 0.113493 0.934788 0.725348
Si Si5 0.323044 0.719964 0.600579
Si Si6 0.500000 0.135670 0.857978
Si Si7 0.203169 0.325204 0.829124
Si Si8 0.000000 0.099699 0.346399
O O1 0.858706 0.846658 0.362098
O O2 0.948268 0.900754 0.307820
O O3 0.866630 0.985415 0.294421
O O4 0.882197 0.884009 0.126586
O O5 0.449686 0.686999 0.018125
O O6 0.500000 0.780770 0.169749
O O7 0.500000 0.651532 0.223835
O O8 0.608128 0.909902 0.623907
O O9 0.645063 0.785813 0.541071
O O10 0.152111 0.874416 0.671150
O O11 0.056014 0.936514 0.664664
O O12 0.287028 0.693503 0.480708
O O13 0.304740 0.754920 0.737849
O O14 0.500000 0.135518 0.014004
O O15 0.250000 0.362376 0.750000
#
# Coordination Sequence:
#
# PCOD9479617 Si02
#       8
#    16   8  16  16  16   8  16   8
#     4  12  23  38  64  97 133 173 222 262 333 395
#     4  10  21  33  57  90 129 178 221 267 319 390
#     4  10  21  39  61  93 131 174 220 265 322 388
#     4  10  24  42  66  91 135 177 210 273 323 400
#     4  11  22  40  70  96 126 168 216 279 328 382
#     4  12  24  30  59  92 131 171 212 271 317 385
#     4  11  24  45  69  96 130 171 221 275 333 391
#     4  10  23  41  55  90 134 167 216 261 331 384
#
# _framework density 20.801303000000001
#
# number of rings (size 3 to 8) (size 9 to 14) (size 15 to 20)
#    0.000    1.231    3.077    2.769    2.154    3.077 
#    0.000    3.846    6.769    0.000    0.000    0.000 
#    0.000    0.000    0.000    0.000    0.000    0.000 
#
# Total GULP energy -290199.379665 kJ/mol
# GULP energy per Si atom -5580.757301 kJ/mol
# Density = 2.075396 g / cm^3
# Si number density = 20.801303 Si / 1000 Ang^3
#
#
#
# Elastic Constant Matrix: (Units=GPa)
#
#
# Indices 1 2 3 4 5 6 
#
# 1 66.4907 33.0097 11.6362 0.0000 0.0000 0.0000
# 2 33.0097 102.1981 -7.5940 0.0000 0.0000 0.0000
# 3 11.6362 -7.5940 19.6506 0.0000 0.0000 0.0000
# 4 0.0000 0.0000 0.0000 9.0005 0.0000 0.0000
# 5 0.0000 0.0000 0.0000 0.0000 24.7708 0.0000
# 6 0.0000 0.0000 0.0000 0.0000 0.0000 91.2875
#
#
#
# Elastic Compliance Matrix: (Units=1/GPa)
#
#
# Indices 1 2 3 4 5 6 
#
# 1 0.022013 -0.008317 -0.016249 0.000000 0.000000 0.000000
# 2 -0.008317 0.013217 0.010033 0.000000 0.000000 0.000000
# 3 -0.016249 0.010033 0.064388 0.000000 0.000000 0.000000
# 4 0.000000 0.000000 0.000000 0.111105 0.000000 0.000000
# 5 0.000000 0.000000 0.000000 0.000000 0.040370 0.000000
# 6 0.000000 0.000000 0.000000 0.000000 0.000000 0.010954
#
#
# Mechanical properties :
#
#
# Convention : Reuss Voigt Hill
#
# Bulk Modulus (GPa) = 14.17425 29.16035 21.66730
# Shear Modulus (GPa) = 15.89161 35.09759 25.49460
#
# Velocity S-wave (km/s) = 2.76700 4.11211 3.50469
# Velocity P-wave (km/s) = 4.12763 6.04937 5.17842
#
# Compressibility (1/GPa) = 0.07055046
#
# Stress axis : x y z
#
# Youngs Moduli (GPa) = 45.42855 75.66055 15.53079
#
# Poissons Ratio (x) = 0.62930 0.25236
# Poissons Ratio (y) = 0.37785 -0.15582
# Poissons Ratio (z) = 0.73817 -0.75909
#
# Static dielectric constant tensor:
#      x y z
#    x 1.803040 0.000000 0.000000 
#    y 0.000000 1.726190 0.000000 
#    z 0.000000 0.000000 1.743370 
# 
# From -- ./inp_files/19238.got.cif
#   From: 2010.05.17/outbox.cif.g08.bks.cpg/sg64_10_cif.got.tgz:19238.got - 2010.06.03 16:29:19.
