data_PCOD9479127
_publ_section_title
;
Structure prediction by ZEFSAII (Michael W. Deem and Ramdas Pophale) SiO2 
 PCOD9479127
Probable space group: C M C A
;
_chemical_formula_sum "Si O2"
_cell_formula_units_Z 112
_cell_length_a 24.239267
_cell_length_b 14.074937
_cell_length_c 15.220722
_cell_angle_alpha 90.000000
_cell_angle_beta 90.000000
_cell_angle_gamma 90.000000
_cell_volume 5192.795216
_symmetry_space_group_name_H-M "C M C A"
_symmetry_group_IT_number 64
_symmetry_cell_setting 'orthorhombic'
loop_
_space_group_symop_operation_xyz
x,y,z
-x,1/2-y,1/2+z
x,-y,-z
-x,1/2+y,1/2-z
-x,-y,-z
x,1/2+y,1/2-z
-x,y,z
x,1/2-y,1/2+z
1/2+x,1/2+y,z
1/2-x,-y,1/2+z
1/2+x,1/2-y,-z
1/2-x,y,1/2-z
1/2-x,1/2-y,-z
1/2+x,y,1/2-z
1/2-x,1/2+y,z
1/2+x,-y,1/2+z
loop_
_atom_site_type_symbol
_atom_site_label
_atom_site_fract_x
_atom_site_fract_y
_atom_site_fract_z
Si Si1 0.562140 0.095897 0.171146
Si Si2 0.765892 0.251615 0.353553
Si Si3 0.562048 0.223103 0.764103
Si Si4 0.642947 0.753346 0.075404
Si Si5 0.662436 0.087389 0.550658
Si Si6 0.338481 0.412256 0.556523
Si Si7 0.060756 0.973119 0.164076
O O1 0.500000 0.075474 0.138442
O O2 0.571061 0.209039 0.179665
O O3 0.612495 0.051139 0.119086
O O4 0.564548 0.062787 0.272076
O O5 0.750000 0.250649 0.250000
O O6 0.707800 0.256959 0.402907
O O7 0.801144 0.343859 0.385871
O O8 0.797329 0.155617 0.386924
O O9 0.500000 0.242961 0.797181
O O10 0.607347 0.240587 0.837376
O O11 0.563108 0.116147 0.730408
O O12 0.635709 0.657934 0.020434
O O13 0.632117 0.841822 0.012280
O O14 0.612854 0.038981 0.603122
O O15 0.691802 0.000000 0.500000
O O16 0.315240 0.500000 0.500000
O O17 0.000000 0.972219 0.121097
#
# Coordination Sequence:
#
# PCOD9479127 Si02
#       7
#    16  16  16  16  16  16  16
#     4  10  21  38  60  88 123 161 203 250 302 367
#     4  11  25  45  65  86 122 167 210 256 308 370
#     4  10  20  37  62  90 121 160 203 242 296 370
#     4  11  23  40  61  88 126 157 197 262 313 358
#     4  11  23  39  62  91 122 158 206 258 312 369
#     4  11  23  39  62  91 122 158 206 258 312 369
#     4  10  21  38  60  88 123 161 203 250 302 367
#
# _framework density 21.568345000000001
#
# number of rings (size 3 to 8) (size 9 to 14) (size 15 to 20)
#    0.000    1.429    0.000    6.857    0.000    4.000 
#    0.000    1.429    0.000    0.000    0.000    0.000 
#    0.000    0.000    0.000    0.000    0.000    0.000 
#
# Total GULP energy -312797.763724 kJ/mol
# GULP energy per Si atom -5585.674352 kJ/mol
# Density = 2.151925 g / cm^3
# Si number density = 21.568345 Si / 1000 Ang^3
#
#
#
# Elastic Constant Matrix: (Units=GPa)
#
#
# Indices 1 2 3 4 5 6 
#
# 1 139.4972 18.7884 51.5503 0.0000 0.0000 0.0000
# 2 18.7884 110.7977 29.7667 0.0000 0.0000 0.0000
# 3 51.5503 29.7667 81.1976 0.0000 0.0000 0.0000
# 4 0.0000 0.0000 0.0000 26.8496 0.0000 0.0000
# 5 0.0000 0.0000 0.0000 0.0000 -52.3403 0.0000
# 6 0.0000 0.0000 0.0000 0.0000 0.0000 43.6840
#
#
#
# Elastic Compliance Matrix: (Units=1/GPa)
#
#
# Indices 1 2 3 4 5 6 
#
# 1 0.009366 0.000010 -0.005950 0.000000 0.000000 0.000000
# 2 0.000010 0.010011 -0.003677 0.000000 0.000000 0.000000
# 3 -0.005950 -0.003677 0.017441 0.000000 0.000000 0.000000
# 4 0.000000 0.000000 0.000000 0.037245 0.000000 0.000000
# 5 0.000000 0.000000 0.000000 0.000000 -0.019106 0.000000
# 6 0.000000 0.000000 0.000000 0.000000 0.000000 0.022892
#
#
# Mechanical properties :
#
#
# Convention : Reuss Voigt Hill
#
# Bulk Modulus (GPa) = 56.86452 59.07813 57.97132
# Shear Modulus (GPa) = 48.57023 19.06446 33.81734
#
# Velocity S-wave (km/s) = 4.75059 2.97629 3.96399
# Velocity P-wave (km/s) = 7.51750 6.26591 6.92006
#
# Compressibility (1/GPa) = 0.01758566
#
# Stress axis : x y z
#
# Youngs Moduli (GPa) = 106.76903 99.88531 57.33615
#
# Poissons Ratio (x) = -0.00103 0.34115
# Poissons Ratio (y) = -0.00110 0.21081
# Poissons Ratio (z) = 0.63528 0.36725
#
# Static dielectric constant tensor:
#      x y z
#    x 1.788890 0.000000 0.000000 
#    y 0.000000 1.812620 0.000000 
#    z 0.000000 0.000000 1.790900 
# 
# From -- ./inp_files/28090.got.cif
#   From: 2010.05.17/outbox.cif.g08.bks.cpg/sg64_15_cif.got.tgz:28090.got - 2010.06.03 16:29:19.
