data_PCOD9479441
_publ_section_title
;
Structure prediction by ZEFSAII (Michael W. Deem and Ramdas Pophale) SiO2 
 PCOD9479441
Probable space group: C M C A
;
_chemical_formula_sum "Si O2"
_cell_formula_units_Z 88
_cell_length_a 16.926048
_cell_length_b 11.028345
_cell_length_c 22.253005
_cell_angle_alpha 90.000000
_cell_angle_beta 90.000000
_cell_angle_gamma 90.000000
_cell_volume 4153.886037
_symmetry_space_group_name_H-M "C M C A"
_symmetry_group_IT_number 64
_symmetry_cell_setting 'orthorhombic'
loop_
_space_group_symop_operation_xyz
x,y,z
-x,1/2-y,1/2+z
x,-y,-z
-x,1/2+y,1/2-z
-x,-y,-z
x,1/2+y,1/2-z
-x,y,z
x,1/2-y,1/2+z
1/2+x,1/2+y,z
1/2-x,-y,1/2+z
1/2+x,1/2-y,-z
1/2-x,y,1/2-z
1/2-x,1/2-y,-z
1/2+x,y,1/2-z
1/2-x,1/2+y,z
1/2+x,-y,1/2+z
loop_
_atom_site_type_symbol
_atom_site_label
_atom_site_fract_x
_atom_site_fract_y
_atom_site_fract_z
Si Si1 0.179837 0.000000 0.000000
Si Si2 0.412693 0.356854 0.499844
Si Si3 0.799138 0.293876 0.585129
Si Si4 0.403037 0.840486 0.699901
Si Si5 0.408901 0.897835 0.270331
Si Si6 0.631959 0.815452 0.402085
O O1 0.129934 0.081630 0.953747
O O2 0.226062 0.907151 0.956995
O O3 0.403862 0.500000 0.500000
O O4 0.500000 0.327129 0.475565
O O5 0.348400 0.294077 0.458025
O O6 0.407003 0.300732 0.566528
O O7 0.857569 0.339526 0.636795
O O8 0.722999 0.222794 0.608377
O O9 0.500000 0.842999 0.693877
O O10 0.377088 0.716604 0.733151
O O11 0.378007 0.964354 0.734366
O O12 0.500000 0.905746 0.251749
O O13 0.403775 0.861321 0.340359
#
# Coordination Sequence:
#
# PCOD9479441 Si02
#       6
#     8  16  16  16  16  16
#     4  10  20  40  57  90 123 160 204 246 316 354
#     4  10  22  37  56  88 127 162 203 251 311 373
#     4  11  23  37  64  90 124 163 207 256 311 373
#     4  10  22  43  66  91 124 164 213 263 315 374
#     4  10  22  43  66  91 124 164 213 263 315 374
#     4  11  23  37  64  90 124 163 207 256 311 373
#
# _framework density 21.184982000000002
#
# number of rings (size 3 to 8) (size 9 to 14) (size 15 to 20)
#    0.000    1.636    1.818    3.273    5.091    2.182 
#    0.000    8.182    0.000    0.000    0.000    0.000 
#    0.000    0.000    0.000    0.000    0.000    0.000 
#
# Total GULP energy -245628.501033 kJ/mol
# GULP energy per Si atom -5582.465933 kJ/mol
# Density = 2.113676 g / cm^3
# Si number density = 21.184982 Si / 1000 Ang^3
#
#
#
# Elastic Constant Matrix: (Units=GPa)
#
#
# Indices 1 2 3 4 5 6 
#
# 1 56.8104 28.3796 -1.8885 0.0000 0.0000 0.0000
# 2 28.3796 132.0606 35.3893 0.0000 0.0000 0.0000
# 3 -1.8885 35.3893 59.9670 0.0000 0.0000 0.0000
# 4 0.0000 0.0000 0.0000 29.3821 0.0000 0.0000
# 5 0.0000 0.0000 0.0000 0.0000 20.8025 0.0000
# 6 0.0000 0.0000 0.0000 0.0000 0.0000 6.5480
#
#
#
# Elastic Compliance Matrix: (Units=1/GPa)
#
#
# Indices 1 2 3 4 5 6 
#
# 1 0.020439 -0.005422 0.003844 0.000000 0.000000 0.000000
# 2 -0.005422 0.010433 -0.006328 0.000000 0.000000 0.000000
# 3 0.003844 -0.006328 0.020531 0.000000 0.000000 0.000000
# 4 0.000000 0.000000 0.000000 0.034034 0.000000 0.000000
# 5 0.000000 0.000000 0.000000 0.000000 0.048071 0.000000
# 6 0.000000 0.000000 0.000000 0.000000 0.000000 0.152719
#
#
# Mechanical properties :
#
#
# Convention : Reuss Voigt Hill
#
# Bulk Modulus (GPa) = 28.09759 41.39988 34.74874
# Shear Modulus (GPa) = 15.92841 23.81035 19.86938
#
# Velocity S-wave (km/s) = 2.74500 3.35614 3.06584
# Velocity P-wave (km/s) = 4.83099 5.88241 5.38244
#
# Compressibility (1/GPa) = 0.03559024
#
# Stress axis : x y z
#
# Youngs Moduli (GPa) = 48.92635 95.84727 48.70621
#
# Poissons Ratio (x) = 0.51971 -0.18721
# Poissons Ratio (y) = 0.26529 0.30821
# Poissons Ratio (z) = -0.18805 0.60651
#
# Static dielectric constant tensor:
#      x y z
#    x 1.762830 0.000000 0.000000 
#    y 0.000000 1.806210 0.000000 
#    z 0.000000 0.000000 1.731410 
# 
# From -- ./inp_files/40039.got.cif
#   From: 2010.05.17/outbox.cif.g08.bks.cpg/sg64_21_cif.got.tgz:40039.got - 2010.06.03 16:29:19.
