data_PCOD9479881
_publ_section_title
;
Structure prediction by ZEFSAII (Michael W. Deem and Ramdas Pophale) SiO2 
 PCOD9479881
Probable space group: C M C A
;
_chemical_formula_sum "Si O2"
_cell_formula_units_Z 56
_cell_length_a 13.907559
_cell_length_b 18.127560
_cell_length_c 11.051304
_cell_angle_alpha 90.000000
_cell_angle_beta 90.000000
_cell_angle_gamma 90.000000
_cell_volume 2786.145470
_symmetry_space_group_name_H-M "C M C A"
_symmetry_group_IT_number 64
_symmetry_cell_setting 'orthorhombic'
loop_
_space_group_symop_operation_xyz
x,y,z
-x,1/2-y,1/2+z
x,-y,-z
-x,1/2+y,1/2-z
-x,-y,-z
x,1/2+y,1/2-z
-x,y,z
x,1/2-y,1/2+z
1/2+x,1/2+y,z
1/2-x,-y,1/2+z
1/2+x,1/2-y,-z
1/2-x,y,1/2-z
1/2-x,1/2-y,-z
1/2+x,y,1/2-z
1/2-x,1/2+y,z
1/2+x,-y,1/2+z
loop_
_atom_site_type_symbol
_atom_site_label
_atom_site_fract_x
_atom_site_fract_y
_atom_site_fract_z
Si Si1 0.887462 0.372522 0.672073
Si Si2 0.718684 0.123514 0.582780
Si Si3 0.111398 0.201459 0.699737
Si Si4 0.250000 0.511963 0.250000
O O1 0.828155 0.377482 0.547557
O O2 0.876014 0.288898 0.717648
O O3 0.841241 0.434136 0.757573
O O4 0.000000 0.386129 0.651300
O O5 0.816112 0.171334 0.597119
O O6 0.644560 0.160270 0.678474
O O7 0.739865 0.042628 0.636281
O O8 0.000000 0.187277 0.671548
#
# Coordination Sequence:
#
# PCOD9479881 Si02
#       4
#    16  16  16   8
#     4  11  22  38  61  84 113 154 193 232 285 344
#     4  10  21  37  59  82 117 153 188 236 284 340
#     4   9  19  35  57  85 113 146 192 241 282 329
#     4  10  22  36  54  84 112 144 192 236 272 332
#
# _framework density 20.099451999999999
#
# number of rings (size 3 to 8) (size 9 to 14) (size 15 to 20)
#    0.000    2.286    0.000    4.286    0.000    6.857 
#    0.000    4.286    0.000    8.571    0.000    0.000 
#    0.000    0.000    0.000    0.000    0.000    0.000 
#
# Total GULP energy -156419.615403 kJ/mol
# GULP energy per Si atom -5586.414836 kJ/mol
# Density = 2.005370 g / cm^3
# Si number density = 20.099452 Si / 1000 Ang^3
#
#
#
# Elastic Constant Matrix: (Units=GPa)
#
#
# Indices 1 2 3 4 5 6 
#
# 1 146.8154 75.4759 20.2002 0.0000 0.0000 0.0000
# 2 75.4759 144.3551 31.2531 0.0000 0.0000 0.0000
# 3 20.2002 31.2531 55.0946 0.0000 0.0000 0.0000
# 4 0.0000 0.0000 0.0000 11.1576 0.0000 0.0000
# 5 0.0000 0.0000 0.0000 0.0000 17.8475 0.0000
# 6 0.0000 0.0000 0.0000 0.0000 0.0000 -145.1399
#
#
#
# Elastic Compliance Matrix: (Units=1/GPa)
#
#
# Indices 1 2 3 4 5 6 
#
# 1 0.009342 -0.004723 -0.000746 0.000000 0.000000 0.000000
# 2 -0.004723 0.010285 -0.004103 0.000000 0.000000 0.000000
# 3 -0.000746 -0.004103 0.020751 0.000000 0.000000 0.000000
# 4 0.000000 0.000000 0.000000 0.089625 0.000000 0.000000
# 5 0.000000 0.000000 0.000000 0.000000 0.056030 0.000000
# 6 0.000000 0.000000 0.000000 0.000000 0.000000 -0.006890
#
#
# Mechanical properties :
#
#
# Convention : Reuss Voigt Hill
#
# Bulk Modulus (GPa) = 47.09182 66.68040 56.88611
# Shear Modulus (GPa) = 24.34689 -8.60456 7.87116
#
# Velocity S-wave (km/s) = 3.48418 -2.07130 1.98106
# Velocity P-wave (km/s) = 6.29812 5.24661 5.79626
#
# Compressibility (1/GPa) = 0.02123511
#
# Stress axis : x y z
#
# Youngs Moduli (GPa) = 107.04463 97.22950 48.18946
#
# Poissons Ratio (x) = 0.45920 0.03595
# Poissons Ratio (y) = 0.50556 0.19770
# Poissons Ratio (z) = 0.07986 0.39890
#
# Static dielectric constant tensor:
#      x y z
#    x 1.702870 0.000000 0.000000 
#    y 0.000000 1.720750 0.000000 
#    z 0.000000 0.000000 1.491750 
# 
# From -- ./inp_files/23160.got.cif
#   From: 2010.05.17/outbox.cif.g08.bks.cpg/sg64_12_cif.got.tgz:23160.got - 2010.06.03 16:29:19.
