data_PCOD9479492
_publ_section_title
;
Structure prediction by ZEFSAII (Michael W. Deem and Ramdas Pophale) SiO2 
 PCOD9479492
Probable space group: C M C A
;
_chemical_formula_sum "Si O2"
_cell_formula_units_Z 88
_cell_length_a 9.654407
_cell_length_b 15.813055
_cell_length_c 26.648654
_cell_angle_alpha 90.000000
_cell_angle_beta 90.000000
_cell_angle_gamma 90.000000
_cell_volume 4068.334588
_symmetry_space_group_name_H-M "C M C A"
_symmetry_group_IT_number 64
_symmetry_cell_setting 'orthorhombic'
loop_
_space_group_symop_operation_xyz
x,y,z
-x,1/2-y,1/2+z
x,-y,-z
-x,1/2+y,1/2-z
-x,-y,-z
x,1/2+y,1/2-z
-x,y,z
x,1/2-y,1/2+z
1/2+x,1/2+y,z
1/2-x,-y,1/2+z
1/2+x,1/2-y,-z
1/2-x,y,1/2-z
1/2-x,1/2-y,-z
1/2+x,y,1/2-z
1/2-x,1/2+y,z
1/2+x,-y,1/2+z
loop_
_atom_site_type_symbol
_atom_site_label
_atom_site_fract_x
_atom_site_fract_y
_atom_site_fract_z
Si Si1 0.000000 0.570303 0.217760
Si Si2 0.500000 0.896736 0.317022
Si Si3 0.000000 0.590323 0.334244
Si Si4 0.750000 0.455750 0.250000
Si Si5 0.754612 0.120395 0.096411
Si Si6 0.500000 0.215297 0.132350
Si Si7 0.849457 0.543865 0.944723
Si Si8 0.843732 0.830193 0.010334
O O1 0.857856 0.513960 0.217436
O O2 0.000000 0.646454 0.178276
O O3 0.000000 0.603733 0.275027
O O4 0.358792 0.902632 0.283550
O O5 0.500000 0.810930 0.348330
O O6 0.500000 0.988568 0.344277
O O7 0.136098 0.627507 0.359488
O O8 0.637153 0.191071 0.101301
O O9 0.836194 0.123470 0.043780
O O10 0.678238 0.029996 0.094556
O O11 0.000000 0.583988 0.936134
O O12 0.855754 0.500000 0.000000
O O13 0.728236 0.611157 0.948427
O O14 0.000000 0.810078 0.022646
O O15 0.750000 0.750000 0.000000
#
# Coordination Sequence:
#
# PCOD9479492 Si02
#       8
#     8   8   8   8  16   8  16  16
#     4  10  20  40  66  90 123 173 217 253 321 382
#     4  10  22  38  62  93 123 157 212 272 323 364
#     4  10  22  42  64  91 129 172 220 268 307 396
#     4   8  18  40  64  86 118 164 216 260 310 392
#     4  11  23  40  63  90 129 167 217 256 319 388
#     4  12  24  38  64  98 130 170 212 273 318 374
#     4   9  19  37  61  87 117 161 207 252 309 386
#     4  11  24  40  65  93 127 166 209 270 329 383
#
# _framework density 21.630474
#
# number of rings (size 3 to 8) (size 9 to 14) (size 15 to 20)
#    0.000    2.000    1.818    2.727    3.818    4.727 
#    0.000    0.909    0.000    0.000    0.000    0.000 
#    0.000    0.000    0.000    0.000    0.000    0.000 
#
# Total GULP energy -245782.124204 kJ/mol
# GULP energy per Si atom -5585.957368 kJ/mol
# Density = 2.158124 g / cm^3
# Si number density = 21.630474 Si / 1000 Ang^3
#
#
#
# Elastic Constant Matrix: (Units=GPa)
#
#
# Indices 1 2 3 4 5 6 
#
# 1 196.2051 39.8929 25.4551 0.0000 0.0000 0.0000
# 2 39.8929 67.0334 -0.2781 0.0000 0.0000 0.0000
# 3 25.4551 -0.2781 61.4925 0.0000 0.0000 0.0000
# 4 0.0000 0.0000 0.0000 42.6815 0.0000 0.0000
# 5 0.0000 0.0000 0.0000 0.0000 28.5836 0.0000
# 6 0.0000 0.0000 0.0000 0.0000 0.0000 29.0528
#
#
#
# Elastic Compliance Matrix: (Units=1/GPa)
#
#
# Indices 1 2 3 4 5 6 
#
# 1 0.006181 -0.003689 -0.002575 0.000000 0.000000 0.000000
# 2 -0.003689 0.017120 0.001605 0.000000 0.000000 0.000000
# 3 -0.002575 0.001605 0.017335 0.000000 0.000000 0.000000
# 4 0.000000 0.000000 0.000000 0.023429 0.000000 0.000000
# 5 0.000000 0.000000 0.000000 0.000000 0.034985 0.000000
# 6 0.000000 0.000000 0.000000 0.000000 0.000000 0.034420
#
#
# Mechanical properties :
#
#
# Convention : Reuss Voigt Hill
#
# Bulk Modulus (GPa) = 31.93182 50.54121 41.23651
# Shear Modulus (GPa) = 32.63080 37.37432 35.00256
#
# Velocity S-wave (km/s) = 3.88823 4.16126 4.02706
# Velocity P-wave (km/s) = 5.91204 6.81942 6.38188
#
# Compressibility (1/GPa) = 0.03131672
#
# Stress axis : x y z
#
# Youngs Moduli (GPa) = 161.78913 58.41117 57.68528
#
# Poissons Ratio (x) = 0.21548 0.14856
# Poissons Ratio (y) = 0.59685 -0.09256
# Poissons Ratio (z) = 0.41665 -0.09372
#
# Static dielectric constant tensor:
#      x y z
#    x 1.800650 0.000000 0.000000 
#    y 0.000000 1.782470 0.000000 
#    z 0.000000 0.000000 1.821330 
# 
# From -- ./inp_files/51922.got.cif
#   From: 2010.05.17/outbox.cif.g08.bks.cpg/sg64_26_cif.got.tgz:51922.got - 2010.06.03 16:29:19.
