data_PCOD9479856
_publ_section_title
;
Structure prediction by ZEFSAII (Michael W. Deem and Ramdas Pophale) SiO2 
 PCOD9479856
Probable space group: C M C A
;
_chemical_formula_sum "Si O2"
_cell_formula_units_Z 112
_cell_length_a 14.343314
_cell_length_b 15.599126
_cell_length_c 25.826514
_cell_angle_alpha 90.000000
_cell_angle_beta 90.000000
_cell_angle_gamma 90.000000
_cell_volume 5778.505915
_symmetry_space_group_name_H-M "C M C A"
_symmetry_group_IT_number 64
_symmetry_cell_setting 'orthorhombic'
loop_
_space_group_symop_operation_xyz
x,y,z
-x,1/2-y,1/2+z
x,-y,-z
-x,1/2+y,1/2-z
-x,-y,-z
x,1/2+y,1/2-z
-x,y,z
x,1/2-y,1/2+z
1/2+x,1/2+y,z
1/2-x,-y,1/2+z
1/2+x,1/2-y,-z
1/2-x,y,1/2-z
1/2-x,1/2-y,-z
1/2+x,y,1/2-z
1/2-x,1/2+y,z
1/2+x,-y,1/2+z
loop_
_atom_site_type_symbol
_atom_site_label
_atom_site_fract_x
_atom_site_fract_y
_atom_site_fract_z
Si Si1 0.268514 0.347389 0.987500
Si Si2 0.610744 0.435785 0.577010
Si Si3 0.889148 0.694517 0.287801
Si Si4 0.811242 0.382056 0.199241
Si Si5 0.612358 0.905081 0.608281
Si Si6 0.237512 0.569869 0.595267
Si Si7 0.388912 0.576793 0.306770
O O1 0.172538 0.387579 0.965308
O O2 0.345844 0.361649 0.943308
O O3 0.250000 0.250000 0.000000
O O4 0.296203 0.390568 0.041638
O O5 0.500000 0.439897 0.567258
O O6 0.661441 0.527735 0.582163
O O7 0.628191 0.394587 0.633921
O O8 0.870142 0.795584 0.292837
O O9 0.858982 0.647017 0.340393
O O10 0.853294 0.643214 0.236794
O O11 0.000000 0.684923 0.285894
O O12 0.750000 0.384867 0.250000
O O13 0.754842 0.372145 0.145357
O O14 0.855520 0.477882 0.197587
O O15 0.500000 0.912288 0.606194
O O16 0.664805 0.996057 0.610909
O O17 0.500000 0.572509 0.301310
#
# Coordination Sequence:
#
# PCOD9479856 Si02
#       7
#    16  16  16  16  16  16  16
#     4  11  23  37  54  82 119 148 185 240 288 343
#     4   9  19  37  60  82 108 146 187 228 280 336
#     4  10  21  37  58  84 113 148 191 239 289 343
#     4  11  22  35  57  86 114 148 186 230 291 353
#     4  10  21  39  61  81 109 154 199 239 290 348
#     4  10  22  38  57  84 112 145 190 238 284 337
#     4   9  19  37  58  81 112 148 189 237 283 338
#
# _framework density 19.382173000000002
#
# number of rings (size 3 to 8) (size 9 to 14) (size 15 to 20)
#    0.000    2.000    0.000    3.857    0.000    8.571 
#    0.000    0.714    0.000    0.000    0.000    0.000 
#    0.000    0.000    0.000    0.000    0.000    0.000 
#
# Total GULP energy -312220.846003 kJ/mol
# GULP energy per Si atom -5575.372250 kJ/mol
# Density = 1.933806 g / cm^3
# Si number density = 19.382173 Si / 1000 Ang^3
#
#
#
# Elastic Constant Matrix: (Units=GPa)
#
#
# Indices 1 2 3 4 5 6 
#
# 1 61.7699 -8.0613 8.4930 0.0000 0.0000 0.0000
# 2 -8.0613 64.5885 29.2589 0.0000 0.0000 0.0000
# 3 8.4930 29.2589 131.9283 0.0000 0.0000 0.0000
# 4 0.0000 0.0000 0.0000 -103.9878 0.0000 0.0000
# 5 0.0000 0.0000 0.0000 0.0000 26.8913 0.0000
# 6 0.0000 0.0000 0.0000 0.0000 0.0000 13.1475
#
#
#
# Elastic Compliance Matrix: (Units=1/GPa)
#
#
# Indices 1 2 3 4 5 6 
#
# 1 0.016801 0.002876 -0.001719 0.000000 0.000000 0.000000
# 2 0.002876 0.017704 -0.004112 0.000000 0.000000 0.000000
# 3 -0.001719 -0.004112 0.008602 0.000000 0.000000 0.000000
# 4 0.000000 0.000000 0.000000 -0.009617 0.000000 0.000000
# 5 0.000000 0.000000 0.000000 0.000000 0.037187 0.000000
# 6 0.000000 0.000000 0.000000 0.000000 0.000000 0.076060
#
#
# Mechanical properties :
#
#
# Convention : Reuss Voigt Hill
#
# Bulk Modulus (GPa) = 26.88377 35.29643 31.09010
# Shear Modulus (GPa) = 30.29440 2.44992 16.37216
#
# Velocity S-wave (km/s) = 3.95777 1.12550 2.90953
# Velocity P-wave (km/s) = 5.89794 4.46535 5.23092
#
# Compressibility (1/GPa) = 0.03719717
#
# Stress axis : x y z
#
# Youngs Moduli (GPa) = 59.52086 56.48404 116.24645
#
# Poissons Ratio (x) = -0.16244 0.19987
# Poissons Ratio (y) = -0.17117 0.47795
# Poissons Ratio (z) = 0.10234 0.23224
#
# Static dielectric constant tensor:
#      x y z
#    x 1.672840 0.000000 0.000000 
#    y 0.000000 1.727700 0.000000 
#    z 0.000000 0.000000 1.641630 
# 
# From -- ./inp_files/45260.got.cif
#   From: 2010.05.17/outbox.cif.g08.bks.cpg/sg64_23_cif.got.tgz:45260.got - 2010.06.03 16:29:19.
