data_PCOD9479210
_publ_section_title
;
Structure prediction by ZEFSAII (Michael W. Deem and Ramdas Pophale) SiO2 
 PCOD9479210
Probable space group: C M C A
;
_chemical_formula_sum "Si O2"
_cell_formula_units_Z 88
_cell_length_a 20.683872
_cell_length_b 12.786544
_cell_length_c 18.169612
_cell_angle_alpha 90.000000
_cell_angle_beta 90.000000
_cell_angle_gamma 90.000000
_cell_volume 4805.412484
_symmetry_space_group_name_H-M "C M C A"
_symmetry_group_IT_number 64
_symmetry_cell_setting 'orthorhombic'
loop_
_space_group_symop_operation_xyz
x,y,z
-x,1/2-y,1/2+z
x,-y,-z
-x,1/2+y,1/2-z
-x,-y,-z
x,1/2+y,1/2-z
-x,y,z
x,1/2-y,1/2+z
1/2+x,1/2+y,z
1/2-x,-y,1/2+z
1/2+x,1/2-y,-z
1/2-x,y,1/2-z
1/2-x,1/2-y,-z
1/2+x,y,1/2-z
1/2-x,1/2+y,z
1/2+x,-y,1/2+z
loop_
_atom_site_type_symbol
_atom_site_label
_atom_site_fract_x
_atom_site_fract_y
_atom_site_fract_z
Si Si1 0.331696 0.000000 0.500000
Si Si2 0.073843 0.959375 0.279928
Si Si3 0.687927 0.198073 0.792857
Si Si4 0.249381 0.678245 0.427949
Si Si5 0.623684 0.325082 0.662811
Si Si6 0.427126 0.395479 0.114048
O O1 0.288053 0.926551 0.550946
O O2 0.376189 0.930372 0.446701
O O3 0.130671 0.883463 0.308127
O O4 0.082169 0.957822 0.191020
O O5 0.000000 0.922531 0.293762
O O6 0.084175 0.072688 0.315276
O O7 0.750000 0.148785 0.750000
O O8 0.713238 0.255696 0.864901
O O9 0.659520 0.283217 0.736151
O O10 0.250000 0.750000 0.500000
O O11 0.320552 0.653535 0.396950
O O12 0.582774 0.226188 0.634505
O O13 0.500000 0.413754 0.088163
#
# Coordination Sequence:
#
# PCOD9479210 Si02
#       6
#     8  16  16  16  16  16
#     4  12  23  38  60  84 119 154 196 238 302 350
#     4  10  21  37  63  89 118 158 198 247 305 356
#     4   9  21  38  60  87 119 152 202 248 295 344
#     4  11  23  38  58  87 116 154 192 246 294 349
#     4  10  20  38  59  86 117 151 198 245 293 349
#     4  10  21  38  58  85 116 153 197 242 289 354
#
# _framework density 18.312684999999998
#
# number of rings (size 3 to 8) (size 9 to 14) (size 15 to 20)
#    0.000    1.818    1.818    1.909    2.545    2.909 
#    0.000    1.818    0.000    1.091    0.000    0.000 
#    0.000    0.000    0.000    0.000    0.000    0.000 
#
# Total GULP energy -245629.149413 kJ/mol
# GULP energy per Si atom -5582.480668 kJ/mol
# Density = 1.827100 g / cm^3
# Si number density = 18.312685 Si / 1000 Ang^3
#
#
#
# Elastic Constant Matrix: (Units=GPa)
#
#
# Indices 1 2 3 4 5 6 
#
# 1 93.8983 43.0824 25.3738 0.0000 0.0000 0.0000
# 2 43.0824 85.8828 36.7387 0.0000 0.0000 0.0000
# 3 25.3738 36.7387 64.2805 0.0000 0.0000 0.0000
# 4 0.0000 0.0000 0.0000 18.4214 0.0000 0.0000
# 5 0.0000 0.0000 0.0000 0.0000 17.9028 0.0000
# 6 0.0000 0.0000 0.0000 0.0000 0.0000 32.3959
#
#
#
# Elastic Compliance Matrix: (Units=1/GPa)
#
#
# Indices 1 2 3 4 5 6 
#
# 1 0.014027 -0.006178 -0.002006 0.000000 0.000000 0.000000
# 2 -0.006178 0.018133 -0.007925 0.000000 0.000000 0.000000
# 3 -0.002006 -0.007925 0.020878 0.000000 0.000000 0.000000
# 4 0.000000 0.000000 0.000000 0.054285 0.000000 0.000000
# 5 0.000000 0.000000 0.000000 0.000000 0.055857 0.000000
# 6 0.000000 0.000000 0.000000 0.000000 0.000000 0.030868
#
#
# Mechanical properties :
#
#
# Convention : Reuss Voigt Hill
#
# Bulk Modulus (GPa) = 48.03127 50.49461 49.26294
# Shear Modulus (GPa) = 21.44032 23.00180 22.22106
#
# Velocity S-wave (km/s) = 3.42539 3.54794 3.48720
# Velocity P-wave (km/s) = 6.47532 6.66463 6.57066
#
# Compressibility (1/GPa) = 0.02081977
#
# Stress axis : x y z
#
# Youngs Moduli (GPa) = 71.29348 55.14747 47.89748
#
# Poissons Ratio (x) = 0.34072 0.09606
# Poissons Ratio (y) = 0.44047 0.37959
# Poissons Ratio (z) = 0.14299 0.43704
#
# Static dielectric constant tensor:
#      x y z
#    x 1.638460 0.000000 0.000000 
#    y 0.000000 1.615910 0.000000 
#    z 0.000000 0.000000 1.603470 
# 
# From -- ./inp_files/34110.got.cif
#   From: 2010.05.17/outbox.cif.g08.bks.cpg/sg64_18_cif.got.tgz:34110.got - 2010.06.03 16:29:19.
