data_PCOD9479185
_publ_section_title
;
Structure prediction by ZEFSAII (Michael W. Deem and Ramdas Pophale) SiO2 
 PCOD9479185
Probable space group: C M C A
;
_chemical_formula_sum "Si O2"
_cell_formula_units_Z 72
_cell_length_a 28.869490
_cell_length_b 24.639528
_cell_length_c 4.956432
_cell_angle_alpha 90.000000
_cell_angle_beta 90.000000
_cell_angle_gamma 90.000000
_cell_volume 3525.661784
_symmetry_space_group_name_H-M "C M C A"
_symmetry_group_IT_number 64
_symmetry_cell_setting 'orthorhombic'
loop_
_space_group_symop_operation_xyz
x,y,z
-x,1/2-y,1/2+z
x,-y,-z
-x,1/2+y,1/2-z
-x,-y,-z
x,1/2+y,1/2-z
-x,y,z
x,1/2-y,1/2+z
1/2+x,1/2+y,z
1/2-x,-y,1/2+z
1/2+x,1/2-y,-z
1/2-x,y,1/2-z
1/2-x,1/2-y,-z
1/2+x,y,1/2-z
1/2-x,1/2+y,z
1/2+x,-y,1/2+z
loop_
_atom_site_type_symbol
_atom_site_label
_atom_site_fract_x
_atom_site_fract_y
_atom_site_fract_z
Si Si1 0.053425 0.785615 0.177855
Si Si2 0.000000 0.040203 0.749290
Si Si3 0.375036 0.627759 0.053807
Si Si4 0.305246 0.285201 0.734782
Si Si5 0.599253 0.563015 0.582823
O O1 0.059624 0.732755 0.986108
O O2 0.089891 0.828872 0.076084
O O3 0.000000 0.803358 0.139330
O O4 0.951592 0.070753 0.718591
O O5 0.000000 0.000000 0.500000
O O6 0.000000 0.000000 0.000000
O O7 0.331886 0.661974 0.165634
O O8 0.396828 0.597247 0.310215
O O9 0.366061 0.584762 0.813165
O O10 0.317337 0.264527 0.436631
O O11 0.250000 0.293296 0.750000
O O12 0.605119 0.500000 0.500000
#
# Coordination Sequence:
#
# PCOD9479185 Si02
#       5
#    16   8  16  16  16
#     4  10  21  35  51  77 115 151 188 231 282 353
#     4  10  20  38  56  76 110 152 202 252 292 324
#     4  12  22  36  62  85 116 159 198 243 294 365
#     4  10  21  39  64  94 123 150 192 249 303 359
#     4  11  24  38  57  84 118 156 204 255 293 338
#
# _framework density 20.421700000000001
#
# number of rings (size 3 to 8) (size 9 to 14) (size 15 to 20)
#    0.000    1.333    0.000    7.333    3.111    0.000 
#    0.000    0.000    0.000    2.667    0.000    1.556 
#    0.000    0.000    0.000    0.000    0.000    0.000 
#
# Total GULP energy -201301.354938 kJ/mol
# GULP energy per Si atom -5591.704304 kJ/mol
# Density = 2.037522 g / cm^3
# Si number density = 20.421700 Si / 1000 Ang^3
#
#
#
# Elastic Constant Matrix: (Units=GPa)
#
#
# Indices 1 2 3 4 5 6 
#
# 1 56.5487 46.5850 5.6895 0.0000 0.0000 0.0000
# 2 46.5850 91.1494 21.2172 0.0000 0.0000 0.0000
# 3 5.6895 21.2172 95.8062 0.0000 0.0000 0.0000
# 4 0.0000 0.0000 0.0000 51.1480 0.0000 0.0000
# 5 0.0000 0.0000 0.0000 0.0000 23.8004 0.0000
# 6 0.0000 0.0000 0.0000 0.0000 0.0000 20.9727
#
#
#
# Elastic Compliance Matrix: (Units=1/GPa)
#
#
# Indices 1 2 3 4 5 6 
#
# 1 0.030819 -0.016158 0.001748 0.000000 0.000000 0.000000
# 2 -0.016158 0.020039 -0.003478 0.000000 0.000000 0.000000
# 3 0.001748 -0.003478 0.011104 0.000000 0.000000 0.000000
# 4 0.000000 0.000000 0.000000 0.019551 0.000000 0.000000
# 5 0.000000 0.000000 0.000000 0.000000 0.042016 0.000000
# 6 0.000000 0.000000 0.000000 0.000000 0.000000 0.047681
#
#
# Mechanical properties :
#
#
# Convention : Reuss Voigt Hill
#
# Bulk Modulus (GPa) = 38.18864 43.38750 40.78807
# Shear Modulus (GPa) = 23.17872 30.51839 26.84856
#
# Velocity S-wave (km/s) = 3.37264 3.86995 3.62982
# Velocity P-wave (km/s) = 5.82296 6.42344 6.13056
#
# Compressibility (1/GPa) = 0.02618580
#
# Stress axis : x y z
#
# Youngs Moduli (GPa) = 32.44746 49.90328 90.05597
#
# Poissons Ratio (x) = 0.80634 -0.15743
# Poissons Ratio (y) = 0.52429 0.31323
# Poissons Ratio (z) = -0.05672 0.17357
#
# Static dielectric constant tensor:
#      x y z
#    x 1.802870 0.000000 0.000000 
#    y 0.000000 1.738840 0.000000 
#    z 0.000000 0.000000 1.716260 
# 
# From -- ./inp_files/3244.got.cif
#   From: 2010.05.17/outbox.cif.g08.bks.cpg/sg64_2_cif.got.tgz:3244.got - 2010.06.03 16:29:19.
