data_PCOD9479211
_publ_section_title
;
Structure prediction by ZEFSAII (Michael W. Deem and Ramdas Pophale) SiO2 
 PCOD9479211
Probable space group: C M C A
;
_chemical_formula_sum "Si O2"
_cell_formula_units_Z 96
_cell_length_a 16.236232
_cell_length_b 22.121250
_cell_length_c 11.316598
_cell_angle_alpha 90.000000
_cell_angle_beta 90.000000
_cell_angle_gamma 90.000000
_cell_volume 4064.534376
_symmetry_space_group_name_H-M "C M C A"
_symmetry_group_IT_number 64
_symmetry_cell_setting 'orthorhombic'
loop_
_space_group_symop_operation_xyz
x,y,z
-x,1/2-y,1/2+z
x,-y,-z
-x,1/2+y,1/2-z
-x,-y,-z
x,1/2+y,1/2-z
-x,y,z
x,1/2-y,1/2+z
1/2+x,1/2+y,z
1/2-x,-y,1/2+z
1/2+x,1/2-y,-z
1/2-x,y,1/2-z
1/2-x,1/2-y,-z
1/2+x,y,1/2-z
1/2-x,1/2+y,z
1/2+x,-y,1/2+z
loop_
_atom_site_type_symbol
_atom_site_label
_atom_site_fract_x
_atom_site_fract_y
_atom_site_fract_z
Si Si1 0.903956 0.756294 0.029648
Si Si2 0.725291 0.438968 0.050487
Si Si3 0.193745 0.658840 0.354297
Si Si4 0.408079 0.568761 0.593174
Si Si5 0.907187 0.132352 0.357352
Si Si6 0.345123 0.653894 0.775751
O O1 0.873726 0.690577 0.070284
O O2 0.891219 0.797456 0.145723
O O3 0.000000 0.754580 0.995507
O O4 0.850877 0.788713 0.927715
O O5 0.814531 0.456230 0.107047
O O6 0.667449 0.406116 0.144375
O O7 0.688634 0.500000 0.000000
O O8 0.733407 0.388842 0.945874
O O9 0.250000 0.685371 0.250000
O O10 0.133749 0.620576 0.268163
O O11 0.500000 0.545511 0.627179
O O12 0.410496 0.578898 0.451961
O O13 0.396163 0.632558 0.662446
O O14 0.000000 0.151021 0.329375
O O15 0.250000 0.671949 0.750000
#
# Coordination Sequence:
#
# PCOD9479211 Si02
#       6
#    16  16  16  16  16  16
#     4  10  22  38  60  87 124 168 200 236 297 364
#     4  10  22  42  65  85 115 159 203 252 314 361
#     4  11  22  39  60  91 123 158 205 256 298 355
#     4  10  20  38  59  86 121 151 197 249 297 360
#     4  10  22  38  59  89 124 161 195 240 300 359
#     4   9  20  38  59  91 118 154 200 251 293 353
#
# _framework density 23.618943000000002
#
# number of rings (size 3 to 8) (size 9 to 14) (size 15 to 20)
#    0.000    2.000    1.667    1.000    2.333    3.667 
#    0.000    0.000    0.000   17.000    0.000    0.000 
#    0.000    0.000    0.000    0.000    0.000    0.000 
#
# Total GULP energy -267772.334430 kJ/mol
# GULP energy per Si atom -5578.590301 kJ/mol
# Density = 2.356519 g / cm^3
# Si number density = 23.618943 Si / 1000 Ang^3
#
#
#
# Elastic Constant Matrix: (Units=GPa)
#
#
# Indices 1 2 3 4 5 6 
#
# 1 76.6432 15.0109 20.7745 0.0000 0.0000 0.0000
# 2 15.0109 56.4347 -0.1476 0.0000 0.0000 0.0000
# 3 20.7745 -0.1476 101.1640 0.0000 0.0000 0.0000
# 4 0.0000 0.0000 0.0000 15.3174 0.0000 0.0000
# 5 0.0000 0.0000 0.0000 0.0000 20.7873 0.0000
# 6 0.0000 0.0000 0.0000 0.0000 0.0000 17.9942
#
#
#
# Elastic Compliance Matrix: (Units=1/GPa)
#
#
# Indices 1 2 3 4 5 6 
#
# 1 0.014627 -0.003898 -0.003009 0.000000 0.000000 0.000000
# 2 -0.003898 0.018759 0.000828 0.000000 0.000000 0.000000
# 3 -0.003009 0.000828 0.010504 0.000000 0.000000 0.000000
# 4 0.000000 0.000000 0.000000 0.065285 0.000000 0.000000
# 5 0.000000 0.000000 0.000000 0.000000 0.048106 0.000000
# 6 0.000000 0.000000 0.000000 0.000000 0.000000 0.055573
#
#
# Mechanical properties :
#
#
# Convention : Reuss Voigt Hill
#
# Bulk Modulus (GPa) = 31.51604 33.94639 32.73122
# Shear Modulus (GPa) = 21.22324 24.06005 22.64164
#
# Velocity S-wave (km/s) = 3.00087 3.19513 3.09952
# Velocity P-wave (km/s) = 5.03780 5.29297 5.16696
#
# Compressibility (1/GPa) = 0.03172987
#
# Stress axis : x y z
#
# Youngs Moduli (GPa) = 68.36822 53.30865 95.20067
#
# Poissons Ratio (x) = 0.20782 0.28649
# Poissons Ratio (y) = 0.26653 -0.07882
# Poissons Ratio (z) = 0.20574 -0.04414
#
# Static dielectric constant tensor:
#      x y z
#    x 1.993350 0.000000 0.000000 
#    y 0.000000 1.910650 0.000000 
#    z 0.000000 0.000000 1.912080 
# 
# From -- ./inp_files/16207.got.cif
#   From: 2010.05.17/outbox.cif.g08.bks.cpg/sg64_9_cif.got.tgz:16207.got - 2010.06.03 16:29:19.
