data_PCOD9479203
_publ_section_title
;
Structure prediction by ZEFSAII (Michael W. Deem and Ramdas Pophale) SiO2 
 PCOD9479203
Probable space group: C M C A
;
_chemical_formula_sum "Si O2"
_cell_formula_units_Z 112
_cell_length_a 18.881748
_cell_length_b 22.881122
_cell_length_c 11.507652
_cell_angle_alpha 90.000000
_cell_angle_beta 90.000000
_cell_angle_gamma 90.000000
_cell_volume 4971.715101
_symmetry_space_group_name_H-M "C M C A"
_symmetry_group_IT_number 64
_symmetry_cell_setting 'orthorhombic'
loop_
_space_group_symop_operation_xyz
x,y,z
-x,1/2-y,1/2+z
x,-y,-z
-x,1/2+y,1/2-z
-x,-y,-z
x,1/2+y,1/2-z
-x,y,z
x,1/2-y,1/2+z
1/2+x,1/2+y,z
1/2-x,-y,1/2+z
1/2+x,1/2-y,-z
1/2-x,y,1/2-z
1/2-x,1/2-y,-z
1/2+x,y,1/2-z
1/2-x,1/2+y,z
1/2+x,-y,1/2+z
loop_
_atom_site_type_symbol
_atom_site_label
_atom_site_fract_x
_atom_site_fract_y
_atom_site_fract_z
Si Si1 0.721125 0.824118 0.373311
Si Si2 0.923911 0.827978 0.610527
Si Si3 0.923783 0.437534 0.062402
Si Si4 0.733379 0.692693 0.379626
Si Si5 0.666532 0.977205 0.261416
Si Si6 0.077914 0.412439 0.683591
Si Si7 0.584073 0.386747 0.087168
O O1 0.750000 0.849903 0.250000
O O2 0.758748 0.760002 0.375005
O O3 0.739888 0.843092 0.507404
O O4 0.635905 0.834284 0.370523
O O5 0.919991 0.884557 0.526734
O O6 0.849976 0.796814 0.599490
O O7 0.922941 0.854627 0.739152
O O8 0.000000 0.798320 0.588913
O O9 0.000000 0.432261 0.123981
O O10 0.923638 0.500000 0.000000
O O11 0.860733 0.440826 0.151111
O O12 0.750000 0.667668 0.250000
O O13 0.750000 0.981093 0.250000
O O14 0.627365 0.943102 0.365519
O O15 0.634689 0.042256 0.267982
O O16 0.085996 0.394020 0.551348
O O17 0.000000 0.441000 0.698172
O O18 0.500000 0.383129 0.119242
#
# Coordination Sequence:
#
# PCOD9479203 Si02
#       7
#    16  16  16  16  16  16  16
#     4  10  23  43  64  91 126 163 200 252 322 379
#     4  10  21  37  64  92 115 154 207 255 301 362
#     4  10  20  38  59  81 117 158 196 245 301 353
#     4  10  22  42  67  91 124 162 201 258 319 371
#     4  12  25  37  56  86 122 161 202 250 294 365
#     4  10  21  41  61  83 118 160 203 249 305 359
#     4  11  24  40  62  87 121 163 203 250 306 373
#
# _framework density 22.527438
#
# number of rings (size 3 to 8) (size 9 to 14) (size 15 to 20)
#    0.000    1.571    1.429    3.000    4.000    4.571 
#    0.000    0.000    0.000    5.143    0.000    0.000 
#    0.000    0.000    0.000    0.000    0.000    0.000 
#
# Total GULP energy -312056.294851 kJ/mol
# GULP energy per Si atom -5572.433837 kJ/mol
# Density = 2.247616 g / cm^3
# Si number density = 22.527438 Si / 1000 Ang^3
#
#
#
# Elastic Constant Matrix: (Units=GPa)
#
#
# Indices 1 2 3 4 5 6 
#
# 1 189.4789 4.6983 44.1093 0.0000 0.0000 0.0000
# 2 4.6983 22.1297 -8.4623 0.0000 0.0000 0.0000
# 3 44.1093 -8.4623 124.9309 0.0000 0.0000 0.0000
# 4 0.0000 0.0000 0.0000 128.7781 0.0000 0.0000
# 5 0.0000 0.0000 0.0000 0.0000 31.6954 0.0000
# 6 0.0000 0.0000 0.0000 0.0000 0.0000 31.6477
#
#
#
# Elastic Compliance Matrix: (Units=1/GPa)
#
#
# Indices 1 2 3 4 5 6 
#
# 1 0.005842 -0.002083 -0.002204 0.000000 0.000000 0.000000
# 2 -0.002083 0.047132 0.003928 0.000000 0.000000 0.000000
# 3 -0.002204 0.003928 0.009049 0.000000 0.000000 0.000000
# 4 0.000000 0.000000 0.000000 0.007765 0.000000 0.000000
# 5 0.000000 0.000000 0.000000 0.000000 0.031550 0.000000
# 6 0.000000 0.000000 0.000000 0.000000 0.000000 0.031598
#
#
# Mechanical properties :
#
#
# Convention : Reuss Voigt Hill
#
# Bulk Modulus (GPa) = 16.31174 46.35892 31.33533
# Shear Modulus (GPa) = 32.44858 58.17050 45.30954
#
# Velocity S-wave (km/s) = 3.79938 5.08705 4.48962
# Velocity P-wave (km/s) = 5.14817 7.42480 6.38871
#
# Compressibility (1/GPa) = 0.06130553
#
# Stress axis : x y z
#
# Youngs Moduli (GPa) = 171.16466 21.21679 110.51423
#
# Poissons Ratio (x) = 0.04420 0.24356
# Poissons Ratio (y) = 0.35656 -0.43410
# Poissons Ratio (z) = 0.37722 -0.08334
#
# Static dielectric constant tensor:
#      x y z
#    x 1.904760 0.000000 0.000000 
#    y 0.000000 1.866570 0.000000 
#    z 0.000000 0.000000 1.889580 
# 
# From -- ./inp_files/15008.got.cif
#   From: 2010.05.17/outbox.cif.g08.bks.cpg/sg64_8_cif.got.tgz:15008.got - 2010.06.03 16:29:19.
