data_PCOD9479704
_publ_section_title
;
Structure prediction by ZEFSAII (Michael W. Deem and Ramdas Pophale) SiO2 
 PCOD9479704
Probable space group: C M C A
;
_chemical_formula_sum "Si O2"
_cell_formula_units_Z 96
_cell_length_a 18.607134
_cell_length_b 23.602353
_cell_length_c 11.642548
_cell_angle_alpha 90.000000
_cell_angle_beta 90.000000
_cell_angle_gamma 90.000000
_cell_volume 5113.082778
_symmetry_space_group_name_H-M "C M C A"
_symmetry_group_IT_number 64
_symmetry_cell_setting 'orthorhombic'
loop_
_space_group_symop_operation_xyz
x,y,z
-x,1/2-y,1/2+z
x,-y,-z
-x,1/2+y,1/2-z
-x,-y,-z
x,1/2+y,1/2-z
-x,y,z
x,1/2-y,1/2+z
1/2+x,1/2+y,z
1/2-x,-y,1/2+z
1/2+x,1/2-y,-z
1/2-x,y,1/2-z
1/2-x,1/2-y,-z
1/2+x,y,1/2-z
1/2-x,1/2+y,z
1/2+x,-y,1/2+z
loop_
_atom_site_type_symbol
_atom_site_label
_atom_site_fract_x
_atom_site_fract_y
_atom_site_fract_z
Si Si1 0.146545 0.911489 0.739678
Si Si2 0.241560 0.945126 0.935010
Si Si3 0.500000 0.909149 0.105314
Si Si4 0.681296 0.288921 0.835040
Si Si5 0.133376 0.169500 0.688300
Si Si6 0.290644 0.156045 0.575861
Si Si7 0.500000 0.457735 0.654475
O O1 0.187803 0.952575 0.828697
O O2 0.192030 0.912230 0.621971
O O3 0.150282 0.848078 0.788041
O O4 0.069511 0.935336 0.717998
O O5 0.200412 0.906254 0.024576
O O6 0.267845 0.000000 0.000000
O O7 0.430094 0.871636 0.143767
O O8 0.500000 0.973615 0.154412
O O9 0.500000 0.926209 0.970178
O O10 0.750000 0.275696 0.750000
O O11 0.625693 0.237014 0.832442
O O12 0.703078 0.301984 0.966795
O O13 0.209771 0.157322 0.625839
O O14 0.151808 0.164509 0.823609
#
# Coordination Sequence:
#
# PCOD9479704 Si02
#       7
#    16  16   8  16  16  16   8
#     4  10  22  40  62  94 122 172 213 257 327 388
#     4  10  21  35  63  92 125 158 219 274 310 377
#     4  11  28  43  57  96 127 170 211 256 319 387
#     4  11  20  41  67  97 128 159 214 267 317 383
#     4  11  24  38  65  93 128 167 207 263 319 377
#     4  10  21  37  64  96 122 163 209 266 324 363
#     4  11  26  45  64  81 138 173 207 258 316 392
#
# _framework density 18.775366000000002
#
# number of rings (size 3 to 8) (size 9 to 14) (size 15 to 20)
#    0.000    1.500    5.000    1.500    7.000    2.000 
#    0.000    4.583    0.000    0.000    0.000    0.000 
#    0.000    0.000    0.000    0.000    0.000    0.000 
#
# Total GULP energy -267495.308216 kJ/mol
# GULP energy per Si atom -5572.818921 kJ/mol
# Density = 1.873263 g / cm^3
# Si number density = 18.775366 Si / 1000 Ang^3
#
#
#
# Elastic Constant Matrix: (Units=GPa)
#
#
# Indices 1 2 3 4 5 6 
#
# 1 117.2022 52.8762 39.6311 0.0000 0.0000 0.0000
# 2 52.8762 121.7373 56.9069 0.0000 0.0000 0.0000
# 3 39.6311 56.9069 109.7966 0.0000 0.0000 0.0000
# 4 0.0000 0.0000 0.0000 -4.7609 0.0000 0.0000
# 5 0.0000 0.0000 0.0000 0.0000 -1.1106 0.0000
# 6 0.0000 0.0000 0.0000 0.0000 0.0000 42.9763
#
#
#
# Elastic Compliance Matrix: (Units=1/GPa)
#
#
# Indices 1 2 3 4 5 6 
#
# 1 0.010922 -0.003829 -0.001958 0.000000 0.000000 0.000000
# 2 -0.003829 0.012183 -0.004932 0.000000 0.000000 0.000000
# 3 -0.001958 -0.004932 0.012371 0.000000 0.000000 0.000000
# 4 0.000000 0.000000 0.000000 -0.210044 0.000000 0.000000
# 5 0.000000 0.000000 0.000000 0.000000 -0.900425 0.000000
# 6 0.000000 0.000000 0.000000 0.000000 0.000000 0.023269
#
#
# Mechanical properties :
#
#
# Convention : Reuss Voigt Hill
#
# Bulk Modulus (GPa) = 71.23626 71.95162 71.59394
# Shear Modulus (GPa) = -4.87516 20.70910 7.91697
#
# Velocity S-wave (km/s) = -1.61314 3.32474 2.05568
# Velocity P-wave (km/s) = 5.87827 7.29000 6.62186
#
# Compressibility (1/GPa) = 0.01403779
#
# Stress axis : x y z
#
# Youngs Moduli (GPa) = 91.56214 82.08131 80.83488
#
# Poissons Ratio (x) = 0.31425 0.15826
# Poissons Ratio (y) = 0.35055 0.39872
# Poissons Ratio (z) = 0.17926 0.40486
#
# Static dielectric constant tensor:
#      x y z
#    x -2.144890 0.000000 0.000000 
#    y 0.000000 1.684890 0.000000 
#    z 0.000000 0.000000 1.691900 
# 
# From -- ./inp_files/16276.got.cif
#   From: 2010.05.17/outbox.cif.g08.bks.cpg/sg64_9_cif.got.tgz:16276.got - 2010.06.03 16:29:19.
