data_PCOD9479336
_publ_section_title
;
Structure prediction by ZEFSAII (Michael W. Deem and Ramdas Pophale) SiO2 
 PCOD9479336
Probable space group: C M C A
;
_chemical_formula_sum "Si O2"
_cell_formula_units_Z 72
_cell_length_a 23.412990
_cell_length_b 17.324681
_cell_length_c 8.540299
_cell_angle_alpha 90.000000
_cell_angle_beta 90.000000
_cell_angle_gamma 90.000000
_cell_volume 3464.138140
_symmetry_space_group_name_H-M "C M C A"
_symmetry_group_IT_number 64
_symmetry_cell_setting 'orthorhombic'
loop_
_space_group_symop_operation_xyz
x,y,z
-x,1/2-y,1/2+z
x,-y,-z
-x,1/2+y,1/2-z
-x,-y,-z
x,1/2+y,1/2-z
-x,y,z
x,1/2-y,1/2+z
1/2+x,1/2+y,z
1/2-x,-y,1/2+z
1/2+x,1/2-y,-z
1/2-x,y,1/2-z
1/2-x,1/2-y,-z
1/2+x,y,1/2-z
1/2-x,1/2+y,z
1/2+x,-y,1/2+z
loop_
_atom_site_type_symbol
_atom_site_label
_atom_site_fract_x
_atom_site_fract_y
_atom_site_fract_z
Si Si1 0.000000 0.370475 0.563813
Si Si2 0.500000 0.031852 0.749944
Si Si3 0.590205 0.500000 0.500000
Si Si4 0.375610 0.294738 0.916741
Si Si5 0.839935 0.356848 0.914562
Si Si6 0.232378 0.665949 0.569974
O O1 0.000000 0.444185 0.680993
O O2 0.000000 0.408432 0.391568
O O3 0.941418 0.321666 0.584106
O O4 0.552913 0.040317 0.866144
O O5 0.624836 0.565606 0.413033
O O6 0.346380 0.313644 0.750526
O O7 0.366938 0.205208 0.962961
O O8 0.334791 0.341830 0.038131
O O9 0.776368 0.382264 0.965543
O O10 0.250000 0.659598 0.750000
O O11 0.250000 0.750000 0.500000
#
# Coordination Sequence:
#
# PCOD9479336 Si02
#       6
#     8   8   8  16  16  16
#     4  11  24  42  68  96 127 174 227 262 324 398
#     4  10  24  44  62  89 139 183 202 269 339 392
#     4  11  24  44  66  92 140 173 216 266 340 393
#     4  11  23  41  68  99 131 171 227 272 319 387
#     4  11  23  42  67  99 131 172 220 273 330 386
#     4  10  20  38  66  96 129 170 211 273 330 373
#
# _framework density 20.784389999999998
#
# number of rings (size 3 to 8) (size 9 to 14) (size 15 to 20)
#    0.000    1.333    2.222    6.000    6.222    2.667 
#    0.000    4.444    0.000    0.000    0.000    0.000 
#    0.000    0.000    0.000    0.000    0.000    0.000 
#
# Total GULP energy -200817.180093 kJ/mol
# GULP energy per Si atom -5578.255003 kJ/mol
# Density = 2.073708 g / cm^3
# Si number density = 20.784390 Si / 1000 Ang^3
#
#
#
# Elastic Constant Matrix: (Units=GPa)
#
#
# Indices 1 2 3 4 5 6 
#
# 1 132.6134 -0.7262 15.2027 0.0000 0.0000 0.0000
# 2 -0.7262 28.9749 -5.1597 0.0000 0.0000 0.0000
# 3 15.2027 -5.1597 105.3302 0.0000 0.0000 0.0000
# 4 0.0000 0.0000 0.0000 18.6104 0.0000 0.0000
# 5 0.0000 0.0000 0.0000 0.0000 62.4633 0.0000
# 6 0.0000 0.0000 0.0000 0.0000 0.0000 3.6424
#
#
#
# Elastic Compliance Matrix: (Units=1/GPa)
#
#
# Indices 1 2 3 4 5 6 
#
# 1 0.007668 -0.000005 -0.001107 0.000000 0.000000 0.000000
# 2 -0.000005 0.034816 0.001706 0.000000 0.000000 0.000000
# 3 -0.001107 0.001706 0.009737 0.000000 0.000000 0.000000
# 4 0.000000 0.000000 0.000000 0.053733 0.000000 0.000000
# 5 0.000000 0.000000 0.000000 0.000000 0.016009 0.000000
# 6 0.000000 0.000000 0.000000 0.000000 0.000000 0.274542
#
#
# Mechanical properties :
#
#
# Convention : Reuss Voigt Hill
#
# Bulk Modulus (GPa) = 18.72310 31.72800 25.22555
# Shear Modulus (GPa) = 12.10299 34.11667 23.10983
#
# Velocity S-wave (km/s) = 2.41573 4.05588 3.33811
# Velocity P-wave (km/s) = 4.09986 6.10181 5.19812
#
# Compressibility (1/GPa) = 0.05340996
#
# Stress axis : x y z
#
# Youngs Moduli (GPa) = 130.41917 28.72214 102.69786
#
# Poissons Ratio (x) = 0.00014 0.11368
# Poissons Ratio (y) = 0.00064 -0.17523
# Poissons Ratio (z) = 0.14436 -0.04901
#
# Static dielectric constant tensor:
#      x y z
#    x 1.866130 0.000000 0.000000 
#    y 0.000000 1.760500 0.000000 
#    z 0.000000 0.000000 1.749360 
# 
# From -- ./inp_files/9167.got.cif
#   From: 2010.05.17/outbox.cif.g08.bks.cpg/sg64_5_cif.got.tgz:9167.got - 2010.06.03 16:29:19.
