data_PCOD9479656
_publ_section_title
;
Structure prediction by ZEFSAII (Michael W. Deem and Ramdas Pophale) SiO2 
 PCOD9479656
Probable space group: C M C A
;
_chemical_formula_sum "Si O2"
_cell_formula_units_Z 104
_cell_length_a 28.979929
_cell_length_b 18.204421
_cell_length_c 9.198470
_cell_angle_alpha 90.000000
_cell_angle_beta 90.000000
_cell_angle_gamma 90.000000
_cell_volume 4852.770847
_symmetry_space_group_name_H-M "C M C A"
_symmetry_group_IT_number 64
_symmetry_cell_setting 'orthorhombic'
loop_
_space_group_symop_operation_xyz
x,y,z
-x,1/2-y,1/2+z
x,-y,-z
-x,1/2+y,1/2-z
-x,-y,-z
x,1/2+y,1/2-z
-x,y,z
x,1/2-y,1/2+z
1/2+x,1/2+y,z
1/2-x,-y,1/2+z
1/2+x,1/2-y,-z
1/2-x,y,1/2-z
1/2-x,1/2-y,-z
1/2+x,y,1/2-z
1/2-x,1/2+y,z
1/2+x,-y,1/2+z
loop_
_atom_site_type_symbol
_atom_site_label
_atom_site_fract_x
_atom_site_fract_y
_atom_site_fract_z
Si Si1 0.705835 0.130969 0.182090
Si Si2 0.851113 0.290035 0.062618
Si Si3 0.351884 0.612541 0.049333
Si Si4 0.949144 0.146287 0.016146
Si Si5 0.051620 0.293682 0.187518
Si Si6 0.201607 0.500000 0.000000
Si Si7 0.694792 0.598442 0.750097
O O1 0.750000 0.171117 0.250000
O O2 0.672295 0.178370 0.082008
O O3 0.674866 0.093916 0.305241
O O4 0.727005 0.065646 0.083200
O O5 0.850821 0.202345 0.051608
O O6 0.902896 0.318528 0.099174
O O7 0.819841 0.321024 0.193792
O O8 0.405799 0.594292 0.041859
O O9 0.326391 0.585250 0.906408
O O10 0.942416 0.187770 0.858900
O O11 0.000000 0.112403 0.011682
O O12 0.949169 0.207444 0.144446
O O13 0.000000 0.321387 0.145967
O O14 0.175241 0.544220 0.874433
O O15 0.750000 0.590330 0.750000
#
# Coordination Sequence:
#
# PCOD9479656 Si02
#       7
#    16  16  16  16  16   8  16
#     4  11  24  39  58  82 112 151 191 239 281 333
#     4  10  21  35  52  87 125 150 180 221 279 354
#     4  11  21  34  57  88 117 153 182 225 285 345
#     4   9  18  31  51  82 117 154 191 223 270 330
#     4   9  17  31  51  78 116 159 189 224 266 323
#     4  10  24  44  58  76 105 140 205 256 278 316
#     4  11  22  37  58  80 110 147 189 235 283 332
#
# _framework density 21.431054
#
# number of rings (size 3 to 8) (size 9 to 14) (size 15 to 20)
#    0.000    1.846    1.538    3.231    6.462    4.308 
#    0.000    0.000    0.000    0.000    0.000   20.462 
#    0.000    0.000    0.000    0.000    0.000    0.000 
#
# Total GULP energy -289988.266847 kJ/mol
# GULP energy per Si atom -5576.697439 kJ/mol
# Density = 2.138228 g / cm^3
# Si number density = 21.431054 Si / 1000 Ang^3
#
#
#
# Elastic Constant Matrix: (Units=GPa)
#
#
# Indices 1 2 3 4 5 6 
#
# 1 153.2003 8.8990 46.2937 0.0000 0.0000 0.0000
# 2 8.8990 43.6292 8.1495 0.0000 0.0000 0.0000
# 3 46.2937 8.1495 105.6546 0.0000 0.0000 0.0000
# 4 0.0000 0.0000 0.0000 36.3693 0.0000 0.0000
# 5 0.0000 0.0000 0.0000 0.0000 34.2203 0.0000
# 6 0.0000 0.0000 0.0000 0.0000 0.0000 -1.6371
#
#
#
# Elastic Compliance Matrix: (Units=1/GPa)
#
#
# Indices 1 2 3 4 5 6 
#
# 1 0.007561 -0.000937 -0.003241 0.000000 0.000000 0.000000
# 2 -0.000937 0.023372 -0.001392 0.000000 0.000000 0.000000
# 3 -0.003241 -0.001392 0.010992 0.000000 0.000000 0.000000
# 4 0.000000 0.000000 0.000000 0.027496 0.000000 0.000000
# 5 0.000000 0.000000 0.000000 0.000000 0.029222 0.000000
# 6 0.000000 0.000000 0.000000 0.000000 0.000000 -0.610826
#
#
# Mechanical properties :
#
#
# Convention : Reuss Voigt Hill
#
# Bulk Modulus (GPa) = 32.48314 47.68537 40.08426
# Shear Modulus (GPa) = -10.18784 29.73329 9.77273
#
# Velocity S-wave (km/s) = -2.18268 3.72881 2.13775
# Velocity P-wave (km/s) = 2.97285 6.39043 4.98375
#
# Compressibility (1/GPa) = 0.03078520
#
# Stress axis : x y z
#
# Youngs Moduli (GPa) = 132.25595 42.78697 90.97412
#
# Poissons Ratio (x) = 0.04009 0.29482
# Poissons Ratio (y) = 0.12391 0.12665
# Poissons Ratio (z) = 0.42860 0.05957
#
# Static dielectric constant tensor:
#      x y z
#    x 1.812990 0.000000 0.000000 
#    y 0.000000 1.814630 0.000000 
#    z 0.000000 0.000000 1.801540 
# 
# From -- ./inp_files/11267.got.cif
#   From: 2010.05.17/outbox.cif.g08.bks.cpg/sg64_6_cif.got.tgz:11267.got - 2010.06.03 16:29:19.
