data_PCOD9479520
_publ_section_title
;
Structure prediction by ZEFSAII (Michael W. Deem and Ramdas Pophale) SiO2 
 PCOD9479520
Probable space group: C M C A
;
_chemical_formula_sum "Si O2"
_cell_formula_units_Z 64
_cell_length_a 23.362603
_cell_length_b 19.217813
_cell_length_c 5.390270
_cell_angle_alpha 90.000000
_cell_angle_beta 90.000000
_cell_angle_gamma 90.000000
_cell_volume 2420.113375
_symmetry_space_group_name_H-M "C M C A"
_symmetry_group_IT_number 64
_symmetry_cell_setting 'orthorhombic'
loop_
_space_group_symop_operation_xyz
x,y,z
-x,1/2-y,1/2+z
x,-y,-z
-x,1/2+y,1/2-z
-x,-y,-z
x,1/2+y,1/2-z
-x,y,z
x,1/2-y,1/2+z
1/2+x,1/2+y,z
1/2-x,-y,1/2+z
1/2+x,1/2-y,-z
1/2-x,y,1/2-z
1/2-x,1/2-y,-z
1/2+x,y,1/2-z
1/2-x,1/2+y,z
1/2+x,-y,1/2+z
loop_
_atom_site_type_symbol
_atom_site_label
_atom_site_fract_x
_atom_site_fract_y
_atom_site_fract_z
Si Si1 0.814552 0.429508 0.150636
Si Si2 0.175802 0.272791 0.135866
Si Si3 0.438506 0.813406 0.774488
Si Si4 0.438135 0.905459 0.280097
O O1 0.750000 0.427234 0.250000
O O2 0.821607 0.351739 0.036787
O O3 0.874707 0.437914 0.298194
O O4 0.814656 0.500000 0.000000
O O5 0.200391 0.224767 0.916619
O O6 0.060113 0.360832 0.530724
O O7 0.114508 0.261625 0.722603
O O8 0.500000 0.775739 0.788918
O O9 0.436767 0.861508 0.021078
O O10 0.500000 0.944525 0.269735
#
# Coordination Sequence:
#
# PCOD9479520 Si02
#       4
#    16  16  16  16
#     4  12  30  52  77 113 161 213 257 323 397 467
#     4  12  24  46  77 116 148 202 264 323 372 462
#     4  10  20  40  74 117 158 197 247 322 393 448
#     4  10  22  46  78 114 156 201 256 316 384 462
#
# _framework density 26.445043999999999
#
# number of rings (size 3 to 8) (size 9 to 14) (size 15 to 20)
#    0.000    1.000    5.000    0.000    0.000    7.500 
#    0.000    0.000    0.000    5.250    0.000    0.000 
#    0.000    0.000    0.000    0.000    0.000    0.000 
#
# Total GULP energy -178280.692904 kJ/mol
# GULP energy per Si atom -5571.271653 kJ/mol
# Density = 2.638485 g / cm^3
# Si number density = 26.445044 Si / 1000 Ang^3
#
#
#
# Elastic Constant Matrix: (Units=GPa)
#
#
# Indices 1 2 3 4 5 6 
#
# 1 253.3629 39.6691 23.0327 0.0000 0.0000 0.0000
# 2 39.6691 118.0880 40.1520 0.0000 0.0000 0.0000
# 3 23.0327 40.1520 183.2091 0.0000 0.0000 0.0000
# 4 0.0000 0.0000 0.0000 45.2654 0.0000 0.0000
# 5 0.0000 0.0000 0.0000 0.0000 22.0091 0.0000
# 6 0.0000 0.0000 0.0000 0.0000 0.0000 203.4136
#
#
#
# Elastic Compliance Matrix: (Units=1/GPa)
#
#
# Indices 1 2 3 4 5 6 
#
# 1 0.004175 -0.001323 -0.000235 0.000000 0.000000 0.000000
# 2 -0.001323 0.009569 -0.001931 0.000000 0.000000 0.000000
# 3 -0.000235 -0.001931 0.005911 0.000000 0.000000 0.000000
# 4 0.000000 0.000000 0.000000 0.022092 0.000000 0.000000
# 5 0.000000 0.000000 0.000000 0.000000 0.045436 0.000000
# 6 0.000000 0.000000 0.000000 0.000000 0.000000 0.004916
#
#
# Mechanical properties :
#
#
# Convention : Reuss Voigt Hill
#
# Bulk Modulus (GPa) = 78.87543 84.48529 81.68036
# Shear Modulus (GPa) = 48.40155 84.25803 66.32979
#
# Velocity S-wave (km/s) = 4.28281 5.65073 5.01364
# Velocity P-wave (km/s) = 7.37207 8.63662 8.02928
#
# Compressibility (1/GPa) = 0.01267822
#
# Stress axis : x y z
#
# Youngs Moduli (GPa) = 239.49963 104.50271 169.17721
#
# Poissons Ratio (x) = 0.13823 0.03976
# Poissons Ratio (y) = 0.31679 0.32666
# Poissons Ratio (z) = 0.05629 0.20178
#
# Static dielectric constant tensor:
#      x y z
#    x 1.749610 0.000000 0.000000 
#    y 0.000000 2.053610 0.000000 
#    z 0.000000 0.000000 2.266700 
# 
# From -- ./inp_files/8087.got.cif
#   From: 2010.05.17/outbox.cif.g08.bks.cpg/sg64_5_cif.got.tgz:8087.got - 2010.06.03 16:29:19.
