data_PCOD9479363
_publ_section_title
;
Structure prediction by ZEFSAII (Michael W. Deem and Ramdas Pophale) SiO2 
 PCOD9479363
Probable space group: C M C A
;
_chemical_formula_sum "Si O2"
_cell_formula_units_Z 96
_cell_length_a 32.961828
_cell_length_b 12.645002
_cell_length_c 11.658778
_cell_angle_alpha 90.000000
_cell_angle_beta 90.000000
_cell_angle_gamma 90.000000
_cell_volume 4859.406430
_symmetry_space_group_name_H-M "C M C A"
_symmetry_group_IT_number 64
_symmetry_cell_setting 'orthorhombic'
loop_
_space_group_symop_operation_xyz
x,y,z
-x,1/2-y,1/2+z
x,-y,-z
-x,1/2+y,1/2-z
-x,-y,-z
x,1/2+y,1/2-z
-x,y,z
x,1/2-y,1/2+z
1/2+x,1/2+y,z
1/2-x,-y,1/2+z
1/2+x,1/2-y,-z
1/2-x,y,1/2-z
1/2-x,1/2-y,-z
1/2+x,y,1/2-z
1/2-x,1/2+y,z
1/2+x,-y,1/2+z
loop_
_atom_site_type_symbol
_atom_site_label
_atom_site_fract_x
_atom_site_fract_y
_atom_site_fract_z
Si Si1 0.500000 0.105739 0.315654
Si Si2 0.717226 0.315811 0.426765
Si Si3 0.204237 0.376615 0.710368
Si Si4 0.500000 0.667833 0.572360
Si Si5 0.000000 0.627048 0.667405
Si Si6 0.228845 0.000000 0.000000
Si Si7 0.646541 0.103135 0.079290
Si Si8 0.558529 0.817561 0.876256
O O1 0.500000 0.206150 0.399991
O O2 0.538762 0.121400 0.231679
O O3 0.500000 0.992357 0.374030
O O4 0.750000 0.250000 0.500000
O O5 0.704776 0.250169 0.314361
O O6 0.740704 0.427224 0.423890
O O7 0.677076 0.329290 0.501553
O O8 0.250000 0.397927 0.750000
O O9 0.201403 0.433315 0.587275
O O10 0.172013 0.415397 0.803495
O O11 0.500000 0.614476 0.694745
O O12 0.461656 0.641525 0.493869
O O13 0.039222 0.699579 0.637730
O O14 0.605922 0.164860 0.113432
O O15 0.637742 0.000000 0.000000
#
# Coordination Sequence:
#
# PCOD9479363 Si02
#       8
#     8  16  16   8   8   8  16  16
#     4   9  19  39  66  93 120 171 212 243 342 380
#     4  10  20  39  59  88 121 168 222 267 332 383
#     4  11  22  40  65  90 128 167 229 277 322 397
#     4   8  18  38  64  88 127 163 200 264 300 408
#     4   9  19  39  65  94 126 167 205 252 325 394
#     4  10  20  42  64  92 114 172 224 272 338 390
#     4  12  24  42  61  98 132 174 222 278 337 394
#     4   9  22  37  59  98 123 160 214 257 320 390
#
# _framework density 19.755497999999999
#
# number of rings (size 3 to 8) (size 9 to 14) (size 15 to 20)
#    0.000    2.333    4.167    0.000    2.333    6.667 
#    0.000    0.000    0.000    0.000    0.000    0.000 
#    0.000    0.000    0.000    0.000    0.000    0.000 
#
# Total GULP energy -267471.094527 kJ/mol
# GULP energy per Si atom -5572.314469 kJ/mol
# Density = 1.971053 g / cm^3
# Si number density = 19.755498 Si / 1000 Ang^3
#
#
#
# Elastic Constant Matrix: (Units=GPa)
#
#
# Indices 1 2 3 4 5 6 
#
# 1 135.9359 29.1506 26.3906 0.0000 0.0000 0.0000
# 2 29.1506 106.4793 20.9176 0.0000 0.0000 0.0000
# 3 26.3906 20.9176 99.2033 0.0000 0.0000 0.0000
# 4 0.0000 0.0000 0.0000 23.9823 0.0000 0.0000
# 5 0.0000 0.0000 0.0000 0.0000 4.5803 0.0000
# 6 0.0000 0.0000 0.0000 0.0000 0.0000 1.8276
#
#
#
# Elastic Compliance Matrix: (Units=1/GPa)
#
#
# Indices 1 2 3 4 5 6 
#
# 1 0.008099 -0.001872 -0.001760 0.000000 0.000000 0.000000
# 2 -0.001872 0.010230 -0.001659 0.000000 0.000000 0.000000
# 3 -0.001760 -0.001659 0.010898 0.000000 0.000000 0.000000
# 4 0.000000 0.000000 0.000000 0.041697 0.000000 0.000000
# 5 0.000000 0.000000 0.000000 0.000000 0.218328 0.000000
# 6 0.000000 0.000000 0.000000 0.000000 0.000000 0.547159
#
#
# Mechanical properties :
#
#
# Convention : Reuss Voigt Hill
#
# Bulk Modulus (GPa) = 53.63047 54.94844 54.28946
# Shear Modulus (GPa) = 5.86023 23.75535 14.80779
#
# Velocity S-wave (km/s) = 1.72419 3.47142 2.74077
# Velocity P-wave (km/s) = 5.58299 6.62890 6.12830
#
# Compressibility (1/GPa) = 0.01864612
#
# Stress axis : x y z
#
# Youngs Moduli (GPa) = 123.46505 97.75345 91.75704
#
# Poissons Ratio (x) = 0.18296 0.16149
# Poissons Ratio (y) = 0.23108 0.15224
# Poissons Ratio (z) = 0.21730 0.16218
#
# Static dielectric constant tensor:
#      x y z
#    x 1.648170 0.000000 0.000000 
#    y 0.000000 1.603850 0.000000 
#    z 0.000000 0.000000 1.769940 
# 
# From -- ./inp_files/19816.got.cif
#   From: 2010.05.17/outbox.cif.g08.bks.cpg/sg64_10_cif.got.tgz:19816.got - 2010.06.03 16:29:19.
