data_PCOD9479957
_publ_section_title
;
Structure prediction by ZEFSAII (Michael W. Deem and Ramdas Pophale) SiO2 
 PCOD9479957
Probable space group: C M C A
;
_chemical_formula_sum "Si O2"
_cell_formula_units_Z 80
_cell_length_a 24.452031
_cell_length_b 8.146120
_cell_length_c 19.817105
_cell_angle_alpha 90.000000
_cell_angle_beta 90.000000
_cell_angle_gamma 90.000000
_cell_volume 3947.352871
_symmetry_space_group_name_H-M "C M C A"
_symmetry_group_IT_number 64
_symmetry_cell_setting 'orthorhombic'
loop_
_space_group_symop_operation_xyz
x,y,z
-x,1/2-y,1/2+z
x,-y,-z
-x,1/2+y,1/2-z
-x,-y,-z
x,1/2+y,1/2-z
-x,y,z
x,1/2-y,1/2+z
1/2+x,1/2+y,z
1/2-x,-y,1/2+z
1/2+x,1/2-y,-z
1/2-x,y,1/2-z
1/2-x,1/2-y,-z
1/2+x,y,1/2-z
1/2-x,1/2+y,z
1/2+x,-y,1/2+z
loop_
_atom_site_type_symbol
_atom_site_label
_atom_site_fract_x
_atom_site_fract_y
_atom_site_fract_z
Si Si1 0.163135 0.222135 0.389525
Si Si2 0.640043 0.182720 0.468008
Si Si3 0.562657 0.263253 0.345900
Si Si4 0.258749 0.024992 0.420950
Si Si5 0.936096 0.140862 0.299332
O O1 0.140831 0.205558 0.465959
O O2 0.205531 0.072875 0.378779
O O3 0.202796 0.381618 0.391663
O O4 0.111346 0.232847 0.340860
O O5 0.597536 0.227489 0.411410
O O6 0.698826 0.176964 0.430840
O O7 0.630946 0.000000 0.500000
O O8 0.500000 0.226754 0.362131
O O9 0.577085 0.157934 0.279733
O O10 0.566628 0.452978 0.323512
O O11 0.243748 0.000000 0.500000
O O12 0.000000 0.197594 0.308362
#
# Coordination Sequence:
#
# PCOD9479957 Si02
#       5
#    16  16  16  16  16
#     4  10  21  37  65  91 124 159 206 256 300 373
#     4   9  20  37  63  93 126 161 211 255 310 369
#     4  10  23  42  63  90 124 169 209 256 321 372
#     4   9  19  35  59  92 121 165 195 244 317 358
#     4  10  24  42  65  89 123 168 207 257 319 377
#
# _framework density 20.266746000000001
#
# number of rings (size 3 to 8) (size 9 to 14) (size 15 to 20)
#    0.000    2.800    0.000    2.400   11.200    1.200 
#    0.000    3.000    0.000    0.600    0.000    0.000 
#    0.000    0.000    0.000    0.000    0.000    0.000 
#
# Total GULP energy -223030.497718 kJ/mol
# GULP energy per Si atom -5575.762443 kJ/mol
# Density = 2.022062 g / cm^3
# Si number density = 20.266746 Si / 1000 Ang^3
#
#
#
# Elastic Constant Matrix: (Units=GPa)
#
#
# Indices 1 2 3 4 5 6 
#
# 1 114.1616 28.5767 82.4091 0.0000 0.0000 0.0000
# 2 28.5767 42.7730 22.6667 0.0000 0.0000 0.0000
# 3 82.4091 22.6667 91.1301 0.0000 0.0000 0.0000
# 4 0.0000 0.0000 0.0000 24.3407 0.0000 0.0000
# 5 0.0000 0.0000 0.0000 0.0000 -33.4894 0.0000
# 6 0.0000 0.0000 0.0000 0.0000 0.0000 21.8430
#
#
#
# Elastic Compliance Matrix: (Units=1/GPa)
#
#
# Indices 1 2 3 4 5 6 
#
# 1 0.026398 -0.005743 -0.022443 0.000000 0.000000 0.000000
# 2 -0.005743 0.028178 -0.001815 0.000000 0.000000 0.000000
# 3 -0.022443 -0.001815 0.031720 0.000000 0.000000 0.000000
# 4 0.000000 0.000000 0.000000 0.041084 0.000000 0.000000
# 5 0.000000 0.000000 0.000000 0.000000 -0.029860 0.000000
# 6 0.000000 0.000000 0.000000 0.000000 0.000000 0.045781
#
#
# Mechanical properties :
#
#
# Convention : Reuss Voigt Hill
#
# Bulk Modulus (GPa) = 38.03255 57.26329 47.64792
# Shear Modulus (GPa) = 23.57719 10.16635 16.87177
#
# Velocity S-wave (km/s) = 3.41448 2.24213 2.88841
# Velocity P-wave (km/s) = 5.86103 5.91769 5.88943
#
# Compressibility (1/GPa) = 0.02629327
#
# Stress axis : x y z
#
# Youngs Moduli (GPa) = 37.88127 35.48844 31.52540
#
# Poissons Ratio (x) = 0.20382 0.70754
# Poissons Ratio (y) = 0.21756 0.05722
# Poissons Ratio (z) = 0.85019 0.06441
#
# Static dielectric constant tensor:
#      x y z
#    x 1.737530 0.000000 0.000000 
#    y 0.000000 1.838220 0.000000 
#    z 0.000000 0.000000 1.665210 
# 
# From -- ./inp_files/35378.got.cif
#   From: 2010.05.17/outbox.cif.g08.bks.cpg/sg64_18_cif.got.tgz:35378.got - 2010.06.03 16:29:19.
