data_PCOD9479151
_publ_section_title
;
Structure prediction by ZEFSAII (Michael W. Deem and Ramdas Pophale) SiO2 
 PCOD9479151
Probable space group: C M C A
;
_chemical_formula_sum "Si O2"
_cell_formula_units_Z 36
_cell_length_a 10.091989
_cell_length_b 9.819214
_cell_length_c 12.477461
_cell_angle_alpha 90.000000
_cell_angle_beta 90.000000
_cell_angle_gamma 90.000000
_cell_volume 1236.458985
_symmetry_space_group_name_H-M "C M C A"
_symmetry_group_IT_number 64
_symmetry_cell_setting 'orthorhombic'
loop_
_space_group_symop_operation_xyz
x,y,z
-x,1/2-y,1/2+z
x,-y,-z
-x,1/2+y,1/2-z
-x,-y,-z
x,1/2+y,1/2-z
-x,y,z
x,1/2-y,1/2+z
1/2+x,1/2+y,z
1/2-x,-y,1/2+z
1/2+x,1/2-y,-z
1/2-x,y,1/2-z
1/2-x,1/2-y,-z
1/2+x,y,1/2-z
1/2-x,1/2+y,z
1/2+x,-y,1/2+z
loop_
_atom_site_type_symbol
_atom_site_label
_atom_site_fract_x
_atom_site_fract_y
_atom_site_fract_z
Si Si1 0.500000 0.304411 0.884310
Si Si2 0.789957 0.813163 0.627220
Si Si3 0.000000 0.500000 0.000000
Si Si4 0.500000 0.898096 0.296224
O O1 0.352658 0.303922 0.932055
O O2 0.500000 0.443507 0.817105
O O3 0.500000 0.158125 0.825026
O O4 0.750000 0.856378 0.750000
O O5 0.884664 0.919053 0.570343
O O6 0.871692 0.674654 0.652409
#
# Coordination Sequence:
#
# PCOD9479151 Si02
#       4
#     8  16   4   8
#     4  10  20  37  63  98 135 181 232 283 348 420
#     4   9  20  38  63  93 135 179 226 281 344 414
#     4  10  20  42  66  98 144 186 224 288 358 414
#     4   9  20  37  60  96 137 176 226 289 349 412
#
# _framework density 29.115400000000001
#
# number of rings (size 3 to 8) (size 9 to 14) (size 15 to 20)
#    0.000    2.667    0.000    1.333    0.000   16.889 
#    0.000   11.111    0.000    0.000    0.000    0.000 
#    0.000    0.000    0.000    0.000    0.000    0.000 
#
# Total GULP energy -100402.753008 kJ/mol
# GULP energy per Si atom -5577.930723 kJ/mol
# Density = 2.904913 g / cm^3
# Si number density = 29.115400 Si / 1000 Ang^3
#
#
#
# Elastic Constant Matrix: (Units=GPa)
#
#
# Indices 1 2 3 4 5 6 
#
# 1 364.4058 78.5185 47.6235 0.0000 0.0000 0.0000
# 2 78.5185 225.1418 31.1691 0.0000 0.0000 0.0000
# 3 47.6235 31.1691 66.2300 0.0000 0.0000 0.0000
# 4 0.0000 0.0000 0.0000 48.3518 0.0000 0.0000
# 5 0.0000 0.0000 0.0000 0.0000 -83.1804 0.0000
# 6 0.0000 0.0000 0.0000 0.0000 0.0000 30.8562
#
#
#
# Elastic Compliance Matrix: (Units=1/GPa)
#
#
# Indices 1 2 3 4 5 6 
#
# 1 0.003173 -0.000846 -0.001883 0.000000 0.000000 0.000000
# 2 -0.000846 0.004977 -0.001734 0.000000 0.000000 0.000000
# 3 -0.001883 -0.001734 0.017269 0.000000 0.000000 0.000000
# 4 0.000000 0.000000 0.000000 0.020682 0.000000 0.000000
# 5 0.000000 0.000000 0.000000 0.000000 -0.012022 0.000000
# 6 0.000000 0.000000 0.000000 0.000000 0.000000 0.032408
#
#
# Mechanical properties :
#
#
# Convention : Reuss Voigt Hill
#
# Bulk Modulus (GPa) = 60.63394 107.82222 84.22808
# Shear Modulus (GPa) = 61.79730 32.43663 47.11696
#
# Velocity S-wave (km/s) = 4.61205 3.34139 4.02715
# Velocity P-wave (km/s) = 7.01655 7.21108 7.11448
#
# Compressibility (1/GPa) = 0.01649241
#
# Stress axis : x y z
#
# Youngs Moduli (GPa) = 315.20529 200.93861 57.90685
#
# Poissons Ratio (x) = 0.16993 0.10905
# Poissons Ratio (y) = 0.26657 0.10041
# Poissons Ratio (z) = 0.59361 0.34843
#
# Static dielectric constant tensor:
#      x y z
#    x 2.185420 0.000000 0.000000 
#    y 0.000000 2.199510 0.000000 
#    z 0.000000 0.000000 2.882850 
# 
# From -- ./inp_files/21408.got.cif
#   From: 2010.05.17/outbox.cif.g08.bks.cpg/sg64_11_cif.got.tgz:21408.got - 2010.06.03 16:29:19.
