data_PCOD9479423
_publ_section_title
;
Structure prediction by ZEFSAII (Michael W. Deem and Ramdas Pophale) SiO2 
 PCOD9479423
Probable space group: C M C A
;
_chemical_formula_sum "Si O2"
_cell_formula_units_Z 112
_cell_length_a 13.613656
_cell_length_b 14.000706
_cell_length_c 26.974602
_cell_angle_alpha 90.000000
_cell_angle_beta 90.000000
_cell_angle_gamma 90.000000
_cell_volume 5141.380593
_symmetry_space_group_name_H-M "C M C A"
_symmetry_group_IT_number 64
_symmetry_cell_setting 'orthorhombic'
loop_
_space_group_symop_operation_xyz
x,y,z
-x,1/2-y,1/2+z
x,-y,-z
-x,1/2+y,1/2-z
-x,-y,-z
x,1/2+y,1/2-z
-x,y,z
x,1/2-y,1/2+z
1/2+x,1/2+y,z
1/2-x,-y,1/2+z
1/2+x,1/2-y,-z
1/2-x,y,1/2-z
1/2-x,1/2-y,-z
1/2+x,y,1/2-z
1/2-x,1/2+y,z
1/2+x,-y,1/2+z
loop_
_atom_site_type_symbol
_atom_site_label
_atom_site_fract_x
_atom_site_fract_y
_atom_site_fract_z
Si Si1 0.895929 0.684292 0.267159
Si Si2 0.752221 0.401128 0.977999
Si Si3 0.321448 0.181745 0.838111
Si Si4 0.385292 0.097384 0.116179
Si Si5 0.658622 0.505422 0.715484
Si Si6 0.383731 0.273045 0.448916
Si Si7 0.607177 0.200623 0.663828
O O1 0.816667 0.720629 0.306141
O O2 0.891671 0.575349 0.249265
O O3 0.892963 0.748501 0.217688
O O4 0.000000 0.699253 0.293027
O O5 0.824442 0.424596 0.932397
O O6 0.666870 0.329297 0.960170
O O7 0.713302 0.500000 0.000000
O O8 0.820947 0.346649 0.017839
O O9 0.380337 0.106914 0.803844
O O10 0.366374 0.199615 0.891482
O O11 0.208804 0.144899 0.842682
O O12 0.500000 0.066201 0.114929
O O13 0.387162 0.211493 0.125103
O O14 0.333000 0.049440 0.163244
O O15 0.750000 0.530698 0.750000
O O16 0.500000 0.274721 0.460233
O O17 0.500000 0.152402 0.658415
#
# Coordination Sequence:
#
# PCOD9479423 Si02
#       7
#    16  16  16  16  16  16  16
#     4  10  21  36  58  89 127 171 214 267 332 397
#     4  11  24  45  72 105 141 181 227 293 358 414
#     4  12  22  41  64  92 133 179 221 280 344 405
#     4  10  20  39  67  95 132 177 225 279 337 398
#     4  11  23  36  60  94 131 176 224 274 330 403
#     4  11  26  45  71 107 138 179 236 288 352 426
#     4   9  18  35  60  87 120 168 219 264 326 393
#
# _framework density 21.784032
#
# number of rings (size 3 to 8) (size 9 to 14) (size 15 to 20)
#    0.000    1.429    1.429    6.000    0.000    4.857 
#    0.000    1.429    0.000    3.429    0.000    0.000 
#    0.000    0.000    0.000    0.000    0.000    0.000 
#
# Total GULP energy -312496.416501 kJ/mol
# GULP energy per Si atom -5580.293152 kJ/mol
# Density = 2.173445 g / cm^3
# Si number density = 21.784032 Si / 1000 Ang^3
#
#
#
# Elastic Constant Matrix: (Units=GPa)
#
#
# Indices 1 2 3 4 5 6 
#
# 1 99.4118 27.4516 18.5731 0.0000 0.0000 0.0000
# 2 27.4516 92.7405 30.7024 0.0000 0.0000 0.0000
# 3 18.5731 30.7024 84.5109 0.0000 0.0000 0.0000
# 4 0.0000 0.0000 0.0000 31.8164 0.0000 0.0000
# 5 0.0000 0.0000 0.0000 0.0000 18.2479 0.0000
# 6 0.0000 0.0000 0.0000 0.0000 0.0000 4.5481
#
#
#
# Elastic Compliance Matrix: (Units=1/GPa)
#
#
# Indices 1 2 3 4 5 6 
#
# 1 0.011102 -0.002817 -0.001416 0.000000 0.000000 0.000000
# 2 -0.002817 0.012972 -0.004093 0.000000 0.000000 0.000000
# 3 -0.001416 -0.004093 0.013631 0.000000 0.000000 0.000000
# 4 0.000000 0.000000 0.000000 0.031430 0.000000 0.000000
# 5 0.000000 0.000000 0.000000 0.000000 0.054801 0.000000
# 6 0.000000 0.000000 0.000000 0.000000 0.000000 0.219874
#
#
# Mechanical properties :
#
#
# Convention : Reuss Voigt Hill
#
# Bulk Modulus (GPa) = 47.50447 47.79084 47.64765
# Shear Modulus (GPa) = 13.60615 24.25154 18.92885
#
# Velocity S-wave (km/s) = 2.50190 3.34019 2.95096
# Velocity P-wave (km/s) = 5.49548 6.07140 5.79061
#
# Compressibility (1/GPa) = 0.02105065
#
# Stress axis : x y z
#
# Youngs Moduli (GPa) = 90.07590 77.08987 73.36109
#
# Poissons Ratio (x) = 0.21718 0.10390
# Poissons Ratio (y) = 0.25377 0.30030
# Poissons Ratio (z) = 0.12758 0.31556
#
# Static dielectric constant tensor:
#      x y z
#    x 1.846690 0.000000 0.000000 
#    y 0.000000 1.841870 0.000000 
#    z 0.000000 0.000000 1.741540 
# 
# From -- ./inp_files/45278.got.cif
#   From: 2010.05.17/outbox.cif.g08.bks.cpg/sg64_23_cif.got.tgz:45278.got - 2010.06.03 16:29:19.
