data_PCOD9479976
_publ_section_title
;
Structure prediction by ZEFSAII (Michael W. Deem and Ramdas Pophale) SiO2 
 PCOD9479976
Probable space group: C M C A
;
_chemical_formula_sum "Si O2"
_cell_formula_units_Z 64
_cell_length_a 14.690422
_cell_length_b 33.683354
_cell_length_c 5.244063
_cell_angle_alpha 90.000000
_cell_angle_beta 90.000000
_cell_angle_gamma 90.000000
_cell_volume 2594.881332
_symmetry_space_group_name_H-M "C M C A"
_symmetry_group_IT_number 64
_symmetry_cell_setting 'orthorhombic'
loop_
_space_group_symop_operation_xyz
x,y,z
-x,1/2-y,1/2+z
x,-y,-z
-x,1/2+y,1/2-z
-x,-y,-z
x,1/2+y,1/2-z
-x,y,z
x,1/2-y,1/2+z
1/2+x,1/2+y,z
1/2-x,-y,1/2+z
1/2+x,1/2-y,-z
1/2-x,y,1/2-z
1/2-x,1/2-y,-z
1/2+x,y,1/2-z
1/2-x,1/2+y,z
1/2+x,-y,1/2+z
loop_
_atom_site_type_symbol
_atom_site_label
_atom_site_fract_x
_atom_site_fract_y
_atom_site_fract_z
Si Si1 0.350843 0.889267 0.063585
Si Si2 0.610151 0.772143 0.762961
Si Si3 0.147209 0.641158 0.439218
Si Si4 0.892355 0.475136 0.257827
O O1 0.393646 0.887145 0.781307
O O2 0.249672 0.873416 0.000363
O O3 0.395490 0.861533 0.279358
O O4 0.351906 0.932393 0.190370
O O5 0.500000 0.773346 0.762205
O O6 0.639475 0.740989 0.544488
O O7 0.643088 0.815068 0.673998
O O8 0.855256 0.500000 0.500000
O O9 0.000000 0.468651 0.306214
O O10 0.882579 0.500000 0.000000
#
# Coordination Sequence:
#
# PCOD9479976 Si02
#       4
#    16  16  16  16
#     4  10  21  38  57  84 119 153 194 241 295 356
#     4  10  21  38  60  86 117 154 197 246 298 353
#     4  10  21  38  57  85 119 154 198 241 294 357
#     4  10  21  38  61  88 117 152 195 244 299 358
#
# _framework density 24.66394
#
# number of rings (size 3 to 8) (size 9 to 14) (size 15 to 20)
#    0.000    2.000    0.000    3.000    0.000    2.000 
#    0.000   25.000    0.000    0.000    0.000    0.000 
#    0.000    0.000    0.000    0.000    0.000    0.000 
#
# Total GULP energy -178856.188402 kJ/mol
# GULP energy per Si atom -5589.255888 kJ/mol
# Density = 2.460780 g / cm^3
# Si number density = 24.663940 Si / 1000 Ang^3
#
#
#
# Elastic Constant Matrix: (Units=GPa)
#
#
# Indices 1 2 3 4 5 6 
#
# 1 85.8051 -3.6822 -0.6803 0.0000 0.0000 0.0000
# 2 -3.6822 98.8896 10.0709 0.0000 0.0000 0.0000
# 3 -0.6803 10.0709 182.4674 0.0000 0.0000 0.0000
# 4 0.0000 0.0000 0.0000 48.4132 0.0000 0.0000
# 5 0.0000 0.0000 0.0000 0.0000 0.6006 0.0000
# 6 0.0000 0.0000 0.0000 0.0000 0.0000 39.2677
#
#
#
# Elastic Compliance Matrix: (Units=1/GPa)
#
#
# Indices 1 2 3 4 5 6 
#
# 1 0.011673 0.000433 0.000020 0.000000 0.000000 0.000000
# 2 0.000433 0.010185 -0.000561 0.000000 0.000000 0.000000
# 3 0.000020 -0.000561 0.005511 0.000000 0.000000 0.000000
# 4 0.000000 0.000000 0.000000 0.020656 0.000000 0.000000
# 5 0.000000 0.000000 0.000000 0.000000 1.665006 0.000000
# 6 0.000000 0.000000 0.000000 0.000000 0.000000 0.025466
#
#
# Mechanical properties :
#
#
# Convention : Reuss Voigt Hill
#
# Bulk Modulus (GPa) = 36.82772 42.06431 39.44602
# Shear Modulus (GPa) = 2.86080 41.75320 22.30700
#
# Velocity S-wave (km/s) = 1.07816 4.11893 3.01065
# Velocity P-wave (km/s) = 4.06376 6.30181 5.30221
#
# Compressibility (1/GPa) = 0.02715346
#
# Stress axis : x y z
#
# Youngs Moduli (GPa) = 85.66745 98.17891 181.44066
#
# Poissons Ratio (x) = -0.04248 -0.00356
# Poissons Ratio (y) = -0.03706 0.10171
# Poissons Ratio (z) = -0.00168 0.05503
#
# Static dielectric constant tensor:
#      x y z
#    x 2.193790 0.000000 0.000000 
#    y 0.000000 2.054800 0.000000 
#    z 0.000000 0.000000 2.125080 
# 
# From -- ./inp_files/1300.got.cif
#   From: 2010.05.17/outbox.cif.g08.bks.cpg/sg64_1_cif.got.tgz:1300.got - 2010.06.03 16:29:19.
