data_PCOD9479204
_publ_section_title
;
Structure prediction by ZEFSAII (Michael W. Deem and Ramdas Pophale) SiO2 
 PCOD9479204
Probable space group: C M C A
;
_chemical_formula_sum "Si O2"
_cell_formula_units_Z 96
_cell_length_a 8.836093
_cell_length_b 25.095358
_cell_length_c 22.056438
_cell_angle_alpha 90.000000
_cell_angle_beta 90.000000
_cell_angle_gamma 90.000000
_cell_volume 4890.903017
_symmetry_space_group_name_H-M "C M C A"
_symmetry_group_IT_number 64
_symmetry_cell_setting 'orthorhombic'
loop_
_space_group_symop_operation_xyz
x,y,z
-x,1/2-y,1/2+z
x,-y,-z
-x,1/2+y,1/2-z
-x,-y,-z
x,1/2+y,1/2-z
-x,y,z
x,1/2-y,1/2+z
1/2+x,1/2+y,z
1/2-x,-y,1/2+z
1/2+x,1/2-y,-z
1/2-x,y,1/2-z
1/2-x,1/2-y,-z
1/2+x,y,1/2-z
1/2-x,1/2+y,z
1/2+x,-y,1/2+z
loop_
_atom_site_type_symbol
_atom_site_label
_atom_site_fract_x
_atom_site_fract_y
_atom_site_fract_z
Si Si1 0.676038 0.678894 0.660530
Si Si2 0.319109 0.433588 0.186112
Si Si3 0.816009 0.504332 0.429128
Si Si4 0.318195 0.124536 0.419112
Si Si5 0.817174 0.701914 0.311543
Si Si6 0.825710 0.193809 0.516631
O O1 0.500000 0.671647 0.679351
O O2 0.771235 0.628189 0.680520
O O3 0.732014 0.736594 0.682460
O O4 0.679521 0.683890 0.587966
O O5 0.500000 0.438514 0.189246
O O6 0.250000 0.454061 0.250000
O O7 0.266448 0.463334 0.123816
O O8 0.765512 0.500000 0.500000
O O9 0.773245 0.563835 0.408162
O O10 0.000000 0.500206 0.431121
O O11 0.500000 0.126035 0.420813
O O12 0.267361 0.166175 0.368030
O O13 0.257154 0.146302 0.482283
O O14 0.750000 0.679342 0.250000
O O15 0.000000 0.701952 0.310588
O O16 0.750000 0.250000 0.500000
O O17 0.000000 0.195956 0.497398
#
# Coordination Sequence:
#
# PCOD9479204 Si02
#       6
#    16  16  16  16  16  16
#     4  10  21  38  57  83 117 152 192 240 292 350
#     4  11  23  39  61  90 119 159 206 252 305 361
#     4   9  19  37  62  88 114 150 201 248 293 353
#     4  10  20  38  59  82 115 151 188 238 290 344
#     4  10  21  36  53  77 110 148 187 230 282 339
#     4  11  21  35  57  87 120 151 188 234 291 355
#
# _framework density 19.628277000000001
#
# number of rings (size 3 to 8) (size 9 to 14) (size 15 to 20)
#    0.000    1.833    1.667    2.500    0.000    6.000 
#    0.000    1.667    0.000    4.500    0.000    0.000 
#    0.000    0.000    0.000    0.000    0.000    0.000 
#
# Total GULP energy -267917.025859 kJ/mol
# GULP energy per Si atom -5581.604705 kJ/mol
# Density = 1.958360 g / cm^3
# Si number density = 19.628277 Si / 1000 Ang^3
#
#
#
# Elastic Constant Matrix: (Units=GPa)
#
#
# Indices 1 2 3 4 5 6 
#
# 1 14.3492 24.8884 20.4698 0.0000 0.0000 0.0000
# 2 24.8884 100.1935 45.2688 0.0000 0.0000 0.0000
# 3 20.4698 45.2688 114.8041 0.0000 0.0000 0.0000
# 4 0.0000 0.0000 0.0000 7.3898 0.0000 0.0000
# 5 0.0000 0.0000 0.0000 0.0000 32.4336 0.0000
# 6 0.0000 0.0000 0.0000 0.0000 0.0000 15.1932
#
#
#
# Elastic Compliance Matrix: (Units=1/GPa)
#
#
# Indices 1 2 3 4 5 6 
#
# 1 0.137647 -0.028111 -0.013458 0.000000 0.000000 0.000000
# 2 -0.028111 0.017885 -0.002040 0.000000 0.000000 0.000000
# 3 -0.013458 -0.002040 0.011915 0.000000 0.000000 0.000000
# 4 0.000000 0.000000 0.000000 0.135322 0.000000 0.000000
# 5 0.000000 0.000000 0.000000 0.000000 0.030832 0.000000
# 6 0.000000 0.000000 0.000000 0.000000 0.000000 0.065819
#
#
# Mechanical properties :
#
#
# Convention : Reuss Voigt Hill
#
# Bulk Modulus (GPa) = 12.46449 45.62230 29.04340
# Shear Modulus (GPa) = 9.73934 20.25132 14.99533
#
# Velocity S-wave (km/s) = 2.22995 3.21556 2.76699
# Velocity P-wave (km/s) = 3.60476 6.08934 5.00371
#
# Compressibility (1/GPa) = 0.08022790
#
# Stress axis : x y z
#
# Youngs Moduli (GPa) = 7.26495 55.91157 83.93103
#
# Poissons Ratio (x) = 1.57175 1.12955
# Poissons Ratio (y) = 0.20423 0.17123
# Poissons Ratio (z) = 0.09777 0.11407
#
# Static dielectric constant tensor:
#      x y z
#    x 1.676150 0.000000 0.000000 
#    y 0.000000 1.685070 0.000000 
#    z 0.000000 0.000000 1.707350 
# 
# From -- ./inp_files/37076.got.cif
#   From: 2010.05.17/outbox.cif.g08.bks.cpg/sg64_19_cif.got.tgz:37076.got - 2010.06.03 16:29:19.
