data_PCOD9479902
_publ_section_title
;
Structure prediction by ZEFSAII (Michael W. Deem and Ramdas Pophale) SiO2 
 PCOD9479902
Probable space group: C M C A
;
_chemical_formula_sum "Si O2"
_cell_formula_units_Z 112
_cell_length_a 13.898899
_cell_length_b 30.991447
_cell_length_c 10.790545
_cell_angle_alpha 90.000000
_cell_angle_beta 90.000000
_cell_angle_gamma 90.000000
_cell_volume 4647.994798
_symmetry_space_group_name_H-M "C M C A"
_symmetry_group_IT_number 64
_symmetry_cell_setting 'orthorhombic'
loop_
_space_group_symop_operation_xyz
x,y,z
-x,1/2-y,1/2+z
x,-y,-z
-x,1/2+y,1/2-z
-x,-y,-z
x,1/2+y,1/2-z
-x,y,z
x,1/2-y,1/2+z
1/2+x,1/2+y,z
1/2-x,-y,1/2+z
1/2+x,1/2-y,-z
1/2-x,y,1/2-z
1/2-x,1/2-y,-z
1/2+x,y,1/2-z
1/2-x,1/2+y,z
1/2+x,-y,1/2+z
loop_
_atom_site_type_symbol
_atom_site_label
_atom_site_fract_x
_atom_site_fract_y
_atom_site_fract_z
Si Si1 0.215911 0.607832 0.113974
Si Si2 0.389652 0.070909 0.478904
Si Si3 0.388305 0.289778 0.051960
Si Si4 0.387408 0.505742 0.795348
Si Si5 0.885714 0.160507 0.695576
Si Si6 0.115506 0.566435 0.904186
Si Si7 0.310994 0.300454 0.550523
O O1 0.250000 0.598182 0.250000
O O2 0.313253 0.608572 0.031885
O O3 0.165378 0.654165 0.114061
O O4 0.150920 0.573000 0.043842
O O5 0.500000 0.084177 0.459025
O O6 0.385363 0.045696 0.608137
O O7 0.358466 0.035652 0.375057
O O8 0.500000 0.293979 0.012997
O O9 0.370438 0.322366 0.166298
O O10 0.367788 0.240798 0.098844
O O11 0.304513 0.294182 0.948964
O O12 0.500000 0.496705 0.769261
O O13 0.343945 0.524983 0.669133
O O14 0.856559 0.111039 0.666305
O O15 0.838526 0.191298 0.593268
O O16 0.000000 0.161903 0.673929
O O17 0.000000 0.563880 0.903046
#
# Coordination Sequence:
#
# PCOD9479902 Si02
#       7
#    16  16  16  16  16  16  16
#     4  11  25  41  56  87 125 168 214 253 306 375
#     4   9  19  38  62  91 127 159 194 250 311 372
#     4  10  21  37  60  87 113 153 207 260 316 377
#     4   8  16  36  65  93 121 155 196 250 315 366
#     4   9  18  34  59  89 118 151 199 254 310 374
#     4   9  19  38  65  93 123 161 208 260 311 369
#     4  10  22  38  57  81 122 160 199 257 315 370
#
# _framework density 24.096412000000001
#
# number of rings (size 3 to 8) (size 9 to 14) (size 15 to 20)
#    0.000    2.571    0.000    1.714    2.000    4.571 
#    5.143    0.000    0.000    2.571    0.000    0.000 
#    0.000    0.000    0.000    0.000    0.000    0.000 
#
# Total GULP energy -312874.510110 kJ/mol
# GULP energy per Si atom -5587.044823 kJ/mol
# Density = 2.404157 g / cm^3
# Si number density = 24.096412 Si / 1000 Ang^3
#
#
#
# Elastic Constant Matrix: (Units=GPa)
#
#
# Indices 1 2 3 4 5 6 
#
# 1 70.6546 4.1806 19.2902 0.0000 0.0000 0.0000
# 2 4.1806 79.8260 25.8993 0.0000 0.0000 0.0000
# 3 19.2902 25.8993 61.6784 0.0000 0.0000 0.0000
# 4 0.0000 0.0000 0.0000 8.8854 0.0000 0.0000
# 5 0.0000 0.0000 0.0000 0.0000 34.3558 0.0000
# 6 0.0000 0.0000 0.0000 0.0000 0.0000 28.2009
#
#
#
# Elastic Compliance Matrix: (Units=1/GPa)
#
#
# Indices 1 2 3 4 5 6 
#
# 1 0.015528 0.000883 -0.005227 0.000000 0.000000 0.000000
# 2 0.000883 0.014553 -0.006387 0.000000 0.000000 0.000000
# 3 -0.005227 -0.006387 0.020530 0.000000 0.000000 0.000000
# 4 0.000000 0.000000 0.000000 0.112544 0.000000 0.000000
# 5 0.000000 0.000000 0.000000 0.000000 0.029107 0.000000
# 6 0.000000 0.000000 0.000000 0.000000 0.000000 0.035460
#
#
# Mechanical properties :
#
#
# Convention : Reuss Voigt Hill
#
# Bulk Modulus (GPa) = 34.30730 34.54435 34.42583
# Shear Modulus (GPa) = 19.31230 25.14100 22.22665
#
# Velocity S-wave (km/s) = 2.83408 3.23360 3.04041
# Velocity P-wave (km/s) = 4.99777 5.32058 5.16170
#
# Compressibility (1/GPa) = 0.02914832
#
# Stress axis : x y z
#
# Youngs Moduli (GPa) = 64.39870 68.71294 48.70932
#
# Poissons Ratio (x) = -0.06065 0.25461
# Poissons Ratio (y) = -0.05684 0.31111
# Poissons Ratio (z) = 0.33662 0.43888
#
# Static dielectric constant tensor:
#      x y z
#    x 1.949060 0.000000 0.000000 
#    y 0.000000 1.936130 0.000000 
#    z 0.000000 0.000000 1.935770 
# 
# From -- ./inp_files/14928.got.cif
#   From: 2010.05.17/outbox.cif.g08.bks.cpg/sg64_8_cif.got.tgz:14928.got - 2010.06.03 16:29:19.
