data_PCOD9479376
_publ_section_title
;
Structure prediction by ZEFSAII (Michael W. Deem and Ramdas Pophale) SiO2 
 PCOD9479376
Probable space group: C M C A
;
_chemical_formula_sum "Si O2"
_cell_formula_units_Z 96
_cell_length_a 22.142235
_cell_length_b 24.168872
_cell_length_c 8.253273
_cell_angle_alpha 90.000000
_cell_angle_beta 90.000000
_cell_angle_gamma 90.000000
_cell_volume 4416.762514
_symmetry_space_group_name_H-M "C M C A"
_symmetry_group_IT_number 64
_symmetry_cell_setting 'orthorhombic'
loop_
_space_group_symop_operation_xyz
x,y,z
-x,1/2-y,1/2+z
x,-y,-z
-x,1/2+y,1/2-z
-x,-y,-z
x,1/2+y,1/2-z
-x,y,z
x,1/2-y,1/2+z
1/2+x,1/2+y,z
1/2-x,-y,1/2+z
1/2+x,1/2-y,-z
1/2-x,y,1/2-z
1/2-x,1/2-y,-z
1/2+x,y,1/2-z
1/2-x,1/2+y,z
1/2+x,-y,1/2+z
loop_
_atom_site_type_symbol
_atom_site_label
_atom_site_fract_x
_atom_site_fract_y
_atom_site_fract_z
Si Si1 0.679895 0.579920 0.803808
Si Si2 0.629085 0.365634 0.510957
Si Si3 0.812711 0.967345 0.672569
Si Si4 0.631487 0.331065 0.997606
Si Si5 0.000000 0.813296 0.087102
Si Si6 0.500000 0.185941 0.975437
Si Si7 0.317755 0.228687 0.187752
O O1 0.750000 0.584367 0.750000
O O2 0.639992 0.610473 0.667764
O O3 0.663945 0.515329 0.792167
O O4 0.667833 0.612746 0.968300
O O5 0.645271 0.415957 0.630700
O O6 0.561641 0.343154 0.531522
O O7 0.675697 0.315200 0.541343
O O8 0.750000 0.947734 0.750000
O O9 0.801922 0.000000 0.500000
O O10 0.560731 0.340102 0.019346
O O11 0.653647 0.285831 0.130011
O O12 0.645229 0.301349 0.829230
O O13 0.000000 0.815206 0.280811
O O14 0.000000 0.749050 0.034500
O O15 0.250000 0.235602 0.250000
#
# Coordination Sequence:
#
# PCOD9479376 Si02
#       7
#    16  16  16  16   8   8  16
#     4  10  20  39  62  89 124 161 204 263 316 377
#     4  11  22  39  60  93 123 165 211 256 314 376
#     4   9  20  38  64  91 126 162 209 257 323 380
#     4  12  23  39  60  89 123 164 212 255 317 381
#     4  12  24  42  63  86 125 173 215 254 312 374
#     4  12  24  42  64  87 128 171 218 266 307 381
#     4  12  24  38  60  91 125 159 202 266 325 383
#
# _framework density 21.735377
#
# number of rings (size 3 to 8) (size 9 to 14) (size 15 to 20)
#    0.000    1.000    3.333    4.500    0.000    2.667 
#    0.000    4.583    0.000    0.000    0.000    2.917 
#    0.000    0.000    0.000    0.000    0.000    0.000 
#
# Total GULP energy -268755.962708 kJ/mol
# GULP energy per Si atom -5599.082556 kJ/mol
# Density = 2.168591 g / cm^3
# Si number density = 21.735377 Si / 1000 Ang^3
#
#
#
# Elastic Constant Matrix: (Units=GPa)
#
#
# Indices 1 2 3 4 5 6 
#
# 1 91.8589 0.5156 -3.4097 0.0000 0.0000 0.0000
# 2 0.5156 79.5204 1.2908 0.0000 0.0000 0.0000
# 3 -3.4097 1.2908 63.6459 0.0000 0.0000 0.0000
# 4 0.0000 0.0000 0.0000 25.5484 0.0000 0.0000
# 5 0.0000 0.0000 0.0000 0.0000 33.6227 0.0000
# 6 0.0000 0.0000 0.0000 0.0000 0.0000 24.7819
#
#
#
# Elastic Compliance Matrix: (Units=1/GPa)
#
#
# Indices 1 2 3 4 5 6 
#
# 1 0.010908 -0.000080 0.000586 0.000000 0.000000 0.000000
# 2 -0.000080 0.012580 -0.000259 0.000000 0.000000 0.000000
# 3 0.000586 -0.000259 0.015749 0.000000 0.000000 0.000000
# 4 0.000000 0.000000 0.000000 0.039141 0.000000 0.000000
# 5 0.000000 0.000000 0.000000 0.000000 0.029742 0.000000
# 6 0.000000 0.000000 0.000000 0.000000 0.000000 0.040352
#
#
# Mechanical properties :
#
#
# Convention : Reuss Voigt Hill
#
# Bulk Modulus (GPa) = 25.16998 25.75763 25.46381
# Shear Modulus (GPa) = 31.01294 32.56583 31.78938
#
# Velocity S-wave (km/s) = 3.78145 3.87497 3.82850
# Velocity P-wave (km/s) = 5.53816 5.64773 5.59321
#
# Compressibility (1/GPa) = 0.03972986
#
# Stress axis : x y z
#
# Youngs Moduli (GPa) = 91.67198 79.49051 63.49776
#
# Poissons Ratio (x) = 0.00638 -0.03721
# Poissons Ratio (y) = 0.00736 0.01647
# Poissons Ratio (z) = -0.05372 0.02062
#
# Static dielectric constant tensor:
#      x y z
#    x 1.746050 0.000000 0.000000 
#    y 0.000000 1.784230 0.000000 
#    z 0.000000 0.000000 1.883660 
# 
# From -- ./inp_files/9536.got.cif
#   From: 2010.05.17/outbox.cif.g08.bks.cpg/sg64_5_cif.got.tgz:9536.got - 2010.06.03 16:29:19.
