data_PCOD9479138
_publ_section_title
;
Structure prediction by ZEFSAII (Michael W. Deem and Ramdas Pophale) SiO2 
 PCOD9479138
Probable space group: C M C A
;
_chemical_formula_sum "Si O2"
_cell_formula_units_Z 64
_cell_length_a 22.271994
_cell_length_b 7.841357
_cell_length_c 14.312779
_cell_angle_alpha 90.000000
_cell_angle_beta 90.000000
_cell_angle_gamma 90.000000
_cell_volume 2499.621740
_symmetry_space_group_name_H-M "C M C A"
_symmetry_group_IT_number 64
_symmetry_cell_setting 'orthorhombic'
loop_
_space_group_symop_operation_xyz
x,y,z
-x,1/2-y,1/2+z
x,-y,-z
-x,1/2+y,1/2-z
-x,-y,-z
x,1/2+y,1/2-z
-x,y,z
x,1/2-y,1/2+z
1/2+x,1/2+y,z
1/2-x,-y,1/2+z
1/2+x,1/2-y,-z
1/2-x,y,1/2-z
1/2-x,1/2-y,-z
1/2+x,y,1/2-z
1/2-x,1/2+y,z
1/2+x,-y,1/2+z
loop_
_atom_site_type_symbol
_atom_site_label
_atom_site_fract_x
_atom_site_fract_y
_atom_site_fract_z
Si Si1 0.000000 0.132155 0.640655
Si Si2 0.680696 0.549115 0.273237
Si Si3 0.631444 0.331424 0.433636
Si Si4 0.500000 0.722171 0.859242
Si Si5 0.131409 0.635879 0.605933
O O1 0.062483 0.196107 0.597698
O O2 0.000000 0.179381 0.749444
O O3 0.000000 0.926574 0.629615
O O4 0.750000 0.569914 0.250000
O O5 0.670244 0.390181 0.344465
O O6 0.652989 0.705553 0.329728
O O7 0.648296 0.517759 0.174398
O O8 0.630191 0.500000 0.500000
O O9 0.654745 0.182005 0.502367
O O10 0.440014 0.645454 0.901605
#
# Coordination Sequence:
#
# PCOD9479138 Si02
#       5
#     8  16  16   8  16
#     4  12  20  37  66  92 127 153 206 249 313 370
#     4  11  23  40  61  88 123 162 208 252 296 359
#     4  10  20  37  63  90 114 167 204 238 302 380
#     4  12  19  36  67  93 121 155 198 258 306 360
#     4  11  22  40  65  89 121 159 206 250 309 363
#
# _framework density 25.603874999999999
#
# number of rings (size 3 to 8) (size 9 to 14) (size 15 to 20)
#    0.000    1.000    7.500    1.875    0.000    1.000 
#    0.000    3.750    0.000    3.000    0.000    0.000 
#    0.000    0.000    0.000    0.000    0.000    0.000 
#
# Total GULP energy -179372.088572 kJ/mol
# GULP energy per Si atom -5605.377768 kJ/mol
# Density = 2.554560 g / cm^3
# Si number density = 25.603875 Si / 1000 Ang^3
#
#
#
# Elastic Constant Matrix: (Units=GPa)
#
#
# Indices 1 2 3 4 5 6 
#
# 1 124.5162 6.4718 2.0683 0.0000 0.0000 0.0000
# 2 6.4718 79.2598 -1.0676 0.0000 0.0000 0.0000
# 3 2.0683 -1.0676 167.7437 0.0000 0.0000 0.0000
# 4 0.0000 0.0000 0.0000 46.5476 0.0000 0.0000
# 5 0.0000 0.0000 0.0000 0.0000 -73.1916 0.0000
# 6 0.0000 0.0000 0.0000 0.0000 0.0000 27.9707
#
#
#
# Elastic Compliance Matrix: (Units=1/GPa)
#
#
# Indices 1 2 3 4 5 6 
#
# 1 0.008067 -0.000660 -0.000104 0.000000 0.000000 0.000000
# 2 -0.000660 0.012672 0.000089 0.000000 0.000000 0.000000
# 3 -0.000104 0.000089 0.005963 0.000000 0.000000 0.000000
# 4 0.000000 0.000000 0.000000 0.021483 0.000000 0.000000
# 5 0.000000 0.000000 0.000000 0.000000 -0.013663 0.000000
# 6 0.000000 0.000000 0.000000 0.000000 0.000000 0.035752
#
#
# Mechanical properties :
#
#
# Convention : Reuss Voigt Hill
#
# Bulk Modulus (GPa) = 39.44415 42.94051 41.19233
# Shear Modulus (GPa) = 62.44118 24.53515 43.48817
#
# Velocity S-wave (km/s) = 4.94372 3.09893 4.12576
# Velocity P-wave (km/s) = 6.93009 5.44169 6.23049
#
# Compressibility (1/GPa) = 0.02535230
#
# Stress axis : x y z
#
# Youngs Moduli (GPa) = 123.96004 78.91524 167.69188
#
# Poissons Ratio (x) = 0.05209 0.01738
# Poissons Ratio (y) = 0.08183 -0.01489
# Poissons Ratio (z) = 0.01285 -0.00701
#
# Static dielectric constant tensor:
#      x y z
#    x 1.900910 0.000000 0.000000 
#    y 0.000000 2.169890 0.000000 
#    z 0.000000 0.000000 1.997930 
# 
# From -- ./inp_files/17909.got.cif
#   From: 2010.05.17/outbox.cif.g08.bks.cpg/sg64_9_cif.got.tgz:17909.got - 2010.06.03 16:29:19.
