data_PCOD9479946
_publ_section_title
;
Structure prediction by ZEFSAII (Michael W. Deem and Ramdas Pophale) SiO2 
 PCOD9479946
Probable space group: C M C A
;
_chemical_formula_sum "Si O2"
_cell_formula_units_Z 96
_cell_length_a 18.710210
_cell_length_b 13.323038
_cell_length_c 16.948809
_cell_angle_alpha 90.000000
_cell_angle_beta 90.000000
_cell_angle_gamma 90.000000
_cell_volume 4224.945529
_symmetry_space_group_name_H-M "C M C A"
_symmetry_group_IT_number 64
_symmetry_cell_setting 'orthorhombic'
loop_
_space_group_symop_operation_xyz
x,y,z
-x,1/2-y,1/2+z
x,-y,-z
-x,1/2+y,1/2-z
-x,-y,-z
x,1/2+y,1/2-z
-x,y,z
x,1/2-y,1/2+z
1/2+x,1/2+y,z
1/2-x,-y,1/2+z
1/2+x,1/2-y,-z
1/2-x,y,1/2-z
1/2-x,1/2-y,-z
1/2+x,y,1/2-z
1/2-x,1/2+y,z
1/2+x,-y,1/2+z
loop_
_atom_site_type_symbol
_atom_site_label
_atom_site_fract_x
_atom_site_fract_y
_atom_site_fract_z
Si Si1 0.077906 0.949911 0.622290
Si Si2 0.188585 0.609470 0.914799
Si Si3 0.649447 0.402868 0.103114
Si Si4 0.082542 0.914501 0.806777
Si Si5 0.173101 0.772098 0.259315
Si Si6 0.079534 0.762314 0.513674
O O1 0.083987 0.954669 0.716390
O O2 0.078573 0.837199 0.589341
O O3 0.000000 0.993774 0.599980
O O4 0.142444 0.008900 0.583581
O O5 0.271420 0.596183 0.934543
O O6 0.187469 0.643091 0.823761
O O7 0.144231 0.693516 0.962025
O O8 0.625002 0.510128 0.136343
O O9 0.651616 0.327059 0.178731
O O10 0.596374 0.349668 0.041956
O O11 0.117082 0.805304 0.795777
O O12 0.000000 0.909137 0.831272
O O13 0.250000 0.717333 0.250000
O O14 0.000000 0.769117 0.477572
#
# Coordination Sequence:
#
# PCOD9479946 Si02
#       6
#    16  16  16  16  16  16
#     4  10  21  37  63  95 125 162 210 264 316 368
#     4  11  23  39  63  92 126 170 210 261 316 373
#     4  11  23  41  64  93 127 165 211 258 319 374
#     4  11  23  38  63  95 125 160 206 261 319 373
#     4  10  23  39  63  89 123 163 212 261 308 373
#     4  11  23  42  64  93 131 169 212 264 314 374
#
# _framework density 22.722186000000001
#
# number of rings (size 3 to 8) (size 9 to 14) (size 15 to 20)
#    0.000    1.333    3.333    2.000    2.333    3.333 
#    0.000    2.500    0.000    2.000    0.000    0.000 
#    0.000    0.000    0.000    0.000    0.000    0.000 
#
# Total GULP energy -268307.750533 kJ/mol
# GULP energy per Si atom -5589.744803 kJ/mol
# Density = 2.267047 g / cm^3
# Si number density = 22.722186 Si / 1000 Ang^3
#
#
#
# Elastic Constant Matrix: (Units=GPa)
#
#
# Indices 1 2 3 4 5 6 
#
# 1 143.9017 37.1161 18.1975 0.0000 0.0000 0.0000
# 2 37.1161 66.4578 3.0902 0.0000 0.0000 0.0000
# 3 18.1975 3.0902 49.9664 0.0000 0.0000 0.0000
# 4 0.0000 0.0000 0.0000 45.6949 0.0000 0.0000
# 5 0.0000 0.0000 0.0000 0.0000 17.1030 0.0000
# 6 0.0000 0.0000 0.0000 0.0000 0.0000 37.8076
#
#
#
# Elastic Compliance Matrix: (Units=1/GPa)
#
#
# Indices 1 2 3 4 5 6 
#
# 1 0.008494 -0.004613 -0.002808 0.000000 0.000000 0.000000
# 2 -0.004613 0.017596 0.000592 0.000000 0.000000 0.000000
# 3 -0.002808 0.000592 0.021000 0.000000 0.000000 0.000000
# 4 0.000000 0.000000 0.000000 0.021884 0.000000 0.000000
# 5 0.000000 0.000000 0.000000 0.000000 0.058469 0.000000
# 6 0.000000 0.000000 0.000000 0.000000 0.000000 0.026450
#
#
# Mechanical properties :
#
#
# Convention : Reuss Voigt Hill
#
# Bulk Modulus (GPa) = 29.91275 41.90374 35.90825
# Shear Modulus (GPa) = 27.98048 33.58259 30.78153
#
# Velocity S-wave (km/s) = 3.51296 3.84860 3.68461
# Velocity P-wave (km/s) = 5.44497 6.18310 5.82574
#
# Compressibility (1/GPa) = 0.03343056
#
# Stress axis : x y z
#
# Youngs Moduli (GPa) = 117.72710 56.83067 47.62002
#
# Poissons Ratio (x) = 0.26218 0.13373
# Poissons Ratio (y) = 0.54312 -0.02819
# Poissons Ratio (z) = 0.33061 -0.03364
#
# Static dielectric constant tensor:
#      x y z
#    x 1.859770 0.000000 0.000000 
#    y 0.000000 1.821510 0.000000 
#    z 0.000000 0.000000 1.864320 
# 
# From -- ./inp_files/40879.got.cif
#   From: 2010.05.17/outbox.cif.g08.bks.cpg/sg64_21_cif.got.tgz:40879.got - 2010.06.03 16:29:19.
