data_PCOD9479096
_publ_section_title
;
Structure prediction by ZEFSAII (Michael W. Deem and Ramdas Pophale) SiO2 
 PCOD9479096
Probable space group: C M C A
;
_chemical_formula_sum "Si O2"
_cell_formula_units_Z 96
_cell_length_a 19.490740
_cell_length_b 22.037853
_cell_length_c 9.226187
_cell_angle_alpha 90.000000
_cell_angle_beta 90.000000
_cell_angle_gamma 90.000000
_cell_volume 3962.961588
_symmetry_space_group_name_H-M "C M C A"
_symmetry_group_IT_number 64
_symmetry_cell_setting 'orthorhombic'
loop_
_space_group_symop_operation_xyz
x,y,z
-x,1/2-y,1/2+z
x,-y,-z
-x,1/2+y,1/2-z
-x,-y,-z
x,1/2+y,1/2-z
-x,y,z
x,1/2-y,1/2+z
1/2+x,1/2+y,z
1/2-x,-y,1/2+z
1/2+x,1/2-y,-z
1/2-x,y,1/2-z
1/2-x,1/2-y,-z
1/2+x,y,1/2-z
1/2-x,1/2+y,z
1/2+x,-y,1/2+z
loop_
_atom_site_type_symbol
_atom_site_label
_atom_site_fract_x
_atom_site_fract_y
_atom_site_fract_z
Si Si1 0.723009 0.934773 0.413210
Si Si2 0.808650 0.597194 0.146885
Si Si3 0.075681 0.073384 0.547641
Si Si4 0.920167 0.219457 0.554460
Si Si5 0.073700 0.442042 0.388958
Si Si6 0.171299 0.731184 0.207348
O O1 0.750000 0.939396 0.250000
O O2 0.769133 0.887367 0.498890
O O3 0.645553 0.911812 0.423440
O O4 0.727645 0.000000 0.500000
O O5 0.750000 0.569587 0.250000
O O6 0.831952 0.657838 0.225393
O O7 0.869692 0.557597 0.078818
O O8 0.080685 0.146305 0.555455
O O9 0.080020 0.049284 0.713684
O O10 0.000000 0.060443 0.491001
O O11 0.856836 0.241801 0.454145
O O12 0.892256 0.241001 0.706821
O O13 0.000000 0.237491 0.523880
O O14 0.072864 0.500000 0.500000
O O15 0.000000 0.411022 0.410806
O O16 0.250000 0.749147 0.250000
#
# Coordination Sequence:
#
# PCOD9479096 Si02
#       6
#    16  16  16  16  16  16
#     4  11  21  37  63  92 122 164 207 256 305 365
#     4  10  21  39  58  88 123 160 204 252 306 368
#     4   9  18  36  61  88 120 165 209 253 311 372
#     4  10  20  37  61  87 120 164 212 256 305 369
#     4   9  18  35  61  92 124 158 204 260 311 363
#     4  10  21  39  58  87 121 160 203 257 313 365
#
# _framework density 24.224307
#
# number of rings (size 3 to 8) (size 9 to 14) (size 15 to 20)
#    0.000    2.167    1.667    1.500    0.000    0.667 
#   12.000    0.833    0.000    5.000    0.000    0.000 
#    0.000    0.000    0.000    0.000    0.000    0.000 
#
# Total GULP energy -267255.583100 kJ/mol
# GULP energy per Si atom -5567.824648 kJ/mol
# Density = 2.416917 g / cm^3
# Si number density = 24.224307 Si / 1000 Ang^3
#
#
#
# Elastic Constant Matrix: (Units=GPa)
#
#
# Indices 1 2 3 4 5 6 
#
# 1 205.5931 13.0704 21.7107 0.0000 0.0000 0.0000
# 2 13.0704 33.2743 -15.9830 0.0000 0.0000 0.0000
# 3 21.7107 -15.9830 53.9369 0.0000 0.0000 0.0000
# 4 0.0000 0.0000 0.0000 26.5944 0.0000 0.0000
# 5 0.0000 0.0000 0.0000 0.0000 49.4029 0.0000
# 6 0.0000 0.0000 0.0000 0.0000 0.0000 -4.3185
#
#
#
# Elastic Compliance Matrix: (Units=1/GPa)
#
#
# Indices 1 2 3 4 5 6 
#
# 1 0.005449 -0.003724 -0.003297 0.000000 0.000000 0.000000
# 2 -0.003724 0.037586 0.012637 0.000000 0.000000 0.000000
# 3 -0.003297 0.012637 0.023612 0.000000 0.000000 0.000000
# 4 0.000000 0.000000 0.000000 0.037602 0.000000 0.000000
# 5 0.000000 0.000000 0.000000 0.000000 0.020242 0.000000
# 6 0.000000 0.000000 0.000000 0.000000 0.000000 -0.231562
#
#
# Mechanical properties :
#
#
# Convention : Reuss Voigt Hill
#
# Bulk Modulus (GPa) = 12.84049 36.71116 24.77583
# Shear Modulus (GPa) = -54.14512 32.60284 -10.77114
#
# Velocity S-wave (km/s) = -4.73287 3.67259 -2.11094
# Velocity P-wave (km/s) = 4.95526 5.75947 2.07568
#
# Compressibility (1/GPa) = 0.07787865
#
# Stress axis : x y z
#
# Youngs Moduli (GPa) = 183.52450 26.60569 42.35167
#
# Poissons Ratio (x) = 0.09908 0.13962
# Poissons Ratio (y) = 0.68343 -0.53519
# Poissons Ratio (z) = 0.60504 -0.33621
#
# Static dielectric constant tensor:
#      x y z
#    x 1.973860 0.000000 0.000000 
#    y 0.000000 2.043530 0.000000 
#    z 0.000000 0.000000 1.852570 
# 
# From -- ./inp_files/8432.got.cif
#   From: 2010.05.17/outbox.cif.g08.bks.cpg/sg64_5_cif.got.tgz:8432.got - 2010.06.03 16:29:19.
