data_PCOD9479465
_publ_section_title
;
Structure prediction by ZEFSAII (Michael W. Deem and Ramdas Pophale) SiO2 
 PCOD9479465
Probable space group: C M C A
;
_chemical_formula_sum "Si O2"
_cell_formula_units_Z 96
_cell_length_a 24.679993
_cell_length_b 22.415229
_cell_length_c 8.137829
_cell_angle_alpha 90.000000
_cell_angle_beta 90.000000
_cell_angle_gamma 90.000000
_cell_volume 4501.909622
_symmetry_space_group_name_H-M "C M C A"
_symmetry_group_IT_number 64
_symmetry_cell_setting 'orthorhombic'
loop_
_space_group_symop_operation_xyz
x,y,z
-x,1/2-y,1/2+z
x,-y,-z
-x,1/2+y,1/2-z
-x,-y,-z
x,1/2+y,1/2-z
-x,y,z
x,1/2-y,1/2+z
1/2+x,1/2+y,z
1/2-x,-y,1/2+z
1/2+x,1/2-y,-z
1/2-x,y,1/2-z
1/2-x,1/2-y,-z
1/2+x,y,1/2-z
1/2-x,1/2+y,z
1/2+x,-y,1/2+z
loop_
_atom_site_type_symbol
_atom_site_label
_atom_site_fract_x
_atom_site_fract_y
_atom_site_fract_z
Si Si1 0.000000 0.782983 0.548476
Si Si2 0.111052 0.899912 0.265238
Si Si3 0.709897 0.336030 0.097402
Si Si4 0.563451 0.018052 0.307270
Si Si5 0.500000 0.339394 0.187226
Si Si6 0.295489 0.795034 0.863166
Si Si7 0.600131 0.859381 0.855334
O O1 0.000000 0.806152 0.362752
O O2 0.947596 0.811136 0.635319
O O3 0.000000 0.712143 0.553701
O O4 0.159121 0.877406 0.146790
O O5 0.113980 0.874655 0.452017
O O6 0.054400 0.877614 0.186052
O O7 0.102845 0.970571 0.279194
O O8 0.750000 0.345834 0.250000
O O9 0.685502 0.268589 0.060888
O O10 0.756175 0.341239 0.957419
O O11 0.500000 0.011332 0.258243
O O12 0.581574 0.083703 0.249596
O O13 0.566939 0.000000 0.500000
O O14 0.250000 0.767089 0.750000
O O15 0.345710 0.828936 0.788264
#
# Coordination Sequence:
#
# PCOD9479465 Si02
#       7
#     8  16  16  16   8  16  16
#     4  10  22  37  60  93 129 158 202 258 313 382
#     4  11  22  40  66  89 124 166 213 259 313 385
#     4  10  20  40  63  93 129 167 206 253 313 382
#     4  11  25  43  64  92 121 164 212 265 322 376
#     4  10  22  37  58  95 127 160 200 254 319 374
#     4  10  22  38  65  95 129 168 207 255 318 377
#     4  11  22  41  64  92 123 167 214 255 316 383
#
# _framework density 21.324286000000001
#
# number of rings (size 3 to 8) (size 9 to 14) (size 15 to 20)
#    0.000    1.500    3.333    1.500    2.333    2.000 
#    0.000    0.833    0.000    0.000    0.000    0.000 
#    0.000    0.000    0.000    0.000    0.000    0.000 
#
# Total GULP energy -267258.179031 kJ/mol
# GULP energy per Si atom -5567.878730 kJ/mol
# Density = 2.127575 g / cm^3
# Si number density = 21.324286 Si / 1000 Ang^3
#
#
#
# Elastic Constant Matrix: (Units=GPa)
#
#
# Indices 1 2 3 4 5 6 
#
# 1 134.0843 26.7593 11.1086 0.0000 0.0000 0.0000
# 2 26.7593 57.2820 5.8312 0.0000 0.0000 0.0000
# 3 11.1086 5.8312 14.1023 0.0000 0.0000 0.0000
# 4 0.0000 0.0000 0.0000 32.3376 0.0000 0.0000
# 5 0.0000 0.0000 0.0000 0.0000 19.8901 0.0000
# 6 0.0000 0.0000 0.0000 0.0000 0.0000 36.2049
#
#
#
# Elastic Compliance Matrix: (Units=1/GPa)
#
#
# Indices 1 2 3 4 5 6 
#
# 1 0.008593 -0.003471 -0.005333 0.000000 0.000000 0.000000
# 2 -0.003471 0.019627 -0.005381 0.000000 0.000000 0.000000
# 3 -0.005333 -0.005381 0.077337 0.000000 0.000000 0.000000
# 4 0.000000 0.000000 0.000000 0.030924 0.000000 0.000000
# 5 0.000000 0.000000 0.000000 0.000000 0.050276 0.000000
# 6 0.000000 0.000000 0.000000 0.000000 0.000000 0.027621
#
#
# Mechanical properties :
#
#
# Convention : Reuss Voigt Hill
#
# Bulk Modulus (GPa) = 12.95592 32.54075 22.74833
# Shear Modulus (GPa) = 18.62363 28.47115 23.54739
#
# Velocity S-wave (km/s) = 2.95846 3.65794 3.32663
# Velocity P-wave (km/s) = 4.21412 5.75619 5.04443
#
# Compressibility (1/GPa) = 0.07718481
#
# Stress axis : x y z
#
# Youngs Moduli (GPa) = 116.37956 50.95065 12.93049
#
# Poissons Ratio (x) = 0.17686 0.06896
# Poissons Ratio (y) = 0.40397 0.06958
# Poissons Ratio (z) = 0.62068 0.27418
#
# Static dielectric constant tensor:
#      x y z
#    x 0.260570 0.000000 0.000000 
#    y 0.000000 1.773050 0.000000 
#    z 0.000000 0.000000 2.010900 
# 
# From -- ./inp_files/9527.got.cif
#   From: 2010.05.17/outbox.cif.g08.bks.cpg/sg64_5_cif.got.tgz:9527.got - 2010.06.03 16:29:19.
