data_PCOD9479577
_publ_section_title
;
Structure prediction by ZEFSAII (Michael W. Deem and Ramdas Pophale) SiO2 
 PCOD9479577
Probable space group: C M C A
;
_chemical_formula_sum "Si O2"
_cell_formula_units_Z 72
_cell_length_a 14.447474
_cell_length_b 26.832598
_cell_length_c 7.911872
_cell_angle_alpha 90.000000
_cell_angle_beta 90.000000
_cell_angle_gamma 90.000000
_cell_volume 3067.142108
_symmetry_space_group_name_H-M "C M C A"
_symmetry_group_IT_number 64
_symmetry_cell_setting 'orthorhombic'
loop_
_space_group_symop_operation_xyz
x,y,z
-x,1/2-y,1/2+z
x,-y,-z
-x,1/2+y,1/2-z
-x,-y,-z
x,1/2+y,1/2-z
-x,y,z
x,1/2-y,1/2+z
1/2+x,1/2+y,z
1/2-x,-y,1/2+z
1/2+x,1/2-y,-z
1/2-x,y,1/2-z
1/2-x,1/2-y,-z
1/2+x,y,1/2-z
1/2-x,1/2+y,z
1/2+x,-y,1/2+z
loop_
_atom_site_type_symbol
_atom_site_label
_atom_site_fract_x
_atom_site_fract_y
_atom_site_fract_z
Si Si1 0.652772 0.852622 0.176649
Si Si2 0.393664 0.097701 0.356508
Si Si3 0.854569 0.299869 0.810494
Si Si4 0.500000 0.708608 0.824249
Si Si5 0.797586 0.941223 0.515677
O O1 0.750000 0.837797 0.250000
O O2 0.577995 0.834729 0.306382
O O3 0.639779 0.823756 0.997901
O O4 0.652707 0.911081 0.133345
O O5 0.500000 0.083531 0.396132
O O6 0.390453 0.156751 0.314373
O O7 0.305914 0.082571 0.472152
O O8 0.357860 0.071911 0.181619
O O9 0.750000 0.289169 0.750000
O O10 0.919393 0.252089 0.812219
O O11 0.790463 0.000000 0.500000
#
# Coordination Sequence:
#
# PCOD9479577 Si02
#       5
#    16  16  16   8  16
#     4  11  26  46  66 104 141 181 246 299 350 433
#     4  10  20  42  72  99 130 190 239 287 366 447
#     4  11  22  45  69  97 138 188 231 292 367 426
#     4  12  26  40  71  98 137 184 238 290 350 430
#     4  10  23  44  70 101 145 183 232 310 368 425
#
# _framework density 23.474620000000002
#
# number of rings (size 3 to 8) (size 9 to 14) (size 15 to 20)
#    0.000    1.333    5.556    1.333    7.778    6.222 
#    2.000    0.000    0.000    0.000    0.000    0.000 
#    0.000    0.000    0.000    0.000    0.000    0.000 
#
# Total GULP energy -200431.382724 kJ/mol
# GULP energy per Si atom -5567.538409 kJ/mol
# Density = 2.342119 g / cm^3
# Si number density = 23.474620 Si / 1000 Ang^3
#
#
#
# Elastic Constant Matrix: (Units=GPa)
#
#
# Indices 1 2 3 4 5 6 
#
# 1 160.3779 48.0286 -0.8295 0.0000 0.0000 0.0000
# 2 48.0286 151.9637 13.9696 0.0000 0.0000 0.0000
# 3 -0.8295 13.9696 78.5866 0.0000 0.0000 0.0000
# 4 0.0000 0.0000 0.0000 -5.2581 0.0000 0.0000
# 5 0.0000 0.0000 0.0000 0.0000 -34.6658 0.0000
# 6 0.0000 0.0000 0.0000 0.0000 0.0000 -159.2787
#
#
#
# Elastic Compliance Matrix: (Units=1/GPa)
#
#
# Indices 1 2 3 4 5 6 
#
# 1 0.006904 -0.002225 0.000468 0.000000 0.000000 0.000000
# 2 -0.002225 0.007407 -0.001340 0.000000 0.000000 0.000000
# 3 0.000468 -0.001340 0.012968 0.000000 0.000000 0.000000
# 4 0.000000 0.000000 0.000000 -0.190181 0.000000 0.000000
# 5 0.000000 0.000000 0.000000 0.000000 -0.028847 0.000000
# 6 0.000000 0.000000 0.000000 0.000000 0.000000 -0.006278
#
#
# Mechanical properties :
#
#
# Convention : Reuss Voigt Hill
#
# Bulk Modulus (GPa) = 47.42639 57.02951 52.22795
# Shear Modulus (GPa) = -27.05553 -17.85655 -22.45604
#
# Velocity S-wave (km/s) = -3.39860 -2.76103 -3.09627
# Velocity P-wave (km/s) = 2.20148 3.76597 3.08456
#
# Compressibility (1/GPa) = 0.02108531
#
# Stress axis : x y z
#
# Youngs Moduli (GPa) = 144.84255 135.00808 77.11297
#
# Poissons Ratio (x) = 0.30041 -0.03612
# Poissons Ratio (y) = 0.32229 0.10334
# Poissons Ratio (z) = -0.06785 0.18093
#
# Static dielectric constant tensor:
#      x y z
#    x 1.813780 0.000000 0.000000 
#    y 0.000000 1.852770 0.000000 
#    z 0.000000 0.000000 2.029190 
# 
# From -- ./inp_files/5799.got.cif
#   From: 2010.05.17/outbox.cif.g08.bks.cpg/sg64_3_cif.got.tgz:5799.got - 2010.06.03 16:29:19.
