data_PCOD9479001
_publ_section_title
;
Structure prediction by ZEFSAII (Michael W. Deem and Ramdas Pophale) SiO2 
 PCOD9479001
Probable space group: C M C A
;
_chemical_formula_sum "Si O2"
_cell_formula_units_Z 112
_cell_length_a 14.362668
_cell_length_b 33.122538
_cell_length_c 11.531395
_cell_angle_alpha 90.000000
_cell_angle_beta 90.000000
_cell_angle_gamma 90.000000
_cell_volume 5485.807672
_symmetry_space_group_name_H-M "C M C A"
_symmetry_group_IT_number 64
_symmetry_cell_setting 'orthorhombic'
loop_
_space_group_symop_operation_xyz
x,y,z
-x,1/2-y,1/2+z
x,-y,-z
-x,1/2+y,1/2-z
-x,-y,-z
x,1/2+y,1/2-z
-x,y,z
x,1/2-y,1/2+z
1/2+x,1/2+y,z
1/2-x,-y,1/2+z
1/2+x,1/2-y,-z
1/2-x,y,1/2-z
1/2-x,1/2-y,-z
1/2+x,y,1/2-z
1/2-x,1/2+y,z
1/2+x,-y,1/2+z
loop_
_atom_site_type_symbol
_atom_site_label
_atom_site_fract_x
_atom_site_fract_y
_atom_site_fract_z
Si Si1 0.788141 0.957442 0.062005
Si Si2 0.391980 0.935262 0.206338
Si Si3 0.778200 0.872405 0.972422
Si Si4 0.660605 0.772196 0.168200
Si Si5 0.108368 0.175094 0.462764
Si Si6 0.603128 0.348936 0.190180
Si Si7 0.603517 0.183068 0.310645
O O1 0.685069 0.951091 0.116967
O O2 0.860432 0.952827 0.168495
O O3 0.803249 0.919374 0.976943
O O4 0.796286 0.000000 0.000000
O O5 0.500000 0.944131 0.180172
O O6 0.382348 0.886778 0.224066
O O7 0.667684 0.865690 0.971649
O O8 0.823085 0.846960 0.868328
O O9 0.820874 0.853281 0.090217
O O10 0.750000 0.764870 0.250000
O O11 0.608766 0.806832 0.242843
O O12 0.615100 0.728912 0.147628
O O13 0.663891 0.792757 0.041582
O O14 0.110951 0.186177 0.327905
O O15 0.000000 0.172647 0.498758
O O16 0.500000 0.353607 0.138884
O O17 0.500000 0.168215 0.339654
#
# Coordination Sequence:
#
# PCOD9479001 Si02
#       7
#    16  16  16  16  16  16  16
#     4  10  22  40  67  97 128 164 214 269 329 391
#     4   9  20  40  64  96 133 165 211 271 324 381
#     4  11  22  42  66  89 124 169 212 262 323 390
#     4  12  23  38  63  92 127 168 219 269 315 365
#     4  11  24  42  60  89 131 172 215 265 316 379
#     4  10  20  36  64  94 121 162 214 267 315 369
#     4  11  26  43  60  90 131 173 217 260 314 384
#
# _framework density 20.416319999999999
#
# number of rings (size 3 to 8) (size 9 to 14) (size 15 to 20)
#    0.000    1.429    1.429    3.857    4.000    4.000 
#    5.143    0.000    0.000    0.000    0.000    0.000 
#    0.000    0.000    0.000    0.000    0.000    0.000 
#
# Total GULP energy -312814.268863 kJ/mol
# GULP energy per Si atom -5585.969087 kJ/mol
# Density = 2.036985 g / cm^3
# Si number density = 20.416320 Si / 1000 Ang^3
#
#
#
# Elastic Constant Matrix: (Units=GPa)
#
#
# Indices 1 2 3 4 5 6 
#
# 1 96.6590 24.2911 25.7668 0.0000 0.0000 0.0000
# 2 24.2911 120.6673 31.2409 0.0000 0.0000 0.0000
# 3 25.7668 31.2409 65.0896 0.0000 0.0000 0.0000
# 4 0.0000 0.0000 0.0000 30.1159 0.0000 0.0000
# 5 0.0000 0.0000 0.0000 0.0000 22.1649 0.0000
# 6 0.0000 0.0000 0.0000 0.0000 0.0000 10.7318
#
#
#
# Elastic Compliance Matrix: (Units=1/GPa)
#
#
# Indices 1 2 3 4 5 6 
#
# 1 0.011749 -0.001326 -0.004015 0.000000 0.000000 0.000000
# 2 -0.001326 0.009613 -0.004089 0.000000 0.000000 0.000000
# 3 -0.004015 -0.004089 0.018915 0.000000 0.000000 0.000000
# 4 0.000000 0.000000 0.000000 0.033205 0.000000 0.000000
# 5 0.000000 0.000000 0.000000 0.000000 0.045116 0.000000
# 6 0.000000 0.000000 0.000000 0.000000 0.000000 0.093181
#
#
# Mechanical properties :
#
#
# Convention : Reuss Voigt Hill
#
# Bulk Modulus (GPa) = 46.68931 49.44594 48.06762
# Shear Modulus (GPa) = 21.02802 26.01033 23.51918
#
# Velocity S-wave (km/s) = 3.21278 3.57318 3.39776
# Velocity P-wave (km/s) = 6.05648 6.42611 6.24403
#
# Compressibility (1/GPa) = 0.02141818
#
# Stress axis : x y z
#
# Youngs Moduli (GPa) = 85.11336 104.02815 52.86717
#
# Poissons Ratio (x) = 0.13791 0.21225
# Poissons Ratio (y) = 0.11284 0.21617
# Poissons Ratio (z) = 0.34171 0.42537
#
# Static dielectric constant tensor:
#      x y z
#    x 1.763100 0.000000 0.000000 
#    y 0.000000 1.701090 0.000000 
#    z 0.000000 0.000000 1.747960 
# 
# From -- ./inp_files/14936.got.cif
#   From: 2010.05.17/outbox.cif.g08.bks.cpg/sg64_8_cif.got.tgz:14936.got - 2010.06.03 16:29:19.
