data_PCOD9479958
_publ_section_title
;
Structure prediction by ZEFSAII (Michael W. Deem and Ramdas Pophale) SiO2 
 PCOD9479958
Probable space group: C M C A
;
_chemical_formula_sum "Si O2"
_cell_formula_units_Z 116
_cell_length_a 16.107296
_cell_length_b 30.797456
_cell_length_c 11.055617
_cell_angle_alpha 90.000000
_cell_angle_beta 90.000000
_cell_angle_gamma 90.000000
_cell_volume 5484.290715
_symmetry_space_group_name_H-M "C M C A"
_symmetry_group_IT_number 64
_symmetry_cell_setting 'orthorhombic'
loop_
_space_group_symop_operation_xyz
x,y,z
-x,1/2-y,1/2+z
x,-y,-z
-x,1/2+y,1/2-z
-x,-y,-z
x,1/2+y,1/2-z
-x,y,z
x,1/2-y,1/2+z
1/2+x,1/2+y,z
1/2-x,-y,1/2+z
1/2+x,1/2-y,-z
1/2-x,y,1/2-z
1/2-x,1/2-y,-z
1/2+x,y,1/2-z
1/2-x,1/2+y,z
1/2+x,-y,1/2+z
loop_
_atom_site_type_symbol
_atom_site_label
_atom_site_fract_x
_atom_site_fract_y
_atom_site_fract_z
Si Si1 0.157256 0.438726 0.307563
Si Si2 0.909347 0.815283 0.486741
Si Si3 0.661691 0.775706 0.494802
Si Si4 0.134177 0.477122 0.823276
Si Si5 0.756353 0.851358 0.888913
Si Si6 0.690310 0.945910 0.576080
Si Si7 0.500000 0.000000 0.000000
Si Si8 0.349076 0.159071 0.725777
O O1 0.250000 0.436903 0.250000
O O2 0.114059 0.473684 0.220755
O O3 0.157199 0.458147 0.443302
O O4 0.123838 0.389730 0.308251
O O5 0.902341 0.763021 0.491050
O O6 0.831844 0.835549 0.559238
O O7 0.894790 0.828257 0.348134
O O8 0.000000 0.829413 0.529685
O O9 0.750000 0.750000 0.500000
O O10 0.676476 0.813160 0.593403
O O11 0.643032 0.803627 0.375014
O O12 0.225636 0.469910 0.879700
O O13 0.132951 0.450278 0.696268
O O14 0.071497 0.470192 0.931429
O O15 0.750000 0.861847 0.750000
O O16 0.784015 0.895890 0.949542
O O17 0.250000 0.157753 0.750000
#
# Coordination Sequence:
#
# PCOD9479958 Si02
#       8
#    16  16  16  16  16  16   4  16
#     4  11  20  37  66  98 131 174 232 285 334 404
#     4  11  26  43  66 102 135 173 227 295 358 421
#     4  10  21  37  66  91 127 180 225 280 339 423
#     4  11  24  41  69  98 137 184 231 285 349 425
#     4  11  21  41  67  99 133 178 228 274 345 416
#     4  11  21  43  69 105 130 177 240 290 327 429
#     4  12  28  48  62 104 144 186 228 302 384 412
#     4  11  20  40  65  96 127 175 231 282 337 420
#
# _framework density 21.151323000000001
#
# number of rings (size 3 to 8) (size 9 to 14) (size 15 to 20)
#    0.000    1.103    6.897    2.069    3.862    0.552 
#    4.966    1.379    1.517    0.000    0.000    0.000 
#    0.000    0.000    0.000    0.000    0.000    0.000 
#
# Total GULP energy -322957.727634 kJ/mol
# GULP energy per Si atom -5568.236683 kJ/mol
# Density = 2.110318 g / cm^3
# Si number density = 21.151323 Si / 1000 Ang^3
#
#
#
# Elastic Constant Matrix: (Units=GPa)
#
#
# Indices 1 2 3 4 5 6 
#
# 1 43.7693 6.5390 -4.0116 0.0000 0.0000 0.0000
# 2 6.5390 121.7575 16.2858 0.0000 0.0000 0.0000
# 3 -4.0116 16.2858 63.6010 0.0000 0.0000 0.0000
# 4 0.0000 0.0000 0.0000 39.6025 0.0000 0.0000
# 5 0.0000 0.0000 0.0000 0.0000 1.4957 0.0000
# 6 0.0000 0.0000 0.0000 0.0000 0.0000 -14.0967
#
#
#
# Elastic Compliance Matrix: (Units=1/GPa)
#
#
# Indices 1 2 3 4 5 6 
#
# 1 0.023240 -0.001495 0.001849 0.000000 0.000000 0.000000
# 2 -0.001495 0.008601 -0.002297 0.000000 0.000000 0.000000
# 3 0.001849 -0.002297 0.016428 0.000000 0.000000 0.000000
# 4 0.000000 0.000000 0.000000 0.025251 0.000000 0.000000
# 5 0.000000 0.000000 0.000000 0.000000 0.668578 0.000000
# 6 0.000000 0.000000 0.000000 0.000000 0.000000 -0.070939
#
#
# Mechanical properties :
#
#
# Convention : Reuss Voigt Hill
#
# Bulk Modulus (GPa) = 22.53181 29.63937 26.08559
# Shear Modulus (GPa) = 7.24807 19.42128 13.33467
#
# Velocity S-wave (km/s) = 1.85316 3.03348 2.51358
# Velocity P-wave (km/s) = 3.90573 5.12960 4.55892
#
# Compressibility (1/GPa) = 0.04438170
#
# Stress axis : x y z
#
# Youngs Moduli (GPa) = 43.02943 116.27175 60.87278
#
# Poissons Ratio (x) = 0.17387 -0.11254
# Poissons Ratio (y) = 0.06435 0.13980
# Poissons Ratio (z) = -0.07955 0.26703
#
# Static dielectric constant tensor:
#      x y z
#    x 1.771020 0.000000 0.000000 
#    y 0.000000 1.814030 0.000000 
#    z 0.000000 0.000000 1.810690 
# 
# From -- ./inp_files/16558.got.cif
#   From: 2010.05.17/outbox.cif.g08.bks.cpg/sg64_9_cif.got.tgz:16558.got - 2010.06.03 16:29:19.
