data_PCOD9479513
_publ_section_title
;
Structure prediction by ZEFSAII (Michael W. Deem and Ramdas Pophale) SiO2 
 PCOD9479513
Probable space group: C M C A
;
_chemical_formula_sum "Si O2"
_cell_formula_units_Z 56
_cell_length_a 26.092806
_cell_length_b 12.622746
_cell_length_c 7.642311
_cell_angle_alpha 90.000000
_cell_angle_beta 90.000000
_cell_angle_gamma 90.000000
_cell_volume 2517.093428
_symmetry_space_group_name_H-M "C M C A"
_symmetry_group_IT_number 64
_symmetry_cell_setting 'orthorhombic'
loop_
_space_group_symop_operation_xyz
x,y,z
-x,1/2-y,1/2+z
x,-y,-z
-x,1/2+y,1/2-z
-x,-y,-z
x,1/2+y,1/2-z
-x,y,z
x,1/2-y,1/2+z
1/2+x,1/2+y,z
1/2-x,-y,1/2+z
1/2+x,1/2-y,-z
1/2-x,y,1/2-z
1/2-x,1/2-y,-z
1/2+x,y,1/2-z
1/2-x,1/2+y,z
1/2+x,-y,1/2+z
loop_
_atom_site_type_symbol
_atom_site_label
_atom_site_fract_x
_atom_site_fract_y
_atom_site_fract_z
Si Si1 0.592713 0.378774 0.059027
Si Si2 0.860906 0.500000 0.000000
Si Si3 0.699269 0.922983 0.336343
Si Si4 0.443266 0.834545 0.062945
O O1 0.652603 0.350598 0.095742
O O2 0.561526 0.372432 0.238395
O O3 0.592127 0.500000 0.000000
O O4 0.568898 0.289893 0.937119
O O5 0.827189 0.515883 0.826736
O O6 0.898663 0.599516 0.031045
O O7 0.750000 0.873188 0.250000
O O8 0.712507 0.000000 0.500000
O O9 0.500000 0.854430 0.991930
#
# Coordination Sequence:
#
# PCOD9479513 Si02
#       4
#    16   8  16  16
#     4  10  25  44  66  99 139 173 229 284 332 408
#     4  10  23  42  64  98 134 172 235 280 334 404
#     4  10  20  40  69  96 133 178 221 283 340 400
#     4  11  24  42  68  95 134 182 225 279 342 397
#
# _framework density 22.247882000000001
#
# number of rings (size 3 to 8) (size 9 to 14) (size 15 to 20)
#    0.000    1.714    1.429    1.286   12.000    2.286 
#    0.000    7.143    0.000    0.857    0.000    0.000 
#    0.000    0.000    0.000    0.000    0.000    0.000 
#
# Total GULP energy -156340.221921 kJ/mol
# GULP energy per Si atom -5583.579354 kJ/mol
# Density = 2.219724 g / cm^3
# Si number density = 22.247882 Si / 1000 Ang^3
#
#
#
# Elastic Constant Matrix: (Units=GPa)
#
#
# Indices 1 2 3 4 5 6 
#
# 1 134.4744 30.3977 23.2653 0.0000 0.0000 0.0000
# 2 30.3977 91.4550 16.3319 0.0000 0.0000 0.0000
# 3 23.2653 16.3319 73.3819 0.0000 0.0000 0.0000
# 4 0.0000 0.0000 0.0000 25.1982 0.0000 0.0000
# 5 0.0000 0.0000 0.0000 0.0000 62.5347 0.0000
# 6 0.0000 0.0000 0.0000 0.0000 0.0000 18.2240
#
#
#
# Elastic Compliance Matrix: (Units=1/GPa)
#
#
# Indices 1 2 3 4 5 6 
#
# 1 0.008343 -0.002396 -0.002112 0.000000 0.000000 0.000000
# 2 -0.002396 0.012075 -0.001928 0.000000 0.000000 0.000000
# 3 -0.002112 -0.001928 0.014726 0.000000 0.000000 0.000000
# 4 0.000000 0.000000 0.000000 0.039685 0.000000 0.000000
# 5 0.000000 0.000000 0.000000 0.000000 0.015991 0.000000
# 6 0.000000 0.000000 0.000000 0.000000 0.000000 0.054873
#
#
# Mechanical properties :
#
#
# Convention : Reuss Voigt Hill
#
# Bulk Modulus (GPa) = 44.89774 48.81124 46.85449
# Shear Modulus (GPa) = 30.12243 36.47913 33.30078
#
# Velocity S-wave (km/s) = 3.68359 4.05367 3.87306
# Velocity P-wave (km/s) = 6.19002 6.62548 6.41145
#
# Compressibility (1/GPa) = 0.02227284
#
# Stress axis : x y z
#
# Youngs Moduli (GPa) = 119.85578 82.81590 67.90722
#
# Poissons Ratio (x) = 0.19843 0.14342
# Poissons Ratio (y) = 0.28717 0.13091
# Poissons Ratio (z) = 0.25313 0.15965
#
# Static dielectric constant tensor:
#      x y z
#    x 1.849110 0.000000 0.000000 
#    y 0.000000 1.794950 0.000000 
#    z 0.000000 0.000000 1.855900 
# 
# From -- ./inp_files/8888.got.cif
#   From: 2010.05.17/outbox.cif.g08.bks.cpg/sg64_5_cif.got.tgz:8888.got - 2010.06.03 16:29:19.
