data_PCOD9479301
_publ_section_title
;
Structure prediction by ZEFSAII (Michael W. Deem and Ramdas Pophale) SiO2 
 PCOD9479301
Probable space group: C M C A
;
_chemical_formula_sum "Si O2"
_cell_formula_units_Z 72
_cell_length_a 28.514717
_cell_length_b 8.935748
_cell_length_c 13.757067
_cell_angle_alpha 90.000000
_cell_angle_beta 90.000000
_cell_angle_gamma 90.000000
_cell_volume 3505.305148
_symmetry_space_group_name_H-M "C M C A"
_symmetry_group_IT_number 64
_symmetry_cell_setting 'orthorhombic'
loop_
_space_group_symop_operation_xyz
x,y,z
-x,1/2-y,1/2+z
x,-y,-z
-x,1/2+y,1/2-z
-x,-y,-z
x,1/2+y,1/2-z
-x,y,z
x,1/2-y,1/2+z
1/2+x,1/2+y,z
1/2-x,-y,1/2+z
1/2+x,1/2-y,-z
1/2-x,y,1/2-z
1/2-x,1/2-y,-z
1/2+x,y,1/2-z
1/2-x,1/2+y,z
1/2+x,-y,1/2+z
loop_
_atom_site_type_symbol
_atom_site_label
_atom_site_fract_x
_atom_site_fract_y
_atom_site_fract_z
Si Si1 0.311558 0.340081 0.344403
Si Si2 0.250000 0.915418 0.750000
Si Si3 0.882282 0.671666 0.007771
Si Si4 0.899453 0.669727 0.703986
Si Si5 0.054641 0.862270 0.863908
O O1 0.286144 0.191006 0.306578
O O2 0.276585 0.476977 0.325848
O O3 0.332618 0.322167 0.451694
O O4 0.356657 0.367959 0.275711
O O5 0.880452 0.725904 0.117821
O O6 0.898635 0.500000 0.000000
O O7 0.917830 0.779630 0.950351
O O8 0.921571 0.520755 0.659283
O O9 0.936907 0.759514 0.768766
O O10 0.000000 0.878699 0.885422
#
# Coordination Sequence:
#
# PCOD9479301 Si02
#       5
#    16   8  16  16  16
#     4  10  21  40  60  88 119 158 201 246 304 358
#     4  10  20  38  64  86 120 154 198 258 298 352
#     4  11  23  40  62  88 123 163 201 244 301 362
#     4  11  22  41  64  87 124 164 199 247 305 361
#     4  11  24  40  63  93 121 158 205 250 297 354
#
# _framework density 20.540293999999999
#
# number of rings (size 3 to 8) (size 9 to 14) (size 15 to 20)
#    0.000    1.333    0.000    8.000    0.000    3.111 
#    0.000   12.222    0.000    0.000    0.000    0.000 
#    0.000    0.000    0.000    0.000    0.000    0.000 
#
# Total GULP energy -201443.816889 kJ/mol
# GULP energy per Si atom -5595.661580 kJ/mol
# Density = 2.049354 g / cm^3
# Si number density = 20.540294 Si / 1000 Ang^3
#
#
#
# Elastic Constant Matrix: (Units=GPa)
#
#
# Indices 1 2 3 4 5 6 
#
# 1 87.7887 14.3206 -9.4466 0.0000 0.0000 0.0000
# 2 14.3206 101.3079 -8.7229 0.0000 0.0000 0.0000
# 3 -9.4466 -8.7229 55.9771 0.0000 0.0000 0.0000
# 4 0.0000 0.0000 0.0000 37.4832 0.0000 0.0000
# 5 0.0000 0.0000 0.0000 0.0000 22.8479 0.0000
# 6 0.0000 0.0000 0.0000 0.0000 0.0000 30.6708
#
#
#
# Elastic Compliance Matrix: (Units=1/GPa)
#
#
# Indices 1 2 3 4 5 6 
#
# 1 0.011828 -0.001521 0.001759 0.000000 0.000000 0.000000
# 2 -0.001521 0.010201 0.001333 0.000000 0.000000 0.000000
# 3 0.001759 0.001333 0.018369 0.000000 0.000000 0.000000
# 4 0.000000 0.000000 0.000000 0.026679 0.000000 0.000000
# 5 0.000000 0.000000 0.000000 0.000000 0.043768 0.000000
# 6 0.000000 0.000000 0.000000 0.000000 0.000000 0.032604
#
#
# Mechanical properties :
#
#
# Convention : Reuss Voigt Hill
#
# Bulk Modulus (GPa) = 22.96677 26.37509 24.67093
# Shear Modulus (GPa) = 32.29577 34.79524 33.54550
#
# Velocity S-wave (km/s) = 3.96954 4.12029 4.04562
# Velocity P-wave (km/s) = 5.67585 5.95854 5.81891
#
# Compressibility (1/GPa) = 0.04354116
#
# Stress axis : x y z
#
# Youngs Moduli (GPa) = 84.54281 98.03333 54.43943
#
# Poissons Ratio (x) = 0.14906 -0.09577
# Poissons Ratio (y) = 0.12855 -0.07257
# Poissons Ratio (z) = -0.14873 -0.13067
#
# Static dielectric constant tensor:
#      x y z
#    x 1.708960 0.000000 0.000000 
#    y 0.000000 1.720140 0.000000 
#    z 0.000000 0.000000 1.728150 
# 
# From -- ./inp_files/27814.got.cif
#   From: 2010.05.17/outbox.cif.g08.bks.cpg/sg64_14_cif.got.tgz:27814.got - 2010.06.03 16:29:19.
