data_PCOD9479935
_publ_section_title
;
Structure prediction by ZEFSAII (Michael W. Deem and Ramdas Pophale) SiO2 
 PCOD9479935
Probable space group: C M C A
;
_chemical_formula_sum "Si O2"
_cell_formula_units_Z 72
_cell_length_a 28.548004
_cell_length_b 13.816011
_cell_length_c 8.199772
_cell_angle_alpha 90.000000
_cell_angle_beta 90.000000
_cell_angle_gamma 90.000000
_cell_volume 3234.150278
_symmetry_space_group_name_H-M "C M C A"
_symmetry_group_IT_number 64
_symmetry_cell_setting 'orthorhombic'
loop_
_space_group_symop_operation_xyz
x,y,z
-x,1/2-y,1/2+z
x,-y,-z
-x,1/2+y,1/2-z
-x,-y,-z
x,1/2+y,1/2-z
-x,y,z
x,1/2-y,1/2+z
1/2+x,1/2+y,z
1/2-x,-y,1/2+z
1/2+x,1/2-y,-z
1/2-x,y,1/2-z
1/2-x,1/2-y,-z
1/2+x,y,1/2-z
1/2-x,1/2+y,z
1/2+x,-y,1/2+z
loop_
_atom_site_type_symbol
_atom_site_label
_atom_site_fract_x
_atom_site_fract_y
_atom_site_fract_z
Si Si1 0.750000 0.992559 0.250000
Si Si2 0.101527 0.136577 0.446845
Si Si3 0.320295 0.000000 0.000000
Si Si4 0.000000 0.365707 0.938054
Si Si5 0.102062 0.641053 0.660279
Si Si6 0.176546 0.500000 0.500000
Si Si7 0.000000 0.858408 0.169028
O O1 0.712804 0.044769 0.367608
O O2 0.785870 0.942686 0.376835
O O3 0.145107 0.070104 0.401402
O O4 0.051012 0.095155 0.387385
O O5 0.106049 0.246123 0.387412
O O6 0.102717 0.136156 0.643677
O O7 0.000000 0.366955 0.134654
O O8 0.000000 0.255503 0.876032
O O9 0.143066 0.579699 0.579529
O O10 0.050089 0.605405 0.606289
#
# Coordination Sequence:
#
# PCOD9479935 Si02
#       7
#     8  16   8   8  16   8   8
#     4  10  24  42  62  80 114 154 192 262 294 330
#     4  10  21  37  62  90 119 155 191 232 286 349
#     4  11  22  43  62  82 118 151 198 243 300 338
#     4   8  16  33  54  86 123 149 183 229 277 339
#     4  10  21  37  62  90 119 155 191 232 286 349
#     4  11  22  43  62  82 118 151 198 243 300 338
#     4   8  16  33  54  86 123 149 183 229 277 339
#
# _framework density 22.262416999999999
#
# number of rings (size 3 to 8) (size 9 to 14) (size 15 to 20)
#    0.000    2.222    2.222    0.000    3.111    0.889 
#    0.000    6.667    0.000    0.000    0.000    0.000 
#    0.000    0.000    0.000    0.000    0.000    0.000 
#
# Total GULP energy -200526.151379 kJ/mol
# GULP energy per Si atom -5570.170872 kJ/mol
# Density = 2.221175 g / cm^3
# Si number density = 22.262417 Si / 1000 Ang^3
#
#
#
# Elastic Constant Matrix: (Units=GPa)
#
#
# Indices 1 2 3 4 5 6 
#
# 1 212.8613 40.7948 49.5857 0.0000 0.0000 0.0000
# 2 40.7948 70.2631 15.2921 0.0000 0.0000 0.0000
# 3 49.5857 15.2921 41.5769 0.0000 0.0000 0.0000
# 4 0.0000 0.0000 0.0000 26.0432 0.0000 0.0000
# 5 0.0000 0.0000 0.0000 0.0000 18.6705 0.0000
# 6 0.0000 0.0000 0.0000 0.0000 0.0000 23.4997
#
#
#
# Elastic Compliance Matrix: (Units=1/GPa)
#
#
# Indices 1 2 3 4 5 6 
#
# 1 0.006856 -0.002393 -0.007297 0.000000 0.000000 0.000000
# 2 -0.002393 0.016306 -0.003144 0.000000 0.000000 0.000000
# 3 -0.007297 -0.003144 0.033911 0.000000 0.000000 0.000000
# 4 0.000000 0.000000 0.000000 0.038398 0.000000 0.000000
# 5 0.000000 0.000000 0.000000 0.000000 0.053561 0.000000
# 6 0.000000 0.000000 0.000000 0.000000 0.000000 0.042554
#
#
# Mechanical properties :
#
#
# Convention : Reuss Voigt Hill
#
# Bulk Modulus (GPa) = 31.84119 59.56074 45.70097
# Shear Modulus (GPa) = 21.95680 28.24457 25.10068
#
# Velocity S-wave (km/s) = 3.14390 3.56576 3.36146
# Velocity P-wave (km/s) = 5.24524 6.61550 5.96982
#
# Compressibility (1/GPa) = 0.03140586
#
# Stress axis : x y z
#
# Youngs Moduli (GPa) = 145.85222 61.32870 29.48927
#
# Poissons Ratio (x) = 0.14674 0.21518
# Poissons Ratio (y) = 0.34897 0.09271
# Poissons Ratio (z) = 1.06428 0.19280
#
# Static dielectric constant tensor:
#      x y z
#    x 1.888520 0.000000 0.000000 
#    y 0.000000 1.845050 0.000000 
#    z 0.000000 0.000000 1.905390 
# 
# From -- ./inp_files/10075.got.cif
#   From: 2010.05.17/outbox.cif.g08.bks.cpg/sg64_6_cif.got.tgz:10075.got - 2010.06.03 16:29:19.
