data_PCOD9479443
_publ_section_title
;
Structure prediction by ZEFSAII (Michael W. Deem and Ramdas Pophale) SiO2 
 PCOD9479443
Probable space group: C M C A
;
_chemical_formula_sum "Si O2"
_cell_formula_units_Z 112
_cell_length_a 29.967000
_cell_length_b 13.639014
_cell_length_c 15.140996
_cell_angle_alpha 90.000000
_cell_angle_beta 90.000000
_cell_angle_gamma 90.000000
_cell_volume 6188.432920
_symmetry_space_group_name_H-M "C M C A"
_symmetry_group_IT_number 64
_symmetry_cell_setting 'orthorhombic'
loop_
_space_group_symop_operation_xyz
x,y,z
-x,1/2-y,1/2+z
x,-y,-z
-x,1/2+y,1/2-z
-x,-y,-z
x,1/2+y,1/2-z
-x,y,z
x,1/2-y,1/2+z
1/2+x,1/2+y,z
1/2-x,-y,1/2+z
1/2+x,1/2-y,-z
1/2-x,y,1/2-z
1/2-x,1/2-y,-z
1/2+x,y,1/2-z
1/2-x,1/2+y,z
1/2+x,-y,1/2+z
loop_
_atom_site_type_symbol
_atom_site_label
_atom_site_fract_x
_atom_site_fract_y
_atom_site_fract_z
Si Si1 0.391166 0.545569 0.725276
Si Si2 0.449027 0.593755 0.563705
Si Si3 0.369305 0.238087 0.985787
Si Si4 0.154546 0.219714 0.812747
Si Si5 0.853082 0.114293 0.163890
Si Si6 0.184101 0.434445 0.081326
Si Si7 0.723174 0.454767 0.161812
O O1 0.431708 0.556942 0.658701
O O2 0.383682 0.646690 0.776899
O O3 0.390576 0.454061 0.790561
O O4 0.345942 0.535182 0.665258
O O5 0.446346 0.500000 0.500000
O O6 0.500000 0.628360 0.566291
O O7 0.414203 0.676083 0.531577
O O8 0.369383 0.335659 0.926472
O O9 0.329437 0.175488 0.941683
O O10 0.359017 0.246281 0.089369
O O11 0.159927 0.304813 0.739162
O O12 0.197550 0.148344 0.823331
O O13 0.812466 0.039784 0.143040
O O14 0.236665 0.444476 0.093218
O O15 0.168589 0.500000 0.000000
O O16 0.750000 0.481284 0.250000
#
# Coordination Sequence:
#
# PCOD9479443 Si02
#       7
#    16  16  16  16  16  16  16
#     4  10  20  40  59  84 123 154 189 244 311 352
#     4  10  20  40  69  95 117 146 201 255 298 363
#     4  11  23  38  62  88 119 164 199 244 314 364
#     4  11  22  39  57  84 121 164 201 248 299 359
#     4  11  21  38  59  83 118 164 198 246 303 355
#     4  11  21  39  54  79 116 159 207 261 285 337
#     4  11  23  37  52  82 119 160 215 258 288 339
#
# _framework density 18.098281
#
# number of rings (size 3 to 8) (size 9 to 14) (size 15 to 20)
#    0.000    1.286    5.714    3.429    2.000    4.000 
#    0.000    1.429    0.000    0.000    0.000    5.000 
#    0.000    0.000    0.000    0.000    0.000    0.000 
#
# Total GULP energy -312399.287593 kJ/mol
# GULP energy per Si atom -5578.558707 kJ/mol
# Density = 1.805709 g / cm^3
# Si number density = 18.098281 Si / 1000 Ang^3
#
#
#
# Elastic Constant Matrix: (Units=GPa)
#
#
# Indices 1 2 3 4 5 6 
#
# 1 95.6822 28.5646 27.9490 0.0000 0.0000 0.0000
# 2 28.5646 65.9794 3.1958 0.0000 0.0000 0.0000
# 3 27.9490 3.1958 58.6297 0.0000 0.0000 0.0000
# 4 0.0000 0.0000 0.0000 43.3483 0.0000 0.0000
# 5 0.0000 0.0000 0.0000 0.0000 14.0006 0.0000
# 6 0.0000 0.0000 0.0000 0.0000 0.0000 17.1426
#
#
#
# Elastic Compliance Matrix: (Units=1/GPa)
#
#
# Indices 1 2 3 4 5 6 
#
# 1 0.014036 -0.005768 -0.006376 0.000000 0.000000 0.000000
# 2 -0.005768 0.017566 0.001792 0.000000 0.000000 0.000000
# 3 -0.006376 0.001792 0.019998 0.000000 0.000000 0.000000
# 4 0.000000 0.000000 0.000000 0.023069 0.000000 0.000000
# 5 0.000000 0.000000 0.000000 0.000000 0.071425 0.000000
# 6 0.000000 0.000000 0.000000 0.000000 0.000000 0.058334
#
#
# Mechanical properties :
#
#
# Convention : Reuss Voigt Hill
#
# Bulk Modulus (GPa) = 32.36663 37.74555 35.05609
# Shear Modulus (GPa) = 21.23758 25.60378 23.42068
#
# Velocity S-wave (km/s) = 3.42929 3.76534 3.60124
# Velocity P-wave (km/s) = 5.79679 6.30911 6.05837
#
# Compressibility (1/GPa) = 0.03089602
#
# Stress axis : x y z
#
# Youngs Moduli (GPa) = 71.24689 56.92667 50.00442
#
# Poissons Ratio (x) = 0.32833 0.31885
# Poissons Ratio (y) = 0.41093 -0.08961
# Poissons Ratio (z) = 0.45431 -0.10201
#
# Static dielectric constant tensor:
#      x y z
#    x 1.600600 0.000000 0.000000 
#    y 0.000000 1.661260 0.000000 
#    z 0.000000 0.000000 1.671280 
# 
# From -- ./inp_files/28427.got.cif
#   From: 2010.05.17/outbox.cif.g08.bks.cpg/sg64_15_cif.got.tgz:28427.got - 2010.06.03 16:29:19.
