data_PCOD9479276
_publ_section_title
;
Structure prediction by ZEFSAII (Michael W. Deem and Ramdas Pophale) SiO2 
 PCOD9479276
Probable space group: C M C A
;
_chemical_formula_sum "Si O2"
_cell_formula_units_Z 96
_cell_length_a 18.390137
_cell_length_b 10.032267
_cell_length_c 29.382116
_cell_angle_alpha 90.000000
_cell_angle_beta 90.000000
_cell_angle_gamma 90.000000
_cell_volume 5420.846573
_symmetry_space_group_name_H-M "C M C A"
_symmetry_group_IT_number 64
_symmetry_cell_setting 'orthorhombic'
loop_
_space_group_symop_operation_xyz
x,y,z
-x,1/2-y,1/2+z
x,-y,-z
-x,1/2+y,1/2-z
-x,-y,-z
x,1/2+y,1/2-z
-x,y,z
x,1/2-y,1/2+z
1/2+x,1/2+y,z
1/2-x,-y,1/2+z
1/2+x,1/2-y,-z
1/2-x,y,1/2-z
1/2-x,1/2-y,-z
1/2+x,y,1/2-z
1/2-x,1/2+y,z
1/2+x,-y,1/2+z
loop_
_atom_site_type_symbol
_atom_site_label
_atom_site_fract_x
_atom_site_fract_y
_atom_site_fract_z
Si Si1 0.176861 0.306147 0.114782
Si Si2 0.586278 0.998895 0.710628
Si Si3 0.817865 0.490830 0.379378
Si Si4 0.413377 0.856290 0.022826
Si Si5 0.414586 0.811708 0.206368
Si Si6 0.083078 0.111615 0.960991
O O1 0.245779 0.402274 0.119224
O O2 0.131709 0.337772 0.068981
O O3 0.127841 0.329175 0.159449
O O4 0.197008 0.148851 0.114606
O O5 0.500000 0.022658 0.700734
O O6 0.594055 0.842042 0.721449
O O7 0.636353 0.026918 0.667085
O O8 0.607953 0.089251 0.753409
O O9 0.867935 0.439635 0.420410
O O10 0.500000 0.836311 0.032154
O O11 0.391184 0.745972 0.985622
O O12 0.403599 0.000000 0.000000
O O13 0.500000 0.834553 0.197822
O O14 0.000000 0.131769 0.945078
O O15 0.082352 0.000000 0.000000
#
# Coordination Sequence:
#
# PCOD9479276 Si02
#       6
#    16  16  16  16  16  16
#     4  11  24  39  57  83 119 156 188 230 285 342
#     4   9  19  38  62  86 111 143 189 237 281 334
#     4  11  24  38  57  85 117 154 190 231 284 340
#     4  10  22  40  61  86 114 147 191 240 285 333
#     4   9  19  38  63  86 110 145 188 236 284 333
#     4  10  20  38  63  85 109 147 194 237 278 331
#
# _framework density 17.709410999999999
#
# number of rings (size 3 to 8) (size 9 to 14) (size 15 to 20)
#    0.000    2.000    1.667    1.000    2.333    4.667 
#    0.000    3.333    0.000    0.000    0.000    0.000 
#    0.000    0.000    0.000    0.000    0.000    0.000 
#
# Total GULP energy -267951.044324 kJ/mol
# GULP energy per Si atom -5582.313423 kJ/mol
# Density = 1.766910 g / cm^3
# Si number density = 17.709411 Si / 1000 Ang^3
#
#
#
# Elastic Constant Matrix: (Units=GPa)
#
#
# Indices 1 2 3 4 5 6 
#
# 1 77.7000 63.2302 74.5889 0.0000 0.0000 0.0000
# 2 63.2302 113.3679 84.0449 0.0000 0.0000 0.0000
# 3 74.5889 84.0449 133.0405 0.0000 0.0000 0.0000
# 4 0.0000 0.0000 0.0000 33.7295 0.0000 0.0000
# 5 0.0000 0.0000 0.0000 0.0000 34.0580 0.0000
# 6 0.0000 0.0000 0.0000 0.0000 0.0000 37.4090
#
#
#
# Elastic Compliance Matrix: (Units=1/GPa)
#
#
# Indices 1 2 3 4 5 6 
#
# 1 0.031670 -0.008465 -0.012408 0.000000 0.000000 0.000000
# 2 -0.008465 0.018853 -0.007164 0.000000 0.000000 0.000000
# 3 -0.012408 -0.007164 0.018999 0.000000 0.000000 0.000000
# 4 0.000000 0.000000 0.000000 0.029648 0.000000 0.000000
# 5 0.000000 0.000000 0.000000 0.000000 0.029362 0.000000
# 6 0.000000 0.000000 0.000000 0.000000 0.000000 0.026732
#
#
# Mechanical properties :
#
#
# Convention : Reuss Voigt Hill
#
# Bulk Modulus (GPa) = 74.36347 85.31517 79.83932
# Shear Modulus (GPa) = 23.16746 27.85559 25.51153
#
# Velocity S-wave (km/s) = 3.62083 3.97032 3.79959
# Velocity P-wave (km/s) = 7.71768 8.32451 8.02683
#
# Compressibility (1/GPa) = 0.01344746
#
# Stress axis : x y z
#
# Youngs Moduli (GPa) = 31.57578 53.04121 52.63461
#
# Poissons Ratio (x) = 0.44899 0.65310
# Poissons Ratio (y) = 0.26729 0.37709
# Poissons Ratio (z) = 0.39180 0.38000
#
# Static dielectric constant tensor:
#      x y z
#    x 1.609600 0.000000 0.000000 
#    y 0.000000 1.614350 0.000000 
#    z 0.000000 0.000000 1.563580 
# 
# From -- ./inp_files/50684.got.cif
#   From: 2010.05.17/outbox.cif.g08.bks.cpg/sg64_26_cif.got.tgz:50684.got - 2010.06.03 16:29:19.
