data_PCOD9479678
_publ_section_title
;
Structure prediction by ZEFSAII (Michael W. Deem and Ramdas Pophale) SiO2 
 PCOD9479678
Probable space group: C M C A
;
_chemical_formula_sum "Si O2"
_cell_formula_units_Z 80
_cell_length_a 14.068009
_cell_length_b 26.522091
_cell_length_c 11.380637
_cell_angle_alpha 90.000000
_cell_angle_beta 90.000000
_cell_angle_gamma 90.000000
_cell_volume 4246.263782
_symmetry_space_group_name_H-M "C M C A"
_symmetry_group_IT_number 64
_symmetry_cell_setting 'orthorhombic'
loop_
_space_group_symop_operation_xyz
x,y,z
-x,1/2-y,1/2+z
x,-y,-z
-x,1/2+y,1/2-z
-x,-y,-z
x,1/2+y,1/2-z
-x,y,z
x,1/2-y,1/2+z
1/2+x,1/2+y,z
1/2-x,-y,1/2+z
1/2+x,1/2-y,-z
1/2-x,y,1/2-z
1/2-x,1/2-y,-z
1/2+x,y,1/2-z
1/2-x,1/2+y,z
1/2+x,-y,1/2+z
loop_
_atom_site_type_symbol
_atom_site_label
_atom_site_fract_x
_atom_site_fract_y
_atom_site_fract_z
Si Si1 0.782152 0.410531 0.434097
Si Si2 0.264881 0.304722 0.947117
Si Si3 0.389089 0.444502 0.836553
Si Si4 0.108878 0.333266 0.758219
Si Si5 0.388216 0.450180 0.287236
O O1 0.772290 0.351440 0.463502
O O2 0.823340 0.438530 0.549171
O O3 0.682136 0.433754 0.391243
O O4 0.855507 0.418289 0.326827
O O5 0.176764 0.316572 0.862000
O O6 0.356555 0.307404 0.862261
O O7 0.250000 0.250000 0.000000
O O8 0.500000 0.448143 0.874988
O O9 0.378564 0.393020 0.763714
O O10 0.369675 0.492500 0.755310
O O11 0.000000 0.322468 0.783012
O O12 0.500000 0.444397 0.313295
#
# Coordination Sequence:
#
# PCOD9479678 Si02
#       5
#    16  16  16  16  16
#     4  10  21  35  56  79 108 147 182 219 269 321
#     4  10  22  39  57  80 109 141 183 232 273 312
#     4   9  18  36  59  80 107 145 183 216 258 322
#     4   9  20  38  59  81 106 142 186 223 262 322
#     4  10  21  35  55  86 117 141 173 220 271 325
#
# _framework density 18.840093
#
# number of rings (size 3 to 8) (size 9 to 14) (size 15 to 20)
#    0.000    2.400    0.000    1.200    0.000   15.200 
#    0.000    2.000    0.000   14.400    0.000    0.000 
#    0.000    0.000    0.000    0.000    0.000    0.000 
#
# Total GULP energy -223438.370404 kJ/mol
# GULP energy per Si atom -5585.959260 kJ/mol
# Density = 1.879721 g / cm^3
# Si number density = 18.840093 Si / 1000 Ang^3
#
#
#
# Elastic Constant Matrix: (Units=GPa)
#
#
# Indices 1 2 3 4 5 6 
#
# 1 116.1329 29.2293 38.4719 0.0000 0.0000 0.0000
# 2 29.2293 125.6482 45.6013 0.0000 0.0000 0.0000
# 3 38.4719 45.6013 59.4005 0.0000 0.0000 0.0000
# 4 0.0000 0.0000 0.0000 13.2437 0.0000 0.0000
# 5 0.0000 0.0000 0.0000 0.0000 18.9603 0.0000
# 6 0.0000 0.0000 0.0000 0.0000 0.0000 19.1785
#
#
#
# Elastic Compliance Matrix: (Units=1/GPa)
#
#
# Indices 1 2 3 4 5 6 
#
# 1 0.010963 0.000037 -0.007129 0.000000 0.000000 0.000000
# 2 0.000037 0.011033 -0.008494 0.000000 0.000000 0.000000
# 3 -0.007129 -0.008494 0.027973 0.000000 0.000000 0.000000
# 4 0.000000 0.000000 0.000000 0.075508 0.000000 0.000000
# 5 0.000000 0.000000 0.000000 0.000000 0.052742 0.000000
# 6 0.000000 0.000000 0.000000 0.000000 0.000000 0.052142
#
#
# Mechanical properties :
#
#
# Convention : Reuss Voigt Hill
#
# Bulk Modulus (GPa) = 53.19924 58.64292 55.92108
# Shear Modulus (GPa) = 18.67088 22.80176 20.73632
#
# Velocity S-wave (km/s) = 3.15146 3.48268 3.32120
# Velocity P-wave (km/s) = 6.44522 6.88232 6.66735
#
# Compressibility (1/GPa) = 0.01879726
#
# Stress axis : x y z
#
# Youngs Moduli (GPa) = 91.21477 90.63939 35.74935
#
# Poissons Ratio (x) = -0.00335 0.25485
# Poissons Ratio (y) = -0.00337 0.30364
# Poissons Ratio (z) = 0.65026 0.76986
#
# Static dielectric constant tensor:
#      x y z
#    x 1.662730 0.000000 0.000000 
#    y 0.000000 1.644620 0.000000 
#    z 0.000000 0.000000 1.649770 
# 
# From -- ./inp_files/14419.got.cif
#   From: 2010.05.17/outbox.cif.g08.bks.cpg/sg64_8_cif.got.tgz:14419.got - 2010.06.03 16:29:19.
