data_PCOD9479025
_publ_section_title
;
Structure prediction by ZEFSAII (Michael W. Deem and Ramdas Pophale) SiO2 
 PCOD9479025
Probable space group: C M C A
;
_chemical_formula_sum "Si O2"
_cell_formula_units_Z 112
_cell_length_a 15.774484
_cell_length_b 25.743754
_cell_length_c 11.659389
_cell_angle_alpha 90.000000
_cell_angle_beta 90.000000
_cell_angle_gamma 90.000000
_cell_volume 4734.812995
_symmetry_space_group_name_H-M "C M C A"
_symmetry_group_IT_number 64
_symmetry_cell_setting 'orthorhombic'
loop_
_space_group_symop_operation_xyz
x,y,z
-x,1/2-y,1/2+z
x,-y,-z
-x,1/2+y,1/2-z
-x,-y,-z
x,1/2+y,1/2-z
-x,y,z
x,1/2-y,1/2+z
1/2+x,1/2+y,z
1/2-x,-y,1/2+z
1/2+x,1/2-y,-z
1/2-x,y,1/2-z
1/2-x,1/2-y,-z
1/2+x,y,1/2-z
1/2-x,1/2+y,z
1/2+x,-y,1/2+z
loop_
_atom_site_type_symbol
_atom_site_label
_atom_site_fract_x
_atom_site_fract_y
_atom_site_fract_z
Si Si1 0.654541 0.125043 0.980840
Si Si2 0.164692 0.110279 0.869210
Si Si3 0.602069 0.576911 0.306441
Si Si4 0.852973 0.240871 0.606953
Si Si5 0.403673 0.051205 0.441494
Si Si6 0.095839 0.540570 0.825133
Si Si7 0.153003 0.270921 0.356076
O O1 0.747341 0.110019 0.936940
O O2 0.632257 0.180678 0.928694
O O3 0.596426 0.079427 0.931288
O O4 0.645588 0.120631 0.116808
O O5 0.153879 0.068149 0.769847
O O6 0.155066 0.168182 0.824015
O O7 0.096830 0.095386 0.964093
O O8 0.500000 0.585712 0.309005
O O9 0.633838 0.572659 0.175856
O O10 0.620149 0.518331 0.351683
O O11 0.885063 0.253223 0.737334
O O12 0.882415 0.268014 0.487391
O O13 0.750650 0.247581 0.624152
O O14 0.500000 0.036325 0.412500
O O15 0.362936 0.000000 0.500000
O O16 0.000000 0.538965 0.779076
#
# Coordination Sequence:
#
# PCOD9479025 Si02
#       7
#    16  16  16  16  16  16  16
#     4  11  22  36  56  92 123 147 194 256 305 343
#     4  11  21  36  59  89 118 149 196 253 300 348
#     4  10  22  39  58  82 117 163 207 238 282 358
#     4   9  18  34  57  84 119 154 191 243 303 368
#     4  10  20  37  57  79 112 161 207 238 284 358
#     4  11  21  38  61  81 113 163 206 232 285 366
#     4   9  18  34  57  85 116 154 194 240 305 368
#
# _framework density 23.654577
#
# number of rings (size 3 to 8) (size 9 to 14) (size 15 to 20)
#    0.000    1.857    2.857    1.714    0.000    4.000 
#    2.571    2.857    0.000    3.429    0.000    0.000 
#    0.000    0.000    0.000    0.000    0.000    0.000 
#
# Total GULP energy -312301.475170 kJ/mol
# GULP energy per Si atom -5576.812057 kJ/mol
# Density = 2.360074 g / cm^3
# Si number density = 23.654577 Si / 1000 Ang^3
#
#
#
# Elastic Constant Matrix: (Units=GPa)
#
#
# Indices 1 2 3 4 5 6 
#
# 1 26.2942 13.5622 8.4741 0.0000 0.0000 0.0000
# 2 13.5622 33.3087 36.2519 0.0000 0.0000 0.0000
# 3 8.4741 36.2519 199.1504 0.0000 0.0000 0.0000
# 4 0.0000 0.0000 0.0000 36.8365 0.0000 0.0000
# 5 0.0000 0.0000 0.0000 0.0000 21.2569 0.0000
# 6 0.0000 0.0000 0.0000 0.0000 0.0000 14.5658
#
#
#
# Elastic Compliance Matrix: (Units=1/GPa)
#
#
# Indices 1 2 3 4 5 6 
#
# 1 0.048722 -0.021925 0.001918 0.000000 0.000000 0.000000
# 2 -0.021925 0.047306 -0.007678 0.000000 0.000000 0.000000
# 3 0.001918 -0.007678 0.006337 0.000000 0.000000 0.000000
# 4 0.000000 0.000000 0.000000 0.027147 0.000000 0.000000
# 5 0.000000 0.000000 0.000000 0.000000 0.047044 0.000000
# 6 0.000000 0.000000 0.000000 0.000000 0.000000 0.068654
#
#
# Mechanical properties :
#
#
# Convention : Reuss Voigt Hill
#
# Bulk Modulus (GPa) = 21.27926 41.70331 31.49128
# Shear Modulus (GPa) = 15.81043 27.89616 21.85329
#
# Velocity S-wave (km/s) = 2.58812 3.43784 3.04279
# Velocity P-wave (km/s) = 4.23634 5.78158 5.06820
#
# Compressibility (1/GPa) = 0.04699412
#
# Stress axis : x y z
#
# Youngs Moduli (GPa) = 20.52459 21.13877 157.79254
#
# Poissons Ratio (x) = 0.46348 -0.30264
# Poissons Ratio (y) = 0.45001 1.21159
# Poissons Ratio (z) = -0.03937 0.16231
#
# Static dielectric constant tensor:
#      x y z
#    x 1.926350 0.000000 0.000000 
#    y 0.000000 1.874500 0.000000 
#    z 0.000000 0.000000 2.022550 
# 
# From -- ./inp_files/14985.got.cif
#   From: 2010.05.17/outbox.cif.g08.bks.cpg/sg64_8_cif.got.tgz:14985.got - 2010.06.03 16:29:19.
