data_PCOD9479762
_publ_section_title
;
Structure prediction by ZEFSAII (Michael W. Deem and Ramdas Pophale) SiO2 
 PCOD9479762
Probable space group: C M C A
;
_chemical_formula_sum "Si O2"
_cell_formula_units_Z 88
_cell_length_a 22.460001
_cell_length_b 15.622229
_cell_length_c 13.345272
_cell_angle_alpha 90.000000
_cell_angle_beta 90.000000
_cell_angle_gamma 90.000000
_cell_volume 4682.526036
_symmetry_space_group_name_H-M "C M C A"
_symmetry_group_IT_number 64
_symmetry_cell_setting 'orthorhombic'
loop_
_space_group_symop_operation_xyz
x,y,z
-x,1/2-y,1/2+z
x,-y,-z
-x,1/2+y,1/2-z
-x,-y,-z
x,1/2+y,1/2-z
-x,y,z
x,1/2-y,1/2+z
1/2+x,1/2+y,z
1/2-x,-y,1/2+z
1/2+x,1/2-y,-z
1/2-x,y,1/2-z
1/2-x,1/2-y,-z
1/2+x,y,1/2-z
1/2-x,1/2+y,z
1/2+x,-y,1/2+z
loop_
_atom_site_type_symbol
_atom_site_label
_atom_site_fract_x
_atom_site_fract_y
_atom_site_fract_z
Si Si1 0.368068 0.899323 0.978489
Si Si2 0.340212 0.000000 0.500000
Si Si3 0.138091 0.244044 0.119152
Si Si4 0.933790 0.293584 0.813954
Si Si5 0.567306 0.134080 0.543563
Si Si6 0.742072 0.876756 0.630842
O O1 0.415688 0.862211 0.898799
O O2 0.304953 0.880912 0.924815
O O3 0.369312 0.840662 0.078870
O O4 0.374866 0.000000 0.000000
O O5 0.385396 0.940284 0.437873
O O6 0.299397 0.947367 0.576729
O O7 0.114869 0.218577 0.228339
O O8 0.206124 0.211716 0.113014
O O9 0.096259 0.187348 0.047114
O O10 0.935623 0.201607 0.867286
O O11 0.000000 0.313108 0.774023
O O12 0.500000 0.105042 0.521564
O O13 0.750000 0.890636 0.750000
#
# Coordination Sequence:
#
# PCOD9479762 Si02
#       6
#    16   8  16  16  16  16
#     4  11  23  41  63  94 127 161 207 266 313 367
#     4  10  21  36  58  90 121 154 202 252 304 358
#     4  10  21  38  63  84 120 164 206 248 308 370
#     4  10  21  40  63  89 119 163 209 247 308 378
#     4   9  19  36  59  85 119 155 199 250 300 360
#     4  11  21  39  61  87 123 165 208 249 309 375
#
# _framework density 18.793275000000001
#
# number of rings (size 3 to 8) (size 9 to 14) (size 15 to 20)
#    0.000    1.818    2.727    1.364    0.000    2.545 
#    0.000    0.909    0.000    0.000    0.000    0.000 
#    0.000    0.000    0.000    0.000    0.000    0.000 
#
# Total GULP energy -245304.712345 kJ/mol
# GULP energy per Si atom -5575.107099 kJ/mol
# Density = 1.875050 g / cm^3
# Si number density = 18.793275 Si / 1000 Ang^3
#
#
#
# Elastic Constant Matrix: (Units=GPa)
#
#
# Indices 1 2 3 4 5 6 
#
# 1 77.1042 13.7372 -6.7012 0.0000 0.0000 0.0000
# 2 13.7372 91.1445 14.7013 0.0000 0.0000 0.0000
# 3 -6.7012 14.7013 45.8804 0.0000 0.0000 0.0000
# 4 0.0000 0.0000 0.0000 10.1952 0.0000 0.0000
# 5 0.0000 0.0000 0.0000 0.0000 16.2009 0.0000
# 6 0.0000 0.0000 0.0000 0.0000 0.0000 22.8055
#
#
#
# Elastic Compliance Matrix: (Units=1/GPa)
#
#
# Indices 1 2 3 4 5 6 
#
# 1 0.013660 -0.002510 0.002800 0.000000 0.000000 0.000000
# 2 -0.002510 0.012031 -0.004222 0.000000 0.000000 0.000000
# 3 0.002800 -0.004222 0.023557 0.000000 0.000000 0.000000
# 4 0.000000 0.000000 0.000000 0.098085 0.000000 0.000000
# 5 0.000000 0.000000 0.000000 0.000000 0.061725 0.000000
# 6 0.000000 0.000000 0.000000 0.000000 0.000000 0.043849
#
#
# Mechanical properties :
#
#
# Convention : Reuss Voigt Hill
#
# Bulk Modulus (GPa) = 24.16432 28.62264 26.39348
# Shear Modulus (GPa) = 18.21048 22.66645 20.43847
#
# Velocity S-wave (km/s) = 3.11624 3.47665 3.30137
# Velocity P-wave (km/s) = 5.08269 5.60174 5.34852
#
# Compressibility (1/GPa) = 0.04138333
#
# Stress axis : x y z
#
# Youngs Moduli (GPa) = 73.20626 83.11934 42.44946
#
# Poissons Ratio (x) = 0.20866 -0.11884
# Poissons Ratio (y) = 0.18378 0.17921
# Poissons Ratio (z) = -0.20495 0.35090
#
# Static dielectric constant tensor:
#      x y z
#    x 1.693860 0.000000 0.000000 
#    y 0.000000 1.655370 0.000000 
#    z 0.000000 0.000000 1.666360 
# 
# From -- ./inp_files/26202.got.cif
#   From: 2010.05.17/outbox.cif.g08.bks.cpg/sg64_14_cif.got.tgz:26202.got - 2010.06.03 16:29:19.
