data_PCOD9479978
_publ_section_title
;
Structure prediction by ZEFSAII (Michael W. Deem and Ramdas Pophale) SiO2 
 PCOD9479978
Probable space group: C M C A
;
_chemical_formula_sum "Si O2"
_cell_formula_units_Z 112
_cell_length_a 13.397378
_cell_length_b 13.244392
_cell_length_c 28.462366
_cell_angle_alpha 90.000000
_cell_angle_beta 90.000000
_cell_angle_gamma 90.000000
_cell_volume 5050.365809
_symmetry_space_group_name_H-M "C M C A"
_symmetry_group_IT_number 64
_symmetry_cell_setting 'orthorhombic'
loop_
_space_group_symop_operation_xyz
x,y,z
-x,1/2-y,1/2+z
x,-y,-z
-x,1/2+y,1/2-z
-x,-y,-z
x,1/2+y,1/2-z
-x,y,z
x,1/2-y,1/2+z
1/2+x,1/2+y,z
1/2-x,-y,1/2+z
1/2+x,1/2-y,-z
1/2-x,y,1/2-z
1/2-x,1/2-y,-z
1/2+x,y,1/2-z
1/2-x,1/2+y,z
1/2+x,-y,1/2+z
loop_
_atom_site_type_symbol
_atom_site_label
_atom_site_fract_x
_atom_site_fract_y
_atom_site_fract_z
Si Si1 0.880641 0.194703 0.430913
Si Si2 0.618996 0.261942 0.469506
Si Si3 0.719043 0.399140 0.698708
Si Si4 0.716960 0.413601 0.352001
Si Si5 0.618609 0.298050 0.868688
Si Si6 0.286777 0.022472 0.950534
Si Si7 0.384821 0.211802 0.671469
O O1 0.845003 0.257886 0.476977
O O2 0.857894 0.244694 0.380836
O O3 0.000000 0.192792 0.433111
O O4 0.845042 0.079891 0.437295
O O5 0.500000 0.249308 0.469412
O O6 0.652366 0.196663 0.424105
O O7 0.642449 0.380484 0.460563
O O8 0.750000 0.432455 0.750000
O O9 0.667137 0.489042 0.670411
O O10 0.813330 0.363454 0.666442
O O11 0.645976 0.304014 0.704335
O O12 0.642930 0.319179 0.356640
O O13 0.764270 0.444792 0.402311
O O14 0.809734 0.379237 0.320327
O O15 0.500000 0.318409 0.865178
O O16 0.232359 0.000000 0.000000
O O17 0.500000 0.185965 0.673620
#
# Coordination Sequence:
#
# PCOD9479978 Si02
#       7
#    16  16  16  16  16  16  16
#     4   9  15  27  52  83 117 154 190 231 278 334
#     4   8  14  26  49  84 118 150 188 232 281 333
#     4  11  24  42  61  83 112 148 194 245 295 346
#     4  10  21  38  57  87 119 154 190 240 292 340
#     4   9  20  39  62  87 117 150 191 240 289 345
#     4   9  15  27  48  82 116 155 191 231 275 338
#     4  10  22  40  61  86 118 153 191 236 288 349
#
# _framework density 22.17661
#
# number of rings (size 3 to 8) (size 9 to 14) (size 15 to 20)
#    0.000    2.571    1.429    0.429    0.000    6.286 
#    2.571    2.857    0.000    0.429    0.000    0.000 
#    0.000    0.000    0.000    0.000    0.000    0.000 
#
# Total GULP energy -312415.325787 kJ/mol
# GULP energy per Si atom -5578.845103 kJ/mol
# Density = 2.212613 g / cm^3
# Si number density = 22.176610 Si / 1000 Ang^3
#
#
#
# Elastic Constant Matrix: (Units=GPa)
#
#
# Indices 1 2 3 4 5 6 
#
# 1 55.8446 -9.6819 -11.9772 0.0000 0.0000 0.0000
# 2 -9.6819 48.4925 12.2245 0.0000 0.0000 0.0000
# 3 -11.9772 12.2245 77.8084 0.0000 0.0000 0.0000
# 4 0.0000 0.0000 0.0000 19.0064 0.0000 0.0000
# 5 0.0000 0.0000 0.0000 0.0000 17.1563 0.0000
# 6 0.0000 0.0000 0.0000 0.0000 0.0000 6.8167
#
#
#
# Elastic Compliance Matrix: (Units=1/GPa)
#
#
# Indices 1 2 3 4 5 6 
#
# 1 0.018977 0.003178 0.002422 0.000000 0.000000 0.000000
# 2 0.003178 0.022005 -0.002968 0.000000 0.000000 0.000000
# 3 0.002422 -0.002968 0.013691 0.000000 0.000000 0.000000
# 4 0.000000 0.000000 0.000000 0.052614 0.000000 0.000000
# 5 0.000000 0.000000 0.000000 0.000000 0.058288 0.000000
# 6 0.000000 0.000000 0.000000 0.000000 0.000000 0.146699
#
#
# Mechanical properties :
#
#
# Convention : Reuss Voigt Hill
#
# Bulk Modulus (GPa) = 16.68397 18.14183 17.41290
# Shear Modulus (GPa) = 15.29109 21.36790 18.32949
#
# Velocity S-wave (km/s) = 2.62871 3.10745 2.87805
# Velocity P-wave (km/s) = 4.09305 4.59057 4.34893
#
# Compressibility (1/GPa) = 0.05993776
#
# Stress axis : x y z
#
# Youngs Moduli (GPa) = 52.69455 45.44521 73.03982
#
# Poissons Ratio (x) = -0.14444 -0.17689
# Poissons Ratio (y) = -0.16749 0.21677
# Poissons Ratio (z) = -0.12762 0.13488
#
# Static dielectric constant tensor:
#      x y z
#    x 1.786660 0.000000 0.000000 
#    y 0.000000 1.830560 0.000000 
#    z 0.000000 0.000000 1.893310 
# 
# From -- ./inp_files/53377.got.cif
#   From: 2010.05.17/outbox.cif.g08.bks.cpg/sg64_27_cif.got.tgz:53377.got - 2010.06.03 16:29:19.
