data_PCOD9479515
_publ_section_title
;
Structure prediction by ZEFSAII (Michael W. Deem and Ramdas Pophale) SiO2 
 PCOD9479515
Probable space group: C M C A
;
_chemical_formula_sum "Si O2"
_cell_formula_units_Z 80
_cell_length_a 16.870088
_cell_length_b 24.854883
_cell_length_c 9.745915
_cell_angle_alpha 90.000000
_cell_angle_beta 90.000000
_cell_angle_gamma 90.000000
_cell_volume 4086.501761
_symmetry_space_group_name_H-M "C M C A"
_symmetry_group_IT_number 64
_symmetry_cell_setting 'orthorhombic'
loop_
_space_group_symop_operation_xyz
x,y,z
-x,1/2-y,1/2+z
x,-y,-z
-x,1/2+y,1/2-z
-x,-y,-z
x,1/2+y,1/2-z
-x,y,z
x,1/2-y,1/2+z
1/2+x,1/2+y,z
1/2-x,-y,1/2+z
1/2+x,1/2-y,-z
1/2-x,y,1/2-z
1/2-x,1/2-y,-z
1/2+x,y,1/2-z
1/2-x,1/2+y,z
1/2+x,-y,1/2+z
loop_
_atom_site_type_symbol
_atom_site_label
_atom_site_fract_x
_atom_site_fract_y
_atom_site_fract_z
Si Si1 0.405156 0.962410 0.873116
Si Si2 0.810083 0.252444 0.375783
Si Si3 0.324062 0.528194 0.853950
Si Si4 0.095698 0.141279 0.801030
Si Si5 0.095032 0.848883 0.526545
O O1 0.500000 0.960035 0.879225
O O2 0.374054 0.902785 0.900402
O O3 0.380378 0.987860 0.730498
O O4 0.379824 0.000000 0.000000
O O5 0.750000 0.247784 0.250000
O O6 0.750000 0.250000 0.500000
O O7 0.861193 0.306984 0.365571
O O8 0.868441 0.202611 0.400382
O O9 0.250000 0.534724 0.750000
O O10 0.367157 0.586213 0.860573
O O11 0.306286 0.500000 0.000000
O O12 0.112174 0.145328 0.636425
O O13 0.000000 0.141924 0.819035
O O14 0.000000 0.846328 0.537733
#
# Coordination Sequence:
#
# PCOD9479515 Si02
#       5
#    16  16  16  16  16
#     4  10  20  40  69  98 129 172 221 267 328 401
#     4  12  25  43  67  98 136 173 221 279 338 397
#     4  12  27  43  67 100 138 176 220 277 337 400
#     4  11  24  46  72  96 132 178 225 275 336 403
#     4  10  22  42  70  98 134 180 226 273 328 401
#
# _framework density 19.576646
#
# number of rings (size 3 to 8) (size 9 to 14) (size 15 to 20)
#    0.000    1.000    4.000    2.400    0.000    4.000 
#    0.000    2.000    0.000    0.000    0.000    0.000 
#    0.000    0.000    0.000    0.000    0.000    0.000 
#
# Total GULP energy -223425.218626 kJ/mol
# GULP energy per Si atom -5585.630466 kJ/mol
# Density = 1.953209 g / cm^3
# Si number density = 19.576646 Si / 1000 Ang^3
#
#
#
# Elastic Constant Matrix: (Units=GPa)
#
#
# Indices 1 2 3 4 5 6 
#
# 1 81.6192 75.0247 51.0567 0.0000 0.0000 0.0000
# 2 75.0247 212.2637 71.2365 0.0000 0.0000 0.0000
# 3 51.0567 71.2365 121.9607 0.0000 0.0000 0.0000
# 4 0.0000 0.0000 0.0000 32.5366 0.0000 0.0000
# 5 0.0000 0.0000 0.0000 0.0000 31.8342 0.0000
# 6 0.0000 0.0000 0.0000 0.0000 0.0000 10.5995
#
#
#
# Elastic Compliance Matrix: (Units=1/GPa)
#
#
# Indices 1 2 3 4 5 6 
#
# 1 0.020716 -0.005487 -0.005467 0.000000 0.000000 0.000000
# 2 -0.005487 0.007313 -0.001974 0.000000 0.000000 0.000000
# 3 -0.005467 -0.001974 0.011641 0.000000 0.000000 0.000000
# 4 0.000000 0.000000 0.000000 0.030735 0.000000 0.000000
# 5 0.000000 0.000000 0.000000 0.000000 0.031413 0.000000
# 6 0.000000 0.000000 0.000000 0.000000 0.000000 0.094344
#
#
# Mechanical properties :
#
#
# Convention : Reuss Voigt Hill
#
# Bulk Modulus (GPa) = 72.39778 90.05327 81.22552
# Shear Modulus (GPa) = 22.06292 29.56244 25.81268
#
# Velocity S-wave (km/s) = 3.36073 3.89020 3.63512
# Velocity P-wave (km/s) = 7.21951 8.14116 7.69414
#
# Compressibility (1/GPa) = 0.01381258
#
# Stress axis : x y z
#
# Youngs Moduli (GPa) = 48.27199 136.73869 85.89996
#
# Poissons Ratio (x) = 0.75031 0.46964
# Poissons Ratio (y) = 0.26488 0.16961
# Poissons Ratio (z) = 0.26392 0.26999
#
# Static dielectric constant tensor:
#      x y z
#    x 1.779620 0.000000 0.000000 
#    y 0.000000 1.674880 0.000000 
#    z 0.000000 0.000000 1.652590 
# 
# From -- ./inp_files/7103.got.cif
#   From: 2010.05.17/outbox.cif.g08.bks.cpg/sg64_4_cif.got.tgz:7103.got - 2010.06.03 16:29:19.
