data_PCOD9479007
_publ_section_title
;
Structure prediction by ZEFSAII (Michael W. Deem and Ramdas Pophale) SiO2 
 PCOD9479007
Probable space group: C M C A
;
_chemical_formula_sum "Si O2"
_cell_formula_units_Z 104
_cell_length_a 25.635999
_cell_length_b 18.559496
_cell_length_c 12.055178
_cell_angle_alpha 90.000000
_cell_angle_beta 90.000000
_cell_angle_gamma 90.000000
_cell_volume 5735.747859
_symmetry_space_group_name_H-M "C M C A"
_symmetry_group_IT_number 64
_symmetry_cell_setting 'orthorhombic'
loop_
_space_group_symop_operation_xyz
x,y,z
-x,1/2-y,1/2+z
x,-y,-z
-x,1/2+y,1/2-z
-x,-y,-z
x,1/2+y,1/2-z
-x,y,z
x,1/2-y,1/2+z
1/2+x,1/2+y,z
1/2-x,-y,1/2+z
1/2+x,1/2-y,-z
1/2-x,y,1/2-z
1/2-x,1/2-y,-z
1/2+x,y,1/2-z
1/2-x,1/2+y,z
1/2+x,-y,1/2+z
loop_
_atom_site_type_symbol
_atom_site_label
_atom_site_fract_x
_atom_site_fract_y
_atom_site_fract_z
Si Si1 0.651023 0.105908 0.439618
Si Si2 0.256162 0.827135 0.442437
Si Si3 0.586542 0.772829 0.680247
Si Si4 0.386613 0.466566 0.164713
Si Si5 0.000000 0.832170 0.417617
Si Si6 0.830431 0.657577 0.771879
Si Si7 0.000000 0.857577 0.678828
Si Si8 0.000000 0.975145 0.263159
O O1 0.711121 0.123022 0.471486
O O2 0.620058 0.175982 0.399933
O O3 0.623630 0.075417 0.550039
O O4 0.641419 0.043503 0.349414
O O5 0.250000 0.750000 0.500000
O O6 0.200054 0.844409 0.388715
O O7 0.292070 0.829917 0.332260
O O8 0.549202 0.716606 0.617502
O O9 0.628423 0.721986 0.739151
O O10 0.550047 0.821625 0.759631
O O11 0.359270 0.418078 0.256953
O O12 0.447560 0.470913 0.190314
O O13 0.000000 0.841131 0.549031
O O14 0.000000 0.908466 0.350850
O O15 0.000000 0.944021 0.688567
#
# Coordination Sequence:
#
# PCOD9479007 Si02
#       8
#    16  16  16  16   8  16   8   8
#     4  10  21  38  63  91 121 159 208 258 309 367
#     4  10  20  36  66  89 117 154 206 254 312 365
#     4  11  22  39  61  93 121 159 209 259 303 364
#     4  10  22  38  64  88 128 165 204 255 308 372
#     4  11  26  37  61  89 128 165 206 249 316 367
#     4  10  21  38  63  89 122 160 202 258 311 362
#     4  11  26  38  58  90 130 161 206 255 299 387
#     4  12  21  42  60  89 124 180 202 242 320 379
#
# _framework density 18.131899000000001
#
# number of rings (size 3 to 8) (size 9 to 14) (size 15 to 20)
#    0.000    1.538    4.615    0.231    4.308    2.462 
#    0.000    0.000   23.692    1.846    0.000    0.000 
#    0.000    0.000    0.000    0.000    0.000    0.000 
#
# Total GULP energy -289793.721541 kJ/mol
# GULP energy per Si atom -5572.956183 kJ/mol
# Density = 1.809063 g / cm^3
# Si number density = 18.131899 Si / 1000 Ang^3
#
#
#
# Elastic Constant Matrix: (Units=GPa)
#
#
# Indices 1 2 3 4 5 6 
#
# 1 76.7065 50.8415 16.3456 0.0000 0.0000 0.0000
# 2 50.8415 133.6993 40.1582 0.0000 0.0000 0.0000
# 3 16.3456 40.1582 38.8239 0.0000 0.0000 0.0000
# 4 0.0000 0.0000 0.0000 19.2447 0.0000 0.0000
# 5 0.0000 0.0000 0.0000 0.0000 13.7996 0.0000
# 6 0.0000 0.0000 0.0000 0.0000 0.0000 27.1000
#
#
#
# Elastic Compliance Matrix: (Units=1/GPa)
#
#
# Indices 1 2 3 4 5 6 
#
# 1 0.017443 -0.006423 -0.000700 0.000000 0.000000 0.000000
# 2 -0.006423 0.013215 -0.010966 0.000000 0.000000 0.000000
# 3 -0.000700 -0.010966 0.037395 0.000000 0.000000 0.000000
# 4 0.000000 0.000000 0.000000 0.051962 0.000000 0.000000
# 5 0.000000 0.000000 0.000000 0.000000 0.072466 0.000000
# 6 0.000000 0.000000 0.000000 0.000000 0.000000 0.036900
#
#
# Mechanical properties :
#
#
# Convention : Reuss Voigt Hill
#
# Bulk Modulus (GPa) = 31.37181 51.54669 41.45925
# Shear Modulus (GPa) = 18.10386 21.48782 19.79584
#
# Velocity S-wave (km/s) = 3.16326 3.44624 3.30778
# Velocity P-wave (km/s) = 5.53906 6.65777 6.12401
#
# Compressibility (1/GPa) = 0.03187575
#
# Stress axis : x y z
#
# Youngs Moduli (GPa) = 57.32998 75.66928 26.74176
#
# Poissons Ratio (x) = 0.48599 0.01873
# Poissons Ratio (y) = 0.36821 0.29324
# Poissons Ratio (z) = 0.04016 0.82976
#
# Static dielectric constant tensor:
#      x y z
#    x 1.635470 0.000000 0.000000 
#    y 0.000000 1.632040 0.000000 
#    z 0.000000 0.000000 1.622690 
# 
# From -- ./inp_files/19234.got.cif
#   From: 2010.05.17/outbox.cif.g08.bks.cpg/sg64_10_cif.got.tgz:19234.got - 2010.06.03 16:29:19.
