data_PCOD9479126
_publ_section_title
;
Structure prediction by ZEFSAII (Michael W. Deem and Ramdas Pophale) SiO2 
 PCOD9479126
Probable space group: C M C A
;
_chemical_formula_sum "Si O2"
_cell_formula_units_Z 64
_cell_length_a 11.391294
_cell_length_b 23.814033
_cell_length_c 9.361124
_cell_angle_alpha 90.000000
_cell_angle_beta 90.000000
_cell_angle_gamma 90.000000
_cell_volume 2539.416926
_symmetry_space_group_name_H-M "C M C A"
_symmetry_group_IT_number 64
_symmetry_cell_setting 'orthorhombic'
loop_
_space_group_symop_operation_xyz
x,y,z
-x,1/2-y,1/2+z
x,-y,-z
-x,1/2+y,1/2-z
-x,-y,-z
x,1/2+y,1/2-z
-x,y,z
x,1/2-y,1/2+z
1/2+x,1/2+y,z
1/2-x,-y,1/2+z
1/2+x,1/2-y,-z
1/2-x,y,1/2-z
1/2-x,1/2-y,-z
1/2+x,y,1/2-z
1/2-x,1/2+y,z
1/2+x,-y,1/2+z
loop_
_atom_site_type_symbol
_atom_site_label
_atom_site_fract_x
_atom_site_fract_y
_atom_site_fract_z
Si Si1 0.125114 0.674934 0.751524
Si Si2 0.000000 0.060673 0.425058
Si Si3 0.749994 0.893106 0.591061
Si Si4 0.374136 0.715106 0.066160
Si Si5 0.500000 0.940214 0.574729
O O1 0.250000 0.643299 0.750000
O O2 0.120369 0.710317 0.604244
O O3 0.132153 0.722801 0.872469
O O4 0.000000 0.644556 0.762288
O O5 0.122494 0.091298 0.468851
O O6 0.000000 0.057756 0.249649
O O7 0.000000 0.000000 0.500000
O O8 0.750000 0.918442 0.750000
O O9 0.729894 0.826670 0.605023
O O10 0.624738 0.912578 0.525993
O O11 0.500000 0.692057 0.123222
O O12 0.500000 0.000000 0.500000
#
# Coordination Sequence:
#
# PCOD9479126 Si02
#       5
#    16   8  16  16   8
#     4  10  21  37  57  82 116 158 203 251 295 347
#     4  10  22  40  62  94 122 150 196 250 306 360
#     4  10  20  37  62  90 120 156 204 243 291 369
#     4  10  20  38  61  86 118 162 210 247 293 350
#     4  10  20  38  66  88 116 158 192 242 306 370
#
# _framework density 25.202635999999998
#
# number of rings (size 3 to 8) (size 9 to 14) (size 15 to 20)
#    0.000    2.000    1.250    2.250    0.000    0.000 
#    4.500    2.500    0.000    0.000    0.000    0.000 
#    0.000    0.000    0.000    0.000    0.000    0.000 
#
# Total GULP energy -178578.409337 kJ/mol
# GULP energy per Si atom -5580.575292 kJ/mol
# Density = 2.514527 g / cm^3
# Si number density = 25.202636 Si / 1000 Ang^3
#
#
#
# Elastic Constant Matrix: (Units=GPa)
#
#
# Indices 1 2 3 4 5 6 
#
# 1 318.8454 66.2399 31.0177 0.0000 0.0000 0.0000
# 2 66.2399 43.7752 3.8211 0.0000 0.0000 0.0000
# 3 31.0177 3.8211 94.7730 0.0000 0.0000 0.0000
# 4 0.0000 0.0000 0.0000 30.0214 0.0000 0.0000
# 5 0.0000 0.0000 0.0000 0.0000 30.5625 0.0000
# 6 0.0000 0.0000 0.0000 0.0000 0.0000 44.4062
#
#
#
# Elastic Compliance Matrix: (Units=1/GPa)
#
#
# Indices 1 2 3 4 5 6 
#
# 1 0.004720 -0.007032 -0.001261 0.000000 0.000000 0.000000
# 2 -0.007032 0.033401 0.000955 0.000000 0.000000 0.000000
# 3 -0.001261 0.000955 0.010926 0.000000 0.000000 0.000000
# 4 0.000000 0.000000 0.000000 0.033310 0.000000 0.000000
# 5 0.000000 0.000000 0.000000 0.000000 0.032720 0.000000
# 6 0.000000 0.000000 0.000000 0.000000 0.000000 0.022519
#
#
# Mechanical properties :
#
#
# Convention : Reuss Voigt Hill
#
# Bulk Modulus (GPa) = 29.09502 73.28344 51.18923
# Shear Modulus (GPa) = 30.53818 44.75233 37.64525
#
# Velocity S-wave (km/s) = 3.48473 4.21848 3.86904
# Velocity P-wave (km/s) = 5.26884 7.27105 6.34936
#
# Compressibility (1/GPa) = 0.03437015
#
# Stress axis : x y z
#
# Youngs Moduli (GPa) = 211.86897 29.93893 91.52633
#
# Poissons Ratio (x) = 0.21053 0.11544
# Poissons Ratio (y) = 1.48986 -0.08739
# Poissons Ratio (z) = 0.26722 -0.02858
#
# Static dielectric constant tensor:
#      x y z
#    x 2.132330 0.000000 0.000000 
#    y 0.000000 1.953510 0.000000 
#    z 0.000000 0.000000 2.061750 
# 
# From -- ./inp_files/4636.got.cif
#   From: 2010.05.17/outbox.cif.g08.bks.cpg/sg64_3_cif.got.tgz:4636.got - 2010.06.03 16:29:19.
