data_PCOD9479772
_publ_section_title
;
Structure prediction by ZEFSAII (Michael W. Deem and Ramdas Pophale) SiO2 
 PCOD9479772
Probable space group: C M C A
;
_chemical_formula_sum "Si O2"
_cell_formula_units_Z 116
_cell_length_a 26.410495
_cell_length_b 19.083382
_cell_length_c 12.069360
_cell_angle_alpha 90.000000
_cell_angle_beta 90.000000
_cell_angle_gamma 90.000000
_cell_volume 6082.976327
_symmetry_space_group_name_H-M "C M C A"
_symmetry_group_IT_number 64
_symmetry_cell_setting 'orthorhombic'
loop_
_space_group_symop_operation_xyz
x,y,z
-x,1/2-y,1/2+z
x,-y,-z
-x,1/2+y,1/2-z
-x,-y,-z
x,1/2+y,1/2-z
-x,y,z
x,1/2-y,1/2+z
1/2+x,1/2+y,z
1/2-x,-y,1/2+z
1/2+x,1/2-y,-z
1/2-x,y,1/2-z
1/2-x,1/2-y,-z
1/2+x,y,1/2-z
1/2-x,1/2+y,z
1/2+x,-y,1/2+z
loop_
_atom_site_type_symbol
_atom_site_label
_atom_site_fract_x
_atom_site_fract_y
_atom_site_fract_z
Si Si1 0.057045 0.713548 0.752045
Si Si2 0.886927 0.332395 0.042585
Si Si3 0.797750 0.440893 0.411441
Si Si4 0.559215 0.129635 0.345281
Si Si5 0.126410 0.678698 0.544921
Si Si6 0.318589 0.053612 0.848376
Si Si7 0.000000 0.000000 0.500000
Si Si8 0.092899 0.447413 0.862502
O O1 0.067280 0.678165 0.870994
O O2 0.062049 0.796081 0.779320
O O3 0.097568 0.688240 0.661952
O O4 0.000000 0.700051 0.712367
O O5 0.845523 0.376031 0.109833
O O6 0.867020 0.256953 0.003506
O O7 0.904479 0.377930 0.938279
O O8 0.814117 0.500000 0.500000
O O9 0.822631 0.366734 0.445707
O O10 0.736967 0.445336 0.401520
O O11 0.815015 0.451154 0.284570
O O12 0.500000 0.114710 0.363542
O O13 0.589145 0.139567 0.459111
O O14 0.584416 0.073363 0.264446
O O15 0.355460 0.989786 0.879501
O O16 0.044896 0.009722 0.406042
#
# Coordination Sequence:
#
# PCOD9479772 Si02
#       8
#    16  16  16  16  16  16   4  16
#     4  10  21  36  59  93 130 169 206 255 322 379
#     4  11  22  38  64  92 129 163 211 271 316 378
#     4  11  24  45  67  90 121 171 219 262 330 384
#     4  10  21  36  60  93 132 170 209 256 313 386
#     4  11  22  40  64  90 127 171 216 264 318 384
#     4  11  24  43  67  92 127 163 212 275 322 382
#     4  12  24  32  64  92 130 172 202 260 316 380
#     4  12  22  39  61  99 131 166 213 265 323 377
#
# _framework density 19.069613
#
# number of rings (size 3 to 8) (size 9 to 14) (size 15 to 20)
#    0.000    1.103    4.828    2.069    0.966    1.103 
#    0.000    0.000    0.000    3.310    0.000    0.000 
#    0.000    0.000    0.000    0.000    0.000    0.000 
#
# Total GULP energy -323277.719546 kJ/mol
# GULP energy per Si atom -5573.753785 kJ/mol
# Density = 1.902621 g / cm^3
# Si number density = 19.069613 Si / 1000 Ang^3
#
#
#
# Elastic Constant Matrix: (Units=GPa)
#
#
# Indices 1 2 3 4 5 6 
#
# 1 70.0243 20.5976 23.3388 0.0000 0.0000 0.0000
# 2 20.5976 58.6581 20.3521 0.0000 0.0000 0.0000
# 3 23.3388 20.3521 85.4633 0.0000 0.0000 0.0000
# 4 0.0000 0.0000 0.0000 32.0845 0.0000 0.0000
# 5 0.0000 0.0000 0.0000 0.0000 24.7992 0.0000
# 6 0.0000 0.0000 0.0000 0.0000 0.0000 -15.9171
#
#
#
# Elastic Compliance Matrix: (Units=1/GPa)
#
#
# Indices 1 2 3 4 5 6 
#
# 1 0.016822 -0.004701 -0.003474 0.000000 0.000000 0.000000
# 2 -0.004701 0.019897 -0.003454 0.000000 0.000000 0.000000
# 3 -0.003474 -0.003454 0.013472 0.000000 0.000000 0.000000
# 4 0.000000 0.000000 0.000000 0.031168 0.000000 0.000000
# 5 0.000000 0.000000 0.000000 0.000000 0.040324 0.000000
# 6 0.000000 0.000000 0.000000 0.000000 0.000000 -0.062825
#
#
# Mechanical properties :
#
#
# Convention : Reuss Voigt Hill
#
# Bulk Modulus (GPa) = 37.13162 38.08031 37.60596
# Shear Modulus (GPa) = 54.88803 18.18380 36.53591
#
# Velocity S-wave (km/s) = 5.37080 3.09131 4.38187
# Velocity P-wave (km/s) = 7.61410 5.72311 6.73530
#
# Compressibility (1/GPa) = 0.02693123
#
# Stress axis : x y z
#
# Youngs Moduli (GPa) = 59.44739 50.25780 74.22639
#
# Poissons Ratio (x) = 0.23629 0.25787
# Poissons Ratio (y) = 0.27949 0.25641
# Poissons Ratio (z) = 0.20653 0.17361
#
# Static dielectric constant tensor:
#      x y z
#    x 1.632940 0.000000 0.000000 
#    y 0.000000 1.681640 0.000000 
#    z 0.000000 0.000000 1.669470 
# 
# From -- ./inp_files/19255.got.cif
#   From: 2010.05.17/outbox.cif.g08.bks.cpg/sg64_10_cif.got.tgz:19255.got - 2010.06.03 16:29:19.
