data_PCOD9479848
_publ_section_title
;
Structure prediction by ZEFSAII (Michael W. Deem and Ramdas Pophale) SiO2 
 PCOD9479848
Probable space group: C M C A
;
_chemical_formula_sum "Si O2"
_cell_formula_units_Z 88
_cell_length_a 14.118840
_cell_length_b 12.061467
_cell_length_c 26.283187
_cell_angle_alpha 90.000000
_cell_angle_beta 90.000000
_cell_angle_gamma 90.000000
_cell_volume 4475.867016
_symmetry_space_group_name_H-M "C M C A"
_symmetry_group_IT_number 64
_symmetry_cell_setting 'orthorhombic'
loop_
_space_group_symop_operation_xyz
x,y,z
-x,1/2-y,1/2+z
x,-y,-z
-x,1/2+y,1/2-z
-x,-y,-z
x,1/2+y,1/2-z
-x,y,z
x,1/2-y,1/2+z
1/2+x,1/2+y,z
1/2-x,-y,1/2+z
1/2+x,1/2-y,-z
1/2-x,y,1/2-z
1/2-x,1/2-y,-z
1/2+x,y,1/2-z
1/2-x,1/2+y,z
1/2+x,-y,1/2+z
loop_
_atom_site_type_symbol
_atom_site_label
_atom_site_fract_x
_atom_site_fract_y
_atom_site_fract_z
Si Si1 0.695034 0.097719 0.959931
Si Si2 0.387631 0.667733 0.009462
Si Si3 0.395507 0.479143 0.891906
Si Si4 0.607332 0.217647 0.309542
Si Si5 0.250000 0.416736 0.750000
Si Si6 0.278232 0.927498 0.153119
O O1 0.632963 0.207665 0.970590
O O2 0.677185 0.051018 0.902994
O O3 0.804474 0.140835 0.968755
O O4 0.676093 0.000000 0.000000
O O5 0.500000 0.658340 0.996473
O O6 0.368457 0.579185 0.054833
O O7 0.500000 0.523937 0.897875
O O8 0.396420 0.374373 0.853717
O O9 0.330827 0.569205 0.864277
O O10 0.500000 0.254387 0.298815
O O11 0.659996 0.158511 0.263299
O O12 0.674137 0.316183 0.327848
O O13 0.279345 0.488281 0.700514
#
# Coordination Sequence:
#
# PCOD9479848 Si02
#       6
#    16  16  16  16   8  16
#     4  11  22  36  61  92 126 168 207 258 309 374
#     4  10  21  37  57  89 129 171 210 251 306 366
#     4   9  18  35  60  88 122 162 206 249 299 365
#     4  10  21  40  63  87 120 162 199 245 313 371
#     4  10  24  40  62  90 120 158 206 266 300 372
#     4  11  21  38  63  92 122 158 211 260 315 363
#
# _framework density 19.660995
#
# number of rings (size 3 to 8) (size 9 to 14) (size 15 to 20)
#    0.000    1.818    3.636    0.545    0.000    2.182 
#    0.000    4.545    0.000    5.455    0.000    0.000 
#    0.000    0.000    0.000    0.000    0.000    0.000 
#
# Total GULP energy -245065.316448 kJ/mol
# GULP energy per Si atom -5569.666283 kJ/mol
# Density = 1.961625 g / cm^3
# Si number density = 19.660995 Si / 1000 Ang^3
#
#
#
# Elastic Constant Matrix: (Units=GPa)
#
#
# Indices 1 2 3 4 5 6 
#
# 1 114.5281 63.6739 45.5013 0.0000 0.0000 0.0000
# 2 63.6739 75.7913 50.3084 0.0000 0.0000 0.0000
# 3 45.5013 50.3084 139.8062 0.0000 0.0000 0.0000
# 4 0.0000 0.0000 0.0000 14.0394 0.0000 0.0000
# 5 0.0000 0.0000 0.0000 0.0000 15.4340 0.0000
# 6 0.0000 0.0000 0.0000 0.0000 0.0000 31.3491
#
#
#
# Elastic Compliance Matrix: (Units=1/GPa)
#
#
# Indices 1 2 3 4 5 6 
#
# 1 0.016411 -0.013456 -0.000499 0.000000 0.000000 0.000000
# 2 -0.013456 0.028367 -0.005829 0.000000 0.000000 0.000000
# 3 -0.000499 -0.005829 0.009413 0.000000 0.000000 0.000000
# 4 0.000000 0.000000 0.000000 0.071228 0.000000 0.000000
# 5 0.000000 0.000000 0.000000 0.000000 0.064792 0.000000
# 6 0.000000 0.000000 0.000000 0.000000 0.000000 0.031899
#
#
# Mechanical properties :
#
#
# Convention : Reuss Voigt Hill
#
# Bulk Modulus (GPa) = 68.38071 72.12141 70.25106
# Shear Modulus (GPa) = 18.75815 23.54064 21.14940
#
# Velocity S-wave (km/s) = 3.09217 3.46400 3.28335
# Velocity P-wave (km/s) = 6.89957 7.26369 7.08397
#
# Compressibility (1/GPa) = 0.01462401
#
# Stress axis : x y z
#
# Youngs Moduli (GPa) = 60.93585 35.25173 106.24111
#
# Poissons Ratio (x) = 0.47434 0.05302
# Poissons Ratio (y) = 0.81994 0.61923
# Poissons Ratio (z) = 0.03041 0.20547
#
# Static dielectric constant tensor:
#      x y z
#    x 1.739320 0.000000 0.000000 
#    y 0.000000 1.695030 0.000000 
#    z 0.000000 0.000000 1.726600 
# 
# From -- ./inp_files/49936.got.cif
#   From: 2010.05.17/outbox.cif.g08.bks.cpg/sg64_25_cif.got.tgz:49936.got - 2010.06.03 16:29:19.
