data_PCOD9479232
_publ_section_title
;
Structure prediction by ZEFSAII (Michael W. Deem and Ramdas Pophale) SiO2 
 PCOD9479232
Probable space group: C M C A
;
_chemical_formula_sum "Si O2"
_cell_formula_units_Z 80
_cell_length_a 17.065191
_cell_length_b 23.687745
_cell_length_c 8.106204
_cell_angle_alpha 90.000000
_cell_angle_beta 90.000000
_cell_angle_gamma 90.000000
_cell_volume 3276.818611
_symmetry_space_group_name_H-M "C M C A"
_symmetry_group_IT_number 64
_symmetry_cell_setting 'orthorhombic'
loop_
_space_group_symop_operation_xyz
x,y,z
-x,1/2-y,1/2+z
x,-y,-z
-x,1/2+y,1/2-z
-x,-y,-z
x,1/2+y,1/2-z
-x,y,z
x,1/2-y,1/2+z
1/2+x,1/2+y,z
1/2-x,-y,1/2+z
1/2+x,1/2-y,-z
1/2-x,y,1/2-z
1/2-x,1/2-y,-z
1/2+x,y,1/2-z
1/2-x,1/2+y,z
1/2+x,-y,1/2+z
loop_
_atom_site_type_symbol
_atom_site_label
_atom_site_fract_x
_atom_site_fract_y
_atom_site_fract_z
Si Si1 0.589450 0.366410 0.990469
Si Si2 0.909211 0.064892 0.350252
Si Si3 0.828856 0.464787 0.329500
Si Si4 0.663834 0.225863 0.675153
Si Si5 0.092458 0.672470 0.990509
O O1 0.500000 0.346103 0.011521
O O2 0.610541 0.416501 0.117602
O O3 0.650605 0.316189 0.020626
O O4 0.594796 0.395413 0.812547
O O5 0.880888 0.107525 0.491770
O O6 0.000000 0.050222 0.377511
O O7 0.862835 0.009292 0.302020
O O8 0.813091 0.500000 0.500000
O O9 0.750000 0.440768 0.250000
O O10 0.750000 0.224647 0.750000
O O11 0.637674 0.287096 0.616681
O O12 0.607537 0.199120 0.812878
O O13 0.000000 0.673498 0.028054
#
# Coordination Sequence:
#
# PCOD9479232 Si02
#       5
#    16  16  16  16  16
#     4  10  20  38  61  84 115 156 200 242 289 350
#     4   9  20  38  61  86 113 151 198 243 287 345
#     4  10  21  36  57  85 118 154 192 239 295 350
#     4  12  25  40  60  89 122 154 194 246 302 352
#     4  11  23  41  63  87 117 156 200 242 292 356
#
# _framework density 24.413924999999999
#
# number of rings (size 3 to 8) (size 9 to 14) (size 15 to 20)
#    0.000    1.600    0.000    4.800    0.000    9.600 
#    0.000    0.000    0.000    4.800    0.000    0.000 
#    0.000    0.000    0.000    0.000    0.000    0.000 
#
# Total GULP energy -224149.880892 kJ/mol
# GULP energy per Si atom -5603.747022 kJ/mol
# Density = 2.435836 g / cm^3
# Si number density = 24.413925 Si / 1000 Ang^3
#
#
#
# Elastic Constant Matrix: (Units=GPa)
#
#
# Indices 1 2 3 4 5 6 
#
# 1 83.7039 20.8989 1.5884 0.0000 0.0000 0.0000
# 2 20.8989 101.2051 19.5143 0.0000 0.0000 0.0000
# 3 1.5884 19.5143 80.8543 0.0000 0.0000 0.0000
# 4 0.0000 0.0000 0.0000 47.6196 0.0000 0.0000
# 5 0.0000 0.0000 0.0000 0.0000 22.3280 0.0000
# 6 0.0000 0.0000 0.0000 0.0000 0.0000 54.2185
#
#
#
# Elastic Compliance Matrix: (Units=1/GPa)
#
#
# Indices 1 2 3 4 5 6 
#
# 1 0.012609 -0.002681 0.000399 0.000000 0.000000 0.000000
# 2 -0.002681 0.010933 -0.002586 0.000000 0.000000 0.000000
# 3 0.000399 -0.002586 0.012984 0.000000 0.000000 0.000000
# 4 0.000000 0.000000 0.000000 0.021000 0.000000 0.000000
# 5 0.000000 0.000000 0.000000 0.000000 0.044787 0.000000
# 6 0.000000 0.000000 0.000000 0.000000 0.000000 0.018444
#
#
# Mechanical properties :
#
#
# Convention : Reuss Voigt Hill
#
# Bulk Modulus (GPa) = 37.32589 38.86295 38.09442
# Shear Modulus (GPa) = 35.86244 39.75067 37.80656
#
# Velocity S-wave (km/s) = 3.83683 4.03947 3.93945
# Velocity P-wave (km/s) = 5.91187 6.14079 6.02742
#
# Compressibility (1/GPa) = 0.02679106
#
# Stress axis : x y z
#
# Youngs Moduli (GPa) = 79.31095 91.46509 77.01652
#
# Poissons Ratio (x) = 0.24519 -0.03075
# Poissons Ratio (y) = 0.21261 0.19917
# Poissons Ratio (z) = -0.03167 0.23653
#
# Static dielectric constant tensor:
#      x y z
#    x 1.850230 0.000000 0.000000 
#    y 0.000000 1.904320 0.000000 
#    z 0.000000 0.000000 2.010090 
# 
# From -- ./inp_files/7046.got.cif
#   From: 2010.05.17/outbox.cif.g08.bks.cpg/sg64_4_cif.got.tgz:7046.got - 2010.06.03 16:29:19.
