data_PCOD9479787
_publ_section_title
;
Structure prediction by ZEFSAII (Michael W. Deem and Ramdas Pophale) SiO2 
 PCOD9479787
Probable space group: C M C A
;
_chemical_formula_sum "Si O2"
_cell_formula_units_Z 112
_cell_length_a 18.642174
_cell_length_b 22.613196
_cell_length_c 13.502410
_cell_angle_alpha 90.000000
_cell_angle_beta 90.000000
_cell_angle_gamma 90.000000
_cell_volume 5692.064274
_symmetry_space_group_name_H-M "C M C A"
_symmetry_group_IT_number 64
_symmetry_cell_setting 'orthorhombic'
loop_
_space_group_symop_operation_xyz
x,y,z
-x,1/2-y,1/2+z
x,-y,-z
-x,1/2+y,1/2-z
-x,-y,-z
x,1/2+y,1/2-z
-x,y,z
x,1/2-y,1/2+z
1/2+x,1/2+y,z
1/2-x,-y,1/2+z
1/2+x,1/2-y,-z
1/2-x,y,1/2-z
1/2-x,1/2-y,-z
1/2+x,y,1/2-z
1/2-x,1/2+y,z
1/2+x,-y,1/2+z
loop_
_atom_site_type_symbol
_atom_site_label
_atom_site_fract_x
_atom_site_fract_y
_atom_site_fract_z
Si Si1 0.914695 0.458832 0.227438
Si Si2 0.821836 0.178761 0.192911
Si Si3 0.586016 0.091256 0.174303
Si Si4 0.076368 0.283616 0.151698
Si Si5 0.780908 0.817606 0.014671
Si Si6 0.360562 0.113449 0.955442
Si Si7 0.582222 0.647344 0.859968
O O1 0.902401 0.528667 0.229489
O O2 0.875014 0.433374 0.130979
O O3 0.897894 0.419487 0.324590
O O4 0.000000 0.449504 0.210599
O O5 0.750000 0.195195 0.250000
O O6 0.873885 0.141159 0.262170
O O7 0.862204 0.236396 0.155802
O O8 0.796628 0.150626 0.090368
O O9 0.500000 0.101081 0.166362
O O10 0.620958 0.090153 0.064621
O O11 0.086577 0.331462 0.066360
O O12 0.078751 0.318118 0.255619
O O13 0.000000 0.253014 0.141234
O O14 0.717204 0.857053 0.059425
O O15 0.855062 0.822563 0.075793
O O16 0.750000 0.750000 0.000000
O O17 0.500000 0.648354 0.901400
#
# Coordination Sequence:
#
# PCOD9479787 Si02
#       7
#    16  16  16  16  16  16  16
#     4   9  20  42  67  93 124 161 213 264 307 364
#     4  12  24  41  57  85 129 162 206 256 312 378
#     4  11  23  41  65  91 125 166 205 260 318 365
#     4  10  21  36  61  91 121 160 209 257 304 372
#     4  12  24  42  60  90 129 168 201 250 318 376
#     4  11  21  38  63  96 126 161 207 256 315 369
#     4   9  21  41  64  91 120 161 214 258 302 368
#
# _framework density 19.676517
#
# number of rings (size 3 to 8) (size 9 to 14) (size 15 to 20)
#    0.000    1.429    2.857    3.857    0.000    4.000 
#    2.571    0.714    0.000    2.571    0.000    0.000 
#    0.000    0.000    0.000    0.000    0.000    0.000 
#
# Total GULP energy -312332.464490 kJ/mol
# GULP energy per Si atom -5577.365437 kJ/mol
# Density = 1.963173 g / cm^3
# Si number density = 19.676517 Si / 1000 Ang^3
#
#
#
# Elastic Constant Matrix: (Units=GPa)
#
#
# Indices 1 2 3 4 5 6 
#
# 1 110.1632 31.5394 22.3243 0.0000 0.0000 0.0000
# 2 31.5394 54.5461 -2.0056 0.0000 0.0000 0.0000
# 3 22.3243 -2.0056 49.6862 0.0000 0.0000 0.0000
# 4 0.0000 0.0000 0.0000 22.3371 0.0000 0.0000
# 5 0.0000 0.0000 0.0000 0.0000 18.6601 0.0000
# 6 0.0000 0.0000 0.0000 0.0000 0.0000 22.0747
#
#
#
# Elastic Compliance Matrix: (Units=1/GPa)
#
#
# Indices 1 2 3 4 5 6 
#
# 1 0.012375 -0.007371 -0.005857 0.000000 0.000000 0.000000
# 2 -0.007371 0.022750 0.004230 0.000000 0.000000 0.000000
# 3 -0.005857 0.004230 0.022929 0.000000 0.000000 0.000000
# 4 0.000000 0.000000 0.000000 0.044769 0.000000 0.000000
# 5 0.000000 0.000000 0.000000 0.000000 0.053590 0.000000
# 6 0.000000 0.000000 0.000000 0.000000 0.000000 0.045301
#
#
# Mechanical properties :
#
#
# Convention : Reuss Voigt Hill
#
# Bulk Modulus (GPa) = 24.96401 35.34576 30.15488
# Shear Modulus (GPa) = 21.45348 23.45020 22.45184
#
# Velocity S-wave (km/s) = 3.30556 3.45597 3.38160
# Velocity P-wave (km/s) = 5.22339 5.82472 5.53223
#
# Compressibility (1/GPa) = 0.04005767
#
# Stress axis : x y z
#
# Youngs Moduli (GPa) = 80.81061 43.95525 43.61320
#
# Poissons Ratio (x) = 0.32397 0.25546
# Poissons Ratio (y) = 0.59562 -0.18448
# Poissons Ratio (z) = 0.47335 -0.18593
#
# Static dielectric constant tensor:
#      x y z
#    x 1.735000 0.000000 0.000000 
#    y 0.000000 2.124980 0.000000 
#    z 0.000000 0.000000 1.720120 
# 
# From -- ./inp_files/24237.got.cif
#   From: 2010.05.17/outbox.cif.g08.bks.cpg/sg64_13_cif.got.tgz:24237.got - 2010.06.03 16:29:19.
