data_PCOD9479691
_publ_section_title
;
Structure prediction by ZEFSAII (Michael W. Deem and Ramdas Pophale) SiO2 
 PCOD9479691
Probable space group: C M C A
;
_chemical_formula_sum "Si O2"
_cell_formula_units_Z 48
_cell_length_a 5.484855
_cell_length_b 21.052344
_cell_length_c 18.103623
_cell_angle_alpha 90.000000
_cell_angle_beta 90.000000
_cell_angle_gamma 90.000000
_cell_volume 2090.408226
_symmetry_space_group_name_H-M "C M C A"
_symmetry_group_IT_number 64
_symmetry_cell_setting 'orthorhombic'
loop_
_space_group_symop_operation_xyz
x,y,z
-x,1/2-y,1/2+z
x,-y,-z
-x,1/2+y,1/2-z
-x,-y,-z
x,1/2+y,1/2-z
-x,y,z
x,1/2-y,1/2+z
1/2+x,1/2+y,z
1/2-x,-y,1/2+z
1/2+x,1/2-y,-z
1/2-x,y,1/2-z
1/2-x,1/2-y,-z
1/2+x,y,1/2-z
1/2-x,1/2+y,z
1/2+x,-y,1/2+z
loop_
_atom_site_type_symbol
_atom_site_label
_atom_site_fract_x
_atom_site_fract_y
_atom_site_fract_z
Si Si1 0.500000 0.467821 0.581842
Si Si2 0.000000 0.320798 0.949589
Si Si3 0.500000 0.736212 0.252945
Si Si4 0.000000 0.752094 0.408998
Si Si5 0.000000 0.480307 0.410837
Si Si6 0.000000 0.373215 0.296597
O O1 0.500000 0.500000 0.500000
O O2 0.500000 0.392877 0.573291
O O3 0.750275 0.489705 0.618349
O O4 0.252910 0.288054 0.923894
O O5 0.000000 0.311743 0.037362
O O6 0.250000 0.698016 0.250000
O O7 0.500000 0.771757 0.174802
O O8 0.500000 0.796133 0.307568
O O9 0.000000 0.500000 0.500000
O O10 0.000000 0.409189 0.376182
O O11 0.250000 0.388127 0.250000
#
# Coordination Sequence:
#
# PCOD9479691 Si02
#       6
#     8   8   8   8   8   8
#     4  10  21  36  59  90 124 163 205 252 307 368
#     4  10  21  38  62  90 124 156 202 259 310 373
#     4  10  21  35  58  89 120 157 200 252 314 371
#     4  10  21  38  61  91 121 159 202 257 320 366
#     4  10  21  36  58  89 126 167 209 253 308 372
#     4  10  21  37  58  87 126 160 201 261 317 372
#
# _framework density 22.962022999999999
#
# number of rings (size 3 to 8) (size 9 to 14) (size 15 to 20)
#    0.000    2.000    0.000    3.000    0.000   10.667 
#    0.000    3.333    0.000   20.000    0.000    0.000 
#    0.000    0.000    0.000    0.000    0.000    0.000 
#
# Total GULP energy -133696.160212 kJ/mol
# GULP energy per Si atom -5570.673342 kJ/mol
# Density = 2.290976 g / cm^3
# Si number density = 22.962023 Si / 1000 Ang^3
#
#
#
# Elastic Constant Matrix: (Units=GPa)
#
#
# Indices 1 2 3 4 5 6 
#
# 1 259.2397 22.7868 -9.4560 0.0000 0.0000 0.0000
# 2 22.7868 29.2961 -9.1824 0.0000 0.0000 0.0000
# 3 -9.4560 -9.1824 47.0348 0.0000 0.0000 0.0000
# 4 0.0000 0.0000 0.0000 26.1516 0.0000 0.0000
# 5 0.0000 0.0000 0.0000 0.0000 15.8405 0.0000
# 6 0.0000 0.0000 0.0000 0.0000 0.0000 18.3338
#
#
#
# Elastic Compliance Matrix: (Units=1/GPa)
#
#
# Indices 1 2 3 4 5 6 
#
# 1 0.004143 -0.003154 0.000217 0.000000 0.000000 0.000000
# 2 -0.003154 0.038761 0.006933 0.000000 0.000000 0.000000
# 3 0.000217 0.006933 0.022658 0.000000 0.000000 0.000000
# 4 0.000000 0.000000 0.000000 0.038239 0.000000 0.000000
# 5 0.000000 0.000000 0.000000 0.000000 0.063130 0.000000
# 6 0.000000 0.000000 0.000000 0.000000 0.000000 0.054544
#
#
# Mechanical properties :
#
#
# Convention : Reuss Voigt Hill
#
# Bulk Modulus (GPa) = 13.59564 38.20749 25.90157
# Shear Modulus (GPa) = 21.00849 34.15999 27.58424
#
# Velocity S-wave (km/s) = 3.02805 3.86122 3.46974
# Velocity P-wave (km/s) = 4.26137 6.04601 5.23037
#
# Compressibility (1/GPa) = 0.07355298
#
# Stress axis : x y z
#
# Youngs Moduli (GPa) = 241.39458 25.79939 44.13454
#
# Poissons Ratio (x) = 0.08137 -0.00958
# Poissons Ratio (y) = 0.76139 -0.30598
# Poissons Ratio (z) = -0.05240 -0.17887
#
# Static dielectric constant tensor:
#      x y z
#    x 2.026130 0.000000 0.000000 
#    y 0.000000 1.768310 0.000000 
#    z 0.000000 0.000000 1.931210 
# 
# From -- ./inp_files/28663.got.cif
#   From: 2010.05.17/outbox.cif.g08.bks.cpg/sg64_15_cif.got.tgz:28663.got - 2010.06.03 16:29:19.
