data_PCOD9479687
_publ_section_title
;
Structure prediction by ZEFSAII (Michael W. Deem and Ramdas Pophale) SiO2 
 PCOD9479687
Probable space group: C M C A
;
_chemical_formula_sum "Si O2"
_cell_formula_units_Z 52
_cell_length_a 14.495535
_cell_length_b 27.532359
_cell_length_c 5.357842
_cell_angle_alpha 90.000000
_cell_angle_beta 90.000000
_cell_angle_gamma 90.000000
_cell_volume 2138.294776
_symmetry_space_group_name_H-M "C M C A"
_symmetry_group_IT_number 64
_symmetry_cell_setting 'orthorhombic'
loop_
_space_group_symop_operation_xyz
x,y,z
-x,1/2-y,1/2+z
x,-y,-z
-x,1/2+y,1/2-z
-x,-y,-z
x,1/2+y,1/2-z
-x,y,z
x,1/2-y,1/2+z
1/2+x,1/2+y,z
1/2-x,-y,1/2+z
1/2+x,1/2-y,-z
1/2-x,y,1/2-z
1/2-x,1/2-y,-z
1/2+x,y,1/2-z
1/2-x,1/2+y,z
1/2+x,-y,1/2+z
loop_
_atom_site_type_symbol
_atom_site_label
_atom_site_fract_x
_atom_site_fract_y
_atom_site_fract_z
Si Si1 0.606248 0.769623 0.844017
Si Si2 0.500000 0.000000 0.500000
Si Si3 0.139452 0.381013 0.746659
Si Si4 0.639063 0.561168 0.744468
O O1 0.500000 0.752714 0.873495
O O2 0.649017 0.739998 0.614651
O O3 0.607145 0.825905 0.773345
O O4 0.418649 0.986661 0.295316
O O5 0.250000 0.379546 0.750000
O O6 0.111739 0.405623 0.485837
O O7 0.112709 0.411404 0.990995
O O8 0.750000 0.553349 0.750000
#
# Coordination Sequence:
#
# PCOD9479687 Si02
#       4
#    16   4  16  16
#     4  10  21  35  57  92 129 171 221 276 324 391
#     4  12  28  46  80 104 128 198 224 286 384 424
#     4  10  22  42  64  91 135 177 216 282 341 399
#     4  10  25  44  66 102 136 171 230 287 341 424
#
# _framework density 24.318445000000001
#
# number of rings (size 3 to 8) (size 9 to 14) (size 15 to 20)
#    0.000    1.846    0.000    1.846    4.308    7.385 
#    0.000    0.000    0.000    0.000    0.000    0.000 
#    0.000    0.000    0.000    0.000    0.000    0.000 
#
# Total GULP energy -145008.411598 kJ/mol
# GULP energy per Si atom -5577.246600 kJ/mol
# Density = 2.426310 g / cm^3
# Si number density = 24.318445 Si / 1000 Ang^3
#
#
#
# Elastic Constant Matrix: (Units=GPa)
#
#
# Indices 1 2 3 4 5 6 
#
# 1 110.0063 3.3404 32.4688 0.0000 0.0000 0.0000
# 2 3.3404 78.5895 53.7562 0.0000 0.0000 0.0000
# 3 32.4688 53.7562 202.3613 0.0000 0.0000 0.0000
# 4 0.0000 0.0000 0.0000 52.1264 0.0000 0.0000
# 5 0.0000 0.0000 0.0000 0.0000 17.2936 0.0000
# 6 0.0000 0.0000 0.0000 0.0000 0.0000 53.5509
#
#
#
# Elastic Compliance Matrix: (Units=1/GPa)
#
#
# Indices 1 2 3 4 5 6 
#
# 1 0.009582 0.000787 -0.001747 0.000000 0.000000 0.000000
# 2 0.000787 0.015615 -0.004274 0.000000 0.000000 0.000000
# 3 -0.001747 -0.004274 0.006357 0.000000 0.000000 0.000000
# 4 0.000000 0.000000 0.000000 0.019184 0.000000 0.000000
# 5 0.000000 0.000000 0.000000 0.000000 0.057825 0.000000
# 6 0.000000 0.000000 0.000000 0.000000 0.000000 0.018674
#
#
# Mechanical properties :
#
#
# Convention : Reuss Voigt Hill
#
# Bulk Modulus (GPa) = 47.42264 63.34309 55.38287
# Shear Modulus (GPa) = 34.54650 44.68696 39.61673
#
# Velocity S-wave (km/s) = 3.77316 4.29134 4.04057
# Velocity P-wave (km/s) = 6.20688 7.11745 6.67770
#
# Compressibility (1/GPa) = 0.02108697
#
# Stress axis : x y z
#
# Youngs Moduli (GPa) = 104.36238 64.04292 157.29867
#
# Poissons Ratio (x) = -0.05043 0.27474
# Poissons Ratio (y) = -0.08218 0.67234
# Poissons Ratio (z) = 0.18228 0.27374
#
# Static dielectric constant tensor:
#      x y z
#    x 1.948580 0.000000 0.000000 
#    y 0.000000 1.950300 0.000000 
#    z 0.000000 0.000000 1.968300 
# 
# From -- ./inp_files/1172.got.cif
#   From: 2010.05.17/outbox.cif.g08.bks.cpg/sg64_1_cif.got.tgz:1172.got - 2010.06.03 16:29:19.
