data_PCOD9479769
_publ_section_title
;
Structure prediction by ZEFSAII (Michael W. Deem and Ramdas Pophale) SiO2 
 PCOD9479769
Probable space group: C M C A
;
_chemical_formula_sum "Si O2"
_cell_formula_units_Z 88
_cell_length_a 23.380942
_cell_length_b 11.101132
_cell_length_c 16.541601
_cell_angle_alpha 90.000000
_cell_angle_beta 90.000000
_cell_angle_gamma 90.000000
_cell_volume 4293.453981
_symmetry_space_group_name_H-M "C M C A"
_symmetry_group_IT_number 64
_symmetry_cell_setting 'orthorhombic'
loop_
_space_group_symop_operation_xyz
x,y,z
-x,1/2-y,1/2+z
x,-y,-z
-x,1/2+y,1/2-z
-x,-y,-z
x,1/2+y,1/2-z
-x,y,z
x,1/2-y,1/2+z
1/2+x,1/2+y,z
1/2-x,-y,1/2+z
1/2+x,1/2-y,-z
1/2-x,y,1/2-z
1/2-x,1/2-y,-z
1/2+x,y,1/2-z
1/2-x,1/2+y,z
1/2+x,-y,1/2+z
loop_
_atom_site_type_symbol
_atom_site_label
_atom_site_fract_x
_atom_site_fract_y
_atom_site_fract_z
Si Si1 0.720393 0.631293 0.530639
Si Si2 0.500000 0.438097 0.136054
Si Si3 0.000000 0.315365 0.969030
Si Si4 0.904743 0.684777 0.728401
Si Si5 0.379312 0.129860 0.088102
Si Si6 0.699177 0.049284 0.805964
Si Si7 0.500000 0.783136 0.647422
O O1 0.742114 0.500000 0.500000
O O2 0.750000 0.750000 0.500000
O O3 0.656172 0.643941 0.494937
O O4 0.728096 0.630966 0.626030
O O5 0.500000 0.321907 0.073477
O O6 0.554664 0.418783 0.193111
O O7 0.500000 0.578892 0.114228
O O8 0.944592 0.387992 0.938548
O O9 0.000000 0.296113 0.065623
O O10 0.887012 0.762424 0.651099
O O11 0.846806 0.629595 0.760908
O O12 0.944478 0.754123 0.795140
O O13 0.340002 0.039765 0.140315
O O14 0.750000 0.997836 0.750000
#
# Coordination Sequence:
#
# PCOD9479769 Si02
#       7
#    16   8   8  16  16  16   8
#     4  10  22  41  62  88 123 165 215 269 330 398
#     4   9  20  37  56  86 124 159 202 254 318 387
#     4  10  21  39  62  89 128 169 211 268 328 406
#     4  10  21  36  59  88 120 159 207 260 319 386
#     4  10  22  41  62  90 127 167 210 264 329 395
#     4  11  23  39  61  89 121 163 214 271 328 390
#     4  11  20  36  62  91 122 162 210 264 324 395
#
# _framework density 20.496317000000001
#
# number of rings (size 3 to 8) (size 9 to 14) (size 15 to 20)
#    0.000    1.818    0.000    4.091    0.000    5.091 
#    0.000   15.909    0.000    0.000    0.000    0.000 
#    0.000    0.000    0.000    0.000    0.000    0.000 
#
# Total GULP energy -244959.918658 kJ/mol
# GULP energy per Si atom -5567.270879 kJ/mol
# Density = 2.044967 g / cm^3
# Si number density = 20.496317 Si / 1000 Ang^3
#
#
#
# Elastic Constant Matrix: (Units=GPa)
#
#
# Indices 1 2 3 4 5 6 
#
# 1 107.7606 43.8192 31.1478 0.0000 0.0000 0.0000
# 2 43.8192 60.4063 10.4159 0.0000 0.0000 0.0000
# 3 31.1478 10.4159 84.6822 0.0000 0.0000 0.0000
# 4 0.0000 0.0000 0.0000 25.5318 0.0000 0.0000
# 5 0.0000 0.0000 0.0000 0.0000 25.2089 0.0000
# 6 0.0000 0.0000 0.0000 0.0000 0.0000 14.2702
#
#
#
# Elastic Compliance Matrix: (Units=1/GPa)
#
#
# Indices 1 2 3 4 5 6 
#
# 1 0.014439 -0.009765 -0.004110 0.000000 0.000000 0.000000
# 2 -0.009765 0.023518 0.000699 0.000000 0.000000 0.000000
# 3 -0.004110 0.000699 0.013234 0.000000 0.000000 0.000000
# 4 0.000000 0.000000 0.000000 0.039167 0.000000 0.000000
# 5 0.000000 0.000000 0.000000 0.000000 0.039669 0.000000
# 6 0.000000 0.000000 0.000000 0.000000 0.000000 0.070076
#
#
# Mechanical properties :
#
#
# Convention : Reuss Voigt Hill
#
# Bulk Modulus (GPa) = 40.25868 47.06833 43.66351
# Shear Modulus (GPa) = 21.30074 24.16659 22.73366
#
# Velocity S-wave (km/s) = 3.22723 3.43748 3.33402
# Velocity P-wave (km/s) = 5.79407 6.22649 6.01417
#
# Compressibility (1/GPa) = 0.02483936
#
# Stress axis : x y z
#
# Youngs Moduli (GPa) = 69.25877 42.52099 75.56017
#
# Poissons Ratio (x) = 0.41523 0.31053
# Poissons Ratio (y) = 0.67633 -0.05283
# Poissons Ratio (z) = 0.28463 -0.02973
#
# Static dielectric constant tensor:
#      x y z
#    x 1.827170 0.000000 0.000000 
#    y 0.000000 1.828990 0.000000 
#    z 0.000000 0.000000 1.829740 
# 
# From -- ./inp_files/34163.got.cif
#   From: 2010.05.17/outbox.cif.g08.bks.cpg/sg64_18_cif.got.tgz:34163.got - 2010.06.03 16:29:19.
