data_PCOD9479421
_publ_section_title
;
Structure prediction by ZEFSAII (Michael W. Deem and Ramdas Pophale) SiO2 
 PCOD9479421
Probable space group: C M C A
;
_chemical_formula_sum "Si O2"
_cell_formula_units_Z 88
_cell_length_a 23.645994
_cell_length_b 10.580143
_cell_length_c 16.969060
_cell_angle_alpha 90.000000
_cell_angle_beta 90.000000
_cell_angle_gamma 90.000000
_cell_volume 4245.285457
_symmetry_space_group_name_H-M "C M C A"
_symmetry_group_IT_number 64
_symmetry_cell_setting 'orthorhombic'
loop_
_space_group_symop_operation_xyz
x,y,z
-x,1/2-y,1/2+z
x,-y,-z
-x,1/2+y,1/2-z
-x,-y,-z
x,1/2+y,1/2-z
-x,y,z
x,1/2-y,1/2+z
1/2+x,1/2+y,z
1/2-x,-y,1/2+z
1/2+x,1/2-y,-z
1/2-x,y,1/2-z
1/2-x,1/2-y,-z
1/2+x,y,1/2-z
1/2-x,1/2+y,z
1/2+x,-y,1/2+z
loop_
_atom_site_type_symbol
_atom_site_label
_atom_site_fract_x
_atom_site_fract_y
_atom_site_fract_z
Si Si1 0.500000 0.055237 0.350586
Si Si2 0.240951 0.952454 0.411305
Si Si3 0.500000 0.732419 0.870349
Si Si4 0.407843 0.374837 0.721317
Si Si5 0.286975 0.781149 0.822876
Si Si6 0.000000 0.780567 0.454044
Si Si7 0.888421 0.426711 0.083766
O O1 0.556051 0.084010 0.297441
O O2 0.500000 0.137845 0.428104
O O3 0.500000 0.914276 0.378914
O O4 0.283118 0.840572 0.381680
O O5 0.177693 0.889371 0.409913
O O6 0.253592 0.000000 0.500000
O O7 0.234898 0.085152 0.361528
O O8 0.553628 0.771960 0.820791
O O9 0.500000 0.803506 0.953148
O O10 0.346104 0.314499 0.719586
O O11 0.402060 0.489625 0.659949
O O12 0.250000 0.738287 0.750000
O O13 0.941207 0.833197 0.420356
O O14 0.890531 0.500000 0.000000
#
# Coordination Sequence:
#
# PCOD9479421 Si02
#       7
#     8  16   8  16  16   8  16
#     4  11  27  38  60  96 138 167 204 272 332 397
#     4  10  23  43  68  97 132 173 233 281 334 398
#     4  11  23  44  63  94 132 160 221 267 326 386
#     4  10  24  42  64  93 128 174 215 268 327 394
#     4  11  24  43  68  98 135 179 222 281 338 410
#     4  12  22  39  67  95 123 175 212 271 330 392
#     4  10  20  39  67  92 122 167 224 267 320 391
#
# _framework density 20.728878000000002
#
# number of rings (size 3 to 8) (size 9 to 14) (size 15 to 20)
#    0.000    1.455    1.818    2.727    7.636    2.909 
#    0.000    0.000    0.000    0.000    0.000    0.000 
#    0.000    0.000    0.000    0.000    0.000    0.000 
#
# Total GULP energy -245231.480229 kJ/mol
# GULP energy per Si atom -5573.442732 kJ/mol
# Density = 2.068170 g / cm^3
# Si number density = 20.728878 Si / 1000 Ang^3
#
#
#
# Elastic Constant Matrix: (Units=GPa)
#
#
# Indices 1 2 3 4 5 6 
#
# 1 51.6638 17.2968 -2.7365 0.0000 0.0000 0.0000
# 2 17.2968 44.0461 -12.7921 0.0000 0.0000 0.0000
# 3 -2.7365 -12.7921 43.7573 0.0000 0.0000 0.0000
# 4 0.0000 0.0000 0.0000 42.0418 0.0000 0.0000
# 5 0.0000 0.0000 0.0000 0.0000 -178.0494 0.0000
# 6 0.0000 0.0000 0.0000 0.0000 0.0000 69.7086
#
#
#
# Elastic Compliance Matrix: (Units=1/GPa)
#
#
# Indices 1 2 3 4 5 6 
#
# 1 0.022351 -0.009148 -0.001277 0.000000 0.000000 0.000000
# 2 -0.009148 0.028554 0.007775 0.000000 0.000000 0.000000
# 3 -0.001277 0.007775 0.025047 0.000000 0.000000 0.000000
# 4 0.000000 0.000000 0.000000 0.023786 0.000000 0.000000
# 5 0.000000 0.000000 0.000000 0.000000 -0.005616 0.000000
# 6 0.000000 0.000000 0.000000 0.000000 0.000000 0.014345
#
#
# Mechanical properties :
#
#
# Convention : Reuss Voigt Hill
#
# Bulk Modulus (GPa) = 14.15354 15.88927 15.02141
# Shear Modulus (GPa) = 36.41248 -4.07984 16.16632
#
# Velocity S-wave (km/s) = 4.19574 -1.40444 2.79569
# Velocity P-wave (km/s) = 5.50591 2.24766 4.20517
#
# Compressibility (1/GPa) = 0.07065370
#
# Stress axis : x y z
#
# Youngs Moduli (GPa) = 44.74078 35.02133 39.92560
#
# Poissons Ratio (x) = 0.32037 0.05097
# Poissons Ratio (y) = 0.40928 -0.31044
# Poissons Ratio (z) = 0.05711 -0.27231
#
# Static dielectric constant tensor:
#      x y z
#    x 2.103460 0.000000 0.000000 
#    y 0.000000 1.560350 0.000000 
#    z 0.000000 0.000000 1.728230 
# 
# From -- ./inp_files/27219.got.cif
#   From: 2010.05.17/outbox.cif.g08.bks.cpg/sg64_14_cif.got.tgz:27219.got - 2010.06.03 16:29:19.
