data_PCOD9479549
_publ_section_title
;
Structure prediction by ZEFSAII (Michael W. Deem and Ramdas Pophale) SiO2 
 PCOD9479549
Probable space group: C M C A
;
_chemical_formula_sum "Si O2"
_cell_formula_units_Z 96
_cell_length_a 25.669790
_cell_length_b 16.909403
_cell_length_c 12.142809
_cell_angle_alpha 90.000000
_cell_angle_beta 90.000000
_cell_angle_gamma 90.000000
_cell_volume 5270.717681
_symmetry_space_group_name_H-M "C M C A"
_symmetry_group_IT_number 64
_symmetry_cell_setting 'orthorhombic'
loop_
_space_group_symop_operation_xyz
x,y,z
-x,1/2-y,1/2+z
x,-y,-z
-x,1/2+y,1/2-z
-x,-y,-z
x,1/2+y,1/2-z
-x,y,z
x,1/2-y,1/2+z
1/2+x,1/2+y,z
1/2-x,-y,1/2+z
1/2+x,1/2-y,-z
1/2-x,y,1/2-z
1/2-x,1/2-y,-z
1/2+x,y,1/2-z
1/2-x,1/2+y,z
1/2+x,-y,1/2+z
loop_
_atom_site_type_symbol
_atom_site_label
_atom_site_fract_x
_atom_site_fract_y
_atom_site_fract_z
Si Si1 0.824137 0.636733 0.058327
Si Si2 0.860117 0.189964 0.892928
Si Si3 0.195011 0.631086 0.798824
Si Si4 0.561095 0.553866 0.891163
Si Si5 0.354332 0.970043 0.751300
Si Si6 0.210055 0.087936 0.054232
O O1 0.852606 0.719945 0.074736
O O2 0.855614 0.573381 0.131577
O O3 0.763977 0.625394 0.096934
O O4 0.815305 0.628147 0.927891
O O5 0.847723 0.183002 0.763540
O O6 0.912275 0.139218 0.911911
O O7 0.815641 0.141620 0.959710
O O8 0.250000 0.659104 0.750000
O O9 0.186685 0.541391 0.760279
O O10 0.500000 0.560306 0.868596
O O11 0.592933 0.510136 0.793741
O O12 0.568678 0.500000 0.000000
O O13 0.330880 0.916441 0.654050
O O14 0.218120 0.000000 0.000000
#
# Coordination Sequence:
#
# PCOD9479549 Si02
#       6
#    16  16  16  16  16  16
#     4  12  25  33  57  87 131 167 195 242 326 382
#     4  11  23  37  56  89 125 157 204 264 306 370
#     4  11  21  36  55  81 124 169 206 238 297 382
#     4  10  20  41  71  90 110 157 223 276 308 353
#     4  11  21  37  59  89 118 160 207 259 300 375
#     4  12  19  38  58  86 124 168 206 245 293 376
#
# _framework density 18.213837999999999
#
# number of rings (size 3 to 8) (size 9 to 14) (size 15 to 20)
#    0.000    0.833    6.667    3.500    2.333    0.000 
#    0.000    0.833    0.000   14.000    0.000    0.000 
#    0.000    0.000    0.000    0.000    0.000    0.000 
#
# Total GULP energy -267686.096380 kJ/mol
# GULP energy per Si atom -5576.793675 kJ/mol
# Density = 1.817238 g / cm^3
# Si number density = 18.213838 Si / 1000 Ang^3
#
#
#
# Elastic Constant Matrix: (Units=GPa)
#
#
# Indices 1 2 3 4 5 6 
#
# 1 109.4492 31.3770 24.7692 0.0000 0.0000 0.0000
# 2 31.3770 53.1941 13.6952 0.0000 0.0000 0.0000
# 3 24.7692 13.6952 94.4358 0.0000 0.0000 0.0000
# 4 0.0000 0.0000 0.0000 17.3100 0.0000 0.0000
# 5 0.0000 0.0000 0.0000 0.0000 19.5470 0.0000
# 6 0.0000 0.0000 0.0000 0.0000 0.0000 13.9375
#
#
#
# Elastic Compliance Matrix: (Units=1/GPa)
#
#
# Indices 1 2 3 4 5 6 
#
# 1 0.011380 -0.006174 -0.002089 0.000000 0.000000 0.000000
# 2 -0.006174 0.022878 -0.001698 0.000000 0.000000 0.000000
# 3 -0.002089 -0.001698 0.011384 0.000000 0.000000 0.000000
# 4 0.000000 0.000000 0.000000 0.057770 0.000000 0.000000
# 5 0.000000 0.000000 0.000000 0.000000 0.051159 0.000000
# 6 0.000000 0.000000 0.000000 0.000000 0.000000 0.071749
#
#
# Mechanical properties :
#
#
# Convention : Reuss Voigt Hill
#
# Bulk Modulus (GPa) = 38.88437 44.08463 41.48450
# Shear Modulus (GPa) = 19.62202 22.64142 21.13172
#
# Velocity S-wave (km/s) = 3.28581 3.52957 3.40987
# Velocity P-wave (km/s) = 5.98252 6.39273 6.19102
#
# Compressibility (1/GPa) = 0.02571727
#
# Stress axis : x y z
#
# Youngs Moduli (GPa) = 87.87676 43.70937 87.84644
#
# Poissons Ratio (x) = 0.26988 0.18354
# Poissons Ratio (y) = 0.54259 0.14920
# Poissons Ratio (z) = 0.18360 0.07423
#
# Static dielectric constant tensor:
#      x y z
#    x 1.612530 0.000000 0.000000 
#    y 0.000000 1.647670 0.000000 
#    z 0.000000 0.000000 1.681660 
# 
# From -- ./inp_files/18350.got.cif
#   From: 2010.05.17/outbox.cif.g08.bks.cpg/sg64_10_cif.got.tgz:18350.got - 2010.06.03 16:29:19.
