data_PCOD9479666
_publ_section_title
;
Structure prediction by ZEFSAII (Michael W. Deem and Ramdas Pophale) SiO2 
 PCOD9479666
Probable space group: C M C A
;
_chemical_formula_sum "Si O2"
_cell_formula_units_Z 96
_cell_length_a 14.087453
_cell_length_b 19.385948
_cell_length_c 20.621859
_cell_angle_alpha 90.000000
_cell_angle_beta 90.000000
_cell_angle_gamma 90.000000
_cell_volume 5631.801468
_symmetry_space_group_name_H-M "C M C A"
_symmetry_group_IT_number 64
_symmetry_cell_setting 'orthorhombic'
loop_
_space_group_symop_operation_xyz
x,y,z
-x,1/2-y,1/2+z
x,-y,-z
-x,1/2+y,1/2-z
-x,-y,-z
x,1/2+y,1/2-z
-x,y,z
x,1/2-y,1/2+z
1/2+x,1/2+y,z
1/2-x,-y,1/2+z
1/2+x,1/2-y,-z
1/2-x,y,1/2-z
1/2-x,1/2-y,-z
1/2+x,y,1/2-z
1/2-x,1/2+y,z
1/2+x,-y,1/2+z
loop_
_atom_site_type_symbol
_atom_site_label
_atom_site_fract_x
_atom_site_fract_y
_atom_site_fract_z
Si Si1 0.203847 0.945187 0.423358
Si Si2 0.303057 0.666250 0.682674
Si Si3 0.000000 0.849049 0.926252
Si Si4 0.500000 0.782011 0.160796
Si Si5 0.000000 0.392602 0.042245
Si Si6 0.792661 0.407226 0.554874
Si Si7 0.788034 0.763259 0.573899
Si Si8 0.000000 0.261747 0.956320
O O1 0.200511 0.906831 0.354660
O O2 0.270557 0.908060 0.477358
O O3 0.096293 0.936434 0.450857
O O4 0.246459 0.021718 0.420385
O O5 0.250000 0.663736 0.750000
O O6 0.406437 0.696297 0.697906
O O7 0.263895 0.717201 0.626841
O O8 0.904093 0.894285 0.931435
O O9 0.000000 0.796628 0.864768
O O10 0.000000 0.793842 0.985201
O O11 0.500000 0.835021 0.099424
O O12 0.000000 0.341467 0.980894
O O13 0.738071 0.342659 0.585117
O O14 0.750000 0.750000 0.500000
O O15 0.899990 0.751012 0.578113
#
# Coordination Sequence:
#
# PCOD9479666 Si02
#       8
#    16  16   8   8   8  16  16   8
#     4  10  21  35  53  87 120 156 190 237 294 353
#     4  11  22  39  61  86 117 152 197 243 296 352
#     4  11  18  33  56  84 115 158 192 235 294 359
#     4   9  18  35  62  80 106 156 200 228 294 355
#     4   9  16  32  56  83 116 155 186 235 297 348
#     4  11  21  33  57  85 121 148 196 237 289 338
#     4  12  19  36  57  89 117 148 194 249 287 339
#     4  11  18  28  59  88 116 147 192 253 299 319
#
# _framework density 17.046054999999999
#
# number of rings (size 3 to 8) (size 9 to 14) (size 15 to 20)
#    0.000    1.333    6.667    1.000    0.000    4.000 
#    0.000    3.333    0.000    0.000    0.000    0.000 
#    0.000    0.000    0.000    0.000    0.000    0.000 
#
# Total GULP energy -267503.560337 kJ/mol
# GULP energy per Si atom -5572.990840 kJ/mol
# Density = 1.700726 g / cm^3
# Si number density = 17.046055 Si / 1000 Ang^3
#
#
#
# Elastic Constant Matrix: (Units=GPa)
#
#
# Indices 1 2 3 4 5 6 
#
# 1 156.3700 46.4789 33.3068 0.0000 0.0000 0.0000
# 2 46.4789 115.5742 24.1600 0.0000 0.0000 0.0000
# 3 33.3068 24.1600 71.6401 0.0000 0.0000 0.0000
# 4 0.0000 0.0000 0.0000 11.3461 0.0000 0.0000
# 5 0.0000 0.0000 0.0000 0.0000 13.5560 0.0000
# 6 0.0000 0.0000 0.0000 0.0000 0.0000 30.5305
#
#
#
# Elastic Compliance Matrix: (Units=1/GPa)
#
#
# Indices 1 2 3 4 5 6 
#
# 1 0.007733 -0.002537 -0.002739 0.000000 0.000000 0.000000
# 2 -0.002537 0.010141 -0.002240 0.000000 0.000000 0.000000
# 3 -0.002739 -0.002240 0.015988 0.000000 0.000000 0.000000
# 4 0.000000 0.000000 0.000000 0.088136 0.000000 0.000000
# 5 0.000000 0.000000 0.000000 0.000000 0.073768 0.000000
# 6 0.000000 0.000000 0.000000 0.000000 0.000000 0.032754
#
#
# Mechanical properties :
#
#
# Convention : Reuss Voigt Hill
#
# Bulk Modulus (GPa) = 53.11339 61.27509 57.19424
# Shear Modulus (GPa) = 20.01364 27.06243 23.53804
#
# Velocity S-wave (km/s) = 3.43022 3.98880 3.72001
# Velocity P-wave (km/s) = 6.84945 7.56564 7.21643
#
# Compressibility (1/GPa) = 0.01882764
#
# Stress axis : x y z
#
# Youngs Moduli (GPa) = 129.32067 98.60851 62.54746
#
# Poissons Ratio (x) = 0.25018 0.17135
# Poissons Ratio (y) = 0.32810 0.14013
# Poissons Ratio (z) = 0.35427 0.22093
#
# Static dielectric constant tensor:
#      x y z
#    x 1.613460 0.000000 0.000000 
#    y 0.000000 1.609140 0.000000 
#    z 0.000000 0.000000 1.548360 
# 
# From -- ./inp_files/38346.got.cif
#   From: 2010.05.17/outbox.cif.g08.bks.cpg/sg64_20_cif.got.tgz:38346.got - 2010.06.03 16:29:19.
