data_PCOD9479461
_publ_section_title
;
Structure prediction by ZEFSAII (Michael W. Deem and Ramdas Pophale) SiO2 
 PCOD9479461
Probable space group: C M C A
;
_chemical_formula_sum "Si O2"
_cell_formula_units_Z 64
_cell_length_a 13.459306
_cell_length_b 19.437552
_cell_length_c 12.490677
_cell_angle_alpha 90.000000
_cell_angle_beta 90.000000
_cell_angle_gamma 90.000000
_cell_volume 3267.760458
_symmetry_space_group_name_H-M "C M C A"
_symmetry_group_IT_number 64
_symmetry_cell_setting 'orthorhombic'
loop_
_space_group_symop_operation_xyz
x,y,z
-x,1/2-y,1/2+z
x,-y,-z
-x,1/2+y,1/2-z
-x,-y,-z
x,1/2+y,1/2-z
-x,y,z
x,1/2-y,1/2+z
1/2+x,1/2+y,z
1/2-x,-y,1/2+z
1/2+x,1/2-y,-z
1/2-x,y,1/2-z
1/2-x,1/2-y,-z
1/2+x,y,1/2-z
1/2-x,1/2+y,z
1/2+x,-y,1/2+z
loop_
_atom_site_type_symbol
_atom_site_label
_atom_site_fract_x
_atom_site_fract_y
_atom_site_fract_z
Si Si1 0.190875 0.184153 0.413064
Si Si2 0.886807 0.523210 0.623356
Si Si3 0.272498 0.665532 0.872416
Si Si4 0.114806 0.625343 0.300149
O O1 0.187853 0.159201 0.535750
O O2 0.170734 0.265716 0.411299
O O3 0.124694 0.148216 0.322956
O O4 0.303790 0.167465 0.369434
O O5 0.883528 0.500000 0.500000
O O6 0.825593 0.592447 0.632802
O O7 0.857348 0.455073 0.688254
O O8 0.000000 0.539308 0.652926
O O9 0.250000 0.682911 0.750000
O O10 0.000000 0.633247 0.336936
#
# Coordination Sequence:
#
# PCOD9479461 Si02
#       4
#    16  16  16  16
#     4  10  22  40  59  90 120 159 200 237 311 358
#     4  10  21  36  59  90 117 157 206 244 289 352
#     4  11  22  37  59  88 121 154 199 247 293 357
#     4  10  20  40  63  85 119 157 197 245 297 356
#
# _framework density 19.585279
#
# number of rings (size 3 to 8) (size 9 to 14) (size 15 to 20)
#    0.000    1.750    5.000    0.000    3.500    1.000 
#    0.000    5.000    0.000    3.000    0.000    0.000 
#    0.000    0.000    0.000    0.000    0.000    0.000 
#
# Total GULP energy -178235.249289 kJ/mol
# GULP energy per Si atom -5569.851540 kJ/mol
# Density = 1.954070 g / cm^3
# Si number density = 19.585279 Si / 1000 Ang^3
#
#
#
# Elastic Constant Matrix: (Units=GPa)
#
#
# Indices 1 2 3 4 5 6 
#
# 1 46.8836 10.8468 -3.9586 0.0000 0.0000 0.0000
# 2 10.8468 135.0176 20.1079 0.0000 0.0000 0.0000
# 3 -3.9586 20.1079 110.9571 0.0000 0.0000 0.0000
# 4 0.0000 0.0000 0.0000 28.9128 0.0000 0.0000
# 5 0.0000 0.0000 0.0000 0.0000 13.3025 0.0000
# 6 0.0000 0.0000 0.0000 0.0000 0.0000 -44.5013
#
#
#
# Elastic Compliance Matrix: (Units=1/GPa)
#
#
# Indices 1 2 3 4 5 6 
#
# 1 0.021870 -0.001925 0.001129 0.000000 0.000000 0.000000
# 2 -0.001925 0.007781 -0.001479 0.000000 0.000000 0.000000
# 3 0.001129 -0.001479 0.009321 0.000000 0.000000 0.000000
# 4 0.000000 0.000000 0.000000 0.034587 0.000000 0.000000
# 5 0.000000 0.000000 0.000000 0.000000 0.075174 0.000000
# 6 0.000000 0.000000 0.000000 0.000000 0.000000 -0.022471
#
#
# Mechanical properties :
#
#
# Convention : Reuss Voigt Hill
#
# Bulk Modulus (GPa) = 29.05067 38.53895 33.79481
# Shear Modulus (GPa) = 35.14066 17.26695 26.20381
#
# Velocity S-wave (km/s) = 4.24044 2.97244 3.66175
# Velocity P-wave (km/s) = 6.23219 5.61256 5.93047
#
# Compressibility (1/GPa) = 0.03442261
#
# Stress axis : x y z
#
# Youngs Moduli (GPa) = 45.72444 128.51260 107.28718
#
# Poissons Ratio (x) = 0.24740 -0.12114
# Poissons Ratio (y) = 0.08803 0.15866
# Poissons Ratio (z) = -0.05163 0.19005
#
# Static dielectric constant tensor:
#      x y z
#    x 1.724080 0.000000 0.000000 
#    y 0.000000 1.715200 0.000000 
#    z 0.000000 0.000000 1.748270 
# 
# From -- ./inp_files/23378.got.cif
#   From: 2010.05.17/outbox.cif.g08.bks.cpg/sg64_12_cif.got.tgz:23378.got - 2010.06.03 16:29:19.
