data_PCOD9479683
_publ_section_title
;
Structure prediction by ZEFSAII (Michael W. Deem and Ramdas Pophale) SiO2 
 PCOD9479683
Probable space group: C M C A
;
_chemical_formula_sum "Si O2"
_cell_formula_units_Z 64
_cell_length_a 26.933230
_cell_length_b 9.556616
_cell_length_c 11.347628
_cell_angle_alpha 90.000000
_cell_angle_beta 90.000000
_cell_angle_gamma 90.000000
_cell_volume 2920.772062
_symmetry_space_group_name_H-M "C M C A"
_symmetry_group_IT_number 64
_symmetry_cell_setting 'orthorhombic'
loop_
_space_group_symop_operation_xyz
x,y,z
-x,1/2-y,1/2+z
x,-y,-z
-x,1/2+y,1/2-z
-x,-y,-z
x,1/2+y,1/2-z
-x,y,z
x,1/2-y,1/2+z
1/2+x,1/2+y,z
1/2-x,-y,1/2+z
1/2+x,1/2-y,-z
1/2-x,y,1/2-z
1/2-x,1/2-y,-z
1/2+x,y,1/2-z
1/2-x,1/2+y,z
1/2+x,-y,1/2+z
loop_
_atom_site_type_symbol
_atom_site_label
_atom_site_fract_x
_atom_site_fract_y
_atom_site_fract_z
Si Si1 0.682600 0.643230 0.941404
Si Si2 0.886159 0.674197 0.758195
Si Si3 0.057380 0.935728 0.867665
Si Si4 0.290858 0.388741 0.395442
O O1 0.641030 0.719741 0.863968
O O2 0.732167 0.611972 0.864174
O O3 0.664755 0.500000 0.000000
O O4 0.700281 0.736265 0.049512
O O5 0.926944 0.561085 0.720099
O O6 0.908408 0.801244 0.834509
O O7 0.839915 0.592663 0.817822
O O8 0.000000 0.895184 0.849673
O O9 0.060831 0.000000 0.000000
O O10 0.293219 0.500000 0.500000
#
# Coordination Sequence:
#
# PCOD9479683 Si02
#       4
#    16  16  16  16
#     4  10  21  37  57  90 129 162 196 242 297 364
#     4  12  21  39  67  89 119 166 210 252 312 376
#     4  11  26  45  64  90 123 160 211 273 326 373
#     4  10  21  35  56  90 128 159 198 244 295 364
#
# _framework density 21.912015
#
# number of rings (size 3 to 8) (size 9 to 14) (size 15 to 20)
#    0.000    1.250    0.000    6.750    0.000    0.000 
#    0.000   10.000    0.000    7.500    0.000    0.000 
#    0.000    0.000    0.000    0.000    0.000    0.000 
#
# Total GULP energy -178455.037142 kJ/mol
# GULP energy per Si atom -5576.719911 kJ/mol
# Density = 2.186214 g / cm^3
# Si number density = 21.912015 Si / 1000 Ang^3
#
#
#
# Elastic Constant Matrix: (Units=GPa)
#
#
# Indices 1 2 3 4 5 6 
#
# 1 174.8910 36.0727 45.1634 0.0000 0.0000 0.0000
# 2 36.0727 100.8368 19.8867 0.0000 0.0000 0.0000
# 3 45.1634 19.8867 47.0898 0.0000 0.0000 0.0000
# 4 0.0000 0.0000 0.0000 24.9969 0.0000 0.0000
# 5 0.0000 0.0000 0.0000 0.0000 38.0894 0.0000
# 6 0.0000 0.0000 0.0000 0.0000 0.0000 37.3926
#
#
#
# Elastic Compliance Matrix: (Units=1/GPa)
#
#
# Indices 1 2 3 4 5 6 
#
# 1 0.007785 -0.001432 -0.006862 0.000000 0.000000 0.000000
# 2 -0.001432 0.011081 -0.003307 0.000000 0.000000 0.000000
# 3 -0.006862 -0.003307 0.029214 0.000000 0.000000 0.000000
# 4 0.000000 0.000000 0.000000 0.040005 0.000000 0.000000
# 5 0.000000 0.000000 0.000000 0.000000 0.026254 0.000000
# 6 0.000000 0.000000 0.000000 0.000000 0.000000 0.026743
#
#
# Mechanical properties :
#
#
# Convention : Reuss Voigt Hill
#
# Bulk Modulus (GPa) = 40.19381 58.34036 49.26709
# Shear Modulus (GPa) = 28.97264 34.87543 31.92404
#
# Velocity S-wave (km/s) = 3.64019 3.99383 3.82110
# Velocity P-wave (km/s) = 6.00425 6.92461 6.48079
#
# Compressibility (1/GPa) = 0.02487945
#
# Stress axis : x y z
#
# Youngs Moduli (GPa) = 128.44901 90.24203 34.23034
#
# Poissons Ratio (x) = 0.12920 0.23489
# Poissons Ratio (y) = 0.18390 0.11319
# Poissons Ratio (z) = 0.88143 0.29840
#
# Static dielectric constant tensor:
#      x y z
#    x 1.876400 0.000000 0.000000 
#    y 0.000000 1.522020 0.000000 
#    z 0.000000 0.000000 1.907230 
# 
# From -- ./inp_files/19479.got.cif
#   From: 2010.05.17/outbox.cif.g08.bks.cpg/sg64_10_cif.got.tgz:19479.got - 2010.06.03 16:29:19.
