data_PCOD9479816
_publ_section_title
;
Structure prediction by ZEFSAII (Michael W. Deem and Ramdas Pophale) SiO2 
 PCOD9479816
Probable space group: C M C A
;
_chemical_formula_sum "Si O2"
_cell_formula_units_Z 64
_cell_length_a 28.166216
_cell_length_b 18.385002
_cell_length_c 5.352086
_cell_angle_alpha 90.000000
_cell_angle_beta 90.000000
_cell_angle_gamma 90.000000
_cell_volume 2771.502471
_symmetry_space_group_name_H-M "C M C A"
_symmetry_group_IT_number 64
_symmetry_cell_setting 'orthorhombic'
loop_
_space_group_symop_operation_xyz
x,y,z
-x,1/2-y,1/2+z
x,-y,-z
-x,1/2+y,1/2-z
-x,-y,-z
x,1/2+y,1/2-z
-x,y,z
x,1/2-y,1/2+z
1/2+x,1/2+y,z
1/2-x,-y,1/2+z
1/2+x,1/2-y,-z
1/2-x,y,1/2-z
1/2-x,1/2-y,-z
1/2+x,y,1/2-z
1/2-x,1/2+y,z
1/2+x,-y,1/2+z
loop_
_atom_site_type_symbol
_atom_site_label
_atom_site_fract_x
_atom_site_fract_y
_atom_site_fract_z
Si Si1 0.424797 0.785774 0.199591
Si Si2 0.942419 0.457137 0.248598
Si Si3 0.718114 0.579413 0.000358
Si Si4 0.318400 0.726364 0.127255
O O1 0.445377 0.742743 0.437350
O O2 0.428172 0.872215 0.236300
O O3 0.369845 0.760536 0.178577
O O4 0.927603 0.500000 0.500000
O O5 0.000000 0.457611 0.246244
O O6 0.925845 0.500000 0.000000
O O7 0.750000 0.588159 0.750000
O O8 0.695049 0.500000 0.000000
O O9 0.750000 0.580249 0.250000
O O10 0.681525 0.644477 0.029783
O O11 0.295375 0.728562 0.401477
#
# Coordination Sequence:
#
# PCOD9479816 Si02
#       4
#    16  16  16  16
#     4  10  21  38  58  86 121 156 198 242 295 357
#     4  10  21  38  61  89 121 158 200 247 299 355
#     4  10  21  37  58  83 111 146 189 239 292 346
#     4  10  21  37  55  82 115 149 190 233 287 349
#
# _framework density 23.092168999999998
#
# number of rings (size 3 to 8) (size 9 to 14) (size 15 to 20)
#    0.000    2.000    0.000    3.000    0.000    4.000 
#    0.000   15.000    0.000    0.000    0.000    0.000 
#    0.000    0.000    0.000    0.000    0.000    0.000 
#
# Total GULP energy -178733.290477 kJ/mol
# GULP energy per Si atom -5585.415327 kJ/mol
# Density = 2.303961 g / cm^3
# Si number density = 23.092169 Si / 1000 Ang^3
#
#
#
# Elastic Constant Matrix: (Units=GPa)
#
#
# Indices 1 2 3 4 5 6 
#
# 1 68.3883 37.0900 30.6211 0.0000 0.0000 0.0000
# 2 37.0900 256.7437 94.9863 0.0000 0.0000 0.0000
# 3 30.6211 94.9863 254.3824 0.0000 0.0000 0.0000
# 4 0.0000 0.0000 0.0000 39.5442 0.0000 0.0000
# 5 0.0000 0.0000 0.0000 0.0000 -12.6193 0.0000
# 6 0.0000 0.0000 0.0000 0.0000 0.0000 42.6899
#
#
#
# Elastic Compliance Matrix: (Units=1/GPa)
#
#
# Indices 1 2 3 4 5 6 
#
# 1 0.016200 -0.001878 -0.001249 0.000000 0.000000 0.000000
# 2 -0.001878 0.004737 -0.001543 0.000000 0.000000 0.000000
# 3 -0.001249 -0.001543 0.004657 0.000000 0.000000 0.000000
# 4 0.000000 0.000000 0.000000 0.025288 0.000000 0.000000
# 5 0.000000 0.000000 0.000000 0.000000 -0.079243 0.000000
# 6 0.000000 0.000000 0.000000 0.000000 0.000000 0.023425
#
#
# Mechanical properties :
#
#
# Convention : Reuss Voigt Hill
#
# Bulk Modulus (GPa) = 61.51890 100.54545 81.03218
# Shear Modulus (GPa) = 509.05557 41.71076 275.38316
#
# Velocity S-wave (km/s) = 14.86350 4.25464 10.93219
# Velocity P-wave (km/s) = 17.92382 8.23234 13.94695
#
# Compressibility (1/GPa) = 0.01625517
#
# Stress axis : x y z
#
# Youngs Moduli (GPa) = 61.72754 211.10258 214.70995
#
# Poissons Ratio (x) = 0.39653 0.26811
# Poissons Ratio (y) = 0.11595 0.33123
# Poissons Ratio (z) = 0.07708 0.32567
#
# Static dielectric constant tensor:
#      x y z
#    x 1.363620 0.000000 0.000000 
#    y 0.000000 1.839400 0.000000 
#    z 0.000000 0.000000 2.060780 
# 
# From -- ./inp_files/3153.got.cif
#   From: 2010.05.17/outbox.cif.g08.bks.cpg/sg64_2_cif.got.tgz:3153.got - 2010.06.03 16:29:19.
