data_PCOD9479574
_publ_section_title
;
Structure prediction by ZEFSAII (Michael W. Deem and Ramdas Pophale) SiO2 
 PCOD9479574
Probable space group: C M C A
;
_chemical_formula_sum "Si O2"
_cell_formula_units_Z 112
_cell_length_a 15.490246
_cell_length_b 29.312397
_cell_length_c 11.597097
_cell_angle_alpha 90.000000
_cell_angle_beta 90.000000
_cell_angle_gamma 90.000000
_cell_volume 5265.734263
_symmetry_space_group_name_H-M "C M C A"
_symmetry_group_IT_number 64
_symmetry_cell_setting 'orthorhombic'
loop_
_space_group_symop_operation_xyz
x,y,z
-x,1/2-y,1/2+z
x,-y,-z
-x,1/2+y,1/2-z
-x,-y,-z
x,1/2+y,1/2-z
-x,y,z
x,1/2-y,1/2+z
1/2+x,1/2+y,z
1/2-x,-y,1/2+z
1/2+x,1/2-y,-z
1/2-x,y,1/2-z
1/2-x,1/2-y,-z
1/2+x,y,1/2-z
1/2-x,1/2+y,z
1/2+x,-y,1/2+z
loop_
_atom_site_type_symbol
_atom_site_label
_atom_site_fract_x
_atom_site_fract_y
_atom_site_fract_z
Si Si1 0.755552 0.529565 0.881880
Si Si2 0.102455 0.761422 0.065801
Si Si3 0.143062 0.160859 0.375952
Si Si4 0.905493 0.905164 0.071995
Si Si5 0.100464 0.396560 0.074925
Si Si6 0.402020 0.823399 0.242252
Si Si7 0.848352 0.336617 0.614935
O O1 0.750000 0.509393 0.750000
O O2 0.840558 0.561430 0.889844
O O3 0.757419 0.500000 0.000000
O O4 0.671369 0.561384 0.896111
O O5 0.118268 0.708102 0.062380
O O6 0.138601 0.781761 0.187274
O O7 0.000000 0.770109 0.068969
O O8 0.136862 0.790640 0.958947
O O9 0.104753 0.117326 0.441459
O O10 0.115648 0.165975 0.243532
O O11 0.246018 0.155975 0.379561
O O12 0.888750 0.879310 0.952228
O O13 0.000000 0.927244 0.073463
O O14 0.906500 0.863473 0.162518
O O15 0.138987 0.351086 0.137510
O O16 0.000000 0.402548 0.108856
O O17 0.500000 0.810209 0.205713
#
# Coordination Sequence:
#
# PCOD9479574 Si02
#       7
#    16  16  16  16  16  16  16
#     4  12  27  47  73 106 139 176 221 285 349 422
#     4  10  21  36  56  87 128 176 225 278 329 382
#     4  11  23  37  59  92 133 177 226 283 341 402
#     4  10  20  42  72  94 121 169 221 270 329 403
#     4  11  23  42  68  97 132 179 226 273 341 410
#     4   8  17  35  62  90 121 166 219 263 312 382
#     4  10  22  40  58  88 129 172 226 282 338 403
#
# _framework density 21.269587999999999
#
# number of rings (size 3 to 8) (size 9 to 14) (size 15 to 20)
#    0.000    1.714    2.857    2.143    2.000    4.000 
#    0.000    0.000    0.000    0.000    0.000    0.000 
#    0.000    0.000    0.000    0.000    0.000    0.000 
#
# Total GULP energy -312544.163547 kJ/mol
# GULP energy per Si atom -5581.145778 kJ/mol
# Density = 2.122118 g / cm^3
# Si number density = 21.269588 Si / 1000 Ang^3
#
#
#
# Elastic Constant Matrix: (Units=GPa)
#
#
# Indices 1 2 3 4 5 6 
#
# 1 82.4438 13.3957 14.1220 0.0000 0.0000 0.0000
# 2 13.3957 41.0555 34.6857 0.0000 0.0000 0.0000
# 3 14.1220 34.6857 124.3727 0.0000 0.0000 0.0000
# 4 0.0000 0.0000 0.0000 26.1747 0.0000 0.0000
# 5 0.0000 0.0000 0.0000 0.0000 16.7989 0.0000
# 6 0.0000 0.0000 0.0000 0.0000 0.0000 47.8255
#
#
#
# Elastic Compliance Matrix: (Units=1/GPa)
#
#
# Indices 1 2 3 4 5 6 
#
# 1 0.012822 -0.003864 -0.000378 0.000000 0.000000 0.000000
# 2 -0.003864 0.033030 -0.008773 0.000000 0.000000 0.000000
# 3 -0.000378 -0.008773 0.010530 0.000000 0.000000 0.000000
# 4 0.000000 0.000000 0.000000 0.038205 0.000000 0.000000
# 5 0.000000 0.000000 0.000000 0.000000 0.059528 0.000000
# 6 0.000000 0.000000 0.000000 0.000000 0.000000 0.020909
#
#
# Mechanical properties :
#
#
# Convention : Reuss Voigt Hill
#
# Bulk Modulus (GPa) = 32.94724 41.36431 37.15578
# Shear Modulus (GPa) = 23.67752 30.53774 27.10763
#
# Velocity S-wave (km/s) = 3.34010 3.79324 3.57386
# Velocity P-wave (km/s) = 5.51353 6.21890 5.87680
#
# Compressibility (1/GPa) = 0.03035155
#
# Stress axis : x y z
#
# Youngs Moduli (GPa) = 77.99026 30.27578 94.96784
#
# Poissons Ratio (x) = 0.11699 0.03592
# Poissons Ratio (y) = 0.30136 0.83313
# Poissons Ratio (z) = 0.02950 0.26560
#
# Static dielectric constant tensor:
#      x y z
#    x 1.776970 0.000000 0.000000 
#    y 0.000000 1.737270 0.000000 
#    z 0.000000 0.000000 1.896120 
# 
# From -- ./inp_files/14984.got.cif
#   From: 2010.05.17/outbox.cif.g08.bks.cpg/sg64_8_cif.got.tgz:14984.got - 2010.06.03 16:29:19.
