data_PCOD9479636
_publ_section_title
;
Structure prediction by ZEFSAII (Michael W. Deem and Ramdas Pophale) SiO2 
 PCOD9479636
Probable space group: C M C A
;
_chemical_formula_sum "Si O2"
_cell_formula_units_Z 96
_cell_length_a 16.018751
_cell_length_b 14.060260
_cell_length_c 19.357299
_cell_angle_alpha 90.000000
_cell_angle_beta 90.000000
_cell_angle_gamma 90.000000
_cell_volume 4359.801944
_symmetry_space_group_name_H-M "C M C A"
_symmetry_group_IT_number 64
_symmetry_cell_setting 'orthorhombic'
loop_
_space_group_symop_operation_xyz
x,y,z
-x,1/2-y,1/2+z
x,-y,-z
-x,1/2+y,1/2-z
-x,-y,-z
x,1/2+y,1/2-z
-x,y,z
x,1/2-y,1/2+z
1/2+x,1/2+y,z
1/2-x,-y,1/2+z
1/2+x,1/2-y,-z
1/2-x,y,1/2-z
1/2-x,1/2-y,-z
1/2+x,y,1/2-z
1/2-x,1/2+y,z
1/2+x,-y,1/2+z
loop_
_atom_site_type_symbol
_atom_site_label
_atom_site_fract_x
_atom_site_fract_y
_atom_site_fract_z
Si Si1 0.163561 0.036041 0.403072
Si Si2 0.177860 0.806524 0.192042
Si Si3 0.597176 0.149755 0.984580
Si Si4 0.717278 0.287491 0.915515
Si Si5 0.906725 0.519129 0.758590
Si Si6 0.908878 0.815280 0.792332
O O1 0.096595 0.107716 0.437708
O O2 0.245363 0.104024 0.417876
O O3 0.153089 0.006660 0.323203
O O4 0.143205 0.935565 0.441496
O O5 0.250000 0.814110 0.250000
O O6 0.213628 0.784310 0.117147
O O7 0.124617 0.717350 0.218233
O O8 0.123271 0.897538 0.208976
O O9 0.500000 0.166016 0.963848
O O10 0.661725 0.238478 0.975817
O O11 0.650809 0.286021 0.853164
O O12 0.911158 0.427353 0.711154
O O13 0.000000 0.538192 0.786949
O O14 0.000000 0.774100 0.803379
#
# Coordination Sequence:
#
# PCOD9479636 Si02
#       6
#    16  16  16  16  16  16
#     4  11  22  40  66  92 124 161 214 263 313 368
#     4  10  21  34  56  86 122 157 198 248 314 371
#     4  11  24  43  66  94 123 167 218 266 313 369
#     4  11  23  39  62  94 125 162 206 264 315 373
#     4  11  22  36  58  86 121 160 198 247 309 381
#     4  10  21  36  55  84 122 161 196 241 308 380
#
# _framework density 22.019348000000001
#
# number of rings (size 3 to 8) (size 9 to 14) (size 15 to 20)
#    0.000    1.333    1.667    5.500    4.667    0.000 
#    0.000    0.000    0.000    0.000    0.000    5.833 
#    0.000    0.000    0.000    0.000    0.000    0.000 
#
# Total GULP energy -267308.258639 kJ/mol
# GULP energy per Si atom -5568.922055 kJ/mol
# Density = 2.196923 g / cm^3
# Si number density = 22.019348 Si / 1000 Ang^3
#
#
#
# Elastic Constant Matrix: (Units=GPa)
#
#
# Indices 1 2 3 4 5 6 
#
# 1 103.8588 43.7876 10.0492 0.0000 0.0000 0.0000
# 2 43.7876 103.1247 13.2657 0.0000 0.0000 0.0000
# 3 10.0492 13.2657 77.4303 0.0000 0.0000 0.0000
# 4 0.0000 0.0000 0.0000 32.3666 0.0000 0.0000
# 5 0.0000 0.0000 0.0000 0.0000 23.7822 0.0000
# 6 0.0000 0.0000 0.0000 0.0000 0.0000 61.9252
#
#
#
# Elastic Compliance Matrix: (Units=1/GPa)
#
#
# Indices 1 2 3 4 5 6 
#
# 1 0.011764 -0.004907 -0.000686 0.000000 0.000000 0.000000
# 2 -0.004907 0.011962 -0.001413 0.000000 0.000000 0.000000
# 3 -0.000686 -0.001413 0.013246 0.000000 0.000000 0.000000
# 4 0.000000 0.000000 0.000000 0.030896 0.000000 0.000000
# 5 0.000000 0.000000 0.000000 0.000000 0.042048 0.000000
# 6 0.000000 0.000000 0.000000 0.000000 0.000000 0.016149
#
#
# Mechanical properties :
#
#
# Convention : Reuss Voigt Hill
#
# Bulk Modulus (GPa) = 43.55234 46.51321 45.03278
# Shear Modulus (GPa) = 33.84586 38.10223 35.97405
#
# Velocity S-wave (km/s) = 3.92484 4.16432 4.04635
# Velocity P-wave (km/s) = 6.35304 6.65520 6.50588
#
# Compressibility (1/GPa) = 0.02296088
#
# Stress axis : x y z
#
# Youngs Moduli (GPa) = 85.00864 83.59732 75.49511
#
# Poissons Ratio (x) = 0.41018 0.05180
# Poissons Ratio (y) = 0.41711 0.10664
# Poissons Ratio (z) = 0.05832 0.11809
#
# Static dielectric constant tensor:
#      x y z
#    x 1.905430 0.000000 0.000000 
#    y 0.000000 1.847150 0.000000 
#    z 0.000000 0.000000 1.846600 
# 
# From -- ./inp_files/39235.got.cif
#   From: 2010.05.17/outbox.cif.g08.bks.cpg/sg64_20_cif.got.tgz:39235.got - 2010.06.03 16:29:19.
