data_PCOD9479412
_publ_section_title
;
Structure prediction by ZEFSAII (Michael W. Deem and Ramdas Pophale) SiO2 
 PCOD9479412
Probable space group: C M C A
;
_chemical_formula_sum "Si O2"
_cell_formula_units_Z 88
_cell_length_a 27.782339
_cell_length_b 8.335025
_cell_length_c 18.020583
_cell_angle_alpha 90.000000
_cell_angle_beta 90.000000
_cell_angle_gamma 90.000000
_cell_volume 4172.963155
_symmetry_space_group_name_H-M "C M C A"
_symmetry_group_IT_number 64
_symmetry_cell_setting 'orthorhombic'
loop_
_space_group_symop_operation_xyz
x,y,z
-x,1/2-y,1/2+z
x,-y,-z
-x,1/2+y,1/2-z
-x,-y,-z
x,1/2+y,1/2-z
-x,y,z
x,1/2-y,1/2+z
1/2+x,1/2+y,z
1/2-x,-y,1/2+z
1/2+x,1/2-y,-z
1/2-x,y,1/2-z
1/2-x,1/2-y,-z
1/2+x,y,1/2-z
1/2-x,1/2+y,z
1/2+x,-y,1/2+z
loop_
_atom_site_type_symbol
_atom_site_label
_atom_site_fract_x
_atom_site_fract_y
_atom_site_fract_z
Si Si1 0.500000 0.492397 0.131647
Si Si2 0.279555 0.597149 0.422312
Si Si3 0.580884 0.500000 0.500000
Si Si4 0.630100 0.985286 0.844727
Si Si5 0.821198 0.458267 0.419980
Si Si6 0.500000 0.738699 0.009586
Si Si7 0.400223 0.872091 0.304102
O O1 0.500000 0.667987 0.093315
O O2 0.547689 0.445903 0.177298
O O3 0.500000 0.386538 0.057108
O O4 0.286490 0.500000 0.500000
O O5 0.312569 0.527400 0.356326
O O6 0.223143 0.578199 0.405595
O O7 0.297489 0.780641 0.428347
O O8 0.611705 0.522227 0.573312
O O9 0.546597 0.653203 0.496118
O O10 0.606014 0.814554 0.823983
O O11 0.613812 0.104740 0.781198
O O12 0.843504 0.500000 0.500000
O O13 0.860726 0.458414 0.356346
#
# Coordination Sequence:
#
# PCOD9479412 Si02
#       7
#     8  16   8  16  16   8  16
#     4  11  24  44  64 100 133 168 221 272 326 382
#     4  10  20  39  65  96 129 171 214 266 326 390
#     4  11  22  46  68  96 128 174 230 263 332 386
#     4  11  25  44  67  96 134 174 217 273 328 398
#     4  10  22  39  64  98 131 168 219 268 325 396
#     4  10  24  40  72  93 123 177 222 275 313 394
#     4  11  27  43  64  98 135 173 223 270 333 386
#
# _framework density 21.088132000000002
#
# number of rings (size 3 to 8) (size 9 to 14) (size 15 to 20)
#    0.000    1.455    2.727    2.182    5.091    5.818 
#    0.000    3.636    0.000    0.000    0.000    0.000 
#    0.000    0.000    0.000    0.000    0.000    0.000 
#
# Total GULP energy -245914.676888 kJ/mol
# GULP energy per Si atom -5588.969929 kJ/mol
# Density = 2.104013 g / cm^3
# Si number density = 21.088132 Si / 1000 Ang^3
#
#
#
# Elastic Constant Matrix: (Units=GPa)
#
#
# Indices 1 2 3 4 5 6 
#
# 1 101.1589 5.3397 41.2066 0.0000 0.0000 0.0000
# 2 5.3397 21.6515 8.4182 0.0000 0.0000 0.0000
# 3 41.2066 8.4182 118.8605 0.0000 0.0000 0.0000
# 4 0.0000 0.0000 0.0000 21.5062 0.0000 0.0000
# 5 0.0000 0.0000 0.0000 0.0000 33.6688 0.0000
# 6 0.0000 0.0000 0.0000 0.0000 0.0000 8.3416
#
#
#
# Elastic Compliance Matrix: (Units=1/GPa)
#
#
# Indices 1 2 3 4 5 6 
#
# 1 0.011548 -0.001328 -0.003909 0.000000 0.000000 0.000000
# 2 -0.001328 0.047647 -0.002914 0.000000 0.000000 0.000000
# 3 -0.003909 -0.002914 0.009975 0.000000 0.000000 0.000000
# 4 0.000000 0.000000 0.000000 0.046498 0.000000 0.000000
# 5 0.000000 0.000000 0.000000 0.000000 0.029701 0.000000
# 6 0.000000 0.000000 0.000000 0.000000 0.000000 0.119881
#
#
# Mechanical properties :
#
#
# Convention : Reuss Voigt Hill
#
# Bulk Modulus (GPa) = 18.91554 39.06667 28.99111
# Shear Modulus (GPa) = 16.71260 25.15042 20.93151
#
# Velocity S-wave (km/s) = 2.81821 3.45720 3.15393
# Velocity P-wave (km/s) = 4.42482 5.87384 5.20005
#
# Compressibility (1/GPa) = 0.05286657
#
# Stress axis : x y z
#
# Youngs Moduli (GPa) = 86.59494 20.98778 100.25126
#
# Poissons Ratio (x) = 0.02787 0.39192
# Poissons Ratio (y) = 0.11500 0.29215
# Poissons Ratio (z) = 0.33854 0.06116
#
# Static dielectric constant tensor:
#      x y z
#    x 1.776730 0.000000 0.000000 
#    y 0.000000 1.812960 0.000000 
#    z 0.000000 0.000000 1.730100 
# 
# From -- ./inp_files/35730.got.cif
#   From: 2010.05.17/outbox.cif.g08.bks.cpg/sg64_18_cif.got.tgz:35730.got - 2010.06.03 16:29:19.
