data_PCOD9479889
_publ_section_title
;
Structure prediction by ZEFSAII (Michael W. Deem and Ramdas Pophale) SiO2 
 PCOD9479889
Probable space group: C M C A
;
_chemical_formula_sum "Si O2"
_cell_formula_units_Z 80
_cell_length_a 21.396119
_cell_length_b 15.708059
_cell_length_c 10.885936
_cell_angle_alpha 90.000000
_cell_angle_beta 90.000000
_cell_angle_gamma 90.000000
_cell_volume 3658.670555
_symmetry_space_group_name_H-M "C M C A"
_symmetry_group_IT_number 64
_symmetry_cell_setting 'orthorhombic'
loop_
_space_group_symop_operation_xyz
x,y,z
-x,1/2-y,1/2+z
x,-y,-z
-x,1/2+y,1/2-z
-x,-y,-z
x,1/2+y,1/2-z
-x,y,z
x,1/2-y,1/2+z
1/2+x,1/2+y,z
1/2-x,-y,1/2+z
1/2+x,1/2-y,-z
1/2-x,y,1/2-z
1/2-x,1/2-y,-z
1/2+x,y,1/2-z
1/2-x,1/2+y,z
1/2+x,-y,1/2+z
loop_
_atom_site_type_symbol
_atom_site_label
_atom_site_fract_x
_atom_site_fract_y
_atom_site_fract_z
Si Si1 0.707047 0.523831 0.631976
Si Si2 0.315809 0.300748 0.259139
Si Si3 0.612904 0.912739 0.427888
Si Si4 0.567595 0.984620 0.799364
Si Si5 0.067501 0.190845 0.155804
O O1 0.733487 0.500000 0.500000
O O2 0.750000 0.497327 0.750000
O O3 0.698570 0.624915 0.643815
O O4 0.635675 0.490208 0.638998
O O5 0.250000 0.251265 0.250000
O O6 0.334664 0.354036 0.136717
O O7 0.374512 0.247602 0.303882
O O8 0.578009 0.851650 0.522801
O O9 0.631128 0.000000 0.500000
O O10 0.573086 0.949192 0.314265
O O11 0.500000 0.000863 0.860730
O O12 0.565495 0.889671 0.746098
O O13 0.000000 0.235481 0.159634
#
# Coordination Sequence:
#
# PCOD9479889 Si02
#       5
#    16  16  16  16  16
#     4  10  23  42  64  90 123 164 207 255 311 373
#     4  10  23  38  57  90 125 157 203 259 317 377
#     4   9  19  39  63  86 118 165 215 258 309 379
#     4   9  19  37  62  90 117 155 209 255 301 369
#     4  10  21  37  59  87 121 161 204 255 311 368
#
# _framework density 21.865864999999999
#
# number of rings (size 3 to 8) (size 9 to 14) (size 15 to 20)
#    0.000    2.400    0.000    0.600    0.000   22.000 
#    0.000    5.000    0.000    0.000    0.000    0.000 
#    0.000    0.000    0.000    0.000    0.000    0.000 
#
# Total GULP energy -222937.000932 kJ/mol
# GULP energy per Si atom -5573.425023 kJ/mol
# Density = 2.181610 g / cm^3
# Si number density = 21.865865 Si / 1000 Ang^3
#
#
#
# Elastic Constant Matrix: (Units=GPa)
#
#
# Indices 1 2 3 4 5 6 
#
# 1 212.7775 45.3219 67.2310 0.0000 0.0000 0.0000
# 2 45.3219 47.8729 29.7897 0.0000 0.0000 0.0000
# 3 67.2310 29.7897 115.2265 0.0000 0.0000 0.0000
# 4 0.0000 0.0000 0.0000 1.0287 0.0000 0.0000
# 5 0.0000 0.0000 0.0000 0.0000 -25.5296 0.0000
# 6 0.0000 0.0000 0.0000 0.0000 0.0000 179.7432
#
#
#
# Elastic Compliance Matrix: (Units=1/GPa)
#
#
# Indices 1 2 3 4 5 6 
#
# 1 0.006489 -0.004513 -0.002619 0.000000 0.000000 0.000000
# 2 -0.004513 0.028032 -0.004614 0.000000 0.000000 0.000000
# 3 -0.002619 -0.004614 0.011400 0.000000 0.000000 0.000000
# 4 0.000000 0.000000 0.000000 0.972126 0.000000 0.000000
# 5 0.000000 0.000000 0.000000 0.000000 -0.039170 0.000000
# 6 0.000000 0.000000 0.000000 0.000000 0.000000 0.005563
#
#
# Mechanical properties :
#
#
# Convention : Reuss Voigt Hill
#
# Bulk Modulus (GPa) = 44.58680 73.39578 58.99129
# Shear Modulus (GPa) = 4.92413 46.61740 25.77076
#
# Velocity S-wave (km/s) = 1.50228 4.62234 3.43678
# Velocity P-wave (km/s) = 4.84195 7.88208 6.54109
#
# Compressibility (1/GPa) = 0.02242816
#
# Stress axis : x y z
#
# Youngs Moduli (GPa) = 154.11669 35.67309 87.72234
#
# Poissons Ratio (x) = 0.16099 0.22976
# Poissons Ratio (y) = 0.69553 0.40475
# Poissons Ratio (z) = 0.40365 0.16460
#
# Static dielectric constant tensor:
#      x y z
#    x 1.909330 0.000000 0.000000 
#    y 0.000000 1.777340 0.000000 
#    z 0.000000 0.000000 1.832170 
# 
# From -- ./inp_files/18088.got.cif
#   From: 2010.05.17/outbox.cif.g08.bks.cpg/sg64_10_cif.got.tgz:18088.got - 2010.06.03 16:29:19.
