data_PCOD9479490
_publ_section_title
;
Structure prediction by ZEFSAII (Michael W. Deem and Ramdas Pophale) SiO2 
 PCOD9479490
Probable space group: C M C A
;
_chemical_formula_sum "Si O2"
_cell_formula_units_Z 96
_cell_length_a 28.236700
_cell_length_b 18.811224
_cell_length_c 7.809615
_cell_angle_alpha 90.000000
_cell_angle_beta 90.000000
_cell_angle_gamma 90.000000
_cell_volume 4148.208902
_symmetry_space_group_name_H-M "C M C A"
_symmetry_group_IT_number 64
_symmetry_cell_setting 'orthorhombic'
loop_
_space_group_symop_operation_xyz
x,y,z
-x,1/2-y,1/2+z
x,-y,-z
-x,1/2+y,1/2-z
-x,-y,-z
x,1/2+y,1/2-z
-x,y,z
x,1/2-y,1/2+z
1/2+x,1/2+y,z
1/2-x,-y,1/2+z
1/2+x,1/2-y,-z
1/2-x,y,1/2-z
1/2-x,1/2-y,-z
1/2+x,y,1/2-z
1/2-x,1/2+y,z
1/2+x,-y,1/2+z
loop_
_atom_site_type_symbol
_atom_site_label
_atom_site_fract_x
_atom_site_fract_y
_atom_site_fract_z
Si Si1 0.079804 0.954916 0.225142
Si Si2 0.604727 0.227682 0.960650
Si Si3 0.812129 0.500000 0.000000
Si Si4 0.345116 0.350002 0.151291
Si Si5 0.500000 0.247560 0.313496
Si Si6 0.750000 0.403923 0.250000
Si Si7 0.000000 0.630463 0.533215
Si Si8 0.400633 0.588854 0.389473
O O1 0.130613 0.927505 0.159301
O O2 0.043321 0.915397 0.104258
O O3 0.075644 0.927255 0.423176
O O4 0.075562 0.039279 0.247053
O O5 0.628638 0.301320 0.012938
O O6 0.551545 0.231895 0.889842
O O7 0.601344 0.173302 0.122646
O O8 0.638903 0.187686 0.827949
O O9 0.779681 0.453733 0.123457
O O10 0.848166 0.554639 0.093613
O O11 0.288961 0.357757 0.147939
O O12 0.500000 0.161523 0.340361
O O13 0.500000 0.294744 0.140747
#
# Coordination Sequence:
#
# PCOD9479490 Si02
#       8
#    16  16   8  16   8   8   8  16
#     4   9  17  33  56  86 115 151 196 259 292 355
#     4  11  21  39  59  94 126 163 203 264 304 379
#     4  10  20  40  66  87 120 159 208 256 320 366
#     4  11  22  39  61  86 128 158 208 256 312 362
#     4  12  20  33  60  91 124 168 201 240 321 372
#     4  12  22  44  66  90 120 168 210 266 314 378
#     4  12  20  32  59  94 117 161 208 251 314 372
#     4   9  17  36  60  84 121 154 200 262 300 359
#
# _framework density 23.142517999999999
#
# number of rings (size 3 to 8) (size 9 to 14) (size 15 to 20)
#    0.000    1.667   10.000    0.000    0.000    2.667 
#    3.000    0.000    0.000    0.000    0.000    2.333 
#    0.000    2.000    0.000    0.000    0.000    0.000 
#
# Total GULP energy -267963.252066 kJ/mol
# GULP energy per Si atom -5582.567751 kJ/mol
# Density = 2.308984 g / cm^3
# Si number density = 23.142518 Si / 1000 Ang^3
#
#
#
# Elastic Constant Matrix: (Units=GPa)
#
#
# Indices 1 2 3 4 5 6 
#
# 1 129.2201 28.9963 20.6980 0.0000 0.0000 0.0000
# 2 28.9963 61.9840 25.0489 0.0000 0.0000 0.0000
# 3 20.6980 25.0489 68.1350 0.0000 0.0000 0.0000
# 4 0.0000 0.0000 0.0000 37.7385 0.0000 0.0000
# 5 0.0000 0.0000 0.0000 0.0000 23.7506 0.0000
# 6 0.0000 0.0000 0.0000 0.0000 0.0000 55.5616
#
#
#
# Elastic Compliance Matrix: (Units=1/GPa)
#
#
# Indices 1 2 3 4 5 6 
#
# 1 0.008752 -0.003547 -0.001355 0.000000 0.000000 0.000000
# 2 -0.003547 0.020386 -0.006417 0.000000 0.000000 0.000000
# 3 -0.001355 -0.006417 0.017447 0.000000 0.000000 0.000000
# 4 0.000000 0.000000 0.000000 0.026498 0.000000 0.000000
# 5 0.000000 0.000000 0.000000 0.000000 0.042104 0.000000
# 6 0.000000 0.000000 0.000000 0.000000 0.000000 0.017998
#
#
# Mechanical properties :
#
#
# Convention : Reuss Voigt Hill
#
# Bulk Modulus (GPa) = 41.75741 45.42504 43.59122
# Shear Modulus (GPa) = 30.52422 35.71652 33.12037
#
# Velocity S-wave (km/s) = 3.63570 3.93278 3.78716
# Velocity P-wave (km/s) = 5.97555 6.34771 6.16444
#
# Compressibility (1/GPa) = 0.02394785
#
# Stress axis : x y z
#
# Youngs Moduli (GPa) = 114.26546 49.05429 57.31496
#
# Poissons Ratio (x) = 0.17397 0.07764
# Poissons Ratio (y) = 0.40525 0.36780
# Poissons Ratio (z) = 0.15480 0.31479
#
# Static dielectric constant tensor:
#      x y z
#    x 1.841160 0.000000 0.000000 
#    y 0.000000 1.931360 0.000000 
#    z 0.000000 0.000000 1.986820 
# 
# From -- ./inp_files/19302.got.cif
#   From: 2010.05.17/outbox.cif.g08.bks.cpg/sg64_10_cif.got.tgz:19302.got - 2010.06.03 16:29:19.
