data_PCOD9479884
_publ_section_title
;
Structure prediction by ZEFSAII (Michael W. Deem and Ramdas Pophale) SiO2 
 PCOD9479884
Probable space group: C M C A
;
_chemical_formula_sum "Si O2"
_cell_formula_units_Z 64
_cell_length_a 20.523710
_cell_length_b 9.045163
_cell_length_c 14.149769
_cell_angle_alpha 90.000000
_cell_angle_beta 90.000000
_cell_angle_gamma 90.000000
_cell_volume 2626.767395
_symmetry_space_group_name_H-M "C M C A"
_symmetry_group_IT_number 64
_symmetry_cell_setting 'orthorhombic'
loop_
_space_group_symop_operation_xyz
x,y,z
-x,1/2-y,1/2+z
x,-y,-z
-x,1/2+y,1/2-z
-x,-y,-z
x,1/2+y,1/2-z
-x,y,z
x,1/2-y,1/2+z
1/2+x,1/2+y,z
1/2-x,-y,1/2+z
1/2+x,1/2-y,-z
1/2-x,y,1/2-z
1/2-x,1/2-y,-z
1/2+x,y,1/2-z
1/2-x,1/2+y,z
1/2+x,-y,1/2+z
loop_
_atom_site_type_symbol
_atom_site_label
_atom_site_fract_x
_atom_site_fract_y
_atom_site_fract_z
Si Si1 0.799372 0.788290 0.413752
Si Si2 0.072096 0.084381 0.621435
Si Si3 0.073057 0.757383 0.179492
Si Si4 0.185927 0.524830 0.613241
O O1 0.750000 0.750000 0.500000
O O2 0.868148 0.859210 0.441976
O O3 0.813745 0.643488 0.352435
O O4 0.756231 0.909303 0.361285
O O5 0.071438 0.194843 0.710885
O O6 0.000000 0.094966 0.578631
O O7 0.082751 0.917074 0.659485
O O8 0.129493 0.862332 0.139720
O O9 0.000000 0.793788 0.141929
O O10 0.178948 0.500000 0.500000
#
# Coordination Sequence:
#
# PCOD9479884 Si02
#       4
#    16  16  16  16
#     4  10  21  38  60  87 122 164 211 261 315 377
#     4  10  21  39  64  93 127 165 211 267 324 385
#     4  10  21  38  62  95 130 166 212 264 322 389
#     4  10  21  37  59  85 123 167 209 260 312 377
#
# _framework density 24.364549
#
# number of rings (size 3 to 8) (size 9 to 14) (size 15 to 20)
#    0.000    2.000    0.000    3.000    0.000    6.500 
#    0.000    8.750    0.000   18.750    0.000    0.000 
#    0.000    0.000    0.000    0.000    0.000    0.000 
#
# Total GULP energy -178734.833904 kJ/mol
# GULP energy per Si atom -5585.463559 kJ/mol
# Density = 2.430909 g / cm^3
# Si number density = 24.364549 Si / 1000 Ang^3
#
#
#
# Elastic Constant Matrix: (Units=GPa)
#
#
# Indices 1 2 3 4 5 6 
#
# 1 237.0826 109.5889 24.8712 0.0000 0.0000 0.0000
# 2 109.5889 165.8889 -2.1515 0.0000 0.0000 0.0000
# 3 24.8712 -2.1515 56.7041 0.0000 0.0000 0.0000
# 4 0.0000 0.0000 0.0000 32.2477 0.0000 0.0000
# 5 0.0000 0.0000 0.0000 0.0000 27.8560 0.0000
# 6 0.0000 0.0000 0.0000 0.0000 0.0000 39.2325
#
#
#
# Elastic Compliance Matrix: (Units=1/GPa)
#
#
# Indices 1 2 3 4 5 6 
#
# 1 0.006558 -0.004372 -0.003042 0.000000 0.000000 0.000000
# 2 -0.004372 0.008945 0.002257 0.000000 0.000000 0.000000
# 3 -0.003042 0.002257 0.019055 0.000000 0.000000 0.000000
# 4 0.000000 0.000000 0.000000 0.031010 0.000000 0.000000
# 5 0.000000 0.000000 0.000000 0.000000 0.035899 0.000000
# 6 0.000000 0.000000 0.000000 0.000000 0.000000 0.025489
#
#
# Mechanical properties :
#
#
# Convention : Reuss Voigt Hill
#
# Bulk Modulus (GPa) = 41.24629 80.47698 60.86164
# Shear Modulus (GPa) = 34.39923 41.69173 38.04548
#
# Velocity S-wave (km/s) = 3.76154 4.14111 3.95588
# Velocity P-wave (km/s) = 5.98591 7.48112 6.77489
#
# Compressibility (1/GPa) = 0.02424460
#
# Stress axis : x y z
#
# Youngs Moduli (GPa) = 152.48914 111.78930 52.47859
#
# Poissons Ratio (x) = 0.48871 0.15965
# Poissons Ratio (y) = 0.66663 -0.11844
# Poissons Ratio (z) = 0.46391 -0.25230
#
# Static dielectric constant tensor:
#      x y z
#    x 1.956640 0.000000 0.000000 
#    y 0.000000 2.113790 0.000000 
#    z 0.000000 0.000000 2.122700 
# 
# From -- ./inp_files/40686.got.cif
#   From: 2010.05.17/outbox.cif.g08.bks.cpg/sg64_21_cif.got.tgz:40686.got - 2010.06.03 16:29:19.
