data_PCOD9479827
_publ_section_title
;
Structure prediction by ZEFSAII (Michael W. Deem and Ramdas Pophale) SiO2 
 PCOD9479827
Probable space group: C M C A
;
_chemical_formula_sum "Si O2"
_cell_formula_units_Z 72
_cell_length_a 29.022583
_cell_length_b 13.674445
_cell_length_c 8.392405
_cell_angle_alpha 90.000000
_cell_angle_beta 90.000000
_cell_angle_gamma 90.000000
_cell_volume 3330.674596
_symmetry_space_group_name_H-M "C M C A"
_symmetry_group_IT_number 64
_symmetry_cell_setting 'orthorhombic'
loop_
_space_group_symop_operation_xyz
x,y,z
-x,1/2-y,1/2+z
x,-y,-z
-x,1/2+y,1/2-z
-x,-y,-z
x,1/2+y,1/2-z
-x,y,z
x,1/2-y,1/2+z
1/2+x,1/2+y,z
1/2-x,-y,1/2+z
1/2+x,1/2-y,-z
1/2-x,y,1/2-z
1/2-x,1/2-y,-z
1/2+x,y,1/2-z
1/2-x,1/2+y,z
1/2+x,-y,1/2+z
loop_
_atom_site_type_symbol
_atom_site_label
_atom_site_fract_x
_atom_site_fract_y
_atom_site_fract_z
Si Si1 0.750000 0.742868 0.750000
Si Si2 0.553307 0.968884 0.323874
Si Si3 0.597606 0.874288 0.873163
Si Si4 0.200548 0.383601 0.003301
Si Si5 0.447859 0.729663 0.663621
O O1 0.771184 0.817016 0.621064
O O2 0.712434 0.669786 0.670319
O O3 0.500000 0.999402 0.302089
O O4 0.554610 0.853550 0.299274
O O5 0.567926 0.000000 0.500000
O O6 0.583374 0.019190 0.187618
O O7 0.647722 0.873893 0.949081
O O8 0.589526 0.809424 0.713927
O O9 0.563137 0.827190 0.001397
O O10 0.212390 0.500000 0.000000
O O11 0.500000 0.769523 0.657890
#
# Coordination Sequence:
#
# PCOD9479827 Si02
#       5
#     8  16  16  16  16
#     4  10  24  44  68  96 128 166 210 264 342 420
#     4  10  21  37  56  82 120 165 210 256 310 372
#     4  12  23  38  61  90 122 162 215 266 318 382
#     4  11  23  43  68  96 129 166 212 271 336 403
#     4  11  22  36  56  84 122 165 206 255 312 369
#
# _framework density 21.617242000000001
#
# number of rings (size 3 to 8) (size 9 to 14) (size 15 to 20)
#    0.000    1.111    0.000    7.333    0.000    3.556 
#    0.000    3.333    0.000    0.000    0.000    0.000 
#    0.000    0.000    0.000    0.000    0.000    0.000 
#
# Total GULP energy -201230.479124 kJ/mol
# GULP energy per Si atom -5589.735531 kJ/mol
# Density = 2.156804 g / cm^3
# Si number density = 21.617242 Si / 1000 Ang^3
#
#
#
# Elastic Constant Matrix: (Units=GPa)
#
#
# Indices 1 2 3 4 5 6 
#
# 1 93.6370 46.0265 29.4295 0.0000 0.0000 0.0000
# 2 46.0265 147.5486 24.3042 0.0000 0.0000 0.0000
# 3 29.4295 24.3042 70.9212 0.0000 0.0000 0.0000
# 4 0.0000 0.0000 0.0000 44.7656 0.0000 0.0000
# 5 0.0000 0.0000 0.0000 0.0000 31.1604 0.0000
# 6 0.0000 0.0000 0.0000 0.0000 0.0000 54.6041
#
#
#
# Elastic Compliance Matrix: (Units=1/GPa)
#
#
# Indices 1 2 3 4 5 6 
#
# 1 0.013861 -0.003578 -0.004525 0.000000 0.000000 0.000000
# 2 -0.003578 0.008107 -0.001293 0.000000 0.000000 0.000000
# 3 -0.004525 -0.001293 0.016421 0.000000 0.000000 0.000000
# 4 0.000000 0.000000 0.000000 0.022339 0.000000 0.000000
# 5 0.000000 0.000000 0.000000 0.000000 0.032092 0.000000
# 6 0.000000 0.000000 0.000000 0.000000 0.000000 0.018314
#
#
# Mechanical properties :
#
#
# Convention : Reuss Voigt Hill
#
# Bulk Modulus (GPa) = 51.03419 56.84747 53.94083
# Shear Modulus (GPa) = 36.64123 40.26246 38.45185
#
# Velocity S-wave (km/s) = 4.12150 4.32037 4.22211
# Velocity P-wave (km/s) = 6.80503 7.15834 6.98392
#
# Compressibility (1/GPa) = 0.01959471
#
# Stress axis : x y z
#
# Youngs Moduli (GPa) = 72.14633 123.35515 60.89687
#
# Poissons Ratio (x) = 0.44140 0.27558
# Poissons Ratio (y) = 0.25816 0.07875
# Poissons Ratio (z) = 0.32649 0.15953
#
# Static dielectric constant tensor:
#      x y z
#    x 1.738100 0.000000 0.000000 
#    y 0.000000 1.817400 0.000000 
#    z 0.000000 0.000000 1.833240 
# 
# From -- ./inp_files/9993.got.cif
#   From: 2010.05.17/outbox.cif.g08.bks.cpg/sg64_5_cif.got.tgz:9993.got - 2010.06.03 16:29:19.
