data_PCOD9479923
_publ_section_title
;
Structure prediction by ZEFSAII (Michael W. Deem and Ramdas Pophale) SiO2 
 PCOD9479923
Probable space group: C M C A
;
_chemical_formula_sum "Si O2"
_cell_formula_units_Z 64
_cell_length_a 9.722360
_cell_length_b 19.677081
_cell_length_c 14.918249
_cell_angle_alpha 90.000000
_cell_angle_beta 90.000000
_cell_angle_gamma 90.000000
_cell_volume 2853.975386
_symmetry_space_group_name_H-M "C M C A"
_symmetry_group_IT_number 64
_symmetry_cell_setting 'orthorhombic'
loop_
_space_group_symop_operation_xyz
x,y,z
-x,1/2-y,1/2+z
x,-y,-z
-x,1/2+y,1/2-z
-x,-y,-z
x,1/2+y,1/2-z
-x,y,z
x,1/2-y,1/2+z
1/2+x,1/2+y,z
1/2-x,-y,1/2+z
1/2+x,1/2-y,-z
1/2-x,y,1/2-z
1/2-x,1/2-y,-z
1/2+x,y,1/2-z
1/2-x,1/2+y,z
1/2+x,-y,1/2+z
loop_
_atom_site_type_symbol
_atom_site_label
_atom_site_fract_x
_atom_site_fract_y
_atom_site_fract_z
Si Si1 0.345900 0.909134 0.907351
Si Si2 0.847164 0.705121 0.379975
Si Si3 0.841965 0.023459 0.838910
Si Si4 0.263964 0.658207 0.930571
O O1 0.500000 0.925365 0.877790
O O2 0.271116 0.848126 0.852883
O O3 0.239194 0.970838 0.902079
O O4 0.348743 0.880849 0.008861
O O5 0.798327 0.782405 0.370090
O O6 0.851152 0.692709 0.488873
O O7 0.000000 0.692958 0.343956
O O8 0.750000 0.022254 0.750000
O O9 0.839698 0.099552 0.877250
O O10 0.000000 0.002033 0.826397
#
# Coordination Sequence:
#
# PCOD9479923 Si02
#       4
#    16  16  16  16
#     4  10  21  37  61  91 121 154 197 245 293 351
#     4   9  18  35  63  94 120 147 191 244 298 352
#     4  12  26  42  59  83 121 163 203 248 301 360
#     4   9  21  35  65  91 120 152 196 248 298 355
#
# _framework density 22.424861
#
# number of rings (size 3 to 8) (size 9 to 14) (size 15 to 20)
#    1.500    0.500    0.000    3.750    0.000    7.000 
#    0.000    1.250    0.000    3.000    0.000    0.000 
#    0.000    0.000    0.000    0.000    0.000    0.000 
#
# Total GULP energy -178319.806967 kJ/mol
# GULP energy per Si atom -5572.493968 kJ/mol
# Density = 2.237382 g / cm^3
# Si number density = 22.424861 Si / 1000 Ang^3
#
#
#
# Elastic Constant Matrix: (Units=GPa)
#
#
# Indices 1 2 3 4 5 6 
#
# 1 216.3118 59.8998 17.4216 0.0000 0.0000 0.0000
# 2 59.8998 132.7051 10.7786 0.0000 0.0000 0.0000
# 3 17.4216 10.7786 37.4470 0.0000 0.0000 0.0000
# 4 0.0000 0.0000 0.0000 -8.3183 0.0000 0.0000
# 5 0.0000 0.0000 0.0000 0.0000 14.2079 0.0000
# 6 0.0000 0.0000 0.0000 0.0000 0.0000 -3.8723
#
#
#
# Elastic Compliance Matrix: (Units=1/GPa)
#
#
# Indices 1 2 3 4 5 6 
#
# 1 0.005406 -0.002290 -0.001856 0.000000 0.000000 0.000000
# 2 -0.002290 0.008686 -0.001435 0.000000 0.000000 0.000000
# 3 -0.001856 -0.001435 0.027981 0.000000 0.000000 0.000000
# 4 0.000000 0.000000 0.000000 -0.120218 0.000000 0.000000
# 5 0.000000 0.000000 0.000000 0.000000 0.070383 0.000000
# 6 0.000000 0.000000 0.000000 0.000000 0.000000 -0.258242
#
#
# Mechanical properties :
#
#
# Convention : Reuss Voigt Hill
#
# Bulk Modulus (GPa) = 32.35024 62.51822 47.43423
# Shear Modulus (GPa) = -20.44674 20.29439 -0.07618
#
# Velocity S-wave (km/s) = -3.02286 3.01158 -0.18451
# Velocity P-wave (km/s) = 1.50791 6.32711 4.59924
#
# Compressibility (1/GPa) = 0.03091167
#
# Stress axis : x y z
#
# Youngs Moduli (GPa) = 184.96344 115.13438 35.73856
#
# Poissons Ratio (x) = 0.26361 0.06634
# Poissons Ratio (y) = 0.42349 0.05128
# Poissons Ratio (z) = 0.34334 0.16520
#
# Static dielectric constant tensor:
#      x y z
#    x 1.798310 0.000000 0.000000 
#    y 0.000000 1.847930 0.000000 
#    z 0.000000 0.000000 2.256140 
# 
# From -- ./inp_files/36465.got.cif
#   From: 2010.05.17/outbox.cif.g08.bks.cpg/sg64_19_cif.got.tgz:36465.got - 2010.06.03 16:29:19.
