data_PCOD9479644
_publ_section_title
;
Structure prediction by ZEFSAII (Michael W. Deem and Ramdas Pophale) SiO2 
 PCOD9479644
Probable space group: C M C A
;
_chemical_formula_sum "Si O2"
_cell_formula_units_Z 80
_cell_length_a 17.905038
_cell_length_b 25.183515
_cell_length_c 9.764867
_cell_angle_alpha 90.000000
_cell_angle_beta 90.000000
_cell_angle_gamma 90.000000
_cell_volume 4403.093688
_symmetry_space_group_name_H-M "C M C A"
_symmetry_group_IT_number 64
_symmetry_cell_setting 'orthorhombic'
loop_
_space_group_symop_operation_xyz
x,y,z
-x,1/2-y,1/2+z
x,-y,-z
-x,1/2+y,1/2-z
-x,-y,-z
x,1/2+y,1/2-z
-x,y,z
x,1/2-y,1/2+z
1/2+x,1/2+y,z
1/2-x,-y,1/2+z
1/2+x,1/2-y,-z
1/2-x,y,1/2-z
1/2-x,1/2-y,-z
1/2+x,y,1/2-z
1/2-x,1/2+y,z
1/2+x,-y,1/2+z
loop_
_atom_site_type_symbol
_atom_site_label
_atom_site_fract_x
_atom_site_fract_y
_atom_site_fract_z
Si Si1 0.695070 0.848464 0.551484
Si Si2 0.583686 0.879023 0.088477
Si Si3 0.411662 0.205044 0.667314
Si Si4 0.270468 0.551939 0.592579
Si Si5 0.646769 0.821307 0.837577
O O1 0.638400 0.815813 0.457707
O O2 0.718298 0.902105 0.473237
O O3 0.659177 0.855934 0.701262
O O4 0.773028 0.818289 0.585073
O O5 0.500000 0.899487 0.107342
O O6 0.598706 0.835598 0.206948
O O7 0.646325 0.923853 0.091294
O O8 0.591862 0.848666 0.944597
O O9 0.500000 0.206902 0.634335
O O10 0.382548 0.263583 0.703561
O O11 0.265293 0.500000 0.500000
O O12 0.250000 0.541550 0.750000
#
# Coordination Sequence:
#
# PCOD9479644 Si02
#       5
#    16  16  16  16  16
#     4  10  22  39  58  89 121 157 201 252 297 344
#     4  10  22  39  60  90 125 159 197 246 299 352
#     4  11  21  36  58  87 126 168 198 235 294 355
#     4  11  24  42  69  87 114 150 203 256 306 355
#     4  10  21  34  59  90 126 158 207 233 284 360
#
# _framework density 18.169044
#
# number of rings (size 3 to 8) (size 9 to 14) (size 15 to 20)
#    0.000    1.600    2.000    2.400    5.600    8.400 
#    0.000    0.000    0.000    1.200    0.000    0.000 
#    0.000    0.000    0.000    0.000    0.000    0.000 
#
# Total GULP energy -223372.149972 kJ/mol
# GULP energy per Si atom -5584.303749 kJ/mol
# Density = 1.812769 g / cm^3
# Si number density = 18.169044 Si / 1000 Ang^3
#
#
#
# Elastic Constant Matrix: (Units=GPa)
#
#
# Indices 1 2 3 4 5 6 
#
# 1 73.8985 44.4388 55.1663 0.0000 0.0000 0.0000
# 2 44.4388 89.6300 46.6772 0.0000 0.0000 0.0000
# 3 55.1663 46.6772 133.0599 0.0000 0.0000 0.0000
# 4 0.0000 0.0000 0.0000 26.8198 0.0000 0.0000
# 5 0.0000 0.0000 0.0000 0.0000 15.0075 0.0000
# 6 0.0000 0.0000 0.0000 0.0000 0.0000 10.6411
#
#
#
# Elastic Compliance Matrix: (Units=1/GPa)
#
#
# Indices 1 2 3 4 5 6 
#
# 1 0.023565 -0.008070 -0.006939 0.000000 0.000000 0.000000
# 2 -0.008070 0.016414 -0.002412 0.000000 0.000000 0.000000
# 3 -0.006939 -0.002412 0.011239 0.000000 0.000000 0.000000
# 4 0.000000 0.000000 0.000000 0.037286 0.000000 0.000000
# 5 0.000000 0.000000 0.000000 0.000000 0.066633 0.000000
# 6 0.000000 0.000000 0.000000 0.000000 0.000000 0.093975
#
#
# Mechanical properties :
#
#
# Convention : Reuss Voigt Hill
#
# Bulk Modulus (GPa) = 61.06769 65.46145 63.26457
# Shear Modulus (GPa) = 17.27632 20.51407 18.89519
#
# Velocity S-wave (km/s) = 3.08696 3.36380 3.22835
# Velocity P-wave (km/s) = 6.81099 7.15501 6.98512
#
# Compressibility (1/GPa) = 0.01637527
#
# Stress axis : x y z
#
# Youngs Moduli (GPa) = 42.43574 60.92228 88.97894
#
# Poissons Ratio (x) = 0.49164 0.61743
# Poissons Ratio (y) = 0.34245 0.21465
# Poissons Ratio (z) = 0.29447 0.14697
#
# Static dielectric constant tensor:
#      x y z
#    x 1.631340 0.000000 0.000000 
#    y 0.000000 1.584910 0.000000 
#    z 0.000000 0.000000 1.620640 
# 
# From -- ./inp_files/7065.got.cif
#   From: 2010.05.17/outbox.cif.g08.bks.cpg/sg64_4_cif.got.tgz:7065.got - 2010.06.03 16:29:19.
