data_PCOD9479162
_publ_section_title
;
Structure prediction by ZEFSAII (Michael W. Deem and Ramdas Pophale) SiO2 
 PCOD9479162
Probable space group: C M C A
;
_chemical_formula_sum "Si O2"
_cell_formula_units_Z 48
_cell_length_a 19.377011
_cell_length_b 5.386609
_cell_length_c 18.638543
_cell_angle_alpha 90.000000
_cell_angle_beta 90.000000
_cell_angle_gamma 90.000000
_cell_volume 1945.423681
_symmetry_space_group_name_H-M "C M C A"
_symmetry_group_IT_number 64
_symmetry_cell_setting 'orthorhombic'
loop_
_space_group_symop_operation_xyz
x,y,z
-x,1/2-y,1/2+z
x,-y,-z
-x,1/2+y,1/2-z
-x,-y,-z
x,1/2+y,1/2-z
-x,y,z
x,1/2-y,1/2+z
1/2+x,1/2+y,z
1/2-x,-y,1/2+z
1/2+x,1/2-y,-z
1/2-x,y,1/2-z
1/2-x,1/2-y,-z
1/2+x,y,1/2-z
1/2-x,1/2+y,z
1/2+x,-y,1/2+z
loop_
_atom_site_type_symbol
_atom_site_label
_atom_site_fract_x
_atom_site_fract_y
_atom_site_fract_z
Si Si1 0.721879 0.291466 0.917930
Si Si2 0.082599 0.206771 0.284684
Si Si3 0.923890 0.881701 0.421650
O O1 0.755502 0.531808 0.883614
O O2 0.639566 0.305522 0.919163
O O3 0.750000 0.250000 0.000000
O O4 0.110060 0.978371 0.235698
O O5 0.089165 0.101401 0.364767
O O6 0.000000 0.227999 0.271627
O O7 0.000000 0.772981 0.406576
O O8 0.924071 0.000000 0.500000
#
# Coordination Sequence:
#
# PCOD9479162 Si02
#       3
#    16  16  16
#     4  10  20  38  57  83 119 166 190 237 309 373
#     4   9  19  37  57  82 121 162 193 241 314 368
#     4  10  20  37  64  98 122 152 213 267 294 352
#
# _framework density 24.673289
#
# number of rings (size 3 to 8) (size 9 to 14) (size 15 to 20)
#    0.000    2.333    3.333    0.000    0.000    2.667 
#    0.000    8.333    0.000    6.000    0.000    0.000 
#    0.000    0.000    0.000    0.000    0.000    0.000 
#
# Total GULP energy -134152.236173 kJ/mol
# GULP energy per Si atom -5589.676507 kJ/mol
# Density = 2.461713 g / cm^3
# Si number density = 24.673289 Si / 1000 Ang^3
#
#
#
# Elastic Constant Matrix: (Units=GPa)
#
#
# Indices 1 2 3 4 5 6 
#
# 1 160.3023 33.3501 -0.4943 0.0000 0.0000 0.0000
# 2 33.3501 110.0428 -3.8004 0.0000 0.0000 0.0000
# 3 -0.4943 -3.8004 115.1591 0.0000 0.0000 0.0000
# 4 0.0000 0.0000 0.0000 19.1790 0.0000 0.0000
# 5 0.0000 0.0000 0.0000 0.0000 7.3240 0.0000
# 6 0.0000 0.0000 0.0000 0.0000 0.0000 13.4438
#
#
#
# Elastic Compliance Matrix: (Units=1/GPa)
#
#
# Indices 1 2 3 4 5 6 
#
# 1 0.006658 -0.002019 -0.000038 0.000000 0.000000 0.000000
# 2 -0.002019 0.009710 0.000312 0.000000 0.000000 0.000000
# 3 -0.000038 0.000312 0.008694 0.000000 0.000000 0.000000
# 4 0.000000 0.000000 0.000000 0.052140 0.000000 0.000000
# 5 0.000000 0.000000 0.000000 0.000000 0.136538 0.000000
# 6 0.000000 0.000000 0.000000 0.000000 0.000000 0.074383
#
#
# Mechanical properties :
#
#
# Convention : Reuss Voigt Hill
#
# Bulk Modulus (GPa) = 46.35829 49.29056 47.82442
# Shear Modulus (GPa) = 16.73331 31.75261 24.24296
#
# Velocity S-wave (km/s) = 2.60704 3.59126 3.13798
# Velocity P-wave (km/s) = 5.28128 6.10056 5.70564
#
# Compressibility (1/GPa) = 0.02157112
#
# Stress axis : x y z
#
# Youngs Moduli (GPa) = 150.19125 102.98574 115.02498
#
# Poissons Ratio (x) = 0.20795 0.00438
# Poissons Ratio (y) = 0.30326 -0.03586
# Poissons Ratio (z) = 0.00572 -0.03211
#
# Static dielectric constant tensor:
#      x y z
#    x 1.987120 0.000000 0.000000 
#    y 0.000000 2.065000 0.000000 
#    z 0.000000 0.000000 1.980680 
# 
# From -- ./inp_files/34734.got.cif
#   From: 2010.05.17/outbox.cif.g08.bks.cpg/sg64_18_cif.got.tgz:34734.got - 2010.06.03 16:29:19.
