data_PCOD9479460
_publ_section_title
;
Structure prediction by ZEFSAII (Michael W. Deem and Ramdas Pophale) SiO2 
 PCOD9479460
Probable space group: C M C A
;
_chemical_formula_sum "Si O2"
_cell_formula_units_Z 88
_cell_length_a 18.385261
_cell_length_b 17.491009
_cell_length_c 12.230597
_cell_angle_alpha 90.000000
_cell_angle_beta 90.000000
_cell_angle_gamma 90.000000
_cell_volume 3933.075825
_symmetry_space_group_name_H-M "C M C A"
_symmetry_group_IT_number 64
_symmetry_cell_setting 'orthorhombic'
loop_
_space_group_symop_operation_xyz
x,y,z
-x,1/2-y,1/2+z
x,-y,-z
-x,1/2+y,1/2-z
-x,-y,-z
x,1/2+y,1/2-z
-x,y,z
x,1/2-y,1/2+z
1/2+x,1/2+y,z
1/2-x,-y,1/2+z
1/2+x,1/2-y,-z
1/2-x,y,1/2-z
1/2-x,1/2-y,-z
1/2+x,y,1/2-z
1/2-x,1/2+y,z
1/2+x,-y,1/2+z
loop_
_atom_site_type_symbol
_atom_site_label
_atom_site_fract_x
_atom_site_fract_y
_atom_site_fract_z
Si Si1 0.342336 0.866786 0.913015
Si Si2 0.500000 0.716058 0.649194
Si Si3 0.752182 0.500000 0.000000
Si Si4 0.160204 0.081374 0.166885
Si Si5 0.000000 0.520073 0.370466
Si Si6 0.500000 0.910610 0.982196
Si Si7 0.372118 0.790558 0.514393
Si Si8 0.000000 0.148372 0.868771
O O1 0.322056 0.893556 0.790286
O O2 0.428392 0.882636 0.921130
O O3 0.304091 0.925794 0.997019
O O4 0.334471 0.778149 0.947986
O O5 0.500000 0.632015 0.597835
O O6 0.427834 0.754134 0.601817
O O7 0.500000 0.713219 0.777668
O O8 0.701689 0.510580 0.107894
O O9 0.176371 0.151534 0.083906
O O10 0.073879 0.063624 0.159275
O O11 0.000000 0.500000 0.500000
O O12 0.000000 0.435912 0.319241
O O13 0.500000 0.000000 0.000000
O O14 0.426562 0.838788 0.437349
#
# Coordination Sequence:
#
# PCOD9479460 Si02
#       8
#    16   8   8  16   8   8  16   8
#     4  11  25  43  70  97 135 182 221 277 341 391
#     4   9  20  31  58  96 133 167 216 272 329 387
#     4  12  26  46  64  96 136 168 230 278 326 418
#     4  12  24  44  69  98 137 182 221 274 346 390
#     4  12  21  40  66 102 136 173 217 283 320 393
#     4  10  20  40  62  97 132 169 219 279 316 393
#     4  10  21  40  62  93 136 172 228 277 321 406
#     4  11  19  33  60  99 136 175 218 271 340 384
#
# _framework density 22.374347
#
# number of rings (size 3 to 8) (size 9 to 14) (size 15 to 20)
#    0.000    1.091    3.636    3.273    2.545    0.727 
#    0.000    5.455    0.000    0.000    0.000    0.000 
#    0.000    0.000    0.000    0.000    0.000    0.000 
#
# Total GULP energy -245894.738748 kJ/mol
# GULP energy per Si atom -5588.516790 kJ/mol
# Density = 2.232342 g / cm^3
# Si number density = 22.374347 Si / 1000 Ang^3
#
#
#
# Elastic Constant Matrix: (Units=GPa)
#
#
# Indices 1 2 3 4 5 6 
#
# 1 93.2776 35.0843 26.8535 0.0000 0.0000 0.0000
# 2 35.0843 137.1149 37.9185 0.0000 0.0000 0.0000
# 3 26.8535 37.9185 131.5603 0.0000 0.0000 0.0000
# 4 0.0000 0.0000 0.0000 28.7791 0.0000 0.0000
# 5 0.0000 0.0000 0.0000 0.0000 15.3317 0.0000
# 6 0.0000 0.0000 0.0000 0.0000 0.0000 -9.0998
#
#
#
# Elastic Compliance Matrix: (Units=1/GPa)
#
#
# Indices 1 2 3 4 5 6 
#
# 1 0.012214 -0.002647 -0.001730 0.000000 0.000000 0.000000
# 2 -0.002647 0.008498 -0.001909 0.000000 0.000000 0.000000
# 3 -0.001730 -0.001909 0.008505 0.000000 0.000000 0.000000
# 4 0.000000 0.000000 0.000000 0.034747 0.000000 0.000000
# 5 0.000000 0.000000 0.000000 0.000000 0.065225 0.000000
# 6 0.000000 0.000000 0.000000 0.000000 0.000000 -0.109892
#
#
# Mechanical properties :
#
#
# Convention : Reuss Voigt Hill
#
# Bulk Modulus (GPa) = 60.07909 62.40725 61.24317
# Shear Modulus (GPa) = 133.62572 24.47530 79.05051
#
# Velocity S-wave (km/s) = 7.73643 3.31100 5.95043
# Velocity P-wave (km/s) = 10.33021 6.52456 8.63953
#
# Compressibility (1/GPa) = 0.01664473
#
# Stress axis : x y z
#
# Youngs Moduli (GPa) = 81.87084 117.66949 117.58470
#
# Poissons Ratio (x) = 0.31145 0.20345
# Poissons Ratio (y) = 0.21670 0.22449
# Poissons Ratio (z) = 0.14166 0.22465
#
# Static dielectric constant tensor:
#      x y z
#    x 1.877600 0.000000 0.000000 
#    y 0.000000 1.859170 0.000000 
#    z 0.000000 0.000000 1.822110 
# 
# From -- ./inp_files/17221.got.cif
#   From: 2010.05.17/outbox.cif.g08.bks.cpg/sg64_9_cif.got.tgz:17221.got - 2010.06.03 16:29:19.
