data_PCOD9479433
_publ_section_title
;
Structure prediction by ZEFSAII (Michael W. Deem and Ramdas Pophale) SiO2 
 PCOD9479433
Probable space group: C M C A
;
_chemical_formula_sum "Si O2"
_cell_formula_units_Z 64
_cell_length_a 13.527770
_cell_length_b 7.185670
_cell_length_c 26.173074
_cell_angle_alpha 90.000000
_cell_angle_beta 90.000000
_cell_angle_gamma 90.000000
_cell_volume 2544.182214
_symmetry_space_group_name_H-M "C M C A"
_symmetry_group_IT_number 64
_symmetry_cell_setting 'orthorhombic'
loop_
_space_group_symop_operation_xyz
x,y,z
-x,1/2-y,1/2+z
x,-y,-z
-x,1/2+y,1/2-z
-x,-y,-z
x,1/2+y,1/2-z
-x,y,z
x,1/2-y,1/2+z
1/2+x,1/2+y,z
1/2-x,-y,1/2+z
1/2+x,1/2-y,-z
1/2-x,y,1/2-z
1/2-x,1/2-y,-z
1/2+x,y,1/2-z
1/2-x,1/2+y,z
1/2+x,-y,1/2+z
loop_
_atom_site_type_symbol
_atom_site_label
_atom_site_fract_x
_atom_site_fract_y
_atom_site_fract_z
Si Si1 0.611578 0.480605 0.060786
Si Si2 0.303237 0.139588 0.115262
Si Si3 0.884052 0.681204 0.820174
Si Si4 0.616854 0.888096 0.295877
O O1 0.500000 0.535952 0.077422
O O2 0.630264 0.267337 0.078258
O O3 0.701708 0.595977 0.085370
O O4 0.616365 0.500000 0.000000
O O5 0.158342 0.438581 0.133293
O O6 0.317596 0.253343 0.169094
O O7 0.855245 0.611413 0.763469
O O8 0.000000 0.644718 0.822786
O O9 0.872891 0.903984 0.817237
O O10 0.500000 0.833259 0.299306
#
# Coordination Sequence:
#
# PCOD9479433 Si02
#       4
#    16  16  16  16
#     4  11  28  56  86 118 159 209 276 354 425 494
#     4  12  25  48  84 118 158 214 272 329 404 487
#     4  10  20  39  75 123 172 221 270 326 395 484
#     4  10  20  39  74 122 170 218 273 323 389 489
#
# _framework density 25.155432000000001
#
# number of rings (size 3 to 8) (size 9 to 14) (size 15 to 20)
#    0.000    1.250    2.500    3.000    3.500    0.000 
#    0.000    6.250    0.000   13.500    0.000    0.000 
#    0.000    0.000    0.000    0.000    0.000    0.000 
#
# Total GULP energy -179233.374044 kJ/mol
# GULP energy per Si atom -5601.042939 kJ/mol
# Density = 2.509818 g / cm^3
# Si number density = 25.155432 Si / 1000 Ang^3
#
#
#
# Elastic Constant Matrix: (Units=GPa)
#
#
# Indices 1 2 3 4 5 6 
#
# 1 195.9404 57.8203 72.2486 0.0000 0.0000 0.0000
# 2 57.8203 138.4088 49.2055 0.0000 0.0000 0.0000
# 3 72.2486 49.2055 151.6440 0.0000 0.0000 0.0000
# 4 0.0000 0.0000 0.0000 30.9279 0.0000 0.0000
# 5 0.0000 0.0000 0.0000 0.0000 52.5819 0.0000
# 6 0.0000 0.0000 0.0000 0.0000 0.0000 43.4860
#
#
#
# Elastic Compliance Matrix: (Units=1/GPa)
#
#
# Indices 1 2 3 4 5 6 
#
# 1 0.006585 -0.001849 -0.002537 0.000000 0.000000 0.000000
# 2 -0.001849 0.008686 -0.001938 0.000000 0.000000 0.000000
# 3 -0.002537 -0.001938 0.008432 0.000000 0.000000 0.000000
# 4 0.000000 0.000000 0.000000 0.032333 0.000000 0.000000
# 5 0.000000 0.000000 0.000000 0.000000 0.019018 0.000000
# 6 0.000000 0.000000 0.000000 0.000000 0.000000 0.022996
#
#
# Mechanical properties :
#
#
# Convention : Reuss Voigt Hill
#
# Bulk Modulus (GPa) = 90.45350 93.83800 92.14575
# Shear Modulus (GPa) = 43.71295 45.84708 44.78002
#
# Velocity S-wave (km/s) = 4.17311 4.27377 4.22374
# Velocity P-wave (km/s) = 7.69777 7.85733 7.77796
#
# Compressibility (1/GPa) = 0.01105540
#
# Stress axis : x y z
#
# Youngs Moduli (GPa) = 151.86686 115.12586 118.59585
#
# Poissons Ratio (x) = 0.21284 0.30092
# Poissons Ratio (y) = 0.28076 0.22980
# Poissons Ratio (z) = 0.38533 0.22308
#
# Static dielectric constant tensor:
#      x y z
#    x 2.118610 0.000000 0.000000 
#    y 0.000000 2.016580 0.000000 
#    z 0.000000 0.000000 2.018610 
# 
# From -- ./inp_files/53096.got.cif
#   From: 2010.05.17/outbox.cif.g08.bks.cpg/sg64_27_cif.got.tgz:53096.got - 2010.06.03 16:29:19.
