data_PCOD9479601
_publ_section_title
;
Structure prediction by ZEFSAII (Michael W. Deem and Ramdas Pophale) SiO2 
 PCOD9479601
Probable space group: C M C A
;
_chemical_formula_sum "Si O2"
_cell_formula_units_Z 68
_cell_length_a 27.983595
_cell_length_b 24.453472
_cell_length_c 4.883613
_cell_angle_alpha 90.000000
_cell_angle_beta 90.000000
_cell_angle_gamma 90.000000
_cell_volume 3341.837119
_symmetry_space_group_name_H-M "C M C A"
_symmetry_group_IT_number 64
_symmetry_cell_setting 'orthorhombic'
loop_
_space_group_symop_operation_xyz
x,y,z
-x,1/2-y,1/2+z
x,-y,-z
-x,1/2+y,1/2-z
-x,-y,-z
x,1/2+y,1/2-z
-x,y,z
x,1/2-y,1/2+z
1/2+x,1/2+y,z
1/2-x,-y,1/2+z
1/2+x,1/2-y,-z
1/2-x,y,1/2-z
1/2-x,1/2-y,-z
1/2+x,y,1/2-z
1/2-x,1/2+y,z
1/2+x,-y,1/2+z
loop_
_atom_site_type_symbol
_atom_site_label
_atom_site_fract_x
_atom_site_fract_y
_atom_site_fract_z
Si Si1 0.097652 0.553045 0.128201
Si Si2 0.056873 0.215767 0.186395
Si Si3 0.500000 0.500000 0.500000
Si Si4 0.882765 0.124656 0.884509
Si Si5 0.193654 0.712864 0.781617
O O1 0.043107 0.532497 0.169810
O O2 0.122647 0.575495 0.398709
O O3 0.123231 0.500000 0.000000
O O4 0.096387 0.599117 0.892733
O O5 0.069249 0.231883 0.495368
O O6 0.000000 0.208014 0.171304
O O7 0.082139 0.164879 0.049855
O O8 0.837093 0.160961 0.805942
O O9 0.183273 0.764717 0.584095
O O10 0.250000 0.701337 0.750000
#
# Coordination Sequence:
#
# PCOD9479601 Si02
#       5
#    16  16   4  16  16
#     4  10  24  37  58  82 115 149 205 254 293 344
#     4  10  21  32  46  74 110 144 183 225 277 349
#     4   8  24  42  56  82 120 154 216 262 296 342
#     4  12  21  36  61  82 112 158 195 244 298 358
#     4  10  21  38  62  92 123 152 192 245 301 369
#
# _framework density 20.348091
#
# number of rings (size 3 to 8) (size 9 to 14) (size 15 to 20)
#    0.706    0.941    0.000    4.941    3.294    0.941 
#    0.000    0.000    0.000    2.824    0.000    0.000 
#    0.000    0.000    0.000    0.000    0.000    0.000 
#
# Total GULP energy -189369.200039 kJ/mol
# GULP energy per Si atom -5569.682354 kJ/mol
# Density = 2.030178 g / cm^3
# Si number density = 20.348091 Si / 1000 Ang^3
#
#
#
# Elastic Constant Matrix: (Units=GPa)
#
#
# Indices 1 2 3 4 5 6 
#
# 1 72.3315 28.9184 -0.5777 0.0000 0.0000 0.0000
# 2 28.9184 72.8679 16.4469 0.0000 0.0000 0.0000
# 3 -0.5777 16.4469 88.1416 0.0000 0.0000 0.0000
# 4 0.0000 0.0000 0.0000 41.8657 0.0000 0.0000
# 5 0.0000 0.0000 0.0000 0.0000 16.3868 0.0000
# 6 0.0000 0.0000 0.0000 0.0000 0.0000 0.7691
#
#
#
# Elastic Compliance Matrix: (Units=1/GPa)
#
#
# Indices 1 2 3 4 5 6 
#
# 1 0.016596 -0.006901 0.001397 0.000000 0.000000 0.000000
# 2 -0.006901 0.017197 -0.003254 0.000000 0.000000 0.000000
# 3 0.001397 -0.003254 0.011962 0.000000 0.000000 0.000000
# 4 0.000000 0.000000 0.000000 0.023886 0.000000 0.000000
# 5 0.000000 0.000000 0.000000 0.000000 0.061025 0.000000
# 6 0.000000 0.000000 0.000000 0.000000 0.000000 1.300264
#
#
# Mechanical properties :
#
#
# Convention : Reuss Voigt Hill
#
# Bulk Modulus (GPa) = 35.41537 35.87957 35.64747
# Shear Modulus (GPa) = 3.42969 24.37454 13.90211
#
# Velocity S-wave (km/s) = 1.29968 3.46479 2.61667
# Velocity P-wave (km/s) = 4.43788 5.80324 5.16587
#
# Compressibility (1/GPa) = 0.02823633
#
# Stress axis : x y z
#
# Youngs Moduli (GPa) = 60.25703 58.15033 83.59993
#
# Poissons Ratio (x) = 0.40131 -0.11675
# Poissons Ratio (y) = 0.41585 0.27204
# Poissons Ratio (z) = -0.08415 0.18923
#
# Static dielectric constant tensor:
#      x y z
#    x 1.699490 0.000000 0.000000 
#    y 0.000000 1.780570 0.000000 
#    z 0.000000 0.000000 1.751930 
# 
# From -- ./inp_files/2770.got.cif
#   From: 2010.05.17/outbox.cif.g08.bks.cpg/sg64_2_cif.got.tgz:2770.got - 2010.06.03 16:29:19.
