data_PCOD9479554
_publ_section_title
;
Structure prediction by ZEFSAII (Michael W. Deem and Ramdas Pophale) SiO2 
 PCOD9479554
Probable space group: C M C A
;
_chemical_formula_sum "Si O2"
_cell_formula_units_Z 72
_cell_length_a 28.739028
_cell_length_b 10.795543
_cell_length_c 11.782723
_cell_angle_alpha 90.000000
_cell_angle_beta 90.000000
_cell_angle_gamma 90.000000
_cell_volume 3655.630020
_symmetry_space_group_name_H-M "C M C A"
_symmetry_group_IT_number 64
_symmetry_cell_setting 'orthorhombic'
loop_
_space_group_symop_operation_xyz
x,y,z
-x,1/2-y,1/2+z
x,-y,-z
-x,1/2+y,1/2-z
-x,-y,-z
x,1/2+y,1/2-z
-x,y,z
x,1/2-y,1/2+z
1/2+x,1/2+y,z
1/2-x,-y,1/2+z
1/2+x,1/2-y,-z
1/2-x,y,1/2-z
1/2-x,1/2-y,-z
1/2+x,y,1/2-z
1/2-x,1/2+y,z
1/2+x,-y,1/2+z
loop_
_atom_site_type_symbol
_atom_site_label
_atom_site_fract_x
_atom_site_fract_y
_atom_site_fract_z
Si Si1 0.933069 0.593534 0.099450
Si Si2 0.299223 0.129625 0.686892
Si Si3 0.000000 0.307401 0.464473
Si Si4 0.671705 0.902426 0.830366
Si Si5 0.500000 0.047947 0.305918
Si Si6 0.749435 0.000000 0.500000
O O1 0.877715 0.590448 0.108597
O O2 0.956347 0.558410 0.220118
O O3 0.954999 0.724691 0.064360
O O4 0.947242 0.500000 0.000000
O O5 0.250000 0.137379 0.750000
O O6 0.323539 0.260247 0.707929
O O7 0.283992 0.100416 0.558630
O O8 0.325693 0.009109 0.734871
O O9 0.000000 0.423049 0.379126
O O10 0.000000 0.347579 0.596075
O O11 0.715890 0.934005 0.910827
#
# Coordination Sequence:
#
# PCOD9479554 Si02
#       6
#    16  16   8  16   8   8
#     4  11  25  42  68  98 131 168 214 268 335 387
#     4  10  22  40  63  90 127 176 214 265 321 379
#     4  10  24  45  69  93 132 166 215 266 338 393
#     4  11  23  40  64  96 127 168 220 269 319 391
#     4  10  24  45  69  95 128 172 209 270 332 407
#     4  10  20  42  60  89 132 171 218 268 324 384
#
# _framework density 19.695647000000001
#
# number of rings (size 3 to 8) (size 9 to 14) (size 15 to 20)
#    0.000    1.556    1.111    4.000    9.333    1.778 
#    4.000    0.000    0.000    0.000    0.000    0.000 
#    0.000    0.000    0.000    0.000    0.000    0.000 
#
# Total GULP energy -200897.775901 kJ/mol
# GULP energy per Si atom -5580.493775 kJ/mol
# Density = 1.965082 g / cm^3
# Si number density = 19.695647 Si / 1000 Ang^3
#
#
#
# Elastic Constant Matrix: (Units=GPa)
#
#
# Indices 1 2 3 4 5 6 
#
# 1 84.4378 50.5885 24.1190 0.0000 0.0000 0.0000
# 2 50.5885 141.8583 59.4759 0.0000 0.0000 0.0000
# 3 24.1190 59.4759 108.7288 0.0000 0.0000 0.0000
# 4 0.0000 0.0000 0.0000 29.6106 0.0000 0.0000
# 5 0.0000 0.0000 0.0000 0.0000 11.5859 0.0000
# 6 0.0000 0.0000 0.0000 0.0000 0.0000 1.1839
#
#
#
# Elastic Compliance Matrix: (Units=1/GPa)
#
#
# Indices 1 2 3 4 5 6 
#
# 1 0.015084 -0.005160 -0.000524 0.000000 0.000000 0.000000
# 2 -0.005160 0.010912 -0.004824 0.000000 0.000000 0.000000
# 3 -0.000524 -0.004824 0.011952 0.000000 0.000000 0.000000
# 4 0.000000 0.000000 0.000000 0.033772 0.000000 0.000000
# 5 0.000000 0.000000 0.000000 0.000000 0.086312 0.000000
# 6 0.000000 0.000000 0.000000 0.000000 0.000000 0.844639
#
#
# Mechanical properties :
#
#
# Convention : Reuss Voigt Hill
#
# Bulk Modulus (GPa) = 59.05675 67.04351 63.05013
# Shear Modulus (GPa) = 4.85753 21.86552 13.36152
#
# Velocity S-wave (km/s) = 1.57215 3.33554 2.60744
# Velocity P-wave (km/s) = 5.77454 6.99629 6.41457
#
# Compressibility (1/GPa) = 0.01693286
#
# Stress axis : x y z
#
# Youngs Moduli (GPa) = 66.29625 91.64259 83.66528
#
# Poissons Ratio (x) = 0.47283 0.04381
# Poissons Ratio (y) = 0.34206 0.40364
# Poissons Ratio (z) = 0.03472 0.44212
#
# Static dielectric constant tensor:
#      x y z
#    x 1.658290 0.000000 0.000000 
#    y 0.000000 1.713950 0.000000 
#    z 0.000000 0.000000 1.726420 
# 
# From -- ./inp_files/18964.got.cif
#   From: 2010.05.17/outbox.cif.g08.bks.cpg/sg64_10_cif.got.tgz:18964.got - 2010.06.03 16:29:19.
