data_PCOD9479993
_publ_section_title
;
Structure prediction by ZEFSAII (Michael W. Deem and Ramdas Pophale) SiO2 
 PCOD9479993
Probable space group: C M C A
;
_chemical_formula_sum "Si O2"
_cell_formula_units_Z 96
_cell_length_a 8.517251
_cell_length_b 21.183855
_cell_length_c 27.501044
_cell_angle_alpha 90.000000
_cell_angle_beta 90.000000
_cell_angle_gamma 90.000000
_cell_volume 4961.964147
_symmetry_space_group_name_H-M "C M C A"
_symmetry_group_IT_number 64
_symmetry_cell_setting 'orthorhombic'
loop_
_space_group_symop_operation_xyz
x,y,z
-x,1/2-y,1/2+z
x,-y,-z
-x,1/2+y,1/2-z
-x,-y,-z
x,1/2+y,1/2-z
-x,y,z
x,1/2-y,1/2+z
1/2+x,1/2+y,z
1/2-x,-y,1/2+z
1/2+x,1/2-y,-z
1/2-x,y,1/2-z
1/2-x,1/2-y,-z
1/2+x,y,1/2-z
1/2-x,1/2+y,z
1/2+x,-y,1/2+z
loop_
_atom_site_type_symbol
_atom_site_label
_atom_site_fract_x
_atom_site_fract_y
_atom_site_fract_z
Si Si1 0.188640 0.564344 0.863170
Si Si2 0.808702 0.812493 0.639951
Si Si3 0.811406 0.811751 0.527591
Si Si4 0.189792 0.939102 0.695087
Si Si5 0.811236 0.185254 0.804918
Si Si6 0.311572 0.564400 0.973014
O O1 0.239398 0.501102 0.834701
O O2 0.249374 0.625296 0.834516
O O3 0.252075 0.564123 0.917841
O O4 0.000000 0.565452 0.864413
O O5 0.758088 0.811486 0.583847
O O6 0.756608 0.875642 0.667655
O O7 0.759195 0.749659 0.668411
O O8 0.000000 0.813008 0.639828
O O9 0.750000 0.750000 0.500000
O O10 0.753093 0.874688 0.501002
O O11 0.000000 0.810839 0.527035
O O12 0.250000 0.940949 0.750000
O O13 0.000000 0.938496 0.696079
O O14 0.750000 0.183768 0.750000
O O15 0.000000 0.183814 0.804562
O O16 0.500000 0.567169 0.973111
O O17 0.261682 0.500000 0.000000
#
# Coordination Sequence:
#
# PCOD9479993 Si02
#       6
#    16  16  16  16  16  16
#     4  11  23  39  61  87 116 154 198 243 295 356
#     4   9  20  38  59  83 113 151 192 238 288 343
#     4  11  22  39  63  89 120 158 202 249 300 357
#     4  10  21  38  59  84 113 147 190 236 287 344
#     4  11  22  38  60  86 119 155 194 241 293 351
#     4  11  24  41  61  88 122 158 199 249 304 361
#
# _framework density 19.347176999999999
#
# number of rings (size 3 to 8) (size 9 to 14) (size 15 to 20)
#    0.000    1.500    0.000    5.000    0.000    6.667 
#    0.000    5.000    0.000    0.000    0.000    0.000 
#    0.000    0.000    0.000    0.000    0.000    0.000 
#
# Total GULP energy -268463.325954 kJ/mol
# GULP energy per Si atom -5592.985957 kJ/mol
# Density = 1.930314 g / cm^3
# Si number density = 19.347177 Si / 1000 Ang^3
#
#
#
# Elastic Constant Matrix: (Units=GPa)
#
#
# Indices 1 2 3 4 5 6 
#
# 1 43.5976 45.7285 41.0481 0.0000 0.0000 0.0000
# 2 45.7285 234.0992 139.3339 0.0000 0.0000 0.0000
# 3 41.0481 139.3339 233.8255 0.0000 0.0000 0.0000
# 4 0.0000 0.0000 0.0000 47.1595 0.0000 0.0000
# 5 0.0000 0.0000 0.0000 0.0000 33.4567 0.0000
# 6 0.0000 0.0000 0.0000 0.0000 0.0000 29.5262
#
#
#
# Elastic Compliance Matrix: (Units=1/GPa)
#
#
# Indices 1 2 3 4 5 6 
#
# 1 0.029943 -0.004215 -0.002745 0.000000 0.000000 0.000000
# 2 -0.004215 0.007213 -0.003558 0.000000 0.000000 0.000000
# 3 -0.002745 -0.003558 0.006879 0.000000 0.000000 0.000000
# 4 0.000000 0.000000 0.000000 0.021205 0.000000 0.000000
# 5 0.000000 0.000000 0.000000 0.000000 0.029889 0.000000
# 6 0.000000 0.000000 0.000000 0.000000 0.000000 0.033868
#
#
# Mechanical properties :
#
#
# Convention : Reuss Voigt Hill
#
# Bulk Modulus (GPa) = 43.48175 107.08259 75.28217
# Shear Modulus (GPa) = 31.70613 41.05592 36.38102
#
# Velocity S-wave (km/s) = 4.05260 4.61158 4.34110
# Velocity P-wave (km/s) = 6.66493 9.15553 8.00765
#
# Compressibility (1/GPa) = 0.02299815
#
# Stress axis : x y z
#
# Youngs Moduli (GPa) = 33.39732 138.64186 145.37674
#
# Poissons Ratio (x) = 0.58443 0.39899
# Poissons Ratio (y) = 0.14078 0.51725
# Poissons Ratio (z) = 0.09166 0.49329
#
# Static dielectric constant tensor:
#      x y z
#    x 1.667260 0.000000 0.000000 
#    y 0.000000 1.647430 0.000000 
#    z 0.000000 0.000000 1.629560 
# 
# From -- ./inp_files/48139.got.cif
#   From: 2010.05.17/outbox.cif.g08.bks.cpg/sg64_25_cif.got.tgz:48139.got - 2010.06.03 16:29:19.
