data_PCOD9479327
_publ_section_title
;
Structure prediction by ZEFSAII (Michael W. Deem and Ramdas Pophale) SiO2 
 PCOD9479327
Probable space group: C M C A
;
_chemical_formula_sum "Si O2"
_cell_formula_units_Z 72
_cell_length_a 22.982461
_cell_length_b 15.506573
_cell_length_c 8.021280
_cell_angle_alpha 90.000000
_cell_angle_beta 90.000000
_cell_angle_gamma 90.000000
_cell_volume 2858.617423
_symmetry_space_group_name_H-M "C M C A"
_symmetry_group_IT_number 64
_symmetry_cell_setting 'orthorhombic'
loop_
_space_group_symop_operation_xyz
x,y,z
-x,1/2-y,1/2+z
x,-y,-z
-x,1/2+y,1/2-z
-x,-y,-z
x,1/2+y,1/2-z
-x,y,z
x,1/2-y,1/2+z
1/2+x,1/2+y,z
1/2-x,-y,1/2+z
1/2+x,1/2-y,-z
1/2-x,y,1/2-z
1/2-x,1/2-y,-z
1/2+x,y,1/2-z
1/2-x,1/2+y,z
1/2+x,-y,1/2+z
loop_
_atom_site_type_symbol
_atom_site_label
_atom_site_fract_x
_atom_site_fract_y
_atom_site_fract_z
Si Si1 0.694857 0.500000 0.000000
Si Si2 0.500000 0.102884 0.206825
Si Si3 0.705107 0.680718 0.938317
Si Si4 0.625665 0.550002 0.331479
Si Si5 0.873215 0.739066 0.285586
Si Si6 0.500000 0.229302 0.881949
O O1 0.729556 0.587353 0.975935
O O2 0.658477 0.512998 0.169985
O O3 0.443448 0.044578 0.198093
O O4 0.500000 0.164776 0.371343
O O5 0.500000 0.171576 0.049795
O O6 0.644653 0.693886 0.041400
O O7 0.750000 0.750000 0.000000
O O8 0.679170 0.696633 0.757376
O O9 0.640547 0.500000 0.500000
O O10 0.632516 0.655034 0.335911
O O11 0.936302 0.783471 0.296297
#
# Coordination Sequence:
#
# PCOD9479327 Si02
#       6
#     8   8  16  16  16   8
#     4  10  26  45  72 100 144 191 240 314 376 434
#     4  10  21  37  62 106 144 189 249 294 362 458
#     4  11  24  46  69 104 137 186 245 299 370 443
#     4  10  22  42  64 104 143 188 245 298 368 441
#     4  10  22  41  69 101 137 185 245 293 364 449
#     4  10  20  38  66 102 140 188 240 299 360 434
#
# _framework density 25.187000000000001
#
# number of rings (size 3 to 8) (size 9 to 14) (size 15 to 20)
#    0.000    1.778    0.000    3.667    6.222    0.444 
#    2.000    3.333    0.000    0.000    0.000    0.000 
#    0.000    0.000    0.000    0.000    0.000    0.000 
#
# Total GULP energy -200996.233440 kJ/mol
# GULP energy per Si atom -5583.228707 kJ/mol
# Density = 2.512967 g / cm^3
# Si number density = 25.187000 Si / 1000 Ang^3
#
#
#
# Elastic Constant Matrix: (Units=GPa)
#
#
# Indices 1 2 3 4 5 6 
#
# 1 115.8734 48.3828 26.3725 0.0000 0.0000 0.0000
# 2 48.3828 148.1606 40.9433 0.0000 0.0000 0.0000
# 3 26.3725 40.9433 102.2525 0.0000 0.0000 0.0000
# 4 0.0000 0.0000 0.0000 34.5863 0.0000 0.0000
# 5 0.0000 0.0000 0.0000 0.0000 31.2278 0.0000
# 6 0.0000 0.0000 0.0000 0.0000 0.0000 31.8440
#
#
#
# Elastic Compliance Matrix: (Units=1/GPa)
#
#
# Indices 1 2 3 4 5 6 
#
# 1 0.010182 -0.002923 -0.001456 0.000000 0.000000 0.000000
# 2 -0.002923 0.008428 -0.002621 0.000000 0.000000 0.000000
# 3 -0.001456 -0.002621 0.011205 0.000000 0.000000 0.000000
# 4 0.000000 0.000000 0.000000 0.028913 0.000000 0.000000
# 5 0.000000 0.000000 0.000000 0.000000 0.032023 0.000000
# 6 0.000000 0.000000 0.000000 0.000000 0.000000 0.031403
#
#
# Mechanical properties :
#
#
# Convention : Reuss Voigt Hill
#
# Bulk Modulus (GPa) = 63.22774 66.40929 64.81851
# Shear Modulus (GPa) = 35.35461 36.23747 35.79604
#
# Velocity S-wave (km/s) = 3.75064 3.79718 3.77398
# Velocity P-wave (km/s) = 6.62678 6.75637 6.69189
#
# Compressibility (1/GPa) = 0.01581584
#
# Stress axis : x y z
#
# Youngs Moduli (GPa) = 98.21462 118.65041 89.24873
#
# Poissons Ratio (x) = 0.34677 0.12993
# Poissons Ratio (y) = 0.28705 0.23392
# Poissons Ratio (z) = 0.14298 0.31098
#
# Static dielectric constant tensor:
#      x y z
#    x 1.995490 0.000000 0.000000 
#    y 0.000000 2.080910 0.000000 
#    z 0.000000 0.000000 2.171400 
# 
# From -- ./inp_files/10051.got.cif
#   From: 2010.05.17/outbox.cif.g08.bks.cpg/sg64_6_cif.got.tgz:10051.got - 2010.06.03 16:29:19.
