data_PCOD9479340
_publ_section_title
;
Structure prediction by ZEFSAII (Michael W. Deem and Ramdas Pophale) SiO2 
 PCOD9479340
Probable space group: C M C A
;
_chemical_formula_sum "Si O2"
_cell_formula_units_Z 64
_cell_length_a 15.376000
_cell_length_b 20.151446
_cell_length_c 9.034586
_cell_angle_alpha 90.000000
_cell_angle_beta 90.000000
_cell_angle_gamma 90.000000
_cell_volume 2799.354128
_symmetry_space_group_name_H-M "C M C A"
_symmetry_group_IT_number 64
_symmetry_cell_setting 'orthorhombic'
loop_
_space_group_symop_operation_xyz
x,y,z
-x,1/2-y,1/2+z
x,-y,-z
-x,1/2+y,1/2-z
-x,-y,-z
x,1/2+y,1/2-z
-x,y,z
x,1/2-y,1/2+z
1/2+x,1/2+y,z
1/2-x,-y,1/2+z
1/2+x,1/2-y,-z
1/2-x,y,1/2-z
1/2-x,1/2-y,-z
1/2+x,y,1/2-z
1/2-x,1/2+y,z
1/2+x,-y,1/2+z
loop_
_atom_site_type_symbol
_atom_site_label
_atom_site_fract_x
_atom_site_fract_y
_atom_site_fract_z
Si Si1 0.331582 0.704776 0.949870
Si Si2 0.605861 0.067429 0.075389
Si Si3 0.605226 0.929472 0.579258
Si Si4 0.902940 0.188188 0.630875
O O1 0.347102 0.702715 0.775391
O O2 0.250000 0.750000 0.000000
O O3 0.340828 0.629843 0.005719
O O4 0.406619 0.746484 0.031232
O O5 0.500000 0.067145 0.073821
O O6 0.629610 0.069956 0.247294
O O7 0.631753 0.129518 0.974024
O O8 0.637046 0.000000 0.000000
O O9 0.500000 0.917561 0.567388
O O10 0.621499 0.000000 0.500000
O O11 0.000000 0.168898 0.681353
#
# Coordination Sequence:
#
# PCOD9479340 Si02
#       4
#    16  16  16  16
#     4  12  25  41  61  94 135 172 213 274 347 409
#     4   9  18  34  60  96 130 162 213 283 344 392
#     4  10  20  38  67 100 134 176 231 288 340 405
#     4  11  22  39  64  91 126 175 230 279 328 401
#
# _framework density 22.862418000000002
#
# number of rings (size 3 to 8) (size 9 to 14) (size 15 to 20)
#    0.000    1.500    0.000    6.000    0.000    6.000 
#    0.000    1.250    0.000    3.000    0.000    0.000 
#    0.000    0.000    0.000    0.000    0.000    0.250 
#
# Total GULP energy -178947.747914 kJ/mol
# GULP energy per Si atom -5592.117122 kJ/mol
# Density = 2.281038 g / cm^3
# Si number density = 22.862418 Si / 1000 Ang^3
#
#
#
# Elastic Constant Matrix: (Units=GPa)
#
#
# Indices 1 2 3 4 5 6 
#
# 1 108.2825 46.8436 46.7417 0.0000 0.0000 0.0000
# 2 46.8436 202.9515 102.7171 0.0000 0.0000 0.0000
# 3 46.7417 102.7171 230.1853 0.0000 0.0000 0.0000
# 4 0.0000 0.0000 0.0000 47.5569 0.0000 0.0000
# 5 0.0000 0.0000 0.0000 0.0000 25.0165 0.0000
# 6 0.0000 0.0000 0.0000 0.0000 0.0000 37.4854
#
#
#
# Elastic Compliance Matrix: (Units=1/GPa)
#
#
# Indices 1 2 3 4 5 6 
#
# 1 0.010583 -0.001750 -0.001368 0.000000 0.000000 0.000000
# 2 -0.001750 0.006654 -0.002614 0.000000 0.000000 0.000000
# 3 -0.001368 -0.002614 0.005789 0.000000 0.000000 0.000000
# 4 0.000000 0.000000 0.000000 0.021027 0.000000 0.000000
# 5 0.000000 0.000000 0.000000 0.000000 0.039974 0.000000
# 6 0.000000 0.000000 0.000000 0.000000 0.000000 0.026677
#
#
# Mechanical properties :
#
#
# Convention : Reuss Voigt Hill
#
# Bulk Modulus (GPa) = 86.49595 103.78045 95.13820
# Shear Modulus (GPa) = 39.67572 45.01956 42.34764
#
# Velocity S-wave (km/s) = 4.17035 4.44233 4.30848
# Velocity P-wave (km/s) = 7.81693 8.47375 8.15196
#
# Compressibility (1/GPa) = 0.01156124
#
# Stress axis : x y z
#
# Youngs Moduli (GPa) = 94.49321 150.28015 172.75541
#
# Poissons Ratio (x) = 0.26304 0.23631
# Poissons Ratio (y) = 0.16539 0.45157
# Poissons Ratio (z) = 0.12926 0.39282
#
# Static dielectric constant tensor:
#      x y z
#    x 1.994370 0.000000 0.000000 
#    y 0.000000 1.820070 0.000000 
#    z 0.000000 0.000000 1.799280 
# 
# From -- ./inp_files/6556.got.cif
#   From: 2010.05.17/outbox.cif.g08.bks.cpg/sg64_4_cif.got.tgz:6556.got - 2010.06.03 16:29:19.
