data_PCOD9479626
_publ_section_title
;
Structure prediction by ZEFSAII (Michael W. Deem and Ramdas Pophale) SiO2 
 PCOD9479626
Probable space group: C M C A
;
_chemical_formula_sum "Si O2"
_cell_formula_units_Z 80
_cell_length_a 17.313913
_cell_length_b 9.159349
_cell_length_c 23.714393
_cell_angle_alpha 90.000000
_cell_angle_beta 90.000000
_cell_angle_gamma 90.000000
_cell_volume 3760.727372
_symmetry_space_group_name_H-M "C M C A"
_symmetry_group_IT_number 64
_symmetry_cell_setting 'orthorhombic'
loop_
_space_group_symop_operation_xyz
x,y,z
-x,1/2-y,1/2+z
x,-y,-z
-x,1/2+y,1/2-z
-x,-y,-z
x,1/2+y,1/2-z
-x,y,z
x,1/2-y,1/2+z
1/2+x,1/2+y,z
1/2-x,-y,1/2+z
1/2+x,1/2-y,-z
1/2-x,y,1/2-z
1/2-x,1/2-y,-z
1/2+x,y,1/2-z
1/2-x,1/2+y,z
1/2+x,-y,1/2+z
loop_
_atom_site_type_symbol
_atom_site_label
_atom_site_fract_x
_atom_site_fract_y
_atom_site_fract_z
Si Si1 0.370137 0.972682 0.252048
Si Si2 0.088780 0.168662 0.948005
Si Si3 0.200995 0.270708 0.674635
Si Si4 0.405844 0.835315 0.571818
Si Si5 0.385972 0.217212 0.170044
O O1 0.324774 0.085878 0.291277
O O2 0.411366 0.078541 0.206884
O O3 0.319719 0.866229 0.213414
O O4 0.411520 0.861766 0.295284
O O5 0.091135 0.275075 0.895000
O O6 0.000000 0.138582 0.961099
O O7 0.117172 0.008096 0.929333
O O8 0.117830 0.219488 0.009078
O O9 0.147029 0.263478 0.619525
O O10 0.292380 0.278351 0.666576
O O11 0.500000 0.819928 0.582295
#
# Coordination Sequence:
#
# PCOD9479626 Si02
#       5
#    16  16  16  16  16
#     4  10  21  34  53  82 115 146 173 220 279 324
#     4   9  19  37  58  79 108 146 184 224 273 324
#     4  11  19  34  57  81 110 143 183 222 267 324
#     4   9  19  37  58  79 108 146 184 224 273 324
#     4  11  19  34  57  81 110 143 183 222 267 324
#
# _framework density 21.272480000000002
#
# number of rings (size 3 to 8) (size 9 to 14) (size 15 to 20)
#    0.000    2.000    2.000    6.000    0.000    0.800 
#    0.000    8.000    0.000    2.400    0.000    0.000 
#    0.000    0.000    0.000    0.000    0.000    0.000 
#
# Total GULP energy -223000.459923 kJ/mol
# GULP energy per Si atom -5575.011498 kJ/mol
# Density = 2.122406 g / cm^3
# Si number density = 21.272480 Si / 1000 Ang^3
#
#
#
# Elastic Constant Matrix: (Units=GPa)
#
#
# Indices 1 2 3 4 5 6 
#
# 1 87.6535 16.3320 43.5400 0.0000 0.0000 0.0000
# 2 16.3320 92.5434 39.7321 0.0000 0.0000 0.0000
# 3 43.5400 39.7321 190.8219 0.0000 0.0000 0.0000
# 4 0.0000 0.0000 0.0000 27.8126 0.0000 0.0000
# 5 0.0000 0.0000 0.0000 0.0000 36.0679 0.0000
# 6 0.0000 0.0000 0.0000 0.0000 0.0000 -3.0333
#
#
#
# Elastic Compliance Matrix: (Units=1/GPa)
#
#
# Indices 1 2 3 4 5 6 
#
# 1 0.012971 -0.001118 -0.002727 0.000000 0.000000 0.000000
# 2 -0.001118 0.011963 -0.002236 0.000000 0.000000 0.000000
# 3 -0.002727 -0.002236 0.006328 0.000000 0.000000 0.000000
# 4 0.000000 0.000000 0.000000 0.035955 0.000000 0.000000
# 5 0.000000 0.000000 0.000000 0.000000 0.027725 0.000000
# 6 0.000000 0.000000 0.000000 0.000000 0.000000 -0.329670
#
#
# Mechanical properties :
#
#
# Convention : Reuss Voigt Hill
#
# Bulk Modulus (GPa) = 52.35423 63.35856 57.85639
# Shear Modulus (GPa) = -23.12695 30.26375 3.56840
#
# Velocity S-wave (km/s) = -3.30081 3.77592 1.29658
# Velocity P-wave (km/s) = 3.18395 6.98993 5.43123
#
# Compressibility (1/GPa) = 0.01910065
#
# Stress axis : x y z
#
# Youngs Moduli (GPa) = 77.09239 83.59122 158.02345
#
# Poissons Ratio (x) = 0.09349 0.43090
# Poissons Ratio (y) = 0.08623 0.35329
# Poissons Ratio (z) = 0.21022 0.18688
#
# Static dielectric constant tensor:
#      x y z
#    x 1.787680 0.000000 0.000000 
#    y 0.000000 1.783170 0.000000 
#    z 0.000000 0.000000 1.812070 
# 
# From -- ./inp_files/50277.got.cif
#   From: 2010.05.17/outbox.cif.g08.bks.cpg/sg64_26_cif.got.tgz:50277.got - 2010.06.03 16:29:19.
