data_PCOD9479003
_publ_section_title
;
Structure prediction by ZEFSAII (Michael W. Deem and Ramdas Pophale) SiO2 
 PCOD9479003
Probable space group: C M C A
;
_chemical_formula_sum "Si O2"
_cell_formula_units_Z 64
_cell_length_a 20.639554
_cell_length_b 8.863841
_cell_length_c 16.365583
_cell_angle_alpha 90.000000
_cell_angle_beta 90.000000
_cell_angle_gamma 90.000000
_cell_volume 2994.013446
_symmetry_space_group_name_H-M "C M C A"
_symmetry_group_IT_number 64
_symmetry_cell_setting 'orthorhombic'
loop_
_space_group_symop_operation_xyz
x,y,z
-x,1/2-y,1/2+z
x,-y,-z
-x,1/2+y,1/2-z
-x,-y,-z
x,1/2+y,1/2-z
-x,y,z
x,1/2-y,1/2+z
1/2+x,1/2+y,z
1/2-x,-y,1/2+z
1/2+x,1/2-y,-z
1/2-x,y,1/2-z
1/2-x,1/2-y,-z
1/2+x,y,1/2-z
1/2-x,1/2+y,z
1/2+x,-y,1/2+z
loop_
_atom_site_type_symbol
_atom_site_label
_atom_site_fract_x
_atom_site_fract_y
_atom_site_fract_z
Si Si1 0.500000 0.325216 0.363179
Si Si2 0.626953 0.707502 0.815772
Si Si3 0.264905 0.615339 0.939704
Si Si4 0.870609 0.555283 0.858070
Si Si5 0.500000 0.529714 0.817554
O O1 0.567137 0.375342 0.404847
O O2 0.500000 0.425313 0.279125
O O3 0.500000 0.148416 0.337675
O O4 0.690301 0.660708 0.865172
O O5 0.636982 0.663145 0.721183
O O6 0.565215 0.612157 0.847452
O O7 0.616055 0.885245 0.827742
O O8 0.196251 0.554383 0.907098
O O9 0.300160 0.500000 0.000000
O O10 0.250000 0.750000 0.000000
#
# Coordination Sequence:
#
# PCOD9479003 Si02
#       5
#     8  16  16  16   8
#     4  10  20  36  64  94 124 156 207 259 311 361
#     4  11  23  41  67  94 125 163 210 256 310 369
#     4  12  27  44  63  90 128 169 209 256 312 369
#     4  11  23  41  67  94 125 164 208 259 308 370
#     4  10  20  36  64  94 124 157 205 263 305 366
#
# _framework density 21.375990000000002
#
# number of rings (size 3 to 8) (size 9 to 14) (size 15 to 20)
#    0.000    1.000    2.500    7.500    7.000    2.000 
#    0.000    2.500    0.000    0.000    0.000    0.000 
#    0.000    0.000    0.000    0.000    0.000    0.000 
#
# Total GULP energy -178755.493305 kJ/mol
# GULP energy per Si atom -5586.109166 kJ/mol
# Density = 2.132734 g / cm^3
# Si number density = 21.375990 Si / 1000 Ang^3
#
#
#
# Elastic Constant Matrix: (Units=GPa)
#
#
# Indices 1 2 3 4 5 6 
#
# 1 130.8013 24.4984 23.1748 0.0000 0.0000 0.0000
# 2 24.4984 136.3211 8.0190 0.0000 0.0000 0.0000
# 3 23.1748 8.0190 34.5904 0.0000 0.0000 0.0000
# 4 0.0000 0.0000 0.0000 32.5691 0.0000 0.0000
# 5 0.0000 0.0000 0.0000 0.0000 -15.8445 0.0000
# 6 0.0000 0.0000 0.0000 0.0000 0.0000 12.0788
#
#
#
# Elastic Compliance Matrix: (Units=1/GPa)
#
#
# Indices 1 2 3 4 5 6 
#
# 1 0.008885 -0.001264 -0.005660 0.000000 0.000000 0.000000
# 2 -0.001264 0.007617 -0.000919 0.000000 0.000000 0.000000
# 3 -0.005660 -0.000919 0.032915 0.000000 0.000000 0.000000
# 4 0.000000 0.000000 0.000000 0.030704 0.000000 0.000000
# 5 0.000000 0.000000 0.000000 0.000000 -0.063113 0.000000
# 6 0.000000 0.000000 0.000000 0.000000 0.000000 0.082790
#
#
# Mechanical properties :
#
#
# Convention : Reuss Voigt Hill
#
# Bulk Modulus (GPa) = 29.64607 45.89967 37.77287
# Shear Modulus (GPa) = 39.45550 22.16204 30.80877
#
# Velocity S-wave (km/s) = 4.30092 3.22339 3.80054
# Velocity P-wave (km/s) = 6.20990 5.94750 6.08012
#
# Compressibility (1/GPa) = 0.03373128
#
# Stress axis : x y z
#
# Youngs Moduli (GPa) = 112.55428 131.28876 30.38165
#
# Poissons Ratio (x) = 0.16592 0.17195
# Poissons Ratio (y) = 0.14224 0.02792
# Poissons Ratio (z) = 0.63700 0.12067
#
# Static dielectric constant tensor:
#      x y z
#    x 1.841720 0.000000 0.000000 
#    y 0.000000 1.743050 0.000000 
#    z 0.000000 0.000000 1.727340 
# 
# From -- ./inp_files/33896.got.cif
#   From: 2010.05.17/outbox.cif.g08.bks.cpg/sg64_17_cif.got.tgz:33896.got - 2010.06.03 16:29:19.
