data_PCOD9479528
_publ_section_title
;
Structure prediction by ZEFSAII (Michael W. Deem and Ramdas Pophale) SiO2 
 PCOD9479528
Probable space group: C M C A
;
_chemical_formula_sum "Si O2"
_cell_formula_units_Z 116
_cell_length_a 24.976295
_cell_length_b 16.914988
_cell_length_c 13.746455
_cell_angle_alpha 90.000000
_cell_angle_beta 90.000000
_cell_angle_gamma 90.000000
_cell_volume 5807.516121
_symmetry_space_group_name_H-M "C M C A"
_symmetry_group_IT_number 64
_symmetry_cell_setting 'orthorhombic'
loop_
_space_group_symop_operation_xyz
x,y,z
-x,1/2-y,1/2+z
x,-y,-z
-x,1/2+y,1/2-z
-x,-y,-z
x,1/2+y,1/2-z
-x,y,z
x,1/2-y,1/2+z
1/2+x,1/2+y,z
1/2-x,-y,1/2+z
1/2+x,1/2-y,-z
1/2-x,y,1/2-z
1/2-x,1/2-y,-z
1/2+x,y,1/2-z
1/2-x,1/2+y,z
1/2+x,-y,1/2+z
loop_
_atom_site_type_symbol
_atom_site_label
_atom_site_fract_x
_atom_site_fract_y
_atom_site_fract_z
Si Si1 0.170566 0.352067 0.585427
Si Si2 0.583879 0.387957 0.060659
Si Si3 0.000000 0.000000 0.000000
Si Si4 0.438748 0.705753 0.400294
Si Si5 0.936264 0.561512 0.775139
Si Si6 0.716154 0.413722 0.537567
Si Si7 0.631226 0.908014 0.789873
Si Si8 0.128520 0.326951 0.087112
O O1 0.141545 0.383483 0.487969
O O2 0.233435 0.359922 0.565982
O O3 0.153703 0.401436 0.680872
O O4 0.148928 0.262687 0.601268
O O5 0.546016 0.431704 0.984939
O O6 0.565697 0.299514 0.086519
O O7 0.573277 0.434422 0.159830
O O8 0.500000 0.683406 0.383061
O O9 0.400075 0.672358 0.317213
O O10 0.415294 0.671546 0.500642
O O11 0.911092 0.478373 0.807090
O O12 0.901031 0.630889 0.823587
O O13 0.000000 0.568253 0.794305
O O14 0.733612 0.500000 0.500000
O O15 0.678942 0.420098 0.633154
O O16 0.679194 0.375593 0.453605
#
# Coordination Sequence:
#
# PCOD9479528 Si02
#       8
#    16  16   4  16  16  16  16  16
#     4  11  25  43  68  95 130 175 218 277 333 401
#     4  11  24  39  63  92 135 169 220 264 330 396
#     4  12  20  40  56  84 128 172 204 266 310 386
#     4  10  20  41  62  95 129 176 211 274 328 394
#     4  12  23  41  63  99 135 178 216 279 324 398
#     4  11  23  45  69  94 131 170 217 286 331 391
#     4  11  24  41  67  96 132 169 228 268 333 399
#     4  10  23  43  68  97 129 170 230 269 336 397
#
# _framework density 19.974115999999999
#
# number of rings (size 3 to 8) (size 9 to 14) (size 15 to 20)
#    0.000    1.103    2.759    3.310    2.897    0.000 
#    1.241    4.138    0.000    0.000    0.000    0.000 
#    0.000    0.000    0.000    0.000    0.000    0.000 
#
# Total GULP energy -323339.409789 kJ/mol
# GULP energy per Si atom -5574.817410 kJ/mol
# Density = 1.992865 g / cm^3
# Si number density = 19.974116 Si / 1000 Ang^3
#
#
#
# Elastic Constant Matrix: (Units=GPa)
#
#
# Indices 1 2 3 4 5 6 
#
# 1 140.1831 37.7585 53.6718 0.0000 0.0000 0.0000
# 2 37.7585 64.1841 -4.6504 0.0000 0.0000 0.0000
# 3 53.6718 -4.6504 45.2384 0.0000 0.0000 0.0000
# 4 0.0000 0.0000 0.0000 23.8139 0.0000 0.0000
# 5 0.0000 0.0000 0.0000 0.0000 393.9788 0.0000
# 6 0.0000 0.0000 0.0000 0.0000 0.0000 16.3563
#
#
#
# Elastic Compliance Matrix: (Units=1/GPa)
#
#
# Indices 1 2 3 4 5 6 
#
# 1 0.021228 -0.014420 -0.026667 0.000000 0.000000 0.000000
# 2 -0.014420 0.025493 0.019729 0.000000 0.000000 0.000000
# 3 -0.026667 0.019729 0.055772 0.000000 0.000000 0.000000
# 4 0.000000 0.000000 0.000000 0.041992 0.000000 0.000000
# 5 0.000000 0.000000 0.000000 0.000000 0.002538 0.000000
# 6 0.000000 0.000000 0.000000 0.000000 0.000000 0.061139
#
#
# Mechanical properties :
#
#
# Convention : Reuss Voigt Hill
#
# Bulk Modulus (GPa) = 16.72932 47.01838 31.87385
# Shear Modulus (GPa) = 18.46355 97.68485 58.07420
#
# Velocity S-wave (km/s) = 3.04365 7.00085 5.39795
# Velocity P-wave (km/s) = 4.55471 9.43080 7.40558
#
# Compressibility (1/GPa) = 0.05977529
#
# Stress axis : x y z
#
# Youngs Moduli (GPa) = 47.10822 39.22692 17.93013
#
# Poissons Ratio (x) = 0.56566 0.47815
# Poissons Ratio (y) = 0.67930 -0.35374
# Poissons Ratio (z) = 1.25625 -0.77390
#
# Static dielectric constant tensor:
#      x y z
#    x 1.665320 0.000000 0.000000 
#    y 0.000000 1.724630 0.000000 
#    z 0.000000 0.000000 1.743110 
# 
# From -- ./inp_files/27576.got.cif
#   From: 2010.05.17/outbox.cif.g08.bks.cpg/sg64_14_cif.got.tgz:27576.got - 2010.06.03 16:29:19.
