data_PCOD9479168
_publ_section_title
;
Structure prediction by ZEFSAII (Michael W. Deem and Ramdas Pophale) SiO2 
 PCOD9479168
Probable space group: C M C A
;
_chemical_formula_sum "Si O2"
_cell_formula_units_Z 88
_cell_length_a 14.103948
_cell_length_b 28.435271
_cell_length_c 10.118496
_cell_angle_alpha 90.000000
_cell_angle_beta 90.000000
_cell_angle_gamma 90.000000
_cell_volume 4058.018607
_symmetry_space_group_name_H-M "C M C A"
_symmetry_group_IT_number 64
_symmetry_cell_setting 'orthorhombic'
loop_
_space_group_symop_operation_xyz
x,y,z
-x,1/2-y,1/2+z
x,-y,-z
-x,1/2+y,1/2-z
-x,-y,-z
x,1/2+y,1/2-z
-x,y,z
x,1/2-y,1/2+z
1/2+x,1/2+y,z
1/2-x,-y,1/2+z
1/2+x,1/2-y,-z
1/2-x,y,1/2-z
1/2-x,1/2-y,-z
1/2+x,y,1/2-z
1/2-x,1/2+y,z
1/2+x,-y,1/2+z
loop_
_atom_site_type_symbol
_atom_site_label
_atom_site_fract_x
_atom_site_fract_y
_atom_site_fract_z
Si Si1 0.386434 0.930823 0.599599
Si Si2 0.607948 0.898029 0.090113
Si Si3 0.768831 0.348105 0.555590
Si Si4 0.891992 0.184920 0.806101
Si Si5 0.884752 0.468682 0.306971
Si Si6 0.250000 0.764753 0.750000
O O1 0.500000 0.926586 0.606576
O O2 0.337492 0.882389 0.637836
O O3 0.362013 0.942633 0.445315
O O4 0.357198 0.977005 0.680637
O O5 0.500000 0.907560 0.044941
O O6 0.604667 0.855614 0.196244
O O7 0.646913 0.941997 0.175253
O O8 0.677756 0.879361 0.979296
O O9 0.826594 0.333966 0.424064
O O10 0.744564 0.299750 0.626674
O O11 0.841121 0.230900 0.748124
O O12 0.000000 0.193846 0.850164
O O13 0.000000 0.467199 0.301930
#
# Coordination Sequence:
#
# PCOD9479168 Si02
#       6
#    16  16  16  16  16   8
#     4   9  17  32  59  93 125 159 201 253 312 374
#     4  10  20  37  65  97 128 165 211 266 322 382
#     4  12  23  41  63  91 130 170 216 269 320 394
#     4  11  23  41  66  92 120 163 213 267 328 386
#     4   8  15  31  57  92 124 151 198 257 308 368
#     4  12  28  44  56  90 134 168 216 272 324 386
#
# _framework density 21.685461
#
# number of rings (size 3 to 8) (size 9 to 14) (size 15 to 20)
#    0.000    1.818    3.636    2.182    0.000    2.182 
#    0.000    3.636    0.000    0.000    0.000    8.909 
#    0.000    0.000    0.000    0.000    0.000    0.000 
#
# Total GULP energy -246000.056100 kJ/mol
# GULP energy per Si atom -5590.910366 kJ/mol
# Density = 2.163610 g / cm^3
# Si number density = 21.685461 Si / 1000 Ang^3
#
#
#
# Elastic Constant Matrix: (Units=GPa)
#
#
# Indices 1 2 3 4 5 6 
#
# 1 96.6164 13.4313 24.0929 0.0000 0.0000 0.0000
# 2 13.4313 102.7758 16.3593 0.0000 0.0000 0.0000
# 3 24.0929 16.3593 35.1321 0.0000 0.0000 0.0000
# 4 0.0000 0.0000 0.0000 27.8815 0.0000 0.0000
# 5 0.0000 0.0000 0.0000 0.0000 14.1341 0.0000
# 6 0.0000 0.0000 0.0000 0.0000 0.0000 33.7032
#
#
#
# Elastic Compliance Matrix: (Units=1/GPa)
#
#
# Indices 1 2 3 4 5 6 
#
# 1 0.012493 -0.000290 -0.008432 0.000000 0.000000 0.000000
# 2 -0.000290 0.010516 -0.004697 0.000000 0.000000 0.000000
# 3 -0.008432 -0.004697 0.036434 0.000000 0.000000 0.000000
# 4 0.000000 0.000000 0.000000 0.035866 0.000000 0.000000
# 5 0.000000 0.000000 0.000000 0.000000 0.070751 0.000000
# 6 0.000000 0.000000 0.000000 0.000000 0.000000 0.029671
#
#
# Mechanical properties :
#
#
# Convention : Reuss Voigt Hill
#
# Bulk Modulus (GPa) = 30.67253 38.03237 34.35245
# Shear Modulus (GPa) = 21.41890 27.18650 24.30270
#
# Velocity S-wave (km/s) = 3.14619 3.54457 3.35130
# Velocity P-wave (km/s) = 5.23192 5.85903 5.55433
#
# Compressibility (1/GPa) = 0.03260246
#
# Stress axis : x y z
#
# Youngs Moduli (GPa) = 80.04249 95.09703 27.44680
#
# Poissons Ratio (x) = 0.02762 0.23144
# Poissons Ratio (y) = 0.02325 0.12893
# Poissons Ratio (z) = 0.67495 0.44671
#
# Static dielectric constant tensor:
#      x y z
#    x 1.806230 0.000000 0.000000 
#    y 0.000000 1.766660 0.000000 
#    z 0.000000 0.000000 1.810370 
# 
# From -- ./inp_files/14579.got.cif
#   From: 2010.05.17/outbox.cif.g08.bks.cpg/sg64_8_cif.got.tgz:14579.got - 2010.06.03 16:29:19.
