data_PCOD9479220
_publ_section_title
;
Structure prediction by ZEFSAII (Michael W. Deem and Ramdas Pophale) SiO2 
 PCOD9479220
Probable space group: C M C A
;
_chemical_formula_sum "Si O2"
_cell_formula_units_Z 96
_cell_length_a 7.504915
_cell_length_b 24.964189
_cell_length_c 22.219251
_cell_angle_alpha 90.000000
_cell_angle_beta 90.000000
_cell_angle_gamma 90.000000
_cell_volume 4162.868140
_symmetry_space_group_name_H-M "C M C A"
_symmetry_group_IT_number 64
_symmetry_cell_setting 'orthorhombic'
loop_
_space_group_symop_operation_xyz
x,y,z
-x,1/2-y,1/2+z
x,-y,-z
-x,1/2+y,1/2-z
-x,-y,-z
x,1/2+y,1/2-z
-x,y,z
x,1/2-y,1/2+z
1/2+x,1/2+y,z
1/2-x,-y,1/2+z
1/2+x,1/2-y,-z
1/2-x,y,1/2-z
1/2-x,1/2-y,-z
1/2+x,y,1/2-z
1/2-x,1/2+y,z
1/2+x,-y,1/2+z
loop_
_atom_site_type_symbol
_atom_site_label
_atom_site_fract_x
_atom_site_fract_y
_atom_site_fract_z
Si Si1 0.787135 0.300799 0.684874
Si Si2 0.283589 0.620595 0.080311
Si Si3 0.205706 0.999683 0.432060
Si Si4 0.714389 0.934108 0.183446
Si Si5 0.297547 0.316206 0.334287
Si Si6 0.788051 0.192264 0.970556
O O1 0.750000 0.324792 0.750000
O O2 0.721456 0.338307 0.631549
O O3 0.712141 0.240363 0.683770
O O4 0.000000 0.296055 0.675949
O O5 0.500000 0.618417 0.081916
O O6 0.213248 0.561232 0.088389
O O7 0.231193 0.646052 0.016532
O O8 0.000000 0.982146 0.439492
O O9 0.285935 0.000000 0.500000
O O10 0.281326 0.964626 0.376614
O O11 0.500000 0.932196 0.177515
O O12 0.750000 0.957827 0.250000
O O13 0.785032 0.872987 0.183091
O O14 0.500000 0.316550 0.310503
O O15 0.301517 0.313725 0.406453
O O16 0.000000 0.188111 0.961775
O O17 0.750000 0.250000 0.000000
#
# Coordination Sequence:
#
# PCOD9479220 Si02
#       6
#    16  16  16  16  16  16
#     4  10  21  37  55  80 115 150 189 233 282 342
#     4  10  22  39  57  83 117 150 186 234 289 346
#     4  10  22  41  63  88 116 153 202 251 300 355
#     4  10  22  39  62  89 120 159 204 253 305 361
#     4  10  20  38  60  84 119 155 191 244 294 344
#     4  11  21  35  57  86 119 152 190 234 291 356
#
# _framework density 23.061022999999999
#
# number of rings (size 3 to 8) (size 9 to 14) (size 15 to 20)
#    0.000    1.833    1.667    2.000    0.000    6.333 
#    0.000    3.333    0.000    0.000    0.000    0.000 
#    0.000    0.000    0.000    0.000    0.000    0.000 
#
# Total GULP energy -268246.802462 kJ/mol
# GULP energy per Si atom -5588.475051 kJ/mol
# Density = 2.300853 g / cm^3
# Si number density = 23.061023 Si / 1000 Ang^3
#
#
#
# Elastic Constant Matrix: (Units=GPa)
#
#
# Indices 1 2 3 4 5 6 
#
# 1 72.5125 0.7360 1.9626 0.0000 0.0000 0.0000
# 2 0.7360 108.0386 47.6505 0.0000 0.0000 0.0000
# 3 1.9626 47.6505 174.6456 0.0000 0.0000 0.0000
# 4 0.0000 0.0000 0.0000 17.1282 0.0000 0.0000
# 5 0.0000 0.0000 0.0000 0.0000 22.8763 0.0000
# 6 0.0000 0.0000 0.0000 0.0000 0.0000 16.1694
#
#
#
# Elastic Compliance Matrix: (Units=1/GPa)
#
#
# Indices 1 2 3 4 5 6 
#
# 1 0.013795 -0.000029 -0.000147 0.000000 0.000000 0.000000
# 2 -0.000029 0.010522 -0.002871 0.000000 0.000000 0.000000
# 3 -0.000147 -0.002871 0.006511 0.000000 0.000000 0.000000
# 4 0.000000 0.000000 0.000000 0.058383 0.000000 0.000000
# 5 0.000000 0.000000 0.000000 0.000000 0.043713 0.000000
# 6 0.000000 0.000000 0.000000 0.000000 0.000000 0.061845
#
#
# Mechanical properties :
#
#
# Convention : Reuss Voigt Hill
#
# Bulk Modulus (GPa) = 40.42945 50.65500 45.54222
# Shear Modulus (GPa) = 23.91107 31.55795 27.73451
#
# Velocity S-wave (km/s) = 3.22353 3.70328 3.47170
# Velocity P-wave (km/s) = 5.60575 6.34815 5.98846
#
# Compressibility (1/GPa) = 0.02473445
#
# Stress axis : x y z
#
# Youngs Moduli (GPa) = 72.49004 95.03703 153.59223
#
# Poissons Ratio (x) = 0.00277 0.02259
# Poissons Ratio (y) = 0.00211 0.44090
# Poissons Ratio (z) = 0.01066 0.27281
#
# Static dielectric constant tensor:
#      x y z
#    x 1.924140 0.000000 0.000000 
#    y 0.000000 1.838870 0.000000 
#    z 0.000000 0.000000 1.856870 
# 
# From -- ./inp_files/36962.got.cif
#   From: 2010.05.17/outbox.cif.g08.bks.cpg/sg64_19_cif.got.tgz:36962.got - 2010.06.03 16:29:19.
