data_PCOD9479160
_publ_section_title
;
Structure prediction by ZEFSAII (Michael W. Deem and Ramdas Pophale) SiO2 
 PCOD9479160
Probable space group: C M C A
;
_chemical_formula_sum "Si O2"
_cell_formula_units_Z 80
_cell_length_a 23.082327
_cell_length_b 16.890807
_cell_length_c 10.266217
_cell_angle_alpha 90.000000
_cell_angle_beta 90.000000
_cell_angle_gamma 90.000000
_cell_volume 4002.583757
_symmetry_space_group_name_H-M "C M C A"
_symmetry_group_IT_number 64
_symmetry_cell_setting 'orthorhombic'
loop_
_space_group_symop_operation_xyz
x,y,z
-x,1/2-y,1/2+z
x,-y,-z
-x,1/2+y,1/2-z
-x,-y,-z
x,1/2+y,1/2-z
-x,y,z
x,1/2-y,1/2+z
1/2+x,1/2+y,z
1/2-x,-y,1/2+z
1/2+x,1/2-y,-z
1/2-x,y,1/2-z
1/2-x,1/2-y,-z
1/2+x,y,1/2-z
1/2-x,1/2+y,z
1/2+x,-y,1/2+z
loop_
_atom_site_type_symbol
_atom_site_label
_atom_site_fract_x
_atom_site_fract_y
_atom_site_fract_z
Si Si1 0.936156 0.504869 0.653285
Si Si2 0.369930 0.228066 0.957658
Si Si3 0.827607 0.890495 0.842836
Si Si4 0.431811 0.187873 0.700183
Si Si5 0.790735 0.085913 0.452841
O O1 0.944195 0.500000 0.500000
O O2 0.886226 0.441010 0.672504
O O3 0.917405 0.594681 0.683224
O O4 0.000000 0.489444 0.715141
O O5 0.339757 0.302304 0.889305
O O6 0.418511 0.206349 0.850854
O O7 0.396269 0.258669 0.095744
O O8 0.324112 0.156262 0.972679
O O9 0.804401 0.896408 0.696993
O O10 0.779382 0.917338 0.948552
O O11 0.500000 0.197449 0.672072
O O12 0.811965 0.000000 0.500000
#
# Coordination Sequence:
#
# PCOD9479160 Si02
#       5
#    16  16  16  16  16
#     4  10  20  37  64  96 129 170 217 271 333 400
#     4  12  23  44  67  96 138 175 227 280 335 404
#     4  11  23  43  66  99 130 175 232 279 335 400
#     4  11  24  41  68 100 135 176 223 275 340 406
#     4  11  25  44  65  96 136 181 226 277 342 402
#
# _framework density 19.987089000000001
#
# number of rings (size 3 to 8) (size 9 to 14) (size 15 to 20)
#    0.000    1.000    4.000    3.000    0.000    0.800 
#    0.000    0.000    0.000    4.200    0.000    0.000 
#    0.000    0.000    0.000    0.000    0.000    0.000 
#
# Total GULP energy -222845.926930 kJ/mol
# GULP energy per Si atom -5571.148173 kJ/mol
# Density = 1.994160 g / cm^3
# Si number density = 19.987089 Si / 1000 Ang^3
#
#
#
# Elastic Constant Matrix: (Units=GPa)
#
#
# Indices 1 2 3 4 5 6 
#
# 1 81.7946 76.5450 20.4801 0.0000 0.0000 0.0000
# 2 76.5450 166.5587 38.6888 0.0000 0.0000 0.0000
# 3 20.4801 38.6888 73.3354 0.0000 0.0000 0.0000
# 4 0.0000 0.0000 0.0000 -42.7190 0.0000 0.0000
# 5 0.0000 0.0000 0.0000 0.0000 31.4942 0.0000
# 6 0.0000 0.0000 0.0000 0.0000 0.0000 -21.5549
#
#
#
# Elastic Compliance Matrix: (Units=1/GPa)
#
#
# Indices 1 2 3 4 5 6 
#
# 1 0.021504 -0.009673 -0.000902 0.000000 0.000000 0.000000
# 2 -0.009673 0.011193 -0.003204 0.000000 0.000000 0.000000
# 3 -0.000902 -0.003204 0.015578 0.000000 0.000000 0.000000
# 4 0.000000 0.000000 0.000000 -0.023409 0.000000 0.000000
# 5 0.000000 0.000000 0.000000 0.000000 0.031752 0.000000
# 6 0.000000 0.000000 0.000000 0.000000 0.000000 -0.046393
#
#
# Mechanical properties :
#
#
# Convention : Reuss Voigt Hill
#
# Bulk Modulus (GPa) = 48.26878 65.90184 57.08531
# Shear Modulus (GPa) = 111.88468 5.84239 58.86354
#
# Velocity S-wave (km/s) = 7.48999 1.71156 5.43274
# Velocity P-wave (km/s) = 9.95000 6.07863 8.24476
#
# Compressibility (1/GPa) = 0.02071733
#
# Stress axis : x y z
#
# Youngs Moduli (GPa) = 46.50373 89.33829 64.19226
#
# Poissons Ratio (x) = 0.86415 0.05792
# Poissons Ratio (y) = 0.44982 0.20567
# Poissons Ratio (z) = 0.04196 0.28623
#
# Static dielectric constant tensor:
#      x y z
#    x 1.353760 0.000000 0.000000 
#    y 0.000000 1.573250 0.000000 
#    z 0.000000 0.000000 1.686040 
# 
# From -- ./inp_files/18097.got.cif
#   From: 2010.05.17/outbox.cif.g08.bks.cpg/sg64_10_cif.got.tgz:18097.got - 2010.06.03 16:29:19.
