data_PCOD9479785
_publ_section_title
;
Structure prediction by ZEFSAII (Michael W. Deem and Ramdas Pophale) SiO2 
 PCOD9479785
Probable space group: C M C A
;
_chemical_formula_sum "Si O2"
_cell_formula_units_Z 56
_cell_length_a 22.949982
_cell_length_b 5.061369
_cell_length_c 18.725427
_cell_angle_alpha 90.000000
_cell_angle_beta 90.000000
_cell_angle_gamma 90.000000
_cell_volume 2175.114281
_symmetry_space_group_name_H-M "C M C A"
_symmetry_group_IT_number 64
_symmetry_cell_setting 'orthorhombic'
loop_
_space_group_symop_operation_xyz
x,y,z
-x,1/2-y,1/2+z
x,-y,-z
-x,1/2+y,1/2-z
-x,-y,-z
x,1/2+y,1/2-z
-x,y,z
x,1/2-y,1/2+z
1/2+x,1/2+y,z
1/2-x,-y,1/2+z
1/2+x,1/2-y,-z
1/2-x,y,1/2-z
1/2-x,1/2-y,-z
1/2+x,y,1/2-z
1/2-x,1/2+y,z
1/2+x,-y,1/2+z
loop_
_atom_site_type_symbol
_atom_site_label
_atom_site_fract_x
_atom_site_fract_y
_atom_site_fract_z
Si Si1 0.000000 0.844810 0.705439
Si Si2 0.500000 0.248691 0.448607
Si Si3 0.371210 0.652257 0.576331
Si Si4 0.292015 0.500000 0.000000
Si Si5 0.130320 0.207858 0.299605
O O1 0.062600 0.781327 0.673678
O O2 0.000000 0.148789 0.727127
O O3 0.500000 0.500000 0.500000
O O4 0.438000 0.262979 0.409103
O O5 0.500000 0.000000 0.500000
O O6 0.371108 0.500000 0.500000
O O7 0.342830 0.456869 0.634504
O O8 0.334941 0.920718 0.564751
O O9 0.250000 0.750000 0.000000
O O10 0.139871 0.998532 0.233584
#
# Coordination Sequence:
#
# PCOD9479785 Si02
#       5
#     8   8  16   8  16
#     4   8  15  32  50  81 126 175 213 244 307 402
#     4  10  21  36  61 102 138 169 208 273 341 392
#     4  11  24  43  70 101 139 176 223 278 337 402
#     4  12  26  45  70  97 124 174 230 280 330 396
#     4  10  22  36  60  92 132 175 216 265 327 397
#
# _framework density 25.745775999999999
#
# number of rings (size 3 to 8) (size 9 to 14) (size 15 to 20)
#    0.000    1.714    2.857    0.857    4.000    0.000 
#    0.000    5.714    0.000    5.143    0.000    0.000 
#    0.000    0.000    0.000    0.000    0.000    0.000 
#
# Total GULP energy -156247.589862 kJ/mol
# GULP energy per Si atom -5580.271066 kJ/mol
# Density = 2.568718 g / cm^3
# Si number density = 25.745776 Si / 1000 Ang^3
#
#
#
# Elastic Constant Matrix: (Units=GPa)
#
#
# Indices 1 2 3 4 5 6 
#
# 1 91.7753 31.4922 -0.4221 0.0000 0.0000 0.0000
# 2 31.4922 197.4518 33.2545 0.0000 0.0000 0.0000
# 3 -0.4221 33.2545 77.2729 0.0000 0.0000 0.0000
# 4 0.0000 0.0000 0.0000 58.1435 0.0000 0.0000
# 5 0.0000 0.0000 0.0000 0.0000 7.9112 0.0000
# 6 0.0000 0.0000 0.0000 0.0000 0.0000 16.2941
#
#
#
# Elastic Compliance Matrix: (Units=1/GPa)
#
#
# Indices 1 2 3 4 5 6 
#
# 1 0.011588 -0.002004 0.000926 0.000000 0.000000 0.000000
# 2 -0.002004 0.005807 -0.002510 0.000000 0.000000 0.000000
# 3 0.000926 -0.002510 0.014026 0.000000 0.000000 0.000000
# 4 0.000000 0.000000 0.000000 0.017199 0.000000 0.000000
# 5 0.000000 0.000000 0.000000 0.000000 0.126402 0.000000
# 6 0.000000 0.000000 0.000000 0.000000 0.000000 0.061372
#
#
# Mechanical properties :
#
#
# Convention : Reuss Voigt Hill
#
# Bulk Modulus (GPa) = 41.24598 55.01656 48.13127
# Shear Modulus (GPa) = 19.86865 36.61480 28.24173
#
# Velocity S-wave (km/s) = 2.78101 3.77525 3.31561
# Velocity P-wave (km/s) = 5.13491 6.35759 5.77868
#
# Compressibility (1/GPa) = 0.02424478
#
# Stress axis : x y z
#
# Youngs Moduli (GPa) = 86.29508 172.20903 71.29428
#
# Poissons Ratio (x) = 0.34513 -0.06600
# Poissons Ratio (y) = 0.17295 0.17895
# Poissons Ratio (z) = -0.07989 0.43224
#
# Static dielectric constant tensor:
#      x y z
#    x 2.257280 0.000000 0.000000 
#    y 0.000000 2.084520 0.000000 
#    z 0.000000 0.000000 2.208780 
# 
# From -- ./inp_files/41687.got.cif
#   From: 2010.05.17/outbox.cif.g08.bks.cpg/sg64_21_cif.got.tgz:41687.got - 2010.06.03 16:29:19.
