data_PCOD9479028
_publ_section_title
;
Structure prediction by ZEFSAII (Michael W. Deem and Ramdas Pophale) SiO2 
 PCOD9479028
Probable space group: C M C A
;
_chemical_formula_sum "Si O2"
_cell_formula_units_Z 112
_cell_length_a 20.409908
_cell_length_b 17.340165
_cell_length_c 18.827598
_cell_angle_alpha 90.000000
_cell_angle_beta 90.000000
_cell_angle_gamma 90.000000
_cell_volume 6663.297281
_symmetry_space_group_name_H-M "C M C A"
_symmetry_group_IT_number 64
_symmetry_cell_setting 'orthorhombic'
loop_
_space_group_symop_operation_xyz
x,y,z
-x,1/2-y,1/2+z
x,-y,-z
-x,1/2+y,1/2-z
-x,-y,-z
x,1/2+y,1/2-z
-x,y,z
x,1/2-y,1/2+z
1/2+x,1/2+y,z
1/2-x,-y,1/2+z
1/2+x,1/2-y,-z
1/2-x,y,1/2-z
1/2-x,1/2-y,-z
1/2+x,y,1/2-z
1/2-x,1/2+y,z
1/2+x,-y,1/2+z
loop_
_atom_site_type_symbol
_atom_site_label
_atom_site_fract_x
_atom_site_fract_y
_atom_site_fract_z
Si Si1 0.296028 0.792677 0.444190
Si Si2 0.264187 0.036750 0.927507
Si Si3 0.681050 0.107012 0.791150
Si Si4 0.780782 0.222881 0.177327
Si Si5 0.646687 0.919855 0.608879
Si Si6 0.424557 0.546233 0.818513
Si Si7 0.576229 0.635988 0.969265
O O1 0.250000 0.750000 0.500000
O O2 0.271768 0.881528 0.442487
O O3 0.279823 0.752450 0.370201
O O4 0.372553 0.793778 0.461826
O O5 0.313382 0.057112 0.863387
O O6 0.208054 0.976909 0.903516
O O7 0.292429 0.000000 0.000000
O O8 0.750000 0.094410 0.750000
O O9 0.679417 0.198176 0.808320
O O10 0.622882 0.083970 0.739120
O O11 0.750000 0.191389 0.250000
O O12 0.823614 0.160530 0.135850
O O13 0.604757 0.909996 0.536938
O O14 0.600639 0.960048 0.666707
O O15 0.500000 0.549025 0.797057
O O16 0.418833 0.588930 0.895259
O O17 0.500000 0.654844 0.980373
#
# Coordination Sequence:
#
# PCOD9479028 Si02
#       7
#    16  16  16  16  16  16  16
#     4  11  19  36  55  81 117 146 186 233 280 336
#     4  11  19  32  57  88 112 142 191 238 282 334
#     4  10  20  37  57  80 114 149 195 231 282 345
#     4  10  22  34  56  83 111 149 190 241 281 334
#     4  12  20  34  55  89 117 145 182 237 294 343
#     4  11  22  37  58  84 116 149 185 233 290 349
#     4  11  21  34  56  85 117 147 180 228 290 349
#
# _framework density 16.808495000000001
#
# number of rings (size 3 to 8) (size 9 to 14) (size 15 to 20)
#    0.000    1.143    5.714    2.571    2.000    1.143 
#    0.000    1.429    0.000    2.143    0.000    0.000 
#    0.000    0.000    0.000    0.000    0.000    0.000 
#
# Total GULP energy -312440.275157 kJ/mol
# GULP energy per Si atom -5579.290628 kJ/mol
# Density = 1.677024 g / cm^3
# Si number density = 16.808495 Si / 1000 Ang^3
#
#
#
# Elastic Constant Matrix: (Units=GPa)
#
#
# Indices 1 2 3 4 5 6 
#
# 1 125.9772 64.2184 54.8899 0.0000 0.0000 0.0000
# 2 64.2184 74.5095 50.6481 0.0000 0.0000 0.0000
# 3 54.8899 50.6481 98.6955 0.0000 0.0000 0.0000
# 4 0.0000 0.0000 0.0000 27.3730 0.0000 0.0000
# 5 0.0000 0.0000 0.0000 0.0000 28.7396 0.0000
# 6 0.0000 0.0000 0.0000 0.0000 0.0000 12.9758
#
#
#
# Elastic Compliance Matrix: (Units=1/GPa)
#
#
# Indices 1 2 3 4 5 6 
#
# 1 0.014564 -0.010821 -0.002546 0.000000 0.000000 0.000000
# 2 -0.010821 0.028651 -0.008685 0.000000 0.000000 0.000000
# 3 -0.002546 -0.008685 0.016005 0.000000 0.000000 0.000000
# 4 0.000000 0.000000 0.000000 0.036532 0.000000 0.000000
# 5 0.000000 0.000000 0.000000 0.000000 0.034795 0.000000
# 6 0.000000 0.000000 0.000000 0.000000 0.000000 0.077066
#
#
# Mechanical properties :
#
#
# Convention : Reuss Voigt Hill
#
# Bulk Modulus (GPa) = 66.15886 70.96609 68.56248
# Shear Modulus (GPa) = 19.47359 22.44605 20.95982
#
# Velocity S-wave (km/s) = 3.40745 3.65828 3.53509
# Velocity P-wave (km/s) = 7.41126 7.75603 7.58560
#
# Compressibility (1/GPa) = 0.01511513
#
# Stress axis : x y z
#
# Youngs Moduli (GPa) = 68.66364 34.90240 62.47940
#
# Poissons Ratio (x) = 0.37769 0.15910
# Poissons Ratio (y) = 0.74303 0.54263
# Poissons Ratio (z) = 0.17485 0.30312
#
# Static dielectric constant tensor:
#      x y z
#    x 1.555180 0.000000 0.000000 
#    y 0.000000 1.574110 0.000000 
#    z 0.000000 0.000000 1.622220 
# 
# From -- ./inp_files/34469.got.cif
#   From: 2010.05.17/outbox.cif.g08.bks.cpg/sg64_18_cif.got.tgz:34469.got - 2010.06.03 16:29:19.
