data_PCOD9479321
_publ_section_title
;
Structure prediction by ZEFSAII (Michael W. Deem and Ramdas Pophale) SiO2 
 PCOD9479321
Probable space group: C M C A
;
_chemical_formula_sum "Si O2"
_cell_formula_units_Z 112
_cell_length_a 14.128215
_cell_length_b 32.824130
_cell_length_c 12.167008
_cell_angle_alpha 90.000000
_cell_angle_beta 90.000000
_cell_angle_gamma 90.000000
_cell_volume 5642.405743
_symmetry_space_group_name_H-M "C M C A"
_symmetry_group_IT_number 64
_symmetry_cell_setting 'orthorhombic'
loop_
_space_group_symop_operation_xyz
x,y,z
-x,1/2-y,1/2+z
x,-y,-z
-x,1/2+y,1/2-z
-x,-y,-z
x,1/2+y,1/2-z
-x,y,z
x,1/2-y,1/2+z
1/2+x,1/2+y,z
1/2-x,-y,1/2+z
1/2+x,1/2-y,-z
1/2-x,y,1/2-z
1/2-x,1/2-y,-z
1/2+x,y,1/2-z
1/2-x,1/2+y,z
1/2+x,-y,1/2+z
loop_
_atom_site_type_symbol
_atom_site_label
_atom_site_fract_x
_atom_site_fract_y
_atom_site_fract_z
Si Si1 0.168354 0.946476 0.341105
Si Si2 0.392886 0.969964 0.750718
Si Si3 0.105467 0.216549 0.004773
Si Si4 0.391032 0.860191 0.235830
Si Si5 0.107975 0.874459 0.004666
Si Si6 0.207649 0.720442 0.855513
Si Si7 0.253448 0.557795 0.078930
O O1 0.250000 0.944843 0.250000
O O2 0.120643 0.902221 0.330995
O O3 0.210460 0.953906 0.461544
O O4 0.107321 0.985358 0.305468
O O5 0.500000 0.956398 0.732330
O O6 0.330650 0.971015 0.639374
O O7 0.333367 0.941421 0.834580
O O8 0.105251 0.170354 0.048203
O O9 0.198857 0.216543 0.929547
O O10 0.000000 0.222121 0.953885
O O11 0.126704 0.252654 0.089110
O O12 0.500000 0.847558 0.235847
O O13 0.368097 0.869385 0.364687
O O14 0.332454 0.823308 0.182683
O O15 0.000000 0.891366 0.000384
O O16 0.185831 0.901820 0.945937
O O17 0.250000 0.742967 0.750000
#
# Coordination Sequence:
#
# PCOD9479321 Si02
#       7
#    16  16  16  16  16  16  16
#     4  12  22  39  64  99 131 167 210 271 329 386
#     4  11  26  45  64  92 130 176 221 266 327 390
#     4  10  22  38  60  90 124 163 207 253 311 377
#     4  11  22  37  65 101 132 161 203 264 327 388
#     4  10  20  38  65  95 126 165 209 262 321 386
#     4  11  21  38  62  92 125 165 202 255 315 377
#     4  11  23  42  68  90 127 171 217 268 321 386
#
# _framework density 19.849689999999999
#
# number of rings (size 3 to 8) (size 9 to 14) (size 15 to 20)
#    0.000    1.143    4.286    3.000    0.000    2.286 
#    2.571    0.714    0.000    0.857    0.000    0.000 
#    0.000    0.000    0.000    0.000    0.000    0.000 
#
# Total GULP energy -312264.142110 kJ/mol
# GULP energy per Si atom -5576.145395 kJ/mol
# Density = 1.980451 g / cm^3
# Si number density = 19.849690 Si / 1000 Ang^3
#
#
#
# Elastic Constant Matrix: (Units=GPa)
#
#
# Indices 1 2 3 4 5 6 
#
# 1 125.2655 41.6537 31.0671 0.0000 0.0000 0.0000
# 2 41.6537 109.9995 40.2869 0.0000 0.0000 0.0000
# 3 31.0671 40.2869 77.1710 0.0000 0.0000 0.0000
# 4 0.0000 0.0000 0.0000 30.8370 0.0000 0.0000
# 5 0.0000 0.0000 0.0000 0.0000 16.2751 0.0000
# 6 0.0000 0.0000 0.0000 0.0000 0.0000 83.2840
#
#
#
# Elastic Compliance Matrix: (Units=1/GPa)
#
#
# Indices 1 2 3 4 5 6 
#
# 1 0.009480 -0.002710 -0.002401 0.000000 0.000000 0.000000
# 2 -0.002710 0.012015 -0.005181 0.000000 0.000000 0.000000
# 3 -0.002401 -0.005181 0.016630 0.000000 0.000000 0.000000
# 4 0.000000 0.000000 0.000000 0.032429 0.000000 0.000000
# 5 0.000000 0.000000 0.000000 0.000000 0.061444 0.000000
# 6 0.000000 0.000000 0.000000 0.000000 0.000000 0.012007
#
#
# Mechanical properties :
#
#
# Convention : Reuss Voigt Hill
#
# Bulk Modulus (GPa) = 57.01692 59.82794 58.42243
# Shear Modulus (GPa) = 29.33654 39.37444 34.35549
#
# Velocity S-wave (km/s) = 3.84856 4.45863 4.16478
# Velocity P-wave (km/s) = 6.96673 7.53072 7.25421
#
# Compressibility (1/GPa) = 0.01753865
#
# Stress axis : x y z
#
# Youngs Moduli (GPa) = 105.48690 83.23034 60.13273
#
# Poissons Ratio (x) = 0.22557 0.14441
# Poissons Ratio (y) = 0.28589 0.31156
# Poissons Ratio (z) = 0.25333 0.43124
#
# Static dielectric constant tensor:
#      x y z
#    x 1.741800 0.000000 0.000000 
#    y 0.000000 1.731740 0.000000 
#    z 0.000000 0.000000 1.728670 
# 
# From -- ./inp_files/14979.got.cif
#   From: 2010.05.17/outbox.cif.g08.bks.cpg/sg64_8_cif.got.tgz:14979.got - 2010.06.03 16:29:19.
