data_PCOD9479573
_publ_section_title
;
Structure prediction by ZEFSAII (Michael W. Deem and Ramdas Pophale) SiO2 
 PCOD9479573
Probable space group: C M C A
;
_chemical_formula_sum "Si O2"
_cell_formula_units_Z 100
_cell_length_a 23.257163
_cell_length_b 9.470399
_cell_length_c 23.417091
_cell_angle_alpha 90.000000
_cell_angle_beta 90.000000
_cell_angle_gamma 90.000000
_cell_volume 5157.722321
_symmetry_space_group_name_H-M "C M C A"
_symmetry_group_IT_number 64
_symmetry_cell_setting 'orthorhombic'
loop_
_space_group_symop_operation_xyz
x,y,z
-x,1/2-y,1/2+z
x,-y,-z
-x,1/2+y,1/2-z
-x,-y,-z
x,1/2+y,1/2-z
-x,y,z
x,1/2-y,1/2+z
1/2+x,1/2+y,z
1/2-x,-y,1/2+z
1/2+x,1/2-y,-z
1/2-x,y,1/2-z
1/2-x,1/2-y,-z
1/2+x,y,1/2-z
1/2-x,1/2+y,z
1/2+x,-y,1/2+z
loop_
_atom_site_type_symbol
_atom_site_label
_atom_site_fract_x
_atom_site_fract_y
_atom_site_fract_z
Si Si1 0.715549 0.060105 0.561569
Si Si2 0.728054 0.674301 0.370118
Si Si3 0.874948 0.577848 0.204949
Si Si4 0.593087 0.932168 0.591181
Si Si5 0.000000 0.528816 0.676833
Si Si6 0.500000 0.337839 0.717061
Si Si7 0.000000 0.500000 0.500000
Si Si8 0.848362 0.251882 0.182030
O O1 0.722439 0.223919 0.575214
O O2 0.731500 0.000000 0.500000
O O3 0.753928 0.978956 0.607922
O O4 0.650138 0.014531 0.573208
O O5 0.669334 0.661054 0.335504
O O6 0.781008 0.730105 0.331896
O O7 0.861808 0.411166 0.201247
O O8 0.865180 0.642591 0.267921
O O9 0.941253 0.606086 0.189449
O O10 0.615808 0.794450 0.625427
O O11 0.555250 0.021935 0.636177
O O12 0.550683 0.917472 0.537621
O O13 0.000000 0.669373 0.714043
O O14 0.000000 0.395403 0.718475
#
# Coordination Sequence:
#
# PCOD9479573 Si02
#       8
#    16  16  16  16   8   8   4  16
#     4  11  22  42  65  95 123 171 228 291 333 400
#     4  11  24  41  65  94 133 176 224 281 348 407
#     4  12  25  42  64  99 142 180 221 275 354 420
#     4  10  22  39  66  94 129 165 236 274 336 397
#     4  11  22  39  59  94 131 169 220 259 324 409
#     4  12  24  37  63  92 131 179 205 263 327 410
#     4  10  20  42  68  96 122 184 220 296 324 410
#     4  11  25  41  66  99 136 178 225 286 342 427
#
# _framework density 19.388404000000001
#
# number of rings (size 3 to 8) (size 9 to 14) (size 15 to 20)
#    0.000    0.960    4.000    2.880    4.480    1.920 
#    0.000    0.000    0.000    0.000    0.000    6.160 
#    0.000    0.000    0.000    0.000    0.000    0.000 
#
# Total GULP energy -278661.954568 kJ/mol
# GULP energy per Si atom -5573.239091 kJ/mol
# Density = 1.934427 g / cm^3
# Si number density = 19.388404 Si / 1000 Ang^3
#
#
#
# Elastic Constant Matrix: (Units=GPa)
#
#
# Indices 1 2 3 4 5 6 
#
# 1 137.3053 11.1325 38.5166 0.0000 0.0000 0.0000
# 2 11.1325 91.9529 27.0375 0.0000 0.0000 0.0000
# 3 38.5166 27.0375 60.9343 0.0000 0.0000 0.0000
# 4 0.0000 0.0000 0.0000 30.8020 0.0000 0.0000
# 5 0.0000 0.0000 0.0000 0.0000 29.1295 0.0000
# 6 0.0000 0.0000 0.0000 0.0000 0.0000 7.5686
#
#
#
# Elastic Compliance Matrix: (Units=1/GPa)
#
#
# Indices 1 2 3 4 5 6 
#
# 1 0.008888 0.000662 -0.005912 0.000000 0.000000 0.000000
# 2 0.000662 0.012556 -0.005990 0.000000 0.000000 0.000000
# 3 -0.005912 -0.005990 0.022806 0.000000 0.000000 0.000000
# 4 0.000000 0.000000 0.000000 0.032465 0.000000 0.000000
# 5 0.000000 0.000000 0.000000 0.000000 0.034329 0.000000
# 6 0.000000 0.000000 0.000000 0.000000 0.000000 0.132125
#
#
# Mechanical properties :
#
#
# Convention : Reuss Voigt Hill
#
# Bulk Modulus (GPa) = 45.93330 49.28508 47.60919
# Shear Modulus (GPa) = 18.32138 27.73374 23.02756
#
# Velocity S-wave (km/s) = 3.07737 3.78620 3.45004
# Velocity P-wave (km/s) = 6.03071 6.67749 6.36232
#
# Compressibility (1/GPa) = 0.02177070
#
# Stress axis : x y z
#
# Youngs Moduli (GPa) = 112.51504 79.64170 43.84851
#
# Poissons Ratio (x) = -0.05274 0.25922
# Poissons Ratio (y) = -0.07451 0.26265
# Poissons Ratio (z) = 0.66516 0.47705
#
# Static dielectric constant tensor:
#      x y z
#    x 1.685650 0.000000 0.000000 
#    y 0.000000 1.644300 0.000000 
#    z 0.000000 0.000000 1.701330 
# 
# From -- ./inp_files/41893.got.cif
#   From: 2010.05.17/outbox.cif.g08.bks.cpg/sg64_21_cif.got.tgz:41893.got - 2010.06.03 16:29:19.
