data_PCOD9479486
_publ_section_title
;
Structure prediction by ZEFSAII (Michael W. Deem and Ramdas Pophale) SiO2 
 PCOD9479486
Probable space group: C M C A
;
_chemical_formula_sum "Si O2"
_cell_formula_units_Z 116
_cell_length_a 13.882174
_cell_length_b 18.497375
_cell_length_c 22.624207
_cell_angle_alpha 90.000000
_cell_angle_beta 90.000000
_cell_angle_gamma 90.000000
_cell_volume 5809.529354
_symmetry_space_group_name_H-M "C M C A"
_symmetry_group_IT_number 64
_symmetry_cell_setting 'orthorhombic'
loop_
_space_group_symop_operation_xyz
x,y,z
-x,1/2-y,1/2+z
x,-y,-z
-x,1/2+y,1/2-z
-x,-y,-z
x,1/2+y,1/2-z
-x,y,z
x,1/2-y,1/2+z
1/2+x,1/2+y,z
1/2-x,-y,1/2+z
1/2+x,1/2-y,-z
1/2-x,y,1/2-z
1/2-x,1/2-y,-z
1/2+x,y,1/2-z
1/2-x,1/2+y,z
1/2+x,-y,1/2+z
loop_
_atom_site_type_symbol
_atom_site_label
_atom_site_fract_x
_atom_site_fract_y
_atom_site_fract_z
Si Si1 0.886384 0.943923 0.230892
Si Si2 0.000000 0.000000 0.500000
Si Si3 0.717619 0.495807 0.660615
Si Si4 0.114910 0.343039 0.853364
Si Si5 0.384045 0.281600 0.240056
Si Si6 0.320886 0.409992 0.447933
Si Si7 0.750980 0.316609 0.955407
Si Si8 0.384236 0.233855 0.876338
O O1 0.820026 0.997372 0.193022
O O2 0.857857 0.959345 0.298711
O O3 0.855390 0.861274 0.217626
O O4 0.000000 0.952927 0.221898
O O5 0.083961 0.054305 0.525585
O O6 0.674015 0.416157 0.657402
O O7 0.723876 0.532943 0.597309
O O8 0.138822 0.283322 0.804055
O O9 0.151317 0.315857 0.916898
O O10 0.000000 0.356988 0.853237
O O11 0.500000 0.284840 0.242336
O O12 0.353037 0.269329 0.307603
O O13 0.253301 0.385981 0.502361
O O14 0.348795 0.338425 0.410031
O O15 0.665297 0.301665 0.909337
O O16 0.750000 0.250000 0.000000
O O17 0.500000 0.237574 0.879028
#
# Coordination Sequence:
#
# PCOD9479486 Si02
#       8
#    16   4  16  16  16  16  16  16
#     4  10  22  41  65  97 133 180 226 269 338 413
#     4  12  24  36  72  88 122 176 220 294 332 388
#     4  11  24  39  67  98 135 176 223 289 336 405
#     4  11  25  43  66  98 131 163 217 285 345 394
#     4   9  20  39  67  95 123 170 220 267 329 403
#     4  11  23  39  60  96 129 172 227 273 339 389
#     4  10  25  39  58  91 131 166 216 267 325 410
#     4  10  20  40  65  91 129 173 216 272 333 405
#
# _framework density 19.967193999999999
#
# number of rings (size 3 to 8) (size 9 to 14) (size 15 to 20)
#    0.000    1.655    2.069    1.241    8.690    3.310 
#    0.000    2.759    0.000    0.000    0.000    2.897 
#    0.000    0.000    0.000    0.000    0.000    0.000 
#
# Total GULP energy -323414.612645 kJ/mol
# GULP energy per Si atom -5576.114011 kJ/mol
# Density = 1.992175 g / cm^3
# Si number density = 19.967194 Si / 1000 Ang^3
#
#
#
# Elastic Constant Matrix: (Units=GPa)
#
#
# Indices 1 2 3 4 5 6 
#
# 1 108.3967 38.9242 35.3477 0.0000 0.0000 0.0000
# 2 38.9242 99.9917 72.9908 0.0000 0.0000 0.0000
# 3 35.3477 72.9908 108.6805 0.0000 0.0000 0.0000
# 4 0.0000 0.0000 0.0000 27.5079 0.0000 0.0000
# 5 0.0000 0.0000 0.0000 0.0000 18.4965 0.0000
# 6 0.0000 0.0000 0.0000 0.0000 0.0000 -82.0750
#
#
#
# Elastic Compliance Matrix: (Units=1/GPa)
#
#
# Indices 1 2 3 4 5 6 
#
# 1 0.010825 -0.003225 -0.001355 0.000000 0.000000 0.000000
# 2 -0.003225 0.020580 -0.012773 0.000000 0.000000 0.000000
# 3 -0.001355 -0.012773 0.018220 0.000000 0.000000 0.000000
# 4 0.000000 0.000000 0.000000 0.036353 0.000000 0.000000
# 5 0.000000 0.000000 0.000000 0.000000 0.054064 0.000000
# 6 0.000000 0.000000 0.000000 0.000000 0.000000 -0.012184
#
#
# Mechanical properties :
#
#
# Convention : Reuss Voigt Hill
#
# Bulk Modulus (GPa) = 67.02346 67.95495 67.48921
# Shear Modulus (GPa) = 29.84400 4.10628 16.97514
#
# Velocity S-wave (km/s) = 3.87027 1.43561 2.91890
# Velocity P-wave (km/s) = 7.32199 6.07084 6.72558
#
# Compressibility (1/GPa) = 0.01492015
#
# Stress axis : x y z
#
# Youngs Moduli (GPa) = 92.37649 48.59097 54.88382
#
# Poissons Ratio (x) = 0.15670 0.07437
# Poissons Ratio (y) = 0.29791 0.70102
# Poissons Ratio (z) = 0.12517 0.62064
#
# Static dielectric constant tensor:
#      x y z
#    x 1.693000 0.000000 0.000000 
#    y 0.000000 1.723050 0.000000 
#    z 0.000000 0.000000 1.733600 
# 
# From -- ./inp_files/45424.got.cif
#   From: 2010.05.17/outbox.cif.g08.bks.cpg/sg64_23_cif.got.tgz:45424.got - 2010.06.03 16:29:19.
