data_PCOD9479467
_publ_section_title
;
Structure prediction by ZEFSAII (Michael W. Deem and Ramdas Pophale) SiO2 
 PCOD9479467
Probable space group: C M C A
;
_chemical_formula_sum "Si O2"
_cell_formula_units_Z 104
_cell_length_a 20.701482
_cell_length_b 15.958799
_cell_length_c 13.325261
_cell_angle_alpha 90.000000
_cell_angle_beta 90.000000
_cell_angle_gamma 90.000000
_cell_volume 4402.277007
_symmetry_space_group_name_H-M "C M C A"
_symmetry_group_IT_number 64
_symmetry_cell_setting 'orthorhombic'
loop_
_space_group_symop_operation_xyz
x,y,z
-x,1/2-y,1/2+z
x,-y,-z
-x,1/2+y,1/2-z
-x,-y,-z
x,1/2+y,1/2-z
-x,y,z
x,1/2-y,1/2+z
1/2+x,1/2+y,z
1/2-x,-y,1/2+z
1/2+x,1/2-y,-z
1/2-x,y,1/2-z
1/2-x,1/2-y,-z
1/2+x,y,1/2-z
1/2-x,1/2+y,z
1/2+x,-y,1/2+z
loop_
_atom_site_type_symbol
_atom_site_label
_atom_site_fract_x
_atom_site_fract_y
_atom_site_fract_z
Si Si1 0.000000 0.483954 0.675053
Si Si2 0.312829 0.685810 0.582580
Si Si3 0.623812 0.784986 0.407131
Si Si4 0.000000 0.130833 0.974925
Si Si5 0.135335 0.915101 0.798828
Si Si6 0.750000 0.311084 0.750000
Si Si7 0.716604 0.062137 0.639821
Si Si8 0.424089 0.254568 0.311193
O O1 0.000000 0.428667 0.572004
O O2 0.000000 0.576442 0.628487
O O3 0.068377 0.463146 0.730186
O O4 0.330372 0.729717 0.478199
O O5 0.273974 0.748356 0.660850
O O6 0.273272 0.599954 0.570750
O O7 0.381466 0.673224 0.638384
O O8 0.561738 0.811456 0.468875
O O9 0.662216 0.867047 0.371722
O O10 0.593356 0.747929 0.306165
O O11 0.190509 0.874613 0.726453
O O12 0.106888 0.832311 0.848975
O O13 0.177695 0.975431 0.870602
O O14 0.750000 0.061203 0.750000
O O15 0.500000 0.260977 0.325524
#
# Coordination Sequence:
#
# PCOD9479467 Si02
#       8
#     8  16  16   8  16   8  16  16
#     4  11  22  39  60 100 149 179 235 299 355 420
#     4  11  24  42  70 100 143 177 234 293 354 417
#     4  12  24  41  71 104 138 182 235 296 354 427
#     4  11  22  37  64 104 139 180 235 293 355 419
#     4  11  22  38  66  94 138 185 223 285 357 416
#     4  10  20  40  64 102 136 174 226 292 358 414
#     4  12  22  42  64  94 136 180 233 280 346 418
#     4  11  23  42  69 104 141 185 232 292 360 424
#
# _framework density 23.624137000000001
#
# number of rings (size 3 to 8) (size 9 to 14) (size 15 to 20)
#    0.000    0.769    6.154    3.231    1.077    0.000 
#    0.000    0.000   10.154    0.000    0.000    1.077 
#    0.000    0.000    0.000    0.000    0.000    0.000 
#
# Total GULP energy -290015.508925 kJ/mol
# GULP energy per Si atom -5577.221325 kJ/mol
# Density = 2.357037 g / cm^3
# Si number density = 23.624137 Si / 1000 Ang^3
#
#
#
# Elastic Constant Matrix: (Units=GPa)
#
#
# Indices 1 2 3 4 5 6 
#
# 1 209.0075 58.9219 47.2789 0.0000 0.0000 0.0000
# 2 58.9219 81.5969 23.6294 0.0000 0.0000 0.0000
# 3 47.2789 23.6294 85.0512 0.0000 0.0000 0.0000
# 4 0.0000 0.0000 0.0000 19.1012 0.0000 0.0000
# 5 0.0000 0.0000 0.0000 0.0000 35.6239 0.0000
# 6 0.0000 0.0000 0.0000 0.0000 0.0000 107.7819
#
#
#
# Elastic Compliance Matrix: (Units=1/GPa)
#
#
# Indices 1 2 3 4 5 6 
#
# 1 0.006461 -0.003942 -0.002496 0.000000 0.000000 0.000000
# 2 -0.003942 0.015733 -0.002180 0.000000 0.000000 0.000000
# 3 -0.002496 -0.002180 0.013751 0.000000 0.000000 0.000000
# 4 0.000000 0.000000 0.000000 0.052353 0.000000 0.000000
# 5 0.000000 0.000000 0.000000 0.000000 0.028071 0.000000
# 6 0.000000 0.000000 0.000000 0.000000 0.000000 0.009278
#
#
# Mechanical properties :
#
#
# Convention : Reuss Voigt Hill
#
# Bulk Modulus (GPa) = 53.45151 70.59067 62.02109
# Shear Modulus (GPa) = 33.53035 48.88976 41.21006
#
# Velocity S-wave (km/s) = 3.77148 4.55409 4.18114
# Velocity P-wave (km/s) = 6.45293 7.58938 7.04411
#
# Compressibility (1/GPa) = 0.01870854
#
# Stress axis : x y z
#
# Youngs Moduli (GPa) = 154.78545 63.55901 72.72364
#
# Poissons Ratio (x) = 0.25058 0.18152
# Poissons Ratio (y) = 0.61023 0.15851
# Poissons Ratio (z) = 0.38635 0.13853
#
# Static dielectric constant tensor:
#      x y z
#    x 1.979260 0.000000 0.000000 
#    y 0.000000 1.979080 0.000000 
#    z 0.000000 0.000000 1.958990 
# 
# From -- ./inp_files/26595.got.cif
#   From: 2010.05.17/outbox.cif.g08.bks.cpg/sg64_14_cif.got.tgz:26595.got - 2010.06.03 16:29:19.
