data_PCOD9479905
_publ_section_title
;
Structure prediction by ZEFSAII (Michael W. Deem and Ramdas Pophale) SiO2 
 PCOD9479905
Probable space group: C M C A
;
_chemical_formula_sum "Si O2"
_cell_formula_units_Z 64
_cell_length_a 36.920740
_cell_length_b 14.479666
_cell_length_c 4.985486
_cell_angle_alpha 90.000000
_cell_angle_beta 90.000000
_cell_angle_gamma 90.000000
_cell_volume 2665.240734
_symmetry_space_group_name_H-M "C M C A"
_symmetry_group_IT_number 64
_symmetry_cell_setting 'orthorhombic'
loop_
_space_group_symop_operation_xyz
x,y,z
-x,1/2-y,1/2+z
x,-y,-z
-x,1/2+y,1/2-z
-x,-y,-z
x,1/2+y,1/2-z
-x,y,z
x,1/2-y,1/2+z
1/2+x,1/2+y,z
1/2-x,-y,1/2+z
1/2+x,1/2-y,-z
1/2-x,y,1/2-z
1/2-x,1/2-y,-z
1/2+x,y,1/2-z
1/2-x,1/2+y,z
1/2+x,-y,1/2+z
loop_
_atom_site_type_symbol
_atom_site_label
_atom_site_fract_x
_atom_site_fract_y
_atom_site_fract_z
Si Si1 0.275106 0.110801 0.504631
Si Si2 0.416196 0.391018 0.441897
Si Si3 0.459195 0.887913 0.546510
Si Si4 0.645274 0.808416 0.422731
O O1 0.250000 0.134890 0.750000
O O2 0.313635 0.156664 0.564036
O O3 0.281232 0.000000 0.500000
O O4 0.250000 0.134829 0.250000
O O5 0.415786 0.500000 0.500000
O O6 0.429667 0.357127 0.734522
O O7 0.381105 0.374797 0.248023
O O8 0.447829 0.354626 0.246261
O O9 0.500000 0.864703 0.626036
O O10 0.457943 0.000000 0.500000
O O11 0.640041 0.782731 0.735936
#
# Coordination Sequence:
#
# PCOD9479905 Si02
#       4
#    16  16  16  16
#     4  10  23  43  67  93 121 158 207 259 310 372
#     4  10  21  37  60  88 121 163 209 256 308 370
#     4   9  17  32  58  90 118 151 206 269 314 354
#     4  12  26  41  62  92 130 168 203 254 313 376
#
# _framework density 24.012840000000001
#
# number of rings (size 3 to 8) (size 9 to 14) (size 15 to 20)
#    0.000    1.750    0.000    3.750    0.000   14.000 
#    0.000    0.000    0.000   15.000    0.000    0.000 
#    0.000    0.000    0.000    0.000    0.000    0.000 
#
# Total GULP energy -178275.406669 kJ/mol
# GULP energy per Si atom -5571.106458 kJ/mol
# Density = 2.395819 g / cm^3
# Si number density = 24.012840 Si / 1000 Ang^3
#
#
#
# Elastic Constant Matrix: (Units=GPa)
#
#
# Indices 1 2 3 4 5 6 
#
# 1 205.8583 34.5427 59.1361 0.0000 0.0000 0.0000
# 2 34.5427 62.1077 4.3637 0.0000 0.0000 0.0000
# 3 59.1361 4.3637 185.7963 0.0000 0.0000 0.0000
# 4 0.0000 0.0000 0.0000 27.4905 0.0000 0.0000
# 5 0.0000 0.0000 0.0000 0.0000 37.3838 0.0000
# 6 0.0000 0.0000 0.0000 0.0000 0.0000 126.3105
#
#
#
# Elastic Compliance Matrix: (Units=1/GPa)
#
#
# Indices 1 2 3 4 5 6 
#
# 1 0.005906 -0.003158 -0.001806 0.000000 0.000000 0.000000
# 2 -0.003158 0.017816 0.000587 0.000000 0.000000 0.000000
# 3 -0.001806 0.000587 0.005943 0.000000 0.000000 0.000000
# 4 0.000000 0.000000 0.000000 0.036376 0.000000 0.000000
# 5 0.000000 0.000000 0.000000 0.000000 0.026750 0.000000
# 6 0.000000 0.000000 0.000000 0.000000 0.000000 0.007917
#
#
# Mechanical properties :
#
#
# Convention : Reuss Voigt Hill
#
# Bulk Modulus (GPa) = 47.82025 72.20528 60.01276
# Shear Modulus (GPa) = 42.94304 61.95162 52.44733
#
# Velocity S-wave (km/s) = 4.23346 5.08482 4.67855
# Velocity P-wave (km/s) = 6.62223 8.03795 7.36419
#
# Compressibility (1/GPa) = 0.02091164
#
# Stress axis : x y z
#
# Youngs Moduli (GPa) = 169.30907 56.12844 168.25968
#
# Poissons Ratio (x) = 0.17726 0.30383
# Poissons Ratio (y) = 0.53469 -0.09872
# Poissons Ratio (z) = 0.30573 -0.03293
#
# Static dielectric constant tensor:
#      x y z
#    x 1.832590 0.000000 0.000000 
#    y 0.000000 2.002150 0.000000 
#    z 0.000000 0.000000 1.856050 
# 
# From -- ./inp_files/2718.got.cif
#   From: 2010.05.17/outbox.cif.g08.bks.cpg/sg64_2_cif.got.tgz:2718.got - 2010.06.03 16:29:19.
