data_PCOD9479740
_publ_section_title
;
Structure prediction by ZEFSAII (Michael W. Deem and Ramdas Pophale) SiO2 
 PCOD9479740
Probable space group: C M C A
;
_chemical_formula_sum "Si O2"
_cell_formula_units_Z 80
_cell_length_a 14.451266
_cell_length_b 24.210669
_cell_length_c 8.453196
_cell_angle_alpha 90.000000
_cell_angle_beta 90.000000
_cell_angle_gamma 90.000000
_cell_volume 2957.560410
_symmetry_space_group_name_H-M "C M C A"
_symmetry_group_IT_number 64
_symmetry_cell_setting 'orthorhombic'
loop_
_space_group_symop_operation_xyz
x,y,z
-x,1/2-y,1/2+z
x,-y,-z
-x,1/2+y,1/2-z
-x,-y,-z
x,1/2+y,1/2-z
-x,y,z
x,1/2-y,1/2+z
1/2+x,1/2+y,z
1/2-x,-y,1/2+z
1/2+x,1/2-y,-z
1/2-x,y,1/2-z
1/2-x,1/2-y,-z
1/2+x,y,1/2-z
1/2-x,1/2+y,z
1/2+x,-y,1/2+z
loop_
_atom_site_type_symbol
_atom_site_label
_atom_site_fract_x
_atom_site_fract_y
_atom_site_fract_z
Si Si1 0.112924 0.330367 0.330362
Si Si2 0.391183 0.973464 0.660573
Si Si3 0.846522 0.635433 0.177546
Si Si4 0.106650 0.735545 0.972701
Si Si5 0.612712 0.931241 0.132784
O O1 0.147965 0.294177 0.476380
O O2 0.133688 0.393056 0.286780
O O3 0.000000 0.328828 0.336992
O O4 0.146093 0.296104 0.176921
O O5 0.500000 0.986472 0.657456
O O6 0.385262 0.908268 0.693504
O O7 0.351861 0.000000 0.500000
O O8 0.357795 0.008111 0.813472
O O9 0.750000 0.651321 0.250000
O O10 0.893572 0.691692 0.117916
O O11 0.842902 0.598184 0.017902
O O12 0.000000 0.745870 0.931923
O O13 0.500000 0.929217 0.101759
#
# Coordination Sequence:
#
# PCOD9479740 Si02
#       5
#    16  16  16  16  16
#     4   8  15  28  51  79 101 129 170 217 267 316
#     4  10  21  36  57  84 107 132 175 229 278 325
#     4  11  22  35  52  76 108 148 185 215 258 323
#     4   9  17  32  53  76 103 135 176 223 270 317
#     4   9  18  36  59  80 106 140 178 221 274 328
#
# _framework density 27.049320000000002
#
# number of rings (size 3 to 8) (size 9 to 14) (size 15 to 20)
#    0.000    2.600    0.000    3.600    0.000    4.800 
#    0.000   10.000    0.000    1.200    0.000    0.000 
#    0.000    0.000    0.000    0.000    0.000    0.000 
#
# Total GULP energy -223634.871268 kJ/mol
# GULP energy per Si atom -5590.871782 kJ/mol
# Density = 2.698775 g / cm^3
# Si number density = 27.049320 Si / 1000 Ang^3
#
#
#
# Elastic Constant Matrix: (Units=GPa)
#
#
# Indices 1 2 3 4 5 6 
#
# 1 66.3333 -3.0155 28.5672 0.0000 0.0000 0.0000
# 2 -3.0155 136.9372 29.0478 0.0000 0.0000 0.0000
# 3 28.5672 29.0478 87.0506 0.0000 0.0000 0.0000
# 4 0.0000 0.0000 0.0000 44.5313 0.0000 0.0000
# 5 0.0000 0.0000 0.0000 0.0000 20.2426 0.0000
# 6 0.0000 0.0000 0.0000 0.0000 0.0000 5.9762
#
#
#
# Elastic Compliance Matrix: (Units=1/GPa)
#
#
# Indices 1 2 3 4 5 6 
#
# 1 0.017947 0.001770 -0.006480 0.000000 0.000000 0.000000
# 2 0.001770 0.008033 -0.003261 0.000000 0.000000 0.000000
# 3 -0.006480 -0.003261 0.014702 0.000000 0.000000 0.000000
# 4 0.000000 0.000000 0.000000 0.022456 0.000000 0.000000
# 5 0.000000 0.000000 0.000000 0.000000 0.049401 0.000000
# 6 0.000000 0.000000 0.000000 0.000000 0.000000 0.167330
#
#
# Mechanical properties :
#
#
# Convention : Reuss Voigt Hill
#
# Bulk Modulus (GPa) = 40.42203 44.39111 42.40657
# Shear Modulus (GPa) = 16.44420 29.86479 23.15449
#
# Velocity S-wave (km/s) = 2.46831 3.32638 2.92894
# Velocity P-wave (km/s) = 4.80621 5.58569 5.21055
#
# Compressibility (1/GPa) = 0.02473898
#
# Stress axis : x y z
#
# Youngs Moduli (GPa) = 55.72111 124.47989 68.01607
#
# Poissons Ratio (x) = -0.22030 0.44075
# Poissons Ratio (y) = -0.09861 0.22183
# Poissons Ratio (z) = 0.36107 0.40598
#
# Static dielectric constant tensor:
#      x y z
#    x 2.092390 0.000000 0.000000 
#    y 0.000000 2.086310 0.000000 
#    z 0.000000 0.000000 2.158000 
# 
# From -- ./inp_files/7014.got.cif
#   From: 2010.05.17/outbox.cif.g08.bks.cpg/sg64_4_cif.got.tgz:7014.got - 2010.06.03 16:29:19.
