data_PCOD9479734
_publ_section_title
;
Structure prediction by ZEFSAII (Michael W. Deem and Ramdas Pophale) SiO2 
 PCOD9479734
Probable space group: C M C A
;
_chemical_formula_sum "Si O2"
_cell_formula_units_Z 116
_cell_length_a 9.754313
_cell_length_b 25.219218
_cell_length_c 23.031560
_cell_angle_alpha 90.000000
_cell_angle_beta 90.000000
_cell_angle_gamma 90.000000
_cell_volume 5665.674996
_symmetry_space_group_name_H-M "C M C A"
_symmetry_group_IT_number 64
_symmetry_cell_setting 'orthorhombic'
loop_
_space_group_symop_operation_xyz
x,y,z
-x,1/2-y,1/2+z
x,-y,-z
-x,1/2+y,1/2-z
-x,-y,-z
x,1/2+y,1/2-z
-x,y,z
x,1/2-y,1/2+z
1/2+x,1/2+y,z
1/2-x,-y,1/2+z
1/2+x,1/2-y,-z
1/2-x,y,1/2-z
1/2-x,1/2-y,-z
1/2+x,y,1/2-z
1/2-x,1/2+y,z
1/2+x,-y,1/2+z
loop_
_atom_site_type_symbol
_atom_site_label
_atom_site_fract_x
_atom_site_fract_y
_atom_site_fract_z
Si Si1 0.852602 0.111524 0.981828
Si Si2 0.344833 0.681347 0.366298
Si Si3 0.654948 0.587480 0.120017
Si Si4 0.263213 0.975450 0.094949
Si Si5 0.000000 0.500000 0.000000
Si Si6 0.342230 0.392446 0.306417
Si Si7 0.152169 0.300470 0.002484
Si Si8 0.835584 0.229596 0.690251
O O1 0.839728 0.058372 0.945068
O O2 0.000000 0.137836 0.970697
O O3 0.845067 0.098696 0.050299
O O4 0.728919 0.150922 0.966931
O O5 0.500000 0.686011 0.341629
O O6 0.265469 0.626978 0.351646
O O7 0.361067 0.682045 0.435655
O O8 0.242548 0.729327 0.351096
O O9 0.500000 0.597646 0.140820
O O10 0.696510 0.526460 0.124822
O O11 0.315608 0.934853 0.143598
O O12 0.381323 0.994000 0.050781
O O13 0.500000 0.395010 0.288054
O O14 0.250000 0.401868 0.250000
O O15 0.318172 0.331875 0.327456
O O16 0.000000 0.289747 0.026328
O O17 0.250000 0.250000 0.000000
O O18 0.750000 0.235227 0.750000
O O19 0.000000 0.239997 0.695402
#
# Coordination Sequence:
#
# PCOD9479734 Si02
#       8
#    16  16  16  16   4  16  16  16
#     4  10  21  36  56  85 122 163 211 259 318 390
#     4  10  22  38  60  87 118 159 205 258 323 378
#     4  10  21  38  59  88 126 166 210 263 327 391
#     4  12  23  38  65  96 134 172 222 275 339 408
#     4  12  24  36  66 100 136 168 226 278 340 402
#     4  10  24  43  65  93 128 171 217 268 328 393
#     4  10  22  36  53  80 120 160 202 251 311 382
#     4  10  21  41  66  92 122 161 212 269 324 389
#
# _framework density 20.474170999999998
#
# number of rings (size 3 to 8) (size 9 to 14) (size 15 to 20)
#    0.000    1.655    2.069    1.655    3.862    4.414 
#    0.000    0.690    0.000    1.655    0.000    0.000 
#    0.000    0.000    0.000    0.000    0.000    0.000 
#
# Total GULP energy -323233.536592 kJ/mol
# GULP energy per Si atom -5572.992010 kJ/mol
# Density = 2.042757 g / cm^3
# Si number density = 20.474171 Si / 1000 Ang^3
#
#
#
# Elastic Constant Matrix: (Units=GPa)
#
#
# Indices 1 2 3 4 5 6 
#
# 1 172.5995 65.3819 26.2945 0.0000 0.0000 0.0000
# 2 65.3819 89.2971 9.0233 0.0000 0.0000 0.0000
# 3 26.2945 9.0233 45.8496 0.0000 0.0000 0.0000
# 4 0.0000 0.0000 0.0000 20.2390 0.0000 0.0000
# 5 0.0000 0.0000 0.0000 0.0000 22.8810 0.0000
# 6 0.0000 0.0000 0.0000 0.0000 0.0000 7.3274
#
#
#
# Elastic Compliance Matrix: (Units=1/GPa)
#
#
# Indices 1 2 3 4 5 6 
#
# 1 0.008613 -0.005925 -0.003773 0.000000 0.000000 0.000000
# 2 -0.005925 0.015502 0.000347 0.000000 0.000000 0.000000
# 3 -0.003773 0.000347 0.023906 0.000000 0.000000 0.000000
# 4 0.000000 0.000000 0.000000 0.049410 0.000000 0.000000
# 5 0.000000 0.000000 0.000000 0.000000 0.043704 0.000000
# 6 0.000000 0.000000 0.000000 0.000000 0.000000 0.136474
#
#
# Mechanical properties :
#
#
# Convention : Reuss Voigt Hill
#
# Bulk Modulus (GPa) = 34.10839 56.57173 45.34006
# Shear Modulus (GPa) = 16.33534 23.89257 20.11396
#
# Velocity S-wave (km/s) = 2.82769 3.41979 3.13774
# Velocity P-wave (km/s) = 5.23034 6.57906 5.94309
#
# Compressibility (1/GPa) = 0.02931830
#
# Stress axis : x y z
#
# Youngs Moduli (GPa) = 116.10253 64.50903 41.83019
#
# Poissons Ratio (x) = 0.38222 0.15785
# Poissons Ratio (y) = 0.68791 -0.01452
# Poissons Ratio (z) = 0.43811 -0.02240
#
# Static dielectric constant tensor:
#      x y z
#    x 1.750890 0.000000 0.000000 
#    y 0.000000 1.739640 0.000000 
#    z 0.000000 0.000000 1.732080 
# 
# From -- ./inp_files/43422.got.cif
#   From: 2010.05.17/outbox.cif.g08.bks.cpg/sg64_22_cif.got.tgz:43422.got - 2010.06.03 16:29:19.
