data_PCOD9479859
_publ_section_title
;
Structure prediction by ZEFSAII (Michael W. Deem and Ramdas Pophale) SiO2 
 PCOD9479859
Probable space group: C M C A
;
_chemical_formula_sum "Si O2"
_cell_formula_units_Z 116
_cell_length_a 7.999478
_cell_length_b 24.693871
_cell_length_c 27.241342
_cell_angle_alpha 90.000000
_cell_angle_beta 90.000000
_cell_angle_gamma 90.000000
_cell_volume 5381.202335
_symmetry_space_group_name_H-M "C M C A"
_symmetry_group_IT_number 64
_symmetry_cell_setting 'orthorhombic'
loop_
_space_group_symop_operation_xyz
x,y,z
-x,1/2-y,1/2+z
x,-y,-z
-x,1/2+y,1/2-z
-x,-y,-z
x,1/2+y,1/2-z
-x,y,z
x,1/2-y,1/2+z
1/2+x,1/2+y,z
1/2-x,-y,1/2+z
1/2+x,1/2-y,-z
1/2-x,y,1/2-z
1/2-x,1/2-y,-z
1/2+x,y,1/2-z
1/2-x,1/2+y,z
1/2+x,-y,1/2+z
loop_
_atom_site_type_symbol
_atom_site_label
_atom_site_fract_x
_atom_site_fract_y
_atom_site_fract_z
Si Si1 0.306376 0.923919 0.987460
Si Si2 0.201296 0.697257 0.469044
Si Si3 0.200707 0.457695 0.305259
Si Si4 0.500000 0.000000 0.500000
Si Si5 0.301218 0.665762 0.804613
Si Si6 0.798671 0.732482 0.361190
Si Si7 0.690493 0.946787 0.872314
Si Si8 0.687313 0.138010 0.300091
O O1 0.500000 0.935769 0.002832
O O2 0.279194 0.859051 0.987767
O O3 0.286706 0.942510 0.930327
O O4 0.151629 0.955037 0.012547
O O5 0.250000 0.750000 0.500000
O O6 0.260083 0.710581 0.413612
O O7 0.000000 0.690827 0.469179
O O8 0.250000 0.475494 0.250000
O O9 0.261701 0.395775 0.310683
O O10 0.273473 0.495754 0.347478
O O11 0.000000 0.459441 0.308658
O O12 0.500000 0.663625 0.805995
O O13 0.250000 0.684565 0.750000
O O14 0.242147 0.706709 0.846242
O O15 0.727282 0.692659 0.319207
O O16 0.000000 0.727787 0.362617
O O17 0.500000 0.931201 0.861108
O O18 0.805072 0.903933 0.844346
O O19 0.500000 0.153450 0.288383
O O20 0.750000 0.112707 0.250000
#
# Coordination Sequence:
#
# PCOD9479859 Si02
#       8
#    16  16  16   4  16  16  16  16
#     4  11  25  47  74 106 138 180 231 290 361 431
#     4  11  23  45  72 101 137 180 229 292 361 429
#     4  10  21  37  58  84 123 172 221 268 323 390
#     4  12  26  48  80 102 144 180 222 290 356 430
#     4  10  21  37  58  86 123 168 216 266 321 387
#     4  10  22  39  62  90 125 168 213 267 333 395
#     4  11  23  39  63  92 127 167 214 269 329 398
#     4  11  22  36  58  90 129 169 214 261 320 395
#
# _framework density 21.556519999999999
#
# number of rings (size 3 to 8) (size 9 to 14) (size 15 to 20)
#    0.000    1.379    2.069    3.103    1.931    4.966 
#    2.483    0.000    0.000    0.000    0.000    0.000 
#    0.000    0.000    0.000    0.000    0.000    0.000 
#
# Total GULP energy -323403.505474 kJ/mol
# GULP energy per Si atom -5575.922508 kJ/mol
# Density = 2.150746 g / cm^3
# Si number density = 21.556520 Si / 1000 Ang^3
#
#
#
# Elastic Constant Matrix: (Units=GPa)
#
#
# Indices 1 2 3 4 5 6 
#
# 1 79.9474 15.9262 16.6421 0.0000 0.0000 0.0000
# 2 15.9262 123.3162 13.9791 0.0000 0.0000 0.0000
# 3 16.6421 13.9791 16.0805 0.0000 0.0000 0.0000
# 4 0.0000 0.0000 0.0000 36.4282 0.0000 0.0000
# 5 0.0000 0.0000 0.0000 0.0000 16.9631 0.0000
# 6 0.0000 0.0000 0.0000 0.0000 0.0000 34.1665
#
#
#
# Elastic Compliance Matrix: (Units=1/GPa)
#
#
# Indices 1 2 3 4 5 6 
#
# 1 0.015948 -0.000209 -0.016323 0.000000 0.000000 0.000000
# 2 -0.000209 0.008998 -0.007606 0.000000 0.000000 0.000000
# 3 -0.016323 -0.007606 0.085692 0.000000 0.000000 0.000000
# 4 0.000000 0.000000 0.000000 0.027451 0.000000 0.000000
# 5 0.000000 0.000000 0.000000 0.000000 0.058951 0.000000
# 6 0.000000 0.000000 0.000000 0.000000 0.000000 0.029268
#
#
# Mechanical properties :
#
#
# Convention : Reuss Voigt Hill
#
# Bulk Modulus (GPa) = 16.03532 34.71542 25.37537
# Shear Modulus (GPa) = 16.92775 29.03136 22.97955
#
# Velocity S-wave (km/s) = 2.80531 3.67380 3.26853
# Velocity P-wave (km/s) = 4.23650 5.84252 5.10309
#
# Compressibility (1/GPa) = 0.06236233
#
# Stress axis : x y z
#
# Youngs Moduli (GPa) = 62.70490 111.13006 11.66967
#
# Poissons Ratio (x) = 0.02326 0.19048
# Poissons Ratio (y) = 0.01312 0.08876
# Poissons Ratio (z) = 1.02352 0.84525
#
# Static dielectric constant tensor:
#      x y z
#    x 1.727600 0.000000 0.000000 
#    y 0.000000 1.805300 0.000000 
#    z 0.000000 0.000000 1.760130 
# 
# From -- ./inp_files/48590.got.cif
#   From: 2010.05.17/outbox.cif.g08.bks.cpg/sg64_25_cif.got.tgz:48590.got - 2010.06.03 16:29:19.
