data_PCOD9479567
_publ_section_title
;
Structure prediction by ZEFSAII (Michael W. Deem and Ramdas Pophale) SiO2 
 PCOD9479567
Probable space group: C M C A
;
_chemical_formula_sum "Si O2"
_cell_formula_units_Z 116
_cell_length_a 25.069169
_cell_length_b 25.356256
_cell_length_c 8.975740
_cell_angle_alpha 90.000000
_cell_angle_beta 90.000000
_cell_angle_gamma 90.000000
_cell_volume 5705.521284
_symmetry_space_group_name_H-M "C M C A"
_symmetry_group_IT_number 64
_symmetry_cell_setting 'orthorhombic'
loop_
_space_group_symop_operation_xyz
x,y,z
-x,1/2-y,1/2+z
x,-y,-z
-x,1/2+y,1/2-z
-x,-y,-z
x,1/2+y,1/2-z
-x,y,z
x,1/2-y,1/2+z
1/2+x,1/2+y,z
1/2-x,-y,1/2+z
1/2+x,1/2-y,-z
1/2-x,y,1/2-z
1/2-x,1/2-y,-z
1/2+x,y,1/2-z
1/2-x,1/2+y,z
1/2+x,-y,1/2+z
loop_
_atom_site_type_symbol
_atom_site_label
_atom_site_fract_x
_atom_site_fract_y
_atom_site_fract_z
Si Si1 0.905827 0.492890 0.746620
Si Si2 0.558446 0.699160 0.874518
Si Si3 0.792243 0.462104 0.880147
Si Si4 0.500000 0.000000 0.000000
Si Si5 0.807843 0.347604 0.931909
Si Si6 0.601883 0.089235 0.517389
Si Si7 0.384452 0.231320 0.918052
Si Si8 0.689933 0.666505 0.076868
O O1 0.847129 0.485941 0.817848
O O2 0.912406 0.442879 0.633269
O O3 0.904131 0.546324 0.647824
O O4 0.952508 0.495209 0.868993
O O5 0.500000 0.700187 0.806474
O O6 0.567600 0.641486 0.945752
O O7 0.601336 0.713692 0.747959
O O8 0.564702 0.744320 0.998833
O O9 0.750000 0.451006 0.750000
O O10 0.807968 0.409011 0.965222
O O11 0.765746 0.500000 0.000000
O O12 0.749953 0.326188 0.980288
O O13 0.809743 0.343903 0.753384
O O14 0.857138 0.317312 0.000249
O O15 0.660213 0.116521 0.497269
O O16 0.343319 0.279867 0.935202
#
# Coordination Sequence:
#
# PCOD9479567 Si02
#       8
#    16  16  16   4  16  16  16  16
#     4  11  25  47  71 100 144 181 239 290 348 422
#     4  11  25  43  67  97 130 180 234 284 345 403
#     4  12  26  43  70 104 142 184 228 289 352 424
#     4  12  28  46  72 104 132 190 248 294 348 398
#     4  11  21  40  69  99 138 178 221 280 347 413
#     4  10  24  44  70  97 138 183 227 289 343 419
#     4  11  23  43  67  97 139 171 230 287 338 411
#     4  10  20  42  66 102 134 178 224 273 351 413
#
# _framework density 20.331184
#
# number of rings (size 3 to 8) (size 9 to 14) (size 15 to 20)
#    0.000    1.103    4.828    0.828    7.724    0.552 
#    0.000    0.000    4.552    0.000    0.000    0.000 
#    0.000    0.000    0.000    0.000    0.000    0.000 
#
# Total GULP energy -323225.273876 kJ/mol
# GULP energy per Si atom -5572.849550 kJ/mol
# Density = 2.028491 g / cm^3
# Si number density = 20.331184 Si / 1000 Ang^3
#
#
#
# Elastic Constant Matrix: (Units=GPa)
#
#
# Indices 1 2 3 4 5 6 
#
# 1 99.3481 27.4463 29.6990 0.0000 0.0000 0.0000
# 2 27.4463 130.8702 43.9788 0.0000 0.0000 0.0000
# 3 29.6990 43.9788 79.4585 0.0000 0.0000 0.0000
# 4 0.0000 0.0000 0.0000 22.6179 0.0000 0.0000
# 5 0.0000 0.0000 0.0000 0.0000 3.8630 0.0000
# 6 0.0000 0.0000 0.0000 0.0000 0.0000 -0.5529
#
#
#
# Elastic Compliance Matrix: (Units=1/GPa)
#
#
# Indices 1 2 3 4 5 6 
#
# 1 0.011480 -0.001186 -0.003634 0.000000 0.000000 0.000000
# 2 -0.001186 0.009510 -0.004820 0.000000 0.000000 0.000000
# 3 -0.003634 -0.004820 0.016611 0.000000 0.000000 0.000000
# 4 0.000000 0.000000 0.000000 0.044213 0.000000 0.000000
# 5 0.000000 0.000000 0.000000 0.000000 0.258865 0.000000
# 6 0.000000 0.000000 0.000000 0.000000 0.000000 -1.808623
#
#
# Mechanical properties :
#
#
# Convention : Reuss Voigt Hill
#
# Bulk Modulus (GPa) = 54.58585 56.88057 55.73321
# Shear Modulus (GPa) = -3.46607 19.08911 7.81152
#
# Velocity S-wave (km/s) = -1.30710 3.06748 1.96226
# Velocity P-wave (km/s) = 4.96272 6.37053 5.71018
#
# Compressibility (1/GPa) = 0.01831976
#
# Stress axis : x y z
#
# Youngs Moduli (GPa) = 87.10999 105.15551 60.19989
#
# Poissons Ratio (x) = 0.12475 0.21878
# Poissons Ratio (y) = 0.10334 0.29017
# Poissons Ratio (z) = 0.31657 0.50686
#
# Static dielectric constant tensor:
#      x y z
#    x 1.741660 0.000000 0.000000 
#    y 0.000000 1.718570 0.000000 
#    z 0.000000 0.000000 1.727250 
# 
# From -- ./inp_files/9746.got.cif
#   From: 2010.05.17/outbox.cif.g08.bks.cpg/sg64_5_cif.got.tgz:9746.got - 2010.06.03 16:29:19.
