data_PCOD9479608
_publ_section_title
;
Structure prediction by ZEFSAII (Michael W. Deem and Ramdas Pophale) SiO2 
 PCOD9479608
Probable space group: C M C A
;
_chemical_formula_sum "Si O2"
_cell_formula_units_Z 112
_cell_length_a 14.367112
_cell_length_b 27.630940
_cell_length_c 14.553757
_cell_angle_alpha 90.000000
_cell_angle_beta 90.000000
_cell_angle_gamma 90.000000
_cell_volume 5777.504022
_symmetry_space_group_name_H-M "C M C A"
_symmetry_group_IT_number 64
_symmetry_cell_setting 'orthorhombic'
loop_
_space_group_symop_operation_xyz
x,y,z
-x,1/2-y,1/2+z
x,-y,-z
-x,1/2+y,1/2-z
-x,-y,-z
x,1/2+y,1/2-z
-x,y,z
x,1/2-y,1/2+z
1/2+x,1/2+y,z
1/2-x,-y,1/2+z
1/2+x,1/2-y,-z
1/2-x,y,1/2-z
1/2-x,1/2-y,-z
1/2+x,y,1/2-z
1/2-x,1/2+y,z
1/2+x,-y,1/2+z
loop_
_atom_site_type_symbol
_atom_site_label
_atom_site_fract_x
_atom_site_fract_y
_atom_site_fract_z
Si Si1 0.895560 0.456391 0.244013
Si Si2 0.853999 0.652685 0.785895
Si Si3 0.391066 0.738050 0.207325
Si Si4 0.230595 0.358720 0.027333
Si Si5 0.259702 0.033351 0.590133
Si Si6 0.109712 0.315944 0.882436
Si Si7 0.390105 0.782313 0.500951
O O1 0.900084 0.397286 0.244760
O O2 0.831922 0.469848 0.155765
O O3 0.843799 0.473185 0.337009
O O4 0.000000 0.475307 0.236908
O O5 0.750000 0.647069 0.750000
O O6 0.884319 0.706422 0.758400
O O7 0.847409 0.653863 0.896157
O O8 0.500000 0.728115 0.201015
O O9 0.355616 0.700814 0.282720
O O10 0.356110 0.730445 0.104392
O O11 0.263331 0.412112 0.051929
O O12 0.177958 0.353583 0.930869
O O13 0.318162 0.322540 0.034301
O O14 0.259277 0.000000 0.500000
O O15 0.000000 0.330492 0.880354
O O16 0.114743 0.266722 0.942660
O O17 0.500000 0.797357 0.500373
#
# Coordination Sequence:
#
# PCOD9479608 Si02
#       7
#    16  16  16  16  16  16  16
#     4  10  21  40  66  95 121 150 194 252 315 367
#     4  11  19  33  55  87 115 149 191 248 298 344
#     4  10  21  33  49  77 119 162 198 242 286 336
#     4  11  21  36  57  82 112 156 194 237 294 347
#     4  10  23  44  64  92 125 152 201 258 309 365
#     4  10  21  34  52  81 116 154 194 236 283 346
#     4  10  21  35  50  78 119 157 195 237 282 346
#
# _framework density 19.385535000000001
#
# number of rings (size 3 to 8) (size 9 to 14) (size 15 to 20)
#    0.000    1.714    4.286    1.714    2.000    3.429 
#    0.000    2.857    0.000    1.714    0.000    0.000 
#    0.000    0.000    0.000    0.000    0.000    0.000 
#
# Total GULP energy -312369.545647 kJ/mol
# GULP energy per Si atom -5578.027601 kJ/mol
# Density = 1.934141 g / cm^3
# Si number density = 19.385535 Si / 1000 Ang^3
#
#
#
# Elastic Constant Matrix: (Units=GPa)
#
#
# Indices 1 2 3 4 5 6 
#
# 1 103.4403 15.9185 32.7974 0.0000 0.0000 0.0000
# 2 15.9185 40.6088 30.6439 0.0000 0.0000 0.0000
# 3 32.7974 30.6439 98.0226 0.0000 0.0000 0.0000
# 4 0.0000 0.0000 0.0000 35.3311 0.0000 0.0000
# 5 0.0000 0.0000 0.0000 0.0000 14.9236 0.0000
# 6 0.0000 0.0000 0.0000 0.0000 0.0000 -0.1506
#
#
#
# Elastic Compliance Matrix: (Units=1/GPa)
#
#
# Indices 1 2 3 4 5 6 
#
# 1 0.010937 -0.001997 -0.003035 0.000000 0.000000 0.000000
# 2 -0.001997 0.032593 -0.009521 0.000000 0.000000 0.000000
# 3 -0.003035 -0.009521 0.014194 0.000000 0.000000 0.000000
# 4 0.000000 0.000000 0.000000 0.028304 0.000000 0.000000
# 5 0.000000 0.000000 0.000000 0.000000 0.067008 0.000000
# 6 0.000000 0.000000 0.000000 0.000000 0.000000 -6.640926
#
#
# Mechanical properties :
#
#
# Convention : Reuss Voigt Hill
#
# Bulk Modulus (GPa) = 34.94389 44.53235 39.73812
# Shear Modulus (GPa) = -0.77528 20.86828 10.04650
#
# Velocity S-wave (km/s) = -0.63309 3.28455 2.27897
# Velocity P-wave (km/s) = 4.18694 6.11606 5.24102
#
# Compressibility (1/GPa) = 0.02861731
#
# Stress axis : x y z
#
# Youngs Moduli (GPa) = 91.43219 30.68178 70.45366
#
# Poissons Ratio (x) = 0.06127 0.21384
# Poissons Ratio (y) = 0.18258 0.67079
# Poissons Ratio (z) = 0.27751 0.29212
#
# Static dielectric constant tensor:
#      x y z
#    x 1.703230 0.000000 0.000000 
#    y 0.000000 1.663540 0.000000 
#    z 0.000000 0.000000 1.763700 
# 
# From -- ./inp_files/24489.got.cif
#   From: 2010.05.17/outbox.cif.g08.bks.cpg/sg64_13_cif.got.tgz:24489.got - 2010.06.03 16:29:19.
