data_PCOD9479832
_publ_section_title
;
Structure prediction by ZEFSAII (Michael W. Deem and Ramdas Pophale) SiO2 
 PCOD9479832
Probable space group: C M C A
;
_chemical_formula_sum "Si O2"
_cell_formula_units_Z 96
_cell_length_a 7.874344
_cell_length_b 21.333699
_cell_length_c 27.541815
_cell_angle_alpha 90.000000
_cell_angle_beta 90.000000
_cell_angle_gamma 90.000000
_cell_volume 4626.718785
_symmetry_space_group_name_H-M "C M C A"
_symmetry_group_IT_number 64
_symmetry_cell_setting 'orthorhombic'
loop_
_space_group_symop_operation_xyz
x,y,z
-x,1/2-y,1/2+z
x,-y,-z
-x,1/2+y,1/2-z
-x,-y,-z
x,1/2+y,1/2-z
-x,y,z
x,1/2-y,1/2+z
1/2+x,1/2+y,z
1/2-x,-y,1/2+z
1/2+x,1/2-y,-z
1/2-x,y,1/2-z
1/2-x,1/2-y,-z
1/2+x,y,1/2-z
1/2-x,1/2+y,z
1/2+x,-y,1/2+z
loop_
_atom_site_type_symbol
_atom_site_label
_atom_site_fract_x
_atom_site_fract_y
_atom_site_fract_z
Si Si1 0.202893 0.069368 0.693567
Si Si2 0.795052 0.314180 0.473171
Si Si3 0.297141 0.305458 0.136950
Si Si4 0.294928 0.816991 0.806452
Si Si5 0.205181 0.561685 0.471349
Si Si6 0.295668 0.056598 0.141575
O O1 0.250000 0.068024 0.750000
O O2 0.265863 0.132302 0.667858
O O3 0.000000 0.069484 0.689861
O O4 0.269225 0.007211 0.666326
O O5 0.750000 0.250000 0.500000
O O6 0.730416 0.312791 0.417813
O O7 0.732600 0.374907 0.502635
O O8 0.000000 0.318704 0.471529
O O9 0.500000 0.297332 0.132893
O O10 0.230334 0.243898 0.164511
O O11 0.500000 0.817011 0.809785
O O12 0.250000 0.813749 0.750000
O O13 0.232090 0.881314 0.830883
O O14 0.265593 0.500000 0.500000
O O15 0.254154 0.559277 0.415147
O O16 0.000000 0.561809 0.473674
O O17 0.500000 0.056292 0.146351
#
# Coordination Sequence:
#
# PCOD9479832 Si02
#       6
#    16  16  16  16  16  16
#     4  11  23  38  58  84 113 146 185 229 278 333
#     4  10  21  37  58  84 114 149 187 230 280 331
#     4  10  21  38  59  82 112 149 186 228 277 328
#     4  10  21  37  57  81 109 143 183 226 273 325
#     4  10  21  37  58  84 112 145 186 228 273 326
#     4  10  22  39  58  82 111 145 185 227 275 328
#
# _framework density 20.749046
#
# number of rings (size 3 to 8) (size 9 to 14) (size 15 to 20)
#    0.000    1.833    0.000    3.500    0.000    8.333 
#    0.000    0.000    0.000    0.000    0.000    0.000 
#    0.000    0.000    0.000    0.000    0.000    0.000 
#
# Total GULP energy -268348.902137 kJ/mol
# GULP energy per Si atom -5590.602128 kJ/mol
# Density = 2.070182 g / cm^3
# Si number density = 20.749046 Si / 1000 Ang^3
#
#
#
# Elastic Constant Matrix: (Units=GPa)
#
#
# Indices 1 2 3 4 5 6 
#
# 1 14.2054 -7.2319 -14.5247 0.0000 0.0000 0.0000
# 2 -7.2319 199.8664 100.7797 0.0000 0.0000 0.0000
# 3 -14.5247 100.7797 190.3453 0.0000 0.0000 0.0000
# 4 0.0000 0.0000 0.0000 50.5963 0.0000 0.0000
# 5 0.0000 0.0000 0.0000 0.0000 29.8952 0.0000
# 6 0.0000 0.0000 0.0000 0.0000 0.0000 23.2823
#
#
#
# Elastic Compliance Matrix: (Units=1/GPa)
#
#
# Indices 1 2 3 4 5 6 
#
# 1 0.076361 -0.000239 0.005953 0.000000 0.000000 0.000000
# 2 -0.000239 0.006826 -0.003632 0.000000 0.000000 0.000000
# 3 0.005953 -0.003632 0.007631 0.000000 0.000000 0.000000
# 4 0.000000 0.000000 0.000000 0.019764 0.000000 0.000000
# 5 0.000000 0.000000 0.000000 0.000000 0.033450 0.000000
# 6 0.000000 0.000000 0.000000 0.000000 0.000000 0.042951
#
#
# Mechanical properties :
#
#
# Convention : Reuss Voigt Hill
#
# Bulk Modulus (GPa) = 10.52823 62.49592 36.51207
# Shear Modulus (GPa) = 23.31209 42.44770 32.87989
#
# Velocity S-wave (km/s) = 3.35554 4.52792 3.98508
# Velocity P-wave (km/s) = 4.48308 7.58429 6.22974
#
# Compressibility (1/GPa) = 0.09498271
#
# Stress axis : x y z
#
# Youngs Moduli (GPa) = 13.09566 146.49172 131.04203
#
# Poissons Ratio (x) = 0.03499 -0.78014
# Poissons Ratio (y) = 0.00313 0.47601
# Poissons Ratio (z) = -0.07796 0.53213
#
# Static dielectric constant tensor:
#      x y z
#    x 1.764370 0.000000 0.000000 
#    y 0.000000 1.724780 0.000000 
#    z 0.000000 0.000000 1.688290 
# 
# From -- ./inp_files/48036.got.cif
#   From: 2010.05.17/outbox.cif.g08.bks.cpg/sg64_25_cif.got.tgz:48036.got - 2010.06.03 16:29:19.
