data_PCOD9479817
_publ_section_title
;
Structure prediction by ZEFSAII (Michael W. Deem and Ramdas Pophale) SiO2 
 PCOD9479817
Probable space group: C M C A
;
_chemical_formula_sum "Si O2"
_cell_formula_units_Z 64
_cell_length_a 14.995594
_cell_length_b 17.638763
_cell_length_c 10.808685
_cell_angle_alpha 90.000000
_cell_angle_beta 90.000000
_cell_angle_gamma 90.000000
_cell_volume 2858.937484
_symmetry_space_group_name_H-M "C M C A"
_symmetry_group_IT_number 64
_symmetry_cell_setting 'orthorhombic'
loop_
_space_group_symop_operation_xyz
x,y,z
-x,1/2-y,1/2+z
x,-y,-z
-x,1/2+y,1/2-z
-x,-y,-z
x,1/2+y,1/2-z
-x,y,z
x,1/2-y,1/2+z
1/2+x,1/2+y,z
1/2-x,-y,1/2+z
1/2+x,1/2-y,-z
1/2-x,y,1/2-z
1/2-x,1/2-y,-z
1/2+x,y,1/2-z
1/2-x,1/2+y,z
1/2+x,-y,1/2+z
loop_
_atom_site_type_symbol
_atom_site_label
_atom_site_fract_x
_atom_site_fract_y
_atom_site_fract_z
Si Si1 0.395288 0.400227 0.784930
Si Si2 0.896533 0.552545 0.624331
Si Si3 0.596394 0.591040 0.497424
Si Si4 0.221984 0.663530 0.508095
O O1 0.500000 0.395660 0.829991
O O2 0.368831 0.489539 0.776946
O O3 0.397685 0.376088 0.642994
O O4 0.326354 0.359694 0.877345
O O5 0.884233 0.500000 0.500000
O O6 0.848252 0.631632 0.607467
O O7 0.000000 0.567218 0.641091
O O8 0.595217 0.500000 0.500000
O O9 0.500000 0.615802 0.550210
O O10 0.689107 0.619137 0.548931
O O11 0.250000 0.750000 0.500000
#
# Coordination Sequence:
#
# PCOD9479817 Si02
#       4
#    16  16  16  16
#     4   9  18  36  60  79 100 137 184 230 272 316
#     4   8  15  31  56  80  99 130 182 232 268 311
#     4  10  21  37  56  78 105 140 183 228 271 317
#     4  11  21  32  51  81 114 145 174 213 270 334
#
# _framework density 22.385939
#
# number of rings (size 3 to 8) (size 9 to 14) (size 15 to 20)
#    0.000    2.500    0.000    5.250    0.000    2.000 
#    0.000    5.000    0.000    6.000    0.000    0.000 
#    0.000    0.000    0.000    0.000    0.000    0.000 
#
# Total GULP energy -178226.436570 kJ/mol
# GULP energy per Si atom -5569.576143 kJ/mol
# Density = 2.233499 g / cm^3
# Si number density = 22.385939 Si / 1000 Ang^3
#
#
#
# Elastic Constant Matrix: (Units=GPa)
#
#
# Indices 1 2 3 4 5 6 
#
# 1 133.3420 61.5408 2.5408 0.0000 0.0000 0.0000
# 2 61.5408 116.6213 -3.6531 0.0000 0.0000 0.0000
# 3 2.5408 -3.6531 45.5588 0.0000 0.0000 0.0000
# 4 0.0000 0.0000 0.0000 10.3504 0.0000 0.0000
# 5 0.0000 0.0000 0.0000 0.0000 -11.1167 0.0000
# 6 0.0000 0.0000 0.0000 0.0000 0.0000 -72.3305
#
#
#
# Elastic Compliance Matrix: (Units=1/GPa)
#
#
# Indices 1 2 3 4 5 6 
#
# 1 0.009957 -0.005285 -0.000979 0.000000 0.000000 0.000000
# 2 -0.005285 0.011402 0.001209 0.000000 0.000000 0.000000
# 3 -0.000979 0.001209 0.022101 0.000000 0.000000 0.000000
# 4 0.000000 0.000000 0.000000 0.096615 0.000000 0.000000
# 5 0.000000 0.000000 0.000000 0.000000 -0.089955 0.000000
# 6 0.000000 0.000000 0.000000 0.000000 0.000000 -0.013825
#
#
# Mechanical properties :
#
#
# Convention : Reuss Voigt Hill
#
# Bulk Modulus (GPa) = 29.98533 46.26434 38.12484
# Shear Modulus (GPa) = 86.92365 1.05355 43.98860
#
# Velocity S-wave (km/s) = 6.23810 0.68677 4.43765
# Velocity P-wave (km/s) = 8.08140 4.61957 6.58215
#
# Compressibility (1/GPa) = 0.03334964
#
# Stress axis : x y z
#
# Youngs Moduli (GPa) = 100.42766 87.70691 45.24636
#
# Poissons Ratio (x) = 0.46355 0.04430
# Poissons Ratio (y) = 0.53078 -0.05470
# Poissons Ratio (z) = 0.09833 -0.10604
#
# Static dielectric constant tensor:
#      x y z
#    x 1.882210 0.000000 0.000000 
#    y 0.000000 1.857830 0.000000 
#    z 0.000000 0.000000 1.999660 
# 
# From -- ./inp_files/14050.got.cif
#   From: 2010.05.17/outbox.cif.g08.bks.cpg/sg64_8_cif.got.tgz:14050.got - 2010.06.03 16:29:19.
