data_PCOD9479352
_publ_section_title
;
Structure prediction by ZEFSAII (Michael W. Deem and Ramdas Pophale) SiO2 
 PCOD9479352
Probable space group: C M C A
;
_chemical_formula_sum "Si O2"
_cell_formula_units_Z 80
_cell_length_a 22.256341
_cell_length_b 9.394387
_cell_length_c 15.084920
_cell_angle_alpha 90.000000
_cell_angle_beta 90.000000
_cell_angle_gamma 90.000000
_cell_volume 3154.025679
_symmetry_space_group_name_H-M "C M C A"
_symmetry_group_IT_number 64
_symmetry_cell_setting 'orthorhombic'
loop_
_space_group_symop_operation_xyz
x,y,z
-x,1/2-y,1/2+z
x,-y,-z
-x,1/2+y,1/2-z
-x,-y,-z
x,1/2+y,1/2-z
-x,y,z
x,1/2-y,1/2+z
1/2+x,1/2+y,z
1/2-x,-y,1/2+z
1/2+x,1/2-y,-z
1/2-x,y,1/2-z
1/2-x,1/2-y,-z
1/2+x,y,1/2-z
1/2-x,1/2+y,z
1/2+x,-y,1/2+z
loop_
_atom_site_type_symbol
_atom_site_label
_atom_site_fract_x
_atom_site_fract_y
_atom_site_fract_z
Si Si1 0.104214 0.692249 0.927579
Si Si2 0.430711 0.374018 0.616350
Si Si3 0.431895 0.443619 0.808851
Si Si4 0.768002 0.771928 0.851473
Si Si5 0.324908 0.938285 0.403704
O O1 0.074165 0.543036 0.903049
O O2 0.069332 0.822846 0.883825
O O3 0.170410 0.699268 0.884985
O O4 0.102232 0.699453 0.034027
O O5 0.500000 0.328088 0.612638
O O6 0.410189 0.368498 0.718139
O O7 0.500000 0.496652 0.795552
O O8 0.383301 0.558239 0.840842
O O9 0.750000 0.744677 0.750000
O O10 0.713956 0.703498 0.906356
O O11 0.780058 0.939093 0.865243
O O12 0.341348 0.000000 0.500000
#
# Coordination Sequence:
#
# PCOD9479352 Si02
#       5
#    16  16  16  16  16
#     4  10  21  40  67  98 133 180 234 291 347 423
#     4  10  20  38  68  98 134 181 236 290 353 424
#     4  10  22  43  68 101 139 179 233 295 356 420
#     4  11  24  45  71 101 143 186 234 294 353 426
#     4  11  25  46  67 104 140 189 236 292 355 424
#
# _framework density 25.364409999999999
#
# number of rings (size 3 to 8) (size 9 to 14) (size 15 to 20)
#    0.000    1.600    0.000    4.800    2.800    2.000 
#   21.600    0.000    0.000    0.000    0.000    1.400 
#    0.000    0.000    0.000    0.000    0.000    0.000 
#
# Total GULP energy -224153.034122 kJ/mol
# GULP energy per Si atom -5603.825853 kJ/mol
# Density = 2.530668 g / cm^3
# Si number density = 25.364410 Si / 1000 Ang^3
#
#
#
# Elastic Constant Matrix: (Units=GPa)
#
#
# Indices 1 2 3 4 5 6 
#
# 1 140.9719 15.8867 72.7980 0.0000 0.0000 0.0000
# 2 15.8867 54.2534 23.8873 0.0000 0.0000 0.0000
# 3 72.7980 23.8873 175.3934 0.0000 0.0000 0.0000
# 4 0.0000 0.0000 0.0000 46.2397 0.0000 0.0000
# 5 0.0000 0.0000 0.0000 0.0000 -6.0050 0.0000
# 6 0.0000 0.0000 0.0000 0.0000 0.0000 23.5307
#
#
#
# Elastic Compliance Matrix: (Units=1/GPa)
#
#
# Indices 1 2 3 4 5 6 
#
# 1 0.009086 -0.001064 -0.003626 0.000000 0.000000 0.000000
# 2 -0.001064 0.019732 -0.002246 0.000000 0.000000 0.000000
# 3 -0.003626 -0.002246 0.007512 0.000000 0.000000 0.000000
# 4 0.000000 0.000000 0.000000 0.021626 0.000000 0.000000
# 5 0.000000 0.000000 0.000000 0.000000 -0.166528 0.000000
# 6 0.000000 0.000000 0.000000 0.000000 0.000000 0.042498
#
#
# Mechanical properties :
#
#
# Convention : Reuss Voigt Hill
#
# Bulk Modulus (GPa) = 44.52612 66.19586 55.36099
# Shear Modulus (GPa) = -111.82104 29.95620 -40.93242
#
# Velocity S-wave (km/s) = -6.64692 3.44034 -4.02154
# Velocity P-wave (km/s) = 6.42775 6.47579 0.55672
#
# Compressibility (1/GPa) = 0.02245873
#
# Stress axis : x y z
#
# Youngs Moduli (GPa) = 110.05732 50.67814 133.11209
#
# Poissons Ratio (x) = 0.05392 0.48271
# Poissons Ratio (y) = 0.11710 0.29894
# Poissons Ratio (z) = 0.39911 0.11381
#
# Static dielectric constant tensor:
#      x y z
#    x 1.992910 0.000000 0.000000 
#    y 0.000000 2.024240 0.000000 
#    z 0.000000 0.000000 2.009440 
# 
# From -- ./inp_files/27078.got.cif
#   From: 2010.05.17/outbox.cif.g08.bks.cpg/sg64_14_cif.got.tgz:27078.got - 2010.06.03 16:29:19.
