data_PCOD9479316
_publ_section_title
;
Structure prediction by ZEFSAII (Michael W. Deem and Ramdas Pophale) SiO2 
 PCOD9479316
Probable space group: C M C A
;
_chemical_formula_sum "Si O2"
_cell_formula_units_Z 64
_cell_length_a 18.146618
_cell_length_b 9.401580
_cell_length_c 14.997950
_cell_angle_alpha 90.000000
_cell_angle_beta 90.000000
_cell_angle_gamma 90.000000
_cell_volume 2558.753469
_symmetry_space_group_name_H-M "C M C A"
_symmetry_group_IT_number 64
_symmetry_cell_setting 'orthorhombic'
loop_
_space_group_symop_operation_xyz
x,y,z
-x,1/2-y,1/2+z
x,-y,-z
-x,1/2+y,1/2-z
-x,-y,-z
x,1/2+y,1/2-z
-x,y,z
x,1/2-y,1/2+z
1/2+x,1/2+y,z
1/2-x,-y,1/2+z
1/2+x,1/2-y,-z
1/2-x,y,1/2-z
1/2-x,1/2-y,-z
1/2+x,y,1/2-z
1/2-x,1/2+y,z
1/2+x,-y,1/2+z
loop_
_atom_site_type_symbol
_atom_site_label
_atom_site_fract_x
_atom_site_fract_y
_atom_site_fract_z
Si Si1 0.170840 0.628019 0.604391
Si Si2 0.414284 0.941954 0.215188
Si Si3 0.586789 0.835996 0.027919
Si Si4 0.222569 0.907657 0.654532
O O1 0.115014 0.597527 0.686773
O O2 0.129676 0.712268 0.524792
O O3 0.223150 0.492547 0.590426
O O4 0.230465 0.743101 0.637459
O O5 0.500000 0.980750 0.219292
O O6 0.406240 0.824416 0.135797
O O7 0.364259 0.065309 0.171607
O O8 0.500000 0.825612 0.006359
O O9 0.609320 0.000000 0.000000
O O10 0.250000 0.954633 0.750000
#
# Coordination Sequence:
#
# PCOD9479316 Si02
#       4
#    16  16  16  16
#     4  11  22  40  62  93 132 172 211 271 322 386
#     4  10  21  37  62  95 127 166 214 271 331 381
#     4  10  20  38  65 100 130 165 224 273 324 399
#     4  10  21  38  60  91 129 166 216 263 318 390
#
# _framework density 25.012179
#
# number of rings (size 3 to 8) (size 9 to 14) (size 15 to 20)
#    0.000    1.750    2.500    3.000    0.000    2.000 
#    0.000    0.000    0.000    6.000    0.000   33.250 
#    0.000    0.000    0.000    0.000    0.000    0.000 
#
# Total GULP energy -178493.636054 kJ/mol
# GULP energy per Si atom -5577.926127 kJ/mol
# Density = 2.495525 g / cm^3
# Si number density = 25.012179 Si / 1000 Ang^3
#
#
#
# Elastic Constant Matrix: (Units=GPa)
#
#
# Indices 1 2 3 4 5 6 
#
# 1 151.0408 22.5271 29.0809 0.0000 0.0000 0.0000
# 2 22.5271 48.5059 -1.7425 0.0000 0.0000 0.0000
# 3 29.0809 -1.7425 108.4266 0.0000 0.0000 0.0000
# 4 0.0000 0.0000 0.0000 22.6064 0.0000 0.0000
# 5 0.0000 0.0000 0.0000 0.0000 117.0519 0.0000
# 6 0.0000 0.0000 0.0000 0.0000 0.0000 19.2383
#
#
#
# Elastic Compliance Matrix: (Units=1/GPa)
#
#
# Indices 1 2 3 4 5 6 
#
# 1 0.007557 -0.003584 -0.002084 0.000000 0.000000 0.000000
# 2 -0.003584 0.022328 0.001320 0.000000 0.000000 0.000000
# 3 -0.002084 0.001320 0.009803 0.000000 0.000000 0.000000
# 4 0.000000 0.000000 0.000000 0.044235 0.000000 0.000000
# 5 0.000000 0.000000 0.000000 0.000000 0.008543 0.000000
# 6 0.000000 0.000000 0.000000 0.000000 0.000000 0.051980
#
#
# Mechanical properties :
#
#
# Convention : Reuss Voigt Hill
#
# Bulk Modulus (GPa) = 32.26765 45.30048 38.78407
# Shear Modulus (GPa) = 30.58606 48.98652 39.78629
#
# Velocity S-wave (km/s) = 3.50072 4.43030 3.99266
# Velocity P-wave (km/s) = 5.41006 6.65739 6.06587
#
# Compressibility (1/GPa) = 0.03099079
#
# Stress axis : x y z
#
# Youngs Moduli (GPa) = 132.33415 44.78666 102.00873
#
# Poissons Ratio (x) = 0.16053 0.21262
# Poissons Ratio (y) = 0.47433 -0.13467
# Poissons Ratio (z) = 0.27583 -0.05913
#
# Static dielectric constant tensor:
#      x y z
#    x 1.997280 0.000000 0.000000 
#    y 0.000000 1.971630 0.000000 
#    z 0.000000 0.000000 2.082080 
# 
# From -- ./inp_files/25983.got.cif
#   From: 2010.05.17/outbox.cif.g08.bks.cpg/sg64_13_cif.got.tgz:25983.got - 2010.06.03 16:29:19.
