data_PCOD9479840
_publ_section_title
;
Structure prediction by ZEFSAII (Michael W. Deem and Ramdas Pophale) SiO2 
 PCOD9479840
Probable space group: C M C A
;
_chemical_formula_sum "Si O2"
_cell_formula_units_Z 80
_cell_length_a 18.464179
_cell_length_b 23.351931
_cell_length_c 8.942518
_cell_angle_alpha 90.000000
_cell_angle_beta 90.000000
_cell_angle_gamma 90.000000
_cell_volume 3855.783348
_symmetry_space_group_name_H-M "C M C A"
_symmetry_group_IT_number 64
_symmetry_cell_setting 'orthorhombic'
loop_
_space_group_symop_operation_xyz
x,y,z
-x,1/2-y,1/2+z
x,-y,-z
-x,1/2+y,1/2-z
-x,-y,-z
x,1/2+y,1/2-z
-x,y,z
x,1/2-y,1/2+z
1/2+x,1/2+y,z
1/2-x,-y,1/2+z
1/2+x,1/2-y,-z
1/2-x,y,1/2-z
1/2-x,1/2-y,-z
1/2+x,y,1/2-z
1/2-x,1/2+y,z
1/2+x,-y,1/2+z
loop_
_atom_site_type_symbol
_atom_site_label
_atom_site_fract_x
_atom_site_fract_y
_atom_site_fract_z
Si Si1 0.329023 0.877100 0.324372
Si Si2 0.421031 0.857922 0.897743
Si Si3 0.087082 0.723228 0.847915
Si Si4 0.823354 0.659745 0.336961
Si Si5 0.082245 0.458176 0.131428
O O1 0.250000 0.876001 0.250000
O O2 0.375065 0.822440 0.263123
O O3 0.317381 0.867798 0.500851
O O4 0.369706 0.935587 0.270123
O O5 0.500000 0.852266 0.828160
O O6 0.365414 0.881106 0.777963
O O7 0.400325 0.799563 0.982250
O O8 0.425741 0.900464 0.035767
O O9 0.125604 0.784342 0.841113
O O10 0.000000 0.724789 0.824312
O O11 0.750000 0.674927 0.250000
O O12 0.000000 0.477820 0.173407
O O13 0.111520 0.500000 0.000000
#
# Coordination Sequence:
#
# PCOD9479840 Si02
#       5
#    16  16  16  16  16
#     4  11  23  39  58  84 118 157 200 243 294 357
#     4   9  19  35  55  81 112 145 188 245 303 356
#     4  10  21  37  57  83 118 162 207 248 292 344
#     4  12  23  34  53  83 122 162 200 244 293 348
#     4   9  19  40  66  86 109 145 191 247 308 363
#
# _framework density 20.748055000000001
#
# number of rings (size 3 to 8) (size 9 to 14) (size 15 to 20)
#    0.000    1.800    0.000    6.600    0.000    7.200 
#    0.000    4.000    0.000    3.600    0.000    0.000 
#    0.000    0.000    0.000    0.000    0.000    0.000 
#
# Total GULP energy -222883.572451 kJ/mol
# GULP energy per Si atom -5572.089311 kJ/mol
# Density = 2.070083 g / cm^3
# Si number density = 20.748055 Si / 1000 Ang^3
#
#
#
# Elastic Constant Matrix: (Units=GPa)
#
#
# Indices 1 2 3 4 5 6 
#
# 1 105.5716 5.1078 75.9090 0.0000 0.0000 0.0000
# 2 5.1078 38.3978 15.1654 0.0000 0.0000 0.0000
# 3 75.9090 15.1654 118.3644 0.0000 0.0000 0.0000
# 4 0.0000 0.0000 0.0000 18.1236 0.0000 0.0000
# 5 0.0000 0.0000 0.0000 0.0000 30.0285 0.0000
# 6 0.0000 0.0000 0.0000 0.0000 0.0000 11.6462
#
#
#
# Elastic Compliance Matrix: (Units=1/GPa)
#
#
# Indices 1 2 3 4 5 6 
#
# 1 0.017760 0.002250 -0.011678 0.000000 0.000000 0.000000
# 2 0.002250 0.027716 -0.004994 0.000000 0.000000 0.000000
# 3 -0.011678 -0.004994 0.016578 0.000000 0.000000 0.000000
# 4 0.000000 0.000000 0.000000 0.055177 0.000000 0.000000
# 5 0.000000 0.000000 0.000000 0.000000 0.033302 0.000000
# 6 0.000000 0.000000 0.000000 0.000000 0.000000 0.085865
#
#
# Mechanical properties :
#
#
# Convention : Reuss Voigt Hill
#
# Bulk Modulus (GPa) = 30.11177 50.52204 40.31690
# Shear Modulus (GPa) = 18.09546 23.03644 20.56595
#
# Velocity S-wave (km/s) = 2.95643 3.33572 3.15178
# Velocity P-wave (km/s) = 5.11845 6.26412 5.72004
#
# Compressibility (1/GPa) = 0.03320961
#
# Stress axis : x y z
#
# Youngs Moduli (GPa) = 56.30489 36.07987 60.32143
#
# Poissons Ratio (x) = -0.08117 0.70445
# Poissons Ratio (y) = -0.12668 0.30125
# Poissons Ratio (z) = 0.65755 0.18018
#
# Static dielectric constant tensor:
#      x y z
#    x 1.805040 0.000000 0.000000 
#    y 0.000000 1.822430 0.000000 
#    z 0.000000 0.000000 1.829250 
# 
# From -- ./inp_files/7051.got.cif
#   From: 2010.05.17/outbox.cif.g08.bks.cpg/sg64_4_cif.got.tgz:7051.got - 2010.06.03 16:29:19.
