data_PCOD9479418
_publ_section_title
;
Structure prediction by ZEFSAII (Michael W. Deem and Ramdas Pophale) SiO2 
 PCOD9479418
Probable space group: C M C A
;
_chemical_formula_sum "Si O2"
_cell_formula_units_Z 64
_cell_length_a 22.965738
_cell_length_b 7.833132
_cell_length_c 14.271936
_cell_angle_alpha 90.000000
_cell_angle_beta 90.000000
_cell_angle_gamma 90.000000
_cell_volume 2567.430763
_symmetry_space_group_name_H-M "C M C A"
_symmetry_group_IT_number 64
_symmetry_cell_setting 'orthorhombic'
loop_
_space_group_symop_operation_xyz
x,y,z
-x,1/2-y,1/2+z
x,-y,-z
-x,1/2+y,1/2-z
-x,-y,-z
x,1/2+y,1/2-z
-x,y,z
x,1/2-y,1/2+z
1/2+x,1/2+y,z
1/2-x,-y,1/2+z
1/2+x,1/2-y,-z
1/2-x,y,1/2-z
1/2-x,1/2-y,-z
1/2+x,y,1/2-z
1/2-x,1/2+y,z
1/2+x,-y,1/2+z
loop_
_atom_site_type_symbol
_atom_site_label
_atom_site_fract_x
_atom_site_fract_y
_atom_site_fract_z
Si Si1 0.839751 0.128133 0.665439
Si Si2 0.736976 0.955378 0.603044
Si Si3 0.067201 0.240529 0.546201
Si Si4 0.885070 0.096704 0.868829
O O1 0.797535 0.284036 0.632178
O O2 0.888444 0.105369 0.587593
O O3 0.877102 0.142662 0.760584
O O4 0.791936 0.979526 0.671196
O O5 0.762123 0.000000 0.500000
O O6 0.682749 0.087475 0.601828
O O7 0.080814 0.280045 0.438203
O O8 0.085333 0.413388 0.605446
O O9 0.000000 0.202107 0.560115
#
# Coordination Sequence:
#
# PCOD9479418 Si02
#       4
#    16  16  16  16
#     4  11  24  40  68 105 134 178 230 284 346 422
#     4  11  22  43  66  99 141 179 220 284 360 418
#     4  10  22  43  67  96 137 185 231 285 344 408
#     4  10  20  39  66  97 134 178 227 279 351 408
#
# _framework density 24.927643
#
# number of rings (size 3 to 8) (size 9 to 14) (size 15 to 20)
#    0.000    1.500    5.000    3.000    0.000   10.000 
#    0.000    0.000    0.000    0.750    0.000    0.000 
#    0.000    0.000    0.000    0.000    0.000    0.000 
#
# Total GULP energy -178718.094696 kJ/mol
# GULP energy per Si atom -5584.940459 kJ/mol
# Density = 2.487091 g / cm^3
# Si number density = 24.927643 Si / 1000 Ang^3
#
#
#
# Elastic Constant Matrix: (Units=GPa)
#
#
# Indices 1 2 3 4 5 6 
#
# 1 217.0266 31.4595 45.3542 0.0000 0.0000 0.0000
# 2 31.4595 85.4960 36.9372 0.0000 0.0000 0.0000
# 3 45.3542 36.9372 159.1775 0.0000 0.0000 0.0000
# 4 0.0000 0.0000 0.0000 27.1357 0.0000 0.0000
# 5 0.0000 0.0000 0.0000 0.0000 30.0989 0.0000
# 6 0.0000 0.0000 0.0000 0.0000 0.0000 15.1671
#
#
#
# Elastic Compliance Matrix: (Units=1/GPa)
#
#
# Indices 1 2 3 4 5 6 
#
# 1 0.005040 -0.001372 -0.001118 0.000000 0.000000 0.000000
# 2 -0.001372 0.013373 -0.002712 0.000000 0.000000 0.000000
# 3 -0.001118 -0.002712 0.007230 0.000000 0.000000 0.000000
# 4 0.000000 0.000000 0.000000 0.036852 0.000000 0.000000
# 5 0.000000 0.000000 0.000000 0.000000 0.033224 0.000000
# 6 0.000000 0.000000 0.000000 0.000000 0.000000 0.065932
#
#
# Mechanical properties :
#
#
# Convention : Reuss Voigt Hill
#
# Bulk Modulus (GPa) = 65.61820 76.57800 71.09810
# Shear Modulus (GPa) = 28.22709 37.67695 32.95202
#
# Velocity S-wave (km/s) = 3.36871 3.89196 3.63975
# Velocity P-wave (km/s) = 6.44294 7.14026 6.80054
#
# Compressibility (1/GPa) = 0.01523967
#
# Stress axis : x y z
#
# Youngs Moduli (GPa) = 198.40647 74.77743 138.30890
#
# Poissons Ratio (x) = 0.10257 0.15460
# Poissons Ratio (y) = 0.27215 0.37515
# Poissons Ratio (z) = 0.22178 0.20283
#
# Static dielectric constant tensor:
#      x y z
#    x 1.840520 0.000000 0.000000 
#    y 0.000000 2.169730 0.000000 
#    z 0.000000 0.000000 2.107870 
# 
# From -- ./inp_files/26912.got.cif
#   From: 2010.05.17/outbox.cif.g08.bks.cpg/sg64_14_cif.got.tgz:26912.got - 2010.06.03 16:29:19.
