data_PCOD9479954
_publ_section_title
;
Structure prediction by ZEFSAII (Michael W. Deem and Ramdas Pophale) SiO2 
 PCOD9479954
Probable space group: C M C A
;
_chemical_formula_sum "Si O2"
_cell_formula_units_Z 108
_cell_length_a 14.433529
_cell_length_b 29.080192
_cell_length_c 11.252266
_cell_angle_alpha 90.000000
_cell_angle_beta 90.000000
_cell_angle_gamma 90.000000
_cell_volume 4722.911296
_symmetry_space_group_name_H-M "C M C A"
_symmetry_group_IT_number 64
_symmetry_cell_setting 'orthorhombic'
loop_
_space_group_symop_operation_xyz
x,y,z
-x,1/2-y,1/2+z
x,-y,-z
-x,1/2+y,1/2-z
-x,-y,-z
x,1/2+y,1/2-z
-x,y,z
x,1/2-y,1/2+z
1/2+x,1/2+y,z
1/2-x,-y,1/2+z
1/2+x,1/2-y,-z
1/2-x,y,1/2-z
1/2-x,1/2-y,-z
1/2+x,y,1/2-z
1/2-x,1/2+y,z
1/2+x,-y,1/2+z
loop_
_atom_site_type_symbol
_atom_site_label
_atom_site_fract_x
_atom_site_fract_y
_atom_site_fract_z
Si Si1 0.000000 0.500000 0.000000
Si Si2 0.601729 0.850711 0.016997
Si Si3 0.103918 0.454000 0.793369
Si Si4 0.893945 0.700374 0.728913
Si Si5 0.893017 0.306396 0.755767
Si Si6 0.897465 0.030622 0.883563
Si Si7 0.783277 0.881602 0.119086
Si Si8 0.250000 0.375711 0.750000
O O1 0.079536 0.526188 0.079095
O O2 0.500000 0.874513 0.018355
O O3 0.604585 0.819928 0.137009
O O4 0.694617 0.879304 0.035407
O O5 0.607197 0.823340 0.893613
O O6 0.142535 0.496202 0.715101
O O7 0.172197 0.411354 0.795265
O O8 0.000000 0.440871 0.742660
O O9 0.864897 0.753158 0.740426
O O10 0.832039 0.667522 0.645675
O O11 0.000000 0.699628 0.684438
O O12 0.819650 0.338600 0.686793
O O13 0.000000 0.309840 0.713101
O O14 0.850965 0.078185 0.918156
O O15 0.000000 0.042386 0.835792
O O16 0.902846 0.000000 0.000000
O O17 0.750000 0.896474 0.250000
#
# Coordination Sequence:
#
# PCOD9479954 Si02
#       8
#     4  16  16  16  16  16  16   8
#     4   8  20  52  74  96 138 188 240 294 344 424
#     4   9  20  40  63  93 130 178 226 284 343 415
#     4   9  22  46  69 101 139 183 238 296 350 429
#     4   9  19  40  64  92 136 176 233 294 348 418
#     4  10  23  42  65  97 138 183 227 288 355 430
#     4  10  22  42  66  96 140 177 218 291 367 423
#     4  10  21  37  64  97 130 174 233 286 346 430
#     4  12  24  40  70 100 142 180 232 290 362 432
#
# _framework density 22.867251
#
# number of rings (size 3 to 8) (size 9 to 14) (size 15 to 20)
#    0.444    1.926    0.000    0.889    6.222    1.185 
#    6.667    0.000    0.000    0.444    0.000    0.000 
#    0.000    0.000    0.000    0.000    0.000    0.000 
#
# Total GULP energy -300682.584069 kJ/mol
# GULP energy per Si atom -5568.196001 kJ/mol
# Density = 2.281520 g / cm^3
# Si number density = 22.867251 Si / 1000 Ang^3
#
#
#
# Elastic Constant Matrix: (Units=GPa)
#
#
# Indices 1 2 3 4 5 6 
#
# 1 144.6171 80.1675 25.2968 0.0000 0.0000 0.0000
# 2 80.1675 155.4399 31.3603 0.0000 0.0000 0.0000
# 3 25.2968 31.3603 30.4905 0.0000 0.0000 0.0000
# 4 0.0000 0.0000 0.0000 15.9896 0.0000 0.0000
# 5 0.0000 0.0000 0.0000 0.0000 -2.7881 0.0000
# 6 0.0000 0.0000 0.0000 0.0000 0.0000 7.2741
#
#
#
# Elastic Compliance Matrix: (Units=1/GPa)
#
#
# Indices 1 2 3 4 5 6 
#
# 1 0.010017 -0.004403 -0.003782 0.000000 0.000000 0.000000
# 2 -0.004403 0.010053 -0.006687 0.000000 0.000000 0.000000
# 3 -0.003782 -0.006687 0.042813 0.000000 0.000000 0.000000
# 4 0.000000 0.000000 0.000000 0.062541 0.000000 0.000000
# 5 0.000000 0.000000 0.000000 0.000000 -0.358668 0.000000
# 6 0.000000 0.000000 0.000000 0.000000 0.000000 0.137475
#
#
# Mechanical properties :
#
#
# Convention : Reuss Voigt Hill
#
# Bulk Modulus (GPa) = 30.17620 67.13296 48.65458
# Shear Modulus (GPa) = -90.94608 17.00998 -36.96805
#
# Velocity S-wave (km/s) = -6.31329 2.73033 -4.02511
# Velocity P-wave (km/s) = 6.31812 6.27384 0.52801
#
# Compressibility (1/GPa) = 0.03313870
#
# Stress axis : x y z
#
# Youngs Moduli (GPa) = 99.82668 99.46810 23.35762
#
# Poissons Ratio (x) = 0.43800 0.08834
# Poissons Ratio (y) = 0.43957 0.15619
# Poissons Ratio (z) = 0.37755 0.66514
#
# Static dielectric constant tensor:
#      x y z
#    x 1.937460 0.000000 0.000000 
#    y 0.000000 1.832240 0.000000 
#    z 0.000000 0.000000 1.908210 
# 
# From -- ./inp_files/15031.got.cif
#   From: 2010.05.17/outbox.cif.g08.bks.cpg/sg64_8_cif.got.tgz:15031.got - 2010.06.03 16:29:19.
