data_PCOD9479409
_publ_section_title
;
Structure prediction by ZEFSAII (Michael W. Deem and Ramdas Pophale) SiO2 
 PCOD9479409
Probable space group: C M C A
;
_chemical_formula_sum "Si O2"
_cell_formula_units_Z 48
_cell_length_a 12.463530
_cell_length_b 6.890609
_cell_length_c 18.129461
_cell_angle_alpha 90.000000
_cell_angle_beta 90.000000
_cell_angle_gamma 90.000000
_cell_volume 1556.981896
_symmetry_space_group_name_H-M "C M C A"
_symmetry_group_IT_number 64
_symmetry_cell_setting 'orthorhombic'
loop_
_space_group_symop_operation_xyz
x,y,z
-x,1/2-y,1/2+z
x,-y,-z
-x,1/2+y,1/2-z
-x,-y,-z
x,1/2+y,1/2-z
-x,y,z
x,1/2-y,1/2+z
1/2+x,1/2+y,z
1/2-x,-y,1/2+z
1/2+x,1/2-y,-z
1/2-x,y,1/2-z
1/2-x,1/2-y,-z
1/2+x,y,1/2-z
1/2-x,1/2+y,z
1/2+x,-y,1/2+z
loop_
_atom_site_type_symbol
_atom_site_label
_atom_site_fract_x
_atom_site_fract_y
_atom_site_fract_z
Si Si1 0.887407 0.058773 0.400865
Si Si2 0.846531 0.358280 0.566970
Si Si3 0.875372 0.752545 0.778410
O O1 0.890235 0.856515 0.445446
O O2 0.874646 0.964230 0.318851
O O3 0.000000 0.162754 0.406602
O O4 0.781038 0.169021 0.422178
O O5 0.871402 0.500000 0.500000
O O6 0.879976 0.403671 0.651273
O O7 0.750000 0.756830 0.750000
O O8 0.000000 0.752130 0.748810
#
# Coordination Sequence:
#
# PCOD9479409 Si02
#       3
#    16  16  16
#     4   9  21  39  59  89 126 159 206 259 307 375
#     4  10  20  39  65  92 125 162 208 260 319 373
#     4   9  21  40  62  89 126 167 211 262 312 375
#
# _framework density 30.828878
#
# number of rings (size 3 to 8) (size 9 to 14) (size 15 to 20)
#    2.000    0.667    0.000    1.000    0.000    6.000 
#    0.000   10.000    0.000    0.000    0.000    0.000 
#    0.000    0.000    0.000    0.000    0.000    0.000 
#
# Total GULP energy -133906.873323 kJ/mol
# GULP energy per Si atom -5579.453055 kJ/mol
# Density = 3.075871 g / cm^3
# Si number density = 30.828878 Si / 1000 Ang^3
#
#
#
# Elastic Constant Matrix: (Units=GPa)
#
#
# Indices 1 2 3 4 5 6 
#
# 1 390.0318 88.4899 103.8805 0.0000 0.0000 0.0000
# 2 88.4899 86.9008 23.5214 0.0000 0.0000 0.0000
# 3 103.8805 23.5214 151.4136 0.0000 0.0000 0.0000
# 4 0.0000 0.0000 0.0000 43.9115 0.0000 0.0000
# 5 0.0000 0.0000 0.0000 0.0000 29.2711 0.0000
# 6 0.0000 0.0000 0.0000 0.0000 0.0000 50.7613
#
#
#
# Elastic Compliance Matrix: (Units=1/GPa)
#
#
# Indices 1 2 3 4 5 6 
#
# 1 0.003908 -0.003397 -0.002154 0.000000 0.000000 0.000000
# 2 -0.003397 0.014965 0.000006 0.000000 0.000000 0.000000
# 3 -0.002154 0.000006 0.008081 0.000000 0.000000 0.000000
# 4 0.000000 0.000000 0.000000 0.022773 0.000000 0.000000
# 5 0.000000 0.000000 0.000000 0.000000 0.034163 0.000000
# 6 0.000000 0.000000 0.000000 0.000000 0.000000 0.019700
#
#
# Mechanical properties :
#
#
# Convention : Reuss Voigt Hill
#
# Bulk Modulus (GPa) = 63.03333 117.79220 90.41276
# Shear Modulus (GPa) = 41.67789 52.28574 46.98182
#
# Velocity S-wave (km/s) = 3.68082 4.12272 3.90802
# Velocity P-wave (km/s) = 6.20928 7.80729 7.05369
#
# Compressibility (1/GPa) = 0.01586462
#
# Stress axis : x y z
#
# Youngs Moduli (GPa) = 255.87848 66.82428 123.74622
#
# Poissons Ratio (x) = 0.22698 0.26650
# Poissons Ratio (y) = 0.86913 -0.00070
# Poissons Ratio (z) = 0.55106 -0.00038
#
# Static dielectric constant tensor:
#      x y z
#    x 2.344730 0.000000 0.000000 
#    y 0.000000 2.465470 0.000000 
#    z 0.000000 0.000000 3.242560 
# 
# From -- ./inp_files/30250.got.cif
#   From: 2010.05.17/outbox.cif.g08.bks.cpg/sg64_16_cif.got.tgz:30250.got - 2010.06.03 16:29:19.
