data_PCOD9479786
_publ_section_title
;
Structure prediction by ZEFSAII (Michael W. Deem and Ramdas Pophale) SiO2 
 PCOD9479786
Probable space group: C M C A
;
_chemical_formula_sum "Si O2"
_cell_formula_units_Z 96
_cell_length_a 23.286561
_cell_length_b 8.810019
_cell_length_c 23.006074
_cell_angle_alpha 90.000000
_cell_angle_beta 90.000000
_cell_angle_gamma 90.000000
_cell_volume 4719.812143
_symmetry_space_group_name_H-M "C M C A"
_symmetry_group_IT_number 64
_symmetry_cell_setting 'orthorhombic'
loop_
_space_group_symop_operation_xyz
x,y,z
-x,1/2-y,1/2+z
x,-y,-z
-x,1/2+y,1/2-z
-x,-y,-z
x,1/2+y,1/2-z
-x,y,z
x,1/2-y,1/2+z
1/2+x,1/2+y,z
1/2-x,-y,1/2+z
1/2+x,1/2-y,-z
1/2-x,y,1/2-z
1/2-x,1/2-y,-z
1/2+x,y,1/2-z
1/2-x,1/2+y,z
1/2+x,-y,1/2+z
loop_
_atom_site_type_symbol
_atom_site_label
_atom_site_fract_x
_atom_site_fract_y
_atom_site_fract_z
Si Si1 0.724079 0.600823 0.330264
Si Si2 0.642146 0.579336 0.436092
Si Si3 0.861938 0.383477 0.671013
Si Si4 0.563587 0.311197 0.407057
Si Si5 0.064158 0.337073 0.471023
Si Si6 0.335912 0.139268 0.741593
O O1 0.696839 0.581371 0.393789
O O2 0.792807 0.603795 0.336561
O O3 0.698058 0.473674 0.286010
O O4 0.704169 0.756930 0.299468
O O5 0.653283 0.500000 0.500000
O O6 0.596534 0.469835 0.403705
O O7 0.614937 0.749199 0.437824
O O8 0.897538 0.325479 0.617060
O O9 0.876678 0.542002 0.700022
O O10 0.870783 0.252773 0.718340
O O11 0.500000 0.313028 0.380912
O O12 0.557616 0.277814 0.475063
O O13 0.077701 0.500000 0.500000
O O14 0.000000 0.350370 0.443241
#
# Coordination Sequence:
#
# PCOD9479786 Si02
#       6
#    16  16  16  16  16  16
#     4  11  20  36  61  91 117 153 201 249 303 358
#     4  10  21  38  60  89 124 159 196 245 309 366
#     4  11  20  36  59  86 115 154 196 248 296 352
#     4  10  21  38  59  82 117 157 194 237 289 357
#     4   9  19  37  59  83 109 152 206 242 281 348
#     4  10  21  36  61  87 115 155 204 247 291 359
#
# _framework density 20.339794000000001
#
# number of rings (size 3 to 8) (size 9 to 14) (size 15 to 20)
#    0.000    1.833    1.667    4.500    2.333    2.000 
#    0.000    5.000    0.000    0.000    0.000    0.000 
#    0.000    0.000    0.000    0.000    0.000    0.000 
#
# Total GULP energy -267452.726156 kJ/mol
# GULP energy per Si atom -5571.931795 kJ/mol
# Density = 2.029350 g / cm^3
# Si number density = 20.339794 Si / 1000 Ang^3
#
#
#
# Elastic Constant Matrix: (Units=GPa)
#
#
# Indices 1 2 3 4 5 6 
#
# 1 43.1052 3.9223 29.2567 0.0000 0.0000 0.0000
# 2 3.9223 89.1688 5.6868 0.0000 0.0000 0.0000
# 3 29.2567 5.6868 72.9080 0.0000 0.0000 0.0000
# 4 0.0000 0.0000 0.0000 27.3212 0.0000 0.0000
# 5 0.0000 0.0000 0.0000 0.0000 -4.6875 0.0000
# 6 0.0000 0.0000 0.0000 0.0000 0.0000 14.1999
#
#
#
# Elastic Compliance Matrix: (Units=1/GPa)
#
#
# Indices 1 2 3 4 5 6 
#
# 1 0.031913 -0.000590 -0.012760 0.000000 0.000000 0.000000
# 2 -0.000590 0.011282 -0.000643 0.000000 0.000000 0.000000
# 3 -0.012760 -0.000643 0.018887 0.000000 0.000000 0.000000
# 4 0.000000 0.000000 0.000000 0.036602 0.000000 0.000000
# 5 0.000000 0.000000 0.000000 0.000000 -0.213333 0.000000
# 6 0.000000 0.000000 0.000000 0.000000 0.000000 0.070423
#
#
# Mechanical properties :
#
#
# Convention : Reuss Voigt Hill
#
# Bulk Modulus (GPa) = 29.33006 31.43484 30.38245
# Shear Modulus (GPa) = -1025.65329 18.45446 -503.59942
#
# Velocity S-wave (km/s) = -22.48008 3.01542 -15.75216
# Velocity P-wave (km/s) = 25.67789 5.25472 17.77276
#
# Compressibility (1/GPa) = 0.03409472
#
# Stress axis : x y z
#
# Youngs Moduli (GPa) = 31.33471 88.63942 52.94769
#
# Poissons Ratio (x) = 0.05230 0.67563
# Poissons Ratio (y) = 0.01849 0.03406
# Poissons Ratio (z) = 0.39984 0.05701
#
# Static dielectric constant tensor:
#      x y z
#    x 1.762460 0.000000 0.000000 
#    y 0.000000 1.773700 0.000000 
#    z 0.000000 0.000000 1.753830 
# 
# From -- ./inp_files/46852.got.cif
#   From: 2010.05.17/outbox.cif.g08.bks.cpg/sg64_24_cif.got.tgz:46852.got - 2010.06.03 16:29:19.
