data_PCOD9479245
_publ_section_title
;
Structure prediction by ZEFSAII (Michael W. Deem and Ramdas Pophale) SiO2 
 PCOD9479245
Probable space group: C M C A
;
_chemical_formula_sum "Si O2"
_cell_formula_units_Z 96
_cell_length_a 28.821533
_cell_length_b 13.781256
_cell_length_c 11.308417
_cell_angle_alpha 90.000000
_cell_angle_beta 90.000000
_cell_angle_gamma 90.000000
_cell_volume 4491.668454
_symmetry_space_group_name_H-M "C M C A"
_symmetry_group_IT_number 64
_symmetry_cell_setting 'orthorhombic'
loop_
_space_group_symop_operation_xyz
x,y,z
-x,1/2-y,1/2+z
x,-y,-z
-x,1/2+y,1/2-z
-x,-y,-z
x,1/2+y,1/2-z
-x,y,z
x,1/2-y,1/2+z
1/2+x,1/2+y,z
1/2-x,-y,1/2+z
1/2+x,1/2-y,-z
1/2-x,y,1/2-z
1/2-x,1/2-y,-z
1/2+x,y,1/2-z
1/2-x,1/2+y,z
1/2+x,-y,1/2+z
loop_
_atom_site_type_symbol
_atom_site_label
_atom_site_fract_x
_atom_site_fract_y
_atom_site_fract_z
Si Si1 0.352291 0.654035 0.728599
Si Si2 0.919897 0.901863 0.462281
Si Si3 0.000000 0.676390 0.244571
Si Si4 0.894014 0.148406 0.303259
Si Si5 0.225025 0.282324 0.621383
Si Si6 0.330670 0.972368 0.629035
Si Si7 0.500000 0.251271 0.999541
O O1 0.393481 0.599261 0.660214
O O2 0.377791 0.739713 0.800688
O O3 0.319615 0.712741 0.638296
O O4 0.323975 0.574221 0.802685
O O5 0.882513 0.890182 0.566858
O O6 0.954703 0.812853 0.470298
O O7 0.945179 0.000000 0.500000
O O8 0.050827 0.634582 0.215422
O O9 0.000000 0.765356 0.143066
O O10 0.000000 0.677481 0.387835
O O11 0.867041 0.090504 0.203618
O O12 0.250000 0.271378 0.750000
O O13 0.250000 0.250000 0.500000
O O14 0.211493 0.396465 0.612841
O O15 0.348679 0.000000 0.500000
#
# Coordination Sequence:
#
# PCOD9479245 Si02
#       7
#    16  16   8  16  16  16   8
#     4  11  24  41  70  94 131 170 218 267 338 391
#     4  11  21  39  64  95 130 174 223 270 323 385
#     4  10  20  38  61  94 132 181 225 270 328 381
#     4  10  23  40  63  96 135 175 225 272 326 388
#     4  11  27  47  71 100 133 169 215 273 339 413
#     4  11  25  43  68  98 132 172 220 274 334 401
#     4  10  21  36  60  94 132 175 223 273 318 386
#
# _framework density 21.372903000000001
#
# number of rings (size 3 to 8) (size 9 to 14) (size 15 to 20)
#    0.000    1.333    3.333    1.250    9.333    2.000 
#    0.000    1.250    0.000    0.000    0.000    0.000 
#    0.000    0.000    0.000    0.000    0.000    0.000 
#
# Total GULP energy -267223.737764 kJ/mol
# GULP energy per Si atom -5567.161203 kJ/mol
# Density = 2.132426 g / cm^3
# Si number density = 21.372903 Si / 1000 Ang^3
#
#
#
# Elastic Constant Matrix: (Units=GPa)
#
#
# Indices 1 2 3 4 5 6 
#
# 1 43.6134 12.2441 6.7426 0.0000 0.0000 0.0000
# 2 12.2441 108.5071 21.8010 0.0000 0.0000 0.0000
# 3 6.7426 21.8010 100.5460 0.0000 0.0000 0.0000
# 4 0.0000 0.0000 0.0000 28.3298 0.0000 0.0000
# 5 0.0000 0.0000 0.0000 0.0000 36.5813 0.0000
# 6 0.0000 0.0000 0.0000 0.0000 0.0000 21.9629
#
#
#
# Elastic Compliance Matrix: (Units=1/GPa)
#
#
# Indices 1 2 3 4 5 6 
#
# 1 0.023786 -0.002471 -0.001059 0.000000 0.000000 0.000000
# 2 -0.002471 0.009893 -0.001979 0.000000 0.000000 0.000000
# 3 -0.001059 -0.001979 0.010446 0.000000 0.000000 0.000000
# 4 0.000000 0.000000 0.000000 0.035299 0.000000 0.000000
# 5 0.000000 0.000000 0.000000 0.000000 0.027336 0.000000
# 6 0.000000 0.000000 0.000000 0.000000 0.000000 0.045531
#
#
# Mechanical properties :
#
#
# Convention : Reuss Voigt Hill
#
# Bulk Modulus (GPa) = 30.20681 37.13801 33.67241
# Shear Modulus (GPa) = 28.67870 31.50005 30.08938
#
# Velocity S-wave (km/s) = 3.66707 3.84322 3.75617
# Velocity P-wave (km/s) = 5.66513 6.09161 5.88224
#
# Compressibility (1/GPa) = 0.03310512
#
# Stress axis : x y z
#
# Youngs Moduli (GPa) = 42.04106 101.08657 95.73150
#
# Poissons Ratio (x) = 0.24981 0.10141
# Poissons Ratio (y) = 0.10389 0.18947
# Poissons Ratio (z) = 0.04453 0.20007
#
# Static dielectric constant tensor:
#      x y z
#    x 1.787380 0.000000 0.000000 
#    y 0.000000 1.838940 0.000000 
#    z 0.000000 0.000000 1.822260 
# 
# From -- ./inp_files/19806.got.cif
#   From: 2010.05.17/outbox.cif.g08.bks.cpg/sg64_10_cif.got.tgz:19806.got - 2010.06.03 16:29:19.
