data_PCOD9479170
_publ_section_title
;
Structure prediction by ZEFSAII (Michael W. Deem and Ramdas Pophale) SiO2 
 PCOD9479170
Probable space group: C M C A
;
_chemical_formula_sum "Si O2"
_cell_formula_units_Z 56
_cell_length_a 15.348289
_cell_length_b 18.014082
_cell_length_c 10.717038
_cell_angle_alpha 90.000000
_cell_angle_beta 90.000000
_cell_angle_gamma 90.000000
_cell_volume 2963.103859
_symmetry_space_group_name_H-M "C M C A"
_symmetry_group_IT_number 64
_symmetry_cell_setting 'orthorhombic'
loop_
_space_group_symop_operation_xyz
x,y,z
-x,1/2-y,1/2+z
x,-y,-z
-x,1/2+y,1/2-z
-x,-y,-z
x,1/2+y,1/2-z
-x,y,z
x,1/2-y,1/2+z
1/2+x,1/2+y,z
1/2-x,-y,1/2+z
1/2+x,1/2-y,-z
1/2-x,y,1/2-z
1/2-x,1/2-y,-z
1/2+x,y,1/2-z
1/2-x,1/2+y,z
1/2+x,-y,1/2+z
loop_
_atom_site_type_symbol
_atom_site_label
_atom_site_fract_x
_atom_site_fract_y
_atom_site_fract_z
Si Si1 0.401387 0.417108 0.283290
Si Si2 0.190856 0.634610 0.030251
Si Si3 0.324511 0.216415 0.646555
Si Si4 0.250000 0.526675 0.250000
O O1 0.500000 0.443947 0.280392
O O2 0.367621 0.403166 0.424113
O O3 0.391808 0.338536 0.212214
O O4 0.332061 0.473373 0.222691
O O5 0.143592 0.705438 0.093201
O O6 0.222383 0.577354 0.134018
O O7 0.274703 0.670466 0.961186
O O8 0.250000 0.233117 0.750000
#
# Coordination Sequence:
#
# PCOD9479170 Si02
#       4
#    16  16  16   8
#     4  11  24  40  61  92 127 160 201 253 305 363
#     4  10  20  37  66  86 116 163 204 248 299 358
#     4   9  18  39  63  89 113 156 206 249 297 353
#     4  12  22  38  62  90 124 164 194 248 312 368
#
# _framework density 18.899101999999999
#
# number of rings (size 3 to 8) (size 9 to 14) (size 15 to 20)
#    0.000    1.714    5.714    0.857    0.000    3.429 
#    0.000    2.857    0.000    0.000    0.000    0.000 
#    0.000    0.000    0.000    0.000    0.000    0.000 
#
# Total GULP energy -156287.328779 kJ/mol
# GULP energy per Si atom -5581.690314 kJ/mol
# Density = 1.885609 g / cm^3
# Si number density = 18.899102 Si / 1000 Ang^3
#
#
#
# Elastic Constant Matrix: (Units=GPa)
#
#
# Indices 1 2 3 4 5 6 
#
# 1 99.0753 36.8450 13.4470 0.0000 0.0000 0.0000
# 2 36.8450 100.6022 43.4890 0.0000 0.0000 0.0000
# 3 13.4470 43.4890 75.3136 0.0000 0.0000 0.0000
# 4 0.0000 0.0000 0.0000 27.0122 0.0000 0.0000
# 5 0.0000 0.0000 0.0000 0.0000 9.7396 0.0000
# 6 0.0000 0.0000 0.0000 0.0000 0.0000 4.4861
#
#
#
# Elastic Compliance Matrix: (Units=1/GPa)
#
#
# Indices 1 2 3 4 5 6 
#
# 1 0.011700 -0.004507 0.000514 0.000000 0.000000 0.000000
# 2 -0.004507 0.014983 -0.007847 0.000000 0.000000 0.000000
# 3 0.000514 -0.007847 0.017717 0.000000 0.000000 0.000000
# 4 0.000000 0.000000 0.000000 0.037020 0.000000 0.000000
# 5 0.000000 0.000000 0.000000 0.000000 0.102673 0.000000
# 6 0.000000 0.000000 0.000000 0.000000 0.000000 0.222912
#
#
# Mechanical properties :
#
#
# Convention : Reuss Voigt Hill
#
# Bulk Modulus (GPa) = 48.26466 51.39477 49.82971
# Shear Modulus (GPa) = 11.42615 20.32825 15.87720
#
# Velocity S-wave (km/s) = 2.46150 3.28322 2.90160
# Velocity P-wave (km/s) = 5.80277 6.45183 6.13589
#
# Compressibility (1/GPa) = 0.02071909
#
# Stress axis : x y z
#
# Youngs Moduli (GPa) = 85.47212 66.74254 56.44197
#
# Poissons Ratio (x) = 0.30081 -0.02898
# Poissons Ratio (y) = 0.38522 0.44290
# Poissons Ratio (z) = -0.04389 0.52373
#
# Static dielectric constant tensor:
#      x y z
#    x 1.624540 0.000000 0.000000 
#    y 0.000000 1.688000 0.000000 
#    z 0.000000 0.000000 1.672260 
# 
# From -- ./inp_files/13880.got.cif
#   From: 2010.05.17/outbox.cif.g08.bks.cpg/sg64_7_cif.got.tgz:13880.got - 2010.06.03 16:29:19.
