data_PCOD9479010
_publ_section_title
;
Structure prediction by ZEFSAII (Michael W. Deem and Ramdas Pophale) SiO2 
 PCOD9479010
Probable space group: C M C A
;
_chemical_formula_sum "Si O2"
_cell_formula_units_Z 64
_cell_length_a 7.865861
_cell_length_b 22.732936
_cell_length_c 19.245253
_cell_angle_alpha 90.000000
_cell_angle_beta 90.000000
_cell_angle_gamma 90.000000
_cell_volume 3441.322877
_symmetry_space_group_name_H-M "C M C A"
_symmetry_group_IT_number 64
_symmetry_cell_setting 'orthorhombic'
loop_
_space_group_symop_operation_xyz
x,y,z
-x,1/2-y,1/2+z
x,-y,-z
-x,1/2+y,1/2-z
-x,-y,-z
x,1/2+y,1/2-z
-x,y,z
x,1/2-y,1/2+z
1/2+x,1/2+y,z
1/2-x,-y,1/2+z
1/2+x,1/2-y,-z
1/2-x,y,1/2-z
1/2-x,1/2-y,-z
1/2+x,y,1/2-z
1/2-x,1/2+y,z
1/2+x,-y,1/2+z
loop_
_atom_site_type_symbol
_atom_site_label
_atom_site_fract_x
_atom_site_fract_y
_atom_site_fract_z
Si Si1 0.701788 0.302158 0.830608
Si Si2 0.500000 0.611941 0.377920
Si Si3 0.250000 0.402301 0.250000
Si Si4 0.000000 0.108812 0.542500
Si Si5 0.690997 0.824431 0.383751
Si Si6 0.000000 0.479041 0.159784
O O1 0.500000 0.315105 0.836795
O O2 0.750000 0.292838 0.750000
O O3 0.830604 0.352077 0.857338
O O4 0.746537 0.241749 0.870096
O O5 0.500000 0.603894 0.460511
O O6 0.500000 0.548731 0.340787
O O7 0.318482 0.357774 0.190924
O O8 0.150398 0.447768 0.201434
O O9 0.832744 0.143248 0.569992
O O10 0.000000 0.046411 0.581911
O O11 0.500000 0.824755 0.413673
#
# Coordination Sequence:
#
# PCOD9479010 Si02
#       6
#    16   8   8   8  16   8
#     4  12  24  40  65  98 131 166 206 268 325 380
#     4  12  27  44  62  88 139 179 206 247 323 393
#     4  10  20  36  68 100 116 154 216 276 312 356
#     4  10  25  43  64  93 125 178 215 259 307 379
#     4  11  20  39  67  97 130 155 211 270 321 366
#     4  10  23  41  66  91 129 162 218 268 309 369
#
# _framework density 18.5975
#
# number of rings (size 3 to 8) (size 9 to 14) (size 15 to 20)
#    0.000    1.000    6.250    0.375    1.750    2.000 
#    0.000    0.000    0.000    4.500    0.000    0.000 
#    0.000    0.000    0.000    0.000    0.000    0.000 
#
# Total GULP energy -178394.065527 kJ/mol
# GULP energy per Si atom -5574.814548 kJ/mol
# Density = 1.855517 g / cm^3
# Si number density = 18.597500 Si / 1000 Ang^3
#
#
#
# Elastic Constant Matrix: (Units=GPa)
#
#
# Indices 1 2 3 4 5 6 
#
# 1 157.9426 50.7394 5.0914 0.0000 0.0000 0.0000
# 2 50.7394 142.7599 -4.3065 0.0000 0.0000 0.0000
# 3 5.0914 -4.3065 15.0022 0.0000 0.0000 0.0000
# 4 0.0000 0.0000 0.0000 17.0165 0.0000 0.0000
# 5 0.0000 0.0000 0.0000 0.0000 12.5791 0.0000
# 6 0.0000 0.0000 0.0000 0.0000 0.0000 7.4578
#
#
#
# Elastic Compliance Matrix: (Units=1/GPa)
#
#
# Indices 1 2 3 4 5 6 
#
# 1 0.007301 -0.002693 -0.003251 0.000000 0.000000 0.000000
# 2 -0.002693 0.008059 0.003227 0.000000 0.000000 0.000000
# 3 -0.003251 0.003227 0.068687 0.000000 0.000000 0.000000
# 4 0.000000 0.000000 0.000000 0.058766 0.000000 0.000000
# 5 0.000000 0.000000 0.000000 0.000000 0.079497 0.000000
# 6 0.000000 0.000000 0.000000 0.000000 0.000000 0.134087
#
#
# Mechanical properties :
#
#
# Convention : Reuss Voigt Hill
#
# Bulk Modulus (GPa) = 12.72035 46.52813 29.62424
# Shear Modulus (GPa) = 12.88541 25.02272 18.95406
#
# Velocity S-wave (km/s) = 2.63507 3.67207 3.19591
# Velocity P-wave (km/s) = 4.01408 6.56137 5.43895
#
# Compressibility (1/GPa) = 0.07861418
#
# Stress axis : x y z
#
# Youngs Moduli (GPa) = 136.96039 124.08015 14.55884
#
# Poissons Ratio (x) = 0.33416 0.04733
# Poissons Ratio (y) = 0.36885 -0.04699
# Poissons Ratio (z) = 0.44526 -0.40046
#
# Static dielectric constant tensor:
#      x y z
#    x 1.669140 0.000000 0.000000 
#    y 0.000000 1.608310 0.000000 
#    z 0.000000 0.000000 1.619260 
# 
# From -- ./inp_files/29303.got.cif
#   From: 2010.05.17/outbox.cif.g08.bks.cpg/sg64_15_cif.got.tgz:29303.got - 2010.06.03 16:29:19.
