data_PCOD9479059
_publ_section_title
;
Structure prediction by ZEFSAII (Michael W. Deem and Ramdas Pophale) SiO2 
 PCOD9479059
Probable space group: C M C A
;
_chemical_formula_sum "Si O2"
_cell_formula_units_Z 64
_cell_length_a 19.950812
_cell_length_b 12.459191
_cell_length_c 12.759761
_cell_angle_alpha 90.000000
_cell_angle_beta 90.000000
_cell_angle_gamma 90.000000
_cell_volume 3171.706262
_symmetry_space_group_name_H-M "C M C A"
_symmetry_group_IT_number 64
_symmetry_cell_setting 'orthorhombic'
loop_
_space_group_symop_operation_xyz
x,y,z
-x,1/2-y,1/2+z
x,-y,-z
-x,1/2+y,1/2-z
-x,-y,-z
x,1/2+y,1/2-z
-x,y,z
x,1/2-y,1/2+z
1/2+x,1/2+y,z
1/2-x,-y,1/2+z
1/2+x,1/2-y,-z
1/2-x,y,1/2-z
1/2-x,1/2-y,-z
1/2+x,y,1/2-z
1/2-x,1/2+y,z
1/2+x,-y,1/2+z
loop_
_atom_site_type_symbol
_atom_site_label
_atom_site_fract_x
_atom_site_fract_y
_atom_site_fract_z
Si Si1 0.735828 0.407335 0.914581
Si Si2 0.324536 0.584903 0.770255
Si Si3 0.573970 0.598519 0.579721
Si Si4 0.149031 0.252868 0.442004
O O1 0.695054 0.471132 0.824697
O O2 0.804230 0.342281 0.894535
O O3 0.751030 0.500000 0.000000
O O4 0.689939 0.319182 0.970489
O O5 0.250000 0.633286 0.750000
O O6 0.367726 0.582398 0.665247
O O7 0.363169 0.661140 0.851330
O O8 0.574614 0.500000 0.500000
O O9 0.500000 0.606070 0.628800
O O10 0.589031 0.699870 0.505431
#
# Coordination Sequence:
#
# PCOD9479059 Si02
#       4
#    16  16  16  16
#     4   9  18  34  59  90 121 149 187 243 294 339
#     4  11  22  36  61  92 118 150 197 246 291 343
#     4  11  25  42  58  82 120 159 194 239 296 356
#     4  10  20  37  59  85 116 154 196 239 290 344
#
# _framework density 20.178412999999999
#
# number of rings (size 3 to 8) (size 9 to 14) (size 15 to 20)
#    0.000    1.750    0.000    6.750    0.000    8.000 
#    0.000    3.750    0.000    4.500    0.000    0.000 
#    0.000    0.000    0.000    0.000    0.000    0.000 
#
# Total GULP energy -178570.689882 kJ/mol
# GULP energy per Si atom -5580.334059 kJ/mol
# Density = 2.013249 g / cm^3
# Si number density = 20.178413 Si / 1000 Ang^3
#
#
#
# Elastic Constant Matrix: (Units=GPa)
#
#
# Indices 1 2 3 4 5 6 
#
# 1 102.4120 27.7913 54.8961 0.0000 0.0000 0.0000
# 2 27.7913 95.5433 33.4136 0.0000 0.0000 0.0000
# 3 54.8961 33.4136 107.4169 0.0000 0.0000 0.0000
# 4 0.0000 0.0000 0.0000 37.4637 0.0000 0.0000
# 5 0.0000 0.0000 0.0000 0.0000 28.0419 0.0000
# 6 0.0000 0.0000 0.0000 0.0000 0.0000 -8.1638
#
#
#
# Elastic Compliance Matrix: (Units=1/GPa)
#
#
# Indices 1 2 3 4 5 6 
#
# 1 0.013697 -0.001724 -0.006464 0.000000 0.000000 0.000000
# 2 -0.001724 0.011961 -0.002840 0.000000 0.000000 0.000000
# 3 -0.006464 -0.002840 0.013496 0.000000 0.000000 0.000000
# 4 0.000000 0.000000 0.000000 0.026693 0.000000 0.000000
# 5 0.000000 0.000000 0.000000 0.000000 0.035661 0.000000
# 6 0.000000 0.000000 0.000000 0.000000 0.000000 -0.122491
#
#
# Mechanical properties :
#
#
# Convention : Reuss Voigt Hill
#
# Bulk Modulus (GPa) = 58.48003 59.73048 59.10526
# Shear Modulus (GPa) = 738.50096 24.08643 381.29369
#
# Velocity S-wave (km/s) = 19.15151 3.45871 13.76123
# Velocity P-wave (km/s) = 22.76147 6.75393 16.78839
#
# Compressibility (1/GPa) = 0.01709985
#
# Stress axis : x y z
#
# Youngs Moduli (GPa) = 73.00867 83.60541 74.09479
#
# Poissons Ratio (x) = 0.14410 0.47893
# Poissons Ratio (y) = 0.12584 0.21041
# Poissons Ratio (z) = 0.47191 0.23742
#
# Static dielectric constant tensor:
#      x y z
#    x 1.716390 0.000000 0.000000 
#    y 0.000000 1.742620 0.000000 
#    z 0.000000 0.000000 1.765260 
# 
# From -- ./inp_files/16787.got.cif
#   From: 2010.05.17/outbox.cif.g08.bks.cpg/sg64_9_cif.got.tgz:16787.got - 2010.06.03 16:29:19.
