data_PCOD9479483
_publ_section_title
;
Structure prediction by ZEFSAII (Michael W. Deem and Ramdas Pophale) SiO2 
 PCOD9479483
Probable space group: C M C A
;
_chemical_formula_sum "Si O2"
_cell_formula_units_Z 96
_cell_length_a 14.881341
_cell_length_b 19.302986
_cell_length_c 15.407654
_cell_angle_alpha 90.000000
_cell_angle_beta 90.000000
_cell_angle_gamma 90.000000
_cell_volume 4425.915126
_symmetry_space_group_name_H-M "C M C A"
_symmetry_group_IT_number 64
_symmetry_cell_setting 'orthorhombic'
loop_
_space_group_symop_operation_xyz
x,y,z
-x,1/2-y,1/2+z
x,-y,-z
-x,1/2+y,1/2-z
-x,-y,-z
x,1/2+y,1/2-z
-x,y,z
x,1/2-y,1/2+z
1/2+x,1/2+y,z
1/2-x,-y,1/2+z
1/2+x,1/2-y,-z
1/2-x,y,1/2-z
1/2-x,1/2-y,-z
1/2+x,y,1/2-z
1/2-x,1/2+y,z
1/2+x,-y,1/2+z
loop_
_atom_site_type_symbol
_atom_site_label
_atom_site_fract_x
_atom_site_fract_y
_atom_site_fract_z
Si Si1 0.854862 0.713641 0.720150
Si Si2 0.601402 0.890344 0.138668
Si Si3 0.781136 0.918446 0.519926
Si Si4 0.102944 0.491188 0.283299
Si Si5 0.653814 0.130700 0.205599
Si Si6 0.393602 0.894868 0.433307
O O1 0.750000 0.711221 0.750000
O O2 0.902563 0.676582 0.800580
O O3 0.885084 0.792305 0.704903
O O4 0.874578 0.667847 0.634259
O O5 0.500000 0.910359 0.110949
O O6 0.644165 0.948953 0.202585
O O7 0.664749 0.880798 0.057088
O O8 0.827628 0.898287 0.609730
O O9 0.677187 0.894500 0.511657
O O10 0.790376 0.000000 0.500000
O O11 0.106638 0.571417 0.262137
O O12 0.133902 0.463084 0.376004
O O13 0.000000 0.467064 0.282020
O O14 0.750000 0.137688 0.250000
O O15 0.500000 0.897126 0.456213
#
# Coordination Sequence:
#
# PCOD9479483 Si02
#       6
#    16  16  16  16  16  16
#     4  10  20  40  65  89 126 172 213 260 322 394
#     4  10  21  39  64  96 126 164 214 264 322 388
#     4  12  23  39  69  99 129 170 214 276 329 373
#     4   9  19  36  61  91 127 164 209 265 322 386
#     4  11  24  39  61  95 129 168 218 267 322 390
#     4  10  22  41  67  95 127 172 219 259 318 395
#
# _framework density 21.690429000000002
#
# number of rings (size 3 to 8) (size 9 to 14) (size 15 to 20)
#    0.000    1.667    3.333    2.500    0.000    3.333 
#    0.000    0.833    0.000    1.000    0.000    0.000 
#    0.000    0.000    0.000    0.000    0.000    0.000 
#
# Total GULP energy -267992.903028 kJ/mol
# GULP energy per Si atom -5583.185480 kJ/mol
# Density = 2.164106 g / cm^3
# Si number density = 21.690429 Si / 1000 Ang^3
#
#
#
# Elastic Constant Matrix: (Units=GPa)
#
#
# Indices 1 2 3 4 5 6 
#
# 1 77.6849 0.4196 -8.2175 0.0000 0.0000 0.0000
# 2 0.4196 140.7047 20.9587 0.0000 0.0000 0.0000
# 3 -8.2175 20.9587 30.4128 0.0000 0.0000 0.0000
# 4 0.0000 0.0000 0.0000 12.0127 0.0000 0.0000
# 5 0.0000 0.0000 0.0000 0.0000 6.6182 0.0000
# 6 0.0000 0.0000 0.0000 0.0000 0.0000 23.2443
#
#
#
# Elastic Compliance Matrix: (Units=1/GPa)
#
#
# Indices 1 2 3 4 5 6 
#
# 1 0.013303 -0.000641 0.004036 0.000000 0.000000 0.000000
# 2 -0.000641 0.007951 -0.005652 0.000000 0.000000 0.000000
# 3 0.004036 -0.005652 0.037867 0.000000 0.000000 0.000000
# 4 0.000000 0.000000 0.000000 0.083245 0.000000 0.000000
# 5 0.000000 0.000000 0.000000 0.000000 0.151098 0.000000
# 6 0.000000 0.000000 0.000000 0.000000 0.000000 0.043021
#
#
# Mechanical properties :
#
#
# Convention : Reuss Voigt Hill
#
# Bulk Modulus (GPa) = 18.31300 30.56933 24.44117
# Shear Modulus (GPa) = 13.91976 24.08449 19.00212
#
# Velocity S-wave (km/s) = 2.53602 3.33584 2.96304
# Velocity P-wave (km/s) = 4.12752 5.38156 4.79571
#
# Compressibility (1/GPa) = 0.05460602
#
# Stress axis : x y z
#
# Youngs Moduli (GPa) = 75.17151 125.77100 26.40842
#
# Poissons Ratio (x) = 0.08060 -0.10659
# Poissons Ratio (y) = 0.04817 0.14927
# Poissons Ratio (z) = -0.30340 0.71092
#
# Static dielectric constant tensor:
#      x y z
#    x 1.858140 0.000000 0.000000 
#    y 0.000000 1.820750 0.000000 
#    z 0.000000 0.000000 1.791260 
# 
# From -- ./inp_files/23951.got.cif
#   From: 2010.05.17/outbox.cif.g08.bks.cpg/sg64_12_cif.got.tgz:23951.got - 2010.06.03 16:29:19.
