data_PCOD9479471
_publ_section_title
;
Structure prediction by ZEFSAII (Michael W. Deem and Ramdas Pophale) SiO2 
 PCOD9479471
Probable space group: C M C A
;
_chemical_formula_sum "Si O2"
_cell_formula_units_Z 96
_cell_length_a 14.640225
_cell_length_b 17.278409
_cell_length_c 19.208238
_cell_angle_alpha 90.000000
_cell_angle_beta 90.000000
_cell_angle_gamma 90.000000
_cell_volume 4858.911955
_symmetry_space_group_name_H-M "C M C A"
_symmetry_group_IT_number 64
_symmetry_cell_setting 'orthorhombic'
loop_
_space_group_symop_operation_xyz
x,y,z
-x,1/2-y,1/2+z
x,-y,-z
-x,1/2+y,1/2-z
-x,-y,-z
x,1/2+y,1/2-z
-x,y,z
x,1/2-y,1/2+z
1/2+x,1/2+y,z
1/2-x,-y,1/2+z
1/2+x,1/2-y,-z
1/2-x,y,1/2-z
1/2-x,1/2-y,-z
1/2+x,y,1/2-z
1/2-x,1/2+y,z
1/2+x,-y,1/2+z
loop_
_atom_site_type_symbol
_atom_site_label
_atom_site_fract_x
_atom_site_fract_y
_atom_site_fract_z
Si Si1 0.396449 0.190306 0.861927
Si Si2 0.109858 0.727409 0.232059
Si Si3 0.144622 0.733978 0.016089
Si Si4 0.390153 0.400698 0.627930
Si Si5 0.731331 0.543731 0.667059
Si Si6 0.895098 0.137285 0.873041
O O1 0.500000 0.168868 0.841480
O O2 0.364785 0.259686 0.811485
O O3 0.331166 0.119030 0.846363
O O4 0.396952 0.216889 0.941078
O O5 0.139045 0.649508 0.195324
O O6 0.136830 0.803143 0.187859
O O7 0.000000 0.724923 0.226063
O O8 0.126885 0.658705 0.064219
O O9 0.109706 0.808965 0.058259
O O10 0.250000 0.750000 0.000000
O O11 0.500000 0.418718 0.629608
O O12 0.325463 0.474829 0.631152
O O13 0.750000 0.531968 0.750000
O O14 0.827187 0.565194 0.630265
O O15 0.000000 0.115159 0.860639
#
# Coordination Sequence:
#
# PCOD9479471 Si02
#       6
#    16  16  16  16  16  16
#     4  11  21  37  64  97 128 164 212 270 327 382
#     4   8  17  36  65  90 117 158 207 260 315 372
#     4  11  22  40  67  97 126 163 219 267 315 386
#     4  10  23  43  65  95 132 169 210 268 331 381
#     4  12  24  38  62  98 128 168 213 265 324 392
#     4  10  20  40  64  88 124 170 212 257 317 382
#
# _framework density 19.757508999999999
#
# number of rings (size 3 to 8) (size 9 to 14) (size 15 to 20)
#    0.000    1.667    3.333    3.000    0.000    2.667 
#    0.000    1.667    0.000    4.000    0.000    0.000 
#    0.000    0.000    0.000    0.000    0.000    0.000 
#
# Total GULP energy -267848.515900 kJ/mol
# GULP energy per Si atom -5580.177415 kJ/mol
# Density = 1.971254 g / cm^3
# Si number density = 19.757509 Si / 1000 Ang^3
#
#
#
# Elastic Constant Matrix: (Units=GPa)
#
#
# Indices 1 2 3 4 5 6 
#
# 1 138.3526 53.5056 14.9829 0.0000 0.0000 0.0000
# 2 53.5056 91.1029 40.5403 0.0000 0.0000 0.0000
# 3 14.9829 40.5403 114.7235 0.0000 0.0000 0.0000
# 4 0.0000 0.0000 0.0000 16.1827 0.0000 0.0000
# 5 0.0000 0.0000 0.0000 0.0000 16.9880 0.0000
# 6 0.0000 0.0000 0.0000 0.0000 0.0000 26.4799
#
#
#
# Elastic Compliance Matrix: (Units=1/GPa)
#
#
# Indices 1 2 3 4 5 6 
#
# 1 0.009423 -0.005917 0.000860 0.000000 0.000000 0.000000
# 2 -0.005917 0.016740 -0.005143 0.000000 0.000000 0.000000
# 3 0.000860 -0.005143 0.010422 0.000000 0.000000 0.000000
# 4 0.000000 0.000000 0.000000 0.061794 0.000000 0.000000
# 5 0.000000 0.000000 0.000000 0.000000 0.058865 0.000000
# 6 0.000000 0.000000 0.000000 0.000000 0.000000 0.037764
#
#
# Mechanical properties :
#
#
# Convention : Reuss Voigt Hill
#
# Bulk Modulus (GPa) = 61.78280 62.47075 62.12678
# Shear Modulus (GPa) = 22.64459 27.60680 25.12570
#
# Velocity S-wave (km/s) = 3.38912 3.74208 3.56996
# Velocity P-wave (km/s) = 6.83032 7.09635 6.96461
#
# Compressibility (1/GPa) = 0.01618573
#
# Stress axis : x y z
#
# Youngs Moduli (GPa) = 106.12234 59.73614 95.95466
#
# Poissons Ratio (x) = 0.35346 -0.08255
# Poissons Ratio (y) = 0.62794 0.49348
# Poissons Ratio (z) = -0.09130 0.30721
#
# Static dielectric constant tensor:
#      x y z
#    x 1.873760 0.000000 0.000000 
#    y 0.000000 1.676850 0.000000 
#    z 0.000000 0.000000 1.717980 
# 
# From -- ./inp_files/39182.got.cif
#   From: 2010.05.17/outbox.cif.g08.bks.cpg/sg64_20_cif.got.tgz:39182.got - 2010.06.03 16:29:19.
