data_PCOD9479479
_publ_section_title
;
Structure prediction by ZEFSAII (Michael W. Deem and Ramdas Pophale) SiO2 
 PCOD9479479
Probable space group: C M C A
;
_chemical_formula_sum "Si O2"
_cell_formula_units_Z 112
_cell_length_a 30.521778
_cell_length_b 15.578753
_cell_length_c 9.554890
_cell_angle_alpha 90.000000
_cell_angle_beta 90.000000
_cell_angle_gamma 90.000000
_cell_volume 4543.266500
_symmetry_space_group_name_H-M "C M C A"
_symmetry_group_IT_number 64
_symmetry_cell_setting 'orthorhombic'
loop_
_space_group_symop_operation_xyz
x,y,z
-x,1/2-y,1/2+z
x,-y,-z
-x,1/2+y,1/2-z
-x,-y,-z
x,1/2+y,1/2-z
-x,y,z
x,1/2-y,1/2+z
1/2+x,1/2+y,z
1/2-x,-y,1/2+z
1/2+x,1/2-y,-z
1/2-x,y,1/2-z
1/2-x,1/2-y,-z
1/2+x,y,1/2-z
1/2-x,1/2+y,z
1/2+x,-y,1/2+z
loop_
_atom_site_type_symbol
_atom_site_label
_atom_site_fract_x
_atom_site_fract_y
_atom_site_fract_z
Si Si1 0.450089 0.904895 0.984118
Si Si2 0.795832 0.703920 0.465440
Si Si3 0.383471 0.278641 0.534705
Si Si4 0.159863 0.597789 0.260804
Si Si5 0.951156 0.865670 0.119292
Si Si6 0.566605 0.061103 0.326234
Si Si7 0.708195 0.550458 0.847981
O O1 0.500000 0.903964 0.032120
O O2 0.420432 0.831436 0.048979
O O3 0.448714 0.893791 0.815917
O O4 0.430973 0.000000 0.000000
O O5 0.750000 0.750000 0.500000
O O6 0.841630 0.752641 0.443690
O O7 0.797885 0.644892 0.327168
O O8 0.805417 0.643735 0.599314
O O9 0.359631 0.346963 0.636865
O O10 0.411707 0.204172 0.612767
O O11 0.117470 0.582800 0.357562
O O12 0.175268 0.500253 0.247055
O O13 0.000000 0.833595 0.162270
O O14 0.940642 0.958508 0.190634
O O15 0.955627 0.898204 0.959371
O O16 0.750000 0.559008 0.750000
O O17 0.713864 0.500000 0.000000
#
# Coordination Sequence:
#
# PCOD9479479 Si02
#       7
#    16  16  16  16  16  16  16
#     4  10  22  43  63  89 135 180 220 275 343 412
#     4  11  25  43  65  96 136 176 228 293 359 416
#     4  11  24  40  65  97 134 170 227 282 346 413
#     4  10  23  42  65  92 137 175 225 289 344 433
#     4  11  21  37  68 101 132 173 230 285 341 411
#     4  10  20  40  64  96 132 177 227 277 346 415
#     4  10  24  45  70  99 132 187 235 296 365 435
#
# _framework density 24.651868
#
# number of rings (size 3 to 8) (size 9 to 14) (size 15 to 20)
#    0.000    1.571    1.429    3.000   10.000    1.143 
#    5.143    0.000    0.000    0.000    0.000    0.000 
#    0.000    0.000    0.000    0.000    0.000    0.000 
#
# Total GULP energy -312191.094532 kJ/mol
# GULP energy per Si atom -5574.840974 kJ/mol
# Density = 2.459576 g / cm^3
# Si number density = 24.651868 Si / 1000 Ang^3
#
#
#
# Elastic Constant Matrix: (Units=GPa)
#
#
# Indices 1 2 3 4 5 6 
#
# 1 130.1095 33.8262 -13.5663 0.0000 0.0000 0.0000
# 2 33.8262 85.4320 -0.6372 0.0000 0.0000 0.0000
# 3 -13.5663 -0.6372 39.2901 0.0000 0.0000 0.0000
# 4 0.0000 0.0000 0.0000 23.9197 0.0000 0.0000
# 5 0.0000 0.0000 0.0000 0.0000 23.6282 0.0000
# 6 0.0000 0.0000 0.0000 0.0000 0.0000 30.8964
#
#
#
# Elastic Compliance Matrix: (Units=1/GPa)
#
#
# Indices 1 2 3 4 5 6 
#
# 1 0.008912 -0.003506 0.003020 0.000000 0.000000 0.000000
# 2 -0.003506 0.013086 -0.000998 0.000000 0.000000 0.000000
# 3 0.003020 -0.000998 0.026478 0.000000 0.000000 0.000000
# 4 0.000000 0.000000 0.000000 0.041807 0.000000 0.000000
# 5 0.000000 0.000000 0.000000 0.000000 0.042322 0.000000
# 6 0.000000 0.000000 0.000000 0.000000 0.000000 0.032366
#
#
# Mechanical properties :
#
#
# Convention : Reuss Voigt Hill
#
# Bulk Modulus (GPa) = 21.97401 32.67524 27.32462
# Shear Modulus (GPa) = 27.30601 31.36944 29.33772
#
# Velocity S-wave (km/s) = 3.33177 3.57108 3.45350
# Velocity P-wave (km/s) = 4.87176 5.50335 5.19716
#
# Compressibility (1/GPa) = 0.04550831
#
# Stress axis : x y z
#
# Youngs Moduli (GPa) = 112.20406 76.41727 37.76658
#
# Poissons Ratio (x) = 0.26794 -0.11407
# Poissons Ratio (y) = 0.39342 0.03771
# Poissons Ratio (z) = -0.33891 0.07630
#
# Static dielectric constant tensor:
#      x y z
#    x 2.113550 0.000000 0.000000 
#    y 0.000000 2.134650 0.000000 
#    z 0.000000 0.000000 2.022990 
# 
# From -- ./inp_files/19857.got.cif
#   From: 2010.05.17/outbox.cif.g08.bks.cpg/sg64_10_cif.got.tgz:19857.got - 2010.06.03 16:29:19.
