data_PCOD9479196
_publ_section_title
;
Structure prediction by ZEFSAII (Michael W. Deem and Ramdas Pophale) SiO2 
 PCOD9479196
Probable space group: C M C A
;
_chemical_formula_sum "Si O2"
_cell_formula_units_Z 88
_cell_length_a 16.573745
_cell_length_b 13.147354
_cell_length_c 21.239143
_cell_angle_alpha 90.000000
_cell_angle_beta 90.000000
_cell_angle_gamma 90.000000
_cell_volume 4628.028218
_symmetry_space_group_name_H-M "C M C A"
_symmetry_group_IT_number 64
_symmetry_cell_setting 'orthorhombic'
loop_
_space_group_symop_operation_xyz
x,y,z
-x,1/2-y,1/2+z
x,-y,-z
-x,1/2+y,1/2-z
-x,-y,-z
x,1/2+y,1/2-z
-x,y,z
x,1/2-y,1/2+z
1/2+x,1/2+y,z
1/2-x,-y,1/2+z
1/2+x,1/2-y,-z
1/2-x,y,1/2-z
1/2-x,1/2-y,-z
1/2+x,y,1/2-z
1/2-x,1/2+y,z
1/2+x,-y,1/2+z
loop_
_atom_site_type_symbol
_atom_site_label
_atom_site_fract_x
_atom_site_fract_y
_atom_site_fract_z
Si Si1 0.000000 0.737996 0.127995
Si Si2 0.500000 0.537287 0.926528
Si Si3 0.674963 0.537880 0.072794
Si Si4 0.856648 0.842008 0.713073
Si Si5 0.814609 0.721893 0.343506
Si Si6 0.662619 0.959871 0.141054
Si Si7 0.500000 0.974497 0.928580
O O1 0.924620 0.714576 0.173041
O O2 0.000000 0.646429 0.078729
O O3 0.000000 0.843698 0.091163
O O4 0.586967 0.497719 0.902684
O O5 0.500000 0.500000 0.000000
O O6 0.677972 0.657790 0.091760
O O7 0.753533 0.491649 0.107287
O O8 0.680052 0.500000 0.000000
O O9 0.867914 0.824186 0.786917
O O10 0.774759 0.795312 0.684291
O O11 0.848923 0.962731 0.699513
O O12 0.832660 0.840463 0.347517
O O13 0.581982 0.982882 0.101557
O O14 0.500000 0.000000 0.000000
#
# Coordination Sequence:
#
# PCOD9479196 Si02
#       7
#     8   8  16  16  16  16   8
#     4  10  20  38  58  80 115 152 189 233 286 338
#     4  10  22  37  56  83 114 148 187 231 282 343
#     4  10  22  38  56  85 118 151 193 235 287 350
#     4   9  21  37  56  85 113 150 195 237 291 346
#     4  10  21  37  59  83 115 151 189 242 293 338
#     4  10  21  38  59  84 114 151 194 236 285 345
#     4  10  22  37  58  85 112 148 193 234 275 335
#
# _framework density 19.014578
#
# number of rings (size 3 to 8) (size 9 to 14) (size 15 to 20)
#    0.000    2.182    0.000    1.636    0.000   13.091 
#    0.000    1.818    0.000    0.000    0.000    0.000 
#    0.000    0.000    0.000    0.000    0.000    0.000 
#
# Total GULP energy -245001.777580 kJ/mol
# GULP energy per Si atom -5568.222218 kJ/mol
# Density = 1.897130 g / cm^3
# Si number density = 19.014578 Si / 1000 Ang^3
#
#
#
# Elastic Constant Matrix: (Units=GPa)
#
#
# Indices 1 2 3 4 5 6 
#
# 1 114.3374 42.9022 17.7495 0.0000 0.0000 0.0000
# 2 42.9022 184.1636 54.4430 0.0000 0.0000 0.0000
# 3 17.7495 54.4430 46.5572 0.0000 0.0000 0.0000
# 4 0.0000 0.0000 0.0000 8.9818 0.0000 0.0000
# 5 0.0000 0.0000 0.0000 0.0000 -38.3948 0.0000
# 6 0.0000 0.0000 0.0000 0.0000 0.0000 8.5419
#
#
#
# Elastic Compliance Matrix: (Units=1/GPa)
#
#
# Indices 1 2 3 4 5 6 
#
# 1 0.009662 -0.001776 -0.001607 0.000000 0.000000 0.000000
# 2 -0.001776 0.008625 -0.009409 0.000000 0.000000 0.000000
# 3 -0.001607 -0.009409 0.033094 0.000000 0.000000 0.000000
# 4 0.000000 0.000000 0.000000 0.111337 0.000000 0.000000
# 5 0.000000 0.000000 0.000000 0.000000 -0.026045 0.000000
# 6 0.000000 0.000000 0.000000 0.000000 0.000000 0.117070
#
#
# Mechanical properties :
#
#
# Convention : Reuss Voigt Hill
#
# Bulk Modulus (GPa) = 38.76304 63.91640 51.33972
# Shear Modulus (GPa) = 17.36561 11.15668 14.26114
#
# Velocity S-wave (km/s) = 3.02533 2.42491 2.74160
# Velocity P-wave (km/s) = 5.71259 6.44419 6.08939
#
# Compressibility (1/GPa) = 0.02579777
#
# Stress axis : x y z
#
# Youngs Moduli (GPa) = 103.50031 115.93964 30.21658
#
# Poissons Ratio (x) = 0.20588 0.04856
# Poissons Ratio (y) = 0.18379 0.28431
# Poissons Ratio (z) = 0.16632 1.09089
#
# Static dielectric constant tensor:
#      x y z
#    x 1.723420 0.000000 0.000000 
#    y 0.000000 1.646870 0.000000 
#    z 0.000000 0.000000 1.667970 
# 
# From -- ./inp_files/40096.got.cif
#   From: 2010.05.17/outbox.cif.g08.bks.cpg/sg64_21_cif.got.tgz:40096.got - 2010.06.03 16:29:19.
