data_PCOD9479152
_publ_section_title
;
Structure prediction by ZEFSAII (Michael W. Deem and Ramdas Pophale) SiO2 
 PCOD9479152
Probable space group: C M C A
;
_chemical_formula_sum "Si O2"
_cell_formula_units_Z 120
_cell_length_a 24.397920
_cell_length_b 19.657487
_cell_length_c 11.921971
_cell_angle_alpha 90.000000
_cell_angle_beta 90.000000
_cell_angle_gamma 90.000000
_cell_volume 5717.798694
_symmetry_space_group_name_H-M "C M C A"
_symmetry_group_IT_number 64
_symmetry_cell_setting 'orthorhombic'
loop_
_space_group_symop_operation_xyz
x,y,z
-x,1/2-y,1/2+z
x,-y,-z
-x,1/2+y,1/2-z
-x,-y,-z
x,1/2+y,1/2-z
-x,y,z
x,1/2-y,1/2+z
1/2+x,1/2+y,z
1/2-x,-y,1/2+z
1/2+x,1/2-y,-z
1/2-x,y,1/2-z
1/2-x,1/2-y,-z
1/2+x,y,1/2-z
1/2-x,1/2+y,z
1/2+x,-y,1/2+z
loop_
_atom_site_type_symbol
_atom_site_label
_atom_site_fract_x
_atom_site_fract_y
_atom_site_fract_z
Si Si1 0.819318 0.061102 0.078025
Si Si2 0.562180 0.614414 0.475396
Si Si3 0.143656 0.708122 0.683691
Si Si4 0.396524 0.650683 0.229650
Si Si5 0.347566 0.897049 0.140173
Si Si6 0.060364 0.275253 0.514860
Si Si7 0.755577 0.822528 0.056095
Si Si8 0.750000 0.516102 0.750000
O O1 0.862245 0.093540 0.164383
O O2 0.770069 0.027625 0.146497
O O3 0.791388 0.121812 0.009348
O O4 0.842120 0.000000 0.000000
O O5 0.500000 0.589401 0.489377
O O6 0.576343 0.620429 0.342495
O O7 0.607533 0.576654 0.551755
O O8 0.563784 0.693292 0.518703
O O9 0.139316 0.784805 0.728647
O O10 0.122856 0.651295 0.769509
O O11 0.108467 0.703457 0.569922
O O12 0.206788 0.690293 0.663848
O O13 0.433559 0.687120 0.134061
O O14 0.305122 0.850006 0.072100
O O15 0.304691 0.945092 0.206663
O O16 0.000000 0.291334 0.467483
O O17 0.750000 0.750000 0.000000
#
# Coordination Sequence:
#
# PCOD9479152 Si02
#       8
#    16  16  16  16  16  16  16   8
#     4  12  26  45  65 100 138 187 234 278 351 421
#     4  10  23  41  67 103 139 181 234 292 353 415
#     4  11  21  38  62 102 138 177 226 285 352 411
#     4  11  22  40  67 100 139 184 231 288 349 416
#     4  12  22  43  64  96 143 182 225 286 346 418
#     4  10  20  37  64 100 141 180 225 290 360 416
#     4  12  23  40  67 103 140 177 227 286 350 422
#     4  12  28  42  68 100 134 194 232 286 350 418
#
# _framework density 20.987099000000001
#
# number of rings (size 3 to 8) (size 9 to 14) (size 15 to 20)
#    0.000    0.800    5.333    2.800    3.733    1.067 
#    0.000    0.000    0.000    4.000    0.000    0.000 
#    0.000    0.000    0.000    0.000    0.000    0.000 
#
# Total GULP energy -334952.084088 kJ/mol
# GULP energy per Si atom -5582.534735 kJ/mol
# Density = 2.093933 g / cm^3
# Si number density = 20.987099 Si / 1000 Ang^3
#
#
#
# Elastic Constant Matrix: (Units=GPa)
#
#
# Indices 1 2 3 4 5 6 
#
# 1 119.8373 29.2737 51.3366 0.0000 0.0000 0.0000
# 2 29.2737 84.2838 37.8180 0.0000 0.0000 0.0000
# 3 51.3366 37.8180 101.3873 0.0000 0.0000 0.0000
# 4 0.0000 0.0000 0.0000 -12.3801 0.0000 0.0000
# 5 0.0000 0.0000 0.0000 0.0000 21.4998 0.0000
# 6 0.0000 0.0000 0.0000 0.0000 0.0000 -13.1806
#
#
#
# Elastic Compliance Matrix: (Units=1/GPa)
#
#
# Indices 1 2 3 4 5 6 
#
# 1 0.010825 -0.001562 -0.004898 0.000000 0.000000 0.000000
# 2 -0.001562 0.014475 -0.004608 0.000000 0.000000 0.000000
# 3 -0.004898 -0.004608 0.014062 0.000000 0.000000 0.000000
# 4 0.000000 0.000000 0.000000 -0.080775 0.000000 0.000000
# 5 0.000000 0.000000 0.000000 0.000000 0.046512 0.000000
# 6 0.000000 0.000000 0.000000 0.000000 0.000000 -0.075869
#
#
# Mechanical properties :
#
#
# Convention : Reuss Voigt Hill
#
# Bulk Modulus (GPa) = 58.05605 60.26277 59.15941
# Shear Modulus (GPa) = -116.57342 11.65983 -52.45680
#
# Velocity S-wave (km/s) = -7.46096 2.35961 -5.00490
# Velocity P-wave (km/s) = 6.81897 6.01666 2.26916
#
# Compressibility (1/GPa) = 0.01722473
#
# Stress axis : x y z
#
# Youngs Moduli (GPa) = 92.38266 69.08509 71.11156
#
# Poissons Ratio (x) = 0.10789 0.34833
# Poissons Ratio (y) = 0.14428 0.32771
# Poissons Ratio (z) = 0.45253 0.31838
#
# Static dielectric constant tensor:
#      x y z
#    x 1.761520 0.000000 0.000000 
#    y 0.000000 1.623700 0.000000 
#    z 0.000000 0.000000 1.795090 
# 
# From -- ./inp_files/18576.got.cif
#   From: 2010.05.17/outbox.cif.g08.bks.cpg/sg64_10_cif.got.tgz:18576.got - 2010.06.03 16:29:19.
