data_PCOD9479823
_publ_section_title
;
Structure prediction by ZEFSAII (Michael W. Deem and Ramdas Pophale) SiO2 
 PCOD9479823
Probable space group: C M C A
;
_chemical_formula_sum "Si O2"
_cell_formula_units_Z 112
_cell_length_a 14.069305
_cell_length_b 30.079206
_cell_length_c 11.385775
_cell_angle_alpha 90.000000
_cell_angle_beta 90.000000
_cell_angle_gamma 90.000000
_cell_volume 4818.386239
_symmetry_space_group_name_H-M "C M C A"
_symmetry_group_IT_number 64
_symmetry_cell_setting 'orthorhombic'
loop_
_space_group_symop_operation_xyz
x,y,z
-x,1/2-y,1/2+z
x,-y,-z
-x,1/2+y,1/2-z
-x,-y,-z
x,1/2+y,1/2-z
-x,y,z
x,1/2-y,1/2+z
1/2+x,1/2+y,z
1/2-x,-y,1/2+z
1/2+x,1/2-y,-z
1/2-x,y,1/2-z
1/2-x,1/2-y,-z
1/2+x,y,1/2-z
1/2-x,1/2+y,z
1/2+x,-y,1/2+z
loop_
_atom_site_type_symbol
_atom_site_label
_atom_site_fract_x
_atom_site_fract_y
_atom_site_fract_z
Si Si1 0.696361 0.748953 0.625807
Si Si2 0.615331 0.018531 0.703175
Si Si3 0.616391 0.108269 0.589721
Si Si4 0.384005 0.070892 0.206390
Si Si5 0.113278 0.155592 0.673726
Si Si6 0.385728 0.152904 0.348850
Si Si7 0.615885 0.566454 0.555443
O O1 0.750000 0.743380 0.750000
O O2 0.750000 0.750000 0.500000
O O3 0.634770 0.704145 0.626364
O O4 0.647234 0.796626 0.643204
O O5 0.500000 0.018385 0.693472
O O6 0.647820 0.057759 0.616666
O O7 0.640963 0.036118 0.833581
O O8 0.645200 0.967190 0.700488
O O9 0.500000 0.107475 0.589733
O O10 0.646504 0.141453 0.695261
O O11 0.646041 0.127564 0.466113
O O12 0.500000 0.070431 0.206104
O O13 0.356247 0.120787 0.241825
O O14 0.352711 0.057274 0.076214
O O15 0.146365 0.116279 0.588716
O O16 0.000000 0.151468 0.679727
O O17 0.500000 0.153929 0.347456
O O18 0.500000 0.564427 0.552902
#
# Coordination Sequence:
#
# PCOD9479823 Si02
#       7
#    16  16  16  16  16  16  16
#     4  12  27  43  60  84 114 148 193 241 297 347
#     4   8  13  23  43  76 116 148 174 221 279 330
#     4   8  15  30  52  80 112 145 185 227 276 334
#     4   9  16  25  44  78 116 147 178 222 282 332
#     4   9  18  36  61  83 107 146 190 234 280 340
#     4  10  21  37  56  81 114 151 189 235 284 339
#     4   8  14  25  46  77 112 144 180 223 272 327
#
# _framework density 23.244297
#
# number of rings (size 3 to 8) (size 9 to 14) (size 15 to 20)
#    0.000    2.857    0.000    3.429    2.000    2.286 
#    0.000    4.286    0.000    0.000    0.000   12.000 
#    0.000    0.000    0.000    0.000    0.000    0.000 
#
# Total GULP energy -312736.079311 kJ/mol
# GULP energy per Si atom -5584.572845 kJ/mol
# Density = 2.319139 g / cm^3
# Si number density = 23.244297 Si / 1000 Ang^3
#
#
#
# Elastic Constant Matrix: (Units=GPa)
#
#
# Indices 1 2 3 4 5 6 
#
# 1 53.8363 -16.3262 -7.9693 0.0000 0.0000 0.0000
# 2 -16.3262 137.1825 -1.7140 0.0000 0.0000 0.0000
# 3 -7.9693 -1.7140 55.6314 0.0000 0.0000 0.0000
# 4 0.0000 0.0000 0.0000 19.9726 0.0000 0.0000
# 5 0.0000 0.0000 0.0000 0.0000 15.4876 0.0000
# 6 0.0000 0.0000 0.0000 0.0000 0.0000 -16.4184
#
#
#
# Elastic Compliance Matrix: (Units=1/GPa)
#
#
# Indices 1 2 3 4 5 6 
#
# 1 0.019727 0.002384 0.002899 0.000000 0.000000 0.000000
# 2 0.002384 0.007580 0.000575 0.000000 0.000000 0.000000
# 3 0.002899 0.000575 0.018409 0.000000 0.000000 0.000000
# 4 0.000000 0.000000 0.000000 0.050069 0.000000 0.000000
# 5 0.000000 0.000000 0.000000 0.000000 0.064568 0.000000
# 6 0.000000 0.000000 0.000000 0.000000 0.000000 -0.060907
#
#
# Mechanical properties :
#
#
# Convention : Reuss Voigt Hill
#
# Bulk Modulus (GPa) = 17.41169 21.62570 19.51869
# Shear Modulus (GPa) = 46.78484 21.98569 34.38526
#
# Velocity S-wave (km/s) = 4.49123 3.07881 3.85034
# Velocity P-wave (km/s) = 5.86531 4.68643 5.30869
#
# Compressibility (1/GPa) = 0.05743268
#
# Stress axis : x y z
#
# Youngs Moduli (GPa) = 50.69204 131.91815 54.32269
#
# Poissons Ratio (x) = -0.31449 -0.15750
# Poissons Ratio (y) = -0.12085 -0.03124
# Poissons Ratio (z) = -0.14697 -0.07586
#
# Static dielectric constant tensor:
#      x y z
#    x 1.949460 0.000000 0.000000 
#    y 0.000000 1.874720 0.000000 
#    z 0.000000 0.000000 1.722670 
# 
# From -- ./inp_files/15012.got.cif
#   From: 2010.05.17/outbox.cif.g08.bks.cpg/sg64_8_cif.got.tgz:15012.got - 2010.06.03 16:29:19.
