data_PCOD9479099
_publ_section_title
;
Structure prediction by ZEFSAII (Michael W. Deem and Ramdas Pophale) SiO2 
 PCOD9479099
Probable space group: C M C A
;
_chemical_formula_sum "Si O2"
_cell_formula_units_Z 80
_cell_length_a 14.714109
_cell_length_b 13.054716
_cell_length_c 21.904145
_cell_angle_alpha 90.000000
_cell_angle_beta 90.000000
_cell_angle_gamma 90.000000
_cell_volume 4207.534668
_symmetry_space_group_name_H-M "C M C A"
_symmetry_group_IT_number 64
_symmetry_cell_setting 'orthorhombic'
loop_
_space_group_symop_operation_xyz
x,y,z
-x,1/2-y,1/2+z
x,-y,-z
-x,1/2+y,1/2-z
-x,-y,-z
x,1/2+y,1/2-z
-x,y,z
x,1/2-y,1/2+z
1/2+x,1/2+y,z
1/2-x,-y,1/2+z
1/2+x,1/2-y,-z
1/2-x,y,1/2-z
1/2-x,1/2-y,-z
1/2+x,y,1/2-z
1/2-x,1/2+y,z
1/2+x,-y,1/2+z
loop_
_atom_site_type_symbol
_atom_site_label
_atom_site_fract_x
_atom_site_fract_y
_atom_site_fract_z
Si Si1 0.321854 0.382205 0.014301
Si Si2 0.500000 0.529427 0.673414
Si Si3 0.000000 0.709130 0.198680
Si Si4 0.000000 0.259363 0.443862
Si Si5 0.310640 0.265216 0.407857
Si Si6 0.000000 0.141229 0.555867
Si Si7 0.654886 0.318896 0.277705
O O1 0.412522 0.324569 0.035762
O O2 0.250563 0.359133 0.068186
O O3 0.337111 0.500000 0.000000
O O4 0.285276 0.328892 0.951924
O O5 0.500000 0.413905 0.696763
O O6 0.500000 0.542213 0.599450
O O7 0.588950 0.590633 0.697781
O O8 0.910605 0.754035 0.232855
O O9 0.000000 0.743672 0.128219
O O10 0.000000 0.152923 0.482745
O O11 0.412887 0.295154 0.423522
O O12 0.311418 0.251560 0.335745
O O13 0.750000 0.357254 0.250000
#
# Coordination Sequence:
#
# PCOD9479099 Si02
#       7
#    16   8   8   8  16   8  16
#     4  10  20  38  60  91 117 152 198 252 303 362
#     4   9  21  41  60  89 118 163 217 242 309 372
#     4  11  23  40  62  92 125 158 210 257 289 375
#     4  10  20  37  61  88 123 154 196 251 313 352
#     4   9  19  39  58  82 120 153 195 244 301 357
#     4   8  17  38  59  79 116 155 189 248 297 354
#     4  10  21  42  60  83 127 163 198 255 302 366
#
# _framework density 19.01351
#
# number of rings (size 3 to 8) (size 9 to 14) (size 15 to 20)
#    0.000    2.400    0.000    2.100    0.000    1.200 
#   39.600    0.000    0.000    0.000    0.000    0.000 
#    0.000    0.000    0.000    0.000    0.000    0.000 
#
# Total GULP energy -222754.685049 kJ/mol
# GULP energy per Si atom -5568.867126 kJ/mol
# Density = 1.897023 g / cm^3
# Si number density = 19.013510 Si / 1000 Ang^3
#
#
#
# Elastic Constant Matrix: (Units=GPa)
#
#
# Indices 1 2 3 4 5 6 
#
# 1 120.4042 26.0043 40.2693 0.0000 0.0000 0.0000
# 2 26.0043 109.5311 54.0675 0.0000 0.0000 0.0000
# 3 40.2693 54.0675 147.5868 0.0000 0.0000 0.0000
# 4 0.0000 0.0000 0.0000 21.2182 0.0000 0.0000
# 5 0.0000 0.0000 0.0000 0.0000 29.3142 0.0000
# 6 0.0000 0.0000 0.0000 0.0000 0.0000 3.3266
#
#
#
# Elastic Compliance Matrix: (Units=1/GPa)
#
#
# Indices 1 2 3 4 5 6 
#
# 1 0.009259 -0.001161 -0.002101 0.000000 0.000000 0.000000
# 2 -0.001161 0.011291 -0.003820 0.000000 0.000000 0.000000
# 3 -0.002101 -0.003820 0.008748 0.000000 0.000000 0.000000
# 4 0.000000 0.000000 0.000000 0.047129 0.000000 0.000000
# 5 0.000000 0.000000 0.000000 0.000000 0.034113 0.000000
# 6 0.000000 0.000000 0.000000 0.000000 0.000000 0.300609
#
#
# Mechanical properties :
#
#
# Convention : Reuss Voigt Hill
#
# Bulk Modulus (GPa) = 66.07311 68.68938 67.38124
# Shear Modulus (GPa) = 11.61825 27.91721 19.76773
#
# Velocity S-wave (km/s) = 2.47463 3.83597 3.22789
# Velocity P-wave (km/s) = 6.55676 7.47159 7.02907
#
# Compressibility (1/GPa) = 0.01513475
#
# Stress axis : x y z
#
# Youngs Moduli (GPa) = 108.00565 88.56676 114.30956
#
# Poissons Ratio (x) = 0.10284 0.24015
# Poissons Ratio (y) = 0.12541 0.43661
# Poissons Ratio (z) = 0.22691 0.33828
#
# Static dielectric constant tensor:
#      x y z
#    x 1.628010 0.000000 0.000000 
#    y 0.000000 1.647810 0.000000 
#    z 0.000000 0.000000 1.718150 
# 
# From -- ./inp_files/40019.got.cif
#   From: 2010.05.17/outbox.cif.g08.bks.cpg/sg64_21_cif.got.tgz:40019.got - 2010.06.03 16:29:19.
