data_PCOD9479393
_publ_section_title
;
Structure prediction by ZEFSAII (Michael W. Deem and Ramdas Pophale) SiO2 
 PCOD9479393
Probable space group: C M C A
;
_chemical_formula_sum "Si O2"
_cell_formula_units_Z 96
_cell_length_a 15.427322
_cell_length_b 19.288624
_cell_length_c 15.667291
_cell_angle_alpha 90.000000
_cell_angle_beta 90.000000
_cell_angle_gamma 90.000000
_cell_volume 4662.144194
_symmetry_space_group_name_H-M "C M C A"
_symmetry_group_IT_number 64
_symmetry_cell_setting 'orthorhombic'
loop_
_space_group_symop_operation_xyz
x,y,z
-x,1/2-y,1/2+z
x,-y,-z
-x,1/2+y,1/2-z
-x,-y,-z
x,1/2+y,1/2-z
-x,y,z
x,1/2-y,1/2+z
1/2+x,1/2+y,z
1/2-x,-y,1/2+z
1/2+x,1/2-y,-z
1/2-x,y,1/2-z
1/2-x,1/2-y,-z
1/2+x,y,1/2-z
1/2-x,1/2+y,z
1/2+x,-y,1/2+z
loop_
_atom_site_type_symbol
_atom_site_label
_atom_site_fract_x
_atom_site_fract_y
_atom_site_fract_z
Si Si1 0.695867 0.986203 0.329660
Si Si2 0.400900 0.719174 0.291356
Si Si3 0.731164 0.684397 0.441224
Si Si4 0.901500 0.871416 0.269920
Si Si5 0.152868 0.062637 0.552573
Si Si6 0.096813 0.381642 0.634284
O O1 0.750000 0.018365 0.250000
O O2 0.620001 0.037907 0.355064
O O3 0.659834 0.914279 0.292962
O O4 0.761006 0.971983 0.406474
O O5 0.500000 0.724956 0.326633
O O6 0.327302 0.708045 0.361387
O O7 0.383257 0.789681 0.237846
O O8 0.401043 0.655185 0.226432
O O9 0.750000 0.750000 0.500000
O O10 0.678257 0.624879 0.490402
O O11 0.823924 0.652450 0.416076
O O12 0.892181 0.903362 0.364577
O O13 0.000000 0.882013 0.242084
O O14 0.108539 0.000000 0.500000
O O15 0.000000 0.371148 0.598511
#
# Coordination Sequence:
#
# PCOD9479393 Si02
#       6
#    16  16  16  16  16  16
#     4  10  20  39  64  88 125 169 218 257 311 389
#     4  10  23  42  65  92 125 167 222 270 315 384
#     4  12  24  40  65  92 127 169 209 262 336 386
#     4  10  22  41  65  93 126 169 218 267 319 384
#     4  11  23  39  61  94 133 167 209 267 328 393
#     4  11  23  40  63  90 121 165 219 266 313 383
#
# _framework density 20.591384999999999
#
# number of rings (size 3 to 8) (size 9 to 14) (size 15 to 20)
#    0.000    1.333    1.667    4.000    2.333    4.333 
#    0.000    2.500    0.000    0.000    0.000    0.000 
#    0.000    0.000    0.000    0.000    0.000    0.000 
#
# Total GULP energy -268198.909076 kJ/mol
# GULP energy per Si atom -5587.477272 kJ/mol
# Density = 2.054452 g / cm^3
# Si number density = 20.591385 Si / 1000 Ang^3
#
#
#
# Elastic Constant Matrix: (Units=GPa)
#
#
# Indices 1 2 3 4 5 6 
#
# 1 67.8369 14.4486 -4.3483 0.0000 0.0000 0.0000
# 2 14.4486 93.5076 9.5744 0.0000 0.0000 0.0000
# 3 -4.3483 9.5744 38.8006 0.0000 0.0000 0.0000
# 4 0.0000 0.0000 0.0000 30.9715 0.0000 0.0000
# 5 0.0000 0.0000 0.0000 0.0000 12.6761 0.0000
# 6 0.0000 0.0000 0.0000 0.0000 0.0000 29.4858
#
#
#
# Elastic Compliance Matrix: (Units=1/GPa)
#
#
# Indices 1 2 3 4 5 6 
#
# 1 0.015454 -0.002632 0.002381 0.000000 0.000000 0.000000
# 2 -0.002632 0.011420 -0.003113 0.000000 0.000000 0.000000
# 3 0.002381 -0.003113 0.026808 0.000000 0.000000 0.000000
# 4 0.000000 0.000000 0.000000 0.032288 0.000000 0.000000
# 5 0.000000 0.000000 0.000000 0.000000 0.078889 0.000000
# 6 0.000000 0.000000 0.000000 0.000000 0.000000 0.033915
#
#
# Mechanical properties :
#
#
# Convention : Reuss Voigt Hill
#
# Bulk Modulus (GPa) = 21.29686 26.61052 23.95369
# Shear Modulus (GPa) = 22.60895 26.65804 24.63350
#
# Velocity S-wave (km/s) = 3.31717 3.60199 3.46251
# Velocity P-wave (km/s) = 5.00366 5.50002 5.25770
#
# Compressibility (1/GPa) = 0.04695528
#
# Stress axis : x y z
#
# Youngs Moduli (GPa) = 64.70637 87.56781 37.30259
#
# Poissons Ratio (x) = 0.23046 -0.08883
# Poissons Ratio (y) = 0.17030 0.11612
# Poissons Ratio (z) = -0.15409 0.27259
#
# Static dielectric constant tensor:
#      x y z
#    x 1.725940 0.000000 0.000000 
#    y 0.000000 1.737420 0.000000 
#    z 0.000000 0.000000 1.710510 
# 
# From -- ./inp_files/23949.got.cif
#   From: 2010.05.17/outbox.cif.g08.bks.cpg/sg64_12_cif.got.tgz:23949.got - 2010.06.03 16:29:19.
