data_PCOD9479638
_publ_section_title
;
Structure prediction by ZEFSAII (Michael W. Deem and Ramdas Pophale) SiO2 
 PCOD9479638
Probable space group: C M C A
;
_chemical_formula_sum "Si O2"
_cell_formula_units_Z 128
_cell_length_a 22.603235
_cell_length_b 26.046171
_cell_length_c 11.613741
_cell_angle_alpha 90.000000
_cell_angle_beta 90.000000
_cell_angle_gamma 90.000000
_cell_volume 6837.331306
_symmetry_space_group_name_H-M "C M C A"
_symmetry_group_IT_number 64
_symmetry_cell_setting 'orthorhombic'
loop_
_space_group_symop_operation_xyz
x,y,z
-x,1/2-y,1/2+z
x,-y,-z
-x,1/2+y,1/2-z
-x,-y,-z
x,1/2+y,1/2-z
-x,y,z
x,1/2-y,1/2+z
1/2+x,1/2+y,z
1/2-x,-y,1/2+z
1/2+x,1/2-y,-z
1/2-x,y,1/2-z
1/2-x,1/2-y,-z
1/2+x,y,1/2-z
1/2-x,1/2+y,z
1/2+x,-y,1/2+z
loop_
_atom_site_type_symbol
_atom_site_label
_atom_site_fract_x
_atom_site_fract_y
_atom_site_fract_z
Si Si1 0.308597 0.200119 0.670897
Si Si2 0.271162 0.662816 0.074275
Si Si3 0.776283 0.943319 0.015258
Si Si4 0.431538 0.001494 0.638803
Si Si5 0.140315 0.057714 0.506394
Si Si6 0.655524 0.088449 0.728438
Si Si7 0.157446 0.810732 0.706594
Si Si8 0.929064 0.098632 0.292747
O O1 0.250000 0.204152 0.750000
O O2 0.282341 0.191194 0.544335
O O3 0.345034 0.149389 0.706914
O O4 0.348035 0.251301 0.673232
O O5 0.202394 0.663865 0.112429
O O6 0.305895 0.689549 0.175615
O O7 0.297908 0.605613 0.056580
O O8 0.709022 0.946461 0.969800
O O9 0.787742 0.928709 0.148904
O O10 0.801986 0.000000 0.000000
O O11 0.500000 0.008495 0.672867
O O12 0.412136 0.948650 0.705179
O O13 0.429896 0.000000 0.500000
O O14 0.394448 0.051069 0.676854
O O15 0.148959 0.078774 0.635477
O O16 0.098282 0.086802 0.418456
O O17 0.116378 0.000000 0.500000
O O18 0.101358 0.846465 0.731735
O O19 0.000000 0.101791 0.293042
#
# Coordination Sequence:
#
# PCOD9479638 Si02
#       8
#    16  16  16  16  16  16  16  16
#     4  11  23  38  61  92 131 168 203 253 316 387
#     4  10  21  38  61  93 121 169 207 250 321 382
#     4  10  21  34  56  92 133 159 195 252 318 382
#     4  10  23  43  65  88 118 164 216 264 313 376
#     4  11  21  37  57  89 128 163 196 248 309 382
#     4  11  22  36  60  91 127 165 201 250 313 379
#     4  11  23  39  63  89 124 164 213 263 307 372
#     4  11  25  43  66  90 122 168 218 264 313 371
#
# _framework density 18.720753999999999
#
# number of rings (size 3 to 8) (size 9 to 14) (size 15 to 20)
#    0.000    1.375    3.750    2.625    5.250    0.750 
#    2.250    0.625    0.000    2.250    0.000    0.000 
#    0.000    0.000    0.000    0.000    0.000    0.000 
#
# Total GULP energy -356405.169665 kJ/mol
# GULP energy per Si atom -5568.830776 kJ/mol
# Density = 1.867814 g / cm^3
# Si number density = 18.720754 Si / 1000 Ang^3
#
#
#
# Elastic Constant Matrix: (Units=GPa)
#
#
# Indices 1 2 3 4 5 6 
#
# 1 83.6288 44.0581 16.3587 0.0000 0.0000 0.0000
# 2 44.0581 160.0201 45.6270 0.0000 0.0000 0.0000
# 3 16.3587 45.6270 96.8095 0.0000 0.0000 0.0000
# 4 0.0000 0.0000 0.0000 19.6456 0.0000 0.0000
# 5 0.0000 0.0000 0.0000 0.0000 8.4411 0.0000
# 6 0.0000 0.0000 0.0000 0.0000 0.0000 22.4028
#
#
#
# Elastic Compliance Matrix: (Units=1/GPa)
#
#
# Indices 1 2 3 4 5 6 
#
# 1 0.014020 -0.003679 -0.000635 0.000000 0.000000 0.000000
# 2 -0.003679 0.008185 -0.003236 0.000000 0.000000 0.000000
# 3 -0.000635 -0.003236 0.011962 0.000000 0.000000 0.000000
# 4 0.000000 0.000000 0.000000 0.050902 0.000000 0.000000
# 5 0.000000 0.000000 0.000000 0.000000 0.118468 0.000000
# 6 0.000000 0.000000 0.000000 0.000000 0.000000 0.044637
#
#
# Mechanical properties :
#
#
# Convention : Reuss Voigt Hill
#
# Bulk Modulus (GPa) = 52.44728 61.39401 56.92064
# Shear Modulus (GPa) = 18.54397 25.72555 22.13476
#
# Velocity S-wave (km/s) = 3.15073 3.71101 3.44228
# Velocity P-wave (km/s) = 6.42748 7.15737 6.80222
#
# Compressibility (1/GPa) = 0.01906677
#
# Stress axis : x y z
#
# Youngs Moduli (GPa) = 71.32643 122.17747 83.59818
#
# Poissons Ratio (x) = 0.44949 0.05310
# Poissons Ratio (y) = 0.26241 0.27051
# Poissons Ratio (z) = 0.04530 0.39535
#
# Static dielectric constant tensor:
#      x y z
#    x 1.650240 0.000000 0.000000 
#    y 0.000000 1.746810 0.000000 
#    z 0.000000 0.000000 1.660430 
# 
# From -- ./inp_files/18703.got.cif
#   From: 2010.05.17/outbox.cif.g08.bks.cpg/sg64_10_cif.got.tgz:18703.got - 2010.06.03 16:29:19.
