data_PCOD9479747
_publ_section_title
;
Structure prediction by ZEFSAII (Michael W. Deem and Ramdas Pophale) SiO2 
 PCOD9479747
Probable space group: C M C A
;
_chemical_formula_sum "Si O2"
_cell_formula_units_Z 96
_cell_length_a 17.737373
_cell_length_b 15.534230
_cell_length_c 18.201668
_cell_angle_alpha 90.000000
_cell_angle_beta 90.000000
_cell_angle_gamma 90.000000
_cell_volume 5015.222653
_symmetry_space_group_name_H-M "C M C A"
_symmetry_group_IT_number 64
_symmetry_cell_setting 'orthorhombic'
loop_
_space_group_symop_operation_xyz
x,y,z
-x,1/2-y,1/2+z
x,-y,-z
-x,1/2+y,1/2-z
-x,-y,-z
x,1/2+y,1/2-z
-x,y,z
x,1/2-y,1/2+z
1/2+x,1/2+y,z
1/2-x,-y,1/2+z
1/2+x,1/2-y,-z
1/2-x,y,1/2-z
1/2-x,1/2-y,-z
1/2+x,y,1/2-z
1/2-x,1/2+y,z
1/2+x,-y,1/2+z
loop_
_atom_site_type_symbol
_atom_site_label
_atom_site_fract_x
_atom_site_fract_y
_atom_site_fract_z
Si Si1 0.681136 0.240444 0.294279
Si Si2 0.587375 0.859226 0.109982
Si Si3 0.412938 0.716860 0.980512
Si Si4 0.585386 0.818142 0.833732
Si Si5 0.273563 0.334663 0.951307
Si Si6 0.859453 0.969239 0.574059
O O1 0.750000 0.283570 0.250000
O O2 0.614584 0.300680 0.323052
O O3 0.642322 0.180305 0.233702
O O4 0.712943 0.194454 0.367255
O O5 0.500000 0.885901 0.117011
O O6 0.592820 0.799292 0.036546
O O7 0.646895 0.937645 0.110818
O O8 0.500000 0.689778 0.982155
O O9 0.354526 0.647170 0.011561
O O10 0.394557 0.749205 0.898099
O O11 0.500000 0.801710 0.810146
O O12 0.591516 0.908028 0.875829
O O13 0.214053 0.413029 0.948657
O O14 0.250000 0.250000 0.000000
O O15 0.900474 0.000000 0.500000
#
# Coordination Sequence:
#
# PCOD9479747 Si02
#       6
#    16  16  16  16  16  16
#     4  11  21  39  58  83 121 163 211 253 308 385
#     4  10  21  36  57  89 120 155 200 263 323 364
#     4   9  18  35  61  89 120 158 209 255 302 369
#     4  11  21  35  60  91 125 165 205 256 313 374
#     4  11  20  38  61  89 124 158 211 252 308 380
#     4  12  21  35  61  92 123 152 199 267 314 368
#
# _framework density 19.141722999999999
#
# number of rings (size 3 to 8) (size 9 to 14) (size 15 to 20)
#    0.000    1.333    5.000    2.000    0.000    1.333 
#    3.000    0.000    0.000    0.500    0.000    0.000 
#    0.000    0.000    0.000    0.000    0.000    0.000 
#
# Total GULP energy -267295.800044 kJ/mol
# GULP energy per Si atom -5568.662501 kJ/mol
# Density = 1.909816 g / cm^3
# Si number density = 19.141723 Si / 1000 Ang^3
#
#
#
# Elastic Constant Matrix: (Units=GPa)
#
#
# Indices 1 2 3 4 5 6 
#
# 1 105.5088 30.2481 40.6171 0.0000 0.0000 0.0000
# 2 30.2481 55.1765 18.2755 0.0000 0.0000 0.0000
# 3 40.6171 18.2755 112.7626 0.0000 0.0000 0.0000
# 4 0.0000 0.0000 0.0000 22.7122 0.0000 0.0000
# 5 0.0000 0.0000 0.0000 0.0000 33.8014 0.0000
# 6 0.0000 0.0000 0.0000 0.0000 0.0000 21.2384
#
#
#
# Elastic Compliance Matrix: (Units=1/GPa)
#
#
# Indices 1 2 3 4 5 6 
#
# 1 0.012476 -0.005655 -0.003577 0.000000 0.000000 0.000000
# 2 -0.005655 0.021715 -0.001483 0.000000 0.000000 0.000000
# 3 -0.003577 -0.001483 0.010397 0.000000 0.000000 0.000000
# 4 0.000000 0.000000 0.000000 0.044029 0.000000 0.000000
# 5 0.000000 0.000000 0.000000 0.000000 0.029585 0.000000
# 6 0.000000 0.000000 0.000000 0.000000 0.000000 0.047085
#
#
# Mechanical properties :
#
#
# Convention : Reuss Voigt Hill
#
# Bulk Modulus (GPa) = 43.18038 50.19216 46.68627
# Shear Modulus (GPa) = 25.71553 27.83752 26.77653
#
# Velocity S-wave (km/s) = 3.66926 3.81765 3.74419
# Velocity P-wave (km/s) = 6.36855 6.76098 6.56770
#
# Compressibility (1/GPa) = 0.02315867
#
# Stress axis : x y z
#
# Youngs Moduli (GPa) = 80.15260 46.05194 96.18093
#
# Poissons Ratio (x) = 0.26041 0.34409
# Poissons Ratio (y) = 0.45323 0.14259
# Poissons Ratio (z) = 0.28674 0.06827
#
# Static dielectric constant tensor:
#      x y z
#    x 1.737980 0.000000 0.000000 
#    y 0.000000 1.707190 0.000000 
#    z 0.000000 0.000000 1.713760 
# 
# From -- ./inp_files/26334.got.cif
#   From: 2010.05.17/outbox.cif.g08.bks.cpg/sg64_14_cif.got.tgz:26334.got - 2010.06.03 16:29:19.
