data_PCOD9479538
_publ_section_title
;
Structure prediction by ZEFSAII (Michael W. Deem and Ramdas Pophale) SiO2 
 PCOD9479538
Probable space group: C M C A
;
_chemical_formula_sum "Si O2"
_cell_formula_units_Z 120
_cell_length_a 20.295660
_cell_length_b 11.013256
_cell_length_c 26.741275
_cell_angle_alpha 90.000000
_cell_angle_beta 90.000000
_cell_angle_gamma 90.000000
_cell_volume 5977.244532
_symmetry_space_group_name_H-M "C M C A"
_symmetry_group_IT_number 64
_symmetry_cell_setting 'orthorhombic'
loop_
_space_group_symop_operation_xyz
x,y,z
-x,1/2-y,1/2+z
x,-y,-z
-x,1/2+y,1/2-z
-x,-y,-z
x,1/2+y,1/2-z
-x,y,z
x,1/2-y,1/2+z
1/2+x,1/2+y,z
1/2-x,-y,1/2+z
1/2+x,1/2-y,-z
1/2-x,y,1/2-z
1/2-x,1/2-y,-z
1/2+x,y,1/2-z
1/2-x,1/2+y,z
1/2+x,-y,1/2+z
loop_
_atom_site_type_symbol
_atom_site_label
_atom_site_fract_x
_atom_site_fract_y
_atom_site_fract_z
Si Si1 0.109064 0.614304 0.398808
Si Si2 0.628337 0.743212 0.438477
Si Si3 0.073688 0.343710 0.035002
Si Si4 0.420997 0.673588 0.210623
Si Si5 0.579144 0.945046 0.219398
Si Si6 0.860246 0.494229 0.886395
Si Si7 0.500000 0.594829 0.914593
Si Si8 0.772517 0.535440 0.557142
O O1 0.081250 0.716636 0.435696
O O2 0.113734 0.667074 0.343111
O O3 0.057503 0.503823 0.398076
O O4 0.177347 0.565023 0.420704
O O5 0.623768 0.664440 0.489130
O O6 0.638082 0.650456 0.393171
O O7 0.559033 0.812612 0.433061
O O8 0.686978 0.839186 0.442659
O O9 0.088045 0.446561 0.075297
O O10 0.000000 0.357914 0.016046
O O11 0.500000 0.669761 0.201644
O O12 0.404413 0.553378 0.242258
O O13 0.408170 0.805208 0.235884
O O14 0.500000 0.954163 0.209695
O O15 0.619197 0.967669 0.168779
O O16 0.790512 0.541100 0.907139
O O17 0.756792 0.500000 0.500000
#
# Coordination Sequence:
#
# PCOD9479538 Si02
#       8
#    16  16  16  16  16  16   8  16
#     4  11  21  39  68  93 125 170 221 268 326 391
#     4  11  25  39  61  95 137 173 222 279 318 393
#     4  12  22  37  67  90 130 173 220 271 332 391
#     4  10  20  41  67 101 125 164 215 281 351 400
#     4  10  23  42  70  96 131 167 219 282 344 407
#     4  12  27  41  61  95 134 181 220 267 338 404
#     4  10  22  37  59  96 131 164 216 273 328 373
#     4  11  25  43  65  91 132 186 232 262 312 392
#
# _framework density 20.076139999999999
#
# number of rings (size 3 to 8) (size 9 to 14) (size 15 to 20)
#    0.000    1.067    4.667    1.600    3.733    4.267 
#    2.400    0.667    0.000    1.600    0.000    0.000 
#    0.000    0.000    0.000    0.000    0.000    0.000 
#
# Total GULP energy -334215.919639 kJ/mol
# GULP energy per Si atom -5570.265327 kJ/mol
# Density = 2.003045 g / cm^3
# Si number density = 20.076140 Si / 1000 Ang^3
#
#
#
# Elastic Constant Matrix: (Units=GPa)
#
#
# Indices 1 2 3 4 5 6 
#
# 1 76.5160 5.6178 19.4662 0.0000 0.0000 0.0000
# 2 5.6178 77.2309 27.7108 0.0000 0.0000 0.0000
# 3 19.4662 27.7108 59.6958 0.0000 0.0000 0.0000
# 4 0.0000 0.0000 0.0000 21.0656 0.0000 0.0000
# 5 0.0000 0.0000 0.0000 0.0000 27.9367 0.0000
# 6 0.0000 0.0000 0.0000 0.0000 0.0000 10.1238
#
#
#
# Elastic Compliance Matrix: (Units=1/GPa)
#
#
# Indices 1 2 3 4 5 6 
#
# 1 0.014288 0.000759 -0.005012 0.000000 0.000000 0.000000
# 2 0.000759 0.015576 -0.007478 0.000000 0.000000 0.000000
# 3 -0.005012 -0.007478 0.021857 0.000000 0.000000 0.000000
# 4 0.000000 0.000000 0.000000 0.047471 0.000000 0.000000
# 5 0.000000 0.000000 0.000000 0.000000 0.035795 0.000000
# 6 0.000000 0.000000 0.000000 0.000000 0.000000 0.098777
#
#
# Mechanical properties :
#
#
# Convention : Reuss Voigt Hill
#
# Bulk Modulus (GPa) = 35.38524 35.44801 35.41663
# Shear Modulus (GPa) = 18.75146 22.53509 20.64328
#
# Velocity S-wave (km/s) = 3.05949 3.35398 3.21011
# Velocity P-wave (km/s) = 5.49039 5.71787 5.60528
#
# Compressibility (1/GPa) = 0.02826037
#
# Stress axis : x y z
#
# Youngs Moduli (GPa) = 69.98669 64.20109 45.75187
#
# Poissons Ratio (x) = -0.04872 0.22929
# Poissons Ratio (y) = -0.05311 0.34213
# Poissons Ratio (z) = 0.35074 0.48009
#
# Static dielectric constant tensor:
#      x y z
#    x 1.690720 0.000000 0.000000 
#    y 0.000000 1.769030 0.000000 
#    z 0.000000 0.000000 1.700530 
# 
# From -- ./inp_files/46407.got.cif
#   From: 2010.05.17/outbox.cif.g08.bks.cpg/sg64_24_cif.got.tgz:46407.got - 2010.06.03 16:29:19.
