data_PCOD9479468
_publ_section_title
;
Structure prediction by ZEFSAII (Michael W. Deem and Ramdas Pophale) SiO2 
 PCOD9479468
Probable space group: C M C A
;
_chemical_formula_sum "Si O2"
_cell_formula_units_Z 96
_cell_length_a 27.229976
_cell_length_b 8.862595
_cell_length_c 17.495410
_cell_angle_alpha 90.000000
_cell_angle_beta 90.000000
_cell_angle_gamma 90.000000
_cell_volume 4222.136663
_symmetry_space_group_name_H-M "C M C A"
_symmetry_group_IT_number 64
_symmetry_cell_setting 'orthorhombic'
loop_
_space_group_symop_operation_xyz
x,y,z
-x,1/2-y,1/2+z
x,-y,-z
-x,1/2+y,1/2-z
-x,-y,-z
x,1/2+y,1/2-z
-x,y,z
x,1/2-y,1/2+z
1/2+x,1/2+y,z
1/2-x,-y,1/2+z
1/2+x,1/2-y,-z
1/2-x,y,1/2-z
1/2-x,1/2-y,-z
1/2+x,y,1/2-z
1/2-x,1/2+y,z
1/2+x,-y,1/2+z
loop_
_atom_site_type_symbol
_atom_site_label
_atom_site_fract_x
_atom_site_fract_y
_atom_site_fract_z
Si Si1 0.819268 0.477112 0.855061
Si Si2 0.393827 0.810408 0.120773
Si Si3 0.360145 0.514935 0.914802
Si Si4 0.103185 0.239398 0.295054
Si Si5 0.000000 0.086437 0.276871
Si Si6 0.760662 0.193923 0.913448
Si Si7 0.500000 0.276547 0.364487
O O1 0.862887 0.546976 0.907752
O O2 0.853352 0.386649 0.794008
O O3 0.784057 0.342804 0.878454
O O4 0.781838 0.620456 0.859895
O O5 0.364932 0.655579 0.111612
O O6 0.397444 0.820437 0.213092
O O7 0.449093 0.793176 0.090991
O O8 0.386407 0.636859 0.860382
O O9 0.304249 0.571537 0.918291
O O10 0.381071 0.500000 0.000000
O O11 0.050431 0.161045 0.306516
O O12 0.000000 0.123036 0.185837
O O13 0.000000 0.913950 0.302989
O O14 0.750000 0.250000 0.000000
#
# Coordination Sequence:
#
# PCOD9479468 Si02
#       7
#    16  16  16  16   8  16   8
#     4  11  21  38  61  90 119 160 215 275 318 371
#     4  11  22  41  66  98 135 171 222 271 335 395
#     4  11  24  42  65  99 133 176 225 279 333 397
#     4  10  23  40  67  95 135 172 218 275 326 395
#     4  10  20  40  64 103 127 177 229 263 321 405
#     4  11  23  41  66  89 121 174 226 271 323 409
#     4  10  22  36  70  97 133 177 227 269 317 409
#
# _framework density 22.737304000000002
#
# number of rings (size 3 to 8) (size 9 to 14) (size 15 to 20)
#    0.000    1.333    1.667    4.500    7.000    1.333 
#    0.000   15.833    0.000    1.000    0.000    0.000 
#    0.000    0.000    0.000    0.000    0.000    0.000 
#
# Total GULP energy -267365.864064 kJ/mol
# GULP energy per Si atom -5570.122168 kJ/mol
# Density = 2.268555 g / cm^3
# Si number density = 22.737304 Si / 1000 Ang^3
#
#
#
# Elastic Constant Matrix: (Units=GPa)
#
#
# Indices 1 2 3 4 5 6 
#
# 1 89.9997 6.9587 -4.1098 0.0000 0.0000 0.0000
# 2 6.9587 68.5350 -5.8022 0.0000 0.0000 0.0000
# 3 -4.1098 -5.8022 50.9750 0.0000 0.0000 0.0000
# 4 0.0000 0.0000 0.0000 26.4779 0.0000 0.0000
# 5 0.0000 0.0000 0.0000 0.0000 28.8156 0.0000
# 6 0.0000 0.0000 0.0000 0.0000 0.0000 38.5885
#
#
#
# Elastic Compliance Matrix: (Units=1/GPa)
#
#
# Indices 1 2 3 4 5 6 
#
# 1 0.011230 -0.001074 0.000783 0.000000 0.000000 0.000000
# 2 -0.001074 0.014836 0.001602 0.000000 0.000000 0.000000
# 3 0.000783 0.001602 0.019863 0.000000 0.000000 0.000000
# 4 0.000000 0.000000 0.000000 0.037767 0.000000 0.000000
# 5 0.000000 0.000000 0.000000 0.000000 0.034703 0.000000
# 6 0.000000 0.000000 0.000000 0.000000 0.000000 0.025914
#
#
# Mechanical properties :
#
#
# Convention : Reuss Voigt Hill
#
# Bulk Modulus (GPa) = 20.59678 22.62257 21.60968
# Shear Modulus (GPa) = 31.67064 32.94062 32.30563
#
# Velocity S-wave (km/s) = 3.73620 3.81037 3.77347
# Velocity P-wave (km/s) = 5.26217 5.41569 5.33948
#
# Compressibility (1/GPa) = 0.04855128
#
# Stress axis : x y z
#
# Youngs Moduli (GPa) = 89.04767 67.40467 50.34502
#
# Poissons Ratio (x) = 0.07239 -0.03943
# Poissons Ratio (y) = 0.09563 -0.08066
# Poissons Ratio (z) = -0.06974 -0.10799
#
# Static dielectric constant tensor:
#      x y z
#    x 1.917630 0.000000 0.000000 
#    y 0.000000 1.833490 0.000000 
#    z 0.000000 0.000000 1.902270 
# 
# From -- ./inp_files/46625.got.cif
#   From: 2010.05.17/outbox.cif.g08.bks.cpg/sg64_24_cif.got.tgz:46625.got - 2010.06.03 16:29:19.
