data_PCOD9479559
_publ_section_title
;
Structure prediction by ZEFSAII (Michael W. Deem and Ramdas Pophale) SiO2 
 PCOD9479559
Probable space group: C M C A
;
_chemical_formula_sum "Si O2"
_cell_formula_units_Z 56
_cell_length_a 7.892694
_cell_length_b 31.446953
_cell_length_c 9.416073
_cell_angle_alpha 90.000000
_cell_angle_beta 90.000000
_cell_angle_gamma 90.000000
_cell_volume 2337.080404
_symmetry_space_group_name_H-M "C M C A"
_symmetry_group_IT_number 64
_symmetry_cell_setting 'orthorhombic'
loop_
_space_group_symop_operation_xyz
x,y,z
-x,1/2-y,1/2+z
x,-y,-z
-x,1/2+y,1/2-z
-x,-y,-z
x,1/2+y,1/2-z
-x,y,z
x,1/2-y,1/2+z
1/2+x,1/2+y,z
1/2-x,-y,1/2+z
1/2+x,1/2-y,-z
1/2-x,y,1/2-z
1/2-x,1/2-y,-z
1/2+x,y,1/2-z
1/2-x,1/2+y,z
1/2+x,-y,1/2+z
loop_
_atom_site_type_symbol
_atom_site_label
_atom_site_fract_x
_atom_site_fract_y
_atom_site_fract_z
Si Si1 0.000000 0.191945 0.168273
Si Si2 0.500000 0.756644 0.406025
Si Si3 0.203666 0.540321 0.086406
Si Si4 0.750000 0.682204 0.750000
Si Si5 0.805305 0.635539 0.035927
O O1 0.000000 0.211794 0.327334
O O2 0.000000 0.236183 0.074153
O O3 0.165042 0.164837 0.117530
O O4 0.349054 0.784620 0.346907
O O5 0.250000 0.535468 0.250000
O O6 0.000000 0.540200 0.070669
O O7 0.271845 0.500000 0.000000
O O8 0.261776 0.587212 0.038631
O O9 0.819737 0.651986 0.874169
O O10 0.000000 0.633341 0.095209
#
# Coordination Sequence:
#
# PCOD9479559 Si02
#       5
#     8   8  16   8  16
#     4  10  24  46  65 100 130 187 221 288 346 405
#     4  10  22  42  64  92 132 166 237 271 344 402
#     4  10  24  46  69 105 142 179 227 285 347 416
#     4  10  20  42  62  92 126 180 222 278 338 408
#     4  10  22  44  68  95 137 176 232 281 340 413
#
# _framework density 23.961521999999999
#
# number of rings (size 3 to 8) (size 9 to 14) (size 15 to 20)
#    0.000    2.000    1.429    0.000    4.000    5.143 
#   10.286    0.000    0.000    0.000    0.000    0.000 
#    0.000    0.000    0.000    0.000    0.000    0.000 
#
# Total GULP energy -156285.724895 kJ/mol
# GULP energy per Si atom -5581.633032 kJ/mol
# Density = 2.390698 g / cm^3
# Si number density = 23.961522 Si / 1000 Ang^3
#
#
#
# Elastic Constant Matrix: (Units=GPa)
#
#
# Indices 1 2 3 4 5 6 
#
# 1 95.6389 37.5138 14.1454 0.0000 0.0000 0.0000
# 2 37.5138 233.9168 71.5806 0.0000 0.0000 0.0000
# 3 14.1454 71.5806 58.6157 0.0000 0.0000 0.0000
# 4 0.0000 0.0000 0.0000 48.3731 0.0000 0.0000
# 5 0.0000 0.0000 0.0000 0.0000 30.3872 0.0000
# 6 0.0000 0.0000 0.0000 0.0000 0.0000 25.7060
#
#
#
# Elastic Compliance Matrix: (Units=1/GPa)
#
#
# Indices 1 2 3 4 5 6 
#
# 1 0.011182 -0.001545 -0.000812 0.000000 0.000000 0.000000
# 2 -0.001545 0.007039 -0.008223 0.000000 0.000000 0.000000
# 3 -0.000812 -0.008223 0.027298 0.000000 0.000000 0.000000
# 4 0.000000 0.000000 0.000000 0.020673 0.000000 0.000000
# 5 0.000000 0.000000 0.000000 0.000000 0.032909 0.000000
# 6 0.000000 0.000000 0.000000 0.000000 0.000000 0.038901
#
#
# Mechanical properties :
#
#
# Convention : Reuss Voigt Hill
#
# Bulk Modulus (GPa) = 41.05193 70.51676 55.78434
# Shear Modulus (GPa) = 29.88955 38.55535 34.22245
#
# Velocity S-wave (km/s) = 3.53568 4.01565 3.78329
# Velocity P-wave (km/s) = 5.81702 7.14098 6.51273
#
# Compressibility (1/GPa) = 0.02435939
#
# Stress axis : x y z
#
# Youngs Moduli (GPa) = 89.42911 142.06180 36.63208
#
# Poissons Ratio (x) = 0.21946 0.02974
# Poissons Ratio (y) = 0.13815 0.30124
# Poissons Ratio (z) = 0.07262 1.16822
#
# Static dielectric constant tensor:
#      x y z
#    x 1.999560 0.000000 0.000000 
#    y 0.000000 1.899400 0.000000 
#    z 0.000000 0.000000 1.932380 
# 
# From -- ./inp_files/12088.got.cif
#   From: 2010.05.17/outbox.cif.g08.bks.cpg/sg64_7_cif.got.tgz:12088.got - 2010.06.03 16:29:19.
