data_PCOD9479579
_publ_section_title
;
Structure prediction by ZEFSAII (Michael W. Deem and Ramdas Pophale) SiO2 
 PCOD9479579
Probable space group: C M C A
;
_chemical_formula_sum "Si O2"
_cell_formula_units_Z 104
_cell_length_a 17.386329
_cell_length_b 13.776243
_cell_length_c 21.444619
_cell_angle_alpha 90.000000
_cell_angle_beta 90.000000
_cell_angle_gamma 90.000000
_cell_volume 5136.378541
_symmetry_space_group_name_H-M "C M C A"
_symmetry_group_IT_number 64
_symmetry_cell_setting 'orthorhombic'
loop_
_space_group_symop_operation_xyz
x,y,z
-x,1/2-y,1/2+z
x,-y,-z
-x,1/2+y,1/2-z
-x,-y,-z
x,1/2+y,1/2-z
-x,y,z
x,1/2-y,1/2+z
1/2+x,1/2+y,z
1/2-x,-y,1/2+z
1/2+x,1/2-y,-z
1/2-x,y,1/2-z
1/2-x,1/2-y,-z
1/2+x,y,1/2-z
1/2-x,1/2+y,z
1/2+x,-y,1/2+z
loop_
_atom_site_type_symbol
_atom_site_label
_atom_site_fract_x
_atom_site_fract_y
_atom_site_fract_z
Si Si1 0.500000 0.133794 0.284765
Si Si2 0.500000 0.492289 0.320588
Si Si3 0.854821 0.918901 0.872120
Si Si4 0.636165 0.148637 0.616819
Si Si5 0.775740 0.746045 0.319935
Si Si6 0.340610 0.269630 0.986821
Si Si7 0.087847 0.150338 0.612917
Si Si8 0.000000 0.169544 0.784785
O O1 0.500000 0.092987 0.213500
O O2 0.572649 0.100249 0.326286
O O3 0.500000 0.245401 0.265542
O O4 0.572482 0.458955 0.362735
O O5 0.500000 0.424339 0.259182
O O6 0.784381 0.867876 0.835521
O O7 0.851099 0.032563 0.886509
O O8 0.855568 0.854565 0.935413
O O9 0.713773 0.201223 0.637682
O O10 0.618317 0.195003 0.549670
O O11 0.572905 0.168913 0.669476
O O12 0.750000 0.760646 0.250000
O O13 0.856484 0.796851 0.337785
O O14 0.250000 0.250000 0.000000
O O15 0.374852 0.173577 0.953708
O O16 0.000000 0.189807 0.609769
#
# Coordination Sequence:
#
# PCOD9479579 Si02
#       8
#     8   8  16  16  16  16  16   8
#     4  12  24  45  73 101 150 182 238 299 362 435
#     4  10  20  43  66 101 130 187 227 279 363 427
#     4  11  24  42  69 103 137 187 234 292 364 427
#     4  12  24  43  67 102 138 182 237 300 356 429
#     4  11  23  41  65 101 138 183 234 295 367 423
#     4  11  22  44  65  99 137 187 234 288 357 418
#     4   9  21  40  70  94 134 186 229 283 358 422
#     4  12  24  42  67 100 141 178 230 298 358 425
#
# _framework density 20.247727999999999
#
# number of rings (size 3 to 8) (size 9 to 14) (size 15 to 20)
#    0.462    0.615    4.615    4.154    5.385    0.615 
#    2.769    1.538    0.000    0.923    0.000    0.000 
#    0.000    0.000    0.000    0.000    0.000    0.000 
#
# Total GULP energy -289813.331226 kJ/mol
# GULP energy per Si atom -5573.333293 kJ/mol
# Density = 2.020164 g / cm^3
# Si number density = 20.247728 Si / 1000 Ang^3
#
#
#
# Elastic Constant Matrix: (Units=GPa)
#
#
# Indices 1 2 3 4 5 6 
#
# 1 96.9895 15.0268 21.4703 0.0000 0.0000 0.0000
# 2 15.0268 43.5584 12.9013 0.0000 0.0000 0.0000
# 3 21.4703 12.9013 105.3576 0.0000 0.0000 0.0000
# 4 0.0000 0.0000 0.0000 40.6409 0.0000 0.0000
# 5 0.0000 0.0000 0.0000 0.0000 41.8551 0.0000
# 6 0.0000 0.0000 0.0000 0.0000 0.0000 9.5723
#
#
#
# Elastic Compliance Matrix: (Units=1/GPa)
#
#
# Indices 1 2 3 4 5 6 
#
# 1 0.011242 -0.003320 -0.001884 0.000000 0.000000 0.000000
# 2 -0.003320 0.024802 -0.002361 0.000000 0.000000 0.000000
# 3 -0.001884 -0.002361 0.010165 0.000000 0.000000 0.000000
# 4 0.000000 0.000000 0.000000 0.024606 0.000000 0.000000
# 5 0.000000 0.000000 0.000000 0.000000 0.023892 0.000000
# 6 0.000000 0.000000 0.000000 0.000000 0.000000 0.104468
#
#
# Mechanical properties :
#
#
# Convention : Reuss Voigt Hill
#
# Bulk Modulus (GPa) = 32.17642 38.30027 35.23835
# Shear Modulus (GPa) = 22.25549 31.51414 26.88481
#
# Velocity S-wave (km/s) = 3.31895 3.94944 3.64784
# Velocity P-wave (km/s) = 5.53292 6.30510 5.93159
#
# Compressibility (1/GPa) = 0.03107866
#
# Stress axis : x y z
#
# Youngs Moduli (GPa) = 88.95277 40.31902 98.38115
#
# Poissons Ratio (x) = 0.13386 0.18539
# Poissons Ratio (y) = 0.29533 0.23223
# Poissons Ratio (z) = 0.16762 0.09517
#
# Static dielectric constant tensor:
#      x y z
#    x 1.754230 0.000000 0.000000 
#    y 0.000000 1.742070 0.000000 
#    z 0.000000 0.000000 1.742850 
# 
# From -- ./inp_files/40278.got.cif
#   From: 2010.05.17/outbox.cif.g08.bks.cpg/sg64_21_cif.got.tgz:40278.got - 2010.06.03 16:29:19.
