data_PCOD9479000
_publ_section_title
;
Structure prediction by ZEFSAII (Michael W. Deem and Ramdas Pophale) SiO2 
 PCOD9479000
Probable space group: C M C A
;
_chemical_formula_sum "Si O2"
_cell_formula_units_Z 64
_cell_length_a 20.173971
_cell_length_b 8.799868
_cell_length_c 17.651975
_cell_angle_alpha 90.000000
_cell_angle_beta 90.000000
_cell_angle_gamma 90.000000
_cell_volume 3133.724793
_symmetry_space_group_name_H-M "C M C A"
_symmetry_group_IT_number 64
_symmetry_cell_setting 'orthorhombic'
loop_
_space_group_symop_operation_xyz
x,y,z
-x,1/2-y,1/2+z
x,-y,-z
-x,1/2+y,1/2-z
-x,-y,-z
x,1/2+y,1/2-z
-x,y,z
x,1/2-y,1/2+z
1/2+x,1/2+y,z
1/2-x,-y,1/2+z
1/2+x,1/2-y,-z
1/2-x,y,1/2-z
1/2-x,1/2-y,-z
1/2+x,y,1/2-z
1/2-x,1/2+y,z
1/2+x,-y,1/2+z
loop_
_atom_site_type_symbol
_atom_site_label
_atom_site_fract_x
_atom_site_fract_y
_atom_site_fract_z
Si Si1 0.797413 0.142944 0.049718
Si Si2 0.072093 0.308231 0.639525
Si Si3 0.115277 0.103225 0.776723
Si Si4 0.702411 0.863299 0.814084
O O1 0.863185 0.216149 0.087028
O O2 0.748930 0.089252 0.117448
O O3 0.750000 0.250000 0.000000
O O4 0.818684 0.000000 0.000000
O O5 0.076796 0.199164 0.713074
O O6 0.078162 0.479505 0.672473
O O7 0.000000 0.286755 0.602828
O O8 0.150848 0.228264 0.829812
O O9 0.165866 0.001662 0.726838
O O10 0.750000 0.794786 0.750000
#
# Coordination Sequence:
#
# PCOD9479000 Si02
#       4
#    16  16  16  16
#     4  12  25  38  59  91 123 160 203 252 310 367
#     4  11  23  39  60  88 127 163 203 252 310 375
#     4  10  20  36  64  94 114 155 205 260 308 352
#     4  11  20  36  66  88 121 151 206 265 303 348
#
# _framework density 20.422979000000002
#
# number of rings (size 3 to 8) (size 9 to 14) (size 15 to 20)
#    0.000    1.000    5.000    4.500    0.000    0.500 
#    0.000    0.000    0.000    8.250    0.000    0.000 
#    0.000    0.000    0.000    0.000    0.000    0.000 
#
# Total GULP energy -178636.453069 kJ/mol
# GULP energy per Si atom -5582.389158 kJ/mol
# Density = 2.037650 g / cm^3
# Si number density = 20.422979 Si / 1000 Ang^3
#
#
#
# Elastic Constant Matrix: (Units=GPa)
#
#
# Indices 1 2 3 4 5 6 
#
# 1 132.7252 18.1756 28.4252 0.0000 0.0000 0.0000
# 2 18.1756 71.9459 -5.2742 0.0000 0.0000 0.0000
# 3 28.4252 -5.2742 61.8518 0.0000 0.0000 0.0000
# 4 0.0000 0.0000 0.0000 30.5899 0.0000 0.0000
# 5 0.0000 0.0000 0.0000 0.0000 16.3340 0.0000
# 6 0.0000 0.0000 0.0000 0.0000 0.0000 8.2128
#
#
#
# Elastic Compliance Matrix: (Units=1/GPa)
#
#
# Indices 1 2 3 4 5 6 
#
# 1 0.008793 -0.002533 -0.004257 0.000000 0.000000 0.000000
# 2 -0.002533 0.014717 0.002419 0.000000 0.000000 0.000000
# 3 -0.004257 0.002419 0.018330 0.000000 0.000000 0.000000
# 4 0.000000 0.000000 0.000000 0.032691 0.000000 0.000000
# 5 0.000000 0.000000 0.000000 0.000000 0.061222 0.000000
# 6 0.000000 0.000000 0.000000 0.000000 0.000000 0.121761
#
#
# Mechanical properties :
#
#
# Convention : Reuss Voigt Hill
#
# Bulk Modulus (GPa) = 30.21371 38.79735 34.50553
# Shear Modulus (GPa) = 18.03174 26.04042 22.03608
#
# Velocity S-wave (km/s) = 2.97461 3.57467 3.28835
# Velocity P-wave (km/s) = 5.15983 6.00631 5.59909
#
# Compressibility (1/GPa) = 0.03309756
#
# Stress axis : x y z
#
# Youngs Moduli (GPa) = 113.72672 67.94997 54.55427
#
# Poissons Ratio (x) = 0.17215 0.23224
# Poissons Ratio (y) = 0.28812 -0.13198
# Poissons Ratio (z) = 0.48414 -0.16439
#
# Static dielectric constant tensor:
#      x y z
#    x 1.795350 0.000000 0.000000 
#    y 0.000000 1.733660 0.000000 
#    z 0.000000 0.000000 1.734580 
# 
# From -- ./inp_files/33862.got.cif
#   From: 2010.05.17/outbox.cif.g08.bks.cpg/sg64_17_cif.got.tgz:33862.got - 2010.06.03 16:29:19.
