data_PCOD9479228
_publ_section_title
;
Structure prediction by ZEFSAII (Michael W. Deem and Ramdas Pophale) SiO2 
 PCOD9479228
Probable space group: C M C A
;
_chemical_formula_sum "Si O2"
_cell_formula_units_Z 100
_cell_length_a 7.668147
_cell_length_b 29.032909
_cell_length_c 21.884253
_cell_angle_alpha 90.000000
_cell_angle_beta 90.000000
_cell_angle_gamma 90.000000
_cell_volume 4872.060915
_symmetry_space_group_name_H-M "C M C A"
_symmetry_group_IT_number 64
_symmetry_cell_setting 'orthorhombic'
loop_
_space_group_symop_operation_xyz
x,y,z
-x,1/2-y,1/2+z
x,-y,-z
-x,1/2+y,1/2-z
-x,-y,-z
x,1/2+y,1/2-z
-x,y,z
x,1/2-y,1/2+z
1/2+x,1/2+y,z
1/2-x,-y,1/2+z
1/2+x,1/2-y,-z
1/2-x,y,1/2-z
1/2-x,1/2-y,-z
1/2+x,y,1/2-z
1/2-x,1/2+y,z
1/2+x,-y,1/2+z
loop_
_atom_site_type_symbol
_atom_site_label
_atom_site_fract_x
_atom_site_fract_y
_atom_site_fract_z
Si Si1 0.789849 0.276166 0.936291
Si Si2 0.298566 0.528410 0.422687
Si Si3 0.790202 0.715774 0.679001
Si Si4 0.291092 0.625284 0.476603
Si Si5 0.707357 0.026874 0.679775
Si Si6 0.500000 0.000000 0.500000
Si Si7 0.209753 0.879168 0.120028
O O1 0.726910 0.250391 0.874850
O O2 0.000000 0.277820 0.932147
O O3 0.750000 0.250000 0.000000
O O4 0.723954 0.328357 0.944740
O O5 0.500000 0.522959 0.441470
O O6 0.228837 0.577743 0.446005
O O7 0.287938 0.518375 0.351302
O O8 0.157422 0.492851 0.449674
O O9 0.750000 0.726178 0.750000
O O10 0.727073 0.664915 0.658728
O O11 0.000000 0.715531 0.674599
O O12 0.500000 0.624750 0.469961
O O13 0.250796 0.626499 0.548471
O O14 0.500000 0.024911 0.674346
O O15 0.750000 0.030415 0.750000
O O16 0.777953 0.072860 0.646453
O O17 0.000000 0.879988 0.125352
#
# Coordination Sequence:
#
# PCOD9479228 Si02
#       7
#    16  16  16  16  16   4  16
#     4  10  20  38  60  89 120 158 204 254 307 366
#     4  11  24  41  61  92 128 168 209 264 319 373
#     4  10  21  37  57  85 122 160 200 249 306 370
#     4  10  22  37  60  89 123 160 202 254 314 372
#     4  11  23  40  61  88 125 169 213 257 312 384
#     4  12  22  40  64  94 128 156 214 266 316 378
#     4  10  21  35  57  87 120 158 197 248 308 372
#
# _framework density 20.525195
#
# number of rings (size 3 to 8) (size 9 to 14) (size 15 to 20)
#    0.000    1.600    2.400    2.160    3.360    3.840 
#    0.000    0.800    0.000    1.920    0.000    0.000 
#    0.000    0.000    0.000    0.000    0.000    0.000 
#
# Total GULP energy -278606.210197 kJ/mol
# GULP energy per Si atom -5572.124204 kJ/mol
# Density = 2.047848 g / cm^3
# Si number density = 20.525195 Si / 1000 Ang^3
#
#
#
# Elastic Constant Matrix: (Units=GPa)
#
#
# Indices 1 2 3 4 5 6 
#
# 1 73.3680 7.9147 1.9258 0.0000 0.0000 0.0000
# 2 7.9147 110.4374 92.6805 0.0000 0.0000 0.0000
# 3 1.9258 92.6805 171.4824 0.0000 0.0000 0.0000
# 4 0.0000 0.0000 0.0000 35.6176 0.0000 0.0000
# 5 0.0000 0.0000 0.0000 0.0000 33.9312 0.0000
# 6 0.0000 0.0000 0.0000 0.0000 0.0000 6.2129
#
#
#
# Elastic Compliance Matrix: (Units=1/GPa)
#
#
# Indices 1 2 3 4 5 6 
#
# 1 0.013781 -0.001570 0.000694 0.000000 0.000000 0.000000
# 2 -0.001570 0.016750 -0.009035 0.000000 0.000000 0.000000
# 3 0.000694 -0.009035 0.010707 0.000000 0.000000 0.000000
# 4 0.000000 0.000000 0.000000 0.028076 0.000000 0.000000
# 5 0.000000 0.000000 0.000000 0.000000 0.029471 0.000000
# 6 0.000000 0.000000 0.000000 0.000000 0.000000 0.160956
#
#
# Mechanical properties :
#
#
# Convention : Reuss Voigt Hill
#
# Bulk Modulus (GPa) = 46.69556 62.25887 54.47722
# Shear Modulus (GPa) = 17.43975 32.00345 24.72160
#
# Velocity S-wave (km/s) = 2.91808 3.95299 3.47429
# Velocity P-wave (km/s) = 5.84409 7.15776 6.53402
#
# Compressibility (1/GPa) = 0.02141531
#
# Stress axis : x y z
#
# Youngs Moduli (GPa) = 72.56339 59.70243 93.39808
#
# Poissons Ratio (x) = 0.09372 -0.06478
# Poissons Ratio (y) = 0.11391 0.84386
# Poissons Ratio (z) = -0.05033 0.53941
#
# Static dielectric constant tensor:
#      x y z
#    x 1.730840 0.000000 0.000000 
#    y 0.000000 1.803320 0.000000 
#    z 0.000000 0.000000 1.775900 
# 
# From -- ./inp_files/37191.got.cif
#   From: 2010.05.17/outbox.cif.g08.bks.cpg/sg64_19_cif.got.tgz:37191.got - 2010.06.03 16:29:19.
