data_PCOD9479091
_publ_section_title
;
Structure prediction by ZEFSAII (Michael W. Deem and Ramdas Pophale) SiO2 
 PCOD9479091
Probable space group: C M C A
;
_chemical_formula_sum "Si O2"
_cell_formula_units_Z 80
_cell_length_a 10.305913
_cell_length_b 20.811925
_cell_length_c 20.921467
_cell_angle_alpha 90.000000
_cell_angle_beta 90.000000
_cell_angle_gamma 90.000000
_cell_volume 4487.359436
_symmetry_space_group_name_H-M "C M C A"
_symmetry_group_IT_number 64
_symmetry_cell_setting 'orthorhombic'
loop_
_space_group_symop_operation_xyz
x,y,z
-x,1/2-y,1/2+z
x,-y,-z
-x,1/2+y,1/2-z
-x,-y,-z
x,1/2+y,1/2-z
-x,y,z
x,1/2-y,1/2+z
1/2+x,1/2+y,z
1/2-x,-y,1/2+z
1/2+x,1/2-y,-z
1/2-x,y,1/2-z
1/2-x,1/2-y,-z
1/2+x,y,1/2-z
1/2-x,1/2+y,z
1/2+x,-y,1/2+z
loop_
_atom_site_type_symbol
_atom_site_label
_atom_site_fract_x
_atom_site_fract_y
_atom_site_fract_z
Si Si1 0.500000 0.439923 0.047344
Si Si2 0.246669 0.114227 0.325518
Si Si3 0.753914 0.353355 0.036256
Si Si4 0.500000 0.055715 0.944066
Si Si5 0.000000 0.031362 0.166919
Si Si6 0.157650 0.225381 0.410817
Si Si7 0.500000 0.027032 0.178777
O O1 0.625865 0.396940 0.032802
O O2 0.500000 0.470278 0.119330
O O3 0.500000 0.500000 0.000000
O O4 0.250000 0.121025 0.250000
O O5 0.375127 0.076164 0.346436
O O6 0.218164 0.183274 0.354640
O O7 0.124925 0.068841 0.339334
O O8 0.717685 0.296475 0.085600
O O9 0.873163 0.400288 0.049454
O O10 0.795151 0.314692 0.972744
O O11 0.500000 0.030193 0.871446
O O12 0.500000 0.000000 0.000000
O O13 0.000000 0.014746 0.243916
O O14 0.000000 0.227869 0.408926
#
# Coordination Sequence:
#
# PCOD9479091 Si02
#       7
#     8  16  16   8   8  16   8
#     4  12  22  38  57  86 123 152 196 251 294 351
#     4  10  20  37  63  90 114 155 203 239 286 348
#     4  11  24  37  61  90 114 156 198 238 303 353
#     4  12  22  38  61  92 121 154 198 241 292 363
#     4  10  22  37  57  91 121 154 196 247 299 345
#     4  11  21  41  62  83 122 154 191 251 298 342
#     4  10  20  37  61  85 123 158 192 241 295 355
#
# _framework density 17.827856000000001
#
# number of rings (size 3 to 8) (size 9 to 14) (size 15 to 20)
#    0.000    1.200    3.000    4.200    0.000    0.800 
#    0.000    2.000    0.000    0.000    0.000    0.000 
#    0.000    0.000    0.000    0.000    0.000    0.000 
#
# Total GULP energy -223137.501373 kJ/mol
# GULP energy per Si atom -5578.437534 kJ/mol
# Density = 1.778728 g / cm^3
# Si number density = 17.827856 Si / 1000 Ang^3
#
#
#
# Elastic Constant Matrix: (Units=GPa)
#
#
# Indices 1 2 3 4 5 6 
#
# 1 175.7457 71.2182 26.6902 0.0000 0.0000 0.0000
# 2 71.2182 130.1369 35.5520 0.0000 0.0000 0.0000
# 3 26.6902 35.5520 20.1668 0.0000 0.0000 0.0000
# 4 0.0000 0.0000 0.0000 64.5124 0.0000 0.0000
# 5 0.0000 0.0000 0.0000 0.0000 37.3624 0.0000
# 6 0.0000 0.0000 0.0000 0.0000 0.0000 36.3354
#
#
#
# Elastic Compliance Matrix: (Units=1/GPa)
#
#
# Indices 1 2 3 4 5 6 
#
# 1 0.007589 -0.002719 -0.005252 0.000000 0.000000 0.000000
# 2 -0.002719 0.015797 -0.024250 0.000000 0.000000 0.000000
# 3 -0.005252 -0.024250 0.099287 0.000000 0.000000 0.000000
# 4 0.000000 0.000000 0.000000 0.015501 0.000000 0.000000
# 5 0.000000 0.000000 0.000000 0.000000 0.026765 0.000000
# 6 0.000000 0.000000 0.000000 0.000000 0.000000 0.027521
#
#
# Mechanical properties :
#
#
# Convention : Reuss Voigt Hill
#
# Bulk Modulus (GPa) = 17.17249 65.88557 41.52903
# Shear Modulus (GPa) = 18.09546 40.48131 29.28838
#
# Velocity S-wave (km/s) = 3.18938 4.77033 4.05760
# Velocity P-wave (km/s) = 4.81832 8.20842 6.73032
#
# Compressibility (1/GPa) = 0.05823266
#
# Stress axis : x y z
#
# Youngs Moduli (GPa) = 131.76524 63.30370 10.07178
#
# Poissons Ratio (x) = 0.17210 0.05289
# Poissons Ratio (y) = 0.35822 0.24424
# Poissons Ratio (z) = 0.69198 1.53513
#
# Static dielectric constant tensor:
#      x y z
#    x 1.689300 0.000000 0.000000 
#    y 0.000000 1.632990 0.000000 
#    z 0.000000 0.000000 1.641370 
# 
# From -- ./inp_files/38058.got.cif
#   From: 2010.05.17/outbox.cif.g08.bks.cpg/sg64_20_cif.got.tgz:38058.got - 2010.06.03 16:29:19.
