data_PCOD9479950
_publ_section_title
;
Structure prediction by ZEFSAII (Michael W. Deem and Ramdas Pophale) SiO2 
 PCOD9479950
Probable space group: C M C A
;
_chemical_formula_sum "Si O2"
_cell_formula_units_Z 112
_cell_length_a 15.944334
_cell_length_b 29.259812
_cell_length_c 11.229197
_cell_angle_alpha 90.000000
_cell_angle_beta 90.000000
_cell_angle_gamma 90.000000
_cell_volume 5238.737236
_symmetry_space_group_name_H-M "C M C A"
_symmetry_group_IT_number 64
_symmetry_cell_setting 'orthorhombic'
loop_
_space_group_symop_operation_xyz
x,y,z
-x,1/2-y,1/2+z
x,-y,-z
-x,1/2+y,1/2-z
-x,-y,-z
x,1/2+y,1/2-z
-x,y,z
x,1/2-y,1/2+z
1/2+x,1/2+y,z
1/2-x,-y,1/2+z
1/2+x,1/2-y,-z
1/2-x,y,1/2-z
1/2-x,1/2-y,-z
1/2+x,y,1/2-z
1/2-x,1/2+y,z
1/2+x,-y,1/2+z
loop_
_atom_site_type_symbol
_atom_site_label
_atom_site_fract_x
_atom_site_fract_y
_atom_site_fract_z
Si Si1 0.324063 0.226286 0.157377
Si Si2 0.225470 0.184081 0.951450
Si Si3 0.907519 0.551052 0.550927
Si Si4 0.592097 0.666082 0.159778
Si Si5 0.406046 0.584526 0.333947
Si Si6 0.656686 0.516115 0.706667
Si Si7 0.772371 0.410818 0.028811
O O1 0.250000 0.214791 0.250000
O O2 0.318123 0.280744 0.138630
O O3 0.397744 0.200959 0.227529
O O4 0.301983 0.207554 0.025472
O O5 0.258037 0.136246 0.900379
O O6 0.158597 0.173380 0.055603
O O7 0.911030 0.500000 0.500000
O O8 0.889311 0.545185 0.691510
O O9 0.821389 0.571932 0.501235
O O10 0.000000 0.572120 0.530059
O O11 0.500000 0.672934 0.108770
O O12 0.598593 0.615646 0.216744
O O13 0.500000 0.591788 0.384494
O O14 0.393055 0.530479 0.314761
O O15 0.329018 0.600302 0.415453
O O16 0.750000 0.502212 0.750000
O O17 0.677245 0.549330 0.596773
#
# Coordination Sequence:
#
# PCOD9479950 Si02
#       7
#    16  16  16  16  16  16  16
#     4   9  19  39  63  89 118 160 201 254 316 384
#     4  10  21  37  64  90 121 159 206 257 319 389
#     4  10  22  39  57  83 121 163 206 256 315 379
#     4  10  22  38  61  95 126 163 211 263 324 388
#     4  11  23  38  60  89 124 166 215 269 322 377
#     4  10  22  37  58  86 120 165 211 261 317 378
#     4  11  22  38  61  90 123 162 212 262 315 382
#
# _framework density 21.379197999999999
#
# number of rings (size 3 to 8) (size 9 to 14) (size 15 to 20)
#    0.000    1.857    1.429    2.571    4.000    4.571 
#    0.000    0.000    0.000    0.000    0.000    0.000 
#    0.000    0.000    0.000    0.000    0.000    0.000 
#
# Total GULP energy -312379.669480 kJ/mol
# GULP energy per Si atom -5578.208384 kJ/mol
# Density = 2.133054 g / cm^3
# Si number density = 21.379198 Si / 1000 Ang^3
#
#
#
# Elastic Constant Matrix: (Units=GPa)
#
#
# Indices 1 2 3 4 5 6 
#
# 1 102.7599 -6.1281 11.7587 0.0000 0.0000 0.0000
# 2 -6.1281 62.2186 -14.1415 0.0000 0.0000 0.0000
# 3 11.7587 -14.1415 34.1634 0.0000 0.0000 0.0000
# 4 0.0000 0.0000 0.0000 35.1790 0.0000 0.0000
# 5 0.0000 0.0000 0.0000 0.0000 8.2242 0.0000
# 6 0.0000 0.0000 0.0000 0.0000 0.0000 8.4492
#
#
#
# Elastic Compliance Matrix: (Units=1/GPa)
#
#
# Indices 1 2 3 4 5 6 
#
# 1 0.010133 0.000227 -0.003394 0.000000 0.000000 0.000000
# 2 0.000227 0.017747 0.007268 0.000000 0.000000 0.000000
# 3 -0.003394 0.007268 0.033448 0.000000 0.000000 0.000000
# 4 0.000000 0.000000 0.000000 0.028426 0.000000 0.000000
# 5 0.000000 0.000000 0.000000 0.000000 0.121592 0.000000
# 6 0.000000 0.000000 0.000000 0.000000 0.000000 0.118354
#
#
# Mechanical properties :
#
#
# Convention : Reuss Voigt Hill
#
# Bulk Modulus (GPa) = 14.38250 20.23556 17.30903
# Shear Modulus (GPa) = 14.50645 24.21402 19.36024
#
# Velocity S-wave (km/s) = 2.60769 3.36906 3.01252
# Velocity P-wave (km/s) = 3.97601 4.96182 4.49602
#
# Compressibility (1/GPa) = 0.06952893
#
# Stress axis : x y z
#
# Youngs Moduli (GPa) = 98.68444 56.34886 29.89740
#
# Poissons Ratio (x) = -0.01277 0.10147
# Poissons Ratio (y) = -0.02237 -0.21729
# Poissons Ratio (z) = 0.33493 -0.40954
#
# Static dielectric constant tensor:
#      x y z
#    x 1.768890 0.000000 0.000000 
#    y 0.000000 1.824620 0.000000 
#    z 0.000000 0.000000 1.787620 
# 
# From -- ./inp_files/14964.got.cif
#   From: 2010.05.17/outbox.cif.g08.bks.cpg/sg64_8_cif.got.tgz:14964.got - 2010.06.03 16:29:19.
