data_PCOD9479022
_publ_section_title
;
Structure prediction by ZEFSAII (Michael W. Deem and Ramdas Pophale) SiO2 
 PCOD9479022
Probable space group: C M C A
;
_chemical_formula_sum "Si O2"
_cell_formula_units_Z 112
_cell_length_a 15.218507
_cell_length_b 26.290984
_cell_length_c 14.725816
_cell_angle_alpha 90.000000
_cell_angle_beta 90.000000
_cell_angle_gamma 90.000000
_cell_volume 5891.939231
_symmetry_space_group_name_H-M "C M C A"
_symmetry_group_IT_number 64
_symmetry_cell_setting 'orthorhombic'
loop_
_space_group_symop_operation_xyz
x,y,z
-x,1/2-y,1/2+z
x,-y,-z
-x,1/2+y,1/2-z
-x,-y,-z
x,1/2+y,1/2-z
-x,y,z
x,1/2-y,1/2+z
1/2+x,1/2+y,z
1/2-x,-y,1/2+z
1/2+x,1/2-y,-z
1/2-x,y,1/2-z
1/2-x,1/2-y,-z
1/2+x,y,1/2-z
1/2-x,1/2+y,z
1/2+x,-y,1/2+z
loop_
_atom_site_type_symbol
_atom_site_label
_atom_site_fract_x
_atom_site_fract_y
_atom_site_fract_z
Si Si1 0.395412 0.082281 0.793789
Si Si2 0.647369 0.151663 0.102866
Si Si3 0.303800 0.070814 0.413929
Si Si4 0.096261 0.319202 0.089733
Si Si5 0.094629 0.350395 0.695036
Si Si6 0.770430 0.260538 0.651914
Si Si7 0.715670 0.546481 0.877650
O O1 0.500000 0.065841 0.797110
O O2 0.396402 0.140531 0.828209
O O3 0.349498 0.072157 0.696141
O O4 0.319181 0.057791 0.858500
O O5 0.721259 0.108032 0.101300
O O6 0.597527 0.141717 0.196750
O O7 0.687455 0.209093 0.112324
O O8 0.600161 0.151373 0.006190
O O9 0.381099 0.099362 0.360787
O O10 0.311945 0.065108 0.522360
O O11 0.293161 0.014443 0.374573
O O12 0.177562 0.280637 0.094252
O O13 0.000000 0.294144 0.096367
O O14 0.164464 0.307175 0.672821
O O15 0.000000 0.331824 0.667003
O O16 0.750000 0.236667 0.750000
#
# Coordination Sequence:
#
# PCOD9479022 Si02
#       7
#    16  16  16  16  16  16  16
#     4  10  23  39  59  89 120 153 196 243 297 356
#     4  10  20  37  56  86 116 153 198 237 292 358
#     4  10  21  39  62  83 111 158 201 241 300 355
#     4  11  21  36  58  86 118 152 192 243 297 353
#     4  10  21  37  57  87 121 152 196 254 295 349
#     4   9  20  35  59  82 114 157 200 235 292 360
#     4  10  22  41  62  84 120 157 197 253 299 353
#
# _framework density 19.009022000000002
#
# number of rings (size 3 to 8) (size 9 to 14) (size 15 to 20)
#    0.000    2.000    1.429    2.571    6.000    1.143 
#    0.000    3.571    0.000    6.857    0.000    0.000 
#    0.000    0.000    0.000    0.000    0.000    0.000 
#
# Total GULP energy -311788.689538 kJ/mol
# GULP energy per Si atom -5567.655170 kJ/mol
# Density = 1.896576 g / cm^3
# Si number density = 19.009022 Si / 1000 Ang^3
#
#
#
# Elastic Constant Matrix: (Units=GPa)
#
#
# Indices 1 2 3 4 5 6 
#
# 1 85.3947 13.8530 40.7858 0.0000 0.0000 0.0000
# 2 13.8530 44.3776 38.7410 0.0000 0.0000 0.0000
# 3 40.7858 38.7410 97.1274 0.0000 0.0000 0.0000
# 4 0.0000 0.0000 0.0000 28.1543 0.0000 0.0000
# 5 0.0000 0.0000 0.0000 0.0000 6.7417 0.0000
# 6 0.0000 0.0000 0.0000 0.0000 0.0000 -90.1834
#
#
#
# Elastic Compliance Matrix: (Units=1/GPa)
#
#
# Indices 1 2 3 4 5 6 
#
# 1 0.014692 0.001227 -0.006659 0.000000 0.000000 0.000000
# 2 0.001227 0.034675 -0.014346 0.000000 0.000000 0.000000
# 3 -0.006659 -0.014346 0.018814 0.000000 0.000000 0.000000
# 4 0.000000 0.000000 0.000000 0.035519 0.000000 0.000000
# 5 0.000000 0.000000 0.000000 0.000000 0.148332 0.000000
# 6 0.000000 0.000000 0.000000 0.000000 0.000000 -0.011089
#
#
# Mechanical properties :
#
#
# Convention : Reuss Voigt Hill
#
# Bulk Modulus (GPa) = 34.93468 45.96213 40.44840
# Shear Modulus (GPa) = 17.23911 -2.15616 7.54147
#
# Velocity S-wave (km/s) = 3.01473 -1.06618 1.99397
# Velocity P-wave (km/s) = 5.52594 4.76612 5.16003
#
# Compressibility (1/GPa) = 0.02862485
#
# Stress axis : x y z
#
# Youngs Moduli (GPa) = 68.06630 28.83962 53.15234
#
# Poissons Ratio (x) = -0.03538 0.35392
# Poissons Ratio (y) = -0.08350 0.76251
# Poissons Ratio (z) = 0.45322 0.41372
#
# Static dielectric constant tensor:
#      x y z
#    x 1.803970 0.000000 0.000000 
#    y 0.000000 1.635180 0.000000 
#    z 0.000000 0.000000 1.684350 
# 
# From -- ./inp_files/24249.got.cif
#   From: 2010.05.17/outbox.cif.g08.bks.cpg/sg64_13_cif.got.tgz:24249.got - 2010.06.03 16:29:19.
