data_PCOD9479311
_publ_section_title
;
Structure prediction by ZEFSAII (Michael W. Deem and Ramdas Pophale) SiO2 
 PCOD9479311
Probable space group: C M C A
;
_chemical_formula_sum "Si O2"
_cell_formula_units_Z 112
_cell_length_a 14.056999
_cell_length_b 15.475968
_cell_length_c 24.284231
_cell_angle_alpha 90.000000
_cell_angle_beta 90.000000
_cell_angle_gamma 90.000000
_cell_volume 5282.929223
_symmetry_space_group_name_H-M "C M C A"
_symmetry_group_IT_number 64
_symmetry_cell_setting 'orthorhombic'
loop_
_space_group_symop_operation_xyz
x,y,z
-x,1/2-y,1/2+z
x,-y,-z
-x,1/2+y,1/2-z
-x,-y,-z
x,1/2+y,1/2-z
-x,y,z
x,1/2-y,1/2+z
1/2+x,1/2+y,z
1/2-x,-y,1/2+z
1/2+x,1/2-y,-z
1/2-x,y,1/2-z
1/2-x,1/2-y,-z
1/2+x,y,1/2-z
1/2-x,1/2+y,z
1/2+x,-y,1/2+z
loop_
_atom_site_type_symbol
_atom_site_label
_atom_site_fract_x
_atom_site_fract_y
_atom_site_fract_z
Si Si1 0.282883 0.279654 0.560007
Si Si2 0.884131 0.466493 0.268329
Si Si3 0.885986 0.045858 0.444863
Si Si4 0.391705 0.228703 0.373018
Si Si5 0.115791 0.695044 0.658589
Si Si6 0.611571 0.664009 0.250130
Si Si7 0.886208 0.077053 0.648060
O O1 0.250000 0.250000 0.500000
O O2 0.358268 0.355566 0.554172
O O3 0.189721 0.315415 0.591794
O O4 0.332793 0.211008 0.600714
O O5 0.858109 0.398389 0.315906
O O6 0.853236 0.566811 0.263281
O O7 0.852243 0.425159 0.210462
O O8 0.000000 0.468585 0.271309
O O9 0.000000 0.037227 0.444118
O O10 0.850061 0.000000 0.500000
O O11 0.847946 0.998485 0.390396
O O12 0.500000 0.205693 0.388401
O O13 0.382327 0.212814 0.307973
O O14 0.376144 0.331017 0.381017
O O15 0.147389 0.773081 0.700848
O O16 0.000000 0.699278 0.654145
O O17 0.500000 0.652764 0.264008
O O18 0.000000 0.063919 0.653249
#
# Coordination Sequence:
#
# PCOD9479311 Si02
#       7
#    16  16  16  16  16  16  16
#     4  12  26  41  59  90 127 167 217 267 317 381
#     4   9  16  30  58  92 122 156 196 246 317 388
#     4  10  21  40  67  95 123 162 218 274 322 369
#     4  10  21  40  64  87 122 166 206 256 322 389
#     4  10  20  38  64  93 130 165 206 266 328 392
#     4   9  17  34  61  93 126 162 203 253 319 396
#     4   9  16  33  62  92 120 157 204 256 315 376
#
# _framework density 21.20036
#
# number of rings (size 3 to 8) (size 9 to 14) (size 15 to 20)
#    0.000    2.143    1.429    2.143    0.000    5.143 
#    5.143    0.000    0.000    0.429    0.000    0.000 
#    0.000    0.000    0.000    0.000    0.000    0.000 
#
# Total GULP energy -312546.053247 kJ/mol
# GULP energy per Si atom -5581.179522 kJ/mol
# Density = 2.115211 g / cm^3
# Si number density = 21.200360 Si / 1000 Ang^3
#
#
#
# Elastic Constant Matrix: (Units=GPa)
#
#
# Indices 1 2 3 4 5 6 
#
# 1 65.4152 9.1806 15.8229 0.0000 0.0000 0.0000
# 2 9.1806 83.5869 33.7437 0.0000 0.0000 0.0000
# 3 15.8229 33.7437 97.7484 0.0000 0.0000 0.0000
# 4 0.0000 0.0000 0.0000 34.4269 0.0000 0.0000
# 5 0.0000 0.0000 0.0000 0.0000 20.8165 0.0000
# 6 0.0000 0.0000 0.0000 0.0000 0.0000 -1.6771
#
#
#
# Elastic Compliance Matrix: (Units=1/GPa)
#
#
# Indices 1 2 3 4 5 6 
#
# 1 0.015959 -0.000825 -0.002299 0.000000 0.000000 0.000000
# 2 -0.000825 0.013943 -0.004680 0.000000 0.000000 0.000000
# 3 -0.002299 -0.004680 0.012218 0.000000 0.000000 0.000000
# 4 0.000000 0.000000 0.000000 0.029047 0.000000 0.000000
# 5 0.000000 0.000000 0.000000 0.000000 0.048039 0.000000
# 6 0.000000 0.000000 0.000000 0.000000 0.000000 -0.596252
#
#
# Mechanical properties :
#
#
# Convention : Reuss Voigt Hill
#
# Bulk Modulus (GPa) = 37.71663 40.47166 39.09415
# Shear Modulus (GPa) = -11.04725 23.24680 6.09978
#
# Velocity S-wave (km/s) = -2.28521 3.31498 1.69807
# Velocity P-wave (km/s) = 3.29640 5.81237 4.72493
#
# Compressibility (1/GPa) = 0.02651350
#
# Stress axis : x y z
#
# Youngs Moduli (GPa) = 62.66170 71.71832 81.84674
#
# Poissons Ratio (x) = 0.05916 0.18813
# Poissons Ratio (y) = 0.05169 0.38303
# Poissons Ratio (z) = 0.14403 0.33563
#
# Static dielectric constant tensor:
#      x y z
#    x 1.821580 0.000000 0.000000 
#    y 0.000000 1.998260 0.000000 
#    z 0.000000 0.000000 1.596790 
# 
# From -- ./inp_files/45268.got.cif
#   From: 2010.05.17/outbox.cif.g08.bks.cpg/sg64_23_cif.got.tgz:45268.got - 2010.06.03 16:29:19.
