data_PCOD9479208
_publ_section_title
;
Structure prediction by ZEFSAII (Michael W. Deem and Ramdas Pophale) SiO2 
 PCOD9479208
Probable space group: C M C A
;
_chemical_formula_sum "Si O2"
_cell_formula_units_Z 96
_cell_length_a 26.356849
_cell_length_b 9.007738
_cell_length_c 19.241219
_cell_angle_alpha 90.000000
_cell_angle_beta 90.000000
_cell_angle_gamma 90.000000
_cell_volume 4568.165367
_symmetry_space_group_name_H-M "C M C A"
_symmetry_group_IT_number 64
_symmetry_cell_setting 'orthorhombic'
loop_
_space_group_symop_operation_xyz
x,y,z
-x,1/2-y,1/2+z
x,-y,-z
-x,1/2+y,1/2-z
-x,-y,-z
x,1/2+y,1/2-z
-x,y,z
x,1/2-y,1/2+z
1/2+x,1/2+y,z
1/2-x,-y,1/2+z
1/2+x,1/2-y,-z
1/2-x,y,1/2-z
1/2-x,1/2-y,-z
1/2+x,y,1/2-z
1/2-x,1/2+y,z
1/2+x,-y,1/2+z
loop_
_atom_site_type_symbol
_atom_site_label
_atom_site_fract_x
_atom_site_fract_y
_atom_site_fract_z
Si Si1 0.141956 0.322993 0.928994
Si Si2 0.810547 0.318572 0.644376
Si Si3 0.877723 0.322186 0.772129
Si Si4 0.107644 0.149893 0.569670
Si Si5 0.056393 0.905803 0.297570
Si Si6 0.268163 0.900269 0.430829
O O1 0.130222 0.271845 0.851266
O O2 0.144692 0.503442 0.925634
O O3 0.189718 0.223760 0.952765
O O4 0.099965 0.310527 0.989523
O O5 0.827646 0.305231 0.724757
O O6 0.863123 0.285566 0.604742
O O7 0.772059 0.197328 0.612693
O O8 0.790063 0.478593 0.622821
O O9 0.896348 0.491003 0.776312
O O10 0.926777 0.244294 0.739154
O O11 0.061194 0.110513 0.619102
O O12 0.000000 0.953099 0.278473
O O13 0.254995 0.000000 0.500000
#
# Coordination Sequence:
#
# PCOD9479208 Si02
#       6
#    16  16  16  16  16  16
#     4  10  20  38  59  85 120 160 203 248 306 360
#     4  11  23  38  58  86 121 161 209 257 306 355
#     4  10  22  40  61  88 125 161 197 253 318 367
#     4   9  20  37  60  86 119 153 198 259 307 364
#     4  10  20  39  65  92 120 157 202 250 316 386
#     4  12  23  36  61  88 116 163 218 254 297 358
#
# _framework density 21.015001000000002
#
# number of rings (size 3 to 8) (size 9 to 14) (size 15 to 20)
#    0.000    1.667    1.667    3.000    2.333    0.667 
#    0.000    9.167    0.000    0.000    0.000    5.833 
#    0.000    0.000    0.000    0.000    0.000    0.000 
#
# Total GULP energy -267274.366000 kJ/mol
# GULP energy per Si atom -5568.215958 kJ/mol
# Density = 2.096717 g / cm^3
# Si number density = 21.015001 Si / 1000 Ang^3
#
#
#
# Elastic Constant Matrix: (Units=GPa)
#
#
# Indices 1 2 3 4 5 6 
#
# 1 64.3127 29.4525 29.1834 0.0000 0.0000 0.0000
# 2 29.4525 64.2383 25.9188 0.0000 0.0000 0.0000
# 3 29.1834 25.9188 157.9644 0.0000 0.0000 0.0000
# 4 0.0000 0.0000 0.0000 21.5276 0.0000 0.0000
# 5 0.0000 0.0000 0.0000 0.0000 21.2131 0.0000
# 6 0.0000 0.0000 0.0000 0.0000 0.0000 17.0412
#
#
#
# Elastic Compliance Matrix: (Units=1/GPa)
#
#
# Indices 1 2 3 4 5 6 
#
# 1 0.020500 -0.008429 -0.002404 0.000000 0.000000 0.000000
# 2 -0.008429 0.020136 -0.001747 0.000000 0.000000 0.000000
# 3 -0.002404 -0.001747 0.007061 0.000000 0.000000 0.000000
# 4 0.000000 0.000000 0.000000 0.046452 0.000000 0.000000
# 5 0.000000 0.000000 0.000000 0.000000 0.047141 0.000000
# 6 0.000000 0.000000 0.000000 0.000000 0.000000 0.058681
#
#
# Mechanical properties :
#
#
# Convention : Reuss Voigt Hill
#
# Bulk Modulus (GPa) = 44.36991 50.62499 47.49745
# Shear Modulus (GPa) = 21.49201 25.42041 23.45621
#
# Velocity S-wave (km/s) = 3.20143 3.48175 3.34453
# Velocity P-wave (km/s) = 5.90126 6.34867 6.12905
#
# Compressibility (1/GPa) = 0.02253779
#
# Stress axis : x y z
#
# Youngs Moduli (GPa) = 48.78016 49.66128 141.61623
#
# Poissons Ratio (x) = 0.41859 0.34049
# Poissons Ratio (y) = 0.41117 0.24737
# Poissons Ratio (z) = 0.11728 0.08675
#
# Static dielectric constant tensor:
#      x y z
#    x 1.748180 0.000000 0.000000 
#    y 0.000000 1.770640 0.000000 
#    z 0.000000 0.000000 1.836050 
# 
# From -- ./inp_files/41783.got.cif
#   From: 2010.05.17/outbox.cif.g08.bks.cpg/sg64_21_cif.got.tgz:41783.got - 2010.06.03 16:29:19.
