data_PCOD9479015
_publ_section_title
;
Structure prediction by ZEFSAII (Michael W. Deem and Ramdas Pophale) SiO2 
 PCOD9479015
Probable space group: C M C A
;
_chemical_formula_sum "Si O2"
_cell_formula_units_Z 60
_cell_length_a 20.097742
_cell_length_b 10.478064
_cell_length_c 10.657194
_cell_angle_alpha 90.000000
_cell_angle_beta 90.000000
_cell_angle_gamma 90.000000
_cell_volume 2244.249748
_symmetry_space_group_name_H-M "C M C A"
_symmetry_group_IT_number 64
_symmetry_cell_setting 'orthorhombic'
loop_
_space_group_symop_operation_xyz
x,y,z
-x,1/2-y,1/2+z
x,-y,-z
-x,1/2+y,1/2-z
-x,-y,-z
x,1/2+y,1/2-z
-x,y,z
x,1/2-y,1/2+z
1/2+x,1/2+y,z
1/2-x,-y,1/2+z
1/2+x,1/2-y,-z
1/2-x,y,1/2-z
1/2-x,1/2-y,-z
1/2+x,y,1/2-z
1/2-x,1/2+y,z
1/2+x,-y,1/2+z
loop_
_atom_site_type_symbol
_atom_site_label
_atom_site_fract_x
_atom_site_fract_y
_atom_site_fract_z
Si Si1 0.681714 0.110941 0.301657
Si Si2 0.000000 0.000000 0.500000
Si Si3 0.076670 0.061012 0.856787
Si Si4 0.620599 0.299011 0.503936
Si Si5 0.766607 0.500000 0.000000
O O1 0.750000 0.172449 0.250000
O O2 0.644089 0.213436 0.387092
O O3 0.619156 0.023341 0.258056
O O4 0.717565 0.997143 0.383332
O O5 0.058096 0.888623 0.483188
O O6 0.000000 0.062717 0.815383
O O7 0.103906 0.202752 0.881901
O O8 0.076882 0.000000 0.000000
O O9 0.685694 0.382899 0.527373
#
# Coordination Sequence:
#
# PCOD9479015 Si02
#       5
#    16   4  16  16   8
#     4  11  23  38  65 101 144 189 234 296 362 435
#     4  10  20  36  74 108 126 182 240 312 382 420
#     4   9  17  35  66  96 130 176 230 295 360 416
#     4  10  20  38  66  98 139 178 238 300 363 436
#     4  11  22  39  61  98 139 184 236 290 359 438
#
# _framework density 26.734992999999999
#
# number of rings (size 3 to 8) (size 9 to 14) (size 15 to 20)
#    0.000    1.867    5.333    0.800    1.867    1.067 
#    0.000    0.000   11.733    1.600    0.000    0.000 
#    0.000    0.000    0.000    0.000    0.000    0.000 
#
# Total GULP energy -167008.503086 kJ/mol
# GULP energy per Si atom -5566.950103 kJ/mol
# Density = 2.667414 g / cm^3
# Si number density = 26.734993 Si / 1000 Ang^3
#
#
#
# Elastic Constant Matrix: (Units=GPa)
#
#
# Indices 1 2 3 4 5 6 
#
# 1 215.3298 97.4635 44.9088 0.0000 0.0000 0.0000
# 2 97.4635 150.5195 16.4951 0.0000 0.0000 0.0000
# 3 44.9088 16.4951 62.0710 0.0000 0.0000 0.0000
# 4 0.0000 0.0000 0.0000 22.2466 0.0000 0.0000
# 5 0.0000 0.0000 0.0000 0.0000 9.0537 0.0000
# 6 0.0000 0.0000 0.0000 0.0000 0.0000 -2.3429
#
#
#
# Elastic Compliance Matrix: (Units=1/GPa)
#
#
# Indices 1 2 3 4 5 6 
#
# 1 0.007531 -0.004408 -0.004278 0.000000 0.000000 0.000000
# 2 -0.004408 0.009423 0.000685 0.000000 0.000000 0.000000
# 3 -0.004278 0.000685 0.019023 0.000000 0.000000 0.000000
# 4 0.000000 0.000000 0.000000 0.044951 0.000000 0.000000
# 5 0.000000 0.000000 0.000000 0.000000 0.110452 0.000000
# 6 0.000000 0.000000 0.000000 0.000000 0.000000 -0.426815
#
#
# Mechanical properties :
#
#
# Convention : Reuss Voigt Hill
#
# Bulk Modulus (GPa) = 50.05841 82.85055 66.45448
# Shear Modulus (GPa) = -23.49889 23.72834 0.11472
#
# Velocity S-wave (km/s) = -2.96794 2.98239 0.20737
# Velocity P-wave (km/s) = 2.64947 6.55106 4.99680
#
# Compressibility (1/GPa) = 0.01997666
#
# Stress axis : x y z
#
# Youngs Moduli (GPa) = 132.78028 106.12659 52.56697
#
# Poissons Ratio (x) = 0.46779 0.22486
# Poissons Ratio (y) = 0.58527 -0.03601
# Poissons Ratio (z) = 0.56797 -0.07270
#
# Static dielectric constant tensor:
#      x y z
#    x 1.995060 0.000000 0.000000 
#    y 0.000000 2.133600 0.000000 
#    z 0.000000 0.000000 1.242380 
# 
# From -- ./inp_files/26010.got.cif
#   From: 2010.05.17/outbox.cif.g08.bks.cpg/sg64_14_cif.got.tgz:26010.got - 2010.06.03 16:29:19.
