data_PCOD9479624
_publ_section_title
;
Structure prediction by ZEFSAII (Michael W. Deem and Ramdas Pophale) SiO2 
 PCOD9479624
Probable space group: C M C A
;
_chemical_formula_sum "Si O2"
_cell_formula_units_Z 128
_cell_length_a 24.216966
_cell_length_b 25.873620
_cell_length_c 11.311367
_cell_angle_alpha 90.000000
_cell_angle_beta 90.000000
_cell_angle_gamma 90.000000
_cell_volume 7087.482848
_symmetry_space_group_name_H-M "C M C A"
_symmetry_group_IT_number 64
_symmetry_cell_setting 'orthorhombic'
loop_
_space_group_symop_operation_xyz
x,y,z
-x,1/2-y,1/2+z
x,-y,-z
-x,1/2+y,1/2-z
-x,-y,-z
x,1/2+y,1/2-z
-x,y,z
x,1/2-y,1/2+z
1/2+x,1/2+y,z
1/2-x,-y,1/2+z
1/2+x,1/2-y,-z
1/2-x,y,1/2-z
1/2-x,1/2-y,-z
1/2+x,y,1/2-z
1/2-x,1/2+y,z
1/2+x,-y,1/2+z
loop_
_atom_site_type_symbol
_atom_site_label
_atom_site_fract_x
_atom_site_fract_y
_atom_site_fract_z
Si Si1 0.559981 0.332182 0.093208
Si Si2 0.804559 0.831262 0.325820
Si Si3 0.130728 0.246350 0.289579
Si Si4 0.176756 0.119054 0.118736
Si Si5 0.357787 0.091178 0.646246
Si Si6 0.285999 0.995338 0.637074
Si Si7 0.769097 0.197712 0.432853
Si Si8 0.938296 0.842811 0.813037
O O1 0.500000 0.318721 0.142639
O O2 0.605486 0.290012 0.125887
O O3 0.579774 0.388126 0.140808
O O4 0.556678 0.333470 0.952728
O O5 0.750000 0.818026 0.250000
O O6 0.843935 0.781200 0.315573
O O7 0.830523 0.879901 0.257763
O O8 0.789934 0.839682 0.461558
O O9 0.179806 0.214950 0.352149
O O10 0.081425 0.209269 0.250546
O O11 0.202753 0.064915 0.155372
O O12 0.218490 0.167469 0.128707
O O13 0.118591 0.123992 0.188437
O O14 0.165506 0.114099 0.977650
O O15 0.340753 0.031497 0.642116
O O16 0.250000 0.013437 0.750000
O O17 0.264462 0.000000 0.500000
O O18 0.750000 0.250000 0.500000
O O19 0.000000 0.860088 0.772628
#
# Coordination Sequence:
#
# PCOD9479624 Si02
#       8
#    16  16  16  16  16  16  16  16
#     4   9  18  35  54  75 102 139 191 237 273 321
#     4  11  18  30  50  74 107 145 170 212 269 338
#     4  11  21  30  49  77 109 142 181 221 272 333
#     4  10  21  34  52  79 108 140 184 226 273 331
#     4   9  18  35  53  76 104 140 180 222 279 333
#     4  10  22  37  58  83 115 148 180 234 292 350
#     4  12  21  31  49  81 113 143 179 218 274 338
#     4  10  21  36  51  68 103 147 180 224 275 321
#
# _framework density 18.060009000000001
#
# number of rings (size 3 to 8) (size 9 to 14) (size 15 to 20)
#    0.000    1.750    2.500    3.750    3.500    0.000 
#    0.000    0.625    0.000    4.500    0.000    0.000 
#    0.000    2.000    0.000    0.000    0.000    0.000 
#
# Total GULP energy -356341.540141 kJ/mol
# GULP energy per Si atom -5567.836565 kJ/mol
# Density = 1.801890 g / cm^3
# Si number density = 18.060009 Si / 1000 Ang^3
#
#
#
# Elastic Constant Matrix: (Units=GPa)
#
#
# Indices 1 2 3 4 5 6 
#
# 1 100.9219 34.8801 18.0522 0.0000 0.0000 0.0000
# 2 34.8801 82.4611 13.4168 0.0000 0.0000 0.0000
# 3 18.0522 13.4168 53.2518 0.0000 0.0000 0.0000
# 4 0.0000 0.0000 0.0000 19.2107 0.0000 0.0000
# 5 0.0000 0.0000 0.0000 0.0000 8.3638 0.0000
# 6 0.0000 0.0000 0.0000 0.0000 0.0000 -23.0265
#
#
#
# Elastic Compliance Matrix: (Units=1/GPa)
#
#
# Indices 1 2 3 4 5 6 
#
# 1 0.012024 -0.004612 -0.002914 0.000000 0.000000 0.000000
# 2 -0.004612 0.014414 -0.002068 0.000000 0.000000 0.000000
# 3 -0.002914 -0.002068 0.020288 0.000000 0.000000 0.000000
# 4 0.000000 0.000000 0.000000 0.052054 0.000000 0.000000
# 5 0.000000 0.000000 0.000000 0.000000 0.119563 0.000000
# 6 0.000000 0.000000 0.000000 0.000000 0.000000 -0.043428
#
#
# Mechanical properties :
#
#
# Convention : Reuss Voigt Hill
#
# Bulk Modulus (GPa) = 36.31432 41.03702 38.67567
# Shear Modulus (GPa) = 24.59637 12.26196 18.42917
#
# Velocity S-wave (km/s) = 3.69443 2.60851 3.19790
# Velocity P-wave (km/s) = 6.19271 5.64308 5.92427
#
# Compressibility (1/GPa) = 0.02753735
#
# Stress axis : x y z
#
# Youngs Moduli (GPa) = 83.16832 69.37613 49.29095
#
# Poissons Ratio (x) = 0.31995 0.14364
# Poissons Ratio (y) = 0.38355 0.10195
# Poissons Ratio (z) = 0.24236 0.14349
#
# Static dielectric constant tensor:
#      x y z
#    x 1.681760 0.000000 0.000000 
#    y 0.000000 1.632870 0.000000 
#    z 0.000000 0.000000 1.639300 
# 
# From -- ./inp_files/18755.got.cif
#   From: 2010.05.17/outbox.cif.g08.bks.cpg/sg64_10_cif.got.tgz:18755.got - 2010.06.03 16:29:19.
