data_PCOD9479783
_publ_section_title
;
Structure prediction by ZEFSAII (Michael W. Deem and Ramdas Pophale) SiO2 
 PCOD9479783
Probable space group: C M C A
;
_chemical_formula_sum "Si O2"
_cell_formula_units_Z 80
_cell_length_a 24.186291
_cell_length_b 32.993779
_cell_length_c 4.972723
_cell_angle_alpha 90.000000
_cell_angle_beta 90.000000
_cell_angle_gamma 90.000000
_cell_volume 3968.218732
_symmetry_space_group_name_H-M "C M C A"
_symmetry_group_IT_number 64
_symmetry_cell_setting 'orthorhombic'
loop_
_space_group_symop_operation_xyz
x,y,z
-x,1/2-y,1/2+z
x,-y,-z
-x,1/2+y,1/2-z
-x,-y,-z
x,1/2+y,1/2-z
-x,y,z
x,1/2-y,1/2+z
1/2+x,1/2+y,z
1/2-x,-y,1/2+z
1/2+x,1/2-y,-z
1/2-x,y,1/2-z
1/2-x,1/2-y,-z
1/2+x,y,1/2-z
1/2-x,1/2+y,z
1/2+x,-y,1/2+z
loop_
_atom_site_type_symbol
_atom_site_label
_atom_site_fract_x
_atom_site_fract_y
_atom_site_fract_z
Si Si1 0.893351 0.473430 0.266252
Si Si2 0.629885 0.358792 0.886547
Si Si3 0.185465 0.276904 0.788024
Si Si4 0.787292 0.429169 0.507337
Si Si5 0.936131 0.885867 0.382903
O O1 0.921371 0.500000 0.500000
O O2 0.836066 0.457832 0.398927
O O3 0.926213 0.433043 0.186938
O O4 0.884038 0.500000 0.000000
O O5 0.648347 0.314613 0.794939
O O6 0.585370 0.377231 0.681184
O O7 0.682379 0.388930 0.884781
O O8 0.602942 0.360906 0.180343
O O9 0.176189 0.239012 0.588167
O O10 0.250000 0.288342 0.750000
O O11 0.750000 0.419374 0.250000
O O12 0.750000 0.446367 0.750000
O O13 0.000000 0.875357 0.351348
#
# Coordination Sequence:
#
# PCOD9479783 Si02
#       5
#    16  16  16  16  16
#     4  11  23  39  57  84 116 148 194 247 297 349
#     4  11  22  40  63  87 120 153 196 246 283 346
#     4  10  21  36  60  94 126 156 186 224 283 345
#     4  11  22  37  58  84 117 159 194 228 285 353
#     4  11  24  42  64  85 109 153 204 250 300 342
#
# _framework density 20.16018
#
# number of rings (size 3 to 8) (size 9 to 14) (size 15 to 20)
#    0.000    1.200    0.000    8.400    0.000    4.800 
#    0.000    2.000    0.000   12.000    0.000    0.000 
#    0.000    0.000    0.000    0.000    0.000    0.000 
#
# Total GULP energy -223777.919128 kJ/mol
# GULP energy per Si atom -5594.447978 kJ/mol
# Density = 2.011429 g / cm^3
# Si number density = 20.160180 Si / 1000 Ang^3
#
#
#
# Elastic Constant Matrix: (Units=GPa)
#
#
# Indices 1 2 3 4 5 6 
#
# 1 39.2411 14.2929 -5.2872 0.0000 0.0000 0.0000
# 2 14.2929 66.3790 -11.4499 0.0000 0.0000 0.0000
# 3 -5.2872 -11.4499 74.8619 0.0000 0.0000 0.0000
# 4 0.0000 0.0000 0.0000 23.1066 0.0000 0.0000
# 5 0.0000 0.0000 0.0000 0.0000 13.0894 0.0000
# 6 0.0000 0.0000 0.0000 0.0000 0.0000 1.7768
#
#
#
# Elastic Compliance Matrix: (Units=1/GPa)
#
#
# Indices 1 2 3 4 5 6 
#
# 1 0.027736 -0.005787 0.001074 0.000000 0.000000 0.000000
# 2 -0.005787 0.016681 0.002143 0.000000 0.000000 0.000000
# 3 0.001074 0.002143 0.013761 0.000000 0.000000 0.000000
# 4 0.000000 0.000000 0.000000 0.043278 0.000000 0.000000
# 5 0.000000 0.000000 0.000000 0.000000 0.076397 0.000000
# 6 0.000000 0.000000 0.000000 0.000000 0.000000 0.562805
#
#
# Mechanical properties :
#
#
# Convention : Reuss Voigt Hill
#
# Bulk Modulus (GPa) = 18.85483 19.51039 19.18261
# Shear Modulus (GPa) = 6.54897 19.78965 13.16931
#
# Velocity S-wave (km/s) = 1.80431 3.13648 2.55862
# Velocity P-wave (km/s) = 3.70318 4.77655 4.27369
#
# Compressibility (1/GPa) = 0.05303681
#
# Stress axis : x y z
#
# Youngs Moduli (GPa) = 36.05432 59.94976 72.66668
#
# Poissons Ratio (x) = 0.34693 -0.07803
# Poissons Ratio (y) = 0.20864 -0.15569
# Poissons Ratio (z) = -0.03871 -0.12845
#
# Static dielectric constant tensor:
#      x y z
#    x 1.680240 0.000000 0.000000 
#    y 0.000000 1.702900 0.000000 
#    z 0.000000 0.000000 1.693400 
# 
# From -- ./inp_files/2342.got.cif
#   From: 2010.05.17/outbox.cif.g08.bks.cpg/sg64_2_cif.got.tgz:2342.got - 2010.06.03 16:29:19.
