data_PCOD9479357
_publ_section_title
;
Structure prediction by ZEFSAII (Michael W. Deem and Ramdas Pophale) SiO2 
 PCOD9479357
Probable space group: C M C A
;
_chemical_formula_sum "Si O2"
_cell_formula_units_Z 128
_cell_length_a 22.164154
_cell_length_b 12.860046
_cell_length_c 20.782775
_cell_angle_alpha 90.000000
_cell_angle_beta 90.000000
_cell_angle_gamma 90.000000
_cell_volume 5923.756755
_symmetry_space_group_name_H-M "C M C A"
_symmetry_group_IT_number 64
_symmetry_cell_setting 'orthorhombic'
loop_
_space_group_symop_operation_xyz
x,y,z
-x,1/2-y,1/2+z
x,-y,-z
-x,1/2+y,1/2-z
-x,-y,-z
x,1/2+y,1/2-z
-x,y,z
x,1/2-y,1/2+z
1/2+x,1/2+y,z
1/2-x,-y,1/2+z
1/2+x,1/2-y,-z
1/2-x,y,1/2-z
1/2-x,1/2-y,-z
1/2+x,y,1/2-z
1/2-x,1/2+y,z
1/2+x,-y,1/2+z
loop_
_atom_site_type_symbol
_atom_site_label
_atom_site_fract_x
_atom_site_fract_y
_atom_site_fract_z
Si Si1 0.272791 0.016503 0.900341
Si Si2 0.371054 0.402671 0.310551
Si Si3 0.631280 0.001858 0.422581
Si Si4 0.689469 0.269149 0.211723
Si Si5 0.907912 0.124605 0.289262
Si Si6 0.804094 0.828939 0.514300
Si Si7 0.116160 0.722416 0.600555
Si Si8 0.932072 0.694677 0.353258
O O1 0.307527 0.055831 0.837902
O O2 0.200734 0.008045 0.899474
O O3 0.293700 0.903714 0.924509
O O4 0.299300 0.094365 0.954188
O O5 0.357269 0.352335 0.241519
O O6 0.413243 0.503961 0.306071
O O7 0.397874 0.305803 0.350700
O O8 0.595523 0.896151 0.403707
O O9 0.633778 0.000000 0.500000
O O10 0.602713 0.105500 0.392739
O O11 0.750000 0.279354 0.250000
O O12 0.662184 0.155022 0.224574
O O13 0.682475 0.284269 0.136127
O O14 0.919761 0.200282 0.351118
O O15 0.936268 0.156320 0.221508
O O16 0.750000 0.750000 0.500000
O O17 0.866390 0.769929 0.531416
O O18 0.000000 0.707427 0.378024
#
# Coordination Sequence:
#
# PCOD9479357 Si02
#       8
#    16  16  16  16  16  16  16  16
#     4  11  22  34  60 102 138 178 217 272 345 420
#     4  11  22  39  65  97 133 178 223 285 352 416
#     4  12  24  41  68 102 141 186 229 285 347 424
#     4   9  19  32  54  88 132 174 204 272 330 414
#     4   9  22  41  61  91 125 169 225 290 347 401
#     4  11  20  34  57  89 139 185 217 258 328 421
#     4  10  20  39  55  91 134 167 234 269 338 410
#     4  11  28  48  70  96 132 187 245 292 343 410
#
# _framework density 21.60791
#
# number of rings (size 3 to 8) (size 9 to 14) (size 15 to 20)
#    0.750    0.750    3.750    1.500    3.500    4.250 
#    0.000    0.000    0.000    0.000    0.000    2.625 
#    0.000    0.000    0.000    0.000    0.000    0.000 
#
# Total GULP energy -356451.802327 kJ/mol
# GULP energy per Si atom -5569.559411 kJ/mol
# Density = 2.155873 g / cm^3
# Si number density = 21.607910 Si / 1000 Ang^3
#
#
#
# Elastic Constant Matrix: (Units=GPa)
#
#
# Indices 1 2 3 4 5 6 
#
# 1 61.6033 29.3776 19.9825 0.0000 0.0000 0.0000
# 2 29.3776 179.2963 33.6544 0.0000 0.0000 0.0000
# 3 19.9825 33.6544 48.6795 0.0000 0.0000 0.0000
# 4 0.0000 0.0000 0.0000 40.7124 0.0000 0.0000
# 5 0.0000 0.0000 0.0000 0.0000 0.6849 0.0000
# 6 0.0000 0.0000 0.0000 0.0000 0.0000 0.8859
#
#
#
# Elastic Compliance Matrix: (Units=1/GPa)
#
#
# Indices 1 2 3 4 5 6 
#
# 1 0.019287 -0.001924 -0.006587 0.000000 0.000000 0.000000
# 2 -0.001924 0.006601 -0.003774 0.000000 0.000000 0.000000
# 3 -0.006587 -0.003774 0.025856 0.000000 0.000000 0.000000
# 4 0.000000 0.000000 0.000000 0.024563 0.000000 0.000000
# 5 0.000000 0.000000 0.000000 0.000000 1.460152 0.000000
# 6 0.000000 0.000000 0.000000 0.000000 0.000000 1.128733
#
#
# Mechanical properties :
#
#
# Convention : Reuss Voigt Hill
#
# Bulk Modulus (GPa) = 36.79996 50.62313 43.71154
# Shear Modulus (GPa) = 1.85266 22.22760 12.04013
#
# Velocity S-wave (km/s) = 0.92696 3.21078 2.36309
# Velocity P-wave (km/s) = 4.26772 6.10118 5.26488
#
# Compressibility (1/GPa) = 0.02717395
#
# Stress axis : x y z
#
# Youngs Moduli (GPa) = 51.84833 151.49385 38.67641
#
# Poissons Ratio (x) = 0.29143 0.25477
# Poissons Ratio (y) = 0.09974 0.14596
# Poissons Ratio (z) = 0.34153 0.57172
#
# Static dielectric constant tensor:
#      x y z
#    x 1.851100 0.000000 0.000000 
#    y 0.000000 1.855310 0.000000 
#    z 0.000000 0.000000 1.860890 
# 
# From -- ./inp_files/46767.got.cif
#   From: 2010.05.17/outbox.cif.g08.bks.cpg/sg64_24_cif.got.tgz:46767.got - 2010.06.03 16:29:19.
