data_PCOD9479147
_publ_section_title
;
Structure prediction by ZEFSAII (Michael W. Deem and Ramdas Pophale) SiO2 
 PCOD9479147
Probable space group: C M C A
;
_chemical_formula_sum "Si O2"
_cell_formula_units_Z 72
_cell_length_a 18.677379
_cell_length_b 18.743619
_cell_length_c 8.446055
_cell_angle_alpha 90.000000
_cell_angle_beta 90.000000
_cell_angle_gamma 90.000000
_cell_volume 2956.809089
_symmetry_space_group_name_H-M "C M C A"
_symmetry_group_IT_number 64
_symmetry_cell_setting 'orthorhombic'
loop_
_space_group_symop_operation_xyz
x,y,z
-x,1/2-y,1/2+z
x,-y,-z
-x,1/2+y,1/2-z
-x,-y,-z
x,1/2+y,1/2-z
-x,y,z
x,1/2-y,1/2+z
1/2+x,1/2+y,z
1/2-x,-y,1/2+z
1/2+x,1/2-y,-z
1/2-x,y,1/2-z
1/2-x,1/2-y,-z
1/2+x,y,1/2-z
1/2-x,1/2+y,z
1/2+x,-y,1/2+z
loop_
_atom_site_type_symbol
_atom_site_label
_atom_site_fract_x
_atom_site_fract_y
_atom_site_fract_z
Si Si1 0.081568 0.488376 0.174351
Si Si2 0.658526 0.500000 0.000000
Si Si3 0.636834 0.219625 0.235568
Si Si4 0.611308 0.162319 0.931229
Si Si5 0.716790 0.656506 0.973108
O O1 0.115579 0.515220 0.336991
O O2 0.083252 0.402389 0.171327
O O3 0.000000 0.513926 0.165641
O O4 0.117316 0.500000 0.000000
O O5 0.699163 0.426993 0.044887
O O6 0.587214 0.264572 0.351845
O O7 0.690353 0.177720 0.351417
O O8 0.595597 0.167227 0.117322
O O9 0.676524 0.284077 0.136082
O O10 0.698629 0.161549 0.941511
#
# Coordination Sequence:
#
# PCOD9479147 Si02
#       5
#    16   8  16  16  16
#     4  11  26  46  64  86 128 180 219 264 327 390
#     4  12  25  42  68 104 129 164 220 286 320 388
#     4  10  20  37  63  94 132 175 198 258 343 409
#     4  11  20  38  63  91 129 165 215 262 322 400
#     4  11  21  36  64  99 133 164 210 264 342 388
#
# _framework density 24.350574999999999
#
# number of rings (size 3 to 8) (size 9 to 14) (size 15 to 20)
#    0.000    1.111    2.222    7.000    1.556    0.000 
#    0.000    1.111    0.000    0.000    0.000    0.000 
#    0.000    0.000    0.000    0.000    0.000    0.000 
#
# Total GULP energy -200835.662564 kJ/mol
# GULP energy per Si atom -5578.768405 kJ/mol
# Density = 2.429515 g / cm^3
# Si number density = 24.350575 Si / 1000 Ang^3
#
#
#
# Elastic Constant Matrix: (Units=GPa)
#
#
# Indices 1 2 3 4 5 6 
#
# 1 62.7767 23.7276 24.8643 0.0000 0.0000 0.0000
# 2 23.7276 93.0412 10.4456 0.0000 0.0000 0.0000
# 3 24.8643 10.4456 148.5090 0.0000 0.0000 0.0000
# 4 0.0000 0.0000 0.0000 53.1820 0.0000 0.0000
# 5 0.0000 0.0000 0.0000 0.0000 5.9672 0.0000
# 6 0.0000 0.0000 0.0000 0.0000 0.0000 14.7523
#
#
#
# Elastic Compliance Matrix: (Units=1/GPa)
#
#
# Indices 1 2 3 4 5 6 
#
# 1 0.018733 -0.004461 -0.002823 0.000000 0.000000 0.000000
# 2 -0.004461 0.011896 -0.000090 0.000000 0.000000 0.000000
# 3 -0.002823 -0.000090 0.007213 0.000000 0.000000 0.000000
# 4 0.000000 0.000000 0.000000 0.018803 0.000000 0.000000
# 5 0.000000 0.000000 0.000000 0.000000 0.167583 0.000000
# 6 0.000000 0.000000 0.000000 0.000000 0.000000 0.067786
#
#
# Mechanical properties :
#
#
# Convention : Reuss Voigt Hill
#
# Bulk Modulus (GPa) = 43.29904 46.93355 45.11629
# Shear Modulus (GPa) = 15.90034 31.13293 23.51664
#
# Velocity S-wave (km/s) = 2.55811 3.57953 3.11103
# Velocity P-wave (km/s) = 5.15222 6.03324 5.61005
#
# Compressibility (1/GPa) = 0.02309520
#
# Stress axis : x y z
#
# Youngs Moduli (GPa) = 53.38048 84.06501 138.64787
#
# Poissons Ratio (x) = 0.37498 0.39136
# Poissons Ratio (y) = 0.23811 0.01246
# Poissons Ratio (z) = 0.15068 0.00756
#
# Static dielectric constant tensor:
#      x y z
#    x 1.956360 0.000000 0.000000 
#    y 0.000000 2.007990 0.000000 
#    z 0.000000 0.000000 2.098720 
# 
# From -- ./inp_files/9126.got.cif
#   From: 2010.05.17/outbox.cif.g08.bks.cpg/sg64_5_cif.got.tgz:9126.got - 2010.06.03 16:29:19.
