data_PCOD9479737
_publ_section_title
;
Structure prediction by ZEFSAII (Michael W. Deem and Ramdas Pophale) SiO2 
 PCOD9479737
Probable space group: C M C A
;
_chemical_formula_sum "Si O2"
_cell_formula_units_Z 88
_cell_length_a 15.954236
_cell_length_b 17.604998
_cell_length_c 17.091730
_cell_angle_alpha 90.000000
_cell_angle_beta 90.000000
_cell_angle_gamma 90.000000
_cell_volume 4800.627578
_symmetry_space_group_name_H-M "C M C A"
_symmetry_group_IT_number 64
_symmetry_cell_setting 'orthorhombic'
loop_
_space_group_symop_operation_xyz
x,y,z
-x,1/2-y,1/2+z
x,-y,-z
-x,1/2+y,1/2-z
-x,-y,-z
x,1/2+y,1/2-z
-x,y,z
x,1/2-y,1/2+z
1/2+x,1/2+y,z
1/2-x,-y,1/2+z
1/2+x,1/2-y,-z
1/2-x,y,1/2-z
1/2-x,1/2-y,-z
1/2+x,y,1/2-z
1/2-x,1/2+y,z
1/2+x,-y,1/2+z
loop_
_atom_site_type_symbol
_atom_site_label
_atom_site_fract_x
_atom_site_fract_y
_atom_site_fract_z
Si Si1 0.399530 0.928794 0.443942
Si Si2 0.500000 0.806725 0.062320
Si Si3 0.500000 0.250327 0.267706
Si Si4 0.655599 0.989386 0.279794
Si Si5 0.659951 0.276580 0.970818
Si Si6 0.661899 0.668973 0.207870
Si Si7 0.500000 0.918560 0.196539
O O1 0.500000 0.926582 0.435487
O O2 0.359575 0.944149 0.359767
O O3 0.368624 0.851585 0.483213
O O4 0.378943 0.000000 0.500000
O O5 0.500000 0.748506 0.136779
O O6 0.586175 0.786362 0.019290
O O7 0.500000 0.887145 0.107473
O O8 0.414320 0.209219 0.245800
O O9 0.500000 0.340081 0.252374
O O10 0.750000 0.976837 0.250000
O O11 0.583952 0.963120 0.219050
O O12 0.644486 0.079038 0.296188
O O13 0.667754 0.297100 0.879091
O O14 0.750000 0.250000 0.000000
O O15 0.750000 0.680934 0.250000
#
# Coordination Sequence:
#
# PCOD9479737 Si02
#       7
#    16   8   8  16  16  16   8
#     4  11  22  37  64  91 123 156 210 263 307 364
#     4   8  20  39  51  85 124 155 198 240 304 361
#     4   8  19  33  59  77 119 154 186 244 303 343
#     4  11  23  37  61  91 122 158 206 254 306 367
#     4  11  22  39  62  88 124 167 194 251 318 366
#     4  10  21  40  59  86 121 162 201 247 308 370
#     4  10  21  36  56  89 120 155 195 249 305 354
#
# _framework density 18.330936000000001
#
# number of rings (size 3 to 8) (size 9 to 14) (size 15 to 20)
#    0.545    1.273    3.636    0.545    2.545    2.182 
#    0.000    0.909    0.000    0.000    0.000    3.818 
#    0.000    0.000    0.000    0.000    0.000    0.000 
#
# Total GULP energy -245352.106709 kJ/mol
# GULP energy per Si atom -5576.184243 kJ/mol
# Density = 1.828921 g / cm^3
# Si number density = 18.330936 Si / 1000 Ang^3
#
#
#
# Elastic Constant Matrix: (Units=GPa)
#
#
# Indices 1 2 3 4 5 6 
#
# 1 136.8886 50.4187 31.7499 0.0000 0.0000 0.0000
# 2 50.4187 51.5551 29.2438 0.0000 0.0000 0.0000
# 3 31.7499 29.2438 27.7965 0.0000 0.0000 0.0000
# 4 0.0000 0.0000 0.0000 28.2734 0.0000 0.0000
# 5 0.0000 0.0000 0.0000 0.0000 19.4630 0.0000
# 6 0.0000 0.0000 0.0000 0.0000 0.0000 33.8228
#
#
#
# Elastic Compliance Matrix: (Units=1/GPa)
#
#
# Indices 1 2 3 4 5 6 
#
# 1 0.011535 -0.009441 -0.003242 0.000000 0.000000 0.000000
# 2 -0.009441 0.055831 -0.047954 0.000000 0.000000 0.000000
# 3 -0.003242 -0.047954 0.090131 0.000000 0.000000 0.000000
# 4 0.000000 0.000000 0.000000 0.035369 0.000000 0.000000
# 5 0.000000 0.000000 0.000000 0.000000 0.051379 0.000000
# 6 0.000000 0.000000 0.000000 0.000000 0.000000 0.029566
#
#
# Mechanical properties :
#
#
# Convention : Reuss Voigt Hill
#
# Bulk Modulus (GPa) = 27.60857 48.78500 38.19678
# Shear Modulus (GPa) = 12.28020 23.30037 17.79028
#
# Velocity S-wave (km/s) = 2.59108 3.56911 3.11867
# Velocity P-wave (km/s) = 4.90362 6.60727 5.81814
#
# Compressibility (1/GPa) = 0.03622064
#
# Stress axis : x y z
#
# Youngs Moduli (GPa) = 86.69566 17.91118 11.09502
#
# Poissons Ratio (x) = 0.16910 0.03597
# Poissons Ratio (y) = 0.81851 0.53205
# Poissons Ratio (z) = 0.28110 0.85892
#
# Static dielectric constant tensor:
#      x y z
#    x 1.636260 0.000000 0.000000 
#    y 0.000000 1.623890 0.000000 
#    z 0.000000 0.000000 1.632510 
# 
# From -- ./inp_files/32216.got.cif
#   From: 2010.05.17/outbox.cif.g08.bks.cpg/sg64_17_cif.got.tgz:32216.got - 2010.06.03 16:29:19.
