data_PCOD9479845
_publ_section_title
;
Structure prediction by ZEFSAII (Michael W. Deem and Ramdas Pophale) SiO2 
 PCOD9479845
Probable space group: C M C A
;
_chemical_formula_sum "Si O2"
_cell_formula_units_Z 96
_cell_length_a 8.654046
_cell_length_b 22.038575
_cell_length_c 23.818795
_cell_angle_alpha 90.000000
_cell_angle_beta 90.000000
_cell_angle_gamma 90.000000
_cell_volume 4542.788271
_symmetry_space_group_name_H-M "C M C A"
_symmetry_group_IT_number 64
_symmetry_cell_setting 'orthorhombic'
loop_
_space_group_symop_operation_xyz
x,y,z
-x,1/2-y,1/2+z
x,-y,-z
-x,1/2+y,1/2-z
-x,-y,-z
x,1/2+y,1/2-z
-x,y,z
x,1/2-y,1/2+z
1/2+x,1/2+y,z
1/2-x,-y,1/2+z
1/2+x,1/2-y,-z
1/2-x,y,1/2-z
1/2-x,1/2-y,-z
1/2+x,y,1/2-z
1/2-x,1/2+y,z
1/2+x,-y,1/2+z
loop_
_atom_site_type_symbol
_atom_site_label
_atom_site_fract_x
_atom_site_fract_y
_atom_site_fract_z
Si Si1 0.685039 0.407395 0.585192
Si Si2 0.685139 0.722557 0.874492
Si Si3 0.816973 0.842322 0.477369
Si Si4 0.816472 0.098582 0.810959
Si Si5 0.183907 0.340397 0.687074
Si Si6 0.184620 0.036531 0.922094
O O1 0.500000 0.413443 0.584953
O O2 0.725051 0.352178 0.542588
O O3 0.746451 0.392083 0.646784
O O4 0.760561 0.469501 0.563266
O O5 0.500000 0.730793 0.872083
O O6 0.731404 0.706639 0.938569
O O7 0.731178 0.662524 0.838901
O O8 0.766065 0.778495 0.844234
O O9 0.772731 0.908288 0.451764
O O10 0.000000 0.831989 0.473168
O O11 0.750000 0.089165 0.750000
O O12 0.780295 0.046879 0.856123
O O13 0.000000 0.101579 0.806143
O O14 0.250000 0.341668 0.750000
O O15 0.000000 0.345241 0.689033
O O16 0.000000 0.043595 0.931119
#
# Coordination Sequence:
#
# PCOD9479845 Si02
#       6
#    16  16  16  16  16  16
#     4  11  24  41  61  87 120 158 201 247 295 353
#     4  10  21  39  62  89 120 153 195 246 299 355
#     4  10  21  38  62  92 122 154 196 247 301 353
#     4   9  19  33  53  82 113 148 190 239 292 346
#     4  12  26  44  65  88 118 158 201 244 294 352
#     4  10  21  37  57  85 121 159 200 247 301 357
#
# _framework density 21.132397000000001
#
# number of rings (size 3 to 8) (size 9 to 14) (size 15 to 20)
#    0.000    1.667    0.000    5.500    0.000   11.333 
#    0.000    1.667    0.000    0.000    0.000    0.000 
#    0.000    0.000    0.000    0.000    0.000    0.000 
#
# Total GULP energy -268335.828693 kJ/mol
# GULP energy per Si atom -5590.329764 kJ/mol
# Density = 2.108430 g / cm^3
# Si number density = 21.132397 Si / 1000 Ang^3
#
#
#
# Elastic Constant Matrix: (Units=GPa)
#
#
# Indices 1 2 3 4 5 6 
#
# 1 35.3481 -11.8301 10.5781 0.0000 0.0000 0.0000
# 2 -11.8301 50.4861 -1.7350 0.0000 0.0000 0.0000
# 3 10.5781 -1.7350 105.5079 0.0000 0.0000 0.0000
# 4 0.0000 0.0000 0.0000 25.7571 0.0000 0.0000
# 5 0.0000 0.0000 0.0000 0.0000 32.9865 0.0000
# 6 0.0000 0.0000 0.0000 0.0000 0.0000 15.1511
#
#
#
# Elastic Compliance Matrix: (Units=1/GPa)
#
#
# Indices 1 2 3 4 5 6 
#
# 1 0.031651 0.007312 -0.003053 0.000000 0.000000 0.000000
# 2 0.007312 0.021508 -0.000379 0.000000 0.000000 0.000000
# 3 -0.003053 -0.000379 0.009778 0.000000 0.000000 0.000000
# 4 0.000000 0.000000 0.000000 0.038824 0.000000 0.000000
# 5 0.000000 0.000000 0.000000 0.000000 0.030315 0.000000
# 6 0.000000 0.000000 0.000000 0.000000 0.000000 0.066002
#
#
# Mechanical properties :
#
#
# Convention : Reuss Voigt Hill
#
# Bulk Modulus (GPa) = 14.14536 20.59646 17.37091
# Shear Modulus (GPa) = 23.37716 27.73422 25.55569
#
# Velocity S-wave (km/s) = 3.32960 3.62664 3.48129
# Velocity P-wave (km/s) = 4.63572 5.22535 4.93934
#
# Compressibility (1/GPa) = 0.07069454
#
# Stress axis : x y z
#
# Youngs Moduli (GPa) = 31.59491 46.49500 102.27231
#
# Poissons Ratio (x) = -0.33995 0.31224
# Poissons Ratio (y) = -0.23101 0.03880
# Poissons Ratio (z) = 0.09646 0.01764
#
# Static dielectric constant tensor:
#      x y z
#    x 1.702310 0.000000 0.000000 
#    y 0.000000 1.773700 0.000000 
#    z 0.000000 0.000000 1.873290 
# 
# From -- ./inp_files/42957.got.cif
#   From: 2010.05.17/outbox.cif.g08.bks.cpg/sg64_22_cif.got.tgz:42957.got - 2010.06.03 16:29:19.
