data_PCOD9479867
_publ_section_title
;
Structure prediction by ZEFSAII (Michael W. Deem and Ramdas Pophale) SiO2 
 PCOD9479867
Probable space group: C M C A
;
_chemical_formula_sum "Si O2"
_cell_formula_units_Z 80
_cell_length_a 8.811063
_cell_length_b 25.417420
_cell_length_c 18.656400
_cell_angle_alpha 90.000000
_cell_angle_beta 90.000000
_cell_angle_gamma 90.000000
_cell_volume 4178.184527
_symmetry_space_group_name_H-M "C M C A"
_symmetry_group_IT_number 64
_symmetry_cell_setting 'orthorhombic'
loop_
_space_group_symop_operation_xyz
x,y,z
-x,1/2-y,1/2+z
x,-y,-z
-x,1/2+y,1/2-z
-x,-y,-z
x,1/2+y,1/2-z
-x,y,z
x,1/2-y,1/2+z
1/2+x,1/2+y,z
1/2-x,-y,1/2+z
1/2+x,1/2-y,-z
1/2-x,y,1/2-z
1/2-x,1/2-y,-z
1/2+x,y,1/2-z
1/2-x,1/2+y,z
1/2+x,-y,1/2+z
loop_
_atom_site_type_symbol
_atom_site_label
_atom_site_fract_x
_atom_site_fract_y
_atom_site_fract_z
Si Si1 0.317270 0.579715 0.068381
Si Si2 0.181455 0.984072 0.173073
Si Si3 0.318304 0.393386 0.415974
Si Si4 0.817728 0.323452 0.671918
Si Si5 0.683237 0.271876 0.425950
O O1 0.500000 0.580025 0.057106
O O2 0.277938 0.527951 0.113733
O O3 0.275803 0.630227 0.116705
O O4 0.236851 0.583904 0.992202
O O5 0.250000 0.998159 0.250000
O O6 0.245020 0.928582 0.145810
O O7 0.000000 0.982515 0.178194
O O8 0.500000 0.396104 0.411094
O O9 0.271093 0.332144 0.413208
O O10 0.750000 0.331917 0.750000
O O11 0.770303 0.267936 0.637154
O O12 0.000000 0.324091 0.677582
O O13 0.500000 0.270345 0.431033
O O14 0.750000 0.250000 0.500000
#
# Coordination Sequence:
#
# PCOD9479867 Si02
#       5
#    16  16  16  16  16
#     4  10  21  39  62  87 117 155 198 245 299 354
#     4  11  24  41  61  86 119 159 200 245 299 355
#     4  11  23  38  61  91 120 155 201 246 294 355
#     4  10  21  37  58  86 119 151 192 243 295 350
#     4  10  21  38  60  86 117 154 197 242 291 349
#
# _framework density 19.147072000000001
#
# number of rings (size 3 to 8) (size 9 to 14) (size 15 to 20)
#    0.000    1.600    2.000    2.400    0.000    7.200 
#    0.000    2.000    0.000    0.000    0.000    0.000 
#    0.000    0.000    0.000    0.000    0.000    0.000 
#
# Total GULP energy -223593.821412 kJ/mol
# GULP energy per Si atom -5589.845535 kJ/mol
# Density = 1.910349 g / cm^3
# Si number density = 19.147072 Si / 1000 Ang^3
#
#
#
# Elastic Constant Matrix: (Units=GPa)
#
#
# Indices 1 2 3 4 5 6 
#
# 1 18.2600 20.7149 8.1833 0.0000 0.0000 0.0000
# 2 20.7149 97.6025 -8.4796 0.0000 0.0000 0.0000
# 3 8.1833 -8.4796 36.8832 0.0000 0.0000 0.0000
# 4 0.0000 0.0000 0.0000 24.0869 0.0000 0.0000
# 5 0.0000 0.0000 0.0000 0.0000 38.3432 0.0000
# 6 0.0000 0.0000 0.0000 0.0000 0.0000 23.8644
#
#
#
# Elastic Compliance Matrix: (Units=1/GPa)
#
#
# Indices 1 2 3 4 5 6 
#
# 1 0.090038 -0.021270 -0.024867 0.000000 0.000000 0.000000
# 2 -0.021270 0.015479 0.008278 0.000000 0.000000 0.000000
# 3 -0.024867 0.008278 0.034533 0.000000 0.000000 0.000000
# 4 0.000000 0.000000 0.000000 0.041516 0.000000 0.000000
# 5 0.000000 0.000000 0.000000 0.000000 0.026080 0.000000
# 6 0.000000 0.000000 0.000000 0.000000 0.000000 0.041904
#
#
# Mechanical properties :
#
#
# Convention : Reuss Voigt Hill
#
# Bulk Modulus (GPa) = 15.54425 21.50922 18.52673
# Shear Modulus (GPa) = 14.42120 26.08070 20.25095
#
# Velocity S-wave (km/s) = 2.74739 3.69470 3.25568
# Velocity P-wave (km/s) = 4.26617 5.42763 4.88156
#
# Compressibility (1/GPa) = 0.06433246
#
# Stress axis : x y z
#
# Youngs Moduli (GPa) = 11.10642 64.60336 28.95785
#
# Poissons Ratio (x) = 1.37410 0.72009
# Poissons Ratio (y) = 0.23623 -0.23971
# Poissons Ratio (z) = 0.27618 -0.53478
#
# Static dielectric constant tensor:
#      x y z
#    x 1.645060 0.000000 0.000000 
#    y 0.000000 1.678600 0.000000 
#    z 0.000000 0.000000 1.623360 
# 
# From -- ./inp_files/29727.got.cif
#   From: 2010.05.17/outbox.cif.g08.bks.cpg/sg64_15_cif.got.tgz:29727.got - 2010.06.03 16:29:19.
