data_PCOD9479218
_publ_section_title
;
Structure prediction by ZEFSAII (Michael W. Deem and Ramdas Pophale) SiO2 
 PCOD9479218
Probable space group: C M C A
;
_chemical_formula_sum "Si O2"
_cell_formula_units_Z 80
_cell_length_a 16.934048
_cell_length_b 26.207544
_cell_length_c 9.302311
_cell_angle_alpha 90.000000
_cell_angle_beta 90.000000
_cell_angle_gamma 90.000000
_cell_volume 4128.363836
_symmetry_space_group_name_H-M "C M C A"
_symmetry_group_IT_number 64
_symmetry_cell_setting 'orthorhombic'
loop_
_space_group_symop_operation_xyz
x,y,z
-x,1/2-y,1/2+z
x,-y,-z
-x,1/2+y,1/2-z
-x,-y,-z
x,1/2+y,1/2-z
-x,y,z
x,1/2-y,1/2+z
1/2+x,1/2+y,z
1/2-x,-y,1/2+z
1/2+x,1/2-y,-z
1/2-x,y,1/2-z
1/2-x,1/2-y,-z
1/2+x,y,1/2-z
1/2-x,1/2+y,z
1/2+x,-y,1/2+z
loop_
_atom_site_type_symbol
_atom_site_label
_atom_site_fract_x
_atom_site_fract_y
_atom_site_fract_z
Si Si1 0.364241 0.293229 0.505560
Si Si2 0.697490 0.544504 0.387272
Si Si3 0.087762 0.125765 0.268658
Si Si4 0.791816 0.143686 0.015589
Si Si5 0.407691 0.191396 0.676782
O O1 0.409719 0.335912 0.597593
O O2 0.273046 0.311373 0.515111
O O3 0.384742 0.239623 0.577735
O O4 0.390578 0.294460 0.340958
O O5 0.683128 0.500000 0.500000
O O6 0.750000 0.527831 0.250000
O O7 0.619526 0.571373 0.323466
O O8 0.744909 0.590821 0.464947
O O9 0.150597 0.146565 0.153176
O O10 0.000000 0.123325 0.207753
O O11 0.847762 0.147726 0.877053
O O12 0.500000 0.179120 0.658521
#
# Coordination Sequence:
#
# PCOD9479218 Si02
#       5
#    16  16  16  16  16
#     4  11  23  38  54  81 114 152 190 228 277 336
#     4   9  20  37  59  84 111 146 185 228 280 338
#     4  10  20  38  60  84 114 145 186 235 282 328
#     4  10  22  39  59  81 110 150 191 230 275 335
#     4  12  23  36  56  83 116 151 190 235 281 326
#
# _framework density 19.378136000000001
#
# number of rings (size 3 to 8) (size 9 to 14) (size 15 to 20)
#    0.000    1.600    0.000    6.600    0.000    5.200 
#    0.000    0.000    0.000   17.400    0.000    0.000 
#    0.000    0.000    0.000    0.000    0.000    0.000 
#
# Total GULP energy -223511.775780 kJ/mol
# GULP energy per Si atom -5587.794394 kJ/mol
# Density = 1.933403 g / cm^3
# Si number density = 19.378136 Si / 1000 Ang^3
#
#
#
# Elastic Constant Matrix: (Units=GPa)
#
#
# Indices 1 2 3 4 5 6 
#
# 1 138.3209 10.1127 3.4167 0.0000 0.0000 0.0000
# 2 10.1127 27.9874 6.9058 0.0000 0.0000 0.0000
# 3 3.4167 6.9058 64.6607 0.0000 0.0000 0.0000
# 4 0.0000 0.0000 0.0000 30.6716 0.0000 0.0000
# 5 0.0000 0.0000 0.0000 0.0000 25.1207 0.0000
# 6 0.0000 0.0000 0.0000 0.0000 0.0000 6.0206
#
#
#
# Elastic Compliance Matrix: (Units=1/GPa)
#
#
# Indices 1 2 3 4 5 6 
#
# 1 0.007426 -0.002657 -0.000109 0.000000 0.000000 0.000000
# 2 -0.002657 0.037648 -0.003880 0.000000 0.000000 0.000000
# 3 -0.000109 -0.003880 0.015886 0.000000 0.000000 0.000000
# 4 0.000000 0.000000 0.000000 0.032603 0.000000 0.000000
# 5 0.000000 0.000000 0.000000 0.000000 0.039808 0.000000
# 6 0.000000 0.000000 0.000000 0.000000 0.000000 0.166098
#
#
# Mechanical properties :
#
#
# Convention : Reuss Voigt Hill
#
# Bulk Modulus (GPa) = 20.97833 30.20441 25.59137
# Shear Modulus (GPa) = 15.21378 26.39815 20.80597
#
# Velocity S-wave (km/s) = 2.80500 3.69489 3.28026
# Velocity P-wave (km/s) = 4.61952 5.81581 5.25184
#
# Compressibility (1/GPa) = 0.04766824
#
# Stress axis : x y z
#
# Youngs Moduli (GPa) = 134.65339 26.56205 62.95043
#
# Poissons Ratio (x) = 0.07056 0.00684
# Poissons Ratio (y) = 0.35772 0.24428
# Poissons Ratio (z) = 0.01464 0.10307
#
# Static dielectric constant tensor:
#      x y z
#    x 1.707610 0.000000 0.000000 
#    y 0.000000 1.671510 0.000000 
#    z 0.000000 0.000000 1.675700 
# 
# From -- ./inp_files/7039.got.cif
#   From: 2010.05.17/outbox.cif.g08.bks.cpg/sg64_4_cif.got.tgz:7039.got - 2010.06.03 16:29:19.
