data_PCOD9479031
_publ_section_title
;
Structure prediction by ZEFSAII (Michael W. Deem and Ramdas Pophale) SiO2 
 PCOD9479031
Probable space group: C M C A
;
_chemical_formula_sum "Si O2"
_cell_formula_units_Z 116
_cell_length_a 7.565131
_cell_length_b 25.162287
_cell_length_c 25.365212
_cell_angle_alpha 90.000000
_cell_angle_beta 90.000000
_cell_angle_gamma 90.000000
_cell_volume 4828.420230
_symmetry_space_group_name_H-M "C M C A"
_symmetry_group_IT_number 64
_symmetry_cell_setting 'orthorhombic'
loop_
_space_group_symop_operation_xyz
x,y,z
-x,1/2-y,1/2+z
x,-y,-z
-x,1/2+y,1/2-z
-x,-y,-z
x,1/2+y,1/2-z
-x,y,z
x,1/2-y,1/2+z
1/2+x,1/2+y,z
1/2-x,-y,1/2+z
1/2+x,1/2-y,-z
1/2-x,y,1/2-z
1/2-x,1/2-y,-z
1/2+x,y,1/2-z
1/2-x,1/2+y,z
1/2+x,-y,1/2+z
loop_
_atom_site_type_symbol
_atom_site_label
_atom_site_fract_x
_atom_site_fract_y
_atom_site_fract_z
Si Si1 0.300111 0.920134 0.006099
Si Si2 0.210890 0.806675 0.525613
Si Si3 0.212141 0.457722 0.311039
Si Si4 0.500000 0.000000 0.500000
Si Si5 0.287267 0.662286 0.810781
Si Si6 0.298214 0.736832 0.367568
Si Si7 0.214357 0.950948 0.889737
Si Si8 0.793794 0.141695 0.192836
O O1 0.500000 0.923937 0.027755
O O2 0.227866 0.859326 0.005008
O O3 0.305186 0.936048 0.944122
O O4 0.155819 0.961373 0.026568
O O5 0.250000 0.750000 0.500000
O O6 0.282588 0.797462 0.584755
O O7 0.000000 0.815640 0.527830
O O8 0.250000 0.473027 0.250000
O O9 0.279020 0.397623 0.319348
O O10 0.273128 0.498310 0.355873
O O11 0.000000 0.457452 0.315269
O O12 0.500000 0.661335 0.816328
O O13 0.250000 0.676545 0.750000
O O14 0.216748 0.707442 0.850055
O O15 0.500000 0.748222 0.384036
O O16 0.301162 0.697039 0.318478
O O17 0.246777 0.902012 0.850579
O O18 0.000000 0.954091 0.902689
O O19 0.750000 0.119849 0.250000
O O20 0.000000 0.153322 0.190269
#
# Coordination Sequence:
#
# PCOD9479031 Si02
#       8
#    16  16  16   4  16  16  16  16
#     4  11  24  45  71 102 134 174 225 282 350 421
#     4  10  23  42  67  97 130 169 220 282 347 421
#     4   9  18  33  53  80 117 163 213 258 312 379
#     4  12  26  48  76  98 136 180 214 282 348 418
#     4   9  18  33  53  78 114 157 204 254 308 378
#     4  10  20  37  57  84 118 159 205 257 323 385
#     4  10  20  37  59  88 124 167 212 262 332 396
#     4  11  22  33  54  86 124 166 212 259 317 393
#
# _framework density 24.024419999999999
#
# number of rings (size 3 to 8) (size 9 to 14) (size 15 to 20)
#    0.000    1.931    2.069    1.448    0.966    3.310 
#    2.483    0.000    0.000    0.000    0.000    0.000 
#    0.000    0.000    0.000    0.000    0.000    0.000 
#
# Total GULP energy -323612.388461 kJ/mol
# GULP energy per Si atom -5579.523939 kJ/mol
# Density = 2.396974 g / cm^3
# Si number density = 24.024420 Si / 1000 Ang^3
#
#
#
# Elastic Constant Matrix: (Units=GPa)
#
#
# Indices 1 2 3 4 5 6 
#
# 1 57.2918 23.3769 10.0171 0.0000 0.0000 0.0000
# 2 23.3769 137.2443 4.6096 0.0000 0.0000 0.0000
# 3 10.0171 4.6096 24.3756 0.0000 0.0000 0.0000
# 4 0.0000 0.0000 0.0000 -71.0584 0.0000 0.0000
# 5 0.0000 0.0000 0.0000 0.0000 23.4148 0.0000
# 6 0.0000 0.0000 0.0000 0.0000 0.0000 19.3257
#
#
#
# Elastic Compliance Matrix: (Units=1/GPa)
#
#
# Indices 1 2 3 4 5 6 
#
# 1 0.020084 -0.003164 -0.007655 0.000000 0.000000 0.000000
# 2 -0.003164 0.007831 -0.000181 0.000000 0.000000 0.000000
# 3 -0.007655 -0.000181 0.044205 0.000000 0.000000 0.000000
# 4 0.000000 0.000000 0.000000 -0.014073 0.000000 0.000000
# 5 0.000000 0.000000 0.000000 0.000000 0.042708 0.000000
# 6 0.000000 0.000000 0.000000 0.000000 0.000000 0.051745
#
#
# Mechanical properties :
#
#
# Convention : Reuss Voigt Hill
#
# Bulk Modulus (GPa) = 19.95196 32.76875 26.36035
# Shear Modulus (GPa) = 26.14984 6.39696 16.27340
#
# Velocity S-wave (km/s) = 3.30277 1.63355 2.60546
# Velocity P-wave (km/s) = 4.78198 4.15058 4.47742
#
# Compressibility (1/GPa) = 0.05012040
#
# Stress axis : x y z
#
# Youngs Moduli (GPa) = 49.79115 127.69374 22.62204
#
# Poissons Ratio (x) = 0.40400 0.17317
# Poissons Ratio (y) = 0.15753 0.00409
# Poissons Ratio (z) = 0.38116 0.02308
#
# Static dielectric constant tensor:
#      x y z
#    x 1.984300 0.000000 0.000000 
#    y 0.000000 1.960420 0.000000 
#    z 0.000000 0.000000 1.902910 
# 
# From -- ./inp_files/48595.got.cif
#   From: 2010.05.17/outbox.cif.g08.bks.cpg/sg64_25_cif.got.tgz:48595.got - 2010.06.03 16:29:19.
