data_PCOD9479225
_publ_section_title
;
Structure prediction by ZEFSAII (Michael W. Deem and Ramdas Pophale) SiO2 
 PCOD9479225
Probable space group: C M C A
;
_chemical_formula_sum "Si O2"
_cell_formula_units_Z 80
_cell_length_a 23.138509
_cell_length_b 10.000774
_cell_length_c 17.957920
_cell_angle_alpha 90.000000
_cell_angle_beta 90.000000
_cell_angle_gamma 90.000000
_cell_volume 4155.516548
_symmetry_space_group_name_H-M "C M C A"
_symmetry_group_IT_number 64
_symmetry_cell_setting 'orthorhombic'
loop_
_space_group_symop_operation_xyz
x,y,z
-x,1/2-y,1/2+z
x,-y,-z
-x,1/2+y,1/2-z
-x,-y,-z
x,1/2+y,1/2-z
-x,y,z
x,1/2-y,1/2+z
1/2+x,1/2+y,z
1/2-x,-y,1/2+z
1/2+x,1/2-y,-z
1/2-x,y,1/2-z
1/2-x,1/2-y,-z
1/2+x,y,1/2-z
1/2-x,1/2+y,z
1/2+x,-y,1/2+z
loop_
_atom_site_type_symbol
_atom_site_label
_atom_site_fract_x
_atom_site_fract_y
_atom_site_fract_z
Si Si1 0.193187 0.577187 0.300816
Si Si2 0.883062 0.951249 0.584074
Si Si3 0.871410 0.646198 0.784901
Si Si4 0.500000 0.652675 0.339814
Si Si5 0.000000 0.399561 0.254019
Si Si6 0.735566 0.627974 0.447333
O O1 0.250000 0.564872 0.250000
O O2 0.157975 0.710604 0.280890
O O3 0.153588 0.450361 0.279765
O O4 0.217603 0.596604 0.383849
O O5 0.941656 0.891804 0.618202
O O6 0.828739 0.850903 0.585733
O O7 0.894198 0.000000 0.500000
O O8 0.860694 0.072420 0.636438
O O9 0.940422 0.652783 0.780688
O O10 0.500000 0.813108 0.329951
O O11 0.500000 0.559193 0.263863
O O12 0.730972 0.500000 0.500000
O O13 0.750000 0.750000 0.500000
#
# Coordination Sequence:
#
# PCOD9479225 Si02
#       6
#    16  16  16   8   8  16
#     4  12  24  38  64  92 124 162 208 253 312 372
#     4  10  20  38  60  87 119 161 207 254 306 369
#     4  11  23  40  62  92 123 162 209 262 306 372
#     4  10  21  38  60  90 115 162 204 258 301 370
#     4  10  22  38  60  88 124 154 204 260 310 348
#     4  11  25  41  60  89 128 165 202 256 318 374
#
# _framework density 19.251517
#
# number of rings (size 3 to 8) (size 9 to 14) (size 15 to 20)
#    0.000    1.200    2.000    5.700    2.800    0.000 
#    0.000    0.000    0.000    1.200    0.000   10.500 
#    0.000    0.000    0.000    0.000    0.000    0.000 
#
# Total GULP energy -223155.398142 kJ/mol
# GULP energy per Si atom -5578.884954 kJ/mol
# Density = 1.920770 g / cm^3
# Si number density = 19.251517 Si / 1000 Ang^3
#
#
#
# Elastic Constant Matrix: (Units=GPa)
#
#
# Indices 1 2 3 4 5 6 
#
# 1 136.3395 56.7391 25.1738 0.0000 0.0000 0.0000
# 2 56.7391 90.2855 29.4566 0.0000 0.0000 0.0000
# 3 25.1738 29.4566 88.3789 0.0000 0.0000 0.0000
# 4 0.0000 0.0000 0.0000 32.7270 0.0000 0.0000
# 5 0.0000 0.0000 0.0000 0.0000 11.1744 0.0000
# 6 0.0000 0.0000 0.0000 0.0000 0.0000 22.9081
#
#
#
# Elastic Compliance Matrix: (Units=1/GPa)
#
#
# Indices 1 2 3 4 5 6 
#
# 1 0.009988 -0.006001 -0.000845 0.000000 0.000000 0.000000
# 2 -0.006001 0.016033 -0.003634 0.000000 0.000000 0.000000
# 3 -0.000845 -0.003634 0.012767 0.000000 0.000000 0.000000
# 4 0.000000 0.000000 0.000000 0.030556 0.000000 0.000000
# 5 0.000000 0.000000 0.000000 0.000000 0.089491 0.000000
# 6 0.000000 0.000000 0.000000 0.000000 0.000000 0.043653
#
#
# Mechanical properties :
#
#
# Convention : Reuss Voigt Hill
#
# Bulk Modulus (GPa) = 56.09419 59.74922 57.92171
# Shear Modulus (GPa) = 21.79687 26.93752 24.36719
#
# Velocity S-wave (km/s) = 3.36849 3.74470 3.56157
# Velocity P-wave (km/s) = 6.65806 7.05695 6.86041
#
# Compressibility (1/GPa) = 0.01782716
#
# Stress axis : x y z
#
# Youngs Moduli (GPa) = 100.11886 62.37049 78.32759
#
# Poissons Ratio (x) = 0.37431 0.06617
# Poissons Ratio (y) = 0.60085 0.28468
# Poissons Ratio (z) = 0.08458 0.22668
#
# Static dielectric constant tensor:
#      x y z
#    x 1.695700 0.000000 0.000000 
#    y 0.000000 1.683290 0.000000 
#    z 0.000000 0.000000 1.714580 
# 
# From -- ./inp_files/34073.got.cif
#   From: 2010.05.17/outbox.cif.g08.bks.cpg/sg64_18_cif.got.tgz:34073.got - 2010.06.03 16:29:19.
