data_PCOD9479831
_publ_section_title
;
Structure prediction by ZEFSAII (Michael W. Deem and Ramdas Pophale) SiO2 
 PCOD9479831
Probable space group: C M C A
;
_chemical_formula_sum "Si O2"
_cell_formula_units_Z 112
_cell_length_a 27.799259
_cell_length_b 37.572699
_cell_length_c 5.123572
_cell_angle_alpha 90.000000
_cell_angle_beta 90.000000
_cell_angle_gamma 90.000000
_cell_volume 5351.536067
_symmetry_space_group_name_H-M "C M C A"
_symmetry_group_IT_number 64
_symmetry_cell_setting 'orthorhombic'
loop_
_space_group_symop_operation_xyz
x,y,z
-x,1/2-y,1/2+z
x,-y,-z
-x,1/2+y,1/2-z
-x,-y,-z
x,1/2+y,1/2-z
-x,y,z
x,1/2-y,1/2+z
1/2+x,1/2+y,z
1/2-x,-y,1/2+z
1/2+x,1/2-y,-z
1/2-x,y,1/2-z
1/2-x,1/2-y,-z
1/2+x,y,1/2-z
1/2-x,1/2+y,z
1/2+x,-y,1/2+z
loop_
_atom_site_type_symbol
_atom_site_label
_atom_site_fract_x
_atom_site_fract_y
_atom_site_fract_z
Si Si1 0.845239 0.601149 0.269511
Si Si2 0.941486 0.731602 0.988210
Si Si3 0.192100 0.643525 0.768941
Si Si4 0.191434 0.772452 0.251316
Si Si5 0.807900 0.978487 0.750141
Si Si6 0.943769 0.666611 0.646720
Si Si7 0.443930 0.877480 0.845197
O O1 0.832238 0.620657 0.539577
O O2 0.821051 0.562772 0.253877
O O3 0.902100 0.595307 0.223072
O O4 0.825817 0.627204 0.041523
O O5 0.928560 0.736269 0.289844
O O6 0.000000 0.729352 0.996435
O O7 0.922900 0.698560 0.819483
O O8 0.250000 0.639962 0.750000
O O9 0.180264 0.685532 0.741338
O O10 0.174997 0.751680 0.509359
O O11 0.250000 0.771398 0.250000
O O12 0.750000 0.980154 0.750000
O O13 0.825618 0.000000 0.500000
O O14 0.825737 0.000000 0.000000
O O15 0.929991 0.654545 0.357166
O O16 0.000000 0.675922 0.616721
O O17 0.940397 0.634180 0.853389
O O18 0.500000 0.886262 0.792940
#
# Coordination Sequence:
#
# PCOD9479831 Si02
#       7
#    16  16  16  16  16  16  16
#     4  12  23  38  62  90 122 158 199 244 292 345
#     4   9  15  23  40  66  91 121 170 230 291 353
#     4  11  22  36  59  92 124 154 196 249 301 357
#     4   9  17  31  52  78 112 155 195 235 294 360
#     4  10  21  38  61  90 125 159 185 218 279 359
#     4   9  17  31  50  71  98 134 181 240 298 341
#     4  10  21  37  57  79 107 147 195 244 285 329
#
# _framework density 20.928571999999999
#
# number of rings (size 3 to 8) (size 9 to 14) (size 15 to 20)
#    0.000    2.000    0.000    4.714    0.000    6.857 
#    0.000    0.000    0.000   18.000    0.000    0.000 
#    0.000    0.000    0.000    0.000    0.000    0.000 
#
# Total GULP energy -312692.680763 kJ/mol
# GULP energy per Si atom -5583.797871 kJ/mol
# Density = 2.088094 g / cm^3
# Si number density = 20.928572 Si / 1000 Ang^3
#
#
#
# Elastic Constant Matrix: (Units=GPa)
#
#
# Indices 1 2 3 4 5 6 
#
# 1 86.1890 0.4756 4.7804 0.0000 0.0000 0.0000
# 2 0.4756 105.0316 46.6299 0.0000 0.0000 0.0000
# 3 4.7804 46.6299 140.7969 0.0000 0.0000 0.0000
# 4 0.0000 0.0000 0.0000 23.9586 0.0000 0.0000
# 5 0.0000 0.0000 0.0000 0.0000 21.7082 0.0000
# 6 0.0000 0.0000 0.0000 0.0000 0.0000 -19.6170
#
#
#
# Elastic Compliance Matrix: (Units=1/GPa)
#
#
# Indices 1 2 3 4 5 6 
#
# 1 0.011626 0.000144 -0.000442 0.000000 0.000000 0.000000
# 2 0.000144 0.011164 -0.003702 0.000000 0.000000 0.000000
# 3 -0.000442 -0.003702 0.008344 0.000000 0.000000 0.000000
# 4 0.000000 0.000000 0.000000 0.041739 0.000000 0.000000
# 5 0.000000 0.000000 0.000000 0.000000 0.046065 0.000000
# 6 0.000000 0.000000 0.000000 0.000000 0.000000 -0.050976
#
#
# Mechanical properties :
#
#
# Convention : Reuss Voigt Hill
#
# Bulk Modulus (GPa) = 43.23013 48.42103 45.82558
# Shear Modulus (GPa) = 59.75578 23.88541 41.82060
#
# Velocity S-wave (km/s) = 5.34923 3.38195 4.47503
# Velocity P-wave (km/s) = 7.67158 6.19973 6.97459
#
# Compressibility (1/GPa) = 0.02313202
#
# Stress axis : x y z
#
# Youngs Moduli (GPa) = 86.01303 89.57418 119.85285
#
# Poissons Ratio (x) = -0.01288 0.05302
# Poissons Ratio (y) = -0.01236 0.44372
# Poissons Ratio (z) = 0.03805 0.33162
#
# Static dielectric constant tensor:
#      x y z
#    x 1.821170 0.000000 0.000000 
#    y 0.000000 1.756260 0.000000 
#    z 0.000000 0.000000 1.729690 
# 
# From -- ./inp_files/3491.got.cif
#   From: 2010.05.17/outbox.cif.g08.bks.cpg/sg64_2_cif.got.tgz:3491.got - 2010.06.03 16:29:19.
