data_PCOD9479991
_publ_section_title
;
Structure prediction by ZEFSAII (Michael W. Deem and Ramdas Pophale) SiO2 
 PCOD9479991
Probable space group: C M C A
;
_chemical_formula_sum "Si O2"
_cell_formula_units_Z 72
_cell_length_a 25.678665
_cell_length_b 15.870219
_cell_length_c 9.744678
_cell_angle_alpha 90.000000
_cell_angle_beta 90.000000
_cell_angle_gamma 90.000000
_cell_volume 3971.210009
_symmetry_space_group_name_H-M "C M C A"
_symmetry_group_IT_number 64
_symmetry_cell_setting 'orthorhombic'
loop_
_space_group_symop_operation_xyz
x,y,z
-x,1/2-y,1/2+z
x,-y,-z
-x,1/2+y,1/2-z
-x,-y,-z
x,1/2+y,1/2-z
-x,y,z
x,1/2-y,1/2+z
1/2+x,1/2+y,z
1/2-x,-y,1/2+z
1/2+x,1/2-y,-z
1/2-x,y,1/2-z
1/2-x,1/2-y,-z
1/2+x,y,1/2-z
1/2-x,1/2+y,z
1/2+x,-y,1/2+z
loop_
_atom_site_type_symbol
_atom_site_label
_atom_site_fract_x
_atom_site_fract_y
_atom_site_fract_z
Si Si1 0.790878 0.404105 0.455101
Si Si2 0.938480 0.329970 0.859886
Si Si3 0.601880 0.000000 0.000000
Si Si4 0.879216 0.214350 0.082925
Si Si5 0.318290 0.380145 0.358388
O O1 0.793633 0.500000 0.500000
O O2 0.835924 0.350938 0.528612
O O3 0.730145 0.376098 0.465324
O O4 0.800899 0.398996 0.294128
O O5 0.928485 0.423607 0.924352
O O6 0.913560 0.322771 0.707659
O O7 0.000000 0.315020 0.852879
O O8 0.912363 0.259091 0.960162
O O9 0.640442 0.951146 0.101638
O O10 0.846417 0.291272 0.143613
#
# Coordination Sequence:
#
# PCOD9479991 Si02
#       5
#    16  16   8  16  16
#     4  11  21  37  61  90 128 162 201 250 310 379
#     4  11  23  41  66  89 122 167 217 263 309 359
#     4  10  21  40  62  92 124 162 209 258 310 368
#     4  11  22  41  62  90 127 162 208 260 310 366
#     4  10  21  38  58  94 122 165 204 245 314 375
#
# _framework density 18.130493999999999
#
# number of rings (size 3 to 8) (size 9 to 14) (size 15 to 20)
#    0.000    1.333    3.333    3.000    0.000    0.000 
#    0.000    0.000    0.000    2.667    0.000    0.000 
#    0.000    0.000    0.000    0.000    0.000    0.000 
#
# Total GULP energy -200694.210534 kJ/mol
# GULP energy per Si atom -5574.839182 kJ/mol
# Density = 1.808923 g / cm^3
# Si number density = 18.130494 Si / 1000 Ang^3
#
#
#
# Elastic Constant Matrix: (Units=GPa)
#
#
# Indices 1 2 3 4 5 6 
#
# 1 123.9307 42.2576 42.7707 0.0000 0.0000 0.0000
# 2 42.2576 76.8177 19.6012 0.0000 0.0000 0.0000
# 3 42.7707 19.6012 84.5360 0.0000 0.0000 0.0000
# 4 0.0000 0.0000 0.0000 117.8504 0.0000 0.0000
# 5 0.0000 0.0000 0.0000 0.0000 28.1974 0.0000
# 6 0.0000 0.0000 0.0000 0.0000 0.0000 8.0733
#
#
#
# Elastic Compliance Matrix: (Units=1/GPa)
#
#
# Indices 1 2 3 4 5 6 
#
# 1 0.011387 -0.005095 -0.004580 0.000000 0.000000 0.000000
# 2 -0.005095 0.016117 -0.001159 0.000000 0.000000 0.000000
# 3 -0.004580 -0.001159 0.014415 0.000000 0.000000 0.000000
# 4 0.000000 0.000000 0.000000 0.008485 0.000000 0.000000
# 5 0.000000 0.000000 0.000000 0.000000 0.035464 0.000000
# 6 0.000000 0.000000 0.000000 0.000000 0.000000 0.123866
#
#
# Mechanical properties :
#
#
# Convention : Reuss Voigt Hill
#
# Bulk Modulus (GPa) = 49.38148 54.94925 52.16537
# Shear Modulus (GPa) = 20.99497 42.86787 31.93142
#
# Velocity S-wave (km/s) = 3.40662 4.86779 4.20122
# Velocity P-wave (km/s) = 6.53982 7.87193 7.23659
#
# Compressibility (1/GPa) = 0.02025050
#
# Stress axis : x y z
#
# Youngs Moduli (GPa) = 87.81940 62.04807 69.37170
#
# Poissons Ratio (x) = 0.31616 0.31770
# Poissons Ratio (y) = 0.44748 0.08039
# Poissons Ratio (z) = 0.40219 0.07191
#
# Static dielectric constant tensor:
#      x y z
#    x 1.627620 0.000000 0.000000 
#    y 0.000000 1.505100 0.000000 
#    z 0.000000 0.000000 1.611200 
# 
# From -- ./inp_files/9998.got.cif
#   From: 2010.05.17/outbox.cif.g08.bks.cpg/sg64_5_cif.got.tgz:9998.got - 2010.06.03 16:29:19.
