data_PCOD9479243
_publ_section_title
;
Structure prediction by ZEFSAII (Michael W. Deem and Ramdas Pophale) SiO2 
 PCOD9479243
Probable space group: C M C A
;
_chemical_formula_sum "Si O2"
_cell_formula_units_Z 96
_cell_length_a 13.247973
_cell_length_b 14.078588
_cell_length_c 24.605811
_cell_angle_alpha 90.000000
_cell_angle_beta 90.000000
_cell_angle_gamma 90.000000
_cell_volume 4589.297567
_symmetry_space_group_name_H-M "C M C A"
_symmetry_group_IT_number 64
_symmetry_cell_setting 'orthorhombic'
loop_
_space_group_symop_operation_xyz
x,y,z
-x,1/2-y,1/2+z
x,-y,-z
-x,1/2+y,1/2-z
-x,-y,-z
x,1/2+y,1/2-z
-x,y,z
x,1/2-y,1/2+z
1/2+x,1/2+y,z
1/2-x,-y,1/2+z
1/2+x,1/2-y,-z
1/2-x,y,1/2-z
1/2-x,1/2-y,-z
1/2+x,y,1/2-z
1/2-x,1/2+y,z
1/2+x,-y,1/2+z
loop_
_atom_site_type_symbol
_atom_site_label
_atom_site_fract_x
_atom_site_fract_y
_atom_site_fract_z
Si Si1 0.886118 0.073865 0.733085
Si Si2 0.883497 0.777197 0.547207
Si Si3 0.115631 0.225247 0.189258
Si Si4 0.173235 0.807071 0.425826
Si Si5 0.794032 0.471547 0.674350
Si Si6 0.214792 0.982652 0.560545
O O1 0.859628 0.184172 0.726063
O O2 0.000000 0.062010 0.714709
O O3 0.871988 0.039574 0.794729
O O4 0.812382 0.011004 0.696176
O O5 0.869565 0.765130 0.482031
O O6 0.794311 0.714179 0.573845
O O7 0.852037 0.887078 0.559175
O O8 0.000000 0.759338 0.562440
O O9 0.126133 0.262253 0.127503
O O10 0.185559 0.134407 0.194333
O O11 0.000000 0.196543 0.199992
O O12 0.155429 0.919995 0.427145
O O13 0.793853 0.472324 0.609404
O O14 0.257876 0.000000 0.500000
#
# Coordination Sequence:
#
# PCOD9479243 Si02
#       6
#    16  16  16  16  16  16
#     4  10  24  43  67  92 122 168 221 268 321 384
#     4  10  21  37  62  95 129 172 219 261 311 377
#     4  11  22  40  66  95 123 168 215 260 329 392
#     4  10  20  38  61  91 134 169 211 265 319 375
#     4  11  22  42  67  96 133 164 210 277 326 378
#     4  10  21  38  65  95 134 170 213 260 321 379
#
# _framework density 20.918234000000002
#
# number of rings (size 3 to 8) (size 9 to 14) (size 15 to 20)
#    0.000    1.667    3.333    1.000    0.000    7.000 
#    0.000    1.667    0.000    5.500    0.000    0.000 
#    0.000    0.000    0.000    0.000    0.000    0.000 
#
# Total GULP energy -267988.925066 kJ/mol
# GULP energy per Si atom -5583.102606 kJ/mol
# Density = 2.087062 g / cm^3
# Si number density = 20.918234 Si / 1000 Ang^3
#
#
#
# Elastic Constant Matrix: (Units=GPa)
#
#
# Indices 1 2 3 4 5 6 
#
# 1 102.2200 34.9624 9.9229 0.0000 0.0000 0.0000
# 2 34.9624 86.6994 20.8823 0.0000 0.0000 0.0000
# 3 9.9229 20.8823 83.2941 0.0000 0.0000 0.0000
# 4 0.0000 0.0000 0.0000 26.0087 0.0000 0.0000
# 5 0.0000 0.0000 0.0000 0.0000 9.9359 0.0000
# 6 0.0000 0.0000 0.0000 0.0000 0.0000 17.3047
#
#
#
# Elastic Compliance Matrix: (Units=1/GPa)
#
#
# Indices 1 2 3 4 5 6 
#
# 1 0.011352 -0.004525 -0.000218 0.000000 0.000000 0.000000
# 2 -0.004525 0.014079 -0.002991 0.000000 0.000000 0.000000
# 3 -0.000218 -0.002991 0.012781 0.000000 0.000000 0.000000
# 4 0.000000 0.000000 0.000000 0.038449 0.000000 0.000000
# 5 0.000000 0.000000 0.000000 0.000000 0.100645 0.000000
# 6 0.000000 0.000000 0.000000 0.000000 0.000000 0.057788
#
#
# Mechanical properties :
#
#
# Convention : Reuss Voigt Hill
#
# Bulk Modulus (GPa) = 43.96586 44.86098 44.41342
# Shear Modulus (GPa) = 19.36910 24.41291 21.89100
#
# Velocity S-wave (km/s) = 3.04623 3.41994 3.23848
# Velocity P-wave (km/s) = 5.78241 6.08991 5.93815
#
# Compressibility (1/GPa) = 0.02274492
#
# Stress axis : x y z
#
# Youngs Moduli (GPa) = 88.09222 71.02632 78.23881
#
# Poissons Ratio (x) = 0.32141 0.01704
# Poissons Ratio (y) = 0.39864 0.23399
# Poissons Ratio (z) = 0.01919 0.21242
#
# Static dielectric constant tensor:
#      x y z
#    x 1.757430 0.000000 0.000000 
#    y 0.000000 1.752310 0.000000 
#    z 0.000000 0.000000 1.784250 
# 
# From -- ./inp_files/53329.got.cif
#   From: 2010.05.17/outbox.cif.g08.bks.cpg/sg64_27_cif.got.tgz:53329.got - 2010.06.03 16:29:19.
