data_PCOD9479765
_publ_section_title
;
Structure prediction by ZEFSAII (Michael W. Deem and Ramdas Pophale) SiO2 
 PCOD9479765
Probable space group: C M C A
;
_chemical_formula_sum "Si O2"
_cell_formula_units_Z 88
_cell_length_a 24.736902
_cell_length_b 18.111548
_cell_length_c 9.883257
_cell_angle_alpha 90.000000
_cell_angle_beta 90.000000
_cell_angle_gamma 90.000000
_cell_volume 4427.932262
_symmetry_space_group_name_H-M "C M C A"
_symmetry_group_IT_number 64
_symmetry_cell_setting 'orthorhombic'
loop_
_space_group_symop_operation_xyz
x,y,z
-x,1/2-y,1/2+z
x,-y,-z
-x,1/2+y,1/2-z
-x,-y,-z
x,1/2+y,1/2-z
-x,y,z
x,1/2-y,1/2+z
1/2+x,1/2+y,z
1/2-x,-y,1/2+z
1/2+x,1/2-y,-z
1/2-x,y,1/2-z
1/2-x,1/2-y,-z
1/2+x,y,1/2-z
1/2-x,1/2+y,z
1/2+x,-y,1/2+z
loop_
_atom_site_type_symbol
_atom_site_label
_atom_site_fract_x
_atom_site_fract_y
_atom_site_fract_z
Si Si1 0.750000 0.160733 0.250000
Si Si2 0.393360 0.719312 0.644589
Si Si3 0.825526 0.082466 0.044925
Si Si4 0.564620 0.916695 0.975553
Si Si5 0.677701 0.275556 0.094924
Si Si6 0.438751 0.874368 0.662810
O O1 0.794030 0.109099 0.178374
O O2 0.720422 0.216538 0.147353
O O3 0.412887 0.642534 0.582190
O O4 0.345489 0.746574 0.546522
O O5 0.370026 0.717905 0.795102
O O6 0.436216 0.785990 0.641162
O O7 0.889874 0.092823 0.073397
O O8 0.804952 0.140708 0.932535
O O9 0.814368 0.000000 0.000000
O O10 0.500000 0.917679 0.992974
O O11 0.574457 0.891763 0.820438
O O12 0.585152 0.000000 0.000000
O O13 0.500000 0.900846 0.634466
#
# Coordination Sequence:
#
# PCOD9479765 Si02
#       6
#     8  16  16  16  16  16
#     4  12  22  48  68  92 132 170 220 280 326 386
#     4  11  20  41  63  96 121 172 216 268 314 395
#     4  11  26  43  64 101 132 168 221 276 333 400
#     4  10  21  36  58  91 128 170 214 266 328 384
#     4  11  23  41  70  90 126 166 220 266 329 383
#     4  10  21  41  64  90 131 172 219 271 319 392
#
# _framework density 19.873836000000001
#
# number of rings (size 3 to 8) (size 9 to 14) (size 15 to 20)
#    0.000    1.273    5.455    1.091    2.545    1.091 
#    0.000    1.818    0.000    0.000    0.000    0.000 
#    0.000    0.000    0.000    0.000    0.000    0.000 
#
# Total GULP energy -245608.484451 kJ/mol
# GULP energy per Si atom -5582.011010 kJ/mol
# Density = 1.982860 g / cm^3
# Si number density = 19.873836 Si / 1000 Ang^3
#
#
#
# Elastic Constant Matrix: (Units=GPa)
#
#
# Indices 1 2 3 4 5 6 
#
# 1 74.2611 36.3143 15.5579 0.0000 0.0000 0.0000
# 2 36.3143 175.0563 30.1366 0.0000 0.0000 0.0000
# 3 15.5579 30.1366 41.1527 0.0000 0.0000 0.0000
# 4 0.0000 0.0000 0.0000 28.3655 0.0000 0.0000
# 5 0.0000 0.0000 0.0000 0.0000 11.0811 0.0000
# 6 0.0000 0.0000 0.0000 0.0000 0.0000 16.5739
#
#
#
# Elastic Compliance Matrix: (Units=1/GPa)
#
#
# Indices 1 2 3 4 5 6 
#
# 1 0.015547 -0.002533 -0.004023 0.000000 0.000000 0.000000
# 2 -0.002533 0.006949 -0.004131 0.000000 0.000000 0.000000
# 3 -0.004023 -0.004131 0.028846 0.000000 0.000000 0.000000
# 4 0.000000 0.000000 0.000000 0.035254 0.000000 0.000000
# 5 0.000000 0.000000 0.000000 0.000000 0.090244 0.000000
# 6 0.000000 0.000000 0.000000 0.000000 0.000000 0.060336
#
#
# Mechanical properties :
#
#
# Convention : Reuss Voigt Hill
#
# Bulk Modulus (GPa) = 33.36852 50.49863 41.93357
# Shear Modulus (GPa) = 18.61923 25.10152 21.86038
#
# Velocity S-wave (km/s) = 3.06416 3.55779 3.32016
# Velocity P-wave (km/s) = 5.41714 6.50707 5.98696
#
# Compressibility (1/GPa) = 0.02996837
#
# Stress axis : x y z
#
# Youngs Moduli (GPa) = 64.31985 143.90431 34.66667
#
# Poissons Ratio (x) = 0.36445 0.13947
# Poissons Ratio (y) = 0.16290 0.14322
# Poissons Ratio (z) = 0.25876 0.59453
#
# Static dielectric constant tensor:
#      x y z
#    x 1.716800 0.000000 0.000000 
#    y 0.000000 1.700930 0.000000 
#    z 0.000000 0.000000 1.694100 
# 
# From -- ./inp_files/18183.got.cif
#   From: 2010.05.17/outbox.cif.g08.bks.cpg/sg64_10_cif.got.tgz:18183.got - 2010.06.03 16:29:19.
