data_PCOD9479625
_publ_section_title
;
Structure prediction by ZEFSAII (Michael W. Deem and Ramdas Pophale) SiO2 
 PCOD9479625
Probable space group: C M C A
;
_chemical_formula_sum "Si O2"
_cell_formula_units_Z 56
_cell_length_a 27.234909
_cell_length_b 18.043612
_cell_length_c 5.230645
_cell_angle_alpha 90.000000
_cell_angle_beta 90.000000
_cell_angle_gamma 90.000000
_cell_volume 2570.423328
_symmetry_space_group_name_H-M "C M C A"
_symmetry_group_IT_number 64
_symmetry_cell_setting 'orthorhombic'
loop_
_space_group_symop_operation_xyz
x,y,z
-x,1/2-y,1/2+z
x,-y,-z
-x,1/2+y,1/2-z
-x,-y,-z
x,1/2+y,1/2-z
-x,y,z
x,1/2-y,1/2+z
1/2+x,1/2+y,z
1/2-x,-y,1/2+z
1/2+x,1/2-y,-z
1/2-x,y,1/2-z
1/2-x,1/2-y,-z
1/2+x,y,1/2-z
1/2-x,1/2+y,z
1/2+x,-y,1/2+z
loop_
_atom_site_type_symbol
_atom_site_label
_atom_site_fract_x
_atom_site_fract_y
_atom_site_fract_z
Si Si1 0.340161 0.047372 0.738849
Si Si2 0.948057 0.072731 0.676696
Si Si3 0.691998 0.212592 0.757440
Si Si4 0.000000 0.299071 0.939011
O O1 0.396943 0.069717 0.679434
O O2 0.313330 0.124894 0.776070
O O3 0.320963 0.000000 0.500000
O O4 0.338393 0.000000 0.000000
O O5 0.000000 0.073154 0.828653
O O6 0.954285 0.145629 0.499353
O O7 0.948378 0.000000 0.500000
O O8 0.669809 0.245349 0.499086
O O9 0.750000 0.230146 0.750000
O O10 0.000000 0.236695 0.160539
#
# Coordination Sequence:
#
# PCOD9479625 Si02
#       4
#    16  16  16   8
#     4  11  23  38  61  91 117 154 200 246 291 340
#     4   8  19  40  56  80 114 158 189 232 286 348
#     4  10  22  41  63  87 120 159 191 235 302 360
#     4  10  21  34  53  80 106 140 190 238 275 322
#
# _framework density 21.786294999999999
#
# number of rings (size 3 to 8) (size 9 to 14) (size 15 to 20)
#    0.857    1.429    0.000    1.714    0.000    8.571 
#    0.000    0.000    0.000    0.000    0.000    0.000 
#    0.000    0.000    0.000    0.000    0.000    0.000 
#
# Total GULP energy -156134.601407 kJ/mol
# GULP energy per Si atom -5576.235765 kJ/mol
# Density = 2.173671 g / cm^3
# Si number density = 21.786295 Si / 1000 Ang^3
#
#
#
# Elastic Constant Matrix: (Units=GPa)
#
#
# Indices 1 2 3 4 5 6 
#
# 1 -17.1571 -23.8065 13.6464 0.0000 0.0000 0.0000
# 2 -23.8065 121.8307 63.3489 0.0000 0.0000 0.0000
# 3 13.6464 63.3489 131.2531 0.0000 0.0000 0.0000
# 4 0.0000 0.0000 0.0000 42.9453 0.0000 0.0000
# 5 0.0000 0.0000 0.0000 0.0000 -9.5276 0.0000
# 6 0.0000 0.0000 0.0000 0.0000 0.0000 1.1304
#
#
#
# Elastic Compliance Matrix: (Units=1/GPa)
#
#
# Indices 1 2 3 4 5 6 
#
# 1 -0.034845 -0.011605 0.009224 0.000000 0.000000 0.000000
# 2 -0.011605 0.007093 -0.002217 0.000000 0.000000 0.000000
# 3 0.009224 -0.002217 0.007730 0.000000 0.000000 0.000000
# 4 0.000000 0.000000 0.000000 0.023285 0.000000 0.000000
# 5 0.000000 0.000000 0.000000 0.000000 -0.104958 0.000000
# 6 0.000000 0.000000 0.000000 0.000000 0.000000 0.884654
#
#
# Mechanical properties :
#
#
# Convention : Reuss Voigt Hill
#
# Bulk Modulus (GPa) = -34.22504 38.03381 1.90438
# Shear Modulus (GPa) = 6.39046 19.09215 12.74131
#
# Velocity S-wave (km/s) = 1.71453 2.96351 2.42095
# Velocity P-wave (km/s) = 3.43861 5.40421 2.94800
#
# Compressibility (1/GPa) = -0.02921837
#
# Stress axis : x y z
#
# Youngs Moduli (GPa) = -28.69835 140.98279 129.36959
#
# Poissons Ratio (x) = 1.63615 -1.19332
# Poissons Ratio (y) = -0.33305 0.28679
# Poissons Ratio (z) = 0.26472 0.31254
#
# Static dielectric constant tensor:
#      x y z
#    x 1.846220 0.000000 0.000000 
#    y 0.000000 1.754010 0.000000 
#    z 0.000000 0.000000 1.808900 
# 
# From -- ./inp_files/3097.got.cif
#   From: 2010.05.17/outbox.cif.g08.bks.cpg/sg64_2_cif.got.tgz:3097.got - 2010.06.03 16:29:19.
