data_PCOD9479153
_publ_section_title
;
Structure prediction by ZEFSAII (Michael W. Deem and Ramdas Pophale) SiO2 
 PCOD9479153
Probable space group: C M C A
;
_chemical_formula_sum "Si O2"
_cell_formula_units_Z 52
_cell_length_a 12.207599
_cell_length_b 14.017526
_cell_length_c 10.833227
_cell_angle_alpha 90.000000
_cell_angle_beta 90.000000
_cell_angle_gamma 90.000000
_cell_volume 1853.785448
_symmetry_space_group_name_H-M "C M C A"
_symmetry_group_IT_number 64
_symmetry_cell_setting 'orthorhombic'
loop_
_space_group_symop_operation_xyz
x,y,z
-x,1/2-y,1/2+z
x,-y,-z
-x,1/2+y,1/2-z
-x,-y,-z
x,1/2+y,1/2-z
-x,y,z
x,1/2-y,1/2+z
1/2+x,1/2+y,z
1/2-x,-y,1/2+z
1/2+x,1/2-y,-z
1/2-x,y,1/2-z
1/2-x,1/2-y,-z
1/2+x,y,1/2-z
1/2-x,1/2+y,z
1/2+x,-y,1/2+z
loop_
_atom_site_type_symbol
_atom_site_label
_atom_site_fract_x
_atom_site_fract_y
_atom_site_fract_z
Si Si1 0.872319 0.336143 0.686195
Si Si2 0.500000 0.500000 0.500000
Si Si3 0.158896 0.859604 0.421828
Si Si4 0.383328 0.561108 0.850192
O O1 0.750000 0.319838 0.750000
O O2 0.866580 0.250839 0.586180
O O3 0.869221 0.447625 0.652181
O O4 0.000000 0.322997 0.737145
O O5 0.595565 0.418778 0.523950
O O6 0.284475 0.886643 0.414608
O O7 0.115167 0.905194 0.292479
O O8 0.500000 0.585914 0.906050
#
# Coordination Sequence:
#
# PCOD9479153 Si02
#       4
#    16   4  16  16
#     4  11  20  34  61  94 119 148 211 258 289 346
#     4  12  24  40  54  92 128 168 184 246 336 368
#     4  11  21  36  61  89 123 161 195 253 298 372
#     4  10  20  37  64  90 114 154 214 254 287 351
#
# _framework density 28.050713999999999
#
# number of rings (size 3 to 8) (size 9 to 14) (size 15 to 20)
#    0.000    1.231    9.231    0.000    0.000    0.000 
#    0.000    2.308    0.000    0.000    0.000    0.000 
#    0.000    0.000    0.000    0.000    0.000    0.000 
#
# Total GULP energy -145010.770962 kJ/mol
# GULP energy per Si atom -5577.337345 kJ/mol
# Density = 2.798687 g / cm^3
# Si number density = 28.050714 Si / 1000 Ang^3
#
#
#
# Elastic Constant Matrix: (Units=GPa)
#
#
# Indices 1 2 3 4 5 6 
#
# 1 327.8380 66.5285 24.4269 0.0000 0.0000 0.0000
# 2 66.5285 237.2344 13.2292 0.0000 0.0000 0.0000
# 3 24.4269 13.2292 46.6012 0.0000 0.0000 0.0000
# 4 0.0000 0.0000 0.0000 49.3036 0.0000 0.0000
# 5 0.0000 0.0000 0.0000 0.0000 77.5117 0.0000
# 6 0.0000 0.0000 0.0000 0.0000 0.0000 -48.0295
#
#
#
# Elastic Compliance Matrix: (Units=1/GPa)
#
#
# Indices 1 2 3 4 5 6 
#
# 1 0.003335 -0.000851 -0.001507 0.000000 0.000000 0.000000
# 2 -0.000851 0.004500 -0.000831 0.000000 0.000000 0.000000
# 3 -0.001507 -0.000831 0.022484 0.000000 0.000000 0.000000
# 4 0.000000 0.000000 0.000000 0.020282 0.000000 0.000000
# 5 0.000000 0.000000 0.000000 0.000000 0.012901 0.000000
# 6 0.000000 0.000000 0.000000 0.000000 0.000000 -0.020821
#
#
# Mechanical properties :
#
#
# Convention : Reuss Voigt Hill
#
# Bulk Modulus (GPa) = 41.76841 91.11588 66.44214
# Shear Modulus (GPa) = 87.65437 49.58976 68.62207
#
# Velocity S-wave (km/s) = 5.59610 4.20916 4.95143
# Velocity P-wave (km/s) = 7.52847 7.49505 7.51178
#
# Compressibility (1/GPa) = 0.02394154
#
# Stress axis : x y z
#
# Youngs Moduli (GPa) = 299.82310 222.20557 44.47534
#
# Poissons Ratio (x) = 0.18917 0.06701
# Poissons Ratio (y) = 0.25524 0.03697
# Poissons Ratio (z) = 0.45171 0.18473
#
# Static dielectric constant tensor:
#      x y z
#    x 2.191750 0.000000 0.000000 
#    y 0.000000 2.064700 0.000000 
#    z 0.000000 0.000000 2.569080 
# 
# From -- ./inp_files/21753.got.cif
#   From: 2010.05.17/outbox.cif.g08.bks.cpg/sg64_11_cif.got.tgz:21753.got - 2010.06.03 16:29:19.
