data_PCOD9479186
_publ_section_title
;
Structure prediction by ZEFSAII (Michael W. Deem and Ramdas Pophale) SiO2 
 PCOD9479186
Probable space group: C M C A
;
_chemical_formula_sum "Si O2"
_cell_formula_units_Z 64
_cell_length_a 10.412590
_cell_length_b 27.789490
_cell_length_c 9.410125
_cell_angle_alpha 90.000000
_cell_angle_beta 90.000000
_cell_angle_gamma 90.000000
_cell_volume 2722.919093
_symmetry_space_group_name_H-M "C M C A"
_symmetry_group_IT_number 64
_symmetry_cell_setting 'orthorhombic'
loop_
_space_group_symop_operation_xyz
x,y,z
-x,1/2-y,1/2+z
x,-y,-z
-x,1/2+y,1/2-z
-x,-y,-z
x,1/2+y,1/2-z
-x,y,z
x,1/2-y,1/2+z
1/2+x,1/2+y,z
1/2-x,-y,1/2+z
1/2+x,1/2-y,-z
1/2-x,y,1/2-z
1/2-x,1/2-y,-z
1/2+x,y,1/2-z
1/2-x,1/2+y,z
1/2+x,-y,1/2+z
loop_
_atom_site_type_symbol
_atom_site_label
_atom_site_fract_x
_atom_site_fract_y
_atom_site_fract_z
Si Si1 0.357214 0.110165 0.140059
Si Si2 0.776828 0.193011 0.514854
Si Si3 0.000000 0.278437 0.199819
Si Si4 0.500000 0.808979 0.500473
Si Si5 0.849741 0.458425 0.118537
O O1 0.500000 0.097136 0.189978
O O2 0.250000 0.093344 0.250000
O O3 0.346050 0.167390 0.116573
O O4 0.340280 0.088641 0.981829
O O5 0.750000 0.250000 0.500000
O O6 0.874939 0.192695 0.646023
O O7 0.637895 0.166504 0.514443
O O8 0.000000 0.274032 0.365629
O O9 0.000000 0.225779 0.133789
O O10 0.750000 0.459315 0.250000
O O11 0.000000 0.462751 0.165806
O O12 0.826123 0.500000 0.000000
#
# Coordination Sequence:
#
# PCOD9479186 Si02
#       5
#    16  16   8   8  16
#     4  11  25  45  69 100 136 176 229 285 341 408
#     4  10  22  40  58  88 127 171 225 278 334 396
#     4  10  20  38  56  82 117 156 215 274 330 392
#     4  10  22  34  60  82 113 164 211 270 334 392
#     4  10  23  45  74 109 145 181 223 276 336 407
#
# _framework density 23.504187999999999
#
# number of rings (size 3 to 8) (size 9 to 14) (size 15 to 20)
#    0.000    1.750    1.250    1.500    1.750   11.500 
#    0.000    0.000    0.000    0.000    0.000    0.000 
#    0.000    0.000    0.000    0.000    0.000    0.000 
#
# Total GULP energy -178579.926724 kJ/mol
# GULP energy per Si atom -5580.622710 kJ/mol
# Density = 2.345069 g / cm^3
# Si number density = 23.504188 Si / 1000 Ang^3
#
#
#
# Elastic Constant Matrix: (Units=GPa)
#
#
# Indices 1 2 3 4 5 6 
#
# 1 250.0093 24.2683 86.4045 0.0000 0.0000 0.0000
# 2 24.2683 64.4405 19.3396 0.0000 0.0000 0.0000
# 3 86.4045 19.3396 130.5208 0.0000 0.0000 0.0000
# 4 0.0000 0.0000 0.0000 16.7827 0.0000 0.0000
# 5 0.0000 0.0000 0.0000 0.0000 57.1554 0.0000
# 6 0.0000 0.0000 0.0000 0.0000 0.0000 18.5599
#
#
#
# Elastic Compliance Matrix: (Units=1/GPa)
#
#
# Indices 1 2 3 4 5 6 
#
# 1 0.005245 -0.000977 -0.003327 0.000000 0.000000 0.000000
# 2 -0.000977 0.016422 -0.001787 0.000000 0.000000 0.000000
# 3 -0.003327 -0.001787 0.010129 0.000000 0.000000 0.000000
# 4 0.000000 0.000000 0.000000 0.059585 0.000000 0.000000
# 5 0.000000 0.000000 0.000000 0.000000 0.017496 0.000000
# 6 0.000000 0.000000 0.000000 0.000000 0.000000 0.053880
#
#
# Mechanical properties :
#
#
# Convention : Reuss Voigt Hill
#
# Bulk Modulus (GPa) = 50.98250 78.33282 64.65766
# Shear Modulus (GPa) = 27.55185 39.49681 33.52433
#
# Velocity S-wave (km/s) = 3.42747 4.10373 3.78075
# Velocity P-wave (km/s) = 6.11566 7.47353 6.82843
#
# Compressibility (1/GPa) = 0.01961457
#
# Stress axis : x y z
#
# Youngs Moduli (GPa) = 190.67480 60.89309 98.72692
#
# Poissons Ratio (x) = 0.05947 0.32848
# Poissons Ratio (y) = 0.18621 0.17641
# Poissons Ratio (z) = 0.63441 0.10881
#
# Static dielectric constant tensor:
#      x y z
#    x 3.017620 0.000000 0.000000 
#    y 0.000000 2.016640 0.000000 
#    z 0.000000 0.000000 1.854950 
# 
# From -- ./inp_files/4664.got.cif
#   From: 2010.05.17/outbox.cif.g08.bks.cpg/sg64_3_cif.got.tgz:4664.got - 2010.06.03 16:29:19.
