data_PCOD9479488
_publ_section_title
;
Structure prediction by ZEFSAII (Michael W. Deem and Ramdas Pophale) SiO2 
 PCOD9479488
Probable space group: C M C A
;
_chemical_formula_sum "Si O2"
_cell_formula_units_Z 64
_cell_length_a 17.014804
_cell_length_b 14.158922
_cell_length_c 12.315189
_cell_angle_alpha 90.000000
_cell_angle_beta 90.000000
_cell_angle_gamma 90.000000
_cell_volume 2966.867978
_symmetry_space_group_name_H-M "C M C A"
_symmetry_group_IT_number 64
_symmetry_cell_setting 'orthorhombic'
loop_
_space_group_symop_operation_xyz
x,y,z
-x,1/2-y,1/2+z
x,-y,-z
-x,1/2+y,1/2-z
-x,-y,-z
x,1/2+y,1/2-z
-x,y,z
x,1/2-y,1/2+z
1/2+x,1/2+y,z
1/2-x,-y,1/2+z
1/2+x,1/2-y,-z
1/2-x,y,1/2-z
1/2-x,1/2-y,-z
1/2+x,y,1/2-z
1/2-x,1/2+y,z
1/2+x,-y,1/2+z
loop_
_atom_site_type_symbol
_atom_site_label
_atom_site_fract_x
_atom_site_fract_y
_atom_site_fract_z
Si Si1 0.745908 0.104977 0.504064
Si Si2 0.000000 0.849914 0.447090
Si Si3 0.661040 0.764855 0.134213
Si Si4 0.000000 0.551259 0.170286
Si Si5 0.665761 0.393075 0.704793
O O1 0.690447 0.181791 0.447264
O O2 0.779760 0.147685 0.614917
O O3 0.821723 0.100006 0.423812
O O4 0.711802 0.000000 0.500000
O O5 0.924085 0.796176 0.403013
O O6 0.000000 0.867262 0.576956
O O7 0.000000 0.952294 0.390995
O O8 0.661528 0.713954 0.250519
O O9 0.082632 0.560475 0.233834
O O10 0.750000 0.430828 0.750000
#
# Coordination Sequence:
#
# PCOD9479488 Si02
#       5
#    16   8  16   8  16
#     4  10  20  40  65  93 127 172 224 270 330 401
#     4  11  21  38  67  95 125 177 224 267 332 398
#     4  10  21  37  62  93 130 167 211 283 331 378
#     4  11  21  38  68  95 131 175 223 273 323 400
#     4  10  21  38  63  94 131 169 215 277 326 392
#
# _framework density 21.571570000000001
#
# number of rings (size 3 to 8) (size 9 to 14) (size 15 to 20)
#    0.000    1.750    2.500    2.250    0.000    0.000 
#    0.000   43.125    0.000    0.000    0.000    0.000 
#    0.000    0.000    0.000    0.000    0.000    0.000 
#
# Total GULP energy -178483.961804 kJ/mol
# GULP energy per Si atom -5577.623806 kJ/mol
# Density = 2.152247 g / cm^3
# Si number density = 21.571570 Si / 1000 Ang^3
#
#
#
# Elastic Constant Matrix: (Units=GPa)
#
#
# Indices 1 2 3 4 5 6 
#
# 1 151.3571 34.7280 -2.4423 0.0000 0.0000 0.0000
# 2 34.7280 110.0080 6.2800 0.0000 0.0000 0.0000
# 3 -2.4423 6.2800 40.9202 0.0000 0.0000 0.0000
# 4 0.0000 0.0000 0.0000 29.7125 0.0000 0.0000
# 5 0.0000 0.0000 0.0000 0.0000 14.4571 0.0000
# 6 0.0000 0.0000 0.0000 0.0000 0.0000 21.5586
#
#
#
# Elastic Compliance Matrix: (Units=1/GPa)
#
#
# Indices 1 2 3 4 5 6 
#
# 1 0.007147 -0.002301 0.000780 0.000000 0.000000 0.000000
# 2 -0.002301 0.009911 -0.001658 0.000000 0.000000 0.000000
# 3 0.000780 -0.001658 0.024739 0.000000 0.000000 0.000000
# 4 0.000000 0.000000 0.000000 0.033656 0.000000 0.000000
# 5 0.000000 0.000000 0.000000 0.000000 0.069170 0.000000
# 6 0.000000 0.000000 0.000000 0.000000 0.000000 0.046385
#
#
# Mechanical properties :
#
#
# Convention : Reuss Voigt Hill
#
# Bulk Modulus (GPa) = 28.21797 42.15740 35.18768
# Shear Modulus (GPa) = 23.90280 30.72696 27.31488
#
# Velocity S-wave (km/s) = 3.33238 3.77824 3.56229
# Velocity P-wave (km/s) = 5.28354 6.21441 5.76779
#
# Compressibility (1/GPa) = 0.03543841
#
# Stress axis : x y z
#
# Youngs Moduli (GPa) = 139.91126 100.89532 40.42228
#
# Poissons Ratio (x) = 0.23214 -0.03152
# Poissons Ratio (y) = 0.32191 0.06704
# Poissons Ratio (z) = -0.10909 0.16732
#
# Static dielectric constant tensor:
#      x y z
#    x 1.815630 0.000000 0.000000 
#    y 0.000000 1.813920 0.000000 
#    z 0.000000 0.000000 1.883690 
# 
# From -- ./inp_files/15532.got.cif
#   From: 2010.05.17/outbox.cif.g08.bks.cpg/sg64_8_cif.got.tgz:15532.got - 2010.06.03 16:29:19.
