data_PCOD9479849
_publ_section_title
;
Structure prediction by ZEFSAII (Michael W. Deem and Ramdas Pophale) SiO2 
 PCOD9479849
Probable space group: C M C A
;
_chemical_formula_sum "Si O2"
_cell_formula_units_Z 116
_cell_length_a 10.046372
_cell_length_b 24.662186
_cell_length_c 23.865822
_cell_angle_alpha 90.000000
_cell_angle_beta 90.000000
_cell_angle_gamma 90.000000
_cell_volume 5913.127199
_symmetry_space_group_name_H-M "C M C A"
_symmetry_group_IT_number 64
_symmetry_cell_setting 'orthorhombic'
loop_
_space_group_symop_operation_xyz
x,y,z
-x,1/2-y,1/2+z
x,-y,-z
-x,1/2+y,1/2-z
-x,-y,-z
x,1/2+y,1/2-z
-x,y,z
x,1/2-y,1/2+z
1/2+x,1/2+y,z
1/2-x,-y,1/2+z
1/2+x,1/2-y,-z
1/2-x,y,1/2-z
1/2-x,1/2-y,-z
1/2+x,y,1/2-z
1/2-x,1/2+y,z
1/2+x,-y,1/2+z
loop_
_atom_site_type_symbol
_atom_site_label
_atom_site_fract_x
_atom_site_fract_y
_atom_site_fract_z
Si Si1 0.000000 0.000000 0.500000
Si Si2 0.659332 0.384458 0.698861
Si Si3 0.655295 0.716798 0.169585
Si Si4 0.846727 0.840826 0.298111
Si Si5 0.854874 0.593395 0.494831
Si Si6 0.211028 0.464636 0.904391
Si Si7 0.659057 0.418666 0.401427
Si Si8 0.647755 0.718886 0.038080
O O1 0.112300 0.025467 0.456760
O O2 0.500000 0.379307 0.711054
O O3 0.750000 0.407994 0.750000
O O4 0.734449 0.326945 0.687756
O O5 0.672858 0.420903 0.642684
O O6 0.500000 0.698557 0.178690
O O7 0.669904 0.776102 0.196165
O O8 0.672233 0.726046 0.103496
O O9 0.750000 0.861378 0.250000
O O10 0.822891 0.870621 0.357259
O O11 0.000000 0.851701 0.283299
O O12 0.836480 0.556614 0.439581
O O13 0.744121 0.589032 0.542757
O O14 0.848471 0.655157 0.474030
O O15 0.000000 0.582439 0.519884
O O16 0.208631 0.524020 0.876537
O O17 0.500000 0.423040 0.415981
O O18 0.500000 0.739758 0.025344
O O19 0.750000 0.750000 0.000000
#
# Coordination Sequence:
#
# PCOD9479849 Si02
#       8
#     4  16  16  16  16  16  16  16
#     4  12  20  44  70 100 124 172 234 278 300 406
#     4  12  26  42  65  97 131 174 220 270 337 404
#     4  10  21  42  64  89 127 172 219 271 328 400
#     4  10  23  41  65  89 119 165 218 272 329 387
#     4  11  23  38  61  94 132 164 204 262 326 385
#     4  12  22  41  69  95 130 170 223 270 326 396
#     4  11  22  41  65  90 123 168 216 265 320 391
#     4  10  21  37  57  90 130 168 210 265 325 387
#
# _framework density 19.617369
#
# number of rings (size 3 to 8) (size 9 to 14) (size 15 to 20)
#    0.000    1.103    4.138    1.655    0.000    6.621 
#    0.000    0.000    0.000    0.000    0.000    0.000 
#    0.000    0.000    0.000    0.000    0.000    0.000 
#
# Total GULP energy -323013.154066 kJ/mol
# GULP energy per Si atom -5569.192311 kJ/mol
# Density = 1.957272 g / cm^3
# Si number density = 19.617369 Si / 1000 Ang^3
#
#
#
# Elastic Constant Matrix: (Units=GPa)
#
#
# Indices 1 2 3 4 5 6 
#
# 1 107.5090 31.9178 83.9994 0.0000 0.0000 0.0000
# 2 31.9178 51.0030 34.1848 0.0000 0.0000 0.0000
# 3 83.9994 34.1848 110.2341 0.0000 0.0000 0.0000
# 4 0.0000 0.0000 0.0000 13.8005 0.0000 0.0000
# 5 0.0000 0.0000 0.0000 0.0000 30.0342 0.0000
# 6 0.0000 0.0000 0.0000 0.0000 0.0000 17.7781
#
#
#
# Elastic Compliance Matrix: (Units=1/GPa)
#
#
# Indices 1 2 3 4 5 6 
#
# 1 0.023448 -0.003406 -0.016811 0.000000 0.000000 0.000000
# 2 -0.003406 0.025246 -0.005234 0.000000 0.000000 0.000000
# 3 -0.016811 -0.005234 0.023505 0.000000 0.000000 0.000000
# 4 0.000000 0.000000 0.000000 0.072461 0.000000 0.000000
# 5 0.000000 0.000000 0.000000 0.000000 0.033295 0.000000
# 6 0.000000 0.000000 0.000000 0.000000 0.000000 0.056249
#
#
# Mechanical properties :
#
#
# Convention : Reuss Voigt Hill
#
# Bulk Modulus (GPa) = 46.95497 63.21670 55.08583
# Shear Modulus (GPa) = 17.11132 20.23218 18.67175
#
# Velocity S-wave (km/s) = 2.95660 3.21493 3.08847
# Velocity P-wave (km/s) = 5.97015 6.78792 6.39213
#
# Compressibility (1/GPa) = 0.02129700
#
# Stress axis : x y z
#
# Youngs Moduli (GPa) = 42.64821 39.61020 42.54442
#
# Poissons Ratio (x) = 0.13491 0.71522
# Poissons Ratio (y) = 0.14526 0.22267
# Poissons Ratio (z) = 0.71696 0.20731
#
# Static dielectric constant tensor:
#      x y z
#    x 1.729920 0.000000 0.000000 
#    y 0.000000 1.754880 0.000000 
#    z 0.000000 0.000000 1.749090 
# 
# From -- ./inp_files/48588.got.cif
#   From: 2010.05.17/outbox.cif.g08.bks.cpg/sg64_25_cif.got.tgz:48588.got - 2010.06.03 16:29:19.
