data_PCOD9479527
_publ_section_title
;
Structure prediction by ZEFSAII (Michael W. Deem and Ramdas Pophale) SiO2 
 PCOD9479527
Probable space group: C M C A
;
_chemical_formula_sum "Si O2"
_cell_formula_units_Z 96
_cell_length_a 19.908889
_cell_length_b 21.336994
_cell_length_c 9.649063
_cell_angle_alpha 90.000000
_cell_angle_beta 90.000000
_cell_angle_gamma 90.000000
_cell_volume 4098.881872
_symmetry_space_group_name_H-M "C M C A"
_symmetry_group_IT_number 64
_symmetry_cell_setting 'orthorhombic'
loop_
_space_group_symop_operation_xyz
x,y,z
-x,1/2-y,1/2+z
x,-y,-z
-x,1/2+y,1/2-z
-x,-y,-z
x,1/2+y,1/2-z
-x,y,z
x,1/2-y,1/2+z
1/2+x,1/2+y,z
1/2-x,-y,1/2+z
1/2+x,1/2-y,-z
1/2-x,y,1/2-z
1/2-x,1/2-y,-z
1/2+x,y,1/2-z
1/2-x,1/2+y,z
1/2+x,-y,1/2+z
loop_
_atom_site_type_symbol
_atom_site_label
_atom_site_fract_x
_atom_site_fract_y
_atom_site_fract_z
Si Si1 0.000000 0.434417 0.912571
Si Si2 0.156555 0.606450 0.103121
Si Si3 0.000000 0.136461 0.139746
Si Si4 0.308881 0.810799 0.137325
Si Si5 0.141847 0.329818 0.617740
Si Si6 0.857254 0.912882 0.160126
Si Si7 0.245759 0.500000 0.500000
Si Si8 0.500000 0.447775 0.114858
O O1 0.076369 0.404410 0.936210
O O2 0.000000 0.423651 0.743558
O O3 0.000000 0.500000 0.000000
O O4 0.165574 0.622954 0.264077
O O5 0.191761 0.663344 0.018714
O O6 0.202848 0.547840 0.069865
O O7 0.064509 0.177781 0.162194
O O8 0.000000 0.114644 0.980788
O O9 0.250000 0.809415 0.250000
O O10 0.329386 0.739097 0.121557
O O11 0.349694 0.868025 0.208515
O O12 0.143979 0.365270 0.471421
O O13 0.928041 0.947611 0.185852
O O14 0.801446 0.963424 0.111717
O O15 0.500000 0.500000 0.000000
#
# Coordination Sequence:
#
# PCOD9479527 Si02
#       8
#     8  16   8  16  16  16   8   8
#     4  10  20  41  62  95 124 168 211 258 312 384
#     4  11  25  42  68  95 129 169 209 265 319 373
#     4   8  20  40  64  90 124 162 212 260 320 364
#     4  12  26  43  62  96 131 165 216 264 314 378
#     4  10  24  44  68  91 126 171 212 258 318 379
#     4  11  25  42  68  95 129 169 209 265 319 373
#     4  12  24  44  62  98 136 164 212 260 320 380
#     4  10  20  41  62  95 124 168 211 258 312 384
#
# _framework density 23.421021
#
# number of rings (size 3 to 8) (size 9 to 14) (size 15 to 20)
#    0.000    1.333    3.333    1.000    2.333    7.333 
#    0.000    5.000    0.000    0.000    0.000    0.000 
#    0.000    0.000    0.000    0.000    0.000    0.000 
#
# Total GULP energy -267624.774140 kJ/mol
# GULP energy per Si atom -5575.516128 kJ/mol
# Density = 2.336771 g / cm^3
# Si number density = 23.421021 Si / 1000 Ang^3
#
#
#
# Elastic Constant Matrix: (Units=GPa)
#
#
# Indices 1 2 3 4 5 6 
#
# 1 115.3763 44.6606 -0.1496 0.0000 0.0000 0.0000
# 2 44.6606 104.5348 -1.4885 0.0000 0.0000 0.0000
# 3 -0.1496 -1.4885 67.6226 0.0000 0.0000 0.0000
# 4 0.0000 0.0000 0.0000 13.0172 0.0000 0.0000
# 5 0.0000 0.0000 0.0000 0.0000 65.3675 0.0000
# 6 0.0000 0.0000 0.0000 0.0000 0.0000 374.5712
#
#
#
# Elastic Compliance Matrix: (Units=1/GPa)
#
#
# Indices 1 2 3 4 5 6 
#
# 1 0.010385 -0.004438 -0.000075 0.000000 0.000000 0.000000
# 2 -0.004438 0.011466 0.000243 0.000000 0.000000 0.000000
# 3 -0.000075 0.000243 0.014793 0.000000 0.000000 0.000000
# 4 0.000000 0.000000 0.000000 0.076822 0.000000 0.000000
# 5 0.000000 0.000000 0.000000 0.000000 0.015298 0.000000
# 6 0.000000 0.000000 0.000000 0.000000 0.000000 0.002670
#
#
# Mechanical properties :
#
#
# Convention : Reuss Voigt Hill
#
# Bulk Modulus (GPa) = 35.58243 41.50873 38.54558
# Shear Modulus (GPa) = 33.48037 106.89192 70.18615
#
# Velocity S-wave (km/s) = 3.78498 6.76302 5.48017
# Velocity P-wave (km/s) = 5.85892 8.87389 7.51907
#
# Compressibility (1/GPa) = 0.02810376
#
# Stress axis : x y z
#
# Youngs Moduli (GPa) = 96.29235 87.21702 67.59892
#
# Poissons Ratio (x) = 0.38706 0.00505
# Poissons Ratio (y) = 0.42733 -0.01640
# Poissons Ratio (z) = 0.00719 -0.02116
#
# Static dielectric constant tensor:
#      x y z
#    x 2.010340 0.000000 0.000000 
#    y 0.000000 2.146740 0.000000 
#    z 0.000000 0.000000 1.934070 
# 
# From -- ./inp_files/17434.got.cif
#   From: 2010.05.17/outbox.cif.g08.bks.cpg/sg64_9_cif.got.tgz:17434.got - 2010.06.03 16:29:19.
