data_PCOD9479372
_publ_section_title
;
Structure prediction by ZEFSAII (Michael W. Deem and Ramdas Pophale) SiO2 
 PCOD9479372
Probable space group: C M C A
;
_chemical_formula_sum "Si O2"
_cell_formula_units_Z 80
_cell_length_a 17.522051
_cell_length_b 15.837616
_cell_length_c 14.620561
_cell_angle_alpha 90.000000
_cell_angle_beta 90.000000
_cell_angle_gamma 90.000000
_cell_volume 4057.315555
_symmetry_space_group_name_H-M "C M C A"
_symmetry_group_IT_number 64
_symmetry_cell_setting 'orthorhombic'
loop_
_space_group_symop_operation_xyz
x,y,z
-x,1/2-y,1/2+z
x,-y,-z
-x,1/2+y,1/2-z
-x,-y,-z
x,1/2+y,1/2-z
-x,y,z
x,1/2-y,1/2+z
1/2+x,1/2+y,z
1/2-x,-y,1/2+z
1/2+x,1/2-y,-z
1/2-x,y,1/2-z
1/2-x,1/2-y,-z
1/2+x,y,1/2-z
1/2-x,1/2+y,z
1/2+x,-y,1/2+z
loop_
_atom_site_type_symbol
_atom_site_label
_atom_site_fract_x
_atom_site_fract_y
_atom_site_fract_z
Si Si1 0.742183 0.379863 0.140708
Si Si2 0.913717 0.333187 0.422885
Si Si3 0.913360 0.325025 0.785360
Si Si4 0.820822 0.794101 0.900156
Si Si5 0.788738 0.058518 0.350988
O O1 0.750000 0.368589 0.250000
O O2 0.653350 0.392867 0.115286
O O3 0.774291 0.293533 0.097474
O O4 0.786725 0.463959 0.111638
O O5 0.913507 0.253822 0.354210
O O6 0.883376 0.302553 0.520971
O O7 0.000000 0.367236 0.427189
O O8 0.863262 0.300481 0.697383
O O9 0.871595 0.402372 0.835167
O O10 0.000000 0.344593 0.759071
O O11 0.762398 0.872924 0.904101
O O12 0.750000 0.052584 0.250000
#
# Coordination Sequence:
#
# PCOD9479372 Si02
#       5
#    16  16  16  16  16
#     4  11  20  39  63  88 118 161 202 243 297 361
#     4  11  23  38  61  92 119 154 202 251 304 353
#     4  10  20  39  61  87 124 158 196 252 300 346
#     4  11  20  40  61  85 120 163 202 241 299 361
#     4   9  20  36  60  88 116 159 203 238 291 361
#
# _framework density 19.717471
#
# number of rings (size 3 to 8) (size 9 to 14) (size 15 to 20)
#    0.000    1.600    4.000    1.800    0.000    0.800 
#    0.000   13.000    0.000    2.400    0.000    0.000 
#    0.000    0.000    0.000    0.000    0.000    0.000 
#
# Total GULP energy -223431.275898 kJ/mol
# GULP energy per Si atom -5585.781897 kJ/mol
# Density = 1.967259 g / cm^3
# Si number density = 19.717471 Si / 1000 Ang^3
#
#
#
# Elastic Constant Matrix: (Units=GPa)
#
#
# Indices 1 2 3 4 5 6 
#
# 1 117.6717 22.1661 16.7106 0.0000 0.0000 0.0000
# 2 22.1661 81.7416 13.7471 0.0000 0.0000 0.0000
# 3 16.7106 13.7471 81.7466 0.0000 0.0000 0.0000
# 4 0.0000 0.0000 0.0000 5.7979 0.0000 0.0000
# 5 0.0000 0.0000 0.0000 0.0000 28.8561 0.0000
# 6 0.0000 0.0000 0.0000 0.0000 0.0000 19.8500
#
#
#
# Elastic Compliance Matrix: (Units=1/GPa)
#
#
# Indices 1 2 3 4 5 6 
#
# 1 0.009129 -0.002225 -0.001492 0.000000 0.000000 0.000000
# 2 -0.002225 0.013132 -0.001754 0.000000 0.000000 0.000000
# 3 -0.001492 -0.001754 0.012833 0.000000 0.000000 0.000000
# 4 0.000000 0.000000 0.000000 0.172477 0.000000 0.000000
# 5 0.000000 0.000000 0.000000 0.000000 0.034655 0.000000
# 6 0.000000 0.000000 0.000000 0.000000 0.000000 0.050378
#
#
# Mechanical properties :
#
#
# Convention : Reuss Voigt Hill
#
# Bulk Modulus (GPa) = 41.40229 42.93415 42.16822
# Shear Modulus (GPa) = 16.04647 26.13653 21.09150
#
# Velocity S-wave (km/s) = 2.85585 3.64476 3.27415
# Velocity P-wave (km/s) = 5.64959 6.28763 5.97713
#
# Compressibility (1/GPa) = 0.02415325
#
# Stress axis : x y z
#
# Youngs Moduli (GPa) = 109.53900 76.15075 77.92512
#
# Poissons Ratio (x) = 0.16941 0.11627
# Poissons Ratio (y) = 0.24369 0.13665
# Poissons Ratio (z) = 0.16344 0.13354
#
# Static dielectric constant tensor:
#      x y z
#    x 1.694330 0.000000 0.000000 
#    y 0.000000 1.688080 0.000000 
#    z 0.000000 0.000000 1.733660 
# 
# From -- ./inp_files/25270.got.cif
#   From: 2010.05.17/outbox.cif.g08.bks.cpg/sg64_13_cif.got.tgz:25270.got - 2010.06.03 16:29:19.
