data_PCOD9479750
_publ_section_title
;
Structure prediction by ZEFSAII (Michael W. Deem and Ramdas Pophale) SiO2 
 PCOD9479750
Probable space group: C M C A
;
_chemical_formula_sum "Si O2"
_cell_formula_units_Z 72
_cell_length_a 18.294953
_cell_length_b 23.513731
_cell_length_c 8.746087
_cell_angle_alpha 90.000000
_cell_angle_beta 90.000000
_cell_angle_gamma 90.000000
_cell_volume 3762.414476
_symmetry_space_group_name_H-M "C M C A"
_symmetry_group_IT_number 64
_symmetry_cell_setting 'orthorhombic'
loop_
_space_group_symop_operation_xyz
x,y,z
-x,1/2-y,1/2+z
x,-y,-z
-x,1/2+y,1/2-z
-x,-y,-z
x,1/2+y,1/2-z
-x,y,z
x,1/2-y,1/2+z
1/2+x,1/2+y,z
1/2-x,-y,1/2+z
1/2+x,1/2-y,-z
1/2-x,y,1/2-z
1/2-x,1/2-y,-z
1/2+x,y,1/2-z
1/2-x,1/2+y,z
1/2+x,-y,1/2+z
loop_
_atom_site_type_symbol
_atom_site_label
_atom_site_fract_x
_atom_site_fract_y
_atom_site_fract_z
Si Si1 0.364176 0.330096 0.529167
Si Si2 0.000000 0.590943 0.025401
Si Si3 0.128270 0.000000 0.000000
Si Si4 0.719719 0.389971 0.075460
Si Si5 0.000000 0.986241 0.245219
Si Si6 0.164190 0.217830 0.791446
O O1 0.428993 0.372552 0.560439
O O2 0.288602 0.365649 0.518709
O O3 0.361491 0.277058 0.642360
O O4 0.374620 0.302259 0.361830
O O5 0.000000 0.536995 0.134430
O O6 0.000000 0.570402 0.848672
O O7 0.180010 0.944278 0.003875
O O8 0.072650 0.992237 0.142313
O O9 0.750000 0.402588 0.250000
O O10 0.665109 0.336108 0.094243
O O11 0.250000 0.225421 0.750000
#
# Coordination Sequence:
#
# PCOD9479750 Si02
#       6
#    16   8   8  16   8  16
#     4  10  21  36  58  83 115 153 191 233 287 344
#     4  11  24  42  56  80 122 163 192 238 298 341
#     4  11  22  40  66  89 110 152 202 239 280 352
#     4   9  19  36  59  87 116 146 186 240 294 340
#     4  10  24  42  58  82 122 154 188 246 298 330
#     4   9  18  36  57  82 115 145 182 242 294 335
#
# _framework density 19.136647
#
# number of rings (size 3 to 8) (size 9 to 14) (size 15 to 20)
#    0.000    2.667    0.000    5.333    0.000    8.000 
#    0.000    2.222    0.000    0.000    0.000    0.000 
#    0.000    0.000    0.000    0.000    0.000    0.000 
#
# Total GULP energy -200834.965055 kJ/mol
# GULP energy per Si atom -5578.749029 kJ/mol
# Density = 1.909309 g / cm^3
# Si number density = 19.136647 Si / 1000 Ang^3
#
#
#
# Elastic Constant Matrix: (Units=GPa)
#
#
# Indices 1 2 3 4 5 6 
#
# 1 49.1774 56.4485 17.2537 0.0000 0.0000 0.0000
# 2 56.4485 155.2175 34.9244 0.0000 0.0000 0.0000
# 3 17.2537 34.9244 20.2374 0.0000 0.0000 0.0000
# 4 0.0000 0.0000 0.0000 56.9843 0.0000 0.0000
# 5 0.0000 0.0000 0.0000 0.0000 12.4521 0.0000
# 6 0.0000 0.0000 0.0000 0.0000 0.0000 45.9351
#
#
#
# Elastic Compliance Matrix: (Units=1/GPa)
#
#
# Indices 1 2 3 4 5 6 
#
# 1 0.037072 -0.010415 -0.013634 0.000000 0.000000 0.000000
# 2 -0.010415 0.013458 -0.014346 0.000000 0.000000 0.000000
# 3 -0.013634 -0.014346 0.085794 0.000000 0.000000 0.000000
# 4 0.000000 0.000000 0.000000 0.017549 0.000000 0.000000
# 5 0.000000 0.000000 0.000000 0.000000 0.080308 0.000000
# 6 0.000000 0.000000 0.000000 0.000000 0.000000 0.021770
#
#
# Mechanical properties :
#
#
# Convention : Reuss Voigt Hill
#
# Bulk Modulus (GPa) = 16.79650 49.09838 32.94744
# Shear Modulus (GPa) = 14.18103 30.80802 22.49453
#
# Velocity S-wave (km/s) = 2.72516 4.01670 3.43223
# Velocity P-wave (km/s) = 4.32414 6.87200 5.74119
#
# Compressibility (1/GPa) = 0.05953620
#
# Stress axis : x y z
#
# Youngs Moduli (GPa) = 26.97428 74.30577 11.65583
#
# Poissons Ratio (x) = 0.77386 0.15891
# Poissons Ratio (y) = 0.28093 0.16721
# Poissons Ratio (z) = 0.36776 1.06597
#
# Static dielectric constant tensor:
#      x y z
#    x 1.646170 0.000000 0.000000 
#    y 0.000000 1.656090 0.000000 
#    z 0.000000 0.000000 1.687090 
# 
# From -- ./inp_files/6920.got.cif
#   From: 2010.05.17/outbox.cif.g08.bks.cpg/sg64_4_cif.got.tgz:6920.got - 2010.06.03 16:29:19.
