data_PCOD9479493
_publ_section_title
;
Structure prediction by ZEFSAII (Michael W. Deem and Ramdas Pophale) SiO2 
 PCOD9479493
Probable space group: C M C A
;
_chemical_formula_sum "Si O2"
_cell_formula_units_Z 80
_cell_length_a 14.772731
_cell_length_b 24.947872
_cell_length_c 11.043911
_cell_angle_alpha 90.000000
_cell_angle_beta 90.000000
_cell_angle_gamma 90.000000
_cell_volume 4070.213543
_symmetry_space_group_name_H-M "C M C A"
_symmetry_group_IT_number 64
_symmetry_cell_setting 'orthorhombic'
loop_
_space_group_symop_operation_xyz
x,y,z
-x,1/2-y,1/2+z
x,-y,-z
-x,1/2+y,1/2-z
-x,-y,-z
x,1/2+y,1/2-z
-x,y,z
x,1/2-y,1/2+z
1/2+x,1/2+y,z
1/2-x,-y,1/2+z
1/2+x,1/2-y,-z
1/2-x,y,1/2-z
1/2-x,1/2-y,-z
1/2+x,y,1/2-z
1/2-x,1/2+y,z
1/2+x,-y,1/2+z
loop_
_atom_site_type_symbol
_atom_site_label
_atom_site_fract_x
_atom_site_fract_y
_atom_site_fract_z
Si Si1 0.185814 0.603780 0.539514
Si Si2 0.156653 0.451297 0.907177
Si Si3 0.500000 0.248377 0.568606
Si Si4 0.705241 0.776446 0.379132
Si Si5 0.000000 0.856888 0.920238
Si Si6 0.500000 0.368371 0.629551
Si Si7 0.250000 0.025441 0.750000
O O1 0.250580 0.579263 0.437669
O O2 0.216604 0.660576 0.594511
O O3 0.204729 0.561861 0.647218
O O4 0.087653 0.615340 0.481857
O O5 0.084223 0.405125 0.904210
O O6 0.170063 0.485480 0.787717
O O7 0.137382 0.500000 0.000000
O O8 0.597478 0.235957 0.629890
O O9 0.500000 0.206377 0.456961
O O10 0.500000 0.312557 0.556783
O O11 0.750000 0.761258 0.250000
O O12 0.750000 0.750000 0.500000
O O13 0.000000 0.859486 0.774853
#
# Coordination Sequence:
#
# PCOD9479493 Si02
#       7
#    16  16   8  16   8   8   8
#     4  10  21  43  62  94 129 165 214 267 326 388
#     4  10  22  39  64  93 123 167 216 267 325 388
#     4  10  26  43  61  98 132 166 227 272 321 411
#     4  11  24  42  69  98 133 178 218 272 340 397
#     4  10  24  40  65  93 126 167 216 258 331 396
#     4  12  23  43  62  91 129 170 213 274 328 379
#     4  10  20  40  66  90 128 164 216 268 322 392
#
# _framework density 19.654989
#
# number of rings (size 3 to 8) (size 9 to 14) (size 15 to 20)
#    0.000    1.600    1.000    2.700    5.600    0.800 
#    3.600    6.500    0.000    0.000    0.000    0.000 
#    0.000    0.000    0.000    0.000    0.000    0.000 
#
# Total GULP energy -222804.259176 kJ/mol
# GULP energy per Si atom -5570.106479 kJ/mol
# Density = 1.961025 g / cm^3
# Si number density = 19.654989 Si / 1000 Ang^3
#
#
#
# Elastic Constant Matrix: (Units=GPa)
#
#
# Indices 1 2 3 4 5 6 
#
# 1 118.2992 71.5356 65.2821 0.0000 0.0000 0.0000
# 2 71.5356 164.6208 34.9201 0.0000 0.0000 0.0000
# 3 65.2821 34.9201 68.8845 0.0000 0.0000 0.0000
# 4 0.0000 0.0000 0.0000 16.6769 0.0000 0.0000
# 5 0.0000 0.0000 0.0000 0.0000 27.9083 0.0000
# 6 0.0000 0.0000 0.0000 0.0000 0.0000 38.8158
#
#
#
# Elastic Compliance Matrix: (Units=1/GPa)
#
#
# Indices 1 2 3 4 5 6 
#
# 1 0.021564 -0.005642 -0.017576 0.000000 0.000000 0.000000
# 2 -0.005642 0.008283 0.001148 0.000000 0.000000 0.000000
# 3 -0.017576 0.001148 0.030592 0.000000 0.000000 0.000000
# 4 0.000000 0.000000 0.000000 0.059963 0.000000 0.000000
# 5 0.000000 0.000000 0.000000 0.000000 0.035832 0.000000
# 6 0.000000 0.000000 0.000000 0.000000 0.000000 0.025763
#
#
# Mechanical properties :
#
#
# Convention : Reuss Voigt Hill
#
# Bulk Modulus (GPa) = 61.35458 77.25334 69.30396
# Shear Modulus (GPa) = 21.59173 28.68465 25.13819
#
# Velocity S-wave (km/s) = 3.31801 3.82436 3.58015
# Velocity P-wave (km/s) = 6.77957 7.67405 7.24063
#
# Compressibility (1/GPa) = 0.01629870
#
# Stress axis : x y z
#
# Youngs Moduli (GPa) = 46.37270 120.73138 32.68827
#
# Poissons Ratio (x) = 0.68122 0.57454
# Poissons Ratio (y) = 0.26165 -0.03754
# Poissons Ratio (z) = 0.81506 -0.13865
#
# Static dielectric constant tensor:
#      x y z
#    x 1.680340 0.000000 0.000000 
#    y 0.000000 1.662130 0.000000 
#    z 0.000000 0.000000 1.873180 
# 
# From -- ./inp_files/14536.got.cif
#   From: 2010.05.17/outbox.cif.g08.bks.cpg/sg64_8_cif.got.tgz:14536.got - 2010.06.03 16:29:19.
