data_PCOD9479770
_publ_section_title
;
Structure prediction by ZEFSAII (Michael W. Deem and Ramdas Pophale) SiO2 
 PCOD9479770
Probable space group: C M C A
;
_chemical_formula_sum "Si O2"
_cell_formula_units_Z 112
_cell_length_a 15.430448
_cell_length_b 22.055278
_cell_length_c 15.658056
_cell_angle_alpha 90.000000
_cell_angle_beta 90.000000
_cell_angle_gamma 90.000000
_cell_volume 5328.793778
_symmetry_space_group_name_H-M "C M C A"
_symmetry_group_IT_number 64
_symmetry_cell_setting 'orthorhombic'
loop_
_space_group_symop_operation_xyz
x,y,z
-x,1/2-y,1/2+z
x,-y,-z
-x,1/2+y,1/2-z
-x,-y,-z
x,1/2+y,1/2-z
-x,y,z
x,1/2-y,1/2+z
1/2+x,1/2+y,z
1/2-x,-y,1/2+z
1/2+x,1/2-y,-z
1/2-x,y,1/2-z
1/2-x,1/2-y,-z
1/2+x,y,1/2-z
1/2-x,1/2+y,z
1/2+x,-y,1/2+z
loop_
_atom_site_type_symbol
_atom_site_label
_atom_site_fract_x
_atom_site_fract_y
_atom_site_fract_z
Si Si1 0.231889 0.076741 0.649518
Si Si2 0.900946 0.206480 0.248971
Si Si3 0.103903 0.331150 0.935133
Si Si4 0.105041 0.188896 0.623143
Si Si5 0.128116 0.926225 0.801713
Si Si6 0.095309 0.961154 0.083882
Si Si7 0.816187 0.553765 0.119652
O O1 0.250000 0.061871 0.750000
O O2 0.163744 0.130594 0.643734
O O3 0.327692 0.084290 0.608537
O O4 0.195184 0.016860 0.602497
O O5 0.862820 0.195588 0.344194
O O6 0.865353 0.258644 0.188081
O O7 0.902173 0.143128 0.196958
O O8 0.000000 0.224483 0.265368
O O9 0.148345 0.397065 0.945474
O O10 0.000000 0.339383 0.927136
O O11 0.119432 0.295358 0.022931
O O12 0.000000 0.178188 0.632033
O O13 0.122438 0.941324 0.701936
O O14 0.223833 0.924871 0.842776
O O15 0.089370 0.984718 0.847394
O O16 0.000000 0.932915 0.073115
O O17 0.117643 0.000000 0.000000
#
# Coordination Sequence:
#
# PCOD9479770 Si02
#       7
#    16  16  16  16  16  16  16
#     4  11  22  40  57  87 129 168 204 254 320 382
#     4   9  18  37  62  86 119 161 205 256 304 364
#     4   9  19  36  61  92 120 158 212 258 308 371
#     4  10  23  40  61  94 131 166 205 255 319 388
#     4   9  16  33  58  84 112 151 206 253 300 353
#     4  10  21  36  59  88 120 160 209 263 310 365
#     4   9  17  33  56  87 117 155 196 251 304 363
#
# _framework density 21.017890000000001
#
# number of rings (size 3 to 8) (size 9 to 14) (size 15 to 20)
#    0.000    2.429    2.857    0.429    4.000    1.714 
#    5.143    3.571    0.000    3.429    0.000    0.000 
#    0.000    1.143    0.000    0.000    0.000    0.000 
#
# Total GULP energy -311818.876281 kJ/mol
# GULP energy per Si atom -5568.194219 kJ/mol
# Density = 2.097005 g / cm^3
# Si number density = 21.017890 Si / 1000 Ang^3
#
#
#
# Elastic Constant Matrix: (Units=GPa)
#
#
# Indices 1 2 3 4 5 6 
#
# 1 52.9101 34.9236 15.6159 0.0000 0.0000 0.0000
# 2 34.9236 100.1635 41.5065 0.0000 0.0000 0.0000
# 3 15.6159 41.5065 83.0692 0.0000 0.0000 0.0000
# 4 0.0000 0.0000 0.0000 27.4673 0.0000 0.0000
# 5 0.0000 0.0000 0.0000 0.0000 18.8154 0.0000
# 6 0.0000 0.0000 0.0000 0.0000 0.0000 27.0028
#
#
#
# Elastic Compliance Matrix: (Units=1/GPa)
#
#
# Indices 1 2 3 4 5 6 
#
# 1 0.024562 -0.008387 -0.000427 0.000000 0.000000 0.000000
# 2 -0.008387 0.015455 -0.006145 0.000000 0.000000 0.000000
# 3 -0.000427 -0.006145 0.015189 0.000000 0.000000 0.000000
# 4 0.000000 0.000000 0.000000 0.036407 0.000000 0.000000
# 5 0.000000 0.000000 0.000000 0.000000 0.053148 0.000000
# 6 0.000000 0.000000 0.000000 0.000000 0.000000 0.037033
#
#
# Mechanical properties :
#
#
# Convention : Reuss Voigt Hill
#
# Bulk Modulus (GPa) = 39.54567 46.69274 43.11921
# Shear Modulus (GPa) = 22.71277 24.26357 23.48817
#
# Velocity S-wave (km/s) = 3.29088 3.40137 3.34658
# Velocity P-wave (km/s) = 5.77026 6.13919 5.95758
#
# Compressibility (1/GPa) = 0.02528722
#
# Stress axis : x y z
#
# Youngs Moduli (GPa) = 40.71355 64.70597 65.83735
#
# Poissons Ratio (x) = 0.54270 0.02809
# Poissons Ratio (y) = 0.34147 0.40459
# Poissons Ratio (z) = 0.01737 0.39764
#
# Static dielectric constant tensor:
#      x y z
#    x 1.806680 0.000000 0.000000 
#    y 0.000000 1.757280 0.000000 
#    z 0.000000 0.000000 1.821060 
# 
# From -- ./inp_files/24221.got.cif
#   From: 2010.05.17/outbox.cif.g08.bks.cpg/sg64_13_cif.got.tgz:24221.got - 2010.06.03 16:29:19.
