data_PCOD9479474
_publ_section_title
;
Structure prediction by ZEFSAII (Michael W. Deem and Ramdas Pophale) SiO2 
 PCOD9479474
Probable space group: C M C A
;
_chemical_formula_sum "Si O2"
_cell_formula_units_Z 88
_cell_length_a 28.193754
_cell_length_b 17.504316
_cell_length_c 8.982704
_cell_angle_alpha 90.000000
_cell_angle_beta 90.000000
_cell_angle_gamma 90.000000
_cell_volume 4433.075623
_symmetry_space_group_name_H-M "C M C A"
_symmetry_group_IT_number 64
_symmetry_cell_setting 'orthorhombic'
loop_
_space_group_symop_operation_xyz
x,y,z
-x,1/2-y,1/2+z
x,-y,-z
-x,1/2+y,1/2-z
-x,-y,-z
x,1/2+y,1/2-z
-x,y,z
x,1/2-y,1/2+z
1/2+x,1/2+y,z
1/2-x,-y,1/2+z
1/2+x,1/2-y,-z
1/2-x,y,1/2-z
1/2-x,1/2-y,-z
1/2+x,y,1/2-z
1/2-x,1/2+y,z
1/2+x,-y,1/2+z
loop_
_atom_site_type_symbol
_atom_site_label
_atom_site_fract_x
_atom_site_fract_y
_atom_site_fract_z
Si Si1 0.579831 0.370628 0.287542
Si Si2 0.682682 0.664369 0.755368
Si Si3 0.923406 0.000000 0.500000
Si Si4 0.500000 0.581925 0.292981
Si Si5 0.251739 0.089516 0.973704
Si Si6 0.500000 0.710679 0.515856
Si Si7 0.500000 0.389834 0.050122
Si Si8 0.250000 0.195362 0.250000
O O1 0.626651 0.329903 0.229069
O O2 0.600108 0.436281 0.397801
O O3 0.545172 0.318740 0.388890
O O4 0.546214 0.402438 0.154946
O O5 0.703185 0.633032 0.598861
O O6 0.706981 0.603100 0.865348
O O7 0.707135 0.746183 0.783045
O O8 0.956053 0.043063 0.378266
O O9 0.500000 0.668543 0.355078
O O10 0.500000 0.572742 0.114764
O O11 0.239056 0.138808 0.116701
O O12 0.260230 0.000000 0.000000
O O13 0.500000 0.799774 0.487853
#
# Coordination Sequence:
#
# PCOD9479474 Si02
#       8
#    16  16   8   8  16   8   8   8
#     4  10  22  38  58  85 121 159 203 251 300 368
#     4  10  21  38  61  88 121 159 202 249 305 367
#     4   9  20  38  56  78 116 156 206 240 312 365
#     4   9  17  36  59  78 105 167 200 249 307 344
#     4  10  21  40  63  88 121 157 199 252 305 365
#     4   9  20  38  57  81 123 162 197 247 309 363
#     4  11  21  35  58  87 120 152 207 261 290 348
#     4  10  20  40  64  90 118 158 198 246 308 366
#
# _framework density 19.850777000000001
#
# number of rings (size 3 to 8) (size 9 to 14) (size 15 to 20)
#    0.000    2.364    0.000    6.000    1.273    4.364 
#    3.273    1.818    0.000    0.000    0.000    0.000 
#    0.000    0.000    0.000    0.000    0.000    0.000 
#
# Total GULP energy -245214.211797 kJ/mol
# GULP energy per Si atom -5573.050268 kJ/mol
# Density = 1.980560 g / cm^3
# Si number density = 19.850777 Si / 1000 Ang^3
#
#
#
# Elastic Constant Matrix: (Units=GPa)
#
#
# Indices 1 2 3 4 5 6 
#
# 1 104.8555 -3.8974 9.9790 0.0000 0.0000 0.0000
# 2 -3.8974 91.0111 8.6826 0.0000 0.0000 0.0000
# 3 9.9790 8.6826 102.2137 0.0000 0.0000 0.0000
# 4 0.0000 0.0000 0.0000 51.0038 0.0000 0.0000
# 5 0.0000 0.0000 0.0000 0.0000 6.6498 0.0000
# 6 0.0000 0.0000 0.0000 0.0000 0.0000 6.8639
#
#
#
# Elastic Compliance Matrix: (Units=1/GPa)
#
#
# Indices 1 2 3 4 5 6 
#
# 1 0.009650 0.000507 -0.000985 0.000000 0.000000 0.000000
# 2 0.000507 0.011104 -0.000993 0.000000 0.000000 0.000000
# 3 -0.000985 -0.000993 0.009964 0.000000 0.000000 0.000000
# 4 0.000000 0.000000 0.000000 0.019606 0.000000 0.000000
# 5 0.000000 0.000000 0.000000 0.000000 0.150381 0.000000
# 6 0.000000 0.000000 0.000000 0.000000 0.000000 0.145690
#
#
# Mechanical properties :
#
#
# Convention : Reuss Voigt Hill
#
# Bulk Modulus (GPa) = 36.00207 36.40094 36.20151
# Shear Modulus (GPa) = 13.94331 31.79123 22.86727
#
# Velocity S-wave (km/s) = 2.65317 4.00623 3.39773
# Velocity P-wave (km/s) = 5.24990 6.30690 5.80252
#
# Compressibility (1/GPa) = 0.02777618
#
# Stress axis : x y z
#
# Youngs Moduli (GPa) = 103.63183 90.05678 100.36194
#
# Poissons Ratio (x) = -0.04568 0.09887
# Poissons Ratio (y) = -0.05256 0.09964
# Poissons Ratio (z) = 0.10209 0.08940
#
# Static dielectric constant tensor:
#      x y z
#    x 1.890600 0.000000 0.000000 
#    y 0.000000 1.732400 0.000000 
#    z 0.000000 0.000000 1.979840 
# 
# From -- ./inp_files/11135.got.cif
#   From: 2010.05.17/outbox.cif.g08.bks.cpg/sg64_6_cif.got.tgz:11135.got - 2010.06.03 16:29:19.
