data_PCOD9479941
_publ_section_title
;
Structure prediction by ZEFSAII (Michael W. Deem and Ramdas Pophale) SiO2 
 PCOD9479941
Probable space group: C M C A
;
_chemical_formula_sum "Si O2"
_cell_formula_units_Z 96
_cell_length_a 15.370188
_cell_length_b 21.635373
_cell_length_c 14.218996
_cell_angle_alpha 90.000000
_cell_angle_beta 90.000000
_cell_angle_gamma 90.000000
_cell_volume 4728.381382
_symmetry_space_group_name_H-M "C M C A"
_symmetry_group_IT_number 64
_symmetry_cell_setting 'orthorhombic'
loop_
_space_group_symop_operation_xyz
x,y,z
-x,1/2-y,1/2+z
x,-y,-z
-x,1/2+y,1/2-z
-x,-y,-z
x,1/2+y,1/2-z
-x,y,z
x,1/2-y,1/2+z
1/2+x,1/2+y,z
1/2-x,-y,1/2+z
1/2+x,1/2-y,-z
1/2-x,y,1/2-z
1/2-x,1/2-y,-z
1/2+x,y,1/2-z
1/2-x,1/2+y,z
1/2+x,-y,1/2+z
loop_
_atom_site_type_symbol
_atom_site_label
_atom_site_fract_x
_atom_site_fract_y
_atom_site_fract_z
Si Si1 0.403239 0.736147 0.059308
Si Si2 0.224789 0.120987 0.051377
Si Si3 0.318833 0.602953 0.835164
Si Si4 0.854211 0.728393 0.744769
Si Si5 0.595394 0.019532 0.390099
Si Si6 0.903968 0.667340 0.110873
O O1 0.500000 0.707057 0.059717
O O2 0.326724 0.685908 0.059394
O O3 0.390901 0.778238 0.151181
O O4 0.397681 0.780894 0.970725
O O5 0.168461 0.071730 0.109649
O O6 0.321313 0.124622 0.092642
O O7 0.223829 0.105818 0.939439
O O8 0.250000 0.599513 0.750000
O O9 0.369948 0.667409 0.817804
O O10 0.377770 0.542111 0.835156
O O11 0.750000 0.735518 0.750000
O O12 0.892498 0.791424 0.703717
O O13 0.500000 0.042058 0.361031
O O14 0.590486 0.000000 0.500000
O O15 0.000000 0.638681 0.108125
#
# Coordination Sequence:
#
# PCOD9479941 Si02
#       6
#    16  16  16  16  16  16
#     4  11  22  35  57  91 126 161 202 248 309 371
#     4  11  20  40  62  83 125 163 204 253 299 363
#     4  10  21  37  63  89 121 159 201 250 310 362
#     4  11  20  36  59  86 123 163 195 247 304 363
#     4   9  20  38  63  89 112 152 202 250 302 353
#     4  11  22  36  57  88 123 159 197 246 304 361
#
# _framework density 20.30293
#
# number of rings (size 3 to 8) (size 9 to 14) (size 15 to 20)
#    0.000    1.500    3.333    3.500    0.000    2.000 
#    3.000    0.833    0.000    4.500    0.000    0.000 
#    0.000    0.000    0.000    0.000    0.000    0.000 
#
# Total GULP energy -268065.549270 kJ/mol
# GULP energy per Si atom -5584.698943 kJ/mol
# Density = 2.025672 g / cm^3
# Si number density = 20.302930 Si / 1000 Ang^3
#
#
#
# Elastic Constant Matrix: (Units=GPa)
#
#
# Indices 1 2 3 4 5 6 
#
# 1 163.4257 53.0120 2.7066 0.0000 0.0000 0.0000
# 2 53.0120 60.3102 6.3911 0.0000 0.0000 0.0000
# 3 2.7066 6.3911 42.0959 0.0000 0.0000 0.0000
# 4 0.0000 0.0000 0.0000 23.3903 0.0000 0.0000
# 5 0.0000 0.0000 0.0000 0.0000 11.0723 0.0000
# 6 0.0000 0.0000 0.0000 0.0000 0.0000 -95.2164
#
#
#
# Elastic Compliance Matrix: (Units=1/GPa)
#
#
# Indices 1 2 3 4 5 6 
#
# 1 0.008575 -0.007601 0.000603 0.000000 0.000000 0.000000
# 2 -0.007601 0.023590 -0.003093 0.000000 0.000000 0.000000
# 3 0.000603 -0.003093 0.024186 0.000000 0.000000 0.000000
# 4 0.000000 0.000000 0.000000 0.042753 0.000000 0.000000
# 5 0.000000 0.000000 0.000000 0.000000 0.090316 0.000000
# 6 0.000000 0.000000 0.000000 0.000000 0.000000 -0.010502
#
#
# Mechanical properties :
#
#
# Convention : Reuss Voigt Hill
#
# Bulk Modulus (GPa) = 27.64834 43.33903 35.49368
# Shear Modulus (GPa) = 23.67936 1.43071 12.55504
#
# Velocity S-wave (km/s) = 3.41882 0.84036 2.48943
# Velocity P-wave (km/s) = 5.40666 4.72590 5.07770
#
# Compressibility (1/GPa) = 0.03616854
#
# Stress axis : x y z
#
# Youngs Moduli (GPa) = 116.62415 42.39142 41.34612
#
# Poissons Ratio (x) = 0.32221 -0.02492
# Poissons Ratio (y) = 0.88644 0.12787
# Poissons Ratio (z) = -0.07029 0.13111
#
# Static dielectric constant tensor:
#      x y z
#    x 1.736960 0.000000 0.000000 
#    y 0.000000 1.717330 0.000000 
#    z 0.000000 0.000000 1.730810 
# 
# From -- ./inp_files/23913.got.cif
#   From: 2010.05.17/outbox.cif.g08.bks.cpg/sg64_12_cif.got.tgz:23913.got - 2010.06.03 16:29:19.
