data_PCOD9479853
_publ_section_title
;
Structure prediction by ZEFSAII (Michael W. Deem and Ramdas Pophale) SiO2 
 PCOD9479853
Probable space group: C M C A
;
_chemical_formula_sum "Si O2"
_cell_formula_units_Z 64
_cell_length_a 8.431301
_cell_length_b 25.458143
_cell_length_c 12.833507
_cell_angle_alpha 90.000000
_cell_angle_beta 90.000000
_cell_angle_gamma 90.000000
_cell_volume 2754.651531
_symmetry_space_group_name_H-M "C M C A"
_symmetry_group_IT_number 64
_symmetry_cell_setting 'orthorhombic'
loop_
_space_group_symop_operation_xyz
x,y,z
-x,1/2-y,1/2+z
x,-y,-z
-x,1/2+y,1/2-z
-x,-y,-z
x,1/2+y,1/2-z
-x,y,z
x,1/2-y,1/2+z
1/2+x,1/2+y,z
1/2-x,-y,1/2+z
1/2+x,1/2-y,-z
1/2-x,y,1/2-z
1/2-x,1/2-y,-z
1/2+x,y,1/2-z
1/2-x,1/2+y,z
1/2+x,-y,1/2+z
loop_
_atom_site_type_symbol
_atom_site_label
_atom_site_fract_x
_atom_site_fract_y
_atom_site_fract_z
Si Si1 0.812213 0.826295 0.583252
Si Si2 0.682536 0.064476 0.414178
Si Si3 0.811286 0.286522 0.143914
Si Si4 0.315977 0.043779 0.861337
O O1 0.721081 0.877128 0.623470
O O2 0.771301 0.817650 0.461011
O O3 0.765976 0.771127 0.634319
O O4 0.000000 0.834950 0.592497
O O5 0.500000 0.050439 0.394554
O O6 0.718581 0.063208 0.538357
O O7 0.794772 0.019574 0.367203
O O8 0.750000 0.311666 0.250000
O O9 0.000000 0.280680 0.147119
O O10 0.500000 0.058295 0.873644
O O11 0.250000 0.061114 0.750000
#
# Coordination Sequence:
#
# PCOD9479853 Si02
#       4
#    16  16  16  16
#     4  10  21  38  58  82 113 148 187 230 277 329
#     4  11  22  38  59  85 115 148 187 230 279 333
#     4  10  21  37  58  83 112 146 185 230 279 331
#     4  11  22  39  60  84 114 148 187 231 280 331
#
# _framework density 23.233429999999998
#
# number of rings (size 3 to 8) (size 9 to 14) (size 15 to 20)
#    0.000    1.500    0.000    7.500    0.000    5.000 
#    0.000    7.500    0.000    0.000    0.000    0.000 
#    0.000    0.000    0.000    0.000    0.000    0.000 
#
# Total GULP energy -179193.162280 kJ/mol
# GULP energy per Si atom -5599.786321 kJ/mol
# Density = 2.318055 g / cm^3
# Si number density = 23.233430 Si / 1000 Ang^3
#
#
#
# Elastic Constant Matrix: (Units=GPa)
#
#
# Indices 1 2 3 4 5 6 
#
# 1 60.8711 -0.7762 3.3580 0.0000 0.0000 0.0000
# 2 -0.7762 91.1510 -21.0243 0.0000 0.0000 0.0000
# 3 3.3580 -21.0243 105.4184 0.0000 0.0000 0.0000
# 4 0.0000 0.0000 0.0000 -22.6063 0.0000 0.0000
# 5 0.0000 0.0000 0.0000 0.0000 30.0329 0.0000
# 6 0.0000 0.0000 0.0000 0.0000 0.0000 4.4502
#
#
#
# Elastic Compliance Matrix: (Units=1/GPa)
#
#
# Indices 1 2 3 4 5 6 
#
# 1 0.016457 0.000020 -0.000520 0.000000 0.000000 0.000000
# 2 0.000020 0.011500 0.002293 0.000000 0.000000 0.000000
# 3 -0.000520 0.002293 0.009960 0.000000 0.000000 0.000000
# 4 0.000000 0.000000 0.000000 -0.044235 0.000000 0.000000
# 5 0.000000 0.000000 0.000000 0.000000 0.033297 0.000000
# 6 0.000000 0.000000 0.000000 0.000000 0.000000 0.224710
#
#
# Mechanical properties :
#
#
# Convention : Reuss Voigt Hill
#
# Bulk Modulus (GPa) = 24.09499 24.50616 24.30057
# Shear Modulus (GPa) = 19.08856 20.76755 19.92805
#
# Velocity S-wave (km/s) = 2.86946 2.99300 2.93188
# Velocity P-wave (km/s) = 4.62296 4.74497 4.68436
#
# Compressibility (1/GPa) = 0.04150241
#
# Stress axis : x y z
#
# Youngs Moduli (GPa) = 60.76404 86.95780 100.40301
#
# Poissons Ratio (x) = -0.00175 0.05223
# Poissons Ratio (y) = -0.00123 -0.23021
# Poissons Ratio (z) = 0.03161 -0.19938
#
# Static dielectric constant tensor:
#      x y z
#    x 1.779400 0.000000 0.000000 
#    y 0.000000 1.870170 0.000000 
#    z 0.000000 0.000000 1.896480 
# 
# From -- ./inp_files/20871.got.cif
#   From: 2010.05.17/outbox.cif.g08.bks.cpg/sg64_11_cif.got.tgz:20871.got - 2010.06.03 16:29:19.
