data_PCOD9479834
_publ_section_title
;
Structure prediction by ZEFSAII (Michael W. Deem and Ramdas Pophale) SiO2 
 PCOD9479834
Probable space group: C M C A
;
_chemical_formula_sum "Si O2"
_cell_formula_units_Z 80
_cell_length_a 17.872407
_cell_length_b 9.258673
_cell_length_c 25.835841
_cell_angle_alpha 90.000000
_cell_angle_beta 90.000000
_cell_angle_gamma 90.000000
_cell_volume 4275.179902
_symmetry_space_group_name_H-M "C M C A"
_symmetry_group_IT_number 64
_symmetry_cell_setting 'orthorhombic'
loop_
_space_group_symop_operation_xyz
x,y,z
-x,1/2-y,1/2+z
x,-y,-z
-x,1/2+y,1/2-z
-x,-y,-z
x,1/2+y,1/2-z
-x,y,z
x,1/2-y,1/2+z
1/2+x,1/2+y,z
1/2-x,-y,1/2+z
1/2+x,1/2-y,-z
1/2-x,y,1/2-z
1/2-x,1/2-y,-z
1/2+x,y,1/2-z
1/2-x,1/2+y,z
1/2+x,-y,1/2+z
loop_
_atom_site_type_symbol
_atom_site_label
_atom_site_fract_x
_atom_site_fract_y
_atom_site_fract_z
Si Si1 0.185541 0.990065 0.828324
Si Si2 0.164664 0.161089 0.650366
Si Si3 0.587434 0.242274 0.636395
Si Si4 0.089333 0.000328 0.560534
Si Si5 0.913731 0.476855 0.773777
O O1 0.187457 0.826792 0.847954
O O2 0.144764 0.982651 0.772744
O O3 0.266775 0.062329 0.829898
O O4 0.135372 0.098727 0.861946
O O5 0.136638 0.113278 0.594041
O O6 0.098767 0.118130 0.690372
O O7 0.500000 0.206531 0.635376
O O8 0.604233 0.346790 0.588222
O O9 0.599861 0.340167 0.688043
O O10 0.000000 0.028412 0.566822
O O11 0.106598 0.000000 0.500000
O O12 0.000000 0.471721 0.755815
#
# Coordination Sequence:
#
# PCOD9479834 Si02
#       5
#    16  16  16  16  16
#     4  12  23  36  54  81 117 154 188 228 275 327
#     4  11  23  37  55  83 115 149 190 230 275 330
#     4   9  19  36  58  85 114 146 186 228 274 330
#     4   9  19  40  66  86 109 142 180 228 284 336
#     4  10  21  37  57  82 115 153 188 226 276 332
#
# _framework density 18.712664
#
# number of rings (size 3 to 8) (size 9 to 14) (size 15 to 20)
#    0.000    1.800    0.000    6.600    0.000    6.400 
#    0.000    5.000    0.000    3.600    0.000    0.000 
#    0.000    0.000    0.000    0.000    0.000    0.000 
#
# Total GULP energy -223445.088053 kJ/mol
# GULP energy per Si atom -5586.127201 kJ/mol
# Density = 1.867007 g / cm^3
# Si number density = 18.712664 Si / 1000 Ang^3
#
#
#
# Elastic Constant Matrix: (Units=GPa)
#
#
# Indices 1 2 3 4 5 6 
#
# 1 86.9377 58.6890 61.2786 0.0000 0.0000 0.0000
# 2 58.6890 133.1370 45.6810 0.0000 0.0000 0.0000
# 3 61.2786 45.6810 140.2533 0.0000 0.0000 0.0000
# 4 0.0000 0.0000 0.0000 6.0980 0.0000 0.0000
# 5 0.0000 0.0000 0.0000 0.0000 -68.0034 0.0000
# 6 0.0000 0.0000 0.0000 0.0000 0.0000 30.7292
#
#
#
# Elastic Compliance Matrix: (Units=1/GPa)
#
#
# Indices 1 2 3 4 5 6 
#
# 1 0.021062 -0.006898 -0.006955 0.000000 0.000000 0.000000
# 2 -0.006898 0.010715 -0.000476 0.000000 0.000000 0.000000
# 3 -0.006955 -0.000476 0.010324 0.000000 0.000000 0.000000
# 4 0.000000 0.000000 0.000000 0.163988 0.000000 0.000000
# 5 0.000000 0.000000 0.000000 0.000000 -0.014705 0.000000
# 6 0.000000 0.000000 0.000000 0.000000 0.000000 0.032542
#
#
# Mechanical properties :
#
#
# Convention : Reuss Voigt Hill
#
# Bulk Modulus (GPa) = 74.39495 76.84724 75.62110
# Shear Modulus (GPa) = 19.45028 6.74338 13.09683
#
# Velocity S-wave (km/s) = 3.22750 1.90039 2.64842
# Velocity P-wave (km/s) = 7.33020 6.78022 7.06057
#
# Compressibility (1/GPa) = 0.01344177
#
# Stress axis : x y z
#
# Youngs Moduli (GPa) = 47.47982 93.32619 96.86164
#
# Poissons Ratio (x) = 0.64374 0.67372
# Poissons Ratio (y) = 0.32751 0.04613
# Poissons Ratio (z) = 0.33024 0.04444
#
# Static dielectric constant tensor:
#      x y z
#    x 1.692180 0.000000 0.000000 
#    y 0.000000 1.649880 0.000000 
#    z 0.000000 0.000000 1.639360 
# 
# From -- ./inp_files/50296.got.cif
#   From: 2010.05.17/outbox.cif.g08.bks.cpg/sg64_26_cif.got.tgz:50296.got - 2010.06.03 16:29:19.
