data_PCOD9479387
_publ_section_title
;
Structure prediction by ZEFSAII (Michael W. Deem and Ramdas Pophale) SiO2 
 PCOD9479387
Probable space group: C M C A
;
_chemical_formula_sum "Si O2"
_cell_formula_units_Z 96
_cell_length_a 15.261184
_cell_length_b 27.294757
_cell_length_c 9.955469
_cell_angle_alpha 90.000000
_cell_angle_beta 90.000000
_cell_angle_gamma 90.000000
_cell_volume 4146.953686
_symmetry_space_group_name_H-M "C M C A"
_symmetry_group_IT_number 64
_symmetry_cell_setting 'orthorhombic'
loop_
_space_group_symop_operation_xyz
x,y,z
-x,1/2-y,1/2+z
x,-y,-z
-x,1/2+y,1/2-z
-x,-y,-z
x,1/2+y,1/2-z
-x,y,z
x,1/2-y,1/2+z
1/2+x,1/2+y,z
1/2-x,-y,1/2+z
1/2+x,1/2-y,-z
1/2-x,y,1/2-z
1/2-x,1/2-y,-z
1/2+x,y,1/2-z
1/2-x,1/2+y,z
1/2+x,-y,1/2+z
loop_
_atom_site_type_symbol
_atom_site_label
_atom_site_fract_x
_atom_site_fract_y
_atom_site_fract_z
Si Si1 0.147794 0.956013 0.910693
Si Si2 0.398867 0.297680 0.322019
Si Si3 0.642142 0.958150 0.897782
Si Si4 0.144210 0.346678 0.910594
Si Si5 0.401460 0.363641 0.092544
Si Si6 0.157361 0.692061 0.362351
O O1 0.252237 0.963423 0.894365
O O2 0.111843 0.958350 0.758242
O O3 0.136837 0.906995 0.000271
O O4 0.111447 0.000000 0.000000
O O5 0.500000 0.288292 0.281174
O O6 0.397361 0.313855 0.476030
O O7 0.362589 0.342497 0.230960
O O8 0.344087 0.247918 0.315044
O O9 0.628776 0.902891 0.948658
O O10 0.608801 0.000000 0.000000
O O11 0.114089 0.338403 0.758404
O O12 0.246250 0.329374 0.896653
O O13 0.500000 0.379216 0.123135
O O14 0.397302 0.316177 0.996375
#
# Coordination Sequence:
#
# PCOD9479387 Si02
#       6
#    16  16  16  16  16  16
#     4  10  20  39  63  90 125 160 207 265 327 382
#     4  11  26  41  60  94 133 171 215 258 313 387
#     4  10  20  39  65  97 125 158 209 266 328 383
#     4  11  22  41  67  93 127 161 210 270 317 376
#     4  11  23  40  61  89 128 172 215 259 320 387
#     4  11  21  42  65  92 124 166 215 263 313 378
#
# _framework density 23.149522999999999
#
# number of rings (size 3 to 8) (size 9 to 14) (size 15 to 20)
#    0.000    1.333    3.333    3.000    2.333    5.000 
#    0.000    0.000    0.000    1.000    0.000    0.000 
#    0.000    0.000    0.000    0.000    0.000    0.000 
#
# Total GULP energy -267871.169068 kJ/mol
# GULP energy per Si atom -5580.649356 kJ/mol
# Density = 2.309683 g / cm^3
# Si number density = 23.149523 Si / 1000 Ang^3
#
#
#
# Elastic Constant Matrix: (Units=GPa)
#
#
# Indices 1 2 3 4 5 6 
#
# 1 50.8349 20.4719 11.2122 0.0000 0.0000 0.0000
# 2 20.4719 151.2907 49.2436 0.0000 0.0000 0.0000
# 3 11.2122 49.2436 85.7304 0.0000 0.0000 0.0000
# 4 0.0000 0.0000 0.0000 35.4697 0.0000 0.0000
# 5 0.0000 0.0000 0.0000 0.0000 27.7447 0.0000
# 6 0.0000 0.0000 0.0000 0.0000 0.0000 -24.4322
#
#
#
# Elastic Compliance Matrix: (Units=1/GPa)
#
#
# Indices 1 2 3 4 5 6 
#
# 1 0.020935 -0.002388 -0.001366 0.000000 0.000000 0.000000
# 2 -0.002388 0.008402 -0.004514 0.000000 0.000000 0.000000
# 3 -0.001366 -0.004514 0.014436 0.000000 0.000000 0.000000
# 4 0.000000 0.000000 0.000000 0.028193 0.000000 0.000000
# 5 0.000000 0.000000 0.000000 0.000000 0.036043 0.000000
# 6 0.000000 0.000000 0.000000 0.000000 0.000000 -0.040930
#
#
# Mechanical properties :
#
#
# Convention : Reuss Voigt Hill
#
# Bulk Modulus (GPa) = 36.71569 49.96794 43.34181
# Shear Modulus (GPa) = 53.94085 21.55167 37.74626
#
# Velocity S-wave (km/s) = 4.83235 3.05450 4.04238
# Velocity P-wave (km/s) = 6.85786 5.83710 6.36796
#
# Compressibility (1/GPa) = 0.02723631
#
# Stress axis : x y z
#
# Youngs Moduli (GPa) = 47.76793 119.01701 69.27157
#
# Poissons Ratio (x) = 0.28422 0.09464
# Poissons Ratio (y) = 0.11407 0.31268
# Poissons Ratio (z) = 0.06526 0.53723
#
# Static dielectric constant tensor:
#      x y z
#    x 1.930100 0.000000 0.000000 
#    y 0.000000 1.885410 0.000000 
#    z 0.000000 0.000000 1.868780 
# 
# From -- ./inp_files/8450.got.cif
#   From: 2010.05.17/outbox.cif.g08.bks.cpg/sg64_5_cif.got.tgz:8450.got - 2010.06.03 16:29:19.
