data_PCOD9479632
_publ_section_title
;
Structure prediction by ZEFSAII (Michael W. Deem and Ramdas Pophale) SiO2 
 PCOD9479632
Probable space group: C M C A
;
_chemical_formula_sum "Si O2"
_cell_formula_units_Z 80
_cell_length_a 28.820876
_cell_length_b 14.275730
_cell_length_c 8.081649
_cell_angle_alpha 90.000000
_cell_angle_beta 90.000000
_cell_angle_gamma 90.000000
_cell_volume 3325.105940
_symmetry_space_group_name_H-M "C M C A"
_symmetry_group_IT_number 64
_symmetry_cell_setting 'orthorhombic'
loop_
_space_group_symop_operation_xyz
x,y,z
-x,1/2-y,1/2+z
x,-y,-z
-x,1/2+y,1/2-z
-x,-y,-z
x,1/2+y,1/2-z
-x,y,z
x,1/2-y,1/2+z
1/2+x,1/2+y,z
1/2-x,-y,1/2+z
1/2+x,1/2-y,-z
1/2-x,y,1/2-z
1/2-x,1/2-y,-z
1/2+x,y,1/2-z
1/2-x,1/2+y,z
1/2+x,-y,1/2+z
loop_
_atom_site_type_symbol
_atom_site_label
_atom_site_fract_x
_atom_site_fract_y
_atom_site_fract_z
Si Si1 0.048962 0.141261 0.990385
Si Si2 0.697895 0.106107 0.813748
Si Si3 0.949399 0.858435 0.612884
Si Si4 0.154723 0.398513 0.863386
Si Si5 0.850203 0.604680 0.508602
O O1 0.052184 0.249749 0.939988
O O2 0.000000 0.103604 0.923103
O O3 0.048237 0.135220 0.188486
O O4 0.096248 0.094213 0.936232
O O5 0.750000 0.095847 0.750000
O O6 0.672944 0.156933 0.660935
O O7 0.673900 0.003656 0.833535
O O8 0.687879 0.146074 0.996326
O O9 0.898557 0.898249 0.570404
O O10 0.000000 0.893912 0.549030
O O11 0.153466 0.356069 0.676974
O O12 0.829257 0.500000 0.500000
#
# Coordination Sequence:
#
# PCOD9479632 Si02
#       5
#    16  16  16  16  16
#     4   9  18  32  54  80 108 147 181 215 267 327
#     4  10  21  34  56  79 104 137 184 225 276 326
#     4   9  18  34  54  79 112 145 180 218 266 327
#     4   9  20  34  53  82 108 138 177 225 270 319
#     4   9  19  34  52  80 110 140 178 227 273 318
#
# _framework density 24.059383
#
# number of rings (size 3 to 8) (size 9 to 14) (size 15 to 20)
#    0.000    2.800    0.000    0.000   11.200    0.400 
#    0.000    5.000    0.000    2.400    0.000    0.000 
#    0.000    0.000    0.000    0.000    0.000    0.000 
#
# Total GULP energy -222847.899990 kJ/mol
# GULP energy per Si atom -5571.197500 kJ/mol
# Density = 2.400462 g / cm^3
# Si number density = 24.059383 Si / 1000 Ang^3
#
#
#
# Elastic Constant Matrix: (Units=GPa)
#
#
# Indices 1 2 3 4 5 6 
#
# 1 179.0895 13.7511 53.5743 0.0000 0.0000 0.0000
# 2 13.7511 60.3093 9.2395 0.0000 0.0000 0.0000
# 3 53.5743 9.2395 124.6848 0.0000 0.0000 0.0000
# 4 0.0000 0.0000 0.0000 19.8493 0.0000 0.0000
# 5 0.0000 0.0000 0.0000 0.0000 -15.3000 0.0000
# 6 0.0000 0.0000 0.0000 0.0000 0.0000 51.5860
#
#
#
# Elastic Compliance Matrix: (Units=1/GPa)
#
#
# Indices 1 2 3 4 5 6 
#
# 1 0.006474 -0.001062 -0.002703 0.000000 0.000000 0.000000
# 2 -0.001062 0.016946 -0.000799 0.000000 0.000000 0.000000
# 3 -0.002703 -0.000799 0.009241 0.000000 0.000000 0.000000
# 4 0.000000 0.000000 0.000000 0.050380 0.000000 0.000000
# 5 0.000000 0.000000 0.000000 0.000000 -0.065360 0.000000
# 6 0.000000 0.000000 0.000000 0.000000 0.000000 0.019385
#
#
# Mechanical properties :
#
#
# Convention : Reuss Voigt Hill
#
# Bulk Modulus (GPa) = 42.49574 57.46816 49.98195
# Shear Modulus (GPa) = 92.52661 30.39497 61.46079
#
# Velocity S-wave (km/s) = 6.20815 3.55819 5.05973
# Velocity P-wave (km/s) = 8.31200 6.38896 7.41310
#
# Compressibility (1/GPa) = 0.02353177
#
# Stress axis : x y z
#
# Youngs Moduli (GPa) = 154.46522 59.01161 108.21469
#
# Poissons Ratio (x) = 0.06267 0.29251
# Poissons Ratio (y) = 0.16404 0.08651
# Poissons Ratio (z) = 0.41752 0.04717
#
# Static dielectric constant tensor:
#      x y z
#    x 1.957430 0.000000 0.000000 
#    y 0.000000 1.948220 0.000000 
#    z 0.000000 0.000000 2.034850 
# 
# From -- ./inp_files/10167.got.cif
#   From: 2010.05.17/outbox.cif.g08.bks.cpg/sg64_6_cif.got.tgz:10167.got - 2010.06.03 16:29:19.
