data_PCOD9479922
_publ_section_title
;
Structure prediction by ZEFSAII (Michael W. Deem and Ramdas Pophale) SiO2 
 PCOD9479922
Probable space group: C M C A
;
_chemical_formula_sum "Si O2"
_cell_formula_units_Z 104
_cell_length_a 27.833721
_cell_length_b 19.661097
_cell_length_c 10.282794
_cell_angle_alpha 90.000000
_cell_angle_beta 90.000000
_cell_angle_gamma 90.000000
_cell_volume 5627.171494
_symmetry_space_group_name_H-M "C M C A"
_symmetry_group_IT_number 64
_symmetry_cell_setting 'orthorhombic'
loop_
_space_group_symop_operation_xyz
x,y,z
-x,1/2-y,1/2+z
x,-y,-z
-x,1/2+y,1/2-z
-x,-y,-z
x,1/2+y,1/2-z
-x,y,z
x,1/2-y,1/2+z
1/2+x,1/2+y,z
1/2-x,-y,1/2+z
1/2+x,1/2-y,-z
1/2-x,y,1/2-z
1/2-x,1/2-y,-z
1/2+x,y,1/2-z
1/2-x,1/2+y,z
1/2+x,-y,1/2+z
loop_
_atom_site_type_symbol
_atom_site_label
_atom_site_fract_x
_atom_site_fract_y
_atom_site_fract_z
Si Si1 0.286238 0.544448 0.867594
Si Si2 0.000000 0.367016 0.771264
Si Si3 0.397232 0.553849 0.884980
Si Si4 0.119505 0.208742 0.949529
Si Si5 0.000000 0.970660 0.257004
Si Si6 0.925898 0.261232 0.699930
Si Si7 0.500000 0.342807 0.424445
Si Si8 0.273085 0.295471 0.111931
O O1 0.250000 0.523711 0.750000
O O2 0.343094 0.542951 0.823388
O O3 0.271734 0.622308 0.904218
O O4 0.282298 0.500000 0.000000
O O5 0.000000 0.447991 0.771192
O O6 0.044703 0.331588 0.698980
O O7 0.000000 0.341927 0.920455
O O8 0.448210 0.546830 0.810032
O O9 0.399901 0.500000 0.000000
O O10 0.393575 0.629827 0.939484
O O11 0.117313 0.231209 0.098699
O O12 0.084425 0.246164 0.849520
O O13 0.171108 0.221404 0.889957
O O14 0.000000 0.921234 0.381394
O O15 0.956013 0.198807 0.639394
O O16 0.250000 0.279478 0.250000
O O17 0.250000 0.250000 0.000000
#
# Coordination Sequence:
#
# PCOD9479922 Si02
#       8
#    16   8  16  16   8  16   8  16
#     4   9  20  40  63  89 123 159 203 253 303 365
#     4  11  24  39  56  86 124 153 201 250 291 356
#     4  10  21  37  61  91 119 156 207 250 302 366
#     4  11  21  38  63  85 118 157 200 248 297 360
#     4  12  22  38  60  85 126 161 196 252 312 354
#     4  11  22  38  60  85 114 160 202 240 290 356
#     4  11  22  39  56  79 122 157 199 242 296 354
#     4  10  21  38  60  91 122 151 194 254 309 359
#
# _framework density 18.481753999999999
#
# number of rings (size 3 to 8) (size 9 to 14) (size 15 to 20)
#    0.000    1.538    3.077    2.308    0.000    1.846 
#    0.000    4.615    0.000    0.000    0.000    0.000 
#    0.000    0.000    0.000    0.000    0.000    0.000 
#
# Total GULP energy -289550.505235 kJ/mol
# GULP energy per Si atom -5568.278947 kJ/mol
# Density = 1.843969 g / cm^3
# Si number density = 18.481754 Si / 1000 Ang^3
#
#
#
# Elastic Constant Matrix: (Units=GPa)
#
#
# Indices 1 2 3 4 5 6 
#
# 1 101.2795 35.0574 44.0716 0.0000 0.0000 0.0000
# 2 35.0574 80.4455 23.8284 0.0000 0.0000 0.0000
# 3 44.0716 23.8284 90.8126 0.0000 0.0000 0.0000
# 4 0.0000 0.0000 0.0000 34.1767 0.0000 0.0000
# 5 0.0000 0.0000 0.0000 0.0000 27.3769 0.0000
# 6 0.0000 0.0000 0.0000 0.0000 0.0000 18.8102
#
#
#
# Elastic Compliance Matrix: (Units=1/GPa)
#
#
# Indices 1 2 3 4 5 6 
#
# 1 0.013802 -0.004371 -0.005551 0.000000 0.000000 0.000000
# 2 -0.004371 0.014862 -0.001779 0.000000 0.000000 0.000000
# 3 -0.005551 -0.001779 0.014173 0.000000 0.000000 0.000000
# 4 0.000000 0.000000 0.000000 0.029260 0.000000 0.000000
# 5 0.000000 0.000000 0.000000 0.000000 0.036527 0.000000
# 6 0.000000 0.000000 0.000000 0.000000 0.000000 0.053163
#
#
# Mechanical properties :
#
#
# Convention : Reuss Voigt Hill
#
# Bulk Modulus (GPa) = 51.45181 53.16138 52.30660
# Shear Modulus (GPa) = 26.08697 27.37808 26.73253
#
# Velocity S-wave (km/s) = 3.76107 3.85302 3.80732
# Velocity P-wave (km/s) = 6.83817 6.97288 6.90585
#
# Compressibility (1/GPa) = 0.01943566
#
# Stress axis : x y z
#
# Youngs Moduli (GPa) = 72.45221 67.28448 70.55892
#
# Poissons Ratio (x) = 0.29407 0.39171
# Poissons Ratio (y) = 0.31665 0.12550
# Poissons Ratio (z) = 0.40222 0.11968
#
# Static dielectric constant tensor:
#      x y z
#    x 1.726700 0.000000 0.000000 
#    y 0.000000 1.621540 0.000000 
#    z 0.000000 0.000000 1.623150 
# 
# From -- ./inp_files/10472.got.cif
#   From: 2010.05.17/outbox.cif.g08.bks.cpg/sg64_6_cif.got.tgz:10472.got - 2010.06.03 16:29:19.
