data_PCOD9479607
_publ_section_title
;
Structure prediction by ZEFSAII (Michael W. Deem and Ramdas Pophale) SiO2 
 PCOD9479607
Probable space group: C M C A
;
_chemical_formula_sum "Si O2"
_cell_formula_units_Z 72
_cell_length_a 28.822102
_cell_length_b 5.595853
_cell_length_c 19.497472
_cell_angle_alpha 90.000000
_cell_angle_beta 90.000000
_cell_angle_gamma 90.000000
_cell_volume 3144.635069
_symmetry_space_group_name_H-M "C M C A"
_symmetry_group_IT_number 64
_symmetry_cell_setting 'orthorhombic'
loop_
_space_group_symop_operation_xyz
x,y,z
-x,1/2-y,1/2+z
x,-y,-z
-x,1/2+y,1/2-z
-x,-y,-z
x,1/2+y,1/2-z
-x,y,z
x,1/2-y,1/2+z
1/2+x,1/2+y,z
1/2-x,-y,1/2+z
1/2+x,1/2-y,-z
1/2-x,y,1/2-z
1/2-x,1/2-y,-z
1/2+x,y,1/2-z
1/2-x,1/2+y,z
1/2+x,-y,1/2+z
loop_
_atom_site_type_symbol
_atom_site_label
_atom_site_fract_x
_atom_site_fract_y
_atom_site_fract_z
Si Si1 0.224137 0.495335 0.082611
Si Si2 0.401158 0.000000 0.500000
Si Si3 0.128727 0.197043 0.619372
Si Si4 0.947462 0.092876 0.209357
Si Si5 0.049723 0.373498 0.925257
O O1 0.242012 0.766253 0.096738
O O2 0.178422 0.424295 0.125903
O O3 0.215457 0.500000 0.000000
O O4 0.370448 0.818985 0.543463
O O5 0.435870 0.890047 0.444644
O O6 0.102474 0.377157 0.670411
O O7 0.090538 0.990245 0.615828
O O8 0.947110 0.329387 0.257452
O O9 0.000000 0.108515 0.175446
O O10 0.000000 0.397055 0.892579
O O11 0.048336 0.500000 0.000000
#
# Coordination Sequence:
#
# PCOD9479607 Si02
#       5
#    16   8  16  16  16
#     4  10  23  39  62  92 132 169 208 260 326 395
#     4  10  21  32  56  92 128 164 202 258 325 400
#     4  11  23  38  63  89 126 166 222 266 326 390
#     4  10  24  45  67  93 126 172 222 268 322 387
#     4   9  18  31  48  81 122 155 190 240 309 379
#
# _framework density 22.896139000000002
#
# number of rings (size 3 to 8) (size 9 to 14) (size 15 to 20)
#    0.000    2.000    0.000    3.000   10.889    2.667 
#    0.000    0.000    0.000    4.000    0.000    0.000 
#    0.000    0.000    0.000    0.000    0.000    0.000 
#
# Total GULP energy -200562.225964 kJ/mol
# GULP energy per Si atom -5571.172943 kJ/mol
# Density = 2.284403 g / cm^3
# Si number density = 22.896139 Si / 1000 Ang^3
#
#
#
# Elastic Constant Matrix: (Units=GPa)
#
#
# Indices 1 2 3 4 5 6 
#
# 1 119.7824 35.0908 23.5022 0.0000 0.0000 0.0000
# 2 35.0908 125.7940 29.0088 0.0000 0.0000 0.0000
# 3 23.5022 29.0088 31.4200 0.0000 0.0000 0.0000
# 4 0.0000 0.0000 0.0000 50.9164 0.0000 0.0000
# 5 0.0000 0.0000 0.0000 0.0000 36.7703 0.0000
# 6 0.0000 0.0000 0.0000 0.0000 0.0000 51.3344
#
#
#
# Elastic Compliance Matrix: (Units=1/GPa)
#
#
# Indices 1 2 3 4 5 6 
#
# 1 0.009961 -0.001347 -0.006207 0.000000 0.000000 0.000000
# 2 -0.001347 0.010282 -0.008485 0.000000 0.000000 0.000000
# 3 -0.006207 -0.008485 0.044304 0.000000 0.000000 0.000000
# 4 0.000000 0.000000 0.000000 0.019640 0.000000 0.000000
# 5 0.000000 0.000000 0.000000 0.000000 0.027196 0.000000
# 6 0.000000 0.000000 0.000000 0.000000 0.000000 0.019480
#
#
# Mechanical properties :
#
#
# Convention : Reuss Voigt Hill
#
# Bulk Modulus (GPa) = 30.79973 50.24446 40.52210
# Shear Modulus (GPa) = 28.77460 40.43052 34.60256
#
# Velocity S-wave (km/s) = 3.54891 4.20673 3.89174
# Velocity P-wave (km/s) = 5.50219 6.75186 6.15880
#
# Compressibility (1/GPa) = 0.03246782
#
# Stress axis : x y z
#
# Youngs Moduli (GPa) = 100.39130 97.25650 22.57150
#
# Poissons Ratio (x) = 0.13104 0.14010
# Poissons Ratio (y) = 0.13526 0.19152
# Poissons Ratio (z) = 0.62312 0.82524
#
# Static dielectric constant tensor:
#      x y z
#    x 1.844280 0.000000 0.000000 
#    y 0.000000 1.930970 0.000000 
#    z 0.000000 0.000000 2.093220 
# 
# From -- ./inp_files/46819.got.cif
#   From: 2010.05.17/outbox.cif.g08.bks.cpg/sg64_24_cif.got.tgz:46819.got - 2010.06.03 16:29:19.
