data_PCOD9479994
_publ_section_title
;
Structure prediction by ZEFSAII (Michael W. Deem and Ramdas Pophale) SiO2 
 PCOD9479994
Probable space group: C M C A
;
_chemical_formula_sum "Si O2"
_cell_formula_units_Z 56
_cell_length_a 24.484444
_cell_length_b 23.946419
_cell_length_c 4.902565
_cell_angle_alpha 90.000000
_cell_angle_beta 90.000000
_cell_angle_gamma 90.000000
_cell_volume 2874.446197
_symmetry_space_group_name_H-M "C M C A"
_symmetry_group_IT_number 64
_symmetry_cell_setting 'orthorhombic'
loop_
_space_group_symop_operation_xyz
x,y,z
-x,1/2-y,1/2+z
x,-y,-z
-x,1/2+y,1/2-z
-x,-y,-z
x,1/2+y,1/2-z
-x,y,z
x,1/2-y,1/2+z
1/2+x,1/2+y,z
1/2-x,-y,1/2+z
1/2+x,1/2-y,-z
1/2-x,y,1/2-z
1/2-x,1/2-y,-z
1/2+x,y,1/2-z
1/2-x,1/2+y,z
1/2+x,-y,1/2+z
loop_
_atom_site_type_symbol
_atom_site_label
_atom_site_fract_x
_atom_site_fract_y
_atom_site_fract_z
Si Si1 0.563405 0.060733 0.388035
Si Si2 0.406405 0.868768 0.093210
Si Si3 0.500000 0.712805 0.384244
Si Si4 0.814163 0.212796 0.780453
O O1 0.500000 0.057791 0.294381
O O2 0.567820 0.103255 0.639398
O O3 0.579034 0.000000 0.500000
O O4 0.598676 0.083852 0.137804
O O5 0.447348 0.823255 0.963746
O O6 0.351819 0.837519 0.185048
O O7 0.500000 0.731947 0.072252
O O8 0.825457 0.266110 0.585158
O O9 0.750000 0.199770 0.750000
#
# Coordination Sequence:
#
# PCOD9479994 Si02
#       4
#    16  16   8  16
#     4  11  22  38  57  82 114 151 196 238 284 345
#     4  12  21  37  57  83 115 152 190 236 288 342
#     4  12  22  32  49  80 117 146 178 226 286 342
#     4  10  21  38  59  84 114 152 193 232 280 346
#
# _framework density 19.482015000000001
#
# number of rings (size 3 to 8) (size 9 to 14) (size 15 to 20)
#    0.000    0.857    2.857    6.000    0.000    2.286 
#    0.000    0.000    0.000    3.429    0.000    0.000 
#    0.000    0.000    0.000    0.000    0.000    0.000 
#
# Total GULP energy -156678.747755 kJ/mol
# GULP energy per Si atom -5595.669563 kJ/mol
# Density = 1.943767 g / cm^3
# Si number density = 19.482015 Si / 1000 Ang^3
#
#
#
# Elastic Constant Matrix: (Units=GPa)
#
#
# Indices 1 2 3 4 5 6 
#
# 1 80.3556 53.1053 15.2964 0.0000 0.0000 0.0000
# 2 53.1053 83.0042 10.1577 0.0000 0.0000 0.0000
# 3 15.2964 10.1577 63.3868 0.0000 0.0000 0.0000
# 4 0.0000 0.0000 0.0000 43.8098 0.0000 0.0000
# 5 0.0000 0.0000 0.0000 0.0000 20.6816 0.0000
# 6 0.0000 0.0000 0.0000 0.0000 0.0000 17.9088
#
#
#
# Elastic Compliance Matrix: (Units=1/GPa)
#
#
# Indices 1 2 3 4 5 6 
#
# 1 0.022156 -0.013792 -0.003137 0.000000 0.000000 0.000000
# 2 -0.013792 0.020873 -0.000017 0.000000 0.000000 0.000000
# 3 -0.003137 -0.000017 0.016536 0.000000 0.000000 0.000000
# 4 0.000000 0.000000 0.000000 0.022826 0.000000 0.000000
# 5 0.000000 0.000000 0.000000 0.000000 0.048352 0.000000
# 6 0.000000 0.000000 0.000000 0.000000 0.000000 0.055838
#
#
# Mechanical properties :
#
#
# Convention : Reuss Voigt Hill
#
# Bulk Modulus (GPa) = 38.94768 42.65171 40.79969
# Shear Modulus (GPa) = 21.83117 26.35920 24.09518
#
# Velocity S-wave (km/s) = 3.35114 3.68231 3.52062
# Velocity P-wave (km/s) = 5.91680 6.32610 6.12487
#
# Compressibility (1/GPa) = 0.02567547
#
# Stress axis : x y z
#
# Youngs Moduli (GPa) = 45.13389 47.90799 60.47498
#
# Poissons Ratio (x) = 0.66073 0.18969
# Poissons Ratio (y) = 0.62247 0.00102
# Poissons Ratio (z) = 0.14157 0.00081
#
# Static dielectric constant tensor:
#      x y z
#    x 1.658670 0.000000 0.000000 
#    y 0.000000 1.690800 0.000000 
#    z 0.000000 0.000000 1.687220 
# 
# From -- ./inp_files/1631.got.cif
#   From: 2010.05.17/outbox.cif.g08.bks.cpg/sg64_1_cif.got.tgz:1631.got - 2010.06.03 16:29:19.
