data_PCOD9479408
_publ_section_title
;
Structure prediction by ZEFSAII (Michael W. Deem and Ramdas Pophale) SiO2 
 PCOD9479408
Probable space group: C M C A
;
_chemical_formula_sum "Si O2"
_cell_formula_units_Z 80
_cell_length_a 15.250708
_cell_length_b 17.588545
_cell_length_c 15.300067
_cell_angle_alpha 90.000000
_cell_angle_beta 90.000000
_cell_angle_gamma 90.000000
_cell_volume 4104.055760
_symmetry_space_group_name_H-M "C M C A"
_symmetry_group_IT_number 64
_symmetry_cell_setting 'orthorhombic'
loop_
_space_group_symop_operation_xyz
x,y,z
-x,1/2-y,1/2+z
x,-y,-z
-x,1/2+y,1/2-z
-x,-y,-z
x,1/2+y,1/2-z
-x,y,z
x,1/2-y,1/2+z
1/2+x,1/2+y,z
1/2-x,-y,1/2+z
1/2+x,1/2-y,-z
1/2-x,y,1/2-z
1/2-x,1/2-y,-z
1/2+x,y,1/2-z
1/2-x,1/2+y,z
1/2+x,-y,1/2+z
loop_
_atom_site_type_symbol
_atom_site_label
_atom_site_fract_x
_atom_site_fract_y
_atom_site_fract_z
Si Si1 0.895855 0.652178 0.883022
Si Si2 0.651322 0.505099 0.718942
Si Si3 0.000000 0.630840 0.511030
Si Si4 0.324839 0.796168 0.552170
Si Si5 0.692794 0.424449 0.549830
Si Si6 0.000000 0.007005 0.142745
O O1 0.861630 0.591856 0.812915
O O2 0.857719 0.737025 0.875013
O O3 0.864978 0.619775 0.977742
O O4 0.000000 0.654224 0.879198
O O5 0.750000 0.494689 0.750000
O O6 0.861495 0.452916 0.866889
O O7 0.584037 0.487722 0.795232
O O8 0.088837 0.680557 0.503347
O O9 0.000000 0.574322 0.593404
O O10 0.000000 0.574200 0.427754
O O11 0.250000 0.750000 0.500000
O O12 0.274077 0.872418 0.578785
O O13 0.726794 0.500000 0.500000
#
# Coordination Sequence:
#
# PCOD9479408 Si02
#       6
#    16  16   8  16  16   8
#     4  10  20  39  65  92 120 163 203 249 310 371
#     4  11  23  40  62  93 126 158 206 258 307 357
#     4  11  24  41  65  89 120 164 210 252 304 369
#     4  10  21  39  66  91 121 162 206 248 304 376
#     4   9  21  36  66  90 122 160 206 250 309 358
#     4  11  26  39  66  91 121 160 212 257 304 361
#
# _framework density 19.492913999999999
#
# number of rings (size 3 to 8) (size 9 to 14) (size 15 to 20)
#    0.000    1.800    2.000    1.200   12.600    1.200 
#    0.000    3.000    8.800    0.000    0.000    0.000 
#    0.000    0.000    0.000    0.000    0.000    0.000 
#
# Total GULP energy -223230.380105 kJ/mol
# GULP energy per Si atom -5580.759503 kJ/mol
# Density = 1.944855 g / cm^3
# Si number density = 19.492914 Si / 1000 Ang^3
#
#
#
# Elastic Constant Matrix: (Units=GPa)
#
#
# Indices 1 2 3 4 5 6 
#
# 1 114.5577 25.8804 30.0587 0.0000 0.0000 0.0000
# 2 25.8804 86.1020 23.0077 0.0000 0.0000 0.0000
# 3 30.0587 23.0077 75.4704 0.0000 0.0000 0.0000
# 4 0.0000 0.0000 0.0000 22.1418 0.0000 0.0000
# 5 0.0000 0.0000 0.0000 0.0000 20.6870 0.0000
# 6 0.0000 0.0000 0.0000 0.0000 0.0000 28.2581
#
#
#
# Elastic Compliance Matrix: (Units=1/GPa)
#
#
# Indices 1 2 3 4 5 6 
#
# 1 0.010096 -0.002134 -0.003370 0.000000 0.000000 0.000000
# 2 -0.002134 0.013095 -0.003142 0.000000 0.000000 0.000000
# 3 -0.003370 -0.003142 0.015551 0.000000 0.000000 0.000000
# 4 0.000000 0.000000 0.000000 0.045163 0.000000 0.000000
# 5 0.000000 0.000000 0.000000 0.000000 0.048339 0.000000
# 6 0.000000 0.000000 0.000000 0.000000 0.000000 0.035388
#
#
# Mechanical properties :
#
#
# Convention : Reuss Voigt Hill
#
# Bulk Modulus (GPa) = 46.62388 48.22487 47.42437
# Shear Modulus (GPa) = 26.03150 27.36293 26.69721
#
# Velocity S-wave (km/s) = 3.65832 3.75071 3.70481
# Velocity P-wave (km/s) = 6.46643 6.59928 6.53319
#
# Compressibility (1/GPa) = 0.02144824
#
# Stress axis : x y z
#
# Youngs Moduli (GPa) = 99.05231 76.36383 64.30636
#
# Poissons Ratio (x) = 0.16295 0.21674
# Poissons Ratio (y) = 0.21137 0.20207
# Poissons Ratio (z) = 0.33385 0.23996
#
# Static dielectric constant tensor:
#      x y z
#    x 1.677290 0.000000 0.000000 
#    y 0.000000 1.725720 0.000000 
#    z 0.000000 0.000000 1.666890 
# 
# From -- ./inp_files/32083.got.cif
#   From: 2010.05.17/outbox.cif.g08.bks.cpg/sg64_17_cif.got.tgz:32083.got - 2010.06.03 16:29:19.
