data_PCOD9479804
_publ_section_title
;
Structure prediction by ZEFSAII (Michael W. Deem and Ramdas Pophale) SiO2 
 PCOD9479804
Probable space group: C M C A
;
_chemical_formula_sum "Si O2"
_cell_formula_units_Z 112
_cell_length_a 14.909696
_cell_length_b 9.964063
_cell_length_c 30.650442
_cell_angle_alpha 90.000000
_cell_angle_beta 90.000000
_cell_angle_gamma 90.000000
_cell_volume 4553.464919
_symmetry_space_group_name_H-M "C M C A"
_symmetry_group_IT_number 64
_symmetry_cell_setting 'orthorhombic'
loop_
_space_group_symop_operation_xyz
x,y,z
-x,1/2-y,1/2+z
x,-y,-z
-x,1/2+y,1/2-z
-x,-y,-z
x,1/2+y,1/2-z
-x,y,z
x,1/2-y,1/2+z
1/2+x,1/2+y,z
1/2-x,-y,1/2+z
1/2+x,1/2-y,-z
1/2-x,y,1/2-z
1/2-x,1/2-y,-z
1/2+x,y,1/2-z
1/2-x,1/2+y,z
1/2+x,-y,1/2+z
loop_
_atom_site_type_symbol
_atom_site_label
_atom_site_fract_x
_atom_site_fract_y
_atom_site_fract_z
Si Si1 0.894022 0.995873 0.929540
Si Si2 0.392031 0.586995 0.561942
Si Si3 0.895679 0.722346 0.508249
Si Si4 0.198791 0.209194 0.128657
Si Si5 0.596466 0.499287 0.714827
Si Si6 0.658824 0.724798 0.228818
Si Si7 0.605330 0.353453 0.624128
O O1 0.000000 0.005481 0.916128
O O2 0.893313 0.887460 0.969039
O O3 0.829050 0.932554 0.893621
O O4 0.862666 0.137550 0.950241
O O5 0.500000 0.608464 0.561524
O O6 0.357468 0.644989 0.515461
O O7 0.348932 0.680024 0.598935
O O8 0.381271 0.435614 0.578983
O O9 0.000000 0.749404 0.518386
O O10 0.159998 0.206909 0.177183
O O11 0.305698 0.234921 0.130295
O O12 0.500000 0.567728 0.711827
O O13 0.592015 0.368484 0.744769
O O14 0.653830 0.616442 0.735802
O O15 0.616641 0.452769 0.665745
O O16 0.750000 0.673674 0.250000
O O17 0.500000 0.306787 0.625937
#
# Coordination Sequence:
#
# PCOD9479804 Si02
#       7
#    16  16  16  16  16  16  16
#     4   8  14  25  47  81 114 139 177 233 295 343
#     4   9  17  32  58  84 110 145 187 232 293 354
#     4   7  11  23  45  78 113 140 171 227 290 348
#     4  11  20  33  57  80 108 149 191 240 287 345
#     4  11  24  41  61  85 115 152 193 244 297 357
#     4  12  24  40  61  85 116 150 196 244 302 349
#     4  10  21  37  53  77 109 149 193 236 284 349
#
# _framework density 24.596654999999998
#
# number of rings (size 3 to 8) (size 9 to 14) (size 15 to 20)
#    0.000    2.286    2.857    3.000    0.000    1.714 
#    0.000    0.714    0.000    1.714    0.000    8.000 
#    0.000    0.000    0.000    0.000    0.000    0.286 
#
# Total GULP energy -312633.077584 kJ/mol
# GULP energy per Si atom -5582.733528 kJ/mol
# Density = 2.454067 g / cm^3
# Si number density = 24.596655 Si / 1000 Ang^3
#
#
#
# Elastic Constant Matrix: (Units=GPa)
#
#
# Indices 1 2 3 4 5 6 
#
# 1 71.9425 11.3061 -4.0404 0.0000 0.0000 0.0000
# 2 11.3061 95.2475 34.8313 0.0000 0.0000 0.0000
# 3 -4.0404 34.8313 101.6669 0.0000 0.0000 0.0000
# 4 0.0000 0.0000 0.0000 38.4225 0.0000 0.0000
# 5 0.0000 0.0000 0.0000 0.0000 15.2225 0.0000
# 6 0.0000 0.0000 0.0000 0.0000 0.0000 11.4209
#
#
#
# Elastic Compliance Matrix: (Units=1/GPa)
#
#
# Indices 1 2 3 4 5 6 
#
# 1 0.014317 -0.002181 0.001316 0.000000 0.000000 0.000000
# 2 -0.002181 0.012335 -0.004313 0.000000 0.000000 0.000000
# 3 0.001316 -0.004313 0.011366 0.000000 0.000000 0.000000
# 4 0.000000 0.000000 0.000000 0.026026 0.000000 0.000000
# 5 0.000000 0.000000 0.000000 0.000000 0.065692 0.000000
# 6 0.000000 0.000000 0.000000 0.000000 0.000000 0.087559
#
#
# Mechanical properties :
#
#
# Convention : Reuss Voigt Hill
#
# Bulk Modulus (GPa) = 36.14952 39.22787 37.68869
# Shear Modulus (GPa) = 21.10858 28.13051 24.61955
#
# Velocity S-wave (km/s) = 2.93266 3.38549 3.16718
# Velocity P-wave (km/s) = 5.11822 5.59152 5.36010
#
# Compressibility (1/GPa) = 0.02766289
#
# Stress axis : x y z
#
# Youngs Moduli (GPa) = 69.84897 81.07069 87.98273
#
# Poissons Ratio (x) = 0.17679 -0.11579
# Poissons Ratio (y) = 0.15232 0.37944
# Poissons Ratio (z) = -0.09193 0.34963
#
# Static dielectric constant tensor:
#      x y z
#    x 1.779480 0.000000 0.000000 
#    y 0.000000 2.046040 0.000000 
#    z 0.000000 0.000000 1.933300 
# 
# From -- ./inp_files/53277.got.cif
#   From: 2010.05.17/outbox.cif.g08.bks.cpg/sg64_27_cif.got.tgz:53277.got - 2010.06.03 16:29:19.
