data_PCOD9479450
_publ_section_title
;
Structure prediction by ZEFSAII (Michael W. Deem and Ramdas Pophale) SiO2 
 PCOD9479450
Probable space group: C M C A
;
_chemical_formula_sum "Si O2"
_cell_formula_units_Z 112
_cell_length_a 24.067824
_cell_length_b 16.274254
_cell_length_c 14.030474
_cell_angle_alpha 90.000000
_cell_angle_beta 90.000000
_cell_angle_gamma 90.000000
_cell_volume 5495.538570
_symmetry_space_group_name_H-M "C M C A"
_symmetry_group_IT_number 64
_symmetry_cell_setting 'orthorhombic'
loop_
_space_group_symop_operation_xyz
x,y,z
-x,1/2-y,1/2+z
x,-y,-z
-x,1/2+y,1/2-z
-x,-y,-z
x,1/2+y,1/2-z
-x,y,z
x,1/2-y,1/2+z
1/2+x,1/2+y,z
1/2-x,-y,1/2+z
1/2+x,1/2-y,-z
1/2-x,y,1/2-z
1/2-x,1/2-y,-z
1/2+x,y,1/2-z
1/2-x,1/2+y,z
1/2+x,-y,1/2+z
loop_
_atom_site_type_symbol
_atom_site_label
_atom_site_fract_x
_atom_site_fract_y
_atom_site_fract_z
Si Si1 0.281818 0.337707 0.935302
Si Si2 0.435933 0.692262 0.085920
Si Si3 0.836699 0.921616 0.566455
Si Si4 0.816182 0.962204 0.265770
Si Si5 0.863609 0.244239 0.922312
Si Si6 0.120947 0.033752 0.100905
Si Si7 0.160238 0.279562 0.199670
O O1 0.223724 0.381485 0.951930
O O2 0.324045 0.412314 0.917407
O O3 0.291113 0.278005 0.844234
O O4 0.307628 0.287666 0.024084
O O5 0.500000 0.713471 0.090984
O O6 0.423953 0.602075 0.130534
O O7 0.394625 0.753147 0.141741
O O8 0.412516 0.695548 0.977012
O O9 0.874554 0.841144 0.559685
O O10 0.847906 0.000000 0.500000
O O11 0.834724 0.960402 0.671447
O O12 0.750000 0.970075 0.250000
O O13 0.825031 0.874553 0.315600
O O14 0.856352 0.965933 0.173689
O O15 0.852506 0.233663 0.810799
O O16 0.101858 0.000000 0.000000
#
# Coordination Sequence:
#
# PCOD9479450 Si02
#       7
#    16  16  16  16  16  16  16
#     4  10  21  37  54  85 123 167 194 238 284 360
#     4  10  23  45  65  86 117 157 207 267 312 348
#     4  12  23  35  55  86 126 166 201 240 296 354
#     4  12  24  35  59  91 130 169 194 238 302 370
#     4  10  22  38  62  84 117 156 204 251 297 364
#     4  10  20  40  61  90 124 151 199 255 299 360
#     4  10  23  40  60  90 123 159 207 248 295 368
#
# _framework density 20.380168000000001
#
# number of rings (size 3 to 8) (size 9 to 14) (size 15 to 20)
#    0.000    1.714    1.429    6.000    4.000    0.857 
#    0.000    0.714    0.000    3.857    0.000    0.000 
#    0.000    0.000    0.000    0.000    0.000    0.000 
#
# Total GULP energy -312578.383881 kJ/mol
# GULP energy per Si atom -5581.756855 kJ/mol
# Density = 2.033378 g / cm^3
# Si number density = 20.380168 Si / 1000 Ang^3
#
#
#
# Elastic Constant Matrix: (Units=GPa)
#
#
# Indices 1 2 3 4 5 6 
#
# 1 58.8522 -0.8873 16.0340 0.0000 0.0000 0.0000
# 2 -0.8873 102.7130 6.3809 0.0000 0.0000 0.0000
# 3 16.0340 6.3809 100.8782 0.0000 0.0000 0.0000
# 4 0.0000 0.0000 0.0000 43.4176 0.0000 0.0000
# 5 0.0000 0.0000 0.0000 0.0000 13.0244 0.0000
# 6 0.0000 0.0000 0.0000 0.0000 0.0000 7.7382
#
#
#
# Elastic Compliance Matrix: (Units=1/GPa)
#
#
# Indices 1 2 3 4 5 6 
#
# 1 0.017772 0.000330 -0.002846 0.000000 0.000000 0.000000
# 2 0.000330 0.009780 -0.000671 0.000000 0.000000 0.000000
# 3 -0.002846 -0.000671 0.010408 0.000000 0.000000 0.000000
# 4 0.000000 0.000000 0.000000 0.023032 0.000000 0.000000
# 5 0.000000 0.000000 0.000000 0.000000 0.076779 0.000000
# 6 0.000000 0.000000 0.000000 0.000000 0.000000 0.129229
#
#
# Mechanical properties :
#
#
# Convention : Reuss Voigt Hill
#
# Bulk Modulus (GPa) = 31.65847 33.94428 32.80137
# Shear Modulus (GPa) = 17.61169 28.89710 23.25440
#
# Velocity S-wave (km/s) = 2.94285 3.76959 3.38158
# Velocity P-wave (km/s) = 5.20719 5.96977 5.60147
#
# Compressibility (1/GPa) = 0.03158713
#
# Stress axis : x y z
#
# Youngs Moduli (GPa) = 56.26834 102.24517 96.08276
#
# Poissons Ratio (x) = -0.03377 0.27342
# Poissons Ratio (y) = -0.01859 0.06449
# Poissons Ratio (z) = 0.16012 0.06862
#
# Static dielectric constant tensor:
#      x y z
#    x 1.701670 0.000000 0.000000 
#    y 0.000000 1.753510 0.000000 
#    z 0.000000 0.000000 1.812280 
# 
# From -- ./inp_files/28081.got.cif
#   From: 2010.05.17/outbox.cif.g08.bks.cpg/sg64_15_cif.got.tgz:28081.got - 2010.06.03 16:29:19.
