data_PCOD9479115
_publ_section_title
;
Structure prediction by ZEFSAII (Michael W. Deem and Ramdas Pophale) SiO2 
 PCOD9479115
Probable space group: C M C A
;
_chemical_formula_sum "Si O2"
_cell_formula_units_Z 112
_cell_length_a 17.278507
_cell_length_b 14.248934
_cell_length_c 23.984148
_cell_angle_alpha 90.000000
_cell_angle_beta 90.000000
_cell_angle_gamma 90.000000
_cell_volume 5904.904573
_symmetry_space_group_name_H-M "C M C A"
_symmetry_group_IT_number 64
_symmetry_cell_setting 'orthorhombic'
loop_
_space_group_symop_operation_xyz
x,y,z
-x,1/2-y,1/2+z
x,-y,-z
-x,1/2+y,1/2-z
-x,-y,-z
x,1/2+y,1/2-z
-x,y,z
x,1/2-y,1/2+z
1/2+x,1/2+y,z
1/2-x,-y,1/2+z
1/2+x,1/2-y,-z
1/2-x,y,1/2-z
1/2-x,1/2-y,-z
1/2+x,y,1/2-z
1/2-x,1/2+y,z
1/2+x,-y,1/2+z
loop_
_atom_site_type_symbol
_atom_site_label
_atom_site_fract_x
_atom_site_fract_y
_atom_site_fract_z
Si Si1 0.186437 0.429495 0.375392
Si Si2 0.729421 0.889783 0.012443
Si Si3 0.852252 0.941947 0.321231
Si Si4 0.411081 0.818634 0.079627
Si Si5 0.192089 0.351028 0.602886
Si Si6 0.690621 0.853385 0.799542
Si Si7 0.091593 0.670443 0.713873
O O1 0.213345 0.385883 0.434240
O O2 0.262167 0.422335 0.335709
O O3 0.170988 0.540303 0.385105
O O4 0.117705 0.377945 0.343926
O O5 0.647851 0.846258 0.030423
O O6 0.767921 0.847107 0.957688
O O7 0.717167 0.000000 0.000000
O O8 0.899174 0.896813 0.372331
O O9 0.878953 0.894402 0.264410
O O10 0.856590 0.054066 0.316602
O O11 0.500000 0.812604 0.063064
O O12 0.379067 0.720340 0.103935
O O13 0.255694 0.323078 0.648695
O O14 0.750000 0.878500 0.750000
O O15 0.635464 0.769317 0.781864
O O16 0.000000 0.681600 0.717072
#
# Coordination Sequence:
#
# PCOD9479115 Si02
#       7
#    16  16  16  16  16  16  16
#     4   9  19  38  61  82 107 145 193 233 269 324
#     4   9  19  38  60  80 107 149 196 235 272 322
#     4  10  21  39  59  79 108 148 191 230 270 326
#     4  11  22  35  56  87 120 149 180 229 287 335
#     4  10  20  37  62  84 108 148 193 232 270 327
#     4  11  22  39  62  83 107 147 194 230 269 331
#     4  12  24  36  55  85 119 148 177 228 289 336
#
# _framework density 18.967283999999999
#
# number of rings (size 3 to 8) (size 9 to 14) (size 15 to 20)
#    0.000    1.714    0.000    7.286    0.000    2.000 
#    0.000    2.857    0.000    2.571    0.000    0.000 
#    0.000    0.000    0.000    0.000    0.000    0.000 
#
# Total GULP energy -312991.364644 kJ/mol
# GULP energy per Si atom -5589.131512 kJ/mol
# Density = 1.892411 g / cm^3
# Si number density = 18.967284 Si / 1000 Ang^3
#
#
#
# Elastic Constant Matrix: (Units=GPa)
#
#
# Indices 1 2 3 4 5 6 
#
# 1 56.0698 37.9972 27.9846 0.0000 0.0000 0.0000
# 2 37.9972 78.8789 12.0543 0.0000 0.0000 0.0000
# 3 27.9846 12.0543 77.9806 0.0000 0.0000 0.0000
# 4 0.0000 0.0000 0.0000 15.0067 0.0000 0.0000
# 5 0.0000 0.0000 0.0000 0.0000 10.8494 0.0000
# 6 0.0000 0.0000 0.0000 0.0000 0.0000 0.4943
#
#
#
# Elastic Compliance Matrix: (Units=1/GPa)
#
#
# Indices 1 2 3 4 5 6 
#
# 1 0.031943 -0.013965 -0.009304 0.000000 0.000000 0.000000
# 2 -0.013965 0.019090 0.002061 0.000000 0.000000 0.000000
# 3 -0.009304 0.002061 0.015844 0.000000 0.000000 0.000000
# 4 0.000000 0.000000 0.000000 0.066637 0.000000 0.000000
# 5 0.000000 0.000000 0.000000 0.000000 0.092171 0.000000
# 6 0.000000 0.000000 0.000000 0.000000 0.000000 2.022886
#
#
# Mechanical properties :
#
#
# Convention : Reuss Voigt Hill
#
# Bulk Modulus (GPa) = 40.88486 41.00016 40.94251
# Shear Modulus (GPa) = 2.17472 14.26295 8.21884
#
# Velocity S-wave (km/s) = 1.07194 2.74519 2.08388
# Velocity P-wave (km/s) = 4.80982 5.63128 5.23668
#
# Compressibility (1/GPa) = 0.02445893
#
# Stress axis : x y z
#
# Youngs Moduli (GPa) = 31.30592 52.38313 63.11466
#
# Poissons Ratio (x) = 0.73155 0.58724
# Poissons Ratio (y) = 0.43720 -0.13006
# Poissons Ratio (z) = 0.29128 -0.10795
#
# Static dielectric constant tensor:
#      x y z
#    x 1.606860 0.000000 0.000000 
#    y 0.000000 1.686690 0.000000 
#    z 0.000000 0.000000 1.662420 
# 
# From -- ./inp_files/45220.got.cif
#   From: 2010.05.17/outbox.cif.g08.bks.cpg/sg64_23_cif.got.tgz:45220.got - 2010.06.03 16:29:19.
