data_PCOD9479448
_publ_section_title
;
Structure prediction by ZEFSAII (Michael W. Deem and Ramdas Pophale) SiO2 
 PCOD9479448
Probable space group: C M C A
;
_chemical_formula_sum "Si O2"
_cell_formula_units_Z 116
_cell_length_a 24.183404
_cell_length_b 13.157196
_cell_length_c 18.404521
_cell_angle_alpha 90.000000
_cell_angle_beta 90.000000
_cell_angle_gamma 90.000000
_cell_volume 5856.056987
_symmetry_space_group_name_H-M "C M C A"
_symmetry_group_IT_number 64
_symmetry_cell_setting 'orthorhombic'
loop_
_space_group_symop_operation_xyz
x,y,z
-x,1/2-y,1/2+z
x,-y,-z
-x,1/2+y,1/2-z
-x,-y,-z
x,1/2+y,1/2-z
-x,y,z
x,1/2-y,1/2+z
1/2+x,1/2+y,z
1/2-x,-y,1/2+z
1/2+x,1/2-y,-z
1/2-x,y,1/2-z
1/2-x,1/2-y,-z
1/2+x,y,1/2-z
1/2-x,1/2+y,z
1/2+x,-y,1/2+z
loop_
_atom_site_type_symbol
_atom_site_label
_atom_site_fract_x
_atom_site_fract_y
_atom_site_fract_z
Si Si1 0.764311 0.330313 0.166892
Si Si2 0.438048 0.348182 0.649620
Si Si3 0.912692 0.831121 0.045175
Si Si4 0.500000 0.500000 0.000000
Si Si5 0.435602 0.263072 0.304957
Si Si6 0.869304 0.531824 0.805755
Si Si7 0.841166 0.179223 0.087927
Si Si8 0.341539 0.962497 0.357910
O O1 0.750000 0.296621 0.250000
O O2 0.813459 0.413764 0.167542
O O3 0.788667 0.240884 0.117737
O O4 0.709218 0.385102 0.141219
O O5 0.500000 0.392859 0.652909
O O6 0.435570 0.270637 0.582346
O O7 0.429977 0.285206 0.724648
O O8 0.392554 0.436786 0.649836
O O9 0.893031 0.900935 0.111761
O O10 0.952657 0.908317 0.002572
O O11 0.862397 0.799776 0.992847
O O12 0.500000 0.253650 0.326641
O O13 0.415599 0.379795 0.303064
O O14 0.393045 0.208087 0.359498
O O15 0.854770 0.500794 0.723413
O O16 0.829828 0.060310 0.094330
#
# Coordination Sequence:
#
# PCOD9479448 Si02
#       8
#    16  16  16   4  16  16  16  16
#     4   9  23  41  66  92 129 172 220 273 337 391
#     4  11  22  37  63  95 129 174 219 270 332 396
#     4  12  25  41  66  99 136 172 222 271 337 410
#     4  12  24  44  64  92 142 180 208 272 334 402
#     4  10  21  36  60  90 128 166 214 266 323 392
#     4  10  20  40  60  95 126 164 217 275 320 388
#     4  11  23  41  63  97 126 173 218 269 337 404
#     4  11  21  40  64  91 127 166 213 278 325 384
#
# _framework density 19.808551000000001
#
# number of rings (size 3 to 8) (size 9 to 14) (size 15 to 20)
#    0.000    1.379    4.828    0.414    0.966    3.310 
#    1.241    4.138    0.000    4.138    0.000    0.000 
#    0.000    0.000    0.000    0.000    0.000    0.000 
#
# Total GULP energy -323134.771971 kJ/mol
# GULP energy per Si atom -5571.289172 kJ/mol
# Density = 1.976347 g / cm^3
# Si number density = 19.808551 Si / 1000 Ang^3
#
#
#
# Elastic Constant Matrix: (Units=GPa)
#
#
# Indices 1 2 3 4 5 6 
#
# 1 36.4494 14.8250 -5.6106 0.0000 0.0000 0.0000
# 2 14.8250 59.6075 -4.8286 0.0000 0.0000 0.0000
# 3 -5.6106 -4.8286 28.9880 0.0000 0.0000 0.0000
# 4 0.0000 0.0000 0.0000 18.9800 0.0000 0.0000
# 5 0.0000 0.0000 0.0000 0.0000 11.4872 0.0000
# 6 0.0000 0.0000 0.0000 0.0000 0.0000 23.9515
#
#
#
# Elastic Compliance Matrix: (Units=1/GPa)
#
#
# Indices 1 2 3 4 5 6 
#
# 1 0.031170 -0.007363 0.004806 0.000000 0.000000 0.000000
# 2 -0.007363 0.018745 0.001697 0.000000 0.000000 0.000000
# 3 0.004806 0.001697 0.035710 0.000000 0.000000 0.000000
# 4 0.000000 0.000000 0.000000 0.052687 0.000000 0.000000
# 5 0.000000 0.000000 0.000000 0.000000 0.087054 0.000000
# 6 0.000000 0.000000 0.000000 0.000000 0.000000 0.041751
#
#
# Mechanical properties :
#
#
# Convention : Reuss Voigt Hill
#
# Bulk Modulus (GPa) = 11.91801 14.86853 13.39327
# Shear Modulus (GPa) = 16.84614 18.92767 17.88691
#
# Velocity S-wave (km/s) = 2.91941 3.09452 3.00824
# Velocity P-wave (km/s) = 4.17056 4.50449 4.34074
#
# Compressibility (1/GPa) = 0.08390659
#
# Stress axis : x y z
#
# Youngs Moduli (GPa) = 32.08231 53.34713 28.00336
#
# Poissons Ratio (x) = 0.39279 -0.13460
# Poissons Ratio (y) = 0.23622 -0.04753
# Poissons Ratio (z) = -0.15420 -0.09055
#
# Static dielectric constant tensor:
#      x y z
#    x 1.685590 0.000000 0.000000 
#    y 0.000000 1.680340 0.000000 
#    z 0.000000 0.000000 1.709500 
# 
# From -- ./inp_files/35519.got.cif
#   From: 2010.05.17/outbox.cif.g08.bks.cpg/sg64_18_cif.got.tgz:35519.got - 2010.06.03 16:29:19.
