data_PCOD9479697
_publ_section_title
;
Structure prediction by ZEFSAII (Michael W. Deem and Ramdas Pophale) SiO2 
 PCOD9479697
Probable space group: C M C A
;
_chemical_formula_sum "Si O2"
_cell_formula_units_Z 68
_cell_length_a 11.640916
_cell_length_b 13.985131
_cell_length_c 18.218854
_cell_angle_alpha 90.000000
_cell_angle_beta 90.000000
_cell_angle_gamma 90.000000
_cell_volume 2966.024607
_symmetry_space_group_name_H-M "C M C A"
_symmetry_group_IT_number 64
_symmetry_cell_setting 'orthorhombic'
loop_
_space_group_symop_operation_xyz
x,y,z
-x,1/2-y,1/2+z
x,-y,-z
-x,1/2+y,1/2-z
-x,-y,-z
x,1/2+y,1/2-z
-x,y,z
x,1/2-y,1/2+z
1/2+x,1/2+y,z
1/2-x,-y,1/2+z
1/2+x,1/2-y,-z
1/2-x,y,1/2-z
1/2-x,1/2-y,-z
1/2+x,y,1/2-z
1/2-x,1/2+y,z
1/2+x,-y,1/2+z
loop_
_atom_site_type_symbol
_atom_site_label
_atom_site_fract_x
_atom_site_fract_y
_atom_site_fract_z
Si Si1 0.230357 0.821404 0.603168
Si Si2 0.815016 0.014247 0.866739
Si Si3 0.366110 0.357631 0.445922
Si Si4 0.375158 0.192988 0.715917
Si Si5 0.500000 0.000000 0.500000
O O1 0.331988 0.749763 0.578928
O O2 0.179522 0.866302 0.528870
O O3 0.134647 0.755899 0.641679
O O4 0.278936 0.906913 0.652245
O O5 0.702698 0.071964 0.893161
O O6 0.869171 0.081016 0.804468
O O7 0.900631 0.009315 0.935683
O O8 0.500000 0.373889 0.442731
O O9 0.500000 0.212605 0.751759
O O10 0.250000 0.215499 0.750000
#
# Coordination Sequence:
#
# PCOD9479697 Si02
#       5
#    16  16  16  16   4
#     4  10  22  38  62  94 121 171 209 254 326 388
#     4  11  23  40  68  98 130 173 209 271 333 399
#     4  10  21  35  59  99 135 155 198 261 325 386
#     4  11  26  47  65  90 128 176 227 275 323 391
#     4  12  20  40  70 100 136 162 224 256 350 406
#
# _framework density 22.926310000000001
#
# number of rings (size 3 to 8) (size 9 to 14) (size 15 to 20)
#    0.000    1.412    3.529    0.706    1.647    7.529 
#    0.000    2.353    0.000    0.000    0.000    0.000 
#    0.000    0.000    0.000    0.000    0.000    0.000 
#
# Total GULP energy -189480.301231 kJ/mol
# GULP energy per Si atom -5572.950036 kJ/mol
# Density = 2.287413 g / cm^3
# Si number density = 22.926310 Si / 1000 Ang^3
#
#
#
# Elastic Constant Matrix: (Units=GPa)
#
#
# Indices 1 2 3 4 5 6 
#
# 1 184.1112 21.9272 12.0925 0.0000 0.0000 0.0000
# 2 21.9272 84.4079 -3.9523 0.0000 0.0000 0.0000
# 3 12.0925 -3.9523 33.7871 0.0000 0.0000 0.0000
# 4 0.0000 0.0000 0.0000 18.6426 0.0000 0.0000
# 5 0.0000 0.0000 0.0000 0.0000 22.0250 0.0000
# 6 0.0000 0.0000 0.0000 0.0000 0.0000 -7.2572
#
#
#
# Elastic Compliance Matrix: (Units=1/GPa)
#
#
# Indices 1 2 3 4 5 6 
#
# 1 0.005771 -0.001605 -0.002253 0.000000 0.000000 0.000000
# 2 -0.001605 0.012359 0.002020 0.000000 0.000000 0.000000
# 3 -0.002253 0.002020 0.030640 0.000000 0.000000 0.000000
# 4 0.000000 0.000000 0.000000 0.053641 0.000000 0.000000
# 5 0.000000 0.000000 0.000000 0.000000 0.045403 0.000000
# 6 0.000000 0.000000 0.000000 0.000000 0.000000 -0.137795
#
#
# Mechanical properties :
#
#
# Convention : Reuss Voigt Hill
#
# Bulk Modulus (GPa) = 22.17601 40.27122 31.22361
# Shear Modulus (GPa) = 174.06977 24.83135 99.45056
#
# Velocity S-wave (km/s) = 8.72299 3.29461 6.59337
# Velocity P-wave (km/s) = 10.54267 5.66359 8.46239
#
# Compressibility (1/GPa) = 0.04509377
#
# Stress axis : x y z
#
# Youngs Moduli (GPa) = 173.29290 80.91507 32.63733
#
# Poissons Ratio (x) = 0.12983 0.07353
# Poissons Ratio (y) = 0.27806 -0.06593
# Poissons Ratio (z) = 0.39043 -0.16345
#
# Static dielectric constant tensor:
#      x y z
#    x 1.830020 0.000000 0.000000 
#    y 0.000000 1.875210 0.000000 
#    z 0.000000 0.000000 1.944030 
# 
# From -- ./inp_files/37853.got.cif
#   From: 2010.05.17/outbox.cif.g08.bks.cpg/sg64_19_cif.got.tgz:37853.got - 2010.06.03 16:29:19.
