data_PCOD9479070
_publ_section_title
;
Structure prediction by ZEFSAII (Michael W. Deem and Ramdas Pophale) SiO2 
 PCOD9479070
Probable space group: C M C A
;
_chemical_formula_sum "Si O2"
_cell_formula_units_Z 80
_cell_length_a 7.610739
_cell_length_b 24.906078
_cell_length_c 19.536015
_cell_angle_alpha 90.000000
_cell_angle_beta 90.000000
_cell_angle_gamma 90.000000
_cell_volume 3703.123129
_symmetry_space_group_name_H-M "C M C A"
_symmetry_group_IT_number 64
_symmetry_cell_setting 'orthorhombic'
loop_
_space_group_symop_operation_xyz
x,y,z
-x,1/2-y,1/2+z
x,-y,-z
-x,1/2+y,1/2-z
-x,-y,-z
x,1/2+y,1/2-z
-x,y,z
x,1/2-y,1/2+z
1/2+x,1/2+y,z
1/2-x,-y,1/2+z
1/2+x,1/2-y,-z
1/2-x,y,1/2-z
1/2-x,1/2-y,-z
1/2+x,y,1/2-z
1/2-x,1/2+y,z
1/2+x,-y,1/2+z
loop_
_atom_site_type_symbol
_atom_site_label
_atom_site_fract_x
_atom_site_fract_y
_atom_site_fract_z
Si Si1 0.796201 0.409844 0.954071
Si Si2 0.784340 0.588102 0.892478
Si Si3 0.789307 0.478619 0.827413
Si Si4 0.210525 0.700698 0.829825
Si Si5 0.290361 0.287213 0.934804
O O1 0.720491 0.440384 0.888210
O O2 0.788580 0.346023 0.942919
O O3 0.000000 0.426623 0.958357
O O4 0.722514 0.421373 0.029644
O O5 0.728938 0.539179 0.844088
O O6 0.724038 0.645783 0.864789
O O7 0.000000 0.589344 0.893337
O O8 0.750000 0.462054 0.750000
O O9 0.000000 0.478783 0.832014
O O10 0.250000 0.701215 0.750000
O O11 0.275049 0.753363 0.869588
O O12 0.000000 0.700440 0.838440
O O13 0.500000 0.294422 0.930217
O O14 0.250000 0.250000 0.000000
#
# Coordination Sequence:
#
# PCOD9479070 Si02
#       5
#    16  16  16  16  16
#     4  10  20  37  60  84 111 148 194 236 280 337
#     4   9  17  35  59  83 110 145 190 235 280 333
#     4  10  21  36  58  83 114 153 189 233 285 338
#     4  10  21  36  56  83 114 145 185 233 282 337
#     4  11  22  38  59  84 114 150 188 233 283 336
#
# _framework density 21.603387000000001
#
# number of rings (size 3 to 8) (size 9 to 14) (size 15 to 20)
#    0.000    2.000    2.000    1.800    0.000    5.600 
#    0.000    5.000    0.000    2.400    0.000    0.000 
#    0.000    0.000    0.000    0.000    0.000    0.000 
#
# Total GULP energy -223470.959860 kJ/mol
# GULP energy per Si atom -5586.773997 kJ/mol
# Density = 2.155422 g / cm^3
# Si number density = 21.603387 Si / 1000 Ang^3
#
#
#
# Elastic Constant Matrix: (Units=GPa)
#
#
# Indices 1 2 3 4 5 6 
#
# 1 44.9740 -13.8298 -8.3205 0.0000 0.0000 0.0000
# 2 -13.8298 34.6228 14.1936 0.0000 0.0000 0.0000
# 3 -8.3205 14.1936 150.3090 0.0000 0.0000 0.0000
# 4 0.0000 0.0000 0.0000 37.9878 0.0000 0.0000
# 5 0.0000 0.0000 0.0000 0.0000 24.7724 0.0000
# 6 0.0000 0.0000 0.0000 0.0000 0.0000 14.0578
#
#
#
# Elastic Compliance Matrix: (Units=1/GPa)
#
#
# Indices 1 2 3 4 5 6 
#
# 1 0.025380 0.009947 0.000466 0.000000 0.000000 0.000000
# 2 0.009947 0.033944 -0.002655 0.000000 0.000000 0.000000
# 3 0.000466 -0.002655 0.006929 0.000000 0.000000 0.000000
# 4 0.000000 0.000000 0.000000 0.026324 0.000000 0.000000
# 5 0.000000 0.000000 0.000000 0.000000 0.040367 0.000000
# 6 0.000000 0.000000 0.000000 0.000000 0.000000 0.071135
#
#
# Mechanical properties :
#
#
# Convention : Reuss Voigt Hill
#
# Bulk Modulus (GPa) = 12.22953 23.77696 18.00325
# Shear Modulus (GPa) = 23.16737 31.22111 27.19424
#
# Velocity S-wave (km/s) = 3.27830 3.80570 3.55180
# Velocity P-wave (km/s) = 4.47246 5.50828 5.01717
#
# Compressibility (1/GPa) = 0.08176926
#
# Stress axis : x y z
#
# Youngs Moduli (GPa) = 39.40119 29.46009 144.31221
#
# Poissons Ratio (x) = -0.29304 -0.06720
# Poissons Ratio (y) = -0.39192 0.38311
# Poissons Ratio (z) = -0.01835 0.07821
#
# Static dielectric constant tensor:
#      x y z
#    x 1.868610 0.000000 0.000000 
#    y 0.000000 1.796680 0.000000 
#    z 0.000000 0.000000 1.763620 
# 
# From -- ./inp_files/22306.got.cif
#   From: 2010.05.17/outbox.cif.g08.bks.cpg/sg64_12_cif.got.tgz:22306.got - 2010.06.03 16:29:19.
