data_PCOD9479802
_publ_section_title
;
Structure prediction by ZEFSAII (Michael W. Deem and Ramdas Pophale) SiO2 
 PCOD9479802
Probable space group: C M C A
;
_chemical_formula_sum "Si O2"
_cell_formula_units_Z 88
_cell_length_a 24.676757
_cell_length_b 14.290902
_cell_length_c 12.155632
_cell_angle_alpha 90.000000
_cell_angle_beta 90.000000
_cell_angle_gamma 90.000000
_cell_volume 4286.721501
_symmetry_space_group_name_H-M "C M C A"
_symmetry_group_IT_number 64
_symmetry_cell_setting 'orthorhombic'
loop_
_space_group_symop_operation_xyz
x,y,z
-x,1/2-y,1/2+z
x,-y,-z
-x,1/2+y,1/2-z
-x,-y,-z
x,1/2+y,1/2-z
-x,y,z
x,1/2-y,1/2+z
1/2+x,1/2+y,z
1/2-x,-y,1/2+z
1/2+x,1/2-y,-z
1/2-x,y,1/2-z
1/2-x,1/2-y,-z
1/2+x,y,1/2-z
1/2-x,1/2+y,z
1/2+x,-y,1/2+z
loop_
_atom_site_type_symbol
_atom_site_label
_atom_site_fract_x
_atom_site_fract_y
_atom_site_fract_z
Si Si1 0.000000 0.683495 0.782010
Si Si2 0.292319 0.227198 0.153664
Si Si3 0.603832 0.401741 0.935965
Si Si4 0.000000 0.395494 0.448590
Si Si5 0.279311 0.612126 0.996117
Si Si6 0.413871 0.832822 0.792674
Si Si7 0.000000 0.108073 0.472596
O O1 0.000000 0.607479 0.682799
O O2 0.947623 0.746731 0.757475
O O3 0.000000 0.654075 0.907529
O O4 0.250000 0.207261 0.250000
O O5 0.286904 0.336528 0.120592
O O6 0.353499 0.199471 0.179850
O O7 0.270971 0.162675 0.053827
O O8 0.588218 0.407288 0.808097
O O9 0.609430 0.500000 0.000000
O O10 0.554969 0.351234 0.001807
O O11 0.663944 0.360164 0.943978
O O12 0.000000 0.500000 0.500000
O O13 0.272998 0.500000 0.000000
O O14 0.448031 0.867126 0.897132
O O15 0.000000 0.000000 0.500000
#
# Coordination Sequence:
#
# PCOD9479802 Si02
#       7
#     8  16  16   8  16  16   8
#     4  11  26  41  69  95 131 179 226 277 350 415
#     4  11  23  43  68  98 137 176 228 290 350 401
#     4  10  21  39  67  95 130 173 231 274 336 417
#     4  10  21  36  67  96 126 172 232 274 331 423
#     4  10  23  42  66  98 134 179 230 285 344 420
#     4  11  25  44  69  98 136 179 227 284 343 421
#     4  11  29  47  65 102 145 176 219 289 356 409
#
# _framework density 20.528507999999999
#
# number of rings (size 3 to 8) (size 9 to 14) (size 15 to 20)
#    0.000    1.455    1.818    2.182   12.727    1.455 
#    0.000    0.000    0.000    0.000    0.000    0.000 
#    0.000    0.000    0.000    0.000    0.000    0.000 
#
# Total GULP energy -245495.768367 kJ/mol
# GULP energy per Si atom -5579.449281 kJ/mol
# Density = 2.048178 g / cm^3
# Si number density = 20.528508 Si / 1000 Ang^3
#
#
#
# Elastic Constant Matrix: (Units=GPa)
#
#
# Indices 1 2 3 4 5 6 
#
# 1 177.7573 35.8440 63.6281 0.0000 0.0000 0.0000
# 2 35.8440 102.2394 54.9114 0.0000 0.0000 0.0000
# 3 63.6281 54.9114 170.1678 0.0000 0.0000 0.0000
# 4 0.0000 0.0000 0.0000 39.1717 0.0000 0.0000
# 5 0.0000 0.0000 0.0000 0.0000 -9.4376 0.0000
# 6 0.0000 0.0000 0.0000 0.0000 0.0000 8.2380
#
#
#
# Elastic Compliance Matrix: (Units=1/GPa)
#
#
# Indices 1 2 3 4 5 6 
#
# 1 0.006614 -0.001198 -0.002086 0.000000 0.000000 0.000000
# 2 -0.001198 0.012049 -0.003440 0.000000 0.000000 0.000000
# 3 -0.002086 -0.003440 0.007767 0.000000 0.000000 0.000000
# 4 0.000000 0.000000 0.000000 0.025529 0.000000 0.000000
# 5 0.000000 0.000000 0.000000 0.000000 -0.105960 0.000000
# 6 0.000000 0.000000 0.000000 0.000000 0.000000 0.121389
#
#
# Mechanical properties :
#
#
# Convention : Reuss Voigt Hill
#
# Bulk Modulus (GPa) = 77.04026 84.32573 80.68300
# Shear Modulus (GPa) = 58.71040 27.31314 43.01177
#
# Velocity S-wave (km/s) = 5.35365 3.65156 4.58232
# Velocity P-wave (km/s) = 8.70777 7.67757 8.20885
#
# Compressibility (1/GPa) = 0.01298023
#
# Stress axis : x y z
#
# Youngs Moduli (GPa) = 151.19193 82.99729 128.75435
#
# Poissons Ratio (x) = 0.09945 0.26864
# Poissons Ratio (y) = 0.18116 0.44290
# Poissons Ratio (z) = 0.31545 0.28550
#
# Static dielectric constant tensor:
#      x y z
#    x 1.761260 0.000000 0.000000 
#    y 0.000000 1.804160 0.000000 
#    z 0.000000 0.000000 1.797790 
# 
# From -- ./inp_files/18268.got.cif
#   From: 2010.05.17/outbox.cif.g08.bks.cpg/sg64_10_cif.got.tgz:18268.got - 2010.06.03 16:29:19.
