data_PCOD9479795
_publ_section_title
;
Structure prediction by ZEFSAII (Michael W. Deem and Ramdas Pophale) SiO2 
 PCOD9479795
Probable space group: C M C A
;
_chemical_formula_sum "Si O2"
_cell_formula_units_Z 80
_cell_length_a 18.726494
_cell_length_b 13.459631
_cell_length_c 14.756267
_cell_angle_alpha 90.000000
_cell_angle_beta 90.000000
_cell_angle_gamma 90.000000
_cell_volume 3719.342171
_symmetry_space_group_name_H-M "C M C A"
_symmetry_group_IT_number 64
_symmetry_cell_setting 'orthorhombic'
loop_
_space_group_symop_operation_xyz
x,y,z
-x,1/2-y,1/2+z
x,-y,-z
-x,1/2+y,1/2-z
-x,-y,-z
x,1/2+y,1/2-z
-x,y,z
x,1/2-y,1/2+z
1/2+x,1/2+y,z
1/2-x,-y,1/2+z
1/2+x,1/2-y,-z
1/2-x,y,1/2-z
1/2-x,1/2-y,-z
1/2+x,y,1/2-z
1/2-x,1/2+y,z
1/2+x,-y,1/2+z
loop_
_atom_site_type_symbol
_atom_site_label
_atom_site_fract_x
_atom_site_fract_y
_atom_site_fract_z
Si Si1 0.718069 0.138063 0.341940
Si Si2 0.612837 0.398354 0.445771
Si Si3 0.858247 0.732011 0.104513
Si Si4 0.720628 0.438159 0.089253
Si Si5 0.920600 0.753564 0.807357
O O1 0.750000 0.183073 0.250000
O O2 0.786350 0.162483 0.403257
O O3 0.643385 0.189886 0.359819
O O4 0.707436 0.020648 0.334121
O O5 0.592559 0.500000 0.500000
O O6 0.598227 0.312562 0.520745
O O7 0.695936 0.411738 0.416454
O O8 0.579819 0.357037 0.351616
O O9 0.827130 0.841713 0.094763
O O10 0.898953 0.732400 0.201143
O O11 0.701234 0.500000 0.000000
O O12 0.000000 0.794620 0.819947
#
# Coordination Sequence:
#
# PCOD9479795 Si02
#       5
#    16  16  16  16  16
#     4  10  21  36  63  93 125 167 216 273 319 372
#     4  11  22  40  70 102 129 166 219 284 334 381
#     4  11  22  41  66  95 129 171 222 277 325 381
#     4  11  20  34  64  99 123 154 217 278 329 378
#     4  11  26  43  63  96 138 179 217 260 330 406
#
# _framework density 21.509181000000002
#
# number of rings (size 3 to 8) (size 9 to 14) (size 15 to 20)
#    0.000    1.200    6.000    1.800    2.800    1.200 
#    0.000    3.000    0.000    2.400    0.000    0.000 
#    0.000    0.000    0.000    0.000    0.000    0.000 
#
# Total GULP energy -222745.246217 kJ/mol
# GULP energy per Si atom -5568.631155 kJ/mol
# Density = 2.146022 g / cm^3
# Si number density = 21.509181 Si / 1000 Ang^3
#
#
#
# Elastic Constant Matrix: (Units=GPa)
#
#
# Indices 1 2 3 4 5 6 
#
# 1 94.1340 17.9014 21.5839 0.0000 0.0000 0.0000
# 2 17.9014 102.3462 16.8047 0.0000 0.0000 0.0000
# 3 21.5839 16.8047 71.9245 0.0000 0.0000 0.0000
# 4 0.0000 0.0000 0.0000 29.4591 0.0000 0.0000
# 5 0.0000 0.0000 0.0000 0.0000 1.5250 0.0000
# 6 0.0000 0.0000 0.0000 0.0000 0.0000 1.8106
#
#
#
# Elastic Compliance Matrix: (Units=1/GPa)
#
#
# Indices 1 2 3 4 5 6 
#
# 1 0.011631 -0.001520 -0.003135 0.000000 0.000000 0.000000
# 2 -0.001520 0.010359 -0.001964 0.000000 0.000000 0.000000
# 3 -0.003135 -0.001964 0.015303 0.000000 0.000000 0.000000
# 4 0.000000 0.000000 0.000000 0.033945 0.000000 0.000000
# 5 0.000000 0.000000 0.000000 0.000000 0.655726 0.000000
# 6 0.000000 0.000000 0.000000 0.000000 0.000000 0.552309
#
#
# Mechanical properties :
#
#
# Convention : Reuss Voigt Hill
#
# Bulk Modulus (GPa) = 41.57150 42.33165 41.95157
# Shear Modulus (GPa) = 3.84459 20.69992 12.27226
#
# Velocity S-wave (km/s) = 1.33839 3.10558 2.39123
# Velocity P-wave (km/s) = 4.66451 5.70815 5.21252
#
# Compressibility (1/GPa) = 0.02405494
#
# Stress axis : x y z
#
# Youngs Moduli (GPa) = 85.97689 96.53369 65.34542
#
# Poissons Ratio (x) = 0.14669 0.20488
# Poissons Ratio (y) = 0.13065 0.12836
# Poissons Ratio (z) = 0.26957 0.18962
#
# Static dielectric constant tensor:
#      x y z
#    x 1.799880 0.000000 0.000000 
#    y 0.000000 1.836930 0.000000 
#    z 0.000000 0.000000 1.992940 
# 
# From -- ./inp_files/33022.got.cif
#   From: 2010.05.17/outbox.cif.g08.bks.cpg/sg64_17_cif.got.tgz:33022.got - 2010.06.03 16:29:19.
