data_PCOD9479161
_publ_section_title
;
Structure prediction by ZEFSAII (Michael W. Deem and Ramdas Pophale) SiO2 
 PCOD9479161
Probable space group: C M C A
;
_chemical_formula_sum "Si O2"
_cell_formula_units_Z 80
_cell_length_a 22.250107
_cell_length_b 12.100117
_cell_length_c 13.710718
_cell_angle_alpha 90.000000
_cell_angle_beta 90.000000
_cell_angle_gamma 90.000000
_cell_volume 3691.321497
_symmetry_space_group_name_H-M "C M C A"
_symmetry_group_IT_number 64
_symmetry_cell_setting 'orthorhombic'
loop_
_space_group_symop_operation_xyz
x,y,z
-x,1/2-y,1/2+z
x,-y,-z
-x,1/2+y,1/2-z
-x,-y,-z
x,1/2+y,1/2-z
-x,y,z
x,1/2-y,1/2+z
1/2+x,1/2+y,z
1/2-x,-y,1/2+z
1/2+x,1/2-y,-z
1/2-x,y,1/2-z
1/2-x,1/2-y,-z
1/2+x,y,1/2-z
1/2-x,1/2+y,z
1/2+x,-y,1/2+z
loop_
_atom_site_type_symbol
_atom_site_label
_atom_site_fract_x
_atom_site_fract_y
_atom_site_fract_z
Si Si1 0.568462 0.397536 0.250261
Si Si2 0.747809 0.550675 0.601206
Si Si3 0.832976 0.452336 0.746307
Si Si4 0.658146 0.255665 0.382019
Si Si5 0.931241 0.630648 0.522858
O O1 0.500000 0.397214 0.282244
O O2 0.596970 0.520484 0.249508
O O3 0.610602 0.329376 0.322228
O O4 0.571212 0.354478 0.139301
O O5 0.768463 0.500000 0.500000
O O6 0.802011 0.547416 0.678405
O O7 0.698565 0.468103 0.650149
O O8 0.713770 0.666383 0.589130
O O9 0.820536 0.339540 0.691631
O O10 0.620771 0.198647 0.468934
O O11 0.923467 0.500000 0.500000
O O12 0.000000 0.659325 0.490676
#
# Coordination Sequence:
#
# PCOD9479161 Si02
#       5
#    16  16  16  16  16
#     4  10  22  39  63  95 127 158 208 263 313 379
#     4  10  25  43  63  93 126 166 215 269 311 374
#     4  10  23  42  63  92 127 163 215 257 318 380
#     4  11  23  40  67  89 130 171 209 260 326 377
#     4  10  20  37  64  97 127 164 215 257 308 383
#
# _framework density 21.672456
#
# number of rings (size 3 to 8) (size 9 to 14) (size 15 to 20)
#    0.000    1.800    2.000    0.600    5.600    8.000 
#    0.000    0.000    0.000    3.000    0.000    0.000 
#    0.000    0.000    0.000    0.000    0.000    0.000 
#
# Total GULP energy -223585.871921 kJ/mol
# GULP energy per Si atom -5589.646798 kJ/mol
# Density = 2.162313 g / cm^3
# Si number density = 21.672456 Si / 1000 Ang^3
#
#
#
# Elastic Constant Matrix: (Units=GPa)
#
#
# Indices 1 2 3 4 5 6 
#
# 1 87.2321 23.8382 -7.1326 0.0000 0.0000 0.0000
# 2 23.8382 62.4941 -13.2183 0.0000 0.0000 0.0000
# 3 -7.1326 -13.2183 43.5573 0.0000 0.0000 0.0000
# 4 0.0000 0.0000 0.0000 21.9653 0.0000 0.0000
# 5 0.0000 0.0000 0.0000 0.0000 27.4998 0.0000
# 6 0.0000 0.0000 0.0000 0.0000 0.0000 21.7989
#
#
#
# Elastic Compliance Matrix: (Units=1/GPa)
#
#
# Indices 1 2 3 4 5 6 
#
# 1 0.012815 -0.004749 0.000657 0.000000 0.000000 0.000000
# 2 -0.004749 0.018859 0.004945 0.000000 0.000000 0.000000
# 3 0.000657 0.004945 0.024567 0.000000 0.000000 0.000000
# 4 0.000000 0.000000 0.000000 0.045526 0.000000 0.000000
# 5 0.000000 0.000000 0.000000 0.000000 0.036364 0.000000
# 6 0.000000 0.000000 0.000000 0.000000 0.000000 0.045874
#
#
# Mechanical properties :
#
#
# Convention : Reuss Voigt Hill
#
# Bulk Modulus (GPa) = 17.25688 22.25090 19.75389
# Shear Modulus (GPa) = 24.79981 26.90588 25.85284
#
# Velocity S-wave (km/s) = 3.38642 3.52728 3.45757
# Velocity P-wave (km/s) = 4.82393 5.18442 5.00742
#
# Compressibility (1/GPa) = 0.05794790
#
# Stress axis : x y z
#
# Youngs Moduli (GPa) = 78.03191 53.02461 40.70552
#
# Poissons Ratio (x) = 0.25183 -0.02675
# Poissons Ratio (y) = 0.37060 -0.20131
# Poissons Ratio (z) = -0.05129 -0.26223
#
# Static dielectric constant tensor:
#      x y z
#    x 1.801730 0.000000 0.000000 
#    y 0.000000 1.819700 0.000000 
#    z 0.000000 0.000000 1.771960 
# 
# From -- ./inp_files/27085.got.cif
#   From: 2010.05.17/outbox.cif.g08.bks.cpg/sg64_14_cif.got.tgz:27085.got - 2010.06.03 16:29:19.
