data_PCOD9479876
_publ_section_title
;
Structure prediction by ZEFSAII (Michael W. Deem and Ramdas Pophale) SiO2 
 PCOD9479876
Probable space group: C M C A
;
_chemical_formula_sum "Si O2"
_cell_formula_units_Z 56
_cell_length_a 24.152954
_cell_length_b 5.081555
_cell_length_c 18.083463
_cell_angle_alpha 90.000000
_cell_angle_beta 90.000000
_cell_angle_gamma 90.000000
_cell_volume 2219.465950
_symmetry_space_group_name_H-M "C M C A"
_symmetry_group_IT_number 64
_symmetry_cell_setting 'orthorhombic'
loop_
_space_group_symop_operation_xyz
x,y,z
-x,1/2-y,1/2+z
x,-y,-z
-x,1/2+y,1/2-z
-x,-y,-z
x,1/2+y,1/2-z
-x,y,z
x,1/2-y,1/2+z
1/2+x,1/2+y,z
1/2-x,-y,1/2+z
1/2+x,1/2-y,-z
1/2-x,y,1/2-z
1/2-x,1/2-y,-z
1/2+x,y,1/2-z
1/2-x,1/2+y,z
1/2+x,-y,1/2+z
loop_
_atom_site_type_symbol
_atom_site_label
_atom_site_fract_x
_atom_site_fract_y
_atom_site_fract_z
Si Si1 0.719338 0.039475 0.910646
Si Si2 0.435368 0.255311 0.698309
Si Si3 0.000000 0.246649 0.552146
Si Si4 0.383244 0.589800 0.085289
O O1 0.767658 0.243308 0.884956
O O2 0.664737 0.208023 0.893540
O O3 0.720103 0.000000 0.000000
O O4 0.427396 0.024585 0.758593
O O5 0.500000 0.245491 0.672573
O O6 0.394255 0.171331 0.633046
O O7 0.000000 0.500000 0.500000
O O8 0.057921 0.260232 0.593455
O O9 0.000000 0.000000 0.500000
O O10 0.374601 0.500000 0.000000
#
# Coordination Sequence:
#
# PCOD9479876 Si02
#       4
#    16  16   8  16
#     4  10  21  37  58  89 126 162 203 253 310 365
#     4  10  23  42  61  87 126 169 204 247 315 388
#     4  10  22  34  52  90 124 146 185 252 311 348
#     4  11  22  40  65  95 125 162 209 265 310 368
#
# _framework density 25.231297999999999
#
# number of rings (size 3 to 8) (size 9 to 14) (size 15 to 20)
#    0.000    1.714    1.429    3.429    0.000   11.429 
#    0.000    0.000    0.000    5.143    0.000    0.000 
#    0.000    0.000    0.000    0.000    0.000    0.000 
#
# Total GULP energy -156808.526457 kJ/mol
# GULP energy per Si atom -5600.304516 kJ/mol
# Density = 2.517387 g / cm^3
# Si number density = 25.231298 Si / 1000 Ang^3
#
#
#
# Elastic Constant Matrix: (Units=GPa)
#
#
# Indices 1 2 3 4 5 6 
#
# 1 146.5711 24.9104 11.2110 0.0000 0.0000 0.0000
# 2 24.9104 158.1194 23.2375 0.0000 0.0000 0.0000
# 3 11.2110 23.2375 90.2660 0.0000 0.0000 0.0000
# 4 0.0000 0.0000 0.0000 37.2741 0.0000 0.0000
# 5 0.0000 0.0000 0.0000 0.0000 9.1916 0.0000
# 6 0.0000 0.0000 0.0000 0.0000 0.0000 37.6031
#
#
#
# Elastic Compliance Matrix: (Units=1/GPa)
#
#
# Indices 1 2 3 4 5 6 
#
# 1 0.007043 -0.001020 -0.000612 0.000000 0.000000 0.000000
# 2 -0.001020 0.006721 -0.001603 0.000000 0.000000 0.000000
# 3 -0.000612 -0.001603 0.011567 0.000000 0.000000 0.000000
# 4 0.000000 0.000000 0.000000 0.026828 0.000000 0.000000
# 5 0.000000 0.000000 0.000000 0.000000 0.108795 0.000000
# 6 0.000000 0.000000 0.000000 0.000000 0.000000 0.026594
#
#
# Mechanical properties :
#
#
# Convention : Reuss Voigt Hill
#
# Bulk Modulus (GPa) = 53.02227 57.07492 55.04860
# Shear Modulus (GPa) = 24.96193 39.18692 32.07443
#
# Velocity S-wave (km/s) = 3.14876 3.94522 3.56928
# Velocity P-wave (km/s) = 5.85489 6.58960 6.23308
#
# Compressibility (1/GPa) = 0.01886000
#
# Stress axis : x y z
#
# Youngs Moduli (GPa) = 141.99035 148.79611 86.45134
#
# Poissons Ratio (x) = 0.15170 0.05293
# Poissons Ratio (y) = 0.14477 0.13862
# Poissons Ratio (z) = 0.08693 0.23859
#
# Static dielectric constant tensor:
#      x y z
#    x 2.135840 0.000000 0.000000 
#    y 0.000000 2.003170 0.000000 
#    z 0.000000 0.000000 1.995700 
# 
# From -- ./inp_files/35257.got.cif
#   From: 2010.05.17/outbox.cif.g08.bks.cpg/sg64_18_cif.got.tgz:35257.got - 2010.06.03 16:29:19.
