data_PCOD9479615
_publ_section_title
;
Structure prediction by ZEFSAII (Michael W. Deem and Ramdas Pophale) SiO2 
 PCOD9479615
Probable space group: C M C A
;
_chemical_formula_sum "Si O2"
_cell_formula_units_Z 96
_cell_length_a 17.332645
_cell_length_b 9.466414
_cell_length_c 23.094090
_cell_angle_alpha 90.000000
_cell_angle_beta 90.000000
_cell_angle_gamma 90.000000
_cell_volume 3789.231944
_symmetry_space_group_name_H-M "C M C A"
_symmetry_group_IT_number 64
_symmetry_cell_setting 'orthorhombic'
loop_
_space_group_symop_operation_xyz
x,y,z
-x,1/2-y,1/2+z
x,-y,-z
-x,1/2+y,1/2-z
-x,-y,-z
x,1/2+y,1/2-z
-x,y,z
x,1/2-y,1/2+z
1/2+x,1/2+y,z
1/2-x,-y,1/2+z
1/2+x,1/2-y,-z
1/2-x,y,1/2-z
1/2-x,1/2-y,-z
1/2+x,y,1/2-z
1/2-x,1/2+y,z
1/2+x,-y,1/2+z
loop_
_atom_site_type_symbol
_atom_site_label
_atom_site_fract_x
_atom_site_fract_y
_atom_site_fract_z
Si Si1 0.585627 0.795460 0.812628
Si Si2 0.161781 0.712921 0.503491
Si Si3 0.159674 0.489390 0.605461
Si Si4 0.500000 0.517029 0.098614
Si Si5 0.000000 0.737392 0.503929
Si Si6 0.586495 0.634784 0.690496
Si Si7 0.756305 0.206727 0.180464
O O1 0.500000 0.776887 0.841034
O O2 0.582230 0.712511 0.752301
O O3 0.669412 0.749925 0.838422
O O4 0.593512 0.965213 0.804230
O O5 0.250000 0.750000 0.500000
O O6 0.163393 0.614293 0.559650
O O7 0.152763 0.634627 0.442531
O O8 0.084351 0.808525 0.509782
O O9 0.224411 0.442218 0.649908
O O10 0.076626 0.491265 0.636339
O O11 0.500000 0.389261 0.051612
O O12 0.500000 0.653486 0.056913
O O13 0.500000 0.660025 0.663368
O O14 0.667668 0.698233 0.665978
O O15 0.750000 0.194390 0.250000
#
# Coordination Sequence:
#
# PCOD9479615 Si02
#       7
#    16  16  16   8   8  16  16
#     4   9  19  37  56  77 112 157 199 247 301 356
#     4   9  17  32  56  79 109 144 184 238 289 348
#     4   9  18  32  53  83 111 143 187 236 296 342
#     4   7  12  26  50  76 104 132 172 239 286 334
#     4   7  12  26  48  79 104 128 172 233 290 323
#     4   9  19  35  56  81 110 150 203 251 297 355
#     4  10  21  33  54  84 115 153 194 248 296 362
#
# _framework density 25.334949000000002
#
# number of rings (size 3 to 8) (size 9 to 14) (size 15 to 20)
#    0.000    3.167    0.000    2.000    1.167    7.333 
#    0.000    0.000    3.667    1.000    0.000    0.000 
#    0.000    0.000    0.000    0.000    0.000    0.000 
#
# Total GULP energy -267285.937991 kJ/mol
# GULP energy per Si atom -5568.457041 kJ/mol
# Density = 2.527729 g / cm^3
# Si number density = 25.334949 Si / 1000 Ang^3
#
#
#
# Elastic Constant Matrix: (Units=GPa)
#
#
# Indices 1 2 3 4 5 6 
#
# 1 309.6297 40.7396 17.9034 0.0000 0.0000 0.0000
# 2 40.7396 53.0952 28.9168 0.0000 0.0000 0.0000
# 3 17.9034 28.9168 82.2933 0.0000 0.0000 0.0000
# 4 0.0000 0.0000 0.0000 19.5100 0.0000 0.0000
# 5 0.0000 0.0000 0.0000 0.0000 22.4580 0.0000
# 6 0.0000 0.0000 0.0000 0.0000 0.0000 42.8816
#
#
#
# Elastic Compliance Matrix: (Units=1/GPa)
#
#
# Indices 1 2 3 4 5 6 
#
# 1 0.003596 -0.002885 0.000232 0.000000 0.000000 0.000000
# 2 -0.002885 0.025606 -0.008370 0.000000 0.000000 0.000000
# 3 0.000232 -0.008370 0.015042 0.000000 0.000000 0.000000
# 4 0.000000 0.000000 0.000000 0.051256 0.000000 0.000000
# 5 0.000000 0.000000 0.000000 0.000000 0.044528 0.000000
# 6 0.000000 0.000000 0.000000 0.000000 0.000000 0.023320
#
#
# Mechanical properties :
#
#
# Convention : Reuss Voigt Hill
#
# Bulk Modulus (GPa) = 45.05067 68.90420 56.97743
# Shear Modulus (GPa) = 25.93432 40.80047 33.36740
#
# Velocity S-wave (km/s) = 3.20294 4.01739 3.63306
# Velocity P-wave (km/s) = 5.61240 6.98395 6.33540
#
# Compressibility (1/GPa) = 0.02219723
#
# Stress axis : x y z
#
# Youngs Moduli (GPa) = 278.09464 39.05276 66.47868
#
# Poissons Ratio (x) = 0.11267 -0.01539
# Poissons Ratio (y) = 0.80236 0.55643
# Poissons Ratio (z) = -0.06438 0.32687
#
# Static dielectric constant tensor:
#      x y z
#    x 1.127640 0.000000 0.000000 
#    y 0.000000 2.255280 0.000000 
#    z 0.000000 0.000000 1.904860 
# 
# From -- ./inp_files/50404.got.cif
#   From: 2010.05.17/outbox.cif.g08.bks.cpg/sg64_26_cif.got.tgz:50404.got - 2010.06.03 16:29:19.
