data_PCOD9479419
_publ_section_title
;
Structure prediction by ZEFSAII (Michael W. Deem and Ramdas Pophale) SiO2 
 PCOD9479419
Probable space group: C M C A
;
_chemical_formula_sum "Si O2"
_cell_formula_units_Z 112
_cell_length_a 19.877529
_cell_length_b 11.973545
_cell_length_c 23.921790
_cell_angle_alpha 90.000000
_cell_angle_beta 90.000000
_cell_angle_gamma 90.000000
_cell_volume 5693.493380
_symmetry_space_group_name_H-M "C M C A"
_symmetry_group_IT_number 64
_symmetry_cell_setting 'orthorhombic'
loop_
_space_group_symop_operation_xyz
x,y,z
-x,1/2-y,1/2+z
x,-y,-z
-x,1/2+y,1/2-z
-x,-y,-z
x,1/2+y,1/2-z
-x,y,z
x,1/2-y,1/2+z
1/2+x,1/2+y,z
1/2-x,-y,1/2+z
1/2+x,1/2-y,-z
1/2-x,y,1/2-z
1/2-x,1/2-y,-z
1/2+x,y,1/2-z
1/2-x,1/2+y,z
1/2+x,-y,1/2+z
loop_
_atom_site_type_symbol
_atom_site_label
_atom_site_fract_x
_atom_site_fract_y
_atom_site_fract_z
Si Si1 0.577780 0.555047 0.845677
Si Si2 0.660528 0.380395 0.355771
Si Si3 0.424088 0.187263 0.301893
Si Si4 0.420725 0.243700 0.574916
Si Si5 0.789920 0.834387 0.195284
Si Si6 0.579342 0.378728 0.470447
Si Si7 0.867384 0.372872 0.816249
O O1 0.500000 0.582848 0.828720
O O2 0.583762 0.422455 0.840676
O O3 0.588878 0.615849 0.905379
O O4 0.636934 0.608938 0.808584
O O5 0.629021 0.280382 0.319241
O O6 0.741091 0.365843 0.355816
O O7 0.624366 0.376994 0.415415
O O8 0.644434 0.498467 0.327431
O O9 0.500000 0.230719 0.308363
O O10 0.413218 0.147416 0.238115
O O11 0.500000 0.263310 0.571429
O O12 0.395134 0.287778 0.515712
O O13 0.395637 0.318376 0.626758
O O14 0.750000 0.871115 0.250000
O O15 0.801461 0.701535 0.195684
O O16 0.582960 0.500000 0.500000
O O17 0.500000 0.359362 0.456320
#
# Coordination Sequence:
#
# PCOD9479419 Si02
#       7
#    16  16  16  16  16  16  16
#     4   9  21  42  66  92 128 172 222 267 324 399
#     4  12  25  40  66  96 132 173 221 272 328 392
#     4  11  24  39  61  99 136 166 214 273 327 396
#     4   9  18  37  65  92 124 172 215 264 325 381
#     4  11  23  42  62  91 129 176 212 264 326 397
#     4  10  20  39  66  98 134 170 222 281 327 381
#     4  11  23  39  58  89 129 174 218 262 324 393
#
# _framework density 19.671578
#
# number of rings (size 3 to 8) (size 9 to 14) (size 15 to 20)
#    0.000    1.571    2.857    1.714    4.000    2.857 
#    0.000    3.571    0.000    3.429    0.000    0.000 
#    0.000    0.000    0.000    0.000    0.000    0.000 
#
# Total GULP energy -312469.174183 kJ/mol
# GULP energy per Si atom -5579.806682 kJ/mol
# Density = 1.962680 g / cm^3
# Si number density = 19.671578 Si / 1000 Ang^3
#
#
#
# Elastic Constant Matrix: (Units=GPa)
#
#
# Indices 1 2 3 4 5 6 
#
# 1 80.3665 25.5139 23.6949 0.0000 0.0000 0.0000
# 2 25.5139 79.6922 9.7278 0.0000 0.0000 0.0000
# 3 23.6949 9.7278 75.2118 0.0000 0.0000 0.0000
# 4 0.0000 0.0000 0.0000 25.1215 0.0000 0.0000
# 5 0.0000 0.0000 0.0000 0.0000 29.3058 0.0000
# 6 0.0000 0.0000 0.0000 0.0000 0.0000 23.7038
#
#
#
# Elastic Compliance Matrix: (Units=1/GPa)
#
#
# Indices 1 2 3 4 5 6 
#
# 1 0.015043 -0.004306 -0.004182 0.000000 0.000000 0.000000
# 2 -0.004306 0.013982 -0.000452 0.000000 0.000000 0.000000
# 3 -0.004182 -0.000452 0.014672 0.000000 0.000000 0.000000
# 4 0.000000 0.000000 0.000000 0.039807 0.000000 0.000000
# 5 0.000000 0.000000 0.000000 0.000000 0.034123 0.000000
# 6 0.000000 0.000000 0.000000 0.000000 0.000000 0.042187
#
#
# Mechanical properties :
#
#
# Convention : Reuss Voigt Hill
#
# Bulk Modulus (GPa) = 38.73410 39.23821 38.98615
# Shear Modulus (GPa) = 26.83858 27.38180 27.11019
#
# Velocity S-wave (km/s) = 3.69769 3.73493 3.71636
# Velocity P-wave (km/s) = 6.16147 6.21205 6.18681
#
# Compressibility (1/GPa) = 0.02581705
#
# Stress axis : x y z
#
# Youngs Moduli (GPa) = 66.47624 71.52104 68.15772
#
# Poissons Ratio (x) = 0.30794 0.28506
# Poissons Ratio (y) = 0.28622 0.03080
# Poissons Ratio (z) = 0.27802 0.03232
#
# Static dielectric constant tensor:
#      x y z
#    x 1.705070 0.000000 0.000000 
#    y 0.000000 1.710770 0.000000 
#    z 0.000000 0.000000 1.717160 
# 
# From -- ./inp_files/46321.got.cif
#   From: 2010.05.17/outbox.cif.g08.bks.cpg/sg64_24_cif.got.tgz:46321.got - 2010.06.03 16:29:19.
