data_PCOD9479723
_publ_section_title
;
Structure prediction by ZEFSAII (Michael W. Deem and Ramdas Pophale) SiO2 
 PCOD9479723
Probable space group: C M C A
;
_chemical_formula_sum "Si O2"
_cell_formula_units_Z 116
_cell_length_a 9.696069
_cell_length_b 24.783781
_cell_length_c 25.445866
_cell_angle_alpha 90.000000
_cell_angle_beta 90.000000
_cell_angle_gamma 90.000000
_cell_volume 6114.775207
_symmetry_space_group_name_H-M "C M C A"
_symmetry_group_IT_number 64
_symmetry_cell_setting 'orthorhombic'
loop_
_space_group_symop_operation_xyz
x,y,z
-x,1/2-y,1/2+z
x,-y,-z
-x,1/2+y,1/2-z
-x,-y,-z
x,1/2+y,1/2-z
-x,y,z
x,1/2-y,1/2+z
1/2+x,1/2+y,z
1/2-x,-y,1/2+z
1/2+x,1/2-y,-z
1/2-x,y,1/2-z
1/2-x,1/2-y,-z
1/2+x,y,1/2-z
1/2-x,1/2+y,z
1/2+x,-y,1/2+z
loop_
_atom_site_type_symbol
_atom_site_label
_atom_site_fract_x
_atom_site_fract_y
_atom_site_fract_z
Si Si1 0.352596 0.106601 0.011617
Si Si2 0.153317 0.700134 0.510280
Si Si3 0.151271 0.838971 0.128624
Si Si4 0.834463 0.860119 0.804956
Si Si5 0.342841 0.442672 0.626584
Si Si6 0.663173 0.736671 0.696412
Si Si7 0.000000 0.000000 0.000000
Si Si8 0.230183 0.546666 0.582061
O O1 0.500000 0.136463 0.009667
O O2 0.348049 0.073980 0.065312
O O3 0.224314 0.146731 0.012147
O O4 0.339876 0.070158 0.959869
O O5 0.250000 0.750000 0.500000
O O6 0.146481 0.690560 0.572442
O O7 0.000000 0.707380 0.488957
O O8 0.271155 0.809755 0.160606
O O9 0.174787 0.901405 0.113780
O O10 0.000000 0.832408 0.154202
O O11 0.750000 0.863150 0.750000
O O12 0.761384 0.903102 0.843167
O O13 0.818845 0.798128 0.825158
O O14 0.000000 0.869669 0.798508
O O15 0.500000 0.438287 0.647363
O O16 0.289282 0.503653 0.623095
O O17 0.500000 0.728860 0.704740
O O18 0.750000 0.735474 0.750000
O O19 0.118499 0.019385 0.956791
#
# Coordination Sequence:
#
# PCOD9479723 Si02
#       8
#    16  16  16  16  16  16   4  16
#     4  10  21  36  55  82 119 159 202 244 292 354
#     4  10  22  36  53  79 119 160 200 246 301 355
#     4  10  22  38  59  89 121 160 203 255 310 362
#     4  10  23  42  65  91 119 153 200 254 314 372
#     4  11  23  37  60  89 121 159 203 250 305 360
#     4  10  22  42  67  93 119 158 203 255 312 377
#     4  12  20  36  62  88 128 160 218 252 296 354
#     4  11  22  37  62  89 126 165 210 254 300 361
#
# _framework density 18.970443
#
# number of rings (size 3 to 8) (size 9 to 14) (size 15 to 20)
#    0.000    1.655    2.069    1.655    3.862    6.621 
#    0.000    0.690    0.000    3.310    0.000    0.000 
#    0.000    0.000    0.000    0.000    0.000    0.000 
#
# Total GULP energy -322957.269563 kJ/mol
# GULP energy per Si atom -5568.228786 kJ/mol
# Density = 1.892727 g / cm^3
# Si number density = 18.970443 Si / 1000 Ang^3
#
#
#
# Elastic Constant Matrix: (Units=GPa)
#
#
# Indices 1 2 3 4 5 6 
#
# 1 172.0589 70.3893 29.5403 0.0000 0.0000 0.0000
# 2 70.3893 103.5951 42.8504 0.0000 0.0000 0.0000
# 3 29.5403 42.8504 29.9374 0.0000 0.0000 0.0000
# 4 0.0000 0.0000 0.0000 32.7541 0.0000 0.0000
# 5 0.0000 0.0000 0.0000 0.0000 28.6409 0.0000
# 6 0.0000 0.0000 0.0000 0.0000 0.0000 -10.6426
#
#
#
# Elastic Compliance Matrix: (Units=1/GPa)
#
#
# Indices 1 2 3 4 5 6 
#
# 1 0.008050 -0.005354 -0.000280 0.000000 0.000000 0.000000
# 2 -0.005354 0.027223 -0.033682 0.000000 0.000000 0.000000
# 3 -0.000280 -0.033682 0.081889 0.000000 0.000000 0.000000
# 4 0.000000 0.000000 0.000000 0.030531 0.000000 0.000000
# 5 0.000000 0.000000 0.000000 0.000000 0.034915 0.000000
# 6 0.000000 0.000000 0.000000 0.000000 0.000000 -0.093962
#
#
# Mechanical properties :
#
#
# Convention : Reuss Voigt Hill
#
# Bulk Modulus (GPa) = 25.95356 65.68349 45.81852
# Shear Modulus (GPa) = 27.75905 21.00455 24.38180
#
# Velocity S-wave (km/s) = 3.82943 3.33111 3.58893
# Velocity P-wave (km/s) = 5.76745 7.03522 6.43264
#
# Compressibility (1/GPa) = 0.03853036
#
# Stress axis : x y z
#
# Youngs Moduli (GPa) = 124.21694 36.73396 12.21165
#
# Poissons Ratio (x) = 0.19668 0.00342
# Poissons Ratio (y) = 0.66507 0.41131
# Poissons Ratio (z) = 0.03480 1.23726
#
# Static dielectric constant tensor:
#      x y z
#    x 1.688830 0.000000 0.000000 
#    y 0.000000 1.688630 0.000000 
#    z 0.000000 0.000000 1.636640 
# 
# From -- ./inp_files/43416.got.cif
#   From: 2010.05.17/outbox.cif.g08.bks.cpg/sg64_22_cif.got.tgz:43416.got - 2010.06.03 16:29:19.
