data_PCOD9479777
_publ_section_title
;
Structure prediction by ZEFSAII (Michael W. Deem and Ramdas Pophale) SiO2 
 PCOD9479777
Probable space group: C M C A
;
_chemical_formula_sum "Si O2"
_cell_formula_units_Z 88
_cell_length_a 9.603333
_cell_length_b 23.439874
_cell_length_c 19.367509
_cell_angle_alpha 90.000000
_cell_angle_beta 90.000000
_cell_angle_gamma 90.000000
_cell_volume 4359.644007
_symmetry_space_group_name_H-M "C M C A"
_symmetry_group_IT_number 64
_symmetry_cell_setting 'orthorhombic'
loop_
_space_group_symop_operation_xyz
x,y,z
-x,1/2-y,1/2+z
x,-y,-z
-x,1/2+y,1/2-z
-x,-y,-z
x,1/2+y,1/2-z
-x,y,z
x,1/2-y,1/2+z
1/2+x,1/2+y,z
1/2-x,-y,1/2+z
1/2+x,1/2-y,-z
1/2-x,y,1/2-z
1/2-x,1/2-y,-z
1/2+x,y,1/2-z
1/2-x,1/2+y,z
1/2+x,-y,1/2+z
loop_
_atom_site_type_symbol
_atom_site_label
_atom_site_fract_x
_atom_site_fract_y
_atom_site_fract_z
Si Si1 0.847508 0.267247 0.846105
Si Si2 0.836903 0.665710 0.870272
Si Si3 0.665300 0.149855 0.029511
Si Si4 0.166797 0.036886 0.679372
Si Si5 0.250000 0.135219 0.250000
Si Si6 0.836888 0.438077 0.619083
O O1 0.740265 0.217133 0.832983
O O2 0.820173 0.295548 0.920759
O O3 0.842231 0.320679 0.794116
O O4 0.000000 0.241313 0.845096
O O5 0.813486 0.602839 0.840391
O O6 0.000000 0.677645 0.866673
O O7 0.797137 0.663417 0.951032
O O8 0.500000 0.133129 0.031917
O O9 0.764486 0.101826 0.061900
O O10 0.250000 0.027101 0.750000
O O11 0.000000 0.025298 0.684575
O O12 0.242629 0.994510 0.626188
O O13 0.176557 0.096081 0.192413
O O14 0.000000 0.449159 0.606002
#
# Coordination Sequence:
#
# PCOD9479777 Si02
#       6
#    16  16  16  16   8  16
#     4  10  21  36  60  89 118 155 199 248 292 350
#     4  10  23  41  60  85 121 163 198 240 298 360
#     4   9  20  40  62  87 121 159 199 242 298 354
#     4  11  24  41  61  86 119 158 199 243 297 354
#     4  10  22  38  58  88 120 156 196 242 306 358
#     4  11  22  38  64  91 118 153 200 251 298 349
#
# _framework density 20.185134000000001
#
# number of rings (size 3 to 8) (size 9 to 14) (size 15 to 20)
#    0.000    1.818    0.909    2.182    1.273    8.000 
#    0.000    3.636    0.000    0.000    0.000    0.000 
#    0.000    0.000    0.000    0.000    0.000    0.000 
#
# Total GULP energy -245684.183082 kJ/mol
# GULP energy per Si atom -5583.731434 kJ/mol
# Density = 2.013919 g / cm^3
# Si number density = 20.185134 Si / 1000 Ang^3
#
#
#
# Elastic Constant Matrix: (Units=GPa)
#
#
# Indices 1 2 3 4 5 6 
#
# 1 91.2398 48.0942 8.9511 0.0000 0.0000 0.0000
# 2 48.0942 62.2259 3.8823 0.0000 0.0000 0.0000
# 3 8.9511 3.8823 40.8440 0.0000 0.0000 0.0000
# 4 0.0000 0.0000 0.0000 -3.4784 0.0000 0.0000
# 5 0.0000 0.0000 0.0000 0.0000 12.1812 0.0000
# 6 0.0000 0.0000 0.0000 0.0000 0.0000 18.9479
#
#
#
# Elastic Compliance Matrix: (Units=1/GPa)
#
#
# Indices 1 2 3 4 5 6 
#
# 1 0.018798 -0.014357 -0.002755 0.000000 0.000000 0.000000
# 2 -0.014357 0.027132 0.000568 0.000000 0.000000 0.000000
# 3 -0.002755 0.000568 0.025033 0.000000 0.000000 0.000000
# 4 0.000000 0.000000 0.000000 -0.287488 0.000000 0.000000
# 5 0.000000 0.000000 0.000000 0.000000 0.082094 0.000000
# 6 0.000000 0.000000 0.000000 0.000000 0.000000 0.052776
#
#
# Mechanical properties :
#
#
# Convention : Reuss Voigt Hill
#
# Bulk Modulus (GPa) = 26.40353 35.12943 30.76648
# Shear Modulus (GPa) = -139.11877 14.42228 -62.34824
#
# Velocity S-wave (km/s) = -8.31090 2.67591 -5.56374
# Velocity P-wave (km/s) = 8.88739 5.19507 5.09887
#
# Compressibility (1/GPa) = 0.03787373
#
# Stress axis : x y z
#
# Youngs Moduli (GPa) = 53.19596 36.85712 39.94694
#
# Poissons Ratio (x) = 0.52917 0.11006
# Poissons Ratio (y) = 0.76375 -0.02267
# Poissons Ratio (z) = 0.14656 -0.02092
#
# Static dielectric constant tensor:
#      x y z
#    x 1.686420 0.000000 0.000000 
#    y 0.000000 1.692220 0.000000 
#    z 0.000000 0.000000 1.734250 
# 
# From -- ./inp_files/36793.got.cif
#   From: 2010.05.17/outbox.cif.g08.bks.cpg/sg64_19_cif.got.tgz:36793.got - 2010.06.03 16:29:19.
