data_PCOD9479255
_publ_section_title
;
Structure prediction by ZEFSAII (Michael W. Deem and Ramdas Pophale) SiO2 
 PCOD9479255
Probable space group: C M C A
;
_chemical_formula_sum "Si O2"
_cell_formula_units_Z 64
_cell_length_a 15.957071
_cell_length_b 11.624831
_cell_length_c 14.943628
_cell_angle_alpha 90.000000
_cell_angle_beta 90.000000
_cell_angle_gamma 90.000000
_cell_volume 2772.016897
_symmetry_space_group_name_H-M "C M C A"
_symmetry_group_IT_number 64
_symmetry_cell_setting 'orthorhombic'
loop_
_space_group_symop_operation_xyz
x,y,z
-x,1/2-y,1/2+z
x,-y,-z
-x,1/2+y,1/2-z
-x,-y,-z
x,1/2+y,1/2-z
-x,y,z
x,1/2-y,1/2+z
1/2+x,1/2+y,z
1/2-x,-y,1/2+z
1/2+x,1/2-y,-z
1/2-x,y,1/2-z
1/2-x,1/2-y,-z
1/2+x,y,1/2-z
1/2-x,1/2+y,z
1/2+x,-y,1/2+z
loop_
_atom_site_type_symbol
_atom_site_label
_atom_site_fract_x
_atom_site_fract_y
_atom_site_fract_z
Si Si1 0.352435 0.760959 0.406969
Si Si2 0.602064 0.951823 0.788112
Si Si3 0.907419 0.998654 0.098078
Si Si4 0.324149 0.888390 0.065925
O O1 0.361460 0.658455 0.337820
O O2 0.412688 0.863989 0.381163
O O3 0.371754 0.705126 0.504104
O O4 0.261641 0.822469 0.409933
O O5 0.500000 0.949677 0.787290
O O6 0.634196 0.949836 0.685742
O O7 0.631734 0.062187 0.845676
O O8 0.000000 0.050649 0.088153
O O9 0.867154 0.000000 0.000000
O O10 0.314112 0.000000 0.000000
#
# Coordination Sequence:
#
# PCOD9479255 Si02
#       4
#    16  16  16  16
#     4  10  20  38  62  87 122 162 199 246 309 367
#     4  10  22  40  63  92 122 158 208 256 300 359
#     4  10  22  39  59  86 122 162 205 254 307 364
#     4   9  20  38  62  93 124 156 200 251 304 367
#
# _framework density 23.087883000000001
#
# number of rings (size 3 to 8) (size 9 to 14) (size 15 to 20)
#    0.000    2.250    0.000    1.500    0.000    8.500 
#    0.000   12.500    0.000    0.000    0.000    0.000 
#    0.000    0.000    0.000    0.000    0.000    0.000 
#
# Total GULP energy -178557.014598 kJ/mol
# GULP energy per Si atom -5579.906706 kJ/mol
# Density = 2.303533 g / cm^3
# Si number density = 23.087883 Si / 1000 Ang^3
#
#
#
# Elastic Constant Matrix: (Units=GPa)
#
#
# Indices 1 2 3 4 5 6 
#
# 1 47.6864 8.3594 23.6408 0.0000 0.0000 0.0000
# 2 8.3594 69.4549 30.6009 0.0000 0.0000 0.0000
# 3 23.6408 30.6009 193.2692 0.0000 0.0000 0.0000
# 4 0.0000 0.0000 0.0000 23.7633 0.0000 0.0000
# 5 0.0000 0.0000 0.0000 0.0000 14.1792 0.0000
# 6 0.0000 0.0000 0.0000 0.0000 0.0000 19.4829
#
#
#
# Elastic Compliance Matrix: (Units=1/GPa)
#
#
# Indices 1 2 3 4 5 6 
#
# 1 0.022490 -0.001607 -0.002497 0.000000 0.000000 0.000000
# 2 -0.001607 0.015592 -0.002272 0.000000 0.000000 0.000000
# 3 -0.002497 -0.002272 0.005839 0.000000 0.000000 0.000000
# 4 0.000000 0.000000 0.000000 0.042082 0.000000 0.000000
# 5 0.000000 0.000000 0.000000 0.000000 0.070526 0.000000
# 6 0.000000 0.000000 0.000000 0.000000 0.000000 0.051327
#
#
# Mechanical properties :
#
#
# Convention : Reuss Voigt Hill
#
# Bulk Modulus (GPa) = 32.08206 48.40141 40.24173
# Shear Modulus (GPa) = 21.64531 28.00572 24.82552
#
# Velocity S-wave (km/s) = 3.06521 3.48660 3.28268
# Velocity P-wave (km/s) = 5.14326 6.10066 5.64230
#
# Compressibility (1/GPa) = 0.03117007
#
# Stress axis : x y z
#
# Youngs Moduli (GPa) = 44.46484 64.13406 171.25417
#
# Poissons Ratio (x) = 0.10305 0.42754
# Poissons Ratio (y) = 0.07145 0.38913
# Poissons Ratio (z) = 0.11101 0.14573
#
# Static dielectric constant tensor:
#      x y z
#    x 1.897300 0.000000 0.000000 
#    y 0.000000 1.980130 0.000000 
#    z 0.000000 0.000000 1.911600 
# 
# From -- ./inp_files/24872.got.cif
#   From: 2010.05.17/outbox.cif.g08.bks.cpg/sg64_13_cif.got.tgz:24872.got - 2010.06.03 16:29:19.
