data_PCOD9479934
_publ_section_title
;
Structure prediction by ZEFSAII (Michael W. Deem and Ramdas Pophale) SiO2 
 PCOD9479934
Probable space group: C M C A
;
_chemical_formula_sum "Si O2"
_cell_formula_units_Z 104
_cell_length_a 18.079727
_cell_length_b 25.406919
_cell_length_c 13.163688
_cell_angle_alpha 90.000000
_cell_angle_beta 90.000000
_cell_angle_gamma 90.000000
_cell_volume 6046.742182
_symmetry_space_group_name_H-M "C M C A"
_symmetry_group_IT_number 64
_symmetry_cell_setting 'orthorhombic'
loop_
_space_group_symop_operation_xyz
x,y,z
-x,1/2-y,1/2+z
x,-y,-z
-x,1/2+y,1/2-z
-x,-y,-z
x,1/2+y,1/2-z
-x,y,z
x,1/2-y,1/2+z
1/2+x,1/2+y,z
1/2-x,-y,1/2+z
1/2+x,1/2-y,-z
1/2-x,y,1/2-z
1/2-x,1/2-y,-z
1/2+x,y,1/2-z
1/2-x,1/2+y,z
1/2+x,-y,1/2+z
loop_
_atom_site_type_symbol
_atom_site_label
_atom_site_fract_x
_atom_site_fract_y
_atom_site_fract_z
Si Si1 0.796947 0.725895 0.350481
Si Si2 0.730194 0.580887 0.867465
Si Si3 0.587541 0.632685 0.177790
Si Si4 0.912446 0.094832 0.404599
Si Si5 0.085260 0.437721 0.478888
Si Si6 0.688701 0.324822 0.482459
Si Si7 0.179710 0.500000 0.000000
O O1 0.750000 0.739564 0.250000
O O2 0.860828 0.683744 0.327445
O O3 0.739595 0.698776 0.428382
O O4 0.829242 0.777275 0.406168
O O5 0.750000 0.581560 0.750000
O O6 0.643478 0.577928 0.892893
O O7 0.763933 0.632172 0.921342
O O8 0.768859 0.530964 0.920895
O O9 0.500000 0.645927 0.174619
O O10 0.601716 0.603944 0.284945
O O11 0.603042 0.594588 0.081950
O O12 0.879293 0.144374 0.466458
O O13 0.000000 0.090189 0.420168
O O14 0.870469 0.043216 0.443983
O O15 0.091213 0.500000 0.500000
O O16 0.000000 0.426469 0.451528
#
# Coordination Sequence:
#
# PCOD9479934 Si02
#       7
#    16  16  16  16  16  16   8
#     4  11  20  37  62  85 113 149 194 246 294 340
#     4  11  22  38  57  86 119 152 198 241 288 353
#     4  10  21  37  62  89 116 150 196 241 291 352
#     4  10  21  39  58  86 120 157 196 239 293 353
#     4  10  21  38  58  86 120 151 189 243 295 347
#     4  10  22  37  58  84 114 152 193 242 293 347
#     4  10  23  36  57  88 118 160 192 240 291 350
#
# _framework density 17.199344
#
# number of rings (size 3 to 8) (size 9 to 14) (size 15 to 20)
#    0.000    1.692    3.846    0.692    2.154    0.615 
#    0.000    3.077    0.000    2.769    0.000    0.000 
#    0.000    0.000    0.000    0.000    0.000    0.000 
#
# Total GULP energy -290280.355492 kJ/mol
# GULP energy per Si atom -5582.314529 kJ/mol
# Density = 1.716020 g / cm^3
# Si number density = 17.199344 Si / 1000 Ang^3
#
#
#
# Elastic Constant Matrix: (Units=GPa)
#
#
# Indices 1 2 3 4 5 6 
#
# 1 92.1157 39.4217 58.4523 0.0000 0.0000 0.0000
# 2 39.4217 85.2627 40.6231 0.0000 0.0000 0.0000
# 3 58.4523 40.6231 130.2888 0.0000 0.0000 0.0000
# 4 0.0000 0.0000 0.0000 23.1866 0.0000 0.0000
# 5 0.0000 0.0000 0.0000 0.0000 29.4957 0.0000
# 6 0.0000 0.0000 0.0000 0.0000 0.0000 12.6777
#
#
#
# Elastic Compliance Matrix: (Units=1/GPa)
#
#
# Indices 1 2 3 4 5 6 
#
# 1 0.016750 -0.004891 -0.005990 0.000000 0.000000 0.000000
# 2 -0.004891 0.015203 -0.002546 0.000000 0.000000 0.000000
# 3 -0.005990 -0.002546 0.011156 0.000000 0.000000 0.000000
# 4 0.000000 0.000000 0.000000 0.043128 0.000000 0.000000
# 5 0.000000 0.000000 0.000000 0.000000 0.033903 0.000000
# 6 0.000000 0.000000 0.000000 0.000000 0.000000 0.078879
#
#
# Mechanical properties :
#
#
# Convention : Reuss Voigt Hill
#
# Bulk Modulus (GPa) = 61.51523 64.96240 63.23881
# Shear Modulus (GPa) = 21.61787 24.35000 22.98393
#
# Velocity S-wave (km/s) = 3.54913 3.76673 3.65955
# Velocity P-wave (km/s) = 7.25526 7.53458 7.39624
#
# Compressibility (1/GPa) = 0.01625614
#
# Stress axis : x y z
#
# Youngs Moduli (GPa) = 59.70289 65.77800 89.63573
#
# Poissons Ratio (x) = 0.32169 0.53689
# Poissons Ratio (y) = 0.29198 0.22821
# Poissons Ratio (z) = 0.35760 0.16747
#
# Static dielectric constant tensor:
#      x y z
#    x 1.565330 0.000000 0.000000 
#    y 0.000000 1.565390 0.000000 
#    z 0.000000 0.000000 1.563230 
# 
# From -- ./inp_files/16395.got.cif
#   From: 2010.05.17/outbox.cif.g08.bks.cpg/sg64_9_cif.got.tgz:16395.got - 2010.06.03 16:29:19.
