data_PCOD9479500
_publ_section_title
;
Structure prediction by ZEFSAII (Michael W. Deem and Ramdas Pophale) SiO2 
 PCOD9479500
Probable space group: C M C A
;
_chemical_formula_sum "Si O2"
_cell_formula_units_Z 88
_cell_length_a 11.245020
_cell_length_b 13.596809
_cell_length_c 24.821532
_cell_angle_alpha 90.000000
_cell_angle_beta 90.000000
_cell_angle_gamma 90.000000
_cell_volume 3795.122616
_symmetry_space_group_name_H-M "C M C A"
_symmetry_group_IT_number 64
_symmetry_cell_setting 'orthorhombic'
loop_
_space_group_symop_operation_xyz
x,y,z
-x,1/2-y,1/2+z
x,-y,-z
-x,1/2+y,1/2-z
-x,-y,-z
x,1/2+y,1/2-z
-x,y,z
x,1/2-y,1/2+z
1/2+x,1/2+y,z
1/2-x,-y,1/2+z
1/2+x,1/2-y,-z
1/2-x,y,1/2-z
1/2-x,1/2-y,-z
1/2+x,y,1/2-z
1/2-x,1/2+y,z
1/2+x,-y,1/2+z
loop_
_atom_site_type_symbol
_atom_site_label
_atom_site_fract_x
_atom_site_fract_y
_atom_site_fract_z
Si Si1 0.000000 0.446883 0.139702
Si Si2 0.190831 0.030909 0.437578
Si Si3 0.500000 0.230178 0.318853
Si Si4 0.000000 0.348035 0.803121
Si Si5 0.633190 0.920653 0.378732
Si Si6 0.740834 0.759809 0.314399
Si Si7 0.870347 0.745293 0.034138
O O1 0.108453 0.458684 0.097544
O O2 0.000000 0.349199 0.175388
O O3 0.000000 0.538984 0.180115
O O4 0.138154 0.139437 0.437636
O O5 0.196766 0.000000 0.500000
O O6 0.316206 0.016406 0.408156
O O7 0.500000 0.178212 0.260408
O O8 0.362866 0.214298 0.338757
O O9 0.880052 0.299318 0.826016
O O10 0.500000 0.936201 0.358379
O O11 0.714238 0.871140 0.333106
O O12 0.632284 0.836044 0.424781
O O13 0.750000 0.758784 0.250000
O O14 0.000000 0.749274 0.005522
O O15 0.750000 0.750000 0.000000
#
# Coordination Sequence:
#
# PCOD9479500 Si02
#       7
#     8  16   8   8  16  16  16
#     4  12  23  42  72 100 137 184 235 289 354 416
#     4  12  24  40  68 103 138 182 242 287 340 419
#     4  10  22  41  71 106 129 178 232 292 343 412
#     4  10  22  43  73  94 141 179 228 274 362 426
#     4  11  23  42  70  95 139 185 228 292 354 416
#     4  10  20  40  67  96 128 175 220 281 345 411
#     4  11  24  42  66  98 138 190 229 285 353 409
#
# _framework density 23.187656
#
# number of rings (size 3 to 8) (size 9 to 14) (size 15 to 20)
#    0.000    1.091    5.455    1.364    0.000    1.091 
#    1.636    8.182    6.000    0.000    0.000    0.000 
#    0.000    0.000    0.000    0.000    0.000    0.000 
#
# Total GULP energy -245555.973479 kJ/mol
# GULP energy per Si atom -5580.817579 kJ/mol
# Density = 2.313488 g / cm^3
# Si number density = 23.187656 Si / 1000 Ang^3
#
#
#
# Elastic Constant Matrix: (Units=GPa)
#
#
# Indices 1 2 3 4 5 6 
#
# 1 187.0276 20.3477 28.1619 0.0000 0.0000 0.0000
# 2 20.3477 74.8756 28.8470 0.0000 0.0000 0.0000
# 3 28.1619 28.8470 78.6161 0.0000 0.0000 0.0000
# 4 0.0000 0.0000 0.0000 16.7903 0.0000 0.0000
# 5 0.0000 0.0000 0.0000 0.0000 18.6479 0.0000
# 6 0.0000 0.0000 0.0000 0.0000 0.0000 1.0135
#
#
#
# Elastic Compliance Matrix: (Units=1/GPa)
#
#
# Indices 1 2 3 4 5 6 
#
# 1 0.005702 -0.000888 -0.001717 0.000000 0.000000 0.000000
# 2 -0.000888 0.015693 -0.005440 0.000000 0.000000 0.000000
# 3 -0.001717 -0.005440 0.015331 0.000000 0.000000 0.000000
# 4 0.000000 0.000000 0.000000 0.059558 0.000000 0.000000
# 5 0.000000 0.000000 0.000000 0.000000 0.053625 0.000000
# 6 0.000000 0.000000 0.000000 0.000000 0.000000 0.986708
#
#
# Mechanical properties :
#
#
# Convention : Reuss Voigt Hill
#
# Bulk Modulus (GPa) = 48.45890 55.02583 51.74237
# Shear Modulus (GPa) = 4.31189 24.83451 14.57320
#
# Velocity S-wave (km/s) = 1.36514 3.27620 2.50969
# Velocity P-wave (km/s) = 4.84032 6.17199 5.54627
#
# Compressibility (1/GPa) = 0.02063604
#
# Stress axis : x y z
#
# Youngs Moduli (GPa) = 175.37957 63.72388 65.22675
#
# Poissons Ratio (x) = 0.05660 0.11197
# Poissons Ratio (y) = 0.15576 0.35484
# Poissons Ratio (z) = 0.30106 0.34666
#
# Static dielectric constant tensor:
#      x y z
#    x 2.023780 0.000000 0.000000 
#    y 0.000000 1.850820 0.000000 
#    z 0.000000 0.000000 1.847350 
# 
# From -- ./inp_files/44113.got.cif
#   From: 2010.05.17/outbox.cif.g08.bks.cpg/sg64_23_cif.got.tgz:44113.got - 2010.06.03 16:29:19.
