data_PCOD9479216
_publ_section_title
;
Structure prediction by ZEFSAII (Michael W. Deem and Ramdas Pophale) SiO2 
 PCOD9479216
Probable space group: C M C A
;
_chemical_formula_sum "Si O2"
_cell_formula_units_Z 104
_cell_length_a 21.158503
_cell_length_b 28.031499
_cell_length_c 9.332005
_cell_angle_alpha 90.000000
_cell_angle_beta 90.000000
_cell_angle_gamma 90.000000
_cell_volume 5534.854679
_symmetry_space_group_name_H-M "C M C A"
_symmetry_group_IT_number 64
_symmetry_cell_setting 'orthorhombic'
loop_
_space_group_symop_operation_xyz
x,y,z
-x,1/2-y,1/2+z
x,-y,-z
-x,1/2+y,1/2-z
-x,-y,-z
x,1/2+y,1/2-z
-x,y,z
x,1/2-y,1/2+z
1/2+x,1/2+y,z
1/2-x,-y,1/2+z
1/2+x,1/2-y,-z
1/2-x,y,1/2-z
1/2-x,1/2-y,-z
1/2+x,y,1/2-z
1/2-x,1/2+y,z
1/2+x,-y,1/2+z
loop_
_atom_site_type_symbol
_atom_site_label
_atom_site_fract_x
_atom_site_fract_y
_atom_site_fract_z
Si Si1 0.356764 0.953099 0.048085
Si Si2 0.179020 0.888456 0.718436
Si Si3 0.574585 0.110035 0.719489
Si Si4 0.923160 0.192790 0.345896
Si Si5 0.155532 0.557521 0.510015
Si Si6 0.075976 0.289161 0.181879
Si Si7 0.250000 0.549167 0.750000
O O1 0.397584 0.918376 0.145629
O O2 0.302282 0.975527 0.151481
O O3 0.326434 0.921342 0.923164
O O4 0.394070 0.000000 0.000000
O O5 0.250000 0.868839 0.750000
O O6 0.122964 0.849820 0.702386
O O7 0.166669 0.921771 0.854864
O O8 0.500000 0.111803 0.731904
O O9 0.593529 0.080850 0.578630
O O10 0.599231 0.164451 0.730433
O O11 0.909991 0.204098 0.513630
O O12 0.905499 0.239088 0.251487
O O13 0.000000 0.183370 0.332284
O O14 0.155624 0.500000 0.500000
O O15 0.208085 0.574264 0.627661
O O16 0.000000 0.289141 0.192427
#
# Coordination Sequence:
#
# PCOD9479216 Si02
#       7
#    16  16  16  16  16  16   8
#     4  11  22  37  62  89 122 165 208 251 304 369
#     4  12  24  39  62  98 130 160 207 263 319 370
#     4  10  22  41  62  89 126 164 208 257 309 375
#     4  10  22  41  67  92 120 161 212 263 311 377
#     4  11  24  38  61  91 123 170 213 254 305 366
#     4   9  19  39  66  90 114 159 215 258 305 369
#     4  10  20  38  60  82 112 162 220 256 282 356
#
# _framework density 18.790015
#
# number of rings (size 3 to 8) (size 9 to 14) (size 15 to 20)
#    0.000    1.538    3.077    2.308    4.308    1.231 
#    0.000    2.308    6.769    0.000    0.000    0.000 
#    0.000    0.000    0.000    0.000    0.000    0.000 
#
# Total GULP energy -289607.523366 kJ/mol
# GULP energy per Si atom -5569.375449 kJ/mol
# Density = 1.874725 g / cm^3
# Si number density = 18.790015 Si / 1000 Ang^3
#
#
#
# Elastic Constant Matrix: (Units=GPa)
#
#
# Indices 1 2 3 4 5 6 
#
# 1 73.8440 52.9171 35.4165 0.0000 0.0000 0.0000
# 2 52.9171 133.2596 47.7811 0.0000 0.0000 0.0000
# 3 35.4165 47.7811 106.9664 0.0000 0.0000 0.0000
# 4 0.0000 0.0000 0.0000 27.8675 0.0000 0.0000
# 5 0.0000 0.0000 0.0000 0.0000 23.1054 0.0000
# 6 0.0000 0.0000 0.0000 0.0000 0.0000 9.4637
#
#
#
# Elastic Compliance Matrix: (Units=1/GPa)
#
#
# Indices 1 2 3 4 5 6 
#
# 1 0.020072 -0.006653 -0.003674 0.000000 0.000000 0.000000
# 2 -0.006653 0.011141 -0.002774 0.000000 0.000000 0.000000
# 3 -0.003674 -0.002774 0.011804 0.000000 0.000000 0.000000
# 4 0.000000 0.000000 0.000000 0.035884 0.000000 0.000000
# 5 0.000000 0.000000 0.000000 0.000000 0.043280 0.000000
# 6 0.000000 0.000000 0.000000 0.000000 0.000000 0.105666
#
#
# Mechanical properties :
#
#
# Convention : Reuss Voigt Hill
#
# Bulk Modulus (GPa) = 59.46963 65.14438 62.30700
# Shear Modulus (GPa) = 19.25646 23.95101 21.60374
#
# Velocity S-wave (km/s) = 3.20476 3.57412 3.39447
# Velocity P-wave (km/s) = 6.73886 7.19565 6.97100
#
# Compressibility (1/GPa) = 0.01681530
#
# Stress axis : x y z
#
# Youngs Moduli (GPa) = 49.82113 89.76180 84.71662
#
# Poissons Ratio (x) = 0.59720 0.31123
# Poissons Ratio (y) = 0.33147 0.23497
# Poissons Ratio (z) = 0.18303 0.24896
#
# Static dielectric constant tensor:
#      x y z
#    x 1.699470 0.000000 0.000000 
#    y 0.000000 1.654360 0.000000 
#    z 0.000000 0.000000 1.673860 
# 
# From -- ./inp_files/8674.got.cif
#   From: 2010.05.17/outbox.cif.g08.bks.cpg/sg64_5_cif.got.tgz:8674.got - 2010.06.03 16:29:19.
