data_PCOD9479651
_publ_section_title
;
Structure prediction by ZEFSAII (Michael W. Deem and Ramdas Pophale) SiO2 
 PCOD9479651
Probable space group: C M C A
;
_chemical_formula_sum "Si O2"
_cell_formula_units_Z 96
_cell_length_a 23.705901
_cell_length_b 10.770525
_cell_length_c 20.217160
_cell_angle_alpha 90.000000
_cell_angle_beta 90.000000
_cell_angle_gamma 90.000000
_cell_volume 5161.946364
_symmetry_space_group_name_H-M "C M C A"
_symmetry_group_IT_number 64
_symmetry_cell_setting 'orthorhombic'
loop_
_space_group_symop_operation_xyz
x,y,z
-x,1/2-y,1/2+z
x,-y,-z
-x,1/2+y,1/2-z
-x,-y,-z
x,1/2+y,1/2-z
-x,y,z
x,1/2-y,1/2+z
1/2+x,1/2+y,z
1/2-x,-y,1/2+z
1/2+x,1/2-y,-z
1/2-x,y,1/2-z
1/2-x,1/2-y,-z
1/2+x,y,1/2-z
1/2-x,1/2+y,z
1/2+x,-y,1/2+z
loop_
_atom_site_type_symbol
_atom_site_label
_atom_site_fract_x
_atom_site_fract_y
_atom_site_fract_z
Si Si1 0.934674 0.187047 0.458797
Si Si2 0.157574 0.628136 0.793353
Si Si3 0.691948 0.354069 0.709620
Si Si4 0.832337 0.141044 0.991134
Si Si5 0.240847 0.263458 0.102918
Si Si6 0.435694 0.930005 0.105875
O O1 0.885190 0.286852 0.459925
O O2 0.933410 0.131573 0.533333
O O3 0.000000 0.227178 0.446867
O O4 0.921285 0.074551 0.408346
O O5 0.159390 0.731002 0.735549
O O6 0.160843 0.482971 0.775258
O O7 0.212331 0.659691 0.838142
O O8 0.104673 0.636203 0.842430
O O9 0.750000 0.362872 0.750000
O O10 0.714850 0.333602 0.635155
O O11 0.778042 0.149774 0.943652
O O12 0.808388 0.200871 0.059239
O O13 0.848946 0.000000 0.000000
O O14 0.500000 0.924903 0.129000
#
# Coordination Sequence:
#
# PCOD9479651 Si02
#       6
#    16  16  16  16  16  16
#     4   9  18  34  55  81 108 144 185 224 279 342
#     4  11  20  37  57  79 107 147 188 235 278 336
#     4  10  21  35  54  77 106 145 184 224 279 339
#     4  11  21  32  52  85 117 144 179 233 284 339
#     4  10  21  35  51  80 114 151 182 222 278 347
#     4   9  18  35  59  79 102 141 190 229 270 338
#
# _framework density 18.597636000000001
#
# number of rings (size 3 to 8) (size 9 to 14) (size 15 to 20)
#    0.000    2.000    1.667    4.500    0.000    3.000 
#    0.000    0.833    0.000    1.000    0.000    0.000 
#    0.000    0.000    0.000    0.000    0.000    0.000 
#
# Total GULP energy -267544.651352 kJ/mol
# GULP energy per Si atom -5573.846903 kJ/mol
# Density = 1.855531 g / cm^3
# Si number density = 18.597636 Si / 1000 Ang^3
#
#
#
# Elastic Constant Matrix: (Units=GPa)
#
#
# Indices 1 2 3 4 5 6 
#
# 1 79.0705 33.1672 5.4301 0.0000 0.0000 0.0000
# 2 33.1672 75.6147 -2.2142 0.0000 0.0000 0.0000
# 3 5.4301 -2.2142 29.7105 0.0000 0.0000 0.0000
# 4 0.0000 0.0000 0.0000 14.6983 0.0000 0.0000
# 5 0.0000 0.0000 0.0000 0.0000 16.7341 0.0000
# 6 0.0000 0.0000 0.0000 0.0000 0.0000 20.4482
#
#
#
# Elastic Compliance Matrix: (Units=1/GPa)
#
#
# Indices 1 2 3 4 5 6 
#
# 1 0.015838 -0.007047 -0.003420 0.000000 0.000000 0.000000
# 2 -0.007047 0.016390 0.002509 0.000000 0.000000 0.000000
# 3 -0.003420 0.002509 0.034470 0.000000 0.000000 0.000000
# 4 0.000000 0.000000 0.000000 0.068035 0.000000 0.000000
# 5 0.000000 0.000000 0.000000 0.000000 0.059758 0.000000
# 6 0.000000 0.000000 0.000000 0.000000 0.000000 0.048904
#
#
# Mechanical properties :
#
#
# Convention : Reuss Voigt Hill
#
# Bulk Modulus (GPa) = 19.69187 28.57356 24.13272
# Shear Modulus (GPa) = 18.10037 20.24363 19.17200
#
# Velocity S-wave (km/s) = 3.12310 3.30283 3.21422
# Velocity P-wave (km/s) = 4.85967 5.47196 5.17488
#
# Compressibility (1/GPa) = 0.05078238
#
# Stress axis : x y z
#
# Youngs Moduli (GPa) = 63.13999 61.01452 29.01063
#
# Poissons Ratio (x) = 0.42998 0.09921
# Poissons Ratio (y) = 0.44496 -0.07280
# Poissons Ratio (z) = 0.21593 -0.15311
#
# Static dielectric constant tensor:
#      x y z
#    x 1.633230 0.000000 0.000000 
#    y 0.000000 1.667730 0.000000 
#    z 0.000000 0.000000 1.682840 
# 
# From -- ./inp_files/40868.got.cif
#   From: 2010.05.17/outbox.cif.g08.bks.cpg/sg64_21_cif.got.tgz:40868.got - 2010.06.03 16:29:19.
