data_PCOD9479133
_publ_section_title
;
Structure prediction by ZEFSAII (Michael W. Deem and Ramdas Pophale) SiO2 
 PCOD9479133
Probable space group: C M C A
;
_chemical_formula_sum "Si O2"
_cell_formula_units_Z 64
_cell_length_a 16.735350
_cell_length_b 8.774808
_cell_length_c 22.275616
_cell_angle_alpha 90.000000
_cell_angle_beta 90.000000
_cell_angle_gamma 90.000000
_cell_volume 3271.162695
_symmetry_space_group_name_H-M "C M C A"
_symmetry_group_IT_number 64
_symmetry_cell_setting 'orthorhombic'
loop_
_space_group_symop_operation_xyz
x,y,z
-x,1/2-y,1/2+z
x,-y,-z
-x,1/2+y,1/2-z
-x,-y,-z
x,1/2+y,1/2-z
-x,y,z
x,1/2-y,1/2+z
1/2+x,1/2+y,z
1/2-x,-y,1/2+z
1/2+x,1/2-y,-z
1/2-x,y,1/2-z
1/2-x,1/2-y,-z
1/2+x,y,1/2-z
1/2-x,1/2+y,z
1/2+x,-y,1/2+z
loop_
_atom_site_type_symbol
_atom_site_label
_atom_site_fract_x
_atom_site_fract_y
_atom_site_fract_z
Si Si1 0.167510 0.054947 0.065076
Si Si2 0.591774 0.552840 0.290080
Si Si3 0.311238 0.118361 0.885910
Si Si4 0.846931 0.119697 0.819859
O O1 0.260303 0.001708 0.074659
O O2 0.124710 0.964938 0.119382
O O3 0.163391 0.234516 0.076684
O O4 0.141158 0.000000 0.000000
O O5 0.500000 0.522075 0.275194
O O6 0.618940 0.460822 0.349043
O O7 0.605493 0.730056 0.302823
O O8 0.645493 0.498001 0.234430
O O9 0.243869 0.167595 0.836583
#
# Coordination Sequence:
#
# PCOD9479133 Si02
#       4
#    16  16  16  16
#     4  10  20  37  66  91 118 156 210 257 291 350
#     4  12  23  39  61  91 128 159 196 252 314 365
#     4  10  20  37  62  94 118 152 204 250 299 354
#     4  10  22  37  58  91 119 158 202 249 296 363
#
# _framework density 19.564909
#
# number of rings (size 3 to 8) (size 9 to 14) (size 15 to 20)
#    1.500    0.000    2.500    3.750    0.000    2.000 
#    0.000    1.250    0.000   12.000    0.000    0.000 
#    0.000    0.000    0.000    0.000    0.000    0.000 
#
# Total GULP energy -178442.500588 kJ/mol
# GULP energy per Si atom -5576.328143 kJ/mol
# Density = 1.952038 g / cm^3
# Si number density = 19.564909 Si / 1000 Ang^3
#
#
#
# Elastic Constant Matrix: (Units=GPa)
#
#
# Indices 1 2 3 4 5 6 
#
# 1 24.1691 -11.6948 -14.5225 0.0000 0.0000 0.0000
# 2 -11.6948 68.7788 16.9324 0.0000 0.0000 0.0000
# 3 -14.5225 16.9324 77.0608 0.0000 0.0000 0.0000
# 4 0.0000 0.0000 0.0000 28.2401 0.0000 0.0000
# 5 0.0000 0.0000 0.0000 0.0000 5.2449 0.0000
# 6 0.0000 0.0000 0.0000 0.0000 0.0000 8.7980
#
#
#
# Elastic Compliance Matrix: (Units=1/GPa)
#
#
# Indices 1 2 3 4 5 6 
#
# 1 0.049211 0.006432 0.007861 0.000000 0.000000 0.000000
# 2 0.006432 0.016212 -0.002350 0.000000 0.000000 0.000000
# 3 0.007861 -0.002350 0.014974 0.000000 0.000000 0.000000
# 4 0.000000 0.000000 0.000000 0.035411 0.000000 0.000000
# 5 0.000000 0.000000 0.000000 0.000000 0.190660 0.000000
# 6 0.000000 0.000000 0.000000 0.000000 0.000000 0.113663
#
#
# Mechanical properties :
#
#
# Convention : Reuss Voigt Hill
#
# Bulk Modulus (GPa) = 9.58928 16.82654 13.20791
# Shear Modulus (GPa) = 11.60080 20.40952 16.00516
#
# Velocity S-wave (km/s) = 2.43768 3.23332 2.86327
# Velocity P-wave (km/s) = 3.58259 4.74954 4.20673
#
# Compressibility (1/GPa) = 0.10428313
#
# Stress axis : x y z
#
# Youngs Moduli (GPa) = 20.32073 61.68417 66.78021
#
# Poissons Ratio (x) = -0.39677 -0.52494
# Poissons Ratio (y) = -0.13071 0.15693
# Poissons Ratio (z) = -0.15973 0.14495
#
# Static dielectric constant tensor:
#      x y z
#    x 1.662560 0.000000 0.000000 
#    y 0.000000 1.666000 0.000000 
#    z 0.000000 0.000000 1.686250 
# 
# From -- ./inp_files/45576.got.cif
#   From: 2010.05.17/outbox.cif.g08.bks.cpg/sg64_23_cif.got.tgz:45576.got - 2010.06.03 16:29:19.
