data_PCOD9479604
_publ_section_title
;
Structure prediction by ZEFSAII (Michael W. Deem and Ramdas Pophale) SiO2 
 PCOD9479604
Probable space group: C M C A
;
_chemical_formula_sum "Si O2"
_cell_formula_units_Z 80
_cell_length_a 25.481401
_cell_length_b 29.552444
_cell_length_c 5.080349
_cell_angle_alpha 90.000000
_cell_angle_beta 90.000000
_cell_angle_gamma 90.000000
_cell_volume 3825.694205
_symmetry_space_group_name_H-M "C M C A"
_symmetry_group_IT_number 64
_symmetry_cell_setting 'orthorhombic'
loop_
_space_group_symop_operation_xyz
x,y,z
-x,1/2-y,1/2+z
x,-y,-z
-x,1/2+y,1/2-z
-x,-y,-z
x,1/2+y,1/2-z
-x,y,z
x,1/2-y,1/2+z
1/2+x,1/2+y,z
1/2-x,-y,1/2+z
1/2+x,1/2-y,-z
1/2-x,y,1/2-z
1/2-x,1/2-y,-z
1/2+x,y,1/2-z
1/2-x,1/2+y,z
1/2+x,-y,1/2+z
loop_
_atom_site_type_symbol
_atom_site_label
_atom_site_fract_x
_atom_site_fract_y
_atom_site_fract_z
Si Si1 0.057599 0.401199 0.166405
Si Si2 0.172885 0.130113 0.638061
Si Si3 0.197249 0.071828 0.149277
Si Si4 0.418921 0.543409 0.166965
Si Si5 0.191545 0.731745 0.930116
O O1 0.109738 0.372234 0.119012
O O2 0.063789 0.416929 0.468280
O O3 0.000000 0.381011 0.126839
O O4 0.062153 0.443542 0.959216
O O5 0.193555 0.112429 0.359975
O O6 0.190730 0.181193 0.678033
O O7 0.192849 0.095260 0.863011
O O8 0.250000 0.047107 0.250000
O O9 0.144506 0.042693 0.183491
O O10 0.436677 0.500000 0.000000
O O11 0.165579 0.735648 0.215796
O O12 0.250000 0.750000 0.000000
#
# Coordination Sequence:
#
# PCOD9479604 Si02
#       5
#    16  16  16  16  16
#     4  10  21  37  58  81 105 146 187 227 286 328
#     4  10  21  36  53  78 113 140 182 228 264 330
#     4  10  21  34  55  76 106 154 182 213 268 332
#     4  10  21  37  54  83 114 138 185 239 274 322
#     4  10  21  32  50  80 108 140 170 220 272 323
#
# _framework density 20.911237
#
# number of rings (size 3 to 8) (size 9 to 14) (size 15 to 20)
#    0.000    2.000    0.000    3.000    8.400    2.400 
#    0.000    6.000    0.000    1.200    0.000    0.000 
#    0.000    0.000    0.000    0.000    0.000    0.000 
#
# Total GULP energy -222951.005423 kJ/mol
# GULP energy per Si atom -5573.775136 kJ/mol
# Density = 2.086364 g / cm^3
# Si number density = 20.911237 Si / 1000 Ang^3
#
#
#
# Elastic Constant Matrix: (Units=GPa)
#
#
# Indices 1 2 3 4 5 6 
#
# 1 155.6581 7.8139 12.0606 0.0000 0.0000 0.0000
# 2 7.8139 23.9956 -13.8714 0.0000 0.0000 0.0000
# 3 12.0606 -13.8714 114.6395 0.0000 0.0000 0.0000
# 4 0.0000 0.0000 0.0000 25.0046 0.0000 0.0000
# 5 0.0000 0.0000 0.0000 0.0000 14.0095 0.0000
# 6 0.0000 0.0000 0.0000 0.0000 0.0000 -26.2551
#
#
#
# Elastic Compliance Matrix: (Units=1/GPa)
#
#
# Indices 1 2 3 4 5 6 
#
# 1 0.006643 -0.002760 -0.001033 0.000000 0.000000 0.000000
# 2 -0.002760 0.045956 0.005851 0.000000 0.000000 0.000000
# 3 -0.001033 0.005851 0.009540 0.000000 0.000000 0.000000
# 4 0.000000 0.000000 0.000000 0.039993 0.000000 0.000000
# 5 0.000000 0.000000 0.000000 0.000000 0.071380 0.000000
# 6 0.000000 0.000000 0.000000 0.000000 0.000000 -0.038088
#
#
# Mechanical properties :
#
#
# Convention : Reuss Voigt Hill
#
# Bulk Modulus (GPa) = 15.09346 34.03326 24.56336
# Shear Modulus (GPa) = 32.59625 21.77114 27.18370
#
# Velocity S-wave (km/s) = 3.95244 3.23014 3.60940
# Velocity P-wave (km/s) = 5.29741 5.49747 5.39837
#
# Compressibility (1/GPa) = 0.06625385
#
# Stress axis : x y z
#
# Youngs Moduli (GPa) = 150.53600 21.76018 104.82585
#
# Poissons Ratio (x) = 0.06006 0.10827
# Poissons Ratio (y) = 0.41552 -0.61334
# Poissons Ratio (z) = 0.15548 -0.12732
#
# Static dielectric constant tensor:
#      x y z
#    x 1.887900 0.000000 0.000000 
#    y 0.000000 1.740260 0.000000 
#    z 0.000000 0.000000 1.890110 
# 
# From -- ./inp_files/2349.got.cif
#   From: 2010.05.17/outbox.cif.g08.bks.cpg/sg64_2_cif.got.tgz:2349.got - 2010.06.03 16:29:19.
