data_PCOD9479542
_publ_section_title
;
Structure prediction by ZEFSAII (Michael W. Deem and Ramdas Pophale) SiO2 
 PCOD9479542
Probable space group: C M C A
;
_chemical_formula_sum "Si O2"
_cell_formula_units_Z 112
_cell_length_a 21.796208
_cell_length_b 10.839787
_cell_length_c 19.255271
_cell_angle_alpha 90.000000
_cell_angle_beta 90.000000
_cell_angle_gamma 90.000000
_cell_volume 4549.370713
_symmetry_space_group_name_H-M "C M C A"
_symmetry_group_IT_number 64
_symmetry_cell_setting 'orthorhombic'
loop_
_space_group_symop_operation_xyz
x,y,z
-x,1/2-y,1/2+z
x,-y,-z
-x,1/2+y,1/2-z
-x,-y,-z
x,1/2+y,1/2-z
-x,y,z
x,1/2-y,1/2+z
1/2+x,1/2+y,z
1/2-x,-y,1/2+z
1/2+x,1/2-y,-z
1/2-x,y,1/2-z
1/2-x,1/2-y,-z
1/2+x,y,1/2-z
1/2-x,1/2+y,z
1/2+x,-y,1/2+z
loop_
_atom_site_type_symbol
_atom_site_label
_atom_site_fract_x
_atom_site_fract_y
_atom_site_fract_z
Si Si1 0.065409 0.304181 0.534927
Si Si2 0.199735 0.331393 0.861953
Si Si3 0.430994 0.162899 0.757248
Si Si4 0.769294 0.932088 0.137312
Si Si5 0.823664 0.630950 0.984515
Si Si6 0.575034 0.597050 0.309104
Si Si7 0.590170 0.951135 0.393519
O O1 0.125436 0.223303 0.542775
O O2 0.071665 0.368803 0.459464
O O3 0.065123 0.413748 0.590743
O O4 0.000000 0.236892 0.537932
O O5 0.218323 0.201311 0.827322
O O6 0.236826 0.447194 0.830870
O O7 0.126070 0.352948 0.861824
O O8 0.210328 0.326278 0.945096
O O9 0.500000 0.169771 0.783689
O O10 0.410544 0.305132 0.753552
O O11 0.431060 0.112787 0.677551
O O12 0.404467 0.044245 0.796332
O O13 0.724907 0.900633 0.074017
O O14 0.836654 0.965775 0.110482
O O15 0.855613 0.500000 0.000000
O O16 0.500000 0.604072 0.320936
#
# Coordination Sequence:
#
# PCOD9479542 Si02
#       7
#    16  16  16  16  16  16  16
#     4  11  22  35  57  97 130 158 206 262 323 385
#     4  11  22  40  64  93 123 165 214 257 311 376
#     4  10  20  41  68  95 125 163 211 265 322 375
#     4  11  22  38  65  90 123 168 212 253 309 378
#     4  10  22  37  59  89 126 169 207 253 310 389
#     4  10  22  43  70  94 122 164 216 265 319 377
#     4  11  21  36  65  92 121 165 209 262 309 377
#
# _framework density 24.618791000000002
#
# number of rings (size 3 to 8) (size 9 to 14) (size 15 to 20)
#    0.000    1.429    2.857    3.000    6.000    2.000 
#    7.714    2.857    0.000    0.000    0.000    0.000 
#    0.000    0.000    0.000    0.000    0.000    0.000 
#
# Total GULP energy -312535.651557 kJ/mol
# GULP energy per Si atom -5580.993778 kJ/mol
# Density = 2.456276 g / cm^3
# Si number density = 24.618791 Si / 1000 Ang^3
#
#
#
# Elastic Constant Matrix: (Units=GPa)
#
#
# Indices 1 2 3 4 5 6 
#
# 1 137.8567 36.9841 6.0960 0.0000 0.0000 0.0000
# 2 36.9841 121.6210 -10.4571 0.0000 0.0000 0.0000
# 3 6.0960 -10.4571 50.5645 0.0000 0.0000 0.0000
# 4 0.0000 0.0000 0.0000 21.3685 0.0000 0.0000
# 5 0.0000 0.0000 0.0000 0.0000 14.1150 0.0000
# 6 0.0000 0.0000 0.0000 0.0000 0.0000 15.5109
#
#
#
# Elastic Compliance Matrix: (Units=1/GPa)
#
#
# Indices 1 2 3 4 5 6 
#
# 1 0.008008 -0.002564 -0.001496 0.000000 0.000000 0.000000
# 2 -0.002564 0.009192 0.002210 0.000000 0.000000 0.000000
# 3 -0.001496 0.002210 0.020414 0.000000 0.000000 0.000000
# 4 0.000000 0.000000 0.000000 0.046798 0.000000 0.000000
# 5 0.000000 0.000000 0.000000 0.000000 0.070847 0.000000
# 6 0.000000 0.000000 0.000000 0.000000 0.000000 0.064471
#
#
# Mechanical properties :
#
#
# Convention : Reuss Voigt Hill
#
# Bulk Modulus (GPa) = 29.48532 41.69870 35.59201
# Shear Modulus (GPa) = 21.30084 28.69351 24.99717
#
# Velocity S-wave (km/s) = 2.94467 3.41766 3.18994
# Velocity P-wave (km/s) = 4.85429 5.70512 5.29682
#
# Compressibility (1/GPa) = 0.03391518
#
# Stress axis : x y z
#
# Youngs Moduli (GPa) = 124.87765 108.79155 48.98584
#
# Poissons Ratio (x) = 0.27891 0.07326
# Poissons Ratio (y) = 0.32015 -0.10826
# Poissons Ratio (z) = 0.18677 -0.24043
#
# Static dielectric constant tensor:
#      x y z
#    x 1.905660 0.000000 0.000000 
#    y 0.000000 2.046320 0.000000 
#    z 0.000000 0.000000 1.992650 
# 
# From -- ./inp_files/46682.got.cif
#   From: 2010.05.17/outbox.cif.g08.bks.cpg/sg64_24_cif.got.tgz:46682.got - 2010.06.03 16:29:19.
