data_PCOD9479819
_publ_section_title
;
Structure prediction by ZEFSAII (Michael W. Deem and Ramdas Pophale) SiO2 
 PCOD9479819
Probable space group: C M C A
;
_chemical_formula_sum "Si O2"
_cell_formula_units_Z 88
_cell_length_a 29.489162
_cell_length_b 25.378103
_cell_length_c 5.755155
_cell_angle_alpha 90.000000
_cell_angle_beta 90.000000
_cell_angle_gamma 90.000000
_cell_volume 4307.037090
_symmetry_space_group_name_H-M "C M C A"
_symmetry_group_IT_number 64
_symmetry_cell_setting 'orthorhombic'
loop_
_space_group_symop_operation_xyz
x,y,z
-x,1/2-y,1/2+z
x,-y,-z
-x,1/2+y,1/2-z
-x,-y,-z
x,1/2+y,1/2-z
-x,y,z
x,1/2-y,1/2+z
1/2+x,1/2+y,z
1/2-x,-y,1/2+z
1/2+x,1/2-y,-z
1/2-x,y,1/2-z
1/2-x,1/2-y,-z
1/2+x,y,1/2-z
1/2-x,1/2+y,z
1/2+x,-y,1/2+z
loop_
_atom_site_type_symbol
_atom_site_label
_atom_site_fract_x
_atom_site_fract_y
_atom_site_fract_z
Si Si1 0.817642 0.639119 0.604599
Si Si2 0.575708 0.500000 0.000000
Si Si3 0.750000 0.908461 0.750000
Si Si4 0.000000 0.451595 0.229389
Si Si5 0.398274 0.113423 0.322131
Si Si6 0.750000 0.779604 0.250000
Si Si7 0.500000 0.891155 0.732613
Si Si8 0.335196 0.058488 0.981830
O O1 0.778727 0.628622 0.417132
O O2 0.865843 0.648826 0.482386
O O3 0.795833 0.684739 0.757382
O O4 0.821961 0.583656 0.738479
O O5 0.543931 0.512522 0.776929
O O6 0.599483 0.444938 0.943292
O O7 0.788551 0.942355 0.626145
O O8 0.000000 0.417592 0.471213
O O9 0.000000 0.422054 0.983688
O O10 0.449183 0.133213 0.274084
O O11 0.370570 0.100061 0.089722
O O12 0.750000 0.750000 0.500000
O O13 0.354669 0.000000 0.000000
#
# Coordination Sequence:
#
# PCOD9479819 Si02
#       8
#    16   8   8   8  16   8   8  16
#     4  11  23  44  60  94 127 158 212 275 325 408
#     4   9  18  36  48  82 114 184 222 270 302 359
#     4  10  21  37  56  78 126 166 205 263 318 378
#     4   9  20  32  54  70 122 167 244 271 298 334
#     4  10  23  34  57  82 131 167 222 264 316 367
#     4  12  27  47  80  98 122 160 209 277 360 398
#     4  10  22  37  54  86 118 181 220 273 312 362
#     4  11  23  33  58  84 128 181 222 253 316 379
#
# _framework density 20.43168
#
# number of rings (size 3 to 8) (size 9 to 14) (size 15 to 20)
#    0.000    1.636    1.818    2.182   12.727    6.545 
#    0.000    0.000    0.000    0.000    0.000    1.273 
#    0.000    0.000    0.000    0.000    0.000    0.000 
#
# Total GULP energy -245082.659439 kJ/mol
# GULP energy per Si atom -5570.060442 kJ/mol
# Density = 2.038518 g / cm^3
# Si number density = 20.431680 Si / 1000 Ang^3
#
#
#
# Elastic Constant Matrix: (Units=GPa)
#
#
# Indices 1 2 3 4 5 6 
#
# 1 153.5050 22.8659 41.4947 0.0000 0.0000 0.0000
# 2 22.8659 37.3281 23.8633 0.0000 0.0000 0.0000
# 3 41.4947 23.8633 104.6994 0.0000 0.0000 0.0000
# 4 0.0000 0.0000 0.0000 30.5125 0.0000 0.0000
# 5 0.0000 0.0000 0.0000 0.0000 14.4002 0.0000
# 6 0.0000 0.0000 0.0000 0.0000 0.0000 7.9904
#
#
#
# Elastic Compliance Matrix: (Units=1/GPa)
#
#
# Indices 1 2 3 4 5 6 
#
# 1 0.007609 -0.003199 -0.002286 0.000000 0.000000 0.000000
# 2 -0.003199 0.032704 -0.006186 0.000000 0.000000 0.000000
# 3 -0.002286 -0.006186 0.011867 0.000000 0.000000 0.000000
# 4 0.000000 0.000000 0.000000 0.032773 0.000000 0.000000
# 5 0.000000 0.000000 0.000000 0.000000 0.069443 0.000000
# 6 0.000000 0.000000 0.000000 0.000000 0.000000 0.125150
#
#
# Mechanical properties :
#
#
# Convention : Reuss Voigt Hill
#
# Bulk Modulus (GPa) = 34.67807 52.44227 43.56017
# Shear Modulus (GPa) = 15.99983 24.40119 20.20051
#
# Velocity S-wave (km/s) = 2.80141 3.45959 3.14775
# Velocity P-wave (km/s) = 5.24151 6.45610 5.88025
#
# Compressibility (1/GPa) = 0.02883667
#
# Stress axis : x y z
#
# Youngs Moduli (GPa) = 131.42192 30.57739 84.26554
#
# Poissons Ratio (x) = 0.09783 0.19267
# Poissons Ratio (y) = 0.42047 0.52126
# Poissons Ratio (z) = 0.30049 0.18915
#
# Static dielectric constant tensor:
#      x y z
#    x 1.777170 0.000000 0.000000 
#    y 0.000000 1.775440 0.000000 
#    z 0.000000 0.000000 1.819360 
# 
# From -- ./inp_files/3353.got.cif
#   From: 2010.05.17/outbox.cif.g08.bks.cpg/sg64_2_cif.got.tgz:3353.got - 2010.06.03 16:29:19.
