data_PCOD9479134
_publ_section_title
;
Structure prediction by ZEFSAII (Michael W. Deem and Ramdas Pophale) SiO2 
 PCOD9479134
Probable space group: C M C A
;
_chemical_formula_sum "Si O2"
_cell_formula_units_Z 104
_cell_length_a 18.170763
_cell_length_b 14.722535
_cell_length_c 18.577723
_cell_angle_alpha 90.000000
_cell_angle_beta 90.000000
_cell_angle_gamma 90.000000
_cell_volume 4969.906777
_symmetry_space_group_name_H-M "C M C A"
_symmetry_group_IT_number 64
_symmetry_cell_setting 'orthorhombic'
loop_
_space_group_symop_operation_xyz
x,y,z
-x,1/2-y,1/2+z
x,-y,-z
-x,1/2+y,1/2-z
-x,-y,-z
x,1/2+y,1/2-z
-x,y,z
x,1/2-y,1/2+z
1/2+x,1/2+y,z
1/2-x,-y,1/2+z
1/2+x,1/2-y,-z
1/2-x,y,1/2-z
1/2-x,1/2-y,-z
1/2+x,y,1/2-z
1/2-x,1/2+y,z
1/2+x,-y,1/2+z
loop_
_atom_site_type_symbol
_atom_site_label
_atom_site_fract_x
_atom_site_fract_y
_atom_site_fract_z
Si Si1 0.355601 0.863130 0.687069
Si Si2 0.659847 0.452153 0.570760
Si Si3 0.743673 0.456463 0.173987
Si Si4 0.115645 0.618978 0.583493
Si Si5 0.000000 0.038833 0.122088
Si Si6 0.704792 0.325483 0.956891
Si Si7 0.416005 0.197481 0.164668
O O1 0.434142 0.898763 0.658440
O O2 0.318935 0.802118 0.624313
O O3 0.366766 0.816565 0.764221
O O4 0.302640 0.951550 0.692443
O O5 0.628576 0.500000 0.500000
O O6 0.679445 0.519500 0.636264
O O7 0.739105 0.409881 0.548843
O O8 0.612310 0.371247 0.603375
O O9 0.750000 0.406716 0.250000
O O10 0.694930 0.404014 0.116645
O O11 0.132229 0.648719 0.502066
O O12 0.086877 0.702423 0.631035
O O13 0.063522 0.532851 0.590890
O O14 0.750000 0.250000 0.000000
O O15 0.500000 0.175366 0.183177
#
# Coordination Sequence:
#
# PCOD9479134 Si02
#       7
#    16  16  16  16   8  16  16
#     4  10  23  39  67  90 130 175 217 269 319 391
#     4  11  22  41  67  91 129 168 215 268 325 392
#     4  10  20  37  62  96 121 165 217 267 320 375
#     4  11  23  39  66  92 131 164 211 277 327 378
#     4  10  22  43  64  96 124 166 227 264 319 380
#     4  11  23  40  63  98 131 164 210 275 331 382
#     4  12  24  44  64  91 133 179 214 262 331 393
#
# _framework density 20.925946
#
# number of rings (size 3 to 8) (size 9 to 14) (size 15 to 20)
#    0.000    1.231    6.154    0.000    0.000    2.769 
#    0.000    0.000    0.000    0.000    0.000    0.000 
#    0.000    0.000    0.000    0.000    0.000    0.000 
#
# Total GULP energy -289469.568294 kJ/mol
# GULP energy per Si atom -5566.722467 kJ/mol
# Density = 2.087832 g / cm^3
# Si number density = 20.925946 Si / 1000 Ang^3
#
#
#
# Elastic Constant Matrix: (Units=GPa)
#
#
# Indices 1 2 3 4 5 6 
#
# 1 44.4014 11.0736 8.1372 0.0000 0.0000 0.0000
# 2 11.0736 45.6824 33.4522 0.0000 0.0000 0.0000
# 3 8.1372 33.4522 132.6022 0.0000 0.0000 0.0000
# 4 0.0000 0.0000 0.0000 25.1945 0.0000 0.0000
# 5 0.0000 0.0000 0.0000 0.0000 25.0862 0.0000
# 6 0.0000 0.0000 0.0000 0.0000 0.0000 20.0814
#
#
#
# Elastic Compliance Matrix: (Units=1/GPa)
#
#
# Indices 1 2 3 4 5 6 
#
# 1 0.023971 -0.005806 -0.000006 0.000000 0.000000 0.000000
# 2 -0.005806 0.028257 -0.006772 0.000000 0.000000 0.000000
# 3 -0.000006 -0.006772 0.009250 0.000000 0.000000 0.000000
# 4 0.000000 0.000000 0.000000 0.039691 0.000000 0.000000
# 5 0.000000 0.000000 0.000000 0.000000 0.039863 0.000000
# 6 0.000000 0.000000 0.000000 0.000000 0.000000 0.049797
#
#
# Mechanical properties :
#
#
# Convention : Reuss Voigt Hill
#
# Bulk Modulus (GPa) = 27.54144 36.44577 31.99360
# Shear Modulus (GPa) = 21.92010 25.40728 23.66369
#
# Velocity S-wave (km/s) = 3.24003 3.48825 3.36643
# Velocity P-wave (km/s) = 5.21412 5.80329 5.51658
#
# Compressibility (1/GPa) = 0.03630893
#
# Stress axis : x y z
#
# Youngs Moduli (GPa) = 41.71704 35.38965 108.10587
#
# Poissons Ratio (x) = 0.20548 0.00068
# Poissons Ratio (y) = 0.24221 0.73211
# Poissons Ratio (z) = 0.00026 0.23967
#
# Static dielectric constant tensor:
#      x y z
#    x 1.748010 0.000000 0.000000 
#    y 0.000000 1.766490 0.000000 
#    z 0.000000 0.000000 1.852110 
# 
# From -- ./inp_files/34331.got.cif
#   From: 2010.05.17/outbox.cif.g08.bks.cpg/sg64_18_cif.got.tgz:34331.got - 2010.06.03 16:29:19.
