data_PCOD9479655
_publ_section_title
;
Structure prediction by ZEFSAII (Michael W. Deem and Ramdas Pophale) SiO2 
 PCOD9479655
Probable space group: C M C A
;
_chemical_formula_sum "Si O2"
_cell_formula_units_Z 88
_cell_length_a 24.200427
_cell_length_b 12.757411
_cell_length_c 14.214760
_cell_angle_alpha 90.000000
_cell_angle_beta 90.000000
_cell_angle_gamma 90.000000
_cell_volume 4388.590995
_symmetry_space_group_name_H-M "C M C A"
_symmetry_group_IT_number 64
_symmetry_cell_setting 'orthorhombic'
loop_
_space_group_symop_operation_xyz
x,y,z
-x,1/2-y,1/2+z
x,-y,-z
-x,1/2+y,1/2-z
-x,-y,-z
x,1/2+y,1/2-z
-x,y,z
x,1/2-y,1/2+z
1/2+x,1/2+y,z
1/2-x,-y,1/2+z
1/2+x,1/2-y,-z
1/2-x,y,1/2-z
1/2-x,1/2-y,-z
1/2+x,y,1/2-z
1/2-x,1/2+y,z
1/2+x,-y,1/2+z
loop_
_atom_site_type_symbol
_atom_site_label
_atom_site_fract_x
_atom_site_fract_y
_atom_site_fract_z
Si Si1 0.938393 0.383491 0.960318
Si Si2 0.327650 0.378315 0.022702
Si Si3 0.624409 0.780435 0.123192
Si Si4 0.361275 0.277993 0.682455
Si Si5 0.250000 0.393601 0.750000
Si Si6 0.284865 0.555276 0.592315
O O1 0.892373 0.363446 0.881009
O O2 0.000000 0.358202 0.925436
O O3 0.938176 0.500000 0.000000
O O4 0.922221 0.313481 0.050039
O O5 0.354770 0.322055 0.113547
O O6 0.262982 0.373313 0.047735
O O7 0.341107 0.500000 0.000000
O O8 0.342699 0.310644 0.931696
O O9 0.604069 0.747308 0.224851
O O10 0.667692 0.875915 0.138710
O O11 0.302882 0.320725 0.724649
O O12 0.253591 0.474529 0.661523
O O13 0.309403 0.500000 0.500000
#
# Coordination Sequence:
#
# PCOD9479655 Si02
#       6
#    16  16  16  16   8  16
#     4  10  23  43  64  85 111 149 199 248 294 348
#     4  10  21  35  52  81 122 163 196 229 282 353
#     4  11  21  36  59  84 115 152 195 241 293 345
#     4  11  22  37  59  87 121 153 193 243 295 352
#     4  12  22  34  58  92 124 156 194 236 300 368
#     4  11  20  33  54  84 124 158 191 232 286 354
#
# _framework density 20.051993
#
# number of rings (size 3 to 8) (size 9 to 14) (size 15 to 20)
#    0.000    1.273    0.000    8.727    0.000    2.182 
#    0.000    0.000    0.000    8.727    0.000    0.000 
#    0.000    0.727    0.000    0.000    0.000    0.000 
#
# Total GULP energy -245556.644030 kJ/mol
# GULP energy per Si atom -5580.832819 kJ/mol
# Density = 2.000635 g / cm^3
# Si number density = 20.051993 Si / 1000 Ang^3
#
#
#
# Elastic Constant Matrix: (Units=GPa)
#
#
# Indices 1 2 3 4 5 6 
#
# 1 74.1589 21.5361 24.5590 0.0000 0.0000 0.0000
# 2 21.5361 82.0200 36.7451 0.0000 0.0000 0.0000
# 3 24.5590 36.7451 150.5136 0.0000 0.0000 0.0000
# 4 0.0000 0.0000 0.0000 25.5930 0.0000 0.0000
# 5 0.0000 0.0000 0.0000 0.0000 12.8638 0.0000
# 6 0.0000 0.0000 0.0000 0.0000 0.0000 88.3402
#
#
#
# Elastic Compliance Matrix: (Units=1/GPa)
#
#
# Indices 1 2 3 4 5 6 
#
# 1 0.014960 -0.003183 -0.001664 0.000000 0.000000 0.000000
# 2 -0.003183 0.014366 -0.002988 0.000000 0.000000 0.000000
# 3 -0.001664 -0.002988 0.007645 0.000000 0.000000 0.000000
# 4 0.000000 0.000000 0.000000 0.039073 0.000000 0.000000
# 5 0.000000 0.000000 0.000000 0.000000 0.077738 0.000000
# 6 0.000000 0.000000 0.000000 0.000000 0.000000 0.011320
#
#
# Mechanical properties :
#
#
# Convention : Reuss Voigt Hill
#
# Bulk Modulus (GPa) = 46.94383 52.48587 49.71485
# Shear Modulus (GPa) = 26.61390 40.28289 33.44840
#
# Velocity S-wave (km/s) = 3.64709 4.48696 4.08865
# Velocity P-wave (km/s) = 6.41848 7.28529 6.86558
#
# Compressibility (1/GPa) = 0.02130205
#
# Stress axis : x y z
#
# Youngs Moduli (GPa) = 66.84565 69.60674 130.80622
#
# Poissons Ratio (x) = 0.22153 0.21766
# Poissons Ratio (y) = 0.21274 0.39085
# Poissons Ratio (z) = 0.11123 0.20799
#
# Static dielectric constant tensor:
#      x y z
#    x 1.720030 0.000000 0.000000 
#    y 0.000000 1.772850 0.000000 
#    z 0.000000 0.000000 1.734670 
# 
# From -- ./inp_files/27963.got.cif
#   From: 2010.05.17/outbox.cif.g08.bks.cpg/sg64_14_cif.got.tgz:27963.got - 2010.06.03 16:29:19.
