data_PCOD9479404
_publ_section_title
;
Structure prediction by ZEFSAII (Michael W. Deem and Ramdas Pophale) SiO2 
 PCOD9479404
Probable space group: C M C A
;
_chemical_formula_sum "Si O2"
_cell_formula_units_Z 80
_cell_length_a 24.103593
_cell_length_b 17.164025
_cell_length_c 9.840190
_cell_angle_alpha 90.000000
_cell_angle_beta 90.000000
_cell_angle_gamma 90.000000
_cell_volume 4071.030987
_symmetry_space_group_name_H-M "C M C A"
_symmetry_group_IT_number 64
_symmetry_cell_setting 'orthorhombic'
loop_
_space_group_symop_operation_xyz
x,y,z
-x,1/2-y,1/2+z
x,-y,-z
-x,1/2+y,1/2-z
-x,-y,-z
x,1/2+y,1/2-z
-x,y,z
x,1/2-y,1/2+z
1/2+x,1/2+y,z
1/2-x,-y,1/2+z
1/2+x,1/2-y,-z
1/2-x,y,1/2-z
1/2-x,1/2-y,-z
1/2+x,y,1/2-z
1/2-x,1/2+y,z
1/2+x,-y,1/2+z
loop_
_atom_site_type_symbol
_atom_site_label
_atom_site_fract_x
_atom_site_fract_y
_atom_site_fract_z
Si Si1 0.849238 0.185360 0.326727
Si Si2 0.061955 0.941636 0.124297
Si Si3 0.153050 0.164855 0.010707
Si Si4 0.256019 0.561472 0.395753
Si Si5 0.434837 0.448261 0.634408
O O1 0.836303 0.262819 0.411173
O O2 0.856930 0.196179 0.164380
O O3 0.796914 0.130729 0.357035
O O4 0.901462 0.132328 0.373097
O O5 0.000000 0.913373 0.165391
O O6 0.086239 0.995013 0.244982
O O7 0.101505 0.876186 0.064008
O O8 0.055549 0.000000 0.000000
O O9 0.201336 0.100094 0.035752
O O10 0.280597 0.500000 0.500000
O O11 0.250000 0.519700 0.250000
O O12 0.430709 0.500000 0.500000
O O13 0.500000 0.432495 0.662110
#
# Coordination Sequence:
#
# PCOD9479404 Si02
#       5
#    16  16  16  16  16
#     4  11  24  40  59  90 125 160 201 253 311 368
#     4  10  20  39  65  89 119 163 208 253 303 365
#     4  11  24  39  61  89 125 161 201 254 310 369
#     4  10  23  41  64  90 118 160 208 255 306 370
#     4  10  22  40  64  92 123 160 208 256 302 366
#
# _framework density 19.651040999999999
#
# number of rings (size 3 to 8) (size 9 to 14) (size 15 to 20)
#    0.000    1.600    2.000    1.800    5.600    2.400 
#    0.000    0.000    0.000    0.000    0.000    0.000 
#    0.000    0.000    0.000    0.000    0.000    0.000 
#
# Total GULP energy -223012.150551 kJ/mol
# GULP energy per Si atom -5575.303764 kJ/mol
# Density = 1.960631 g / cm^3
# Si number density = 19.651041 Si / 1000 Ang^3
#
#
#
# Elastic Constant Matrix: (Units=GPa)
#
#
# Indices 1 2 3 4 5 6 
#
# 1 50.5327 -3.2771 -3.3192 0.0000 0.0000 0.0000
# 2 -3.2771 35.2145 31.9913 0.0000 0.0000 0.0000
# 3 -3.3192 31.9913 88.8584 0.0000 0.0000 0.0000
# 4 0.0000 0.0000 0.0000 38.5937 0.0000 0.0000
# 5 0.0000 0.0000 0.0000 0.0000 20.9349 0.0000
# 6 0.0000 0.0000 0.0000 0.0000 0.0000 28.7494
#
#
#
# Elastic Compliance Matrix: (Units=1/GPa)
#
#
# Indices 1 2 3 4 5 6 
#
# 1 0.019910 0.001749 0.000114 0.000000 0.000000 0.000000
# 2 0.001749 0.042354 -0.015183 0.000000 0.000000 0.000000
# 3 0.000114 -0.015183 0.016724 0.000000 0.000000 0.000000
# 4 0.000000 0.000000 0.000000 0.025911 0.000000 0.000000
# 5 0.000000 0.000000 0.000000 0.000000 0.047767 0.000000
# 6 0.000000 0.000000 0.000000 0.000000 0.000000 0.034783
#
#
# Mechanical properties :
#
#
# Convention : Reuss Voigt Hill
#
# Bulk Modulus (GPa) = 19.10273 25.04395 22.07334
# Shear Modulus (GPa) = 21.59469 27.60298 24.59883
#
# Velocity S-wave (km/s) = 3.31857 3.75194 3.54189
# Velocity P-wave (km/s) = 4.94227 5.61618 5.28996
#
# Compressibility (1/GPa) = 0.05234854
#
# Stress axis : x y z
#
# Youngs Moduli (GPa) = 50.22577 23.61078 59.79288
#
# Poissons Ratio (x) = -0.04130 -0.00681
# Poissons Ratio (y) = -0.08786 0.90784
# Poissons Ratio (z) = -0.00572 0.35848
#
# Static dielectric constant tensor:
#      x y z
#    x 1.769620 0.000000 0.000000 
#    y 0.000000 1.625080 0.000000 
#    z 0.000000 0.000000 1.743750 
# 
# From -- ./inp_files/10155.got.cif
#   From: 2010.05.17/outbox.cif.g08.bks.cpg/sg64_6_cif.got.tgz:10155.got - 2010.06.03 16:29:19.
