data_PCOD9479313
_publ_section_title
;
Structure prediction by ZEFSAII (Michael W. Deem and Ramdas Pophale) SiO2 
 PCOD9479313
Probable space group: C M C A
;
_chemical_formula_sum "Si O2"
_cell_formula_units_Z 104
_cell_length_a 27.478276
_cell_length_b 9.176850
_cell_length_c 20.589731
_cell_angle_alpha 90.000000
_cell_angle_beta 90.000000
_cell_angle_gamma 90.000000
_cell_volume 5191.989280
_symmetry_space_group_name_H-M "C M C A"
_symmetry_group_IT_number 64
_symmetry_cell_setting 'orthorhombic'
loop_
_space_group_symop_operation_xyz
x,y,z
-x,1/2-y,1/2+z
x,-y,-z
-x,1/2+y,1/2-z
-x,-y,-z
x,1/2+y,1/2-z
-x,y,z
x,1/2-y,1/2+z
1/2+x,1/2+y,z
1/2-x,-y,1/2+z
1/2+x,1/2-y,-z
1/2-x,y,1/2-z
1/2-x,1/2-y,-z
1/2+x,y,1/2-z
1/2-x,1/2+y,z
1/2+x,-y,1/2+z
loop_
_atom_site_type_symbol
_atom_site_label
_atom_site_fract_x
_atom_site_fract_y
_atom_site_fract_z
Si Si1 0.615762 0.886946 0.753448
Si Si2 0.759207 0.876939 0.950071
Si Si3 0.944313 0.730155 0.431734
Si Si4 0.892773 0.500000 0.000000
Si Si5 0.163319 0.668238 0.113811
Si Si6 0.360428 0.013400 0.391469
Si Si7 0.053400 0.361595 0.213202
O O1 0.649998 0.889924 0.815267
O O2 0.635807 0.944534 0.684886
O O3 0.598019 0.722593 0.744936
O O4 0.566879 0.972502 0.774212
O O5 0.721124 0.846758 0.893486
O O6 0.812869 0.911942 0.923746
O O7 0.750000 0.750000 0.000000
O O8 0.744116 0.000000 0.000000
O O9 0.923955 0.859177 0.477368
O O10 0.907608 0.591998 0.424588
O O11 0.946028 0.807288 0.360794
O O12 0.000000 0.688634 0.448575
O O13 0.861215 0.563177 0.059913
O O14 0.145718 0.837138 0.102867
O O15 0.000000 0.330261 0.240312
#
# Coordination Sequence:
#
# PCOD9479313 Si02
#       7
#    16  16  16   8  16  16  16
#     4  11  22  42  65  99 135 174 226 281 342 398
#     4  12  25  44  71 100 130 172 228 272 339 410
#     4  10  23  42  65  98 138 180 225 276 336 399
#     4  12  23  40  72 100 136 180 225 286 336 400
#     4  12  25  44  69 101 133 180 224 285 343 408
#     4  11  26  46  68  98 141 176 225 287 338 411
#     4  10  20  38  64  94 132 179 228 275 327 400
#
# _framework density 20.030859
#
# number of rings (size 3 to 8) (size 9 to 14) (size 15 to 20)
#    0.000    0.923    5.385    1.615    0.000    1.231 
#    0.000    3.846    0.000    0.000    0.000    0.000 
#    0.000    0.000    0.000    0.000    0.000    0.000 
#
# Total GULP energy -289861.969819 kJ/mol
# GULP energy per Si atom -5574.268650 kJ/mol
# Density = 1.998527 g / cm^3
# Si number density = 20.030859 Si / 1000 Ang^3
#
#
#
# Elastic Constant Matrix: (Units=GPa)
#
#
# Indices 1 2 3 4 5 6 
#
# 1 115.6826 36.2136 47.7911 0.0000 0.0000 0.0000
# 2 36.2136 107.5042 18.1075 0.0000 0.0000 0.0000
# 3 47.7911 18.1075 83.6494 0.0000 0.0000 0.0000
# 4 0.0000 0.0000 0.0000 23.6021 0.0000 0.0000
# 5 0.0000 0.0000 0.0000 0.0000 5.6057 0.0000
# 6 0.0000 0.0000 0.0000 0.0000 0.0000 14.6690
#
#
#
# Elastic Compliance Matrix: (Units=1/GPa)
#
#
# Indices 1 2 3 4 5 6 
#
# 1 0.012207 -0.003049 -0.006314 0.000000 0.000000 0.000000
# 2 -0.003049 0.010415 -0.000513 0.000000 0.000000 0.000000
# 3 -0.006314 -0.000513 0.015673 0.000000 0.000000 0.000000
# 4 0.000000 0.000000 0.000000 0.042369 0.000000 0.000000
# 5 0.000000 0.000000 0.000000 0.000000 0.178391 0.000000
# 6 0.000000 0.000000 0.000000 0.000000 0.000000 0.068171
#
#
# Mechanical properties :
#
#
# Convention : Reuss Voigt Hill
#
# Bulk Modulus (GPa) = 53.92533 56.78449 55.35491
# Shear Modulus (GPa) = 14.15790 22.42363 18.29077
#
# Velocity S-wave (km/s) = 2.66146 3.34945 3.02508
# Velocity P-wave (km/s) = 6.03524 6.58548 6.31635
#
# Compressibility (1/GPa) = 0.01854416
#
# Stress axis : x y z
#
# Youngs Moduli (GPa) = 81.91823 96.01284 63.80291
#
# Poissons Ratio (x) = 0.29270 0.40288
# Poissons Ratio (y) = 0.24973 0.03272
# Poissons Ratio (z) = 0.51727 0.04924
#
# Static dielectric constant tensor:
#      x y z
#    x 1.705800 0.000000 0.000000 
#    y 0.000000 1.677800 0.000000 
#    z 0.000000 0.000000 1.685700 
# 
# From -- ./inp_files/41877.got.cif
#   From: 2010.05.17/outbox.cif.g08.bks.cpg/sg64_21_cif.got.tgz:41877.got - 2010.06.03 16:29:19.
