data_PCOD9479547
_publ_section_title
;
Structure prediction by ZEFSAII (Michael W. Deem and Ramdas Pophale) SiO2 
 PCOD9479547
Probable space group: C M C A
;
_chemical_formula_sum "Si O2"
_cell_formula_units_Z 88
_cell_length_a 13.552554
_cell_length_b 18.220192
_cell_length_c 16.680266
_cell_angle_alpha 90.000000
_cell_angle_beta 90.000000
_cell_angle_gamma 90.000000
_cell_volume 4118.860351
_symmetry_space_group_name_H-M "C M C A"
_symmetry_group_IT_number 64
_symmetry_cell_setting 'orthorhombic'
loop_
_space_group_symop_operation_xyz
x,y,z
-x,1/2-y,1/2+z
x,-y,-z
-x,1/2+y,1/2-z
-x,-y,-z
x,1/2+y,1/2-z
-x,y,z
x,1/2-y,1/2+z
1/2+x,1/2+y,z
1/2-x,-y,1/2+z
1/2+x,1/2-y,-z
1/2-x,y,1/2-z
1/2-x,1/2-y,-z
1/2+x,y,1/2-z
1/2-x,1/2+y,z
1/2+x,-y,1/2+z
loop_
_atom_site_type_symbol
_atom_site_label
_atom_site_fract_x
_atom_site_fract_y
_atom_site_fract_z
Si Si1 0.250000 0.727063 0.250000
Si Si2 0.611823 0.188248 0.510635
Si Si3 0.388744 0.549942 0.109365
Si Si4 0.816559 0.520503 0.910089
Si Si5 0.111055 0.894532 0.707116
Si Si6 0.813672 0.187649 0.605034
O O1 0.184612 0.672876 0.195710
O O2 0.183700 0.775820 0.307892
O O3 0.500000 0.186144 0.542250
O O4 0.625013 0.118545 0.450810
O O5 0.699750 0.187137 0.574583
O O6 0.627591 0.261265 0.456963
O O7 0.500000 0.520605 0.098039
O O8 0.301967 0.491921 0.096245
O O9 0.381391 0.580305 0.200109
O O10 0.861429 0.462659 0.848295
O O11 0.845912 0.603578 0.892928
O O12 0.846161 0.500000 0.000000
O O13 0.000000 0.870988 0.691112
#
# Coordination Sequence:
#
# PCOD9479547 Si02
#       6
#     8  16  16  16  16  16
#     4  12  24  44  68  90 132 174 224 274 322 394
#     4  10  21  43  68  96 130 167 219 274 327 394
#     4  10  20  41  70  94 126 176 224 268 325 396
#     4  12  24  42  66  97 139 172 218 278 337 396
#     4  11  24  44  68  92 126 177 222 266 334 402
#     4  11  25  39  65 100 129 172 216 275 332 387
#
# _framework density 21.365131000000002
#
# number of rings (size 3 to 8) (size 9 to 14) (size 15 to 20)
#    0.000    1.091    5.455    0.000    5.091    2.909 
#    0.000    0.000    0.000    0.000    0.000    0.000 
#    0.000    0.000    0.000    0.000    0.000    0.000 
#
# Total GULP energy -246228.620050 kJ/mol
# GULP energy per Si atom -5596.105001 kJ/mol
# Density = 2.131650 g / cm^3
# Si number density = 21.365131 Si / 1000 Ang^3
#
#
#
# Elastic Constant Matrix: (Units=GPa)
#
#
# Indices 1 2 3 4 5 6 
#
# 1 58.7296 -1.3937 -2.1135 0.0000 0.0000 0.0000
# 2 -1.3937 122.3437 14.3639 0.0000 0.0000 0.0000
# 3 -2.1135 14.3639 50.1237 0.0000 0.0000 0.0000
# 4 0.0000 0.0000 0.0000 29.0152 0.0000 0.0000
# 5 0.0000 0.0000 0.0000 0.0000 8.5679 0.0000
# 6 0.0000 0.0000 0.0000 0.0000 0.0000 5.8046
#
#
#
# Elastic Compliance Matrix: (Units=1/GPa)
#
#
# Indices 1 2 3 4 5 6 
#
# 1 0.017055 0.000114 0.000687 0.000000 0.000000 0.000000
# 2 0.000114 0.008459 -0.002419 0.000000 0.000000 0.000000
# 3 0.000687 -0.002419 0.020673 0.000000 0.000000 0.000000
# 4 0.000000 0.000000 0.000000 0.034465 0.000000 0.000000
# 5 0.000000 0.000000 0.000000 0.000000 0.116715 0.000000
# 6 0.000000 0.000000 0.000000 0.000000 0.000000 0.172278
#
#
# Mechanical properties :
#
#
# Convention : Reuss Voigt Hill
#
# Bulk Modulus (GPa) = 23.28379 28.10116 25.69247
# Shear Modulus (GPa) = 12.91326 23.36688 18.14007
#
# Velocity S-wave (km/s) = 2.46114 3.31069 2.91701
# Velocity P-wave (km/s) = 4.35866 5.27215 4.83702
#
# Compressibility (1/GPa) = 0.04294834
#
# Stress axis : x y z
#
# Youngs Moduli (GPa) = 58.63520 118.21688 48.37254
#
# Poissons Ratio (x) = -0.01344 -0.03321
# Poissons Ratio (y) = -0.00667 0.11703
# Poissons Ratio (z) = -0.04026 0.28600
#
# Static dielectric constant tensor:
#      x y z
#    x 1.783940 0.000000 0.000000 
#    y 0.000000 1.749660 0.000000 
#    z 0.000000 0.000000 1.767920 
# 
# From -- ./inp_files/32158.got.cif
#   From: 2010.05.17/outbox.cif.g08.bks.cpg/sg64_17_cif.got.tgz:32158.got - 2010.06.03 16:29:19.
