data_PCOD9479200
_publ_section_title
;
Structure prediction by ZEFSAII (Michael W. Deem and Ramdas Pophale) SiO2 
 PCOD9479200
Probable space group: C M C A
;
_chemical_formula_sum "Si O2"
_cell_formula_units_Z 88
_cell_length_a 9.185835
_cell_length_b 24.111516
_cell_length_c 18.906020
_cell_angle_alpha 90.000000
_cell_angle_beta 90.000000
_cell_angle_gamma 90.000000
_cell_volume 4187.388639
_symmetry_space_group_name_H-M "C M C A"
_symmetry_group_IT_number 64
_symmetry_cell_setting 'orthorhombic'
loop_
_space_group_symop_operation_xyz
x,y,z
-x,1/2-y,1/2+z
x,-y,-z
-x,1/2+y,1/2-z
-x,-y,-z
x,1/2+y,1/2-z
-x,y,z
x,1/2-y,1/2+z
1/2+x,1/2+y,z
1/2-x,-y,1/2+z
1/2+x,1/2-y,-z
1/2-x,y,1/2-z
1/2-x,1/2-y,-z
1/2+x,y,1/2-z
1/2-x,1/2+y,z
1/2+x,-y,1/2+z
loop_
_atom_site_type_symbol
_atom_site_label
_atom_site_fract_x
_atom_site_fract_y
_atom_site_fract_z
Si Si1 0.668952 0.810808 0.384745
Si Si2 0.828569 0.413309 0.469440
Si Si3 0.823759 0.800522 0.675841
Si Si4 0.836863 0.979081 0.352280
Si Si5 0.668824 0.414181 0.862173
Si Si6 0.750000 0.383739 0.250000
O O1 0.500000 0.803606 0.401265
O O2 0.725750 0.852492 0.444434
O O3 0.727939 0.748858 0.376413
O O4 0.680591 0.843858 0.309695
O O5 0.732852 0.455399 0.424337
O O6 0.823022 0.420245 0.552842
O O7 0.000000 0.419771 0.448006
O O8 0.750000 0.785637 0.750000
O O9 0.763262 0.860705 0.656862
O O10 0.000000 0.800546 0.680399
O O11 0.839508 0.927665 0.297548
O O12 0.000000 0.999769 0.363155
O O13 0.734100 0.029750 0.330039
O O14 0.500000 0.406417 0.841688
#
# Coordination Sequence:
#
# PCOD9479200 Si02
#       6
#    16  16  16  16  16   8
#     4   9  18  36  62  87 115 150 194 245 298 356
#     4   9  20  40  63  88 120 161 201 243 300 358
#     4  11  23  40  62  88 120 156 195 246 299 355
#     4  11  23  37  61  92 122 157 202 254 301 353
#     4  11  24  41  60  84 122 166 203 242 295 359
#     4  10  20  38  58  86 120 154 194 246 304 362
#
# _framework density 21.015483
#
# number of rings (size 3 to 8) (size 9 to 14) (size 15 to 20)
#    0.000    1.818    0.909    2.727    1.273    6.545 
#    0.000    0.909    0.000    0.000    0.000    0.000 
#    0.000    0.000    0.000    0.000    0.000    0.000 
#
# Total GULP energy -245506.194149 kJ/mol
# GULP energy per Si atom -5579.686231 kJ/mol
# Density = 2.096765 g / cm^3
# Si number density = 21.015483 Si / 1000 Ang^3
#
#
#
# Elastic Constant Matrix: (Units=GPa)
#
#
# Indices 1 2 3 4 5 6 
#
# 1 89.6797 26.7397 9.0137 0.0000 0.0000 0.0000
# 2 26.7397 119.9172 -11.5991 0.0000 0.0000 0.0000
# 3 9.0137 -11.5991 34.5556 0.0000 0.0000 0.0000
# 4 0.0000 0.0000 0.0000 11.1531 0.0000 0.0000
# 5 0.0000 0.0000 0.0000 0.0000 16.4401 0.0000
# 6 0.0000 0.0000 0.0000 0.0000 0.0000 20.1397
#
#
#
# Elastic Compliance Matrix: (Units=1/GPa)
#
#
# Indices 1 2 3 4 5 6 
#
# 1 0.012548 -0.003219 -0.004354 0.000000 0.000000 0.000000
# 2 -0.003219 0.009445 0.004010 0.000000 0.000000 0.000000
# 3 -0.004354 0.004010 0.031421 0.000000 0.000000 0.000000
# 4 0.000000 0.000000 0.000000 0.089661 0.000000 0.000000
# 5 0.000000 0.000000 0.000000 0.000000 0.060827 0.000000
# 6 0.000000 0.000000 0.000000 0.000000 0.000000 0.049653
#
#
# Mechanical properties :
#
#
# Convention : Reuss Voigt Hill
#
# Bulk Modulus (GPa) = 21.60398 32.49566 27.04982
# Shear Modulus (GPa) = 18.10873 24.21313 21.16093
#
# Velocity S-wave (km/s) = 2.93863 3.39803 3.17664
# Velocity P-wave (km/s) = 4.67081 5.55803 5.13362
#
# Compressibility (1/GPa) = 0.04628777
#
# Stress axis : x y z
#
# Youngs Moduli (GPa) = 79.69241 105.87847 31.82631
#
# Poissons Ratio (x) = 0.34084 0.13856
# Poissons Ratio (y) = 0.25654 -0.12762
# Poissons Ratio (z) = 0.34696 -0.42457
#
# Static dielectric constant tensor:
#      x y z
#    x 1.728190 0.000000 0.000000 
#    y 0.000000 1.787810 0.000000 
#    z 0.000000 0.000000 1.768310 
# 
# From -- ./inp_files/36757.got.cif
#   From: 2010.05.17/outbox.cif.g08.bks.cpg/sg64_19_cif.got.tgz:36757.got - 2010.06.03 16:29:19.
