data_PCOD9479803
_publ_section_title
;
Structure prediction by ZEFSAII (Michael W. Deem and Ramdas Pophale) SiO2 
 PCOD9479803
Probable space group: C M C A
;
_chemical_formula_sum "Si O2"
_cell_formula_units_Z 92
_cell_length_a 23.027485
_cell_length_b 18.387737
_cell_length_c 9.278879
_cell_angle_alpha 90.000000
_cell_angle_beta 90.000000
_cell_angle_gamma 90.000000
_cell_volume 3928.893919
_symmetry_space_group_name_H-M "C M C A"
_symmetry_group_IT_number 64
_symmetry_cell_setting 'orthorhombic'
loop_
_space_group_symop_operation_xyz
x,y,z
-x,1/2-y,1/2+z
x,-y,-z
-x,1/2+y,1/2-z
-x,-y,-z
x,1/2+y,1/2-z
-x,y,z
x,1/2-y,1/2+z
1/2+x,1/2+y,z
1/2-x,-y,1/2+z
1/2+x,1/2-y,-z
1/2-x,y,1/2-z
1/2-x,1/2-y,-z
1/2+x,y,1/2-z
1/2-x,1/2+y,z
1/2+x,-y,1/2+z
loop_
_atom_site_type_symbol
_atom_site_label
_atom_site_fract_x
_atom_site_fract_y
_atom_site_fract_z
Si Si1 0.121234 0.642039 0.830658
Si Si2 0.885471 0.078356 0.364179
Si Si3 0.000000 0.157933 0.672703
Si Si4 0.000000 0.224946 0.958588
Si Si5 0.500000 0.000000 0.000000
Si Si6 0.378709 0.808795 0.605809
Si Si7 0.712719 0.135627 0.614723
Si Si8 0.713291 0.500000 0.500000
O O1 0.056616 0.612738 0.805999
O O2 0.122583 0.729808 0.817036
O O3 0.159379 0.607571 0.708806
O O4 0.132075 0.628683 0.998037
O O5 0.883556 0.127022 0.222001
O O6 0.831461 0.022456 0.372849
O O7 0.947131 0.042300 0.405086
O O8 0.000000 0.193531 0.517297
O O9 0.000000 0.221982 0.787694
O O10 0.060787 0.191502 0.014385
O O11 0.320413 0.817539 0.507912
O O12 0.750000 0.170460 0.750000
O O13 0.748216 0.069332 0.545392
#
# Coordination Sequence:
#
# PCOD9479803 Si02
#       8
#    16  16   8   8   4  16  16   8
#     4  11  23  45  70 107 142 176 227 297 382 432
#     4  11  24  45  72 102 137 188 239 299 360 430
#     4  10  21  36  67  98 143 177 205 275 353 442
#     4  10  21  38  63 102 139 173 212 268 357 432
#     4  10  24  44  76 102 140 186 252 290 342 442
#     4  11  25  42  74 108 143 178 232 299 375 442
#     4  12  26  47  68  97 138 191 242 296 347 435
#     4  11  28  47  68  89 136 195 248 288 352 413
#
# _framework density 23.416260999999999
#
# number of rings (size 3 to 8) (size 9 to 14) (size 15 to 20)
#    0.000    1.043    3.478    2.087    9.739    0.696 
#    3.130    0.000    0.000    2.087    0.000    0.000 
#    0.000    0.000    0.000    0.000    0.000    0.000 
#
# Total GULP energy -256131.805696 kJ/mol
# GULP energy per Si atom -5568.082733 kJ/mol
# Density = 2.336296 g / cm^3
# Si number density = 23.416261 Si / 1000 Ang^3
#
#
#
# Elastic Constant Matrix: (Units=GPa)
#
#
# Indices 1 2 3 4 5 6 
#
# 1 180.9290 46.0648 36.4367 0.0000 0.0000 0.0000
# 2 46.0648 103.1524 38.4200 0.0000 0.0000 0.0000
# 3 36.4367 38.4200 76.0751 0.0000 0.0000 0.0000
# 4 0.0000 0.0000 0.0000 45.4642 0.0000 0.0000
# 5 0.0000 0.0000 0.0000 0.0000 33.0199 0.0000
# 6 0.0000 0.0000 0.0000 0.0000 0.0000 -5.4539
#
#
#
# Elastic Compliance Matrix: (Units=1/GPa)
#
#
# Indices 1 2 3 4 5 6 
#
# 1 0.006479 -0.002140 -0.002022 0.000000 0.000000 0.000000
# 2 -0.002140 0.012647 -0.005362 0.000000 0.000000 0.000000
# 3 -0.002022 -0.005362 0.016822 0.000000 0.000000 0.000000
# 4 0.000000 0.000000 0.000000 0.021995 0.000000 0.000000
# 5 0.000000 0.000000 0.000000 0.000000 0.030285 0.000000
# 6 0.000000 0.000000 0.000000 0.000000 0.000000 -0.183356
#
#
# Mechanical properties :
#
#
# Convention : Reuss Voigt Hill
#
# Bulk Modulus (GPa) = 59.17654 66.88882 63.03268
# Shear Modulus (GPa) = -70.97713 30.55505 -20.21104
#
# Velocity S-wave (km/s) = -5.51152 3.61621 -2.94108
# Velocity P-wave (km/s) = 3.89564 6.78698 3.92983
#
# Compressibility (1/GPa) = 0.01689859
#
# Stress axis : x y z
#
# Youngs Moduli (GPa) = 154.33993 79.06814 59.44738
#
# Poissons Ratio (x) = 0.16922 0.12023
# Poissons Ratio (y) = 0.33031 0.31877
# Poissons Ratio (z) = 0.31214 0.42398
#
# Static dielectric constant tensor:
#      x y z
#    x 2.028850 0.000000 0.000000 
#    y 0.000000 1.961540 0.000000 
#    z 0.000000 0.000000 1.906110 
# 
# From -- ./inp_files/9419.got.cif
#   From: 2010.05.17/outbox.cif.g08.bks.cpg/sg64_5_cif.got.tgz:9419.got - 2010.06.03 16:29:19.
