data_PCOD9479821
_publ_section_title
;
Structure prediction by ZEFSAII (Michael W. Deem and Ramdas Pophale) SiO2 
 PCOD9479821
Probable space group: C M C A
;
_chemical_formula_sum "Si O2"
_cell_formula_units_Z 104
_cell_length_a 14.547794
_cell_length_b 19.330910
_cell_length_c 21.110549
_cell_angle_alpha 90.000000
_cell_angle_beta 90.000000
_cell_angle_gamma 90.000000
_cell_volume 5936.752848
_symmetry_space_group_name_H-M "C M C A"
_symmetry_group_IT_number 64
_symmetry_cell_setting 'orthorhombic'
loop_
_space_group_symop_operation_xyz
x,y,z
-x,1/2-y,1/2+z
x,-y,-z
-x,1/2+y,1/2-z
-x,-y,-z
x,1/2+y,1/2-z
-x,y,z
x,1/2-y,1/2+z
1/2+x,1/2+y,z
1/2-x,-y,1/2+z
1/2+x,1/2-y,-z
1/2-x,y,1/2-z
1/2-x,1/2-y,-z
1/2+x,y,1/2-z
1/2-x,1/2+y,z
1/2+x,-y,1/2+z
loop_
_atom_site_type_symbol
_atom_site_label
_atom_site_fract_x
_atom_site_fract_y
_atom_site_fract_z
Si Si1 0.216486 0.111343 0.357386
Si Si2 0.393843 0.768776 0.789110
Si Si3 0.893175 0.419154 0.984272
Si Si4 0.888500 0.338973 0.108213
Si Si5 0.610596 0.884321 0.249870
Si Si6 0.105291 0.687120 0.358638
Si Si7 0.250000 0.999070 0.750000
O O1 0.172400 0.181119 0.327678
O O2 0.162804 0.094161 0.420926
O O3 0.322764 0.127324 0.371048
O O4 0.212571 0.050536 0.305518
O O5 0.500000 0.774313 0.811260
O O6 0.367962 0.687662 0.786040
O O7 0.392790 0.794728 0.716285
O O8 0.000000 0.398833 0.974175
O O9 0.891566 0.500000 0.000000
O O10 0.856681 0.378609 0.045933
O O11 0.862522 0.371847 0.175898
O O12 0.864306 0.258196 0.107727
O O13 0.000000 0.341603 0.108583
O O14 0.500000 0.894004 0.252903
O O15 0.668187 0.950031 0.272287
O O16 0.000000 0.671291 0.375515
#
# Coordination Sequence:
#
# PCOD9479821 Si02
#       7
#    16  16  16  16  16  16   8
#     4  12  22  34  53  87 113 147 190 231 279 330
#     4   9  18  35  56  79 109 146 183 231 282 326
#     4  10  21  37  56  80 113 142 179 238 290 335
#     4   8  16  34  57  77  98 140 187 224 277 326
#     4   9  20  36  56  80 111 148 184 229 280 334
#     4   9  18  33  54  77 108 143 183 226 272 330
#     4  12  24  30  50  82 114 152 180 220 276 348
#
# _framework density 17.517994999999999
#
# number of rings (size 3 to 8) (size 9 to 14) (size 15 to 20)
#    0.000    2.308    1.538    3.231    4.308    3.692 
#    0.000    0.000    0.000    0.462    0.000    0.000 
#    0.000    0.000    0.000    0.000    0.000    0.000 
#
# Total GULP energy -290048.761109 kJ/mol
# GULP energy per Si atom -5577.860791 kJ/mol
# Density = 1.747812 g / cm^3
# Si number density = 17.517995 Si / 1000 Ang^3
#
#
#
# Elastic Constant Matrix: (Units=GPa)
#
#
# Indices 1 2 3 4 5 6 
#
# 1 71.7530 46.9170 21.1981 0.0000 0.0000 0.0000
# 2 46.9170 86.6612 38.5488 0.0000 0.0000 0.0000
# 3 21.1981 38.5488 62.6443 0.0000 0.0000 0.0000
# 4 0.0000 0.0000 0.0000 20.6835 0.0000 0.0000
# 5 0.0000 0.0000 0.0000 0.0000 22.7671 0.0000
# 6 0.0000 0.0000 0.0000 0.0000 0.0000 31.3518
#
#
#
# Elastic Compliance Matrix: (Units=1/GPa)
#
#
# Indices 1 2 3 4 5 6 
#
# 1 0.021575 -0.011611 -0.000156 0.000000 0.000000 0.000000
# 2 -0.011611 0.022137 -0.009693 0.000000 0.000000 0.000000
# 3 -0.000156 -0.009693 0.021981 0.000000 0.000000 0.000000
# 4 0.000000 0.000000 0.000000 0.048348 0.000000 0.000000
# 5 0.000000 0.000000 0.000000 0.000000 0.043923 0.000000
# 6 0.000000 0.000000 0.000000 0.000000 0.000000 0.031896
#
#
# Mechanical properties :
#
#
# Convention : Reuss Voigt Hill
#
# Bulk Modulus (GPa) = 43.91242 48.26514 46.08878
# Shear Modulus (GPa) = 20.80129 22.58678 21.69403
#
# Velocity S-wave (km/s) = 3.44964 3.59464 3.52289
# Velocity P-wave (km/s) = 6.40220 6.69628 6.55089
#
# Compressibility (1/GPa) = 0.02277260
#
# Stress axis : x y z
#
# Youngs Moduli (GPa) = 46.35053 45.17345 45.49464
#
# Poissons Ratio (x) = 0.52451 0.00708
# Poissons Ratio (y) = 0.53817 0.44099
# Poissons Ratio (z) = 0.00722 0.43787
#
# Static dielectric constant tensor:
#      x y z
#    x 1.624580 0.000000 0.000000 
#    y 0.000000 1.605990 0.000000 
#    z 0.000000 0.000000 1.579900 
# 
# From -- ./inp_files/39466.got.cif
#   From: 2010.05.17/outbox.cif.g08.bks.cpg/sg64_20_cif.got.tgz:39466.got - 2010.06.03 16:29:19.
