data_PCOD9479156
_publ_section_title
;
Structure prediction by ZEFSAII (Michael W. Deem and Ramdas Pophale) SiO2 
 PCOD9479156
Probable space group: C M C A
;
_chemical_formula_sum "Si O2"
_cell_formula_units_Z 96
_cell_length_a 28.366492
_cell_length_b 7.941864
_cell_length_c 18.670662
_cell_angle_alpha 90.000000
_cell_angle_beta 90.000000
_cell_angle_gamma 90.000000
_cell_volume 4206.179417
_symmetry_space_group_name_H-M "C M C A"
_symmetry_group_IT_number 64
_symmetry_cell_setting 'orthorhombic'
loop_
_space_group_symop_operation_xyz
x,y,z
-x,1/2-y,1/2+z
x,-y,-z
-x,1/2+y,1/2-z
-x,-y,-z
x,1/2+y,1/2-z
-x,y,z
x,1/2-y,1/2+z
1/2+x,1/2+y,z
1/2-x,-y,1/2+z
1/2+x,1/2-y,-z
1/2-x,y,1/2-z
1/2-x,1/2-y,-z
1/2+x,y,1/2-z
1/2-x,1/2+y,z
1/2+x,-y,1/2+z
loop_
_atom_site_type_symbol
_atom_site_label
_atom_site_fract_x
_atom_site_fract_y
_atom_site_fract_z
Si Si1 0.447837 0.987532 0.808328
Si Si2 0.307454 0.848679 0.365733
Si Si3 0.361214 0.669873 0.096190
Si Si4 0.288167 0.476027 0.419135
Si Si5 0.617243 0.770172 0.260119
Si Si6 0.447562 0.330464 0.458435
O O1 0.500000 0.918544 0.792284
O O2 0.404906 0.858486 0.817186
O O3 0.426076 0.100085 0.745764
O O4 0.451869 0.102794 0.877427
O O5 0.306759 0.658794 0.395565
O O6 0.333810 0.840362 0.289403
O O7 0.336884 0.988690 0.409448
O O8 0.254218 0.916540 0.367871
O O9 0.374511 0.696752 0.180680
O O10 0.406955 0.693289 0.046487
O O11 0.326476 0.826688 0.079760
O O12 0.269347 0.500000 0.500000
O O13 0.433304 0.500000 0.500000
O O14 0.500000 0.278758 0.483994
#
# Coordination Sequence:
#
# PCOD9479156 Si02
#       6
#    16  16  16  16  16  16
#     4  10  20  37  64  94 132 176 217 274 333 402
#     4  12  25  44  67  96 136 178 226 289 340 409
#     4  11  24  43  67 100 136 177 226 285 343 414
#     4  12  27  48  70  97 131 182 236 286 344 410
#     4  11  22  42  60  98 136 171 223 274 343 411
#     4   9  19  39  67 100 136 177 224 280 344 407
#
# _framework density 22.823563
#
# number of rings (size 3 to 8) (size 9 to 14) (size 15 to 20)
#    0.000    1.167    3.333    3.500    0.000    1.333 
#    0.000    0.000    0.000    1.000    0.000    7.000 
#    0.000    0.000    0.000    0.000    0.000    0.000 
#
# Total GULP energy -267867.108427 kJ/mol
# GULP energy per Si atom -5580.564759 kJ/mol
# Density = 2.277162 g / cm^3
# Si number density = 22.823563 Si / 1000 Ang^3
#
#
#
# Elastic Constant Matrix: (Units=GPa)
#
#
# Indices 1 2 3 4 5 6 
#
# 1 107.8998 24.6867 23.3036 0.0000 0.0000 0.0000
# 2 24.6867 86.2742 3.5477 0.0000 0.0000 0.0000
# 3 23.3036 3.5477 34.5904 0.0000 0.0000 0.0000
# 4 0.0000 0.0000 0.0000 17.0157 0.0000 0.0000
# 5 0.0000 0.0000 0.0000 0.0000 -57.9555 0.0000
# 6 0.0000 0.0000 0.0000 0.0000 0.0000 29.4070
#
#
#
# Elastic Compliance Matrix: (Units=1/GPa)
#
#
# Indices 1 2 3 4 5 6 
#
# 1 0.011572 -0.003003 -0.007488 0.000000 0.000000 0.000000
# 2 -0.003003 0.012420 0.000750 0.000000 0.000000 0.000000
# 3 -0.007488 0.000750 0.033878 0.000000 0.000000 0.000000
# 4 0.000000 0.000000 0.000000 0.058769 0.000000 0.000000
# 5 0.000000 0.000000 0.000000 0.000000 -0.017255 0.000000
# 6 0.000000 0.000000 0.000000 0.000000 0.000000 0.034006
#
#
# Mechanical properties :
#
#
# Convention : Reuss Voigt Hill
#
# Bulk Modulus (GPa) = 26.05150 36.87115 31.46133
# Shear Modulus (GPa) = 30.18068 9.50851 19.84459
#
# Velocity S-wave (km/s) = 3.64035 2.04332 2.95189
# Velocity P-wave (km/s) = 5.39524 4.66442 5.04309
#
# Compressibility (1/GPa) = 0.03838550
#
# Stress axis : x y z
#
# Youngs Moduli (GPa) = 86.41347 80.51834 29.51793
#
# Poissons Ratio (x) = 0.24183 0.22104
# Poissons Ratio (y) = 0.25953 -0.02213
# Poissons Ratio (z) = 0.64708 -0.06036
#
# Static dielectric constant tensor:
#      x y z
#    x 1.878630 0.000000 0.000000 
#    y 0.000000 2.443560 0.000000 
#    z 0.000000 0.000000 1.853470 
# 
# From -- ./inp_files/41774.got.cif
#   From: 2010.05.17/outbox.cif.g08.bks.cpg/sg64_21_cif.got.tgz:41774.got - 2010.06.03 16:29:19.
