data_PCOD9479266
_publ_section_title
;
Structure prediction by ZEFSAII (Michael W. Deem and Ramdas Pophale) SiO2 
 PCOD9479266
Probable space group: C M C A
;
_chemical_formula_sum "Si O2"
_cell_formula_units_Z 96
_cell_length_a 14.746840
_cell_length_b 18.970806
_cell_length_c 16.003387
_cell_angle_alpha 90.000000
_cell_angle_beta 90.000000
_cell_angle_gamma 90.000000
_cell_volume 4477.098597
_symmetry_space_group_name_H-M "C M C A"
_symmetry_group_IT_number 64
_symmetry_cell_setting 'orthorhombic'
loop_
_space_group_symop_operation_xyz
x,y,z
-x,1/2-y,1/2+z
x,-y,-z
-x,1/2+y,1/2-z
-x,-y,-z
x,1/2+y,1/2-z
-x,y,z
x,1/2-y,1/2+z
1/2+x,1/2+y,z
1/2-x,-y,1/2+z
1/2+x,1/2-y,-z
1/2-x,y,1/2-z
1/2-x,1/2-y,-z
1/2+x,y,1/2-z
1/2-x,1/2+y,z
1/2+x,-y,1/2+z
loop_
_atom_site_type_symbol
_atom_site_label
_atom_site_fract_x
_atom_site_fract_y
_atom_site_fract_z
Si Si1 0.103781 0.732581 0.723047
Si Si2 0.330069 0.401522 0.314258
Si Si3 0.394754 0.373903 0.795648
Si Si4 0.397447 0.549135 0.382077
Si Si5 0.787310 0.193089 0.936353
Si Si6 0.204005 0.571184 0.451526
O O1 0.111497 0.655083 0.762729
O O2 0.139326 0.793166 0.785861
O O3 0.155183 0.730068 0.635695
O O4 0.000000 0.751292 0.708008
O O5 0.250000 0.424677 0.250000
O O6 0.379449 0.468648 0.352739
O O7 0.285249 0.354656 0.386903
O O8 0.500000 0.374297 0.823362
O O9 0.391343 0.405536 0.702781
O O10 0.336560 0.419987 0.859310
O O11 0.500000 0.556559 0.416233
O O12 0.313663 0.572058 0.440438
O O13 0.750000 0.250000 0.000000
O O14 0.835623 0.135398 0.994575
O O15 0.180965 0.500000 0.500000
#
# Coordination Sequence:
#
# PCOD9479266 Si02
#       6
#    16  16  16  16  16  16
#     4  10  22  42  66  93 123 163 219 272 319 387
#     4  10  20  38  62  90 122 165 220 267 318 387
#     4  10  23  42  67  94 128 175 221 266 324 395
#     4  11  23  41  65  92 126 177 228 270 320 390
#     4  11  23  39  63  92 125 169 207 260 331 390
#     4  12  24  41  63  97 138 170 212 273 338 396
#
# _framework density 21.442457999999998
#
# number of rings (size 3 to 8) (size 9 to 14) (size 15 to 20)
#    0.000    1.333    1.667    4.000    2.333    4.000 
#    0.000    1.667    0.000    0.000    0.000    1.167 
#    0.000    0.000    0.000    0.000    0.000    0.000 
#
# Total GULP energy -268289.295471 kJ/mol
# GULP energy per Si atom -5589.360322 kJ/mol
# Density = 2.139365 g / cm^3
# Si number density = 21.442458 Si / 1000 Ang^3
#
#
#
# Elastic Constant Matrix: (Units=GPa)
#
#
# Indices 1 2 3 4 5 6 
#
# 1 77.5924 14.2210 21.6075 0.0000 0.0000 0.0000
# 2 14.2210 75.8623 12.3442 0.0000 0.0000 0.0000
# 3 21.6075 12.3442 80.9002 0.0000 0.0000 0.0000
# 4 0.0000 0.0000 0.0000 45.7949 0.0000 0.0000
# 5 0.0000 0.0000 0.0000 0.0000 2.3468 0.0000
# 6 0.0000 0.0000 0.0000 0.0000 0.0000 0.7141
#
#
#
# Elastic Compliance Matrix: (Units=1/GPa)
#
#
# Indices 1 2 3 4 5 6 
#
# 1 0.014243 -0.002103 -0.003483 0.000000 0.000000 0.000000
# 2 -0.002103 0.013828 -0.001548 0.000000 0.000000 0.000000
# 3 -0.003483 -0.001548 0.013527 0.000000 0.000000 0.000000
# 4 0.000000 0.000000 0.000000 0.021836 0.000000 0.000000
# 5 0.000000 0.000000 0.000000 0.000000 0.426107 0.000000
# 6 0.000000 0.000000 0.000000 0.000000 0.000000 1.400269
#
#
# Mechanical properties :
#
#
# Convention : Reuss Voigt Hill
#
# Bulk Modulus (GPa) = 36.59074 36.74449 36.66761
# Shear Modulus (GPa) = 2.61344 22.18333 12.39838
#
# Velocity S-wave (km/s) = 1.10520 3.21993 2.40722
# Velocity P-wave (km/s) = 4.32785 5.56754 4.98637
#
# Compressibility (1/GPa) = 0.02732932
#
# Stress axis : x y z
#
# Youngs Moduli (GPa) = 70.20825 72.31722 73.92354
#
# Poissons Ratio (x) = 0.15210 0.25750
# Poissons Ratio (y) = 0.14766 0.11445
# Poissons Ratio (z) = 0.24456 0.11196
#
# Static dielectric constant tensor:
#      x y z
#    x 1.752770 0.000000 0.000000 
#    y 0.000000 1.782340 0.000000 
#    z 0.000000 0.000000 1.730170 
# 
# From -- ./inp_files/23931.got.cif
#   From: 2010.05.17/outbox.cif.g08.bks.cpg/sg64_12_cif.got.tgz:23931.got - 2010.06.03 16:29:19.
