data_PCOD9479646
_publ_section_title
;
Structure prediction by ZEFSAII (Michael W. Deem and Ramdas Pophale) SiO2 
 PCOD9479646
Probable space group: C M C A
;
_chemical_formula_sum "Si O2"
_cell_formula_units_Z 112
_cell_length_a 16.481037
_cell_length_b 11.804409
_cell_length_c 25.061764
_cell_angle_alpha 90.000000
_cell_angle_beta 90.000000
_cell_angle_gamma 90.000000
_cell_volume 4875.738656
_symmetry_space_group_name_H-M "C M C A"
_symmetry_group_IT_number 64
_symmetry_cell_setting 'orthorhombic'
loop_
_space_group_symop_operation_xyz
x,y,z
-x,1/2-y,1/2+z
x,-y,-z
-x,1/2+y,1/2-z
-x,-y,-z
x,1/2+y,1/2-z
-x,y,z
x,1/2-y,1/2+z
1/2+x,1/2+y,z
1/2-x,-y,1/2+z
1/2+x,1/2-y,-z
1/2-x,y,1/2-z
1/2-x,1/2-y,-z
1/2+x,y,1/2-z
1/2-x,1/2+y,z
1/2+x,-y,1/2+z
loop_
_atom_site_type_symbol
_atom_site_label
_atom_site_fract_x
_atom_site_fract_y
_atom_site_fract_z
Si Si1 0.185419 0.834219 0.885953
Si Si2 0.161769 0.350363 0.031202
Si Si3 0.153520 0.682710 0.264983
Si Si4 0.841563 0.557956 0.552690
Si Si5 0.132688 0.715135 0.090182
Si Si6 0.656983 0.933984 0.231076
Si Si7 0.588486 0.516291 0.623321
O O1 0.146974 0.760439 0.933093
O O2 0.146130 0.821140 0.828846
O O3 0.277894 0.790883 0.883898
O O4 0.183515 0.962587 0.905489
O O5 0.257045 0.384100 0.032485
O O6 0.114165 0.444463 0.064450
O O7 0.137812 0.327556 0.971038
O O8 0.250000 0.682094 0.250000
O O9 0.120933 0.558788 0.246106
O O10 0.123575 0.810575 0.249178
O O11 0.878776 0.500000 0.500000
O O12 0.891699 0.655008 0.582800
O O13 0.086514 0.619591 0.122514
O O14 0.750000 0.936352 0.250000
O O15 0.651109 0.937049 0.166708
O O16 0.500000 0.561683 0.637028
#
# Coordination Sequence:
#
# PCOD9479646 Si02
#       7
#    16  16  16  16  16  16  16
#     4  11  19  33  57  92 126 158 200 271 328 373
#     4  11  20  34  56  89 128 165 207 251 317 380
#     4  10  21  34  60  89 121 152 203 263 331 379
#     4  11  18  31  55  91 128 159 202 272 325 353
#     4  11  21  32  56  90 129 166 211 254 313 376
#     4  10  22  41  63  93 121 157 210 267 324 378
#     4  12  25  42  61  88 128 170 210 253 313 393
#
# _framework density 22.970879
#
# number of rings (size 3 to 8) (size 9 to 14) (size 15 to 20)
#    0.000    1.143    5.714    3.000    0.000    3.429 
#    0.000    0.714    0.000    1.286    0.000    0.000 
#    0.000    0.000    0.000    0.000    0.000    0.000 
#
# Total GULP energy -312473.580197 kJ/mol
# GULP energy per Si atom -5579.885361 kJ/mol
# Density = 2.291860 g / cm^3
# Si number density = 22.970879 Si / 1000 Ang^3
#
#
#
# Elastic Constant Matrix: (Units=GPa)
#
#
# Indices 1 2 3 4 5 6 
#
# 1 23.0573 -6.2521 0.5437 0.0000 0.0000 0.0000
# 2 -6.2521 190.8523 21.4974 0.0000 0.0000 0.0000
# 3 0.5437 21.4974 67.5060 0.0000 0.0000 0.0000
# 4 0.0000 0.0000 0.0000 30.0025 0.0000 0.0000
# 5 0.0000 0.0000 0.0000 0.0000 -45.0570 0.0000
# 6 0.0000 0.0000 0.0000 0.0000 0.0000 -3.8663
#
#
#
# Elastic Compliance Matrix: (Units=1/GPa)
#
#
# Indices 1 2 3 4 5 6 
#
# 1 0.043805 0.001530 -0.000840 0.000000 0.000000 0.000000
# 2 0.001530 0.005488 -0.001760 0.000000 0.000000 0.000000
# 3 -0.000840 -0.001760 0.015381 0.000000 0.000000 0.000000
# 4 0.000000 0.000000 0.000000 0.033331 0.000000 0.000000
# 5 0.000000 0.000000 0.000000 0.000000 -0.022194 0.000000
# 6 0.000000 0.000000 0.000000 0.000000 0.000000 -0.258646
#
#
# Mechanical properties :
#
#
# Convention : Reuss Voigt Hill
#
# Bulk Modulus (GPa) = 15.99159 34.77708 25.38434
# Shear Modulus (GPa) = -31.27903 13.92427 -8.67738
#
# Velocity S-wave (km/s) = -3.69410 2.46472 -1.94570
# Velocity P-wave (km/s) = 3.34938 4.82414 2.45499
#
# Compressibility (1/GPa) = 0.06253288
#
# Stress axis : x y z
#
# Youngs Moduli (GPa) = 22.82856 182.21559 65.01642
#
# Poissons Ratio (x) = -0.27872 0.05461
# Poissons Ratio (y) = -0.03492 0.11443
# Poissons Ratio (z) = 0.01917 0.32070
#
# Static dielectric constant tensor:
#      x y z
#    x 1.832220 0.000000 0.000000 
#    y 0.000000 1.984670 0.000000 
#    z 0.000000 0.000000 1.850690 
# 
# From -- ./inp_files/46340.got.cif
#   From: 2010.05.17/outbox.cif.g08.bks.cpg/sg64_24_cif.got.tgz:46340.got - 2010.06.03 16:29:19.
