data_PCOD9479757
_publ_section_title
;
Structure prediction by ZEFSAII (Michael W. Deem and Ramdas Pophale) SiO2 
 PCOD9479757
Probable space group: C M C A
;
_chemical_formula_sum "Si O2"
_cell_formula_units_Z 96
_cell_length_a 8.750050
_cell_length_b 29.486954
_cell_length_c 20.831646
_cell_angle_alpha 90.000000
_cell_angle_beta 90.000000
_cell_angle_gamma 90.000000
_cell_volume 5374.821352
_symmetry_space_group_name_H-M "C M C A"
_symmetry_group_IT_number 64
_symmetry_cell_setting 'orthorhombic'
loop_
_space_group_symop_operation_xyz
x,y,z
-x,1/2-y,1/2+z
x,-y,-z
-x,1/2+y,1/2-z
-x,-y,-z
x,1/2+y,1/2-z
-x,y,z
x,1/2-y,1/2+z
1/2+x,1/2+y,z
1/2-x,-y,1/2+z
1/2+x,1/2-y,-z
1/2-x,y,1/2-z
1/2-x,1/2-y,-z
1/2+x,y,1/2-z
1/2-x,1/2+y,z
1/2+x,-y,1/2+z
loop_
_atom_site_type_symbol
_atom_site_label
_atom_site_fract_x
_atom_site_fract_y
_atom_site_fract_z
Si Si1 0.183977 0.027932 0.563674
Si Si2 0.317587 0.723068 0.938892
Si Si3 0.317191 0.128799 0.978677
Si Si4 0.183081 0.222379 0.180284
Si Si5 0.183769 0.625086 0.378521
Si Si6 0.682690 0.528315 0.180301
O O1 0.222527 0.080562 0.553074
O O2 0.000000 0.024121 0.568701
O O3 0.231259 0.000000 0.500000
O O4 0.257992 0.005834 0.626035
O O5 0.500000 0.726091 0.940618
O O6 0.263782 0.671285 0.945620
O O7 0.253305 0.745973 0.874694
O O8 0.250000 0.750000 0.000000
O O9 0.500000 0.134686 0.975960
O O10 0.264786 0.127128 0.052715
O O11 0.250000 0.232706 0.250000
O O12 0.220562 0.170357 0.161124
O O13 0.000000 0.227029 0.180458
O O14 0.228300 0.579220 0.341750
O O15 0.000000 0.624304 0.388734
O O16 0.500000 0.526723 0.183110
O O17 0.750000 0.518303 0.250000
#
# Coordination Sequence:
#
# PCOD9479757 Si02
#       6
#    16  16  16  16  16  16
#     4  10  21  39  61  88 120 157 198 246 298 355
#     4  12  24  40  62  89 122 159 202 249 299 356
#     4  11  22  37  62  91 120 156 200 248 300 354
#     4  11  23  40  61  89 124 162 202 246 301 359
#     4  10  21  36  58  89 124 159 196 244 299 359
#     4  11  23  38  59  88 123 163 202 246 300 357
#
# _framework density 17.861058
#
# number of rings (size 3 to 8) (size 9 to 14) (size 15 to 20)
#    0.000    1.167    3.333    3.500    0.000    3.000 
#    0.000    0.833    0.000    4.000    0.000    0.000 
#    0.000    0.000    0.000    0.000    0.000    0.000 
#
# Total GULP energy -268397.153284 kJ/mol
# GULP energy per Si atom -5591.607360 kJ/mol
# Density = 1.782041 g / cm^3
# Si number density = 17.861058 Si / 1000 Ang^3
#
#
#
# Elastic Constant Matrix: (Units=GPa)
#
#
# Indices 1 2 3 4 5 6 
#
# 1 71.2137 64.7313 69.6562 0.0000 0.0000 0.0000
# 2 64.7313 144.2611 96.1201 0.0000 0.0000 0.0000
# 3 69.6562 96.1201 187.2767 0.0000 0.0000 0.0000
# 4 0.0000 0.0000 0.0000 18.5293 0.0000 0.0000
# 5 0.0000 0.0000 0.0000 0.0000 35.2225 0.0000
# 6 0.0000 0.0000 0.0000 0.0000 0.0000 27.1129
#
#
#
# Elastic Compliance Matrix: (Units=1/GPa)
#
#
# Indices 1 2 3 4 5 6 
#
# 1 0.027429 -0.008374 -0.005904 0.000000 0.000000 0.000000
# 2 -0.008374 0.013091 -0.003604 0.000000 0.000000 0.000000
# 3 -0.005904 -0.003604 0.009386 0.000000 0.000000 0.000000
# 4 0.000000 0.000000 0.000000 0.053969 0.000000 0.000000
# 5 0.000000 0.000000 0.000000 0.000000 0.028391 0.000000
# 6 0.000000 0.000000 0.000000 0.000000 0.000000 0.036883
#
#
# Mechanical properties :
#
#
# Convention : Reuss Voigt Hill
#
# Bulk Modulus (GPa) = 70.71709 95.97407 83.34558
# Shear Modulus (GPa) = 23.85211 27.65586 25.75398
#
# Velocity S-wave (km/s) = 3.65831 3.93923 3.80136
# Velocity P-wave (km/s) = 7.58440 8.63368 8.12599
#
# Compressibility (1/GPa) = 0.01414085
#
# Stress axis : x y z
#
# Youngs Moduli (GPa) = 36.45830 76.38990 106.54614
#
# Poissons Ratio (x) = 0.63966 0.62906
# Poissons Ratio (y) = 0.30529 0.38403
# Poissons Ratio (z) = 0.21525 0.27534
#
# Static dielectric constant tensor:
#      x y z
#    x 1.597420 0.000000 0.000000 
#    y 0.000000 1.602840 0.000000 
#    z 0.000000 0.000000 1.566620 
# 
# From -- ./inp_files/37020.got.cif
#   From: 2010.05.17/outbox.cif.g08.bks.cpg/sg64_19_cif.got.tgz:37020.got - 2010.06.03 16:29:19.
