data_PCOD9479092
_publ_section_title
;
Structure prediction by ZEFSAII (Michael W. Deem and Ramdas Pophale) SiO2 
 PCOD9479092
Probable space group: C M C A
;
_chemical_formula_sum "Si O2"
_cell_formula_units_Z 80
_cell_length_a 17.714785
_cell_length_b 9.813303
_cell_length_c 25.276061
_cell_angle_alpha 90.000000
_cell_angle_beta 90.000000
_cell_angle_gamma 90.000000
_cell_volume 4394.004416
_symmetry_space_group_name_H-M "C M C A"
_symmetry_group_IT_number 64
_symmetry_cell_setting 'orthorhombic'
loop_
_space_group_symop_operation_xyz
x,y,z
-x,1/2-y,1/2+z
x,-y,-z
-x,1/2+y,1/2-z
-x,-y,-z
x,1/2+y,1/2-z
-x,y,z
x,1/2-y,1/2+z
1/2+x,1/2+y,z
1/2-x,-y,1/2+z
1/2+x,1/2-y,-z
1/2-x,y,1/2-z
1/2-x,1/2-y,-z
1/2+x,y,1/2-z
1/2-x,1/2+y,z
1/2+x,-y,1/2+z
loop_
_atom_site_type_symbol
_atom_site_label
_atom_site_fract_x
_atom_site_fract_y
_atom_site_fract_z
Si Si1 0.912085 0.483038 0.246930
Si Si2 0.678449 0.717364 0.212081
Si Si3 0.272134 0.315169 0.113223
Si Si4 0.086417 0.339542 0.860786
Si Si5 0.196775 0.558453 0.058282
O O1 0.869681 0.579035 0.288893
O O2 0.870925 0.340809 0.235846
O O3 0.907151 0.572430 0.192669
O O4 0.000000 0.461398 0.259493
O O5 0.750000 0.691397 0.250000
O O6 0.711709 0.765936 0.156376
O O7 0.354501 0.285788 0.138508
O O8 0.251475 0.462926 0.092974
O O9 0.271359 0.211130 0.063671
O O10 0.117925 0.431000 0.909386
O O11 0.000000 0.298872 0.867616
O O12 0.189308 0.500000 0.000000
#
# Coordination Sequence:
#
# PCOD9479092 Si02
#       5
#    16  16  16  16  16
#     4  11  23  37  55  83 117 148 182 230 279 332
#     4  12  21  36  58  82 113 150 190 222 274 337
#     4  10  21  36  58  86 110 147 191 234 277 335
#     4   9  20  36  56  82 116 147 183 228 280 335
#     4  10  20  37  61  86 110 146 195 241 283 330
#
# _framework density 18.206627000000001
#
# number of rings (size 3 to 8) (size 9 to 14) (size 15 to 20)
#    1.200    0.400    4.000    1.800    2.800    0.400 
#    0.000    0.000    0.000    1.800    0.000    0.000 
#    0.000    0.000    0.000    0.000    0.000    0.000 
#
# Total GULP energy -223002.797303 kJ/mol
# GULP energy per Si atom -5575.069933 kJ/mol
# Density = 1.816519 g / cm^3
# Si number density = 18.206627 Si / 1000 Ang^3
#
#
#
# Elastic Constant Matrix: (Units=GPa)
#
#
# Indices 1 2 3 4 5 6 
#
# 1 130.3222 40.8366 9.0513 0.0000 0.0000 0.0000
# 2 40.8366 67.9711 -13.0677 0.0000 0.0000 0.0000
# 3 9.0513 -13.0677 40.4691 0.0000 0.0000 0.0000
# 4 0.0000 0.0000 0.0000 25.1690 0.0000 0.0000
# 5 0.0000 0.0000 0.0000 0.0000 2.3404 0.0000
# 6 0.0000 0.0000 0.0000 0.0000 0.0000 22.0821
#
#
#
# Elastic Compliance Matrix: (Units=1/GPa)
#
#
# Indices 1 2 3 4 5 6 
#
# 1 0.010177 -0.006985 -0.004532 0.000000 0.000000 0.000000
# 2 -0.006985 0.020481 0.008176 0.000000 0.000000 0.000000
# 3 -0.004532 0.008176 0.028364 0.000000 0.000000 0.000000
# 4 0.000000 0.000000 0.000000 0.039731 0.000000 0.000000
# 5 0.000000 0.000000 0.000000 0.000000 0.427278 0.000000
# 6 0.000000 0.000000 0.000000 0.000000 0.000000 0.045285
#
#
# Mechanical properties :
#
#
# Convention : Reuss Voigt Hill
#
# Bulk Modulus (GPa) = 19.10647 34.71142 26.90895
# Shear Modulus (GPa) = 8.39707 23.38113 15.88910
#
# Velocity S-wave (km/s) = 2.14991 3.58748 2.95737
# Velocity P-wave (km/s) = 4.08410 6.02218 5.14521
#
# Compressibility (1/GPa) = 0.05233828
#
# Stress axis : x y z
#
# Youngs Moduli (GPa) = 98.26129 48.82626 35.25627
#
# Poissons Ratio (x) = 0.34108 0.15977
# Poissons Ratio (y) = 0.68640 -0.28825
# Poissons Ratio (z) = 0.44530 -0.39919
#
# Static dielectric constant tensor:
#      x y z
#    x 1.614060 0.000000 0.000000 
#    y 0.000000 1.621390 0.000000 
#    z 0.000000 0.000000 1.636440 
# 
# From -- ./inp_files/44943.got.cif
#   From: 2010.05.17/outbox.cif.g08.bks.cpg/sg64_23_cif.got.tgz:44943.got - 2010.06.03 16:29:19.
