data_PCOD9479389
_publ_section_title
;
Structure prediction by ZEFSAII (Michael W. Deem and Ramdas Pophale) SiO2 
 PCOD9479389
Probable space group: C M C A
;
_chemical_formula_sum "Si O2"
_cell_formula_units_Z 116
_cell_length_a 25.616954
_cell_length_b 16.956737
_cell_length_c 13.458297
_cell_angle_alpha 90.000000
_cell_angle_beta 90.000000
_cell_angle_gamma 90.000000
_cell_volume 5846.014401
_symmetry_space_group_name_H-M "C M C A"
_symmetry_group_IT_number 64
_symmetry_cell_setting 'orthorhombic'
loop_
_space_group_symop_operation_xyz
x,y,z
-x,1/2-y,1/2+z
x,-y,-z
-x,1/2+y,1/2-z
-x,-y,-z
x,1/2+y,1/2-z
-x,y,z
x,1/2-y,1/2+z
1/2+x,1/2+y,z
1/2-x,-y,1/2+z
1/2+x,1/2-y,-z
1/2-x,y,1/2-z
1/2-x,1/2-y,-z
1/2+x,y,1/2-z
1/2-x,1/2+y,z
1/2+x,-y,1/2+z
loop_
_atom_site_type_symbol
_atom_site_label
_atom_site_fract_x
_atom_site_fract_y
_atom_site_fract_z
Si Si1 0.939186 0.461915 0.238134
Si Si2 0.943371 0.702280 0.143041
Si Si3 0.000000 0.000000 0.000000
Si Si4 0.316770 0.090508 0.458532
Si Si5 0.640035 0.606952 0.262886
Si Si6 0.090796 0.592067 0.967865
Si Si7 0.418398 0.371722 0.063534
Si Si8 0.200099 0.091161 0.467533
O O1 0.903364 0.538301 0.226462
O O2 0.934700 0.408977 0.139823
O O3 0.916838 0.416220 0.331582
O O4 0.000000 0.481106 0.259460
O O5 0.894917 0.684989 0.216618
O O6 0.940399 0.786635 0.090456
O O7 0.000000 0.693384 0.192641
O O8 0.938293 0.639859 0.053015
O O9 0.045468 0.070103 0.001460
O O10 0.331539 0.096819 0.342115
O O11 0.361877 0.136251 0.515957
O O12 0.258526 0.122888 0.477324
O O13 0.319558 0.000000 0.500000
O O14 0.680360 0.598014 0.354005
O O15 0.091308 0.500000 0.000000
O O16 0.150891 0.622107 0.968606
O O17 0.204537 0.000000 0.500000
#
# Coordination Sequence:
#
# PCOD9479389 Si02
#       8
#    16  16   4  16  16  16  16  16
#     4  12  21  36  59  88 124 166 209 256 320 387
#     4  11  23  41  62  94 130 167 214 269 317 386
#     4  12  20  48  60  76 132 172 206 248 306 374
#     4  11  22  38  64  95 124 169 218 263 323 391
#     4  11  21  38  62  96 124 165 214 266 329 388
#     4  10  20  39  63  91 121 165 213 262 323 377
#     4  12  25  42  62  93 128 172 217 259 317 393
#     4   9  18  37  62  94 126 159 214 275 318 380
#
# _framework density 19.842579000000001
#
# number of rings (size 3 to 8) (size 9 to 14) (size 15 to 20)
#    0.000    1.103    7.586    1.241    0.000    1.655 
#    1.241    4.828    0.000    3.310    0.000    0.000 
#    0.000    0.000    0.000    0.000    0.000    0.000 
#
# Total GULP energy -323062.039506 kJ/mol
# GULP energy per Si atom -5570.035164 kJ/mol
# Density = 1.979742 g / cm^3
# Si number density = 19.842579 Si / 1000 Ang^3
#
#
#
# Elastic Constant Matrix: (Units=GPa)
#
#
# Indices 1 2 3 4 5 6 
#
# 1 132.2939 24.4107 24.1655 0.0000 0.0000 0.0000
# 2 24.4107 65.9042 -0.6290 0.0000 0.0000 0.0000
# 3 24.1655 -0.6290 53.6077 0.0000 0.0000 0.0000
# 4 0.0000 0.0000 0.0000 15.5757 0.0000 0.0000
# 5 0.0000 0.0000 0.0000 0.0000 -12.6414 0.0000
# 6 0.0000 0.0000 0.0000 0.0000 0.0000 -0.1133
#
#
#
# Elastic Compliance Matrix: (Units=1/GPa)
#
#
# Indices 1 2 3 4 5 6 
#
# 1 0.008917 -0.003342 -0.004059 0.000000 0.000000 0.000000
# 2 -0.003342 0.016427 0.001699 0.000000 0.000000 0.000000
# 3 -0.004059 0.001699 0.020504 0.000000 0.000000 0.000000
# 4 0.000000 0.000000 0.000000 0.064203 0.000000 0.000000
# 5 0.000000 0.000000 0.000000 0.000000 -0.079105 0.000000
# 6 0.000000 0.000000 0.000000 0.000000 0.000000 -8.826512
#
#
# Mechanical properties :
#
#
# Convention : Reuss Voigt Hill
#
# Bulk Modulus (GPa) = 29.03142 38.63335 33.83238
# Shear Modulus (GPa) = -0.56995 14.15477 6.79241
#
# Velocity S-wave (km/s) = -0.53653 2.67377 1.85218
# Velocity P-wave (km/s) = 3.77873 5.38927 4.65419
#
# Compressibility (1/GPa) = 0.03444544
#
# Stress axis : x y z
#
# Youngs Moduli (GPa) = 112.14657 60.87373 48.77185
#
# Poissons Ratio (x) = 0.20341 0.19796
# Poissons Ratio (y) = 0.37474 -0.08287
# Poissons Ratio (z) = 0.45518 -0.10343
#
# Static dielectric constant tensor:
#      x y z
#    x 1.719340 0.000000 0.000000 
#    y 0.000000 1.726530 0.000000 
#    z 0.000000 0.000000 1.714460 
# 
# From -- ./inp_files/27578.got.cif
#   From: 2010.05.17/outbox.cif.g08.bks.cpg/sg64_14_cif.got.tgz:27578.got - 2010.06.03 16:29:19.
