data_PCOD9479335
_publ_section_title
;
Structure prediction by ZEFSAII (Michael W. Deem and Ramdas Pophale) SiO2 
 PCOD9479335
Probable space group: C M C A
;
_chemical_formula_sum "Si O2"
_cell_formula_units_Z 96
_cell_length_a 16.717888
_cell_length_b 14.378928
_cell_length_c 19.446610
_cell_angle_alpha 90.000000
_cell_angle_beta 90.000000
_cell_angle_gamma 90.000000
_cell_volume 4674.679332
_symmetry_space_group_name_H-M "C M C A"
_symmetry_group_IT_number 64
_symmetry_cell_setting 'orthorhombic'
loop_
_space_group_symop_operation_xyz
x,y,z
-x,1/2-y,1/2+z
x,-y,-z
-x,1/2+y,1/2-z
-x,-y,-z
x,1/2+y,1/2-z
-x,y,z
x,1/2-y,1/2+z
1/2+x,1/2+y,z
1/2-x,-y,1/2+z
1/2+x,1/2-y,-z
1/2-x,y,1/2-z
1/2-x,1/2-y,-z
1/2+x,y,1/2-z
1/2-x,1/2+y,z
1/2+x,-y,1/2+z
loop_
_atom_site_type_symbol
_atom_site_label
_atom_site_fract_x
_atom_site_fract_y
_atom_site_fract_z
Si Si1 0.595652 0.524425 0.222643
Si Si2 0.093229 0.222708 0.457088
Si Si3 0.336796 0.843872 0.345523
Si Si4 0.595404 0.028358 0.114935
Si Si5 0.339537 0.163404 0.906534
Si Si6 0.907737 0.236347 0.219660
O O1 0.500000 0.507148 0.215080
O O2 0.643280 0.447129 0.180695
O O3 0.614409 0.519998 0.303986
O O4 0.613029 0.630339 0.201395
O O5 0.106744 0.309604 0.407308
O O6 0.146567 0.222950 0.525233
O O7 0.000000 0.215261 0.476885
O O8 0.115178 0.130098 0.413643
O O9 0.247914 0.832684 0.374042
O O10 0.354212 0.777749 0.280336
O O11 0.500000 0.017155 0.107146
O O12 0.638116 0.943176 0.077579
O O13 0.398422 0.200200 0.847097
O O14 0.000000 0.236526 0.244325
#
# Coordination Sequence:
#
# PCOD9479335 Si02
#       6
#    16  16  16  16  16  16
#     4  10  21  39  66  95 122 162 218 267 313 379
#     4  11  23  43  69  95 128 175 221 266 315 381
#     4  12  24  41  63  96 134 167 209 264 333 383
#     4  10  20  38  66  95 124 164 217 269 315 372
#     4  12  25  39  60  98 135 170 209 267 330 381
#     4  11  22  41  65  91 125 172 221 266 313 383
#
# _framework density 20.536169000000001
#
# number of rings (size 3 to 8) (size 9 to 14) (size 15 to 20)
#    0.000    1.000    3.333    4.500    0.000    2.667 
#    3.000    2.500    0.000    3.000    0.000    0.000 
#    0.000    0.000    0.000    0.000    0.000    0.000 
#
# Total GULP energy -268512.910553 kJ/mol
# GULP energy per Si atom -5594.018970 kJ/mol
# Density = 2.048943 g / cm^3
# Si number density = 20.536169 Si / 1000 Ang^3
#
#
#
# Elastic Constant Matrix: (Units=GPa)
#
#
# Indices 1 2 3 4 5 6 
#
# 1 60.8364 39.6927 43.3743 0.0000 0.0000 0.0000
# 2 39.6927 95.3545 31.3608 0.0000 0.0000 0.0000
# 3 43.3743 31.3608 100.8033 0.0000 0.0000 0.0000
# 4 0.0000 0.0000 0.0000 27.0705 0.0000 0.0000
# 5 0.0000 0.0000 0.0000 0.0000 32.6438 0.0000
# 6 0.0000 0.0000 0.0000 0.0000 0.0000 -65.4938
#
#
#
# Elastic Compliance Matrix: (Units=1/GPa)
#
#
# Indices 1 2 3 4 5 6 
#
# 1 0.029279 -0.008961 -0.009810 0.000000 0.000000 0.000000
# 2 -0.008961 0.014425 -0.000632 0.000000 0.000000 0.000000
# 3 -0.009810 -0.000632 0.014338 0.000000 0.000000 0.000000
# 4 0.000000 0.000000 0.000000 0.036941 0.000000 0.000000
# 5 0.000000 0.000000 0.000000 0.000000 0.030634 0.000000
# 6 0.000000 0.000000 0.000000 0.000000 0.000000 -0.015269
#
#
# Mechanical properties :
#
#
# Convention : Reuss Voigt Hill
#
# Bulk Modulus (GPa) = 51.98808 53.98332 52.98570
# Shear Modulus (GPa) = 32.14058 8.34851 20.24455
#
# Velocity S-wave (km/s) = 3.96039 2.01844 3.14315
# Velocity P-wave (km/s) = 6.80318 5.63703 6.24738
#
# Compressibility (1/GPa) = 0.01923518
#
# Stress axis : x y z
#
# Youngs Moduli (GPa) = 34.15449 69.32280 69.74389
#
# Poissons Ratio (x) = 0.62122 0.68421
# Poissons Ratio (y) = 0.30607 0.04407
# Poissons Ratio (z) = 0.33507 0.04381
#
# Static dielectric constant tensor:
#      x y z
#    x 1.732940 0.000000 0.000000 
#    y 0.000000 1.735580 0.000000 
#    z 0.000000 0.000000 1.719340 
# 
# From -- ./inp_files/39194.got.cif
#   From: 2010.05.17/outbox.cif.g08.bks.cpg/sg64_20_cif.got.tgz:39194.got - 2010.06.03 16:29:19.
