data_PCOD9479999
_publ_section_title
;
Structure prediction by ZEFSAII (Michael W. Deem and Ramdas Pophale) SiO2 
 PCOD9479999
Probable space group: C M C A
;
_chemical_formula_sum "Si O2"
_cell_formula_units_Z 56
_cell_length_a 10.559071
_cell_length_b 15.240986
_cell_length_c 16.945009
_cell_angle_alpha 90.000000
_cell_angle_beta 90.000000
_cell_angle_gamma 90.000000
_cell_volume 2726.971368
_symmetry_space_group_name_H-M "C M C A"
_symmetry_group_IT_number 64
_symmetry_cell_setting 'orthorhombic'
loop_
_space_group_symop_operation_xyz
x,y,z
-x,1/2-y,1/2+z
x,-y,-z
-x,1/2+y,1/2-z
-x,-y,-z
x,1/2+y,1/2-z
-x,y,z
x,1/2-y,1/2+z
1/2+x,1/2+y,z
1/2-x,-y,1/2+z
1/2+x,1/2-y,-z
1/2-x,y,1/2-z
1/2-x,1/2-y,-z
1/2+x,y,1/2-z
1/2-x,1/2+y,z
1/2+x,-y,1/2+z
loop_
_atom_site_type_symbol
_atom_site_label
_atom_site_fract_x
_atom_site_fract_y
_atom_site_fract_z
Si Si1 0.142349 0.625877 0.976242
Si Si2 0.250000 0.876106 0.750000
Si Si3 0.141350 0.450966 0.193223
Si Si4 0.642604 0.824601 0.589172
O O1 0.166128 0.568905 0.898100
O O2 0.140886 0.726404 0.945235
O O3 0.000000 0.606535 0.006892
O O4 0.254488 0.621383 0.039111
O O5 0.313883 0.823134 0.679854
O O6 0.151367 0.945366 0.711489
O O7 0.250000 0.411655 0.250000
O O8 0.000000 0.418627 0.211597
O O9 0.500000 0.860840 0.583463
#
# Coordination Sequence:
#
# PCOD9479999 Si02
#       4
#    16   8  16  16
#     4   9  20  39  60  82 111 147 189 230 277 330
#     4  10  22  34  58  82 116 142 184 232 274 330
#     4   9  20  37  56  80 111 148 184 225 276 332
#     4  10  21  38  59  85 112 146 188 231 278 328
#
# _framework density 20.535602000000001
#
# number of rings (size 3 to 8) (size 9 to 14) (size 15 to 20)
#    0.857    1.714    0.000    0.857    2.000    4.571 
#    0.000    4.286    0.000    0.000    0.000    0.000 
#    0.000    0.000    0.000    0.000    0.000    0.000 
#
# Total GULP energy -156122.604212 kJ/mol
# GULP energy per Si atom -5575.807293 kJ/mol
# Density = 2.048886 g / cm^3
# Si number density = 20.535602 Si / 1000 Ang^3
#
#
#
# Elastic Constant Matrix: (Units=GPa)
#
#
# Indices 1 2 3 4 5 6 
#
# 1 183.6728 28.7499 103.0907 0.0000 0.0000 0.0000
# 2 28.7499 26.5688 10.5902 0.0000 0.0000 0.0000
# 3 103.0907 10.5902 104.6989 0.0000 0.0000 0.0000
# 4 0.0000 0.0000 0.0000 33.3108 0.0000 0.0000
# 5 0.0000 0.0000 0.0000 0.0000 33.9530 0.0000
# 6 0.0000 0.0000 0.0000 0.0000 0.0000 0.6060
#
#
#
# Elastic Compliance Matrix: (Units=1/GPa)
#
#
# Indices 1 2 3 4 5 6 
#
# 1 0.014493 -0.010414 -0.013217 0.000000 0.000000 0.000000
# 2 -0.010414 0.046703 0.005531 0.000000 0.000000 0.000000
# 3 -0.013217 0.005531 0.022006 0.000000 0.000000 0.000000
# 4 0.000000 0.000000 0.000000 0.030020 0.000000 0.000000
# 5 0.000000 0.000000 0.000000 0.000000 0.029453 0.000000
# 6 0.000000 0.000000 0.000000 0.000000 0.000000 1.650076
#
#
# Mechanical properties :
#
#
# Convention : Reuss Voigt Hill
#
# Bulk Modulus (GPa) = 21.27658 66.64468 43.96063
# Shear Modulus (GPa) = 2.71059 25.07461 13.89260
#
# Velocity S-wave (km/s) = 1.15014 3.49812 2.60381
# Velocity P-wave (km/s) = 3.48526 6.98852 5.52207
#
# Compressibility (1/GPa) = 0.04700003
#
# Stress axis : x y z
#
# Youngs Moduli (GPa) = 68.99926 21.41185 45.44287
#
# Poissons Ratio (x) = 0.22299 0.60061
# Poissons Ratio (y) = 0.71859 -0.25132
# Poissons Ratio (z) = 0.91195 -0.11842
#
# Static dielectric constant tensor:
#      x y z
#    x 1.737490 0.000000 0.000000 
#    y 0.000000 1.747720 0.000000 
#    z 0.000000 0.000000 1.702620 
# 
# From -- ./inp_files/30388.got.cif
#   From: 2010.05.17/outbox.cif.g08.bks.cpg/sg64_16_cif.got.tgz:30388.got - 2010.06.03 16:29:19.
