data_PCOD9479451
_publ_section_title
;
Structure prediction by ZEFSAII (Michael W. Deem and Ramdas Pophale) SiO2 
 PCOD9479451
Probable space group: C M C A
;
_chemical_formula_sum "Si O2"
_cell_formula_units_Z 104
_cell_length_a 25.319342
_cell_length_b 22.605512
_cell_length_c 9.063069
_cell_angle_alpha 90.000000
_cell_angle_beta 90.000000
_cell_angle_gamma 90.000000
_cell_volume 5187.308169
_symmetry_space_group_name_H-M "C M C A"
_symmetry_group_IT_number 64
_symmetry_cell_setting 'orthorhombic'
loop_
_space_group_symop_operation_xyz
x,y,z
-x,1/2-y,1/2+z
x,-y,-z
-x,1/2+y,1/2-z
-x,-y,-z
x,1/2+y,1/2-z
-x,y,z
x,1/2-y,1/2+z
1/2+x,1/2+y,z
1/2-x,-y,1/2+z
1/2+x,1/2-y,-z
1/2-x,y,1/2-z
1/2-x,1/2-y,-z
1/2+x,y,1/2-z
1/2-x,1/2+y,z
1/2+x,-y,1/2+z
loop_
_atom_site_type_symbol
_atom_site_label
_atom_site_fract_x
_atom_site_fract_y
_atom_site_fract_z
Si Si1 0.250000 0.811042 0.250000
Si Si2 0.941889 0.609801 0.706460
Si Si3 0.350520 0.042069 0.861625
Si Si4 0.250000 0.527789 0.250000
Si Si5 0.000000 0.209243 0.612220
Si Si6 0.772917 0.374966 0.978939
Si Si7 0.834172 0.279993 0.789726
Si Si8 0.596685 0.795221 0.519310
O O1 0.264000 0.848176 0.394659
O O2 0.201425 0.769275 0.290284
O O3 0.900079 0.562971 0.767070
O O4 0.954628 0.661452 0.827141
O O5 0.920143 0.645872 0.566879
O O6 0.000000 0.583476 0.674228
O O7 0.323069 0.099430 0.933032
O O8 0.302940 0.010330 0.772239
O O9 0.365281 0.000000 0.000000
O O10 0.247186 0.571008 0.391020
O O11 0.045862 0.256353 0.561425
O O12 0.795186 0.326144 0.867858
O O13 0.868856 0.245508 0.909679
O O14 0.870928 0.309307 0.667170
#
# Coordination Sequence:
#
# PCOD9479451 Si02
#       8
#     8  16  16   8   8  16  16  16
#     4  12  24  40  62  96 148 178 218 264 332 420
#     4  10  21  39  70  99 132 177 228 276 347 396
#     4  10  22  45  67  94 132 173 240 291 337 397
#     4  10  24  44  68  90 128 178 244 294 338 390
#     4  10  20  40  61  98 137 173 211 269 333 424
#     4  11  23  41  63  94 133 182 228 272 338 406
#     4  12  24  38  61  99 143 180 218 261 336 419
#     4  12  22  39  62  98 141 180 213 269 326 425
#
# _framework density 20.048936000000001
#
# number of rings (size 3 to 8) (size 9 to 14) (size 15 to 20)
#    0.462    0.615    3.846    3.231    2.154    0.308 
#    5.538    0.000    0.000    0.000    0.000    4.308 
#    0.000    0.000    0.000    0.000    0.000    0.000 
#
# Total GULP energy -289478.250160 kJ/mol
# GULP energy per Si atom -5566.889426 kJ/mol
# Density = 2.000330 g / cm^3
# Si number density = 20.048936 Si / 1000 Ang^3
#
#
#
# Elastic Constant Matrix: (Units=GPa)
#
#
# Indices 1 2 3 4 5 6 
#
# 1 105.8927 51.8021 72.2824 0.0000 0.0000 0.0000
# 2 51.8021 80.5746 50.3263 0.0000 0.0000 0.0000
# 3 72.2824 50.3263 92.3958 0.0000 0.0000 0.0000
# 4 0.0000 0.0000 0.0000 22.6945 0.0000 0.0000
# 5 0.0000 0.0000 0.0000 0.0000 20.3779 0.0000
# 6 0.0000 0.0000 0.0000 0.0000 0.0000 15.4218
#
#
#
# Elastic Compliance Matrix: (Units=1/GPa)
#
#
# Indices 1 2 3 4 5 6 
#
# 1 0.021534 -0.005035 -0.014104 0.000000 0.000000 0.000000
# 2 -0.005035 0.019988 -0.006948 0.000000 0.000000 0.000000
# 3 -0.014104 -0.006948 0.025641 0.000000 0.000000 0.000000
# 4 0.000000 0.000000 0.000000 0.044064 0.000000 0.000000
# 5 0.000000 0.000000 0.000000 0.000000 0.049073 0.000000
# 6 0.000000 0.000000 0.000000 0.000000 0.000000 0.064843
#
#
# Mechanical properties :
#
#
# Convention : Reuss Voigt Hill
#
# Bulk Modulus (GPa) = 66.71561 69.74274 68.22917
# Shear Modulus (GPa) = 17.71095 18.66232 18.18664
#
# Velocity S-wave (km/s) = 2.97541 3.05427 3.01510
# Velocity P-wave (km/s) = 6.71957 6.87749 6.79899
#
# Compressibility (1/GPa) = 0.01498900
#
# Stress axis : x y z
#
# Youngs Moduli (GPa) = 46.43843 50.03104 39.00056
#
# Poissons Ratio (x) = 0.25192 0.55005
# Poissons Ratio (y) = 0.23383 0.27096
# Poissons Ratio (z) = 0.65495 0.34760
#
# Static dielectric constant tensor:
#      x y z
#    x 1.709760 0.000000 0.000000 
#    y 0.000000 1.706110 0.000000 
#    z 0.000000 0.000000 1.748810 
# 
# From -- ./inp_files/10616.got.cif
#   From: 2010.05.17/outbox.cif.g08.bks.cpg/sg64_6_cif.got.tgz:10616.got - 2010.06.03 16:29:19.
