data_PCOD9479294
_publ_section_title
;
Structure prediction by ZEFSAII (Michael W. Deem and Ramdas Pophale) SiO2 
 PCOD9479294
Probable space group: C M C A
;
_chemical_formula_sum "Si O2"
_cell_formula_units_Z 72
_cell_length_a 7.700093
_cell_length_b 15.314898
_cell_length_c 24.804194
_cell_angle_alpha 90.000000
_cell_angle_beta 90.000000
_cell_angle_gamma 90.000000
_cell_volume 2925.062827
_symmetry_space_group_name_H-M "C M C A"
_symmetry_group_IT_number 64
_symmetry_cell_setting 'orthorhombic'
loop_
_space_group_symop_operation_xyz
x,y,z
-x,1/2-y,1/2+z
x,-y,-z
-x,1/2+y,1/2-z
-x,-y,-z
x,1/2+y,1/2-z
-x,y,z
x,1/2-y,1/2+z
1/2+x,1/2+y,z
1/2-x,-y,1/2+z
1/2+x,1/2-y,-z
1/2-x,y,1/2-z
1/2-x,1/2-y,-z
1/2+x,y,1/2-z
1/2-x,1/2+y,z
1/2+x,-y,1/2+z
loop_
_atom_site_type_symbol
_atom_site_label
_atom_site_fract_x
_atom_site_fract_y
_atom_site_fract_z
Si Si1 0.799441 0.299248 0.671055
Si Si2 0.250000 0.365447 0.250000
Si Si3 0.288605 0.472402 0.441224
Si Si4 0.797948 0.016015 0.324795
Si Si5 0.791783 0.724997 0.938929
O O1 0.799702 0.209112 0.705244
O O2 0.705647 0.384160 0.694738
O O3 0.723664 0.279783 0.611492
O O4 0.000000 0.325575 0.667046
O O5 0.308147 0.442073 0.207241
O O6 0.223703 0.500000 0.500000
O O7 0.500000 0.476669 0.443791
O O8 0.238822 0.521988 0.387052
O O9 0.233738 0.373702 0.431681
O O10 0.000000 0.984346 0.322555
O O11 0.000000 0.726843 0.933802
O O12 0.750000 0.750000 0.000000
#
# Coordination Sequence:
#
# PCOD9479294 Si02
#       5
#    16   8  16  16  16
#     4  11  25  44  66  97 137 178 221 278 341 404
#     4  12  24  42  68  94 134 176 224 278 326 394
#     4   9  17  34  62  92 125 166 214 267 324 390
#     4  11  24  43  68  99 130 173 230 279 331 397
#     4  10  20  38  63  94 132 171 218 274 335 400
#
# _framework density 24.614854999999999
#
# number of rings (size 3 to 8) (size 9 to 14) (size 15 to 20)
#    0.000    1.556    2.222    2.667    0.000    8.000 
#    0.000    1.111    0.000    4.000    0.000    0.000 
#    0.000    0.000    0.000    0.000    0.000    0.000 
#
# Total GULP energy -200426.332184 kJ/mol
# GULP energy per Si atom -5567.398116 kJ/mol
# Density = 2.455883 g / cm^3
# Si number density = 24.614855 Si / 1000 Ang^3
#
#
#
# Elastic Constant Matrix: (Units=GPa)
#
#
# Indices 1 2 3 4 5 6 
#
# 1 57.5085 16.4376 10.5690 0.0000 0.0000 0.0000
# 2 16.4376 187.4616 52.1051 0.0000 0.0000 0.0000
# 3 10.5690 52.1051 195.3738 0.0000 0.0000 0.0000
# 4 0.0000 0.0000 0.0000 47.8963 0.0000 0.0000
# 5 0.0000 0.0000 0.0000 0.0000 -175.0129 0.0000
# 6 0.0000 0.0000 0.0000 0.0000 0.0000 -1.9464
#
#
#
# Elastic Compliance Matrix: (Units=1/GPa)
#
#
# Indices 1 2 3 4 5 6 
#
# 1 0.017899 -0.001404 -0.000594 0.000000 0.000000 0.000000
# 2 -0.001404 0.005872 -0.001490 0.000000 0.000000 0.000000
# 3 -0.000594 -0.001490 0.005548 0.000000 0.000000 0.000000
# 4 0.000000 0.000000 0.000000 0.020878 0.000000 0.000000
# 5 0.000000 0.000000 0.000000 0.000000 -0.005714 0.000000
# 6 0.000000 0.000000 0.000000 0.000000 0.000000 -0.513764
#
#
# Mechanical properties :
#
#
# Convention : Reuss Voigt Hill
#
# Bulk Modulus (GPa) = 44.75765 66.50748 55.63256
# Shear Modulus (GPa) = -10.99248 -1.73048 -6.36148
#
# Velocity S-wave (km/s) = -2.11553 -0.83937 -1.60935
# Velocity P-wave (km/s) = 3.50076 5.11258 4.38143
#
# Compressibility (1/GPa) = 0.02234255
#
# Stress axis : x y z
#
# Youngs Moduli (GPa) = 55.86810 170.30784 180.24897
#
# Poissons Ratio (x) = 0.23919 0.10702
# Poissons Ratio (y) = 0.07847 0.26857
# Poissons Ratio (z) = 0.03317 0.25376
#
# Static dielectric constant tensor:
#      x y z
#    x 1.962390 0.000000 0.000000 
#    y 0.000000 1.918840 0.000000 
#    z 0.000000 0.000000 2.018210 
# 
# From -- ./inp_files/47637.got.cif
#   From: 2010.05.17/outbox.cif.g08.bks.cpg/sg64_24_cif.got.tgz:47637.got - 2010.06.03 16:29:19.
