data_PCOD9479090
_publ_section_title
;
Structure prediction by ZEFSAII (Michael W. Deem and Ramdas Pophale) SiO2 
 PCOD9479090
Probable space group: C M C A
;
_chemical_formula_sum "Si O2"
_cell_formula_units_Z 56
_cell_length_a 27.036029
_cell_length_b 17.367445
_cell_length_c 4.914477
_cell_angle_alpha 90.000000
_cell_angle_beta 90.000000
_cell_angle_gamma 90.000000
_cell_volume 2307.576687
_symmetry_space_group_name_H-M "C M C A"
_symmetry_group_IT_number 64
_symmetry_cell_setting 'orthorhombic'
loop_
_space_group_symop_operation_xyz
x,y,z
-x,1/2-y,1/2+z
x,-y,-z
-x,1/2+y,1/2-z
-x,-y,-z
x,1/2+y,1/2-z
-x,y,z
x,1/2-y,1/2+z
1/2+x,1/2+y,z
1/2-x,-y,1/2+z
1/2+x,1/2-y,-z
1/2-x,y,1/2-z
1/2-x,1/2-y,-z
1/2+x,y,1/2-z
1/2-x,1/2+y,z
1/2+x,-y,1/2+z
loop_
_atom_site_type_symbol
_atom_site_label
_atom_site_fract_x
_atom_site_fract_y
_atom_site_fract_z
Si Si1 0.338615 0.913114 0.408884
Si Si2 0.750000 0.191308 0.750000
Si Si3 0.895532 0.194680 0.257459
Si Si4 0.947624 0.413789 0.392031
O O1 0.296679 0.866293 0.256181
O O2 0.350371 0.860847 0.675306
O O3 0.392681 0.914293 0.258958
O O4 0.326082 0.000000 0.500000
O O5 0.750000 0.250000 0.500000
O O6 0.895142 0.233568 0.547496
O O7 0.941148 0.143474 0.149266
O O8 0.950761 0.500000 0.500000
O O9 0.000000 0.395827 0.250151
#
# Coordination Sequence:
#
# PCOD9479090 Si02
#       4
#    16   8  16  16
#     4   9  21  42  66  97 133 179 228 275 340 416
#     4  12  26  46  70 100 138 178 228 296 356 408
#     4  10  20  37  60  91 127 166 214 268 327 387
#     4   8  17  38  65  96 136 178 223 276 338 411
#
# _framework density 24.267880999999999
#
# number of rings (size 3 to 8) (size 9 to 14) (size 15 to 20)
#    1.714    0.857    0.000    1.714    0.000    2.286 
#    0.000    8.571    0.000    3.429    0.000    0.000 
#    0.000    0.000    0.000    0.000    0.000    0.000 
#
# Total GULP energy -156052.894742 kJ/mol
# GULP energy per Si atom -5573.317669 kJ/mol
# Density = 2.421265 g / cm^3
# Si number density = 24.267881 Si / 1000 Ang^3
#
#
#
# Elastic Constant Matrix: (Units=GPa)
#
#
# Indices 1 2 3 4 5 6 
#
# 1 213.7949 55.7753 14.8775 0.0000 0.0000 0.0000
# 2 55.7753 219.4136 28.0553 0.0000 0.0000 0.0000
# 3 14.8775 28.0553 45.7123 0.0000 0.0000 0.0000
# 4 0.0000 0.0000 0.0000 27.4886 0.0000 0.0000
# 5 0.0000 0.0000 0.0000 0.0000 16.5732 0.0000
# 6 0.0000 0.0000 0.0000 0.0000 0.0000 78.4634
#
#
#
# Elastic Compliance Matrix: (Units=1/GPa)
#
#
# Indices 1 2 3 4 5 6 
#
# 1 0.005046 -0.001164 -0.000928 0.000000 0.000000 0.000000
# 2 -0.001164 0.005214 -0.002821 0.000000 0.000000 0.000000
# 3 -0.000928 -0.002821 0.023909 0.000000 0.000000 0.000000
# 4 0.000000 0.000000 0.000000 0.036379 0.000000 0.000000
# 5 0.000000 0.000000 0.000000 0.000000 0.060338 0.000000
# 6 0.000000 0.000000 0.000000 0.000000 0.000000 0.012745
#
#
# Mechanical properties :
#
#
# Convention : Reuss Voigt Hill
#
# Bulk Modulus (GPa) = 41.07936 75.14855 58.11396
# Shear Modulus (GPa) = 30.94605 49.85257 40.39931
#
# Velocity S-wave (km/s) = 3.57485 4.53731 4.08453
# Velocity P-wave (km/s) = 5.83126 7.64742 6.80025
#
# Compressibility (1/GPa) = 0.02434312
#
# Stress axis : x y z
#
# Youngs Moduli (GPa) = 198.19245 191.78263 41.82450
#
# Poissons Ratio (x) = 0.22323 0.03880
# Poissons Ratio (y) = 0.23069 0.11800
# Poissons Ratio (z) = 0.18388 0.54108
#
# Static dielectric constant tensor:
#      x y z
#    x 2.047470 0.000000 0.000000 
#    y 0.000000 1.889830 0.000000 
#    z 0.000000 0.000000 2.002610 
# 
# From -- ./inp_files/3132.got.cif
#   From: 2010.05.17/outbox.cif.g08.bks.cpg/sg64_2_cif.got.tgz:3132.got - 2010.06.03 16:29:19.
