data_PCOD9479792
_publ_section_title
;
Structure prediction by ZEFSAII (Michael W. Deem and Ramdas Pophale) SiO2 
 PCOD9479792
Probable space group: C M C A
;
_chemical_formula_sum "Si O2"
_cell_formula_units_Z 88
_cell_length_a 10.758379
_cell_length_b 19.861640
_cell_length_c 21.265764
_cell_angle_alpha 90.000000
_cell_angle_beta 90.000000
_cell_angle_gamma 90.000000
_cell_volume 4544.048264
_symmetry_space_group_name_H-M "C M C A"
_symmetry_group_IT_number 64
_symmetry_cell_setting 'orthorhombic'
loop_
_space_group_symop_operation_xyz
x,y,z
-x,1/2-y,1/2+z
x,-y,-z
-x,1/2+y,1/2-z
-x,-y,-z
x,1/2+y,1/2-z
-x,y,z
x,1/2-y,1/2+z
1/2+x,1/2+y,z
1/2-x,-y,1/2+z
1/2+x,1/2-y,-z
1/2-x,y,1/2-z
1/2-x,1/2-y,-z
1/2+x,y,1/2-z
1/2-x,1/2+y,z
1/2+x,-y,1/2+z
loop_
_atom_site_type_symbol
_atom_site_label
_atom_site_fract_x
_atom_site_fract_y
_atom_site_fract_z
Si Si1 0.736515 0.827501 0.021251
Si Si2 0.000000 0.946506 0.282263
Si Si3 0.730355 0.347505 0.618311
Si Si4 0.250000 0.620390 0.750000
Si Si5 0.000000 0.667065 0.887298
Si Si6 0.500000 0.103555 0.196891
Si Si7 0.500000 0.183701 0.326361
Si Si8 0.140515 0.194772 0.862175
O O1 0.616041 0.831936 0.065078
O O2 0.845734 0.842400 0.070805
O O3 0.750000 0.750000 0.000000
O O4 0.731313 0.866442 0.955559
O O5 0.873336 0.923345 0.249915
O O6 0.000000 0.901374 0.346401
O O7 0.000000 0.026402 0.282654
O O8 0.627101 0.388093 0.657008
O O9 0.677187 0.271684 0.625641
O O10 0.871489 0.345568 0.644242
O O11 0.235862 0.666328 0.688727
O O12 0.000000 0.735765 0.844099
O O13 0.500000 0.158820 0.253609
O O14 0.000000 0.190822 0.838459
#
# Coordination Sequence:
#
# PCOD9479792 Si02
#       8
#    16   8  16   8   8   8   8  16
#     4  10  21  36  62  98 139 166 208 274 335 392
#     4  12  28  46  67  92 136 181 230 273 335 404
#     4  11  24  39  65  96 137 172 217 268 342 398
#     4  12  24  44  66  98 126 176 226 276 332 388
#     4  12  21  42  68 102 129 173 224 278 333 402
#     4  12  29  46  63  91 137 180 223 272 340 409
#     4  12  24  40  69 101 131 171 218 291 338 393
#     4  11  22  35  65 100 133 166 213 279 334 390
#
# _framework density 19.365991999999999
#
# number of rings (size 3 to 8) (size 9 to 14) (size 15 to 20)
#    0.000    0.727    7.273    1.091   12.727    0.000 
#    0.000    1.818    0.000    0.000    0.000    3.818 
#    0.000    0.000    0.000    0.000    0.000    0.000 
#
# Total GULP energy -245359.727723 kJ/mol
# GULP energy per Si atom -5576.357448 kJ/mol
# Density = 1.932191 g / cm^3
# Si number density = 19.365992 Si / 1000 Ang^3
#
#
#
# Elastic Constant Matrix: (Units=GPa)
#
#
# Indices 1 2 3 4 5 6 
#
# 1 122.4110 7.8889 15.9347 0.0000 0.0000 0.0000
# 2 7.8889 42.3435 16.2341 0.0000 0.0000 0.0000
# 3 15.9347 16.2341 108.4895 0.0000 0.0000 0.0000
# 4 0.0000 0.0000 0.0000 12.0894 0.0000 0.0000
# 5 0.0000 0.0000 0.0000 0.0000 35.1731 0.0000
# 6 0.0000 0.0000 0.0000 0.0000 0.0000 10.1942
#
#
#
# Elastic Compliance Matrix: (Units=1/GPa)
#
#
# Indices 1 2 3 4 5 6 
#
# 1 0.008381 -0.001156 -0.001058 0.000000 0.000000 0.000000
# 2 -0.001156 0.025213 -0.003603 0.000000 0.000000 0.000000
# 3 -0.001058 -0.003603 0.009912 0.000000 0.000000 0.000000
# 4 0.000000 0.000000 0.000000 0.082717 0.000000 0.000000
# 5 0.000000 0.000000 0.000000 0.000000 0.028431 0.000000
# 6 0.000000 0.000000 0.000000 0.000000 0.000000 0.098095
#
#
# Mechanical properties :
#
#
# Convention : Reuss Voigt Hill
#
# Bulk Modulus (GPa) = 31.37494 39.26216 35.31855
# Shear Modulus (GPa) = 18.18136 27.03709 22.60922
#
# Velocity S-wave (km/s) = 3.06736 3.74051 3.42053
# Velocity P-wave (km/s) = 5.36480 6.24284 5.82040
#
# Compressibility (1/GPa) = 0.03187257
#
# Stress axis : x y z
#
# Youngs Moduli (GPa) = 119.31139 39.66187 100.88728
#
# Poissons Ratio (x) = 0.04584 0.10675
# Poissons Ratio (y) = 0.13791 0.36350
# Poissons Ratio (z) = 0.12624 0.14290
#
# Static dielectric constant tensor:
#      x y z
#    x 1.997830 0.000000 0.000000 
#    y 0.000000 1.656120 0.000000 
#    z 0.000000 0.000000 1.752940 
# 
# From -- ./inp_files/30980.got.cif
#   From: 2010.05.17/outbox.cif.g08.bks.cpg/sg64_16_cif.got.tgz:30980.got - 2010.06.03 16:29:19.
