data_PCOD9479023
_publ_section_title
;
Structure prediction by ZEFSAII (Michael W. Deem and Ramdas Pophale) SiO2 
 PCOD9479023
Probable space group: C M C A
;
_chemical_formula_sum "Si O2"
_cell_formula_units_Z 112
_cell_length_a 15.649025
_cell_length_b 24.560682
_cell_length_c 14.831332
_cell_angle_alpha 90.000000
_cell_angle_beta 90.000000
_cell_angle_gamma 90.000000
_cell_volume 5700.433231
_symmetry_space_group_name_H-M "C M C A"
_symmetry_group_IT_number 64
_symmetry_cell_setting 'orthorhombic'
loop_
_space_group_symop_operation_xyz
x,y,z
-x,1/2-y,1/2+z
x,-y,-z
-x,1/2+y,1/2-z
-x,-y,-z
x,1/2+y,1/2-z
-x,y,z
x,1/2-y,1/2+z
1/2+x,1/2+y,z
1/2-x,-y,1/2+z
1/2+x,1/2-y,-z
1/2-x,y,1/2-z
1/2-x,1/2-y,-z
1/2+x,y,1/2-z
1/2-x,1/2+y,z
1/2+x,-y,1/2+z
loop_
_atom_site_type_symbol
_atom_site_label
_atom_site_fract_x
_atom_site_fract_y
_atom_site_fract_z
Si Si1 0.341947 0.019732 0.215685
Si Si2 0.225753 0.591560 0.051916
Si Si3 0.844748 0.295075 0.751030
Si Si4 0.902712 0.423709 0.101922
Si Si5 0.094900 0.397669 0.637726
Si Si6 0.329445 0.216421 0.043654
Si Si7 0.594006 0.701772 0.637724
O O1 0.250000 0.998561 0.250000
O O2 0.316231 0.062754 0.138107
O O3 0.390774 0.053284 0.291912
O O4 0.395623 0.970447 0.175708
O O5 0.327986 0.593510 0.066315
O O6 0.200371 0.654230 0.046742
O O7 0.175796 0.565926 0.966854
O O8 0.750000 0.319764 0.750000
O O9 0.896571 0.341501 0.696702
O O10 0.862402 0.276178 0.853887
O O11 0.843100 0.240339 0.692045
O O12 0.890410 0.362770 0.140737
O O13 0.000000 0.424479 0.061707
O O14 0.000000 0.398909 0.598134
O O15 0.250000 0.250000 0.000000
O O16 0.400830 0.219209 0.966703
O O17 0.500000 0.713082 0.674911
#
# Coordination Sequence:
#
# PCOD9479023 Si02
#       7
#    16  16  16  16  16  16  16
#     4  10  20  37  59  87 118 152 201 256 306 369
#     4  10  20  37  56  88 120 150 202 250 306 364
#     4  12  20  37  61  87 120 162 205 250 309 370
#     4  10  22  39  60  86 121 161 205 256 311 373
#     4  11  21  35  61  91 121 155 199 256 310 368
#     4  11  20  36  60  85 119 160 197 249 304 366
#     4  10  23  38  55  87 123 153 199 251 302 373
#
# _framework density 19.647628999999998
#
# number of rings (size 3 to 8) (size 9 to 14) (size 15 to 20)
#    0.000    1.429    4.286    1.714    0.000    3.429 
#    0.000    0.000    0.000    7.714    0.000    0.000 
#    0.000    0.000    0.000    0.000    0.000    0.000 
#
# Total GULP energy -311949.808140 kJ/mol
# GULP energy per Si atom -5570.532288 kJ/mol
# Density = 1.960291 g / cm^3
# Si number density = 19.647629 Si / 1000 Ang^3
#
#
#
# Elastic Constant Matrix: (Units=GPa)
#
#
# Indices 1 2 3 4 5 6 
#
# 1 98.1092 27.1357 18.3837 0.0000 0.0000 0.0000
# 2 27.1357 66.5741 31.6357 0.0000 0.0000 0.0000
# 3 18.3837 31.6357 74.7729 0.0000 0.0000 0.0000
# 4 0.0000 0.0000 0.0000 20.6330 0.0000 0.0000
# 5 0.0000 0.0000 0.0000 0.0000 21.3674 0.0000
# 6 0.0000 0.0000 0.0000 0.0000 0.0000 12.6312
#
#
#
# Elastic Compliance Matrix: (Units=1/GPa)
#
#
# Indices 1 2 3 4 5 6 
#
# 1 0.011555 -0.004205 -0.001062 0.000000 0.000000 0.000000
# 2 -0.004205 0.020331 -0.007568 0.000000 0.000000 0.000000
# 3 -0.001062 -0.007568 0.016837 0.000000 0.000000 0.000000
# 4 0.000000 0.000000 0.000000 0.048466 0.000000 0.000000
# 5 0.000000 0.000000 0.000000 0.000000 0.046800 0.000000
# 6 0.000000 0.000000 0.000000 0.000000 0.000000 0.079169
#
#
# Mechanical properties :
#
#
# Convention : Reuss Voigt Hill
#
# Bulk Modulus (GPa) = 43.37848 43.75183 43.56516
# Shear Modulus (GPa) = 19.49226 21.74641 20.61933
#
# Velocity S-wave (km/s) = 3.15317 3.33050 3.24305
# Velocity P-wave (km/s) = 5.94834 6.09149 6.02034
#
# Compressibility (1/GPa) = 0.02305291
#
# Stress axis : x y z
#
# Youngs Moduli (GPa) = 86.54437 49.18538 59.39358
#
# Poissons Ratio (x) = 0.20684 0.06306
# Poissons Ratio (y) = 0.36394 0.44949
# Poissons Ratio (z) = 0.09188 0.37224
#
# Static dielectric constant tensor:
#      x y z
#    x 1.723060 0.000000 0.000000 
#    y 0.000000 1.669630 0.000000 
#    z 0.000000 0.000000 1.752390 
# 
# From -- ./inp_files/24182.got.cif
#   From: 2010.05.17/outbox.cif.g08.bks.cpg/sg64_13_cif.got.tgz:24182.got - 2010.06.03 16:29:19.
