data_PCOD9479561
_publ_section_title
;
Structure prediction by ZEFSAII (Michael W. Deem and Ramdas Pophale) SiO2 
 PCOD9479561
Probable space group: C M C A
;
_chemical_formula_sum "Si O2"
_cell_formula_units_Z 88
_cell_length_a 16.207477
_cell_length_b 11.858546
_cell_length_c 18.015830
_cell_angle_alpha 90.000000
_cell_angle_beta 90.000000
_cell_angle_gamma 90.000000
_cell_volume 3462.590488
_symmetry_space_group_name_H-M "C M C A"
_symmetry_group_IT_number 64
_symmetry_cell_setting 'orthorhombic'
loop_
_space_group_symop_operation_xyz
x,y,z
-x,1/2-y,1/2+z
x,-y,-z
-x,1/2+y,1/2-z
-x,-y,-z
x,1/2+y,1/2-z
-x,y,z
x,1/2-y,1/2+z
1/2+x,1/2+y,z
1/2-x,-y,1/2+z
1/2+x,1/2-y,-z
1/2-x,y,1/2-z
1/2-x,1/2-y,-z
1/2+x,y,1/2-z
1/2-x,1/2+y,z
1/2+x,-y,1/2+z
loop_
_atom_site_type_symbol
_atom_site_label
_atom_site_fract_x
_atom_site_fract_y
_atom_site_fract_z
Si Si1 0.000000 0.395838 0.211867
Si Si2 0.132951 0.753076 0.129917
Si Si3 0.593950 0.302219 0.465331
Si Si4 0.500000 0.354444 0.725935
Si Si5 0.692303 0.863922 0.628086
Si Si6 0.221491 0.000000 0.500000
Si Si7 0.844285 0.449724 0.261830
O O1 0.000000 0.519257 0.259268
O O2 0.903213 0.418159 0.191904
O O3 0.000000 0.261877 0.227943
O O4 0.227378 0.714651 0.135867
O O5 0.119930 0.868466 0.173960
O O6 0.077250 0.660142 0.170373
O O7 0.103371 0.758097 0.045602
O O8 0.500000 0.343005 0.453411
O O9 0.619809 0.209644 0.405825
O O10 0.661465 0.400779 0.472136
O O11 0.722839 0.955720 0.567543
O O12 0.665797 0.926200 0.702957
O O13 0.750000 0.414144 0.250000
#
# Coordination Sequence:
#
# PCOD9479561 Si02
#       7
#     8  16  16   8  16   8  16
#     4  10  24  40  63  89 128 164 229 281 328 408
#     4  10  21  40  65  90 129 173 222 268 344 413
#     4  11  22  39  66 100 133 174 217 283 345 409
#     4  10  20  42  63  92 126 174 223 282 342 400
#     4  11  22  38  66  93 133 169 221 274 337 406
#     4  10  21  42  61  96 134 176 218 269 338 423
#     4  11  24  42  64  93 128 177 225 280 341 402
#
# _framework density 25.414498999999999
#
# number of rings (size 3 to 8) (size 9 to 14) (size 15 to 20)
#    0.000    1.455    0.909    5.727    1.273    3.636 
#    0.000    5.000    6.000    0.000    0.000    0.000 
#    0.000    0.000    0.000    0.000    0.000    0.000 
#
# Total GULP energy -245809.569797 kJ/mol
# GULP energy per Si atom -5586.581132 kJ/mol
# Density = 2.535665 g / cm^3
# Si number density = 25.414499 Si / 1000 Ang^3
#
#
#
# Elastic Constant Matrix: (Units=GPa)
#
#
# Indices 1 2 3 4 5 6 
#
# 1 113.9887 5.8211 42.5506 0.0000 0.0000 0.0000
# 2 5.8211 120.2744 33.6101 0.0000 0.0000 0.0000
# 3 42.5506 33.6101 86.6073 0.0000 0.0000 0.0000
# 4 0.0000 0.0000 0.0000 45.9321 0.0000 0.0000
# 5 0.0000 0.0000 0.0000 0.0000 45.0586 0.0000
# 6 0.0000 0.0000 0.0000 0.0000 0.0000 30.0356
#
#
#
# Elastic Compliance Matrix: (Units=1/GPa)
#
#
# Indices 1 2 3 4 5 6 
#
# 1 0.010868 0.001084 -0.005760 0.000000 0.000000 0.000000
# 2 0.001084 0.009434 -0.004193 0.000000 0.000000 0.000000
# 3 -0.005760 -0.004193 0.016004 0.000000 0.000000 0.000000
# 4 0.000000 0.000000 0.000000 0.021771 0.000000 0.000000
# 5 0.000000 0.000000 0.000000 0.000000 0.022193 0.000000
# 6 0.000000 0.000000 0.000000 0.000000 0.000000 0.033294
#
#
# Mechanical properties :
#
#
# Convention : Reuss Voigt Hill
#
# Bulk Modulus (GPa) = 53.86298 53.87045 53.86671
# Shear Modulus (GPa) = 36.36608 40.13117 38.24863
#
# Velocity S-wave (km/s) = 3.78685 3.97806 3.88363
# Velocity P-wave (km/s) = 6.35296 6.50712 6.43051
#
# Compressibility (1/GPa) = 0.01856563
#
# Stress axis : x y z
#
# Youngs Moduli (GPa) = 92.01727 106.00308 62.48629
#
# Poissons Ratio (x) = -0.11486 0.35991
# Poissons Ratio (y) = -0.09971 0.26203
# Poissons Ratio (z) = 0.53000 0.44451
#
# Static dielectric constant tensor:
#      x y z
#    x 2.185210 0.000000 0.000000 
#    y 0.000000 1.969330 0.000000 
#    z 0.000000 0.000000 2.111890 
# 
# From -- ./inp_files/45110.got.cif
#   From: 2010.05.17/outbox.cif.g08.bks.cpg/sg64_23_cif.got.tgz:45110.got - 2010.06.03 16:29:19.
