data_PCOD9479745
_publ_section_title
;
Structure prediction by ZEFSAII (Michael W. Deem and Ramdas Pophale) SiO2 
 PCOD9479745
Probable space group: C M C A
;
_chemical_formula_sum "Si O2"
_cell_formula_units_Z 64
_cell_length_a 18.617992
_cell_length_b 12.954961
_cell_length_c 11.169989
_cell_angle_alpha 90.000000
_cell_angle_beta 90.000000
_cell_angle_gamma 90.000000
_cell_volume 2694.149521
_symmetry_space_group_name_H-M "C M C A"
_symmetry_group_IT_number 64
_symmetry_cell_setting 'orthorhombic'
loop_
_space_group_symop_operation_xyz
x,y,z
-x,1/2-y,1/2+z
x,-y,-z
-x,1/2+y,1/2-z
-x,-y,-z
x,1/2+y,1/2-z
-x,y,z
x,1/2-y,1/2+z
1/2+x,1/2+y,z
1/2-x,-y,1/2+z
1/2+x,1/2-y,-z
1/2-x,y,1/2-z
1/2-x,1/2-y,-z
1/2+x,y,1/2-z
1/2-x,1/2+y,z
1/2+x,-y,1/2+z
loop_
_atom_site_type_symbol
_atom_site_label
_atom_site_fract_x
_atom_site_fract_y
_atom_site_fract_z
Si Si1 0.831007 0.277189 0.762113
Si Si2 0.079363 0.096019 0.706904
Si Si3 0.080234 0.083189 0.102074
Si Si4 0.207190 0.515435 0.124631
O O1 0.750000 0.235641 0.750000
O O2 0.888920 0.188891 0.787006
O O3 0.861262 0.332058 0.640328
O O4 0.822356 0.368561 0.858003
O O5 0.000000 0.120327 0.660795
O O6 0.074907 0.991610 0.783114
O O7 0.142675 0.067290 0.616500
O O8 0.000000 0.127339 0.079181
O O9 0.095707 0.000000 0.000000
O O10 0.250000 0.498837 0.250000
O O11 0.248341 0.500000 0.000000
#
# Coordination Sequence:
#
# PCOD9479745 Si02
#       4
#    16  16  16  16
#     4  10  21  36  57  87 122 161 204 256 316 379
#     4  10  21  38  60  88 124 165 209 259 317 383
#     4   9  19  37  59  82 112 154 205 257 309 370
#     4  10  23  43  66  93 128 170 217 272 331 390
#
# _framework density 23.755178000000001
#
# number of rings (size 3 to 8) (size 9 to 14) (size 15 to 20)
#    0.000    2.250    0.000    1.500    0.000   13.500 
#    0.000   10.000    0.000    0.000    0.000    0.000 
#    0.000    0.000    0.000    0.000    0.000    0.000 
#
# Total GULP energy -178392.178626 kJ/mol
# GULP energy per Si atom -5574.755582 kJ/mol
# Density = 2.370111 g / cm^3
# Si number density = 23.755178 Si / 1000 Ang^3
#
#
#
# Elastic Constant Matrix: (Units=GPa)
#
#
# Indices 1 2 3 4 5 6 
#
# 1 175.2268 31.5154 14.7838 0.0000 0.0000 0.0000
# 2 31.5154 84.1113 -14.6810 0.0000 0.0000 0.0000
# 3 14.7838 -14.6810 74.1365 0.0000 0.0000 0.0000
# 4 0.0000 0.0000 0.0000 8.6932 0.0000 0.0000
# 5 0.0000 0.0000 0.0000 0.0000 14.1959 0.0000
# 6 0.0000 0.0000 0.0000 0.0000 0.0000 -85.8893
#
#
#
# Elastic Compliance Matrix: (Units=1/GPa)
#
#
# Indices 1 2 3 4 5 6 
#
# 1 0.006342 -0.002690 -0.001797 0.000000 0.000000 0.000000
# 2 -0.002690 0.013456 0.003201 0.000000 0.000000 0.000000
# 3 -0.001797 0.003201 0.014481 0.000000 0.000000 0.000000
# 4 0.000000 0.000000 0.000000 0.115033 0.000000 0.000000
# 5 0.000000 0.000000 0.000000 0.000000 0.070443 0.000000
# 6 0.000000 0.000000 0.000000 0.000000 0.000000 -0.011643
#
#
# Mechanical properties :
#
#
# Convention : Reuss Voigt Hill
#
# Bulk Modulus (GPa) = 31.53987 44.07897 37.80942
# Shear Modulus (GPa) = 22.59853 7.52372 15.06113
#
# Velocity S-wave (km/s) = 3.08768 1.78159 2.52070
# Velocity P-wave (km/s) = 5.10074 4.77785 4.94193
#
# Compressibility (1/GPa) = 0.03170590
#
# Stress axis : x y z
#
# Youngs Moduli (GPa) = 157.66957 74.31797 69.05614
#
# Poissons Ratio (x) = 0.19993 0.12413
# Poissons Ratio (y) = 0.42415 -0.22105
# Poissons Ratio (z) = 0.28341 -0.23790
#
# Static dielectric constant tensor:
#      x y z
#    x 2.020840 0.000000 0.000000 
#    y 0.000000 1.927510 0.000000 
#    z 0.000000 0.000000 1.981840 
# 
# From -- ./inp_files/15453.got.cif
#   From: 2010.05.17/outbox.cif.g08.bks.cpg/sg64_8_cif.got.tgz:15453.got - 2010.06.03 16:29:19.
