data_PCOD9479623
_publ_section_title
;
Structure prediction by ZEFSAII (Michael W. Deem and Ramdas Pophale) SiO2 
 PCOD9479623
Probable space group: C M C A
;
_chemical_formula_sum "Si O2"
_cell_formula_units_Z 56
_cell_length_a 14.477631
_cell_length_b 33.653462
_cell_length_c 5.297473
_cell_angle_alpha 90.000000
_cell_angle_beta 90.000000
_cell_angle_gamma 90.000000
_cell_volume 2581.047534
_symmetry_space_group_name_H-M "C M C A"
_symmetry_group_IT_number 64
_symmetry_cell_setting 'orthorhombic'
loop_
_space_group_symop_operation_xyz
x,y,z
-x,1/2-y,1/2+z
x,-y,-z
-x,1/2+y,1/2-z
-x,-y,-z
x,1/2+y,1/2-z
-x,y,z
x,1/2-y,1/2+z
1/2+x,1/2+y,z
1/2-x,-y,1/2+z
1/2+x,1/2-y,-z
1/2-x,y,1/2-z
1/2-x,1/2-y,-z
1/2+x,y,1/2-z
1/2-x,1/2+y,z
1/2+x,-y,1/2+z
loop_
_atom_site_type_symbol
_atom_site_label
_atom_site_fract_x
_atom_site_fract_y
_atom_site_fract_z
Si Si1 0.646735 0.766174 0.043752
Si Si2 0.750000 0.525316 0.250000
Si Si3 0.888876 0.405304 0.639391
Si Si4 0.388867 0.356296 0.355166
O O1 0.603169 0.759397 0.769212
O O2 0.750000 0.750000 0.000000
O O3 0.647726 0.811750 0.124696
O O4 0.725639 0.500000 0.500000
O O5 0.834476 0.553712 0.332442
O O6 0.858931 0.380749 0.391434
O O7 0.000000 0.411254 0.626621
O O8 0.867351 0.379866 0.889276
O O9 0.500000 0.352830 0.338984
#
# Coordination Sequence:
#
# PCOD9479623 Si02
#       4
#    16   8  16  16
#     4  10  21  34  51  81 117 155 202 251 305 350
#     4  12  26  42  66 100 128 156 194 244 312 384
#     4  10  23  43  66  91 122 163 207 253 305 366
#     4  10  21  39  61  85 118 164 214 258 302 360
#
# _framework density 21.696618000000001
#
# number of rings (size 3 to 8) (size 9 to 14) (size 15 to 20)
#    0.000    1.714    0.000    3.429    0.000    9.143 
#    0.000    0.000    0.000    0.000    0.000    0.000 
#    0.000    0.000    0.000    0.000    0.000    0.000 
#
# Total GULP energy -156606.771571 kJ/mol
# GULP energy per Si atom -5593.098985 kJ/mol
# Density = 2.164724 g / cm^3
# Si number density = 21.696618 Si / 1000 Ang^3
#
#
#
# Elastic Constant Matrix: (Units=GPa)
#
#
# Indices 1 2 3 4 5 6 
#
# 1 74.8770 42.4283 43.0864 0.0000 0.0000 0.0000
# 2 42.4283 172.4266 98.9284 0.0000 0.0000 0.0000
# 3 43.0864 98.9284 235.2099 0.0000 0.0000 0.0000
# 4 0.0000 0.0000 0.0000 19.1611 0.0000 0.0000
# 5 0.0000 0.0000 0.0000 0.0000 5.8131 0.0000
# 6 0.0000 0.0000 0.0000 0.0000 0.0000 41.1283
#
#
#
# Elastic Compliance Matrix: (Units=1/GPa)
#
#
# Indices 1 2 3 4 5 6 
#
# 1 0.016008 -0.002974 -0.001681 0.000000 0.000000 0.000000
# 2 -0.002974 0.008197 -0.002903 0.000000 0.000000 0.000000
# 3 -0.001681 -0.002903 0.005780 0.000000 0.000000 0.000000
# 4 0.000000 0.000000 0.000000 0.052189 0.000000 0.000000
# 5 0.000000 0.000000 0.000000 0.000000 0.172026 0.000000
# 6 0.000000 0.000000 0.000000 0.000000 0.000000 0.024314
#
#
# Mechanical properties :
#
#
# Convention : Reuss Voigt Hill
#
# Bulk Modulus (GPa) = 67.25654 94.59995 80.92824
# Shear Modulus (GPa) = 16.74549 33.09187 24.91868
#
# Velocity S-wave (km/s) = 2.78115 3.90963 3.39264
# Velocity P-wave (km/s) = 6.43265 8.00476 7.26137
#
# Compressibility (1/GPa) = 0.01486844
#
# Stress axis : x y z
#
# Youngs Moduli (GPa) = 62.46812 121.99773 172.99843
#
# Poissons Ratio (x) = 0.36287 0.29088
# Poissons Ratio (y) = 0.18580 0.50217
# Poissons Ratio (z) = 0.10503 0.35413
#
# Static dielectric constant tensor:
#      x y z
#    x 1.881490 0.000000 0.000000 
#    y 0.000000 1.732720 0.000000 
#    z 0.000000 0.000000 1.868890 
# 
# From -- ./inp_files/883.got.cif
#   From: 2010.05.17/outbox.cif.g08.bks.cpg/sg64_1_cif.got.tgz:883.got - 2010.06.03 16:29:19.
