data_PCOD9479511
_publ_section_title
;
Structure prediction by ZEFSAII (Michael W. Deem and Ramdas Pophale) SiO2 
 PCOD9479511
Probable space group: C M C A
;
_chemical_formula_sum "Si O2"
_cell_formula_units_Z 112
_cell_length_a 14.948455
_cell_length_b 19.857372
_cell_length_c 16.423797
_cell_angle_alpha 90.000000
_cell_angle_beta 90.000000
_cell_angle_gamma 90.000000
_cell_volume 4875.191152
_symmetry_space_group_name_H-M "C M C A"
_symmetry_group_IT_number 64
_symmetry_cell_setting 'orthorhombic'
loop_
_space_group_symop_operation_xyz
x,y,z
-x,1/2-y,1/2+z
x,-y,-z
-x,1/2+y,1/2-z
-x,-y,-z
x,1/2+y,1/2-z
-x,y,z
x,1/2-y,1/2+z
1/2+x,1/2+y,z
1/2-x,-y,1/2+z
1/2+x,1/2-y,-z
1/2-x,y,1/2-z
1/2-x,1/2-y,-z
1/2+x,y,1/2-z
1/2-x,1/2+y,z
1/2+x,-y,1/2+z
loop_
_atom_site_type_symbol
_atom_site_label
_atom_site_fract_x
_atom_site_fract_y
_atom_site_fract_z
Si Si1 0.099405 0.640294 0.155737
Si Si2 0.097681 0.512347 0.903222
Si Si3 0.896450 0.125704 0.874668
Si Si4 0.222125 0.013932 0.835209
Si Si5 0.098266 0.789712 0.830176
Si Si6 0.227597 0.748126 0.095154
Si Si7 0.900221 0.418338 0.559950
O O1 0.101614 0.560694 0.140862
O O2 0.106844 0.665703 0.248555
O O3 0.179654 0.676786 0.110394
O O4 0.000000 0.662436 0.126451
O O5 0.189965 0.546145 0.876629
O O6 0.000000 0.543091 0.884316
O O7 0.100518 0.500000 0.000000
O O8 0.848591 0.072621 0.816205
O O9 0.843244 0.195046 0.880051
O O10 0.000000 0.136607 0.856224
O O11 0.889010 0.090325 0.963838
O O12 0.250000 0.981147 0.750000
O O13 0.175366 0.961066 0.895342
O O14 0.184168 0.744999 0.849006
O O15 0.099331 0.843724 0.903118
O O16 0.000000 0.756472 0.828007
O O17 0.250000 0.750000 0.000000
O O18 0.000000 0.447255 0.577072
#
# Coordination Sequence:
#
# PCOD9479511 Si02
#       7
#    16  16  16  16  16  16  16
#     4  10  22  40  65  95 129 172 216 271 333 394
#     4  10  22  40  65  96 133 170 214 268 330 398
#     4  11  25  45  67  95 130 172 224 277 329 395
#     4  12  25  39  63  95 132 173 215 265 329 398
#     4  10  21  39  65  98 131 165 219 276 329 390
#     4  12  24  39  65  94 127 173 222 278 326 389
#     4  10  20  40  68  97 125 165 219 276 329 388
#
# _framework density 22.973458000000001
#
# number of rings (size 3 to 8) (size 9 to 14) (size 15 to 20)
#    0.000    1.286    1.429    4.286    2.000    5.143 
#    0.000    0.714    0.000    0.000    0.000    0.000 
#    0.000    0.000    0.000    0.000    0.000    0.000 
#
# Total GULP energy -313229.810542 kJ/mol
# GULP energy per Si atom -5593.389474 kJ/mol
# Density = 2.292117 g / cm^3
# Si number density = 22.973458 Si / 1000 Ang^3
#
#
#
# Elastic Constant Matrix: (Units=GPa)
#
#
# Indices 1 2 3 4 5 6 
#
# 1 185.5704 36.8398 30.5869 0.0000 0.0000 0.0000
# 2 36.8398 42.4175 -11.8039 0.0000 0.0000 0.0000
# 3 30.5869 -11.8039 60.8144 0.0000 0.0000 0.0000
# 4 0.0000 0.0000 0.0000 28.1481 0.0000 0.0000
# 5 0.0000 0.0000 0.0000 0.0000 30.6257 0.0000
# 6 0.0000 0.0000 0.0000 0.0000 0.0000 34.7585
#
#
#
# Elastic Compliance Matrix: (Units=1/GPa)
#
#
# Indices 1 2 3 4 5 6 
#
# 1 0.008027 -0.008557 -0.005698 0.000000 0.000000 0.000000
# 2 -0.008557 0.034043 0.010911 0.000000 0.000000 0.000000
# 3 -0.005698 0.010911 0.021427 0.000000 0.000000 0.000000
# 4 0.000000 0.000000 0.000000 0.035526 0.000000 0.000000
# 5 0.000000 0.000000 0.000000 0.000000 0.032652 0.000000
# 6 0.000000 0.000000 0.000000 0.000000 0.000000 0.028770
#
#
# Mechanical properties :
#
#
# Convention : Reuss Voigt Hill
#
# Bulk Modulus (GPa) = 17.60244 44.44980 31.02612
# Shear Modulus (GPa) = 26.87174 34.25176 30.56175
#
# Velocity S-wave (km/s) = 3.42378 3.86544 3.65129
# Velocity P-wave (km/s) = 4.82788 6.26997 5.59557
#
# Compressibility (1/GPa) = 0.05681030
#
# Stress axis : x y z
#
# Youngs Moduli (GPa) = 124.58462 29.37442 46.66985
#
# Poissons Ratio (x) = 0.25135 0.26592
# Poissons Ratio (y) = 1.06605 -0.50923
# Poissons Ratio (z) = 0.70987 -0.32052
#
# Static dielectric constant tensor:
#      x y z
#    x 1.946340 0.000000 0.000000 
#    y 0.000000 1.861510 0.000000 
#    z 0.000000 0.000000 1.878820 
# 
# From -- ./inp_files/24291.got.cif
#   From: 2010.05.17/outbox.cif.g08.bks.cpg/sg64_13_cif.got.tgz:24291.got - 2010.06.03 16:29:19.
