data_PCOD9479454
_publ_section_title
;
Structure prediction by ZEFSAII (Michael W. Deem and Ramdas Pophale) SiO2 
 PCOD9479454
Probable space group: C M C A
;
_chemical_formula_sum "Si O2"
_cell_formula_units_Z 72
_cell_length_a 9.603677
_cell_length_b 13.623012
_cell_length_c 24.787324
_cell_angle_alpha 90.000000
_cell_angle_beta 90.000000
_cell_angle_gamma 90.000000
_cell_volume 3242.950560
_symmetry_space_group_name_H-M "C M C A"
_symmetry_group_IT_number 64
_symmetry_cell_setting 'orthorhombic'
loop_
_space_group_symop_operation_xyz
x,y,z
-x,1/2-y,1/2+z
x,-y,-z
-x,1/2+y,1/2-z
-x,-y,-z
x,1/2+y,1/2-z
-x,y,z
x,1/2-y,1/2+z
1/2+x,1/2+y,z
1/2-x,-y,1/2+z
1/2+x,1/2-y,-z
1/2-x,y,1/2-z
1/2-x,1/2-y,-z
1/2+x,y,1/2-z
1/2-x,1/2+y,z
1/2+x,-y,1/2+z
loop_
_atom_site_type_symbol
_atom_site_label
_atom_site_fract_x
_atom_site_fract_y
_atom_site_fract_z
Si Si1 0.500000 0.145755 0.390303
Si Si2 0.500000 0.767435 0.834555
Si Si3 0.215348 0.273802 0.923961
Si Si4 0.343925 0.897121 0.025659
Si Si5 0.500000 0.534525 0.821081
Si Si6 0.250000 0.083201 0.750000
Si Si7 0.000000 0.777437 0.283782
O O1 0.635472 0.175848 0.422162
O O2 0.500000 0.210754 0.335828
O O3 0.500000 0.034353 0.372104
O O4 0.632568 0.798338 0.869636
O O5 0.500000 0.649208 0.834786
O O6 0.500000 0.788311 0.771044
O O7 0.242862 0.157771 0.932590
O O8 0.144886 0.320860 0.976082
O O9 0.500000 0.912198 0.048881
O O10 0.297366 0.000000 0.000000
O O11 0.643712 0.521188 0.787069
O O12 0.139147 0.154304 0.718881
#
# Coordination Sequence:
#
# PCOD9479454 Si02
#       7
#     8   8  16  16   8   8   8
#     4  12  24  37  61  95 126 160 212 253 307 360
#     4  10  22  41  63  87 130 170 202 251 307 366
#     4  11  23  41  63  96 124 162 204 262 308 377
#     4  10  22  43  66  91 123 161 205 259 318 377
#     4  10  22  36  60  89 122 158 214 251 300 356
#     4   8  18  40  58  80 116 170 206 248 296 350
#     4  10  20  40  62  84 126 170 204 250 297 358
#
# _framework density 22.202003000000001
#
# number of rings (size 3 to 8) (size 9 to 14) (size 15 to 20)
#    0.000    2.000    2.222    2.667    3.111    2.667 
#    0.000    2.222    0.000    0.000    0.000    0.000 
#    0.000    0.000    0.000    0.000    0.000    0.000 
#
# Total GULP energy -200982.554508 kJ/mol
# GULP energy per Si atom -5582.848736 kJ/mol
# Density = 2.215147 g / cm^3
# Si number density = 22.202003 Si / 1000 Ang^3
#
#
#
# Elastic Constant Matrix: (Units=GPa)
#
#
# Indices 1 2 3 4 5 6 
#
# 1 139.3147 -2.3970 16.7612 0.0000 0.0000 0.0000
# 2 -2.3970 44.5829 -19.6344 0.0000 0.0000 0.0000
# 3 16.7612 -19.6344 53.5575 0.0000 0.0000 0.0000
# 4 0.0000 0.0000 0.0000 35.9631 0.0000 0.0000
# 5 0.0000 0.0000 0.0000 0.0000 20.4966 0.0000
# 6 0.0000 0.0000 0.0000 0.0000 0.0000 34.8126
#
#
#
# Elastic Compliance Matrix: (Units=1/GPa)
#
#
# Indices 1 2 3 4 5 6 
#
# 1 0.007480 -0.000750 -0.002616 0.000000 0.000000 0.000000
# 2 -0.000750 0.026824 0.010068 0.000000 0.000000 0.000000
# 3 -0.002616 0.010068 0.023181 0.000000 0.000000 0.000000
# 4 0.000000 0.000000 0.000000 0.027806 0.000000 0.000000
# 5 0.000000 0.000000 0.000000 0.000000 0.048788 0.000000
# 6 0.000000 0.000000 0.000000 0.000000 0.000000 0.028725
#
#
# Mechanical properties :
#
#
# Convention : Reuss Voigt Hill
#
# Bulk Modulus (GPa) = 14.10621 25.21274 19.65947
# Shear Modulus (GPa) = 28.89678 34.43614 31.66646
#
# Velocity S-wave (km/s) = 3.61160 3.94259 3.78072
# Velocity P-wave (km/s) = 4.87431 5.66623 5.28512
#
# Compressibility (1/GPa) = 0.07089079
#
# Stress axis : x y z
#
# Youngs Moduli (GPa) = 133.69340 37.28010 43.13825
#
# Poissons Ratio (x) = 0.02795 0.11284
# Poissons Ratio (y) = 0.10025 -0.43434
# Poissons Ratio (z) = 0.34971 -0.37535
#
# Static dielectric constant tensor:
#      x y z
#    x 1.842810 0.000000 0.000000 
#    y 0.000000 1.808720 0.000000 
#    z 0.000000 0.000000 1.852380 
# 
# From -- ./inp_files/47671.got.cif
#   From: 2010.05.17/outbox.cif.g08.bks.cpg/sg64_24_cif.got.tgz:47671.got - 2010.06.03 16:29:19.
