data_PCOD9479707
_publ_section_title
;
Structure prediction by ZEFSAII (Michael W. Deem and Ramdas Pophale) SiO2 
 PCOD9479707
Probable space group: C M C A
;
_chemical_formula_sum "Si O2"
_cell_formula_units_Z 72
_cell_length_a 25.501629
_cell_length_b 27.098891
_cell_length_c 5.046027
_cell_angle_alpha 90.000000
_cell_angle_beta 90.000000
_cell_angle_gamma 90.000000
_cell_volume 3487.137012
_symmetry_space_group_name_H-M "C M C A"
_symmetry_group_IT_number 64
_symmetry_cell_setting 'orthorhombic'
loop_
_space_group_symop_operation_xyz
x,y,z
-x,1/2-y,1/2+z
x,-y,-z
-x,1/2+y,1/2-z
-x,-y,-z
x,1/2+y,1/2-z
-x,y,z
x,1/2-y,1/2+z
1/2+x,1/2+y,z
1/2-x,-y,1/2+z
1/2+x,1/2-y,-z
1/2-x,y,1/2-z
1/2-x,1/2-y,-z
1/2+x,y,1/2-z
1/2-x,1/2+y,z
1/2+x,-y,1/2+z
loop_
_atom_site_type_symbol
_atom_site_label
_atom_site_fract_x
_atom_site_fract_y
_atom_site_fract_z
Si Si1 0.385224 0.500000 0.500000
Si Si2 0.062047 0.899948 0.472023
Si Si3 0.688011 0.281273 0.739395
Si Si4 0.123619 0.370404 0.506071
Si Si5 0.199977 0.949904 0.880905
O O1 0.421505 0.543972 0.609525
O O2 0.345624 0.527909 0.303573
O O3 0.084104 0.890130 0.766492
O O4 0.000000 0.894280 0.463707
O O5 0.091035 0.864365 0.262283
O O6 0.678106 0.264880 0.437903
O O7 0.750000 0.293430 0.750000
O O8 0.653137 0.324880 0.857741
O O9 0.169123 0.410840 0.441554
O O10 0.250000 0.924118 0.750000
O O11 0.223166 0.000000 0.000000
#
# Coordination Sequence:
#
# PCOD9479707 Si02
#       5
#     8  16  16  16  16
#     4  10  21  36  52  82 118 162 205 242 294 344
#     4  11  23  39  60  84 118 159 210 256 294 344
#     4  10  21  40  65  95 124 154 195 245 301 366
#     4  11  23  39  62  89 119 160 199 246 304 356
#     4  11  20  34  53  84 125 159 190 230 288 365
#
# _framework density 20.647310000000001
#
# number of rings (size 3 to 8) (size 9 to 14) (size 15 to 20)
#    0.000    1.333    3.333    3.000    0.000    0.000 
#    0.000    6.667    0.000   13.333    0.000    0.000 
#    0.000    0.000    0.000    0.000    0.000    0.000 
#
# Total GULP energy -200814.726220 kJ/mol
# GULP energy per Si atom -5578.186839 kJ/mol
# Density = 2.060032 g / cm^3
# Si number density = 20.647310 Si / 1000 Ang^3
#
#
#
# Elastic Constant Matrix: (Units=GPa)
#
#
# Indices 1 2 3 4 5 6 
#
# 1 106.2609 27.7630 16.9658 0.0000 0.0000 0.0000
# 2 27.7630 48.3261 -12.0962 0.0000 0.0000 0.0000
# 3 16.9658 -12.0962 68.3697 0.0000 0.0000 0.0000
# 4 0.0000 0.0000 0.0000 23.7021 0.0000 0.0000
# 5 0.0000 0.0000 0.0000 0.0000 29.0133 0.0000
# 6 0.0000 0.0000 0.0000 0.0000 0.0000 20.4487
#
#
#
# Elastic Compliance Matrix: (Units=1/GPa)
#
#
# Indices 1 2 3 4 5 6 
#
# 1 0.012261 -0.008167 -0.004488 0.000000 0.000000 0.000000
# 2 -0.008167 0.027092 0.006820 0.000000 0.000000 0.000000
# 3 -0.004488 0.006820 0.016947 0.000000 0.000000 0.000000
# 4 0.000000 0.000000 0.000000 0.042190 0.000000 0.000000
# 5 0.000000 0.000000 0.000000 0.000000 0.034467 0.000000
# 6 0.000000 0.000000 0.000000 0.000000 0.000000 0.048903
#
#
# Mechanical properties :
#
#
# Convention : Reuss Voigt Hill
#
# Bulk Modulus (GPa) = 22.40665 32.02467 27.21566
# Shear Modulus (GPa) = 23.99163 27.32109 25.65636
#
# Velocity S-wave (km/s) = 3.41247 3.64157 3.52888
# Velocity P-wave (km/s) = 5.13831 5.76414 5.46020
#
# Compressibility (1/GPa) = 0.04462961
#
# Stress axis : x y z
#
# Youngs Moduli (GPa) = 81.55843 36.91160 59.00918
#
# Poissons Ratio (x) = 0.30146 0.26481
# Poissons Ratio (y) = 0.66610 -0.40243
# Poissons Ratio (z) = 0.36600 -0.25173
#
# Static dielectric constant tensor:
#      x y z
#    x 1.710300 0.000000 0.000000 
#    y 0.000000 1.768610 0.000000 
#    z 0.000000 0.000000 1.523060 
# 
# From -- ./inp_files/2257.got.cif
#   From: 2010.05.17/outbox.cif.g08.bks.cpg/sg64_2_cif.got.tgz:2257.got - 2010.06.03 16:29:19.
