data_PCOD9479144
_publ_section_title
;
Structure prediction by ZEFSAII (Michael W. Deem and Ramdas Pophale) SiO2 
 PCOD9479144
Probable space group: C M C A
;
_chemical_formula_sum "Si O2"
_cell_formula_units_Z 96
_cell_length_a 15.686628
_cell_length_b 11.596728
_cell_length_c 23.743500
_cell_angle_alpha 90.000000
_cell_angle_beta 90.000000
_cell_angle_gamma 90.000000
_cell_volume 4319.264568
_symmetry_space_group_name_H-M "C M C A"
_symmetry_group_IT_number 64
_symmetry_cell_setting 'orthorhombic'
loop_
_space_group_symop_operation_xyz
x,y,z
-x,1/2-y,1/2+z
x,-y,-z
-x,1/2+y,1/2-z
-x,-y,-z
x,1/2+y,1/2-z
-x,y,z
x,1/2-y,1/2+z
1/2+x,1/2+y,z
1/2-x,-y,1/2+z
1/2+x,1/2-y,-z
1/2-x,y,1/2-z
1/2-x,1/2-y,-z
1/2+x,y,1/2-z
1/2-x,1/2+y,z
1/2+x,-y,1/2+z
loop_
_atom_site_type_symbol
_atom_site_label
_atom_site_fract_x
_atom_site_fract_y
_atom_site_fract_z
Si Si1 0.400335 0.081549 0.784387
Si Si2 0.856406 0.991814 0.167557
Si Si3 0.198449 0.869371 0.690621
Si Si4 0.396141 0.369740 0.985998
Si Si5 0.595960 0.227218 0.367923
Si Si6 0.598654 0.280935 0.103077
O O1 0.500000 0.107007 0.777538
O O2 0.364811 0.170536 0.830632
O O3 0.358852 0.087293 0.723045
O O4 0.383915 0.948131 0.797735
O O5 0.761832 0.039461 0.160905
O O6 0.906361 0.112725 0.170537
O O7 0.897500 0.916000 0.119398
O O8 0.250000 0.340557 0.750000
O O9 0.166005 0.778410 0.644943
O O10 0.500000 0.377602 0.982340
O O11 0.377589 0.282610 0.037410
O O12 0.365263 0.500000 0.000000
O O13 0.365180 0.316143 0.926783
O O14 0.500000 0.266224 0.381166
O O15 0.500000 0.241547 0.110494
#
# Coordination Sequence:
#
# PCOD9479144 Si02
#       6
#    16  16  16  16  16  16
#     4  10  22  39  61  89 125 167 215 264 323 397
#     4  11  23  37  60  91 128 163 211 267 331 393
#     4  10  25  41  60  88 134 173 206 263 341 396
#     4   9  17  35  63  97 129 166 222 280 324 376
#     4  10  20  37  63  92 126 169 216 272 327 386
#     4  11  22  40  70  98 125 169 230 273 316 391
#
# _framework density 22.226005000000001
#
# number of rings (size 3 to 8) (size 9 to 14) (size 15 to 20)
#    0.000    1.833    1.667    2.000    7.000    0.667 
#    0.000    1.667    3.667    4.000    0.000    0.000 
#    0.000    0.000    0.000    0.000    0.000    0.000 
#
# Total GULP energy -267398.298158 kJ/mol
# GULP energy per Si atom -5570.797878 kJ/mol
# Density = 2.217542 g / cm^3
# Si number density = 22.226005 Si / 1000 Ang^3
#
#
#
# Elastic Constant Matrix: (Units=GPa)
#
#
# Indices 1 2 3 4 5 6 
#
# 1 64.1504 28.6584 34.5490 0.0000 0.0000 0.0000
# 2 28.6584 82.5795 81.3301 0.0000 0.0000 0.0000
# 3 34.5490 81.3301 171.9665 0.0000 0.0000 0.0000
# 4 0.0000 0.0000 0.0000 32.9604 0.0000 0.0000
# 5 0.0000 0.0000 0.0000 0.0000 22.7925 0.0000
# 6 0.0000 0.0000 0.0000 0.0000 0.0000 23.8182
#
#
#
# Elastic Compliance Matrix: (Units=1/GPa)
#
#
# Indices 1 2 3 4 5 6 
#
# 1 0.018598 -0.005193 -0.001280 0.000000 0.000000 0.000000
# 2 -0.005193 0.024118 -0.010363 0.000000 0.000000 0.000000
# 3 -0.001280 -0.010363 0.010973 0.000000 0.000000 0.000000
# 4 0.000000 0.000000 0.000000 0.030339 0.000000 0.000000
# 5 0.000000 0.000000 0.000000 0.000000 0.043874 0.000000
# 6 0.000000 0.000000 0.000000 0.000000 0.000000 0.041985
#
#
# Mechanical properties :
#
#
# Convention : Reuss Voigt Hill
#
# Bulk Modulus (GPa) = 49.95975 67.53014 58.74494
# Shear Modulus (GPa) = 23.78311 27.52481 25.65396
#
# Velocity S-wave (km/s) = 3.27472 3.52292 3.40108
# Velocity P-wave (km/s) = 6.06838 6.85546 6.47389
#
# Compressibility (1/GPa) = 0.02001611
#
# Stress axis : x y z
#
# Youngs Moduli (GPa) = 53.76941 41.46256 91.12912
#
# Poissons Ratio (x) = 0.21533 0.11667
# Poissons Ratio (y) = 0.27924 0.94438
# Poissons Ratio (z) = 0.06884 0.42968
#
# Static dielectric constant tensor:
#      x y z
#    x 1.896980 0.000000 0.000000 
#    y 0.000000 1.854280 0.000000 
#    z 0.000000 0.000000 1.904120 
# 
# From -- ./inp_files/45763.got.cif
#   From: 2010.05.17/outbox.cif.g08.bks.cpg/sg64_23_cif.got.tgz:45763.got - 2010.06.03 16:29:19.
