data_PCOD9479537
_publ_section_title
;
Structure prediction by ZEFSAII (Michael W. Deem and Ramdas Pophale) SiO2 
 PCOD9479537
Probable space group: C M C A
;
_chemical_formula_sum "Si O2"
_cell_formula_units_Z 96
_cell_length_a 15.044442
_cell_length_b 21.556324
_cell_length_c 13.094953
_cell_angle_alpha 90.000000
_cell_angle_beta 90.000000
_cell_angle_gamma 90.000000
_cell_volume 4246.730790
_symmetry_space_group_name_H-M "C M C A"
_symmetry_group_IT_number 64
_symmetry_cell_setting 'orthorhombic'
loop_
_space_group_symop_operation_xyz
x,y,z
-x,1/2-y,1/2+z
x,-y,-z
-x,1/2+y,1/2-z
-x,-y,-z
x,1/2+y,1/2-z
-x,y,z
x,1/2-y,1/2+z
1/2+x,1/2+y,z
1/2-x,-y,1/2+z
1/2+x,1/2-y,-z
1/2-x,y,1/2-z
1/2-x,1/2-y,-z
1/2+x,y,1/2-z
1/2-x,1/2+y,z
1/2+x,-y,1/2+z
loop_
_atom_site_type_symbol
_atom_site_label
_atom_site_fract_x
_atom_site_fract_y
_atom_site_fract_z
Si Si1 0.660939 0.870929 0.709597
Si Si2 0.000000 0.593330 0.610462
Si Si3 0.393455 0.181163 0.085094
Si Si4 0.607588 0.064212 0.953908
Si Si5 0.105244 0.263148 0.593868
Si Si6 0.145238 0.643378 0.764660
Si Si7 0.500000 0.054716 0.372154
O O1 0.750000 0.901231 0.750000
O O2 0.665436 0.822496 0.617557
O O3 0.585721 0.919768 0.686196
O O4 0.633386 0.823453 0.799173
O O5 0.915297 0.627497 0.665013
O O6 0.000000 0.585895 0.486359
O O7 0.000000 0.519525 0.634429
O O8 0.500000 0.180256 0.081179
O O9 0.362156 0.119019 0.028688
O O10 0.367427 0.239039 0.017421
O O11 0.500000 0.062476 0.954963
O O12 0.633710 0.084628 0.840814
O O13 0.641233 0.000000 0.000000
O O14 0.112960 0.204197 0.671254
O O15 0.000000 0.280610 0.595738
O O16 0.250000 0.652190 0.750000
#
# Coordination Sequence:
#
# PCOD9479537 Si02
#       7
#    16   8  16  16  16  16   8
#     4  12  25  42  69  98 133 181 230 286 339 411
#     4  11  26  49  66  91 142 189 217 289 349 428
#     4   9  19  36  60  88 125 165 213 277 327 397
#     4   9  18  34  61  91 117 159 214 276 329 382
#     4  10  20  41  66  98 132 169 225 276 347 409
#     4  11  22  40  69 100 131 173 228 278 343 415
#     4  11  28  47  63  94 143 186 234 268 355 426
#
# _framework density 22.605623999999999
#
# number of rings (size 3 to 8) (size 9 to 14) (size 15 to 20)
#    0.000    1.667    3.333    1.500    2.333    5.333 
#    3.000    0.000    0.000    0.000    0.000    0.000 
#    0.000    0.000    0.000    0.000    0.000    0.000 
#
# Total GULP energy -268137.069623 kJ/mol
# GULP energy per Si atom -5586.188950 kJ/mol
# Density = 2.255417 g / cm^3
# Si number density = 22.605624 Si / 1000 Ang^3
#
#
#
# Elastic Constant Matrix: (Units=GPa)
#
#
# Indices 1 2 3 4 5 6 
#
# 1 105.9063 40.6152 29.3275 0.0000 0.0000 0.0000
# 2 40.6152 64.9006 1.3832 0.0000 0.0000 0.0000
# 3 29.3275 1.3832 49.6294 0.0000 0.0000 0.0000
# 4 0.0000 0.0000 0.0000 9.5234 0.0000 0.0000
# 5 0.0000 0.0000 0.0000 0.0000 7.3319 0.0000
# 6 0.0000 0.0000 0.0000 0.0000 0.0000 -469.7045
#
#
#
# Elastic Compliance Matrix: (Units=1/GPa)
#
#
# Indices 1 2 3 4 5 6 
#
# 1 0.015587 -0.009564 -0.008944 0.000000 0.000000 0.000000
# 2 -0.009564 0.021285 0.005058 0.000000 0.000000 0.000000
# 3 -0.008944 0.005058 0.025294 0.000000 0.000000 0.000000
# 4 0.000000 0.000000 0.000000 0.105004 0.000000 0.000000
# 5 0.000000 0.000000 0.000000 0.000000 0.136391 0.000000
# 6 0.000000 0.000000 0.000000 0.000000 0.000000 -0.002129
#
#
# Mechanical properties :
#
#
# Convention : Reuss Voigt Hill
#
# Bulk Modulus (GPa) = 28.35537 40.34313 34.34925
# Shear Modulus (GPa) = 14.70213 -80.62916 -32.96351
#
# Velocity S-wave (km/s) = 2.55301 -5.97873 -3.82278
# Velocity P-wave (km/s) = 4.61099 5.45665 2.06322
#
# Compressibility (1/GPa) = 0.03526669
#
# Stress axis : x y z
#
# Youngs Moduli (GPa) = 64.15679 46.98061 39.53542
#
# Poissons Ratio (x) = 0.44931 0.35361
# Poissons Ratio (y) = 0.61358 -0.19998
# Poissons Ratio (z) = 0.57383 -0.23764
#
# Static dielectric constant tensor:
#      x y z
#    x 1.855190 0.000000 0.000000 
#    y 0.000000 1.826440 0.000000 
#    z 0.000000 0.000000 1.925700 
# 
# From -- ./inp_files/16265.got.cif
#   From: 2010.05.17/outbox.cif.g08.bks.cpg/sg64_9_cif.got.tgz:16265.got - 2010.06.03 16:29:19.
