data_PCOD9479132
_publ_section_title
;
Structure prediction by ZEFSAII (Michael W. Deem and Ramdas Pophale) SiO2 
 PCOD9479132
Probable space group: C M C A
;
_chemical_formula_sum "Si O2"
_cell_formula_units_Z 116
_cell_length_a 27.630369
_cell_length_b 9.368719
_cell_length_c 17.802491
_cell_angle_alpha 90.000000
_cell_angle_beta 90.000000
_cell_angle_gamma 90.000000
_cell_volume 4608.373525
_symmetry_space_group_name_H-M "C M C A"
_symmetry_group_IT_number 64
_symmetry_cell_setting 'orthorhombic'
loop_
_space_group_symop_operation_xyz
x,y,z
-x,1/2-y,1/2+z
x,-y,-z
-x,1/2+y,1/2-z
-x,-y,-z
x,1/2+y,1/2-z
-x,y,z
x,1/2-y,1/2+z
1/2+x,1/2+y,z
1/2-x,-y,1/2+z
1/2+x,1/2-y,-z
1/2-x,y,1/2-z
1/2-x,1/2-y,-z
1/2+x,y,1/2-z
1/2-x,1/2+y,z
1/2+x,-y,1/2+z
loop_
_atom_site_type_symbol
_atom_site_label
_atom_site_fract_x
_atom_site_fract_y
_atom_site_fract_z
Si Si1 0.879835 0.961698 0.640970
Si Si2 0.265403 0.587859 0.894749
Si Si3 0.054428 0.771756 0.096244
Si Si4 0.443792 0.011242 0.288748
Si Si5 0.500000 0.000000 0.500000
Si Si6 0.303218 0.806974 0.535380
Si Si7 0.617217 0.715374 0.128715
Si Si8 0.697416 0.089582 0.260664
O O1 0.903838 0.844753 0.586995
O O2 0.914527 0.964655 0.714076
O O3 0.827250 0.941182 0.680324
O O4 0.886555 0.119962 0.610642
O O5 0.268657 0.431218 0.931828
O O6 0.215456 0.666675 0.919700
O O7 0.287903 0.549490 0.812705
O O8 0.299791 0.687977 0.946106
O O9 0.000000 0.707025 0.111858
O O10 0.041447 0.887672 0.032958
O O11 0.070179 0.865711 0.168889
O O12 0.500000 0.004497 0.275112
O O13 0.431222 0.140810 0.344640
O O14 0.356335 0.853149 0.558572
O O15 0.657729 0.681130 0.193776
O O16 0.750000 0.160261 0.250000
#
# Coordination Sequence:
#
# PCOD9479132 Si02
#       8
#    16  16  16  16   4  16  16  16
#     4  11  21  35  61 103 140 170 233 293 361 434
#     4   9  18  34  60  82 115 180 240 300 345 409
#     4   9  20  41  70  96 132 181 231 286 344 448
#     4  10  20  37  62  93 133 179 220 277 356 445
#     4   8  20  44  72  98 124 176 232 284 352 426
#     4   9  18  36  57  85 120 177 251 296 338 411
#     4  10  22  36  57  94 136 175 227 300 357 424
#     4  10  21  36  56  91 146 198 231 288 370 443
#
# _framework density 25.171572000000001
#
# number of rings (size 3 to 8) (size 9 to 14) (size 15 to 20)
#    0.414    1.931    0.000    2.897    0.000    4.966 
#    0.000   11.034    0.000   11.586    0.000    0.000 
#    0.000    5.517    0.000    0.000    0.000    0.552 
#
# Total GULP energy -322875.818473 kJ/mol
# GULP energy per Si atom -5566.824456 kJ/mol
# Density = 2.511428 g / cm^3
# Si number density = 25.171572 Si / 1000 Ang^3
#
#
#
# Elastic Constant Matrix: (Units=GPa)
#
#
# Indices 1 2 3 4 5 6 
#
# 1 59.6787 43.4028 9.7060 0.0000 0.0000 0.0000
# 2 43.4028 124.4672 22.0500 0.0000 0.0000 0.0000
# 3 9.7060 22.0500 65.7396 0.0000 0.0000 0.0000
# 4 0.0000 0.0000 0.0000 14.7997 0.0000 0.0000
# 5 0.0000 0.0000 0.0000 0.0000 17.6894 0.0000
# 6 0.0000 0.0000 0.0000 0.0000 0.0000 31.6113
#
#
#
# Elastic Compliance Matrix: (Units=1/GPa)
#
#
# Indices 1 2 3 4 5 6 
#
# 1 0.022483 -0.007710 -0.000733 0.000000 0.000000 0.000000
# 2 -0.007710 0.011186 -0.002614 0.000000 0.000000 0.000000
# 3 -0.000733 -0.002614 0.016196 0.000000 0.000000 0.000000
# 4 0.000000 0.000000 0.000000 0.067569 0.000000 0.000000
# 5 0.000000 0.000000 0.000000 0.000000 0.056531 0.000000
# 6 0.000000 0.000000 0.000000 0.000000 0.000000 0.031634
#
#
# Mechanical properties :
#
#
# Convention : Reuss Voigt Hill
#
# Bulk Modulus (GPa) = 36.03445 44.46702 40.25074
# Shear Modulus (GPa) = 21.10025 24.46853 22.78439
#
# Velocity S-wave (km/s) = 2.89841 3.12119 3.01186
# Velocity P-wave (km/s) = 5.05447 5.54013 5.30286
#
# Compressibility (1/GPa) = 0.02775122
#
# Stress axis : x y z
#
# Youngs Moduli (GPa) = 44.47794 89.39886 61.74203
#
# Poissons Ratio (x) = 0.68927 0.04528
# Poissons Ratio (y) = 0.34293 0.16137
# Poissons Ratio (z) = 0.03262 0.23365
#
# Static dielectric constant tensor:
#      x y z
#    x 1.996310 0.000000 0.000000 
#    y 0.000000 2.037900 0.000000 
#    z 0.000000 0.000000 2.118010 
# 
# From -- ./inp_files/46952.got.cif
#   From: 2010.05.17/outbox.cif.g08.bks.cpg/sg64_24_cif.got.tgz:46952.got - 2010.06.03 16:29:19.
