data_PCOD9479575
_publ_section_title
;
Structure prediction by ZEFSAII (Michael W. Deem and Ramdas Pophale) SiO2 
 PCOD9479575
Probable space group: C M C A
;
_chemical_formula_sum "Si O2"
_cell_formula_units_Z 92
_cell_length_a 21.051621
_cell_length_b 8.118794
_cell_length_c 25.727991
_cell_angle_alpha 90.000000
_cell_angle_beta 90.000000
_cell_angle_gamma 90.000000
_cell_volume 4397.268046
_symmetry_space_group_name_H-M "C M C A"
_symmetry_group_IT_number 64
_symmetry_cell_setting 'orthorhombic'
loop_
_space_group_symop_operation_xyz
x,y,z
-x,1/2-y,1/2+z
x,-y,-z
-x,1/2+y,1/2-z
-x,-y,-z
x,1/2+y,1/2-z
-x,y,z
x,1/2-y,1/2+z
1/2+x,1/2+y,z
1/2-x,-y,1/2+z
1/2+x,1/2-y,-z
1/2-x,y,1/2-z
1/2-x,1/2-y,-z
1/2+x,y,1/2-z
1/2-x,1/2+y,z
1/2+x,-y,1/2+z
loop_
_atom_site_type_symbol
_atom_site_label
_atom_site_fract_x
_atom_site_fract_y
_atom_site_fract_z
Si Si1 0.213458 0.455624 0.415771
Si Si2 0.178968 0.746943 0.687359
Si Si3 0.846749 0.682055 0.921180
Si Si4 0.500000 0.000000 0.500000
Si Si5 0.250000 0.504759 0.750000
Si Si6 0.074884 0.555401 0.133917
Si Si7 0.108462 0.262493 0.468351
O O1 0.199170 0.353721 0.363404
O O2 0.184596 0.638323 0.413103
O O3 0.288254 0.445781 0.426246
O O4 0.175881 0.349689 0.458568
O O5 0.190431 0.618012 0.733874
O O6 0.228106 0.891557 0.702235
O O7 0.111893 0.832290 0.675804
O O8 0.890507 0.620631 0.873765
O O9 0.887790 0.688451 0.973936
O O10 0.555356 0.097842 0.532116
O O11 0.089716 0.640651 0.078032
O O12 0.000000 0.543513 0.142533
#
# Coordination Sequence:
#
# PCOD9479575 Si02
#       7
#    16  16  16   4   8  16  16
#     4  11  22  39  59  92 125 159 209 258 309 348
#     4  10  22  40  67  95 119 153 186 252 302 378
#     4  12  23  36  59  87 126 169 211 259 295 347
#     4  12  20  40  58  84 124 172 228 244 304 356
#     4  10  20  42  72  96 118 142 194 240 324 370
#     4  11  25  41  59  87 126 163 208 247 301 362
#     4  11  23  38  60  85 123 173 217 253 296 357
#
# _framework density 20.922082
#
# number of rings (size 3 to 8) (size 9 to 14) (size 15 to 20)
#    0.000    1.043    2.609    5.217    1.217    3.478 
#    0.000    0.870    0.000    0.000    0.000    0.000 
#    0.000    0.000    0.000    0.000    0.000    0.000 
#
# Total GULP energy -256484.056676 kJ/mol
# GULP energy per Si atom -5575.740363 kJ/mol
# Density = 2.087446 g / cm^3
# Si number density = 20.922082 Si / 1000 Ang^3
#
#
#
# Elastic Constant Matrix: (Units=GPa)
#
#
# Indices 1 2 3 4 5 6 
#
# 1 117.4422 18.8987 9.6103 0.0000 0.0000 0.0000
# 2 18.8987 101.6687 24.4299 0.0000 0.0000 0.0000
# 3 9.6103 24.4299 54.6595 0.0000 0.0000 0.0000
# 4 0.0000 0.0000 0.0000 30.5683 0.0000 0.0000
# 5 0.0000 0.0000 0.0000 0.0000 21.0372 0.0000
# 6 0.0000 0.0000 0.0000 0.0000 0.0000 -136.2588
#
#
#
# Elastic Compliance Matrix: (Units=1/GPa)
#
#
# Indices 1 2 3 4 5 6 
#
# 1 0.008818 -0.001419 -0.000916 0.000000 0.000000 0.000000
# 2 -0.001419 0.011248 -0.004778 0.000000 0.000000 0.000000
# 3 -0.000916 -0.004778 0.020592 0.000000 0.000000 0.000000
# 4 0.000000 0.000000 0.000000 0.032714 0.000000 0.000000
# 5 0.000000 0.000000 0.000000 0.000000 0.047535 0.000000
# 6 0.000000 0.000000 0.000000 0.000000 0.000000 -0.007339
#
#
# Mechanical properties :
#
#
# Convention : Reuss Voigt Hill
#
# Bulk Modulus (GPa) = 37.83340 42.18312 40.00826
# Shear Modulus (GPa) = 36.60243 -2.20856 17.19693
#
# Velocity S-wave (km/s) = 4.18720 -1.02855 2.87008
# Velocity P-wave (km/s) = 6.44198 4.33535 5.49064
#
# Compressibility (1/GPa) = 0.02643167
#
# Stress axis : x y z
#
# Youngs Moduli (GPa) = 113.40252 88.90749 48.56372
#
# Poissons Ratio (x) = 0.12616 0.04449
# Poissons Ratio (y) = 0.16092 0.23202
# Poissons Ratio (z) = 0.10390 0.42476
#
# Static dielectric constant tensor:
#      x y z
#    x 1.688270 0.000000 0.000000 
#    y 0.000000 1.846450 0.000000 
#    z 0.000000 0.000000 1.775500 
# 
# From -- ./inp_files/50721.got.cif
#   From: 2010.05.17/outbox.cif.g08.bks.cpg/sg64_26_cif.got.tgz:50721.got - 2010.06.03 16:29:19.
