data_PCOD9479043
_publ_section_title
;
Structure prediction by ZEFSAII (Michael W. Deem and Ramdas Pophale) SiO2 
 PCOD9479043
Probable space group: C M C A
;
_chemical_formula_sum "Si O2"
_cell_formula_units_Z 72
_cell_length_a 9.726740
_cell_length_b 24.329564
_cell_length_c 14.833991
_cell_angle_alpha 90.000000
_cell_angle_beta 90.000000
_cell_angle_gamma 90.000000
_cell_volume 3510.424561
_symmetry_space_group_name_H-M "C M C A"
_symmetry_group_IT_number 64
_symmetry_cell_setting 'orthorhombic'
loop_
_space_group_symop_operation_xyz
x,y,z
-x,1/2-y,1/2+z
x,-y,-z
-x,1/2+y,1/2-z
-x,-y,-z
x,1/2+y,1/2-z
-x,y,z
x,1/2-y,1/2+z
1/2+x,1/2+y,z
1/2-x,-y,1/2+z
1/2+x,1/2-y,-z
1/2-x,y,1/2-z
1/2-x,1/2-y,-z
1/2+x,y,1/2-z
1/2-x,1/2+y,z
1/2+x,-y,1/2+z
loop_
_atom_site_type_symbol
_atom_site_label
_atom_site_fract_x
_atom_site_fract_y
_atom_site_fract_z
Si Si1 0.841073 0.542507 0.609060
Si Si2 0.250000 0.870336 0.250000
Si Si3 0.848152 0.283161 0.113947
Si Si4 0.833280 0.576553 0.407684
Si Si5 0.838946 0.317215 0.905120
O O1 0.827612 0.588845 0.683186
O O2 0.792566 0.565656 0.512878
O O3 0.788040 0.481916 0.635490
O O4 0.000000 0.531350 0.592292
O O5 0.160386 0.830894 0.312741
O O6 0.732013 0.237907 0.132123
O O7 0.000000 0.257116 0.114151
O O8 0.827727 0.308743 0.014099
O O9 0.748234 0.629493 0.377177
O O10 0.000000 0.585909 0.400217
O O11 0.000000 0.321475 0.882273
#
# Coordination Sequence:
#
# PCOD9479043 Si02
#       5
#    16   8  16  16  16
#     4   9  19  33  56  85 115 152 188 229 285 344
#     4  12  20  36  58  88 120 144 186 244 292 336
#     4  10  22  36  55  85 118 152 189 236 293 343
#     4   9  17  36  60  83 112 152 196 231 275 342
#     4  10  20  37  58  84 113 152 198 237 280 339
#
# _framework density 20.510341
#
# number of rings (size 3 to 8) (size 9 to 14) (size 15 to 20)
#    0.000    2.222    2.222    2.667    0.000    2.667 
#    0.000    5.556    0.000    2.667    0.000    0.000 
#    0.000    0.000    0.000    0.000    0.000    0.000 
#
# Total GULP energy -200692.635376 kJ/mol
# GULP energy per Si atom -5574.795427 kJ/mol
# Density = 2.046366 g / cm^3
# Si number density = 20.510341 Si / 1000 Ang^3
#
#
#
# Elastic Constant Matrix: (Units=GPa)
#
#
# Indices 1 2 3 4 5 6 
#
# 1 98.0710 70.3274 6.1698 0.0000 0.0000 0.0000
# 2 70.3274 159.8098 23.9254 0.0000 0.0000 0.0000
# 3 6.1698 23.9254 54.5382 0.0000 0.0000 0.0000
# 4 0.0000 0.0000 0.0000 39.8124 0.0000 0.0000
# 5 0.0000 0.0000 0.0000 0.0000 3.8118 0.0000
# 6 0.0000 0.0000 0.0000 0.0000 0.0000 33.2479
#
#
#
# Elastic Compliance Matrix: (Units=1/GPa)
#
#
# Indices 1 2 3 4 5 6 
#
# 1 0.014981 -0.006785 0.001282 0.000000 0.000000 0.000000
# 2 -0.006785 0.009770 -0.003518 0.000000 0.000000 0.000000
# 3 0.001282 -0.003518 0.019734 0.000000 0.000000 0.000000
# 4 0.000000 0.000000 0.000000 0.025118 0.000000 0.000000
# 5 0.000000 0.000000 0.000000 0.000000 0.262343 0.000000
# 6 0.000000 0.000000 0.000000 0.000000 0.000000 0.030077
#
#
# Mechanical properties :
#
#
# Convention : Reuss Voigt Hill
#
# Bulk Modulus (GPa) = 37.81792 57.02935 47.42363
# Shear Modulus (GPa) = 12.85739 29.50753 21.18246
#
# Velocity S-wave (km/s) = 2.50646 3.79709 3.21716
# Velocity P-wave (km/s) = 5.18218 6.86217 6.08047
#
# Compressibility (1/GPa) = 0.02644249
#
# Stress axis : x y z
#
# Youngs Moduli (GPa) = 66.74917 102.35470 50.67324
#
# Poissons Ratio (x) = 0.69445 -0.06494
# Poissons Ratio (y) = 0.45288 0.17829
# Poissons Ratio (z) = -0.08555 0.36013
#
# Static dielectric constant tensor:
#      x y z
#    x 1.721670 0.000000 0.000000 
#    y 0.000000 1.751040 0.000000 
#    z 0.000000 0.000000 1.785300 
# 
# From -- ./inp_files/21179.got.cif
#   From: 2010.05.17/outbox.cif.g08.bks.cpg/sg64_11_cif.got.tgz:21179.got - 2010.06.03 16:29:19.
