data_PCOD9479264
_publ_section_title
;
Structure prediction by ZEFSAII (Michael W. Deem and Ramdas Pophale) SiO2 
 PCOD9479264
Probable space group: C M C A
;
_chemical_formula_sum "Si O2"
_cell_formula_units_Z 96
_cell_length_a 8.802492
_cell_length_b 19.934466
_cell_length_c 28.217543
_cell_angle_alpha 90.000000
_cell_angle_beta 90.000000
_cell_angle_gamma 90.000000
_cell_volume 4951.416288
_symmetry_space_group_name_H-M "C M C A"
_symmetry_group_IT_number 64
_symmetry_cell_setting 'orthorhombic'
loop_
_space_group_symop_operation_xyz
x,y,z
-x,1/2-y,1/2+z
x,-y,-z
-x,1/2+y,1/2-z
-x,-y,-z
x,1/2+y,1/2-z
-x,y,z
x,1/2-y,1/2+z
1/2+x,1/2+y,z
1/2-x,-y,1/2+z
1/2+x,1/2-y,-z
1/2-x,y,1/2-z
1/2-x,1/2-y,-z
1/2+x,y,1/2-z
1/2-x,1/2+y,z
1/2+x,-y,1/2+z
loop_
_atom_site_type_symbol
_atom_site_label
_atom_site_fract_x
_atom_site_fract_y
_atom_site_fract_z
Si Si1 0.684007 0.061934 0.064354
Si Si2 0.815798 0.408280 0.040452
Si Si3 0.321885 0.046429 0.798897
Si Si4 0.680046 0.727349 0.299241
Si Si5 0.820763 0.169882 0.629161
Si Si6 0.180615 0.591422 0.335486
O O1 0.500000 0.065361 0.069782
O O2 0.763527 0.091979 0.110091
O O3 0.725195 0.983025 0.058635
O O4 0.727825 0.096403 0.014557
O O5 0.764126 0.351518 0.077021
O O6 0.000000 0.407209 0.041562
O O7 0.500000 0.031832 0.792453
O O8 0.250000 0.071311 0.750000
O O9 0.308352 0.102619 0.839183
O O10 0.237522 0.978759 0.814064
O O11 0.500000 0.726422 0.295341
O O12 0.750000 0.753661 0.250000
O O13 0.731955 0.772774 0.343315
O O14 0.743807 0.653104 0.308228
O O15 0.000000 0.187918 0.626932
O O16 0.000000 0.596354 0.332541
#
# Coordination Sequence:
#
# PCOD9479264 Si02
#       6
#    16  16  16  16  16  16
#     4   9  16  33  60  90 120 156 196 237 292 348
#     4   8  15  31  60  91 121 155 193 236 289 350
#     4  11  22  37  59  86 118 151 192 243 295 350
#     4  12  26  44  63  84 115 157 200 245 298 357
#     4  10  20  38  62  90 120 154 194 239 291 349
#     4  12  24  39  59  86 119 155 198 246 295 349
#
# _framework density 19.388393000000001
#
# number of rings (size 3 to 8) (size 9 to 14) (size 15 to 20)
#    0.000    1.667    1.667    5.500    0.000    2.667 
#    0.000    3.333    0.000    0.000    0.000    0.000 
#    0.000    0.000    0.000    0.000    0.000    0.000 
#
# Total GULP energy -268224.811963 kJ/mol
# GULP energy per Si atom -5588.016916 kJ/mol
# Density = 1.934426 g / cm^3
# Si number density = 19.388393 Si / 1000 Ang^3
#
#
#
# Elastic Constant Matrix: (Units=GPa)
#
#
# Indices 1 2 3 4 5 6 
#
# 1 96.4190 23.9974 17.7274 0.0000 0.0000 0.0000
# 2 23.9974 42.6813 -4.3700 0.0000 0.0000 0.0000
# 3 17.7274 -4.3700 81.3035 0.0000 0.0000 0.0000
# 4 0.0000 0.0000 0.0000 44.8076 0.0000 0.0000
# 5 0.0000 0.0000 0.0000 0.0000 23.6714 0.0000
# 6 0.0000 0.0000 0.0000 0.0000 0.0000 16.4295
#
#
#
# Elastic Compliance Matrix: (Units=1/GPa)
#
#
# Indices 1 2 3 4 5 6 
#
# 1 0.012839 -0.007547 -0.003205 0.000000 0.000000 0.000000
# 2 -0.007547 0.027995 0.003150 0.000000 0.000000 0.000000
# 3 -0.003205 0.003150 0.013168 0.000000 0.000000 0.000000
# 4 0.000000 0.000000 0.000000 0.022318 0.000000 0.000000
# 5 0.000000 0.000000 0.000000 0.000000 0.042245 0.000000
# 6 0.000000 0.000000 0.000000 0.000000 0.000000 0.060866
#
#
# Mechanical properties :
#
#
# Convention : Reuss Voigt Hill
#
# Bulk Modulus (GPa) = 25.77413 32.79040 29.28227
# Shear Modulus (GPa) = 24.08863 29.18497 26.63680
#
# Velocity S-wave (km/s) = 3.52863 3.88400 3.71057
# Velocity P-wave (km/s) = 5.47029 6.08795 5.78736
#
# Compressibility (1/GPa) = 0.03879859
#
# Stress axis : x y z
#
# Youngs Moduli (GPa) = 77.88786 35.72047 75.94320
#
# Poissons Ratio (x) = 0.26958 0.24340
# Poissons Ratio (y) = 0.58781 -0.23924
# Poissons Ratio (z) = 0.24963 -0.11253
#
# Static dielectric constant tensor:
#      x y z
#    x 1.642300 0.000000 0.000000 
#    y 0.000000 1.663200 0.000000 
#    z 0.000000 0.000000 1.793240 
# 
# From -- ./inp_files/48094.got.cif
#   From: 2010.05.17/outbox.cif.g08.bks.cpg/sg64_25_cif.got.tgz:48094.got - 2010.06.03 16:29:19.
