data_PCOD9479401
_publ_section_title
;
Structure prediction by ZEFSAII (Michael W. Deem and Ramdas Pophale) SiO2 
 PCOD9479401
Probable space group: C M C A
;
_chemical_formula_sum "Si O2"
_cell_formula_units_Z 104
_cell_length_a 26.996447
_cell_length_b 9.199688
_cell_length_c 20.239708
_cell_angle_alpha 90.000000
_cell_angle_beta 90.000000
_cell_angle_gamma 90.000000
_cell_volume 5026.711403
_symmetry_space_group_name_H-M "C M C A"
_symmetry_group_IT_number 64
_symmetry_cell_setting 'orthorhombic'
loop_
_space_group_symop_operation_xyz
x,y,z
-x,1/2-y,1/2+z
x,-y,-z
-x,1/2+y,1/2-z
-x,-y,-z
x,1/2+y,1/2-z
-x,y,z
x,1/2-y,1/2+z
1/2+x,1/2+y,z
1/2-x,-y,1/2+z
1/2+x,1/2-y,-z
1/2-x,y,1/2-z
1/2-x,1/2-y,-z
1/2+x,y,1/2-z
1/2-x,1/2+y,z
1/2+x,-y,1/2+z
loop_
_atom_site_type_symbol
_atom_site_label
_atom_site_fract_x
_atom_site_fract_y
_atom_site_fract_z
Si Si1 0.556845 0.439924 0.425806
Si Si2 0.309958 0.972479 0.598933
Si Si3 0.145945 0.985922 0.667685
Si Si4 0.306615 0.280785 0.773801
Si Si5 0.725933 0.000000 0.000000
Si Si6 0.409113 0.144048 0.473243
Si Si7 0.669741 0.715215 0.444556
O O1 0.570595 0.500000 0.500000
O O2 0.500000 0.482830 0.414761
O O3 0.591619 0.487243 0.364420
O O4 0.561965 0.265175 0.433033
O O5 0.303056 0.902362 0.669307
O O6 0.264758 0.933653 0.552122
O O7 0.361609 0.915911 0.567938
O O8 0.308114 0.147379 0.593371
O O9 0.169410 0.133243 0.696913
O O10 0.156968 0.856407 0.719937
O O11 0.172212 0.922895 0.602697
O O12 0.250000 0.253582 0.750000
O O13 0.692750 0.855686 0.010667
O O14 0.384274 0.227657 0.535249
O O15 0.435875 0.000000 0.500000
#
# Coordination Sequence:
#
# PCOD9479401 Si02
#       7
#    16  16  16  16   8  16  16
#     4  11  23  44  76 106 129 166 217 280 353 404
#     4  11  23  39  60  90 132 175 226 269 326 385
#     4  12  25  46  66  91 140 176 229 276 330 389
#     4  12  27  44  63  93 131 191 229 272 319 395
#     4  12  22  30  58  94 132 176 230 270 318 394
#     4  10  20  39  64  98 131 163 202 270 339 399
#     4  11  22  37  60  92 133 176 214 271 329 387
#
# _framework density 20.689471999999999
#
# number of rings (size 3 to 8) (size 9 to 14) (size 15 to 20)
#    0.000    0.769    5.385    3.692    0.000    2.769 
#    0.000    1.538    0.000    0.000    0.000    0.000 
#    0.000    0.000    0.000    0.000    0.000    0.000 
#
# Total GULP energy -289787.814799 kJ/mol
# GULP energy per Si atom -5572.842592 kJ/mol
# Density = 2.064238 g / cm^3
# Si number density = 20.689472 Si / 1000 Ang^3
#
#
#
# Elastic Constant Matrix: (Units=GPa)
#
#
# Indices 1 2 3 4 5 6 
#
# 1 81.2318 46.9318 38.3123 0.0000 0.0000 0.0000
# 2 46.9318 157.3632 48.3904 0.0000 0.0000 0.0000
# 3 38.3123 48.3904 95.8153 0.0000 0.0000 0.0000
# 4 0.0000 0.0000 0.0000 44.8153 0.0000 0.0000
# 5 0.0000 0.0000 0.0000 0.0000 18.1257 0.0000
# 6 0.0000 0.0000 0.0000 0.0000 0.0000 31.3706
#
#
#
# Elastic Compliance Matrix: (Units=1/GPa)
#
#
# Indices 1 2 3 4 5 6 
#
# 1 0.016614 -0.003448 -0.004902 0.000000 0.000000 0.000000
# 2 -0.003448 0.008238 -0.002782 0.000000 0.000000 0.000000
# 3 -0.004902 -0.002782 0.013802 0.000000 0.000000 0.000000
# 4 0.000000 0.000000 0.000000 0.022314 0.000000 0.000000
# 5 0.000000 0.000000 0.000000 0.000000 0.055170 0.000000
# 6 0.000000 0.000000 0.000000 0.000000 0.000000 0.031877
#
#
# Mechanical properties :
#
#
# Convention : Reuss Voigt Hill
#
# Bulk Modulus (GPa) = 61.00939 66.85324 63.93131
# Shear Modulus (GPa) = 28.45053 32.24737 30.34895
#
# Velocity S-wave (km/s) = 3.71229 3.95224 3.83414
# Velocity P-wave (km/s) = 6.92293 7.29450 7.11114
#
# Compressibility (1/GPa) = 0.01639092
#
# Stress axis : x y z
#
# Youngs Moduli (GPa) = 60.18882 121.38162 72.45312
#
# Poissons Ratio (x) = 0.41847 0.35518
# Poissons Ratio (y) = 0.20751 0.20158
# Poissons Ratio (z) = 0.29506 0.33771
#
# Static dielectric constant tensor:
#      x y z
#    x 1.762730 0.000000 0.000000 
#    y 0.000000 1.818960 0.000000 
#    z 0.000000 0.000000 1.863740 
# 
# From -- ./inp_files/41864.got.cif
#   From: 2010.05.17/outbox.cif.g08.bks.cpg/sg64_21_cif.got.tgz:41864.got - 2010.06.03 16:29:19.
