data_PCOD9479457
_publ_section_title
;
Structure prediction by ZEFSAII (Michael W. Deem and Ramdas Pophale) SiO2 
 PCOD9479457
Probable space group: C M C A
;
_chemical_formula_sum "Si O2"
_cell_formula_units_Z 112
_cell_length_a 26.140535
_cell_length_b 14.778725
_cell_length_c 14.533994
_cell_angle_alpha 90.000000
_cell_angle_beta 90.000000
_cell_angle_gamma 90.000000
_cell_volume 5614.827473
_symmetry_space_group_name_H-M "C M C A"
_symmetry_group_IT_number 64
_symmetry_cell_setting 'orthorhombic'
loop_
_space_group_symop_operation_xyz
x,y,z
-x,1/2-y,1/2+z
x,-y,-z
-x,1/2+y,1/2-z
-x,-y,-z
x,1/2+y,1/2-z
-x,y,z
x,1/2-y,1/2+z
1/2+x,1/2+y,z
1/2-x,-y,1/2+z
1/2+x,1/2-y,-z
1/2-x,y,1/2-z
1/2-x,1/2-y,-z
1/2+x,y,1/2-z
1/2-x,1/2+y,z
1/2+x,-y,1/2+z
loop_
_atom_site_type_symbol
_atom_site_label
_atom_site_fract_x
_atom_site_fract_y
_atom_site_fract_z
Si Si1 0.169016 0.972022 0.593347
Si Si2 0.858645 0.588815 0.537361
Si Si3 0.602288 0.034122 0.733363
Si Si4 0.224194 0.638667 0.846486
Si Si5 0.941129 0.619690 0.384812
Si Si6 0.618453 0.720406 0.716173
Si Si7 0.683672 0.237102 0.102433
O O1 0.186053 0.868493 0.582165
O O2 0.139645 0.000000 0.500000
O O3 0.135281 0.987251 0.685701
O O4 0.215140 0.044720 0.600845
O O5 0.829950 0.500000 0.500000
O O6 0.863740 0.565786 0.645387
O O7 0.910781 0.593990 0.477936
O O8 0.836644 0.689462 0.529261
O O9 0.583184 0.131622 0.768348
O O10 0.564036 0.963471 0.687227
O O11 0.250000 0.611583 0.750000
O O12 0.167948 0.680869 0.836123
O O13 0.261195 0.719138 0.878094
O O14 0.911338 0.702362 0.337135
O O15 0.000000 0.639843 0.403264
O O16 0.644105 0.755934 0.811149
#
# Coordination Sequence:
#
# PCOD9479457 Si02
#       7
#    16  16  16  16  16  16  16
#     4  11  23  38  61  93 127 173 213 259 311 387
#     4   9  21  39  63  93 127 168 209 270 322 382
#     4   9  20  41  62  86 131 166 206 262 329 384
#     4   9  21  39  60  92 126 173 215 254 315 380
#     4  11  22  39  68  99 122 163 223 277 334 389
#     4   9  19  39  61  91 127 167 205 262 324 377
#     4  10  20  40  62  89 129 170 210 254 312 385
#
# _framework density 19.947185000000001
#
# number of rings (size 3 to 8) (size 9 to 14) (size 15 to 20)
#    0.000    2.286    1.429    0.857    4.000    6.000 
#    7.714    2.143    0.000    0.429    0.000    0.000 
#    0.000    0.000    0.000    0.000    0.000    0.000 
#
# Total GULP energy -311813.509071 kJ/mol
# GULP energy per Si atom -5568.098376 kJ/mol
# Density = 1.990178 g / cm^3
# Si number density = 19.947185 Si / 1000 Ang^3
#
#
#
# Elastic Constant Matrix: (Units=GPa)
#
#
# Indices 1 2 3 4 5 6 
#
# 1 66.6285 30.9060 30.0374 0.0000 0.0000 0.0000
# 2 30.9060 183.7338 49.3567 0.0000 0.0000 0.0000
# 3 30.0374 49.3567 94.9986 0.0000 0.0000 0.0000
# 4 0.0000 0.0000 0.0000 36.3624 0.0000 0.0000
# 5 0.0000 0.0000 0.0000 0.0000 13.5331 0.0000
# 6 0.0000 0.0000 0.0000 0.0000 0.0000 9.5424
#
#
#
# Elastic Compliance Matrix: (Units=1/GPa)
#
#
# Indices 1 2 3 4 5 6 
#
# 1 0.017969 -0.001739 -0.004778 0.000000 0.000000 0.000000
# 2 -0.001739 0.006494 -0.002824 0.000000 0.000000 0.000000
# 3 -0.004778 -0.002824 0.013504 0.000000 0.000000 0.000000
# 4 0.000000 0.000000 0.000000 0.027501 0.000000 0.000000
# 5 0.000000 0.000000 0.000000 0.000000 0.073893 0.000000
# 6 0.000000 0.000000 0.000000 0.000000 0.000000 0.104795
#
#
# Mechanical properties :
#
#
# Convention : Reuss Voigt Hill
#
# Bulk Modulus (GPa) = 51.85322 62.88455 57.36889
# Shear Modulus (GPa) = 18.56892 27.55832 23.06362
#
# Velocity S-wave (km/s) = 3.05438 3.72097 3.40403
# Velocity P-wave (km/s) = 6.20409 7.07494 6.65378
#
# Compressibility (1/GPa) = 0.01928520
#
# Stress axis : x y z
#
# Youngs Moduli (GPa) = 55.65030 153.99303 74.04955
#
# Poissons Ratio (x) = 0.26781 0.35382
# Poissons Ratio (y) = 0.09678 0.20912
# Poissons Ratio (z) = 0.26591 0.43488
#
# Static dielectric constant tensor:
#      x y z
#    x 1.681920 0.000000 0.000000 
#    y 0.000000 1.745310 0.000000 
#    z 0.000000 0.000000 1.778520 
# 
# From -- ./inp_files/28073.got.cif
#   From: 2010.05.17/outbox.cif.g08.bks.cpg/sg64_15_cif.got.tgz:28073.got - 2010.06.03 16:29:19.
