data_PCOD9479422
_publ_section_title
;
Structure prediction by ZEFSAII (Michael W. Deem and Ramdas Pophale) SiO2 
 PCOD9479422
Probable space group: C M C A
;
_chemical_formula_sum "Si O2"
_cell_formula_units_Z 112
_cell_length_a 14.005142
_cell_length_b 14.603429
_cell_length_c 25.157942
_cell_angle_alpha 90.000000
_cell_angle_beta 90.000000
_cell_angle_gamma 90.000000
_cell_volume 5145.380208
_symmetry_space_group_name_H-M "C M C A"
_symmetry_group_IT_number 64
_symmetry_cell_setting 'orthorhombic'
loop_
_space_group_symop_operation_xyz
x,y,z
-x,1/2-y,1/2+z
x,-y,-z
-x,1/2+y,1/2-z
-x,-y,-z
x,1/2+y,1/2-z
-x,y,z
x,1/2-y,1/2+z
1/2+x,1/2+y,z
1/2-x,-y,1/2+z
1/2+x,1/2-y,-z
1/2-x,y,1/2-z
1/2-x,1/2-y,-z
1/2+x,y,1/2-z
1/2-x,1/2+y,z
1/2+x,-y,1/2+z
loop_
_atom_site_type_symbol
_atom_site_label
_atom_site_fract_x
_atom_site_fract_y
_atom_site_fract_z
Si Si1 0.386782 0.853286 0.094573
Si Si2 0.392796 0.495595 0.846336
Si Si3 0.110088 0.074642 0.963591
Si Si4 0.733784 0.373298 0.687205
Si Si5 0.616040 0.277855 0.518568
Si Si6 0.767050 0.166203 0.812683
Si Si7 0.386720 0.060276 0.095669
O O1 0.500000 0.842483 0.106621
O O2 0.322393 0.841788 0.146937
O O3 0.371137 0.957808 0.074799
O O4 0.362708 0.790526 0.043846
O O5 0.500000 0.487202 0.825780
O O6 0.394657 0.526096 0.907226
O O7 0.335132 0.402016 0.838116
O O8 0.337463 0.581549 0.821437
O O9 0.148448 0.177568 0.962063
O O10 0.000000 0.086903 0.983289
O O11 0.160774 0.000000 0.000000
O O12 0.750000 0.389530 0.750000
O O13 0.698394 0.270098 0.677593
O O14 0.660360 0.434524 0.653970
O O15 0.500000 0.282632 0.522394
O O16 0.651040 0.360218 0.556514
O O17 0.750000 0.164436 0.750000
O O18 0.500000 0.072722 0.101261
#
# Coordination Sequence:
#
# PCOD9479422 Si02
#       7
#    16  16  16  16  16  16  16
#     4  10  21  38  66  97 128 168 213 268 335 398
#     4  11  24  44  68  94 130 176 221 267 329 395
#     4   9  19  36  58  87 126 169 209 257 313 381
#     4  11  25  44  65  95 133 171 222 281 329 391
#     4   9  18  35  62  96 130 164 213 271 330 397
#     4  11  25  45  65  94 132 168 221 279 328 391
#     4  10  20  39  67  95 128 167 212 268 334 396
#
# _framework density 21.767099000000002
#
# number of rings (size 3 to 8) (size 9 to 14) (size 15 to 20)
#    0.000    1.857    1.429    1.714    2.000    5.143 
#    2.571    4.286    0.000    0.000    0.000    0.000 
#    0.000    0.000    0.000    0.000    0.000    0.000 
#
# Total GULP energy -312579.493553 kJ/mol
# GULP energy per Si atom -5581.776671 kJ/mol
# Density = 2.171756 g / cm^3
# Si number density = 21.767099 Si / 1000 Ang^3
#
#
#
# Elastic Constant Matrix: (Units=GPa)
#
#
# Indices 1 2 3 4 5 6 
#
# 1 34.8269 -10.5386 -5.8268 0.0000 0.0000 0.0000
# 2 -10.5386 38.3799 -1.3664 0.0000 0.0000 0.0000
# 3 -5.8268 -1.3664 75.6511 0.0000 0.0000 0.0000
# 4 0.0000 0.0000 0.0000 32.5593 0.0000 0.0000
# 5 0.0000 0.0000 0.0000 0.0000 60.2871 0.0000
# 6 0.0000 0.0000 0.0000 0.0000 0.0000 22.7985
#
#
#
# Elastic Compliance Matrix: (Units=1/GPa)
#
#
# Indices 1 2 3 4 5 6 
#
# 1 0.031822 0.008831 0.002611 0.000000 0.000000 0.000000
# 2 0.008831 0.028523 0.001195 0.000000 0.000000 0.000000
# 3 0.002611 0.001195 0.013441 0.000000 0.000000 0.000000
# 4 0.000000 0.000000 0.000000 0.030713 0.000000 0.000000
# 5 0.000000 0.000000 0.000000 0.000000 0.016587 0.000000
# 6 0.000000 0.000000 0.000000 0.000000 0.000000 0.043863
#
#
# Mechanical properties :
#
#
# Convention : Reuss Voigt Hill
#
# Bulk Modulus (GPa) = 10.09488 12.59937 11.34712
# Shear Modulus (GPa) = 28.95264 34.23496 31.59380
#
# Velocity S-wave (km/s) = 3.65102 3.97014 3.81392
# Velocity P-wave (km/s) = 4.73509 5.17850 4.96175
#
# Compressibility (1/GPa) = 0.09906013
#
# Stress axis : x y z
#
# Youngs Moduli (GPa) = 31.42433 35.05974 74.39796
#
# Poissons Ratio (x) = -0.30961 -0.19422
# Poissons Ratio (y) = -0.27751 -0.08893
# Poissons Ratio (z) = -0.08203 -0.04191
#
# Static dielectric constant tensor:
#      x y z
#    x 1.835130 0.000000 0.000000 
#    y 0.000000 1.859350 0.000000 
#    z 0.000000 0.000000 1.728740 
# 
# From -- ./inp_files/45244.got.cif
#   From: 2010.05.17/outbox.cif.g08.bks.cpg/sg64_23_cif.got.tgz:45244.got - 2010.06.03 16:29:19.
