data_PCOD9479648
_publ_section_title
;
Structure prediction by ZEFSAII (Michael W. Deem and Ramdas Pophale) SiO2 
 PCOD9479648
Probable space group: C M C A
;
_chemical_formula_sum "Si O2"
_cell_formula_units_Z 96
_cell_length_a 14.291246
_cell_length_b 21.740584
_cell_length_c 15.088679
_cell_angle_alpha 90.000000
_cell_angle_beta 90.000000
_cell_angle_gamma 90.000000
_cell_volume 4688.053080
_symmetry_space_group_name_H-M "C M C A"
_symmetry_group_IT_number 64
_symmetry_cell_setting 'orthorhombic'
loop_
_space_group_symop_operation_xyz
x,y,z
-x,1/2-y,1/2+z
x,-y,-z
-x,1/2+y,1/2-z
-x,-y,-z
x,1/2+y,1/2-z
-x,y,z
x,1/2-y,1/2+z
1/2+x,1/2+y,z
1/2-x,-y,1/2+z
1/2+x,1/2-y,-z
1/2-x,y,1/2-z
1/2-x,1/2-y,-z
1/2+x,y,1/2-z
1/2-x,1/2+y,z
1/2+x,-y,1/2+z
loop_
_atom_site_type_symbol
_atom_site_label
_atom_site_fract_x
_atom_site_fract_y
_atom_site_fract_z
Si Si1 0.831069 0.784925 0.324011
Si Si2 0.893265 0.021121 0.617428
Si Si3 0.692938 0.849876 0.631988
Si Si4 0.100807 0.394133 0.286371
Si Si5 0.752123 0.386034 0.442235
Si Si6 0.390297 0.885963 0.807516
O O1 0.750000 0.777526 0.250000
O O2 0.855078 0.716592 0.355044
O O3 0.897918 0.830442 0.269277
O O4 0.800900 0.823903 0.410591
O O5 0.883321 0.054312 0.712612
O O6 0.820657 0.057546 0.556211
O O7 0.000000 0.032385 0.587279
O O8 0.881578 0.949593 0.638953
O O9 0.693342 0.875341 0.533026
O O10 0.641985 0.892529 0.704892
O O11 0.805035 0.844285 0.654624
O O12 0.178972 0.396863 0.360162
O O13 0.000000 0.402557 0.328410
O O14 0.500000 0.866190 0.812949
#
# Coordination Sequence:
#
# PCOD9479648 Si02
#       6
#    16  16  16  16  16  16
#     4   9  17  37  57  80 113 153 189 233 287 355
#     4   9  19  39  61  83 114 157 203 242 287 350
#     4  11  22  37  58  88 118 152 195 247 301 348
#     4   9  19  35  60  87 115 154 195 235 289 353
#     4  10  21  34  61  89 116 146 195 255 300 337
#     4  10  23  40  59  80 118 166 199 233 292 361
#
# _framework density 20.477584
#
# number of rings (size 3 to 8) (size 9 to 14) (size 15 to 20)
#    0.000    2.333    1.667    2.000    4.667    2.667 
#    0.000    1.667    0.000    9.000    0.000    0.000 
#    0.000    0.000    0.000    0.000    0.000    0.000 
#
# Total GULP energy -267518.184487 kJ/mol
# GULP energy per Si atom -5573.295510 kJ/mol
# Density = 2.043098 g / cm^3
# Si number density = 20.477584 Si / 1000 Ang^3
#
#
#
# Elastic Constant Matrix: (Units=GPa)
#
#
# Indices 1 2 3 4 5 6 
#
# 1 67.4822 16.3112 16.4303 0.0000 0.0000 0.0000
# 2 16.3112 71.1738 21.7086 0.0000 0.0000 0.0000
# 3 16.4303 21.7086 106.7725 0.0000 0.0000 0.0000
# 4 0.0000 0.0000 0.0000 22.7487 0.0000 0.0000
# 5 0.0000 0.0000 0.0000 0.0000 -4.8932 0.0000
# 6 0.0000 0.0000 0.0000 0.0000 0.0000 -3.6078
#
#
#
# Elastic Compliance Matrix: (Units=1/GPa)
#
#
# Indices 1 2 3 4 5 6 
#
# 1 0.016017 -0.003112 -0.001832 0.000000 0.000000 0.000000
# 2 -0.003112 0.015584 -0.002690 0.000000 0.000000 0.000000
# 3 -0.001832 -0.002690 0.010194 0.000000 0.000000 0.000000
# 4 0.000000 0.000000 0.000000 0.043959 0.000000 0.000000
# 5 0.000000 0.000000 0.000000 0.000000 -0.204367 0.000000
# 6 0.000000 0.000000 0.000000 0.000000 0.000000 -0.277175
#
#
# Mechanical properties :
#
#
# Convention : Reuss Voigt Hill
#
# Bulk Modulus (GPa) = 37.69587 39.36988 38.53287
# Shear Modulus (GPa) = -13.45250 15.58143 1.06446
#
# Velocity S-wave (km/s) = -2.56586 2.76144 0.72177
# Velocity P-wave (km/s) = 3.10968 5.42540 4.42183
#
# Compressibility (1/GPa) = 0.02652811
#
# Stress axis : x y z
#
# Youngs Moduli (GPa) = 62.43386 64.16998 98.09259
#
# Poissons Ratio (x) = 0.19969 0.17971
# Poissons Ratio (y) = 0.19429 0.26382
# Poissons Ratio (z) = 0.11438 0.17259
#
# Static dielectric constant tensor:
#      x y z
#    x 1.748040 0.000000 0.000000 
#    y 0.000000 1.740650 0.000000 
#    z 0.000000 0.000000 1.729160 
# 
# From -- ./inp_files/23886.got.cif
#   From: 2010.05.17/outbox.cif.g08.bks.cpg/sg64_12_cif.got.tgz:23886.got - 2010.06.03 16:29:19.
