data_PCOD9479291
_publ_section_title
;
Structure prediction by ZEFSAII (Michael W. Deem and Ramdas Pophale) SiO2 
 PCOD9479291
Probable space group: C M C A
;
_chemical_formula_sum "Si O2"
_cell_formula_units_Z 104
_cell_length_a 18.874901
_cell_length_b 21.178503
_cell_length_c 12.945784
_cell_angle_alpha 90.000000
_cell_angle_beta 90.000000
_cell_angle_gamma 90.000000
_cell_volume 5174.975497
_symmetry_space_group_name_H-M "C M C A"
_symmetry_group_IT_number 64
_symmetry_cell_setting 'orthorhombic'
loop_
_space_group_symop_operation_xyz
x,y,z
-x,1/2-y,1/2+z
x,-y,-z
-x,1/2+y,1/2-z
-x,-y,-z
x,1/2+y,1/2-z
-x,y,z
x,1/2-y,1/2+z
1/2+x,1/2+y,z
1/2-x,-y,1/2+z
1/2+x,1/2-y,-z
1/2-x,y,1/2-z
1/2-x,1/2-y,-z
1/2+x,y,1/2-z
1/2-x,1/2+y,z
1/2+x,-y,1/2+z
loop_
_atom_site_type_symbol
_atom_site_label
_atom_site_fract_x
_atom_site_fract_y
_atom_site_fract_z
Si Si1 0.852825 0.922486 0.093351
Si Si2 0.500000 0.724811 0.436835
Si Si3 0.847300 0.409035 0.808807
Si Si4 0.728211 0.694209 0.857983
Si Si5 0.500000 0.371023 0.002696
Si Si6 0.000000 0.625516 0.248405
Si Si7 0.654130 0.303878 0.519288
Si Si8 0.288284 0.450006 0.879967
O O1 0.820319 0.867081 0.161927
O O2 0.841498 0.991562 0.141178
O O3 0.800050 0.928260 0.995386
O O4 0.929740 0.906569 0.046134
O O5 0.500000 0.800919 0.446374
O O6 0.500000 0.691240 0.321479
O O7 0.570466 0.701974 0.494574
O O8 0.930649 0.412368 0.789473
O O9 0.834689 0.355035 0.891845
O O10 0.793417 0.463093 0.851206
O O11 0.815795 0.395346 0.695633
O O12 0.750000 0.724760 0.750000
O O13 0.682429 0.738471 0.932851
O O14 0.800257 0.680179 0.919539
O O15 0.500000 0.367236 0.875059
#
# Coordination Sequence:
#
# PCOD9479291 Si02
#       8
#    16   8  16  16   8   8  16  16
#     4  11  23  41  60  95 128 168 210 272 331 372
#     4  10  22  40  61  95 134 170 211 263 328 392
#     4  10  20  38  63  93 124 165 214 257 318 389
#     4  11  24  38  61  91 128 165 218 268 320 385
#     4  12  22  42  64  95 138 165 214 278 335 379
#     4  10  22  37  66  98 128 172 221 261 323 397
#     4  10  22  40  62  91 124 170 212 263 323 390
#     4  10  22  37  66  88 125 169 213 265 315 384
#
# _framework density 20.096713000000001
#
# number of rings (size 3 to 8) (size 9 to 14) (size 15 to 20)
#    0.000    1.538    4.615    0.000    4.308    4.308 
#    0.000    0.000    0.000    2.769    0.000    0.000 
#    0.000    0.000    0.000    0.000    0.000    0.000 
#
# Total GULP energy -289488.511754 kJ/mol
# GULP energy per Si atom -5567.086764 kJ/mol
# Density = 2.005097 g / cm^3
# Si number density = 20.096713 Si / 1000 Ang^3
#
#
#
# Elastic Constant Matrix: (Units=GPa)
#
#
# Indices 1 2 3 4 5 6 
#
# 1 172.4358 35.7353 45.8720 0.0000 0.0000 0.0000
# 2 35.7353 53.4492 7.0538 0.0000 0.0000 0.0000
# 3 45.8720 7.0538 69.1027 0.0000 0.0000 0.0000
# 4 0.0000 0.0000 0.0000 6.3238 0.0000 0.0000
# 5 0.0000 0.0000 0.0000 0.0000 28.7745 0.0000
# 6 0.0000 0.0000 0.0000 0.0000 0.0000 11.8540
#
#
#
# Elastic Compliance Matrix: (Units=1/GPa)
#
#
# Indices 1 2 3 4 5 6 
#
# 1 0.008084 -0.004761 -0.004881 0.000000 0.000000 0.000000
# 2 -0.004761 0.021769 0.000938 0.000000 0.000000 0.000000
# 3 -0.004881 0.000938 0.017615 0.000000 0.000000 0.000000
# 4 0.000000 0.000000 0.000000 0.158133 0.000000 0.000000
# 5 0.000000 0.000000 0.000000 0.000000 0.034753 0.000000
# 6 0.000000 0.000000 0.000000 0.000000 0.000000 0.084359
#
#
# Mechanical properties :
#
#
# Convention : Reuss Voigt Hill
#
# Bulk Modulus (GPa) = 33.26476 52.47889 42.87183
# Shear Modulus (GPa) = 14.19889 23.14558 18.67224
#
# Velocity S-wave (km/s) = 2.66094 3.39737 3.05145
# Velocity P-wave (km/s) = 5.10187 6.44665 5.81328
#
# Compressibility (1/GPa) = 0.03006184
#
# Stress axis : x y z
#
# Youngs Moduli (GPa) = 123.69757 45.93775 56.76908
#
# Poissons Ratio (x) = 0.21871 0.27706
# Poissons Ratio (y) = 0.58891 -0.05327
# Poissons Ratio (z) = 0.60371 -0.04310
#
# Static dielectric constant tensor:
#      x y z
#    x 1.746820 0.000000 0.000000 
#    y 0.000000 1.767900 0.000000 
#    z 0.000000 0.000000 1.725070 
# 
# From -- ./inp_files/25663.got.cif
#   From: 2010.05.17/outbox.cif.g08.bks.cpg/sg64_13_cif.got.tgz:25663.got - 2010.06.03 16:29:19.
