data_PCOD9479119
_publ_section_title
;
Structure prediction by ZEFSAII (Michael W. Deem and Ramdas Pophale) SiO2 
 PCOD9479119
Probable space group: C M C A
;
_chemical_formula_sum "Si O2"
_cell_formula_units_Z 112
_cell_length_a 14.932929
_cell_length_b 12.717101
_cell_length_c 28.040845
_cell_angle_alpha 90.000000
_cell_angle_beta 90.000000
_cell_angle_gamma 90.000000
_cell_volume 5325.056468
_symmetry_space_group_name_H-M "C M C A"
_symmetry_group_IT_number 64
_symmetry_cell_setting 'orthorhombic'
loop_
_space_group_symop_operation_xyz
x,y,z
-x,1/2-y,1/2+z
x,-y,-z
-x,1/2+y,1/2-z
-x,-y,-z
x,1/2+y,1/2-z
-x,y,z
x,1/2-y,1/2+z
1/2+x,1/2+y,z
1/2-x,-y,1/2+z
1/2+x,1/2-y,-z
1/2-x,y,1/2-z
1/2-x,1/2-y,-z
1/2+x,y,1/2-z
1/2-x,1/2+y,z
1/2+x,-y,1/2+z
loop_
_atom_site_type_symbol
_atom_site_label
_atom_site_fract_x
_atom_site_fract_y
_atom_site_fract_z
Si Si1 0.604103 0.708790 0.202674
Si Si2 0.401343 0.517350 0.943627
Si Si3 0.350394 0.254593 0.090317
Si Si4 0.310241 0.139120 0.872114
Si Si5 0.238559 0.017622 0.196012
Si Si6 0.697177 0.033471 0.055222
Si Si7 0.899388 0.175795 0.309037
O O1 0.500000 0.686614 0.198045
O O2 0.629302 0.801001 0.166142
O O3 0.660504 0.603368 0.192538
O O4 0.622644 0.733661 0.258887
O O5 0.500000 0.483409 0.923505
O O6 0.390024 0.642074 0.934040
O O7 0.304334 0.465714 0.930367
O O8 0.406257 0.500000 0.000000
O O9 0.244943 0.276872 0.097701
O O10 0.352077 0.144115 0.063091
O O11 0.392350 0.241245 0.142735
O O12 0.236741 0.077480 0.840116
O O13 0.346282 0.053774 0.909570
O O14 0.250000 0.979842 0.250000
O O15 0.328772 0.082709 0.185234
O O16 0.693355 0.000000 0.000000
O O17 0.000000 0.134656 0.304105
#
# Coordination Sequence:
#
# PCOD9479119 Si02
#       7
#    16  16  16  16  16  16  16
#     4  10  22  40  61  92 130 167 206 256 312 372
#     4   9  20  38  62  89 119 158 207 262 317 376
#     4  11  21  38  62  89 124 162 205 256 319 372
#     4  11  21  37  63  91 122 166 207 256 316 370
#     4  10  21  37  61  87 126 165 205 254 306 375
#     4  10  22  40  64  94 122 164 217 260 319 386
#     4  10  20  37  62  88 123 166 206 250 310 376
#
# _framework density 21.032640000000001
#
# number of rings (size 3 to 8) (size 9 to 14) (size 15 to 20)
#    0.000    1.857    2.857    0.429    2.000    5.714 
#    0.000    7.143    0.000    7.286    0.000    0.000 
#    0.000    0.571    0.000    0.000    0.000    0.000 
#
# Total GULP energy -312276.080064 kJ/mol
# GULP energy per Si atom -5576.358573 kJ/mol
# Density = 2.098477 g / cm^3
# Si number density = 21.032640 Si / 1000 Ang^3
#
#
#
# Elastic Constant Matrix: (Units=GPa)
#
#
# Indices 1 2 3 4 5 6 
#
# 1 74.5106 22.1995 10.9848 0.0000 0.0000 0.0000
# 2 22.1995 81.9316 49.7159 0.0000 0.0000 0.0000
# 3 10.9848 49.7159 89.2018 0.0000 0.0000 0.0000
# 4 0.0000 0.0000 0.0000 32.2147 0.0000 0.0000
# 5 0.0000 0.0000 0.0000 0.0000 14.1972 0.0000
# 6 0.0000 0.0000 0.0000 0.0000 0.0000-1938.2434
#
#
#
# Elastic Compliance Matrix: (Units=1/GPa)
#
#
# Indices 1 2 3 4 5 6 
#
# 1 0.014622 -0.004335 0.000616 0.000000 0.000000 0.000000
# 2 -0.004335 0.019728 -0.010461 0.000000 0.000000 0.000000
# 3 0.000616 -0.010461 0.016965 0.000000 0.000000 0.000000
# 4 0.000000 0.000000 0.000000 0.031042 0.000000 0.000000
# 5 0.000000 0.000000 0.000000 0.000000 0.070436 0.000000
# 6 0.000000 0.000000 0.000000 0.000000 0.000000 -0.000516
#
#
# Mechanical properties :
#
#
# Convention : Reuss Voigt Hill
#
# Bulk Modulus (GPa) = 43.56743 45.71604 44.64174
# Shear Modulus (GPa) = 26.55480 -367.51670 -170.48095
#
# Velocity S-wave (km/s) = 3.55710 -13.23313 -9.01285
# Velocity P-wave (km/s) = 6.13431 14.55007 9.32939
#
# Compressibility (1/GPa) = 0.02295293
#
# Stress axis : x y z
#
# Youngs Moduli (GPa) = 68.39091 50.68975 58.94413
#
# Poissons Ratio (x) = 0.21976 -0.03629
# Poissons Ratio (y) = 0.29650 0.61663
# Poissons Ratio (z) = -0.04211 0.53028
#
# Static dielectric constant tensor:
#      x y z
#    x 1.786060 0.000000 0.000000 
#    y 0.000000 1.755560 0.000000 
#    z 0.000000 0.000000 1.760810 
# 
# From -- ./inp_files/53251.got.cif
#   From: 2010.05.17/outbox.cif.g08.bks.cpg/sg64_27_cif.got.tgz:53251.got - 2010.06.03 16:29:19.
