data_PCOD9479318
_publ_section_title
;
Structure prediction by ZEFSAII (Michael W. Deem and Ramdas Pophale) SiO2 
 PCOD9479318
Probable space group: C M C A
;
_chemical_formula_sum "Si O2"
_cell_formula_units_Z 96
_cell_length_a 20.462064
_cell_length_b 26.645277
_cell_length_c 8.031870
_cell_angle_alpha 90.000000
_cell_angle_beta 90.000000
_cell_angle_gamma 90.000000
_cell_volume 4379.114984
_symmetry_space_group_name_H-M "C M C A"
_symmetry_group_IT_number 64
_symmetry_cell_setting 'orthorhombic'
loop_
_space_group_symop_operation_xyz
x,y,z
-x,1/2-y,1/2+z
x,-y,-z
-x,1/2+y,1/2-z
-x,-y,-z
x,1/2+y,1/2-z
-x,y,z
x,1/2-y,1/2+z
1/2+x,1/2+y,z
1/2-x,-y,1/2+z
1/2+x,1/2-y,-z
1/2-x,y,1/2-z
1/2-x,1/2-y,-z
1/2+x,y,1/2-z
1/2-x,1/2+y,z
1/2+x,-y,1/2+z
loop_
_atom_site_type_symbol
_atom_site_label
_atom_site_fract_x
_atom_site_fract_y
_atom_site_fract_z
Si Si1 0.299271 0.450491 0.404734
Si Si2 0.572034 0.363595 0.756827
Si Si3 0.074184 0.120673 0.625601
Si Si4 0.203942 0.882469 0.885917
Si Si5 0.570297 0.795569 0.418213
Si Si6 0.295106 0.713209 0.900232
O O1 0.323053 0.500000 0.500000
O O2 0.250000 0.460528 0.250000
O O3 0.362620 0.416095 0.359619
O O4 0.250452 0.423530 0.535094
O O5 0.500000 0.387267 0.777768
O O6 0.579824 0.354105 0.558935
O O7 0.634377 0.397313 0.809332
O O8 0.571969 0.318449 0.893316
O O9 0.073960 0.160675 0.776718
O O10 0.000000 0.097603 0.629990
O O11 0.250000 0.856180 0.750000
O O12 0.190226 0.839681 0.017421
O O13 0.500000 0.769891 0.399139
O O14 0.633821 0.762687 0.379422
O O15 0.250000 0.699360 0.750000
O O16 0.250000 0.750000 0.000000
#
# Coordination Sequence:
#
# PCOD9479318 Si02
#       6
#    16  16  16  16  16  16
#     4  12  25  40  60  90 129 169 214 264 319 391
#     4   9  18  33  61  93 121 155 206 259 314 377
#     4  10  20  38  65  94 122 161 211 266 321 378
#     4  11  20  37  64  87 121 163 206 257 324 383
#     4   9  19  38  64  93 124 162 206 260 322 383
#     4  11  23  39  60  90 126 162 209 264 316 379
#
# _framework density 21.922239000000001
#
# number of rings (size 3 to 8) (size 9 to 14) (size 15 to 20)
#    0.000    1.667    1.667    4.500    0.000    0.333 
#    0.000    0.833    0.000    5.000    0.000    0.000 
#    0.000    0.000    0.000    0.000    0.000    0.000 
#
# Total GULP energy -267480.324189 kJ/mol
# GULP energy per Si atom -5572.506754 kJ/mol
# Density = 2.187234 g / cm^3
# Si number density = 21.922239 Si / 1000 Ang^3
#
#
#
# Elastic Constant Matrix: (Units=GPa)
#
#
# Indices 1 2 3 4 5 6 
#
# 1 225.2564 30.6421 39.9808 0.0000 0.0000 0.0000
# 2 30.6421 32.4398 12.8357 0.0000 0.0000 0.0000
# 3 39.9808 12.8357 113.9275 0.0000 0.0000 0.0000
# 4 0.0000 0.0000 0.0000 2.9145 0.0000 0.0000
# 5 0.0000 0.0000 0.0000 0.0000 38.3115 0.0000
# 6 0.0000 0.0000 0.0000 0.0000 0.0000 -4.0858
#
#
#
# Elastic Compliance Matrix: (Units=1/GPa)
#
#
# Indices 1 2 3 4 5 6 
#
# 1 0.005286 -0.004458 -0.001353 0.000000 0.000000 0.000000
# 2 -0.004458 0.036024 -0.002494 0.000000 0.000000 0.000000
# 3 -0.001353 -0.002494 0.009533 0.000000 0.000000 0.000000
# 4 0.000000 0.000000 0.000000 0.343113 0.000000 0.000000
# 5 0.000000 0.000000 0.000000 0.000000 0.026102 0.000000
# 6 0.000000 0.000000 0.000000 0.000000 0.000000 -0.244752
#
#
# Mechanical properties :
#
#
# Convention : Reuss Voigt Hill
#
# Bulk Modulus (GPa) = 29.21107 59.83787 44.52447
# Shear Modulus (GPa) = 24.59097 26.63904 25.61501
#
# Velocity S-wave (km/s) = 3.35287 3.48970 3.42197
# Velocity P-wave (km/s) = 5.32379 6.60243 5.99728
#
# Compressibility (1/GPa) = 0.03423360
#
# Stress axis : x y z
#
# Youngs Moduli (GPa) = 189.18329 27.75930 104.89590
#
# Poissons Ratio (x) = 0.12374 0.14190
# Poissons Ratio (y) = 0.84332 0.26164
# Poissons Ratio (z) = 0.25592 0.06924
#
# Static dielectric constant tensor:
#      x y z
#    x 1.880190 0.000000 0.000000 
#    y 0.000000 1.783320 0.000000 
#    z 0.000000 0.000000 1.864390 
# 
# From -- ./inp_files/8441.got.cif
#   From: 2010.05.17/outbox.cif.g08.bks.cpg/sg64_5_cif.got.tgz:8441.got - 2010.06.03 16:29:19.
