data_PCOD9479533
_publ_section_title
;
Structure prediction by ZEFSAII (Michael W. Deem and Ramdas Pophale) SiO2 
 PCOD9479533
Probable space group: C M C A
;
_chemical_formula_sum "Si O2"
_cell_formula_units_Z 96
_cell_length_a 15.058165
_cell_length_b 16.542371
_cell_length_c 19.148796
_cell_angle_alpha 90.000000
_cell_angle_beta 90.000000
_cell_angle_gamma 90.000000
_cell_volume 4769.922037
_symmetry_space_group_name_H-M "C M C A"
_symmetry_group_IT_number 64
_symmetry_cell_setting 'orthorhombic'
loop_
_space_group_symop_operation_xyz
x,y,z
-x,1/2-y,1/2+z
x,-y,-z
-x,1/2+y,1/2-z
-x,-y,-z
x,1/2+y,1/2-z
-x,y,z
x,1/2-y,1/2+z
1/2+x,1/2+y,z
1/2-x,-y,1/2+z
1/2+x,1/2-y,-z
1/2-x,y,1/2-z
1/2-x,1/2-y,-z
1/2+x,y,1/2-z
1/2-x,1/2+y,z
1/2+x,-y,1/2+z
loop_
_atom_site_type_symbol
_atom_site_label
_atom_site_fract_x
_atom_site_fract_y
_atom_site_fract_z
Si Si1 0.234781 0.071873 0.453094
Si Si2 0.898325 0.647840 0.935725
Si Si3 0.099103 0.940374 0.668321
Si Si4 0.642453 0.222161 0.246944
Si Si5 0.649385 0.397976 0.276291
Si Si6 0.096558 0.169662 0.097673
O O1 0.166295 0.116844 0.504438
O O2 0.175222 0.043371 0.388163
O O3 0.317283 0.121755 0.425218
O O4 0.271337 0.000000 0.500000
O O5 0.862393 0.626623 0.858034
O O6 0.901668 0.744349 0.940755
O O7 0.000000 0.617325 0.941531
O O8 0.113838 0.848599 0.694451
O O9 0.000000 0.945926 0.638759
O O10 0.107625 0.011939 0.726319
O O11 0.750000 0.223125 0.250000
O O12 0.614159 0.316404 0.237082
O O13 0.605635 0.192020 0.320925
O O14 0.750000 0.406968 0.250000
O O15 0.000000 0.130637 0.085734
#
# Coordination Sequence:
#
# PCOD9479533 Si02
#       6
#    16  16  16  16  16  16
#     4  12  24  38  63  93 128 165 209 260 309 376
#     4  10  21  41  66  92 125 166 208 254 317 380
#     4  12  24  38  63  94 131 167 209 266 315 373
#     4  10  20  41  65  90 122 165 209 258 317 375
#     4  10  22  38  64  91 125 163 209 256 314 378
#     4  10  22  41  65  88 121 169 211 256 316 376
#
# _framework density 20.126114999999999
#
# number of rings (size 3 to 8) (size 9 to 14) (size 15 to 20)
#    0.000    1.333    3.333    2.500    0.000    3.000 
#    0.000    0.000    0.000    2.000    0.000    0.000 
#    0.000    0.000    0.000    0.000    0.000    0.000 
#
# Total GULP energy -267701.900003 kJ/mol
# GULP energy per Si atom -5577.122917 kJ/mol
# Density = 2.008031 g / cm^3
# Si number density = 20.126115 Si / 1000 Ang^3
#
#
#
# Elastic Constant Matrix: (Units=GPa)
#
#
# Indices 1 2 3 4 5 6 
#
# 1 146.6285 27.6362 15.6710 0.0000 0.0000 0.0000
# 2 27.6362 95.9122 10.8137 0.0000 0.0000 0.0000
# 3 15.6710 10.8137 23.2711 0.0000 0.0000 0.0000
# 4 0.0000 0.0000 0.0000 31.3377 0.0000 0.0000
# 5 0.0000 0.0000 0.0000 0.0000 8.5790 0.0000
# 6 0.0000 0.0000 0.0000 0.0000 0.0000 100.4118
#
#
#
# Elastic Compliance Matrix: (Units=1/GPa)
#
#
# Indices 1 2 3 4 5 6 
#
# 1 0.007604 -0.001703 -0.004329 0.000000 0.000000 0.000000
# 2 -0.001703 0.011384 -0.004143 0.000000 0.000000 0.000000
# 3 -0.004329 -0.004143 0.047812 0.000000 0.000000 0.000000
# 4 0.000000 0.000000 0.000000 0.031910 0.000000 0.000000
# 5 0.000000 0.000000 0.000000 0.000000 0.116564 0.000000
# 6 0.000000 0.000000 0.000000 0.000000 0.000000 0.009959
#
#
# Mechanical properties :
#
#
# Convention : Reuss Voigt Hill
#
# Bulk Modulus (GPa) = 21.52870 41.56151 31.54510
# Shear Modulus (GPa) = 19.15218 42.17842 30.66530
#
# Velocity S-wave (km/s) = 3.08816 4.58285 3.90764
# Velocity P-wave (km/s) = 4.84105 6.97845 6.00560
#
# Compressibility (1/GPa) = 0.04644962
#
# Stress axis : x y z
#
# Youngs Moduli (GPa) = 131.51713 87.84263 20.91509
#
# Poissons Ratio (x) = 0.14958 0.09054
# Poissons Ratio (y) = 0.22395 0.08666
# Poissons Ratio (z) = 0.56935 0.36396
#
# Static dielectric constant tensor:
#      x y z
#    x 1.716590 0.000000 0.000000 
#    y 0.000000 1.783630 0.000000 
#    z 0.000000 0.000000 1.691630 
# 
# From -- ./inp_files/39188.got.cif
#   From: 2010.05.17/outbox.cif.g08.bks.cpg/sg64_20_cif.got.tgz:39188.got - 2010.06.03 16:29:19.
