data_PCOD9479041
_publ_section_title
;
Structure prediction by ZEFSAII (Michael W. Deem and Ramdas Pophale) SiO2 
 PCOD9479041
Probable space group: C M C A
;
_chemical_formula_sum "Si O2"
_cell_formula_units_Z 96
_cell_length_a 10.270714
_cell_length_b 25.037282
_cell_length_c 22.075054
_cell_angle_alpha 90.000000
_cell_angle_beta 90.000000
_cell_angle_gamma 90.000000
_cell_volume 5676.616974
_symmetry_space_group_name_H-M "C M C A"
_symmetry_group_IT_number 64
_symmetry_cell_setting 'orthorhombic'
loop_
_space_group_symop_operation_xyz
x,y,z
-x,1/2-y,1/2+z
x,-y,-z
-x,1/2+y,1/2-z
-x,-y,-z
x,1/2+y,1/2-z
-x,y,z
x,1/2-y,1/2+z
1/2+x,1/2+y,z
1/2-x,-y,1/2+z
1/2+x,1/2-y,-z
1/2-x,y,1/2-z
1/2-x,1/2-y,-z
1/2+x,y,1/2-z
1/2-x,1/2+y,z
1/2+x,-y,1/2+z
loop_
_atom_site_type_symbol
_atom_site_label
_atom_site_fract_x
_atom_site_fract_y
_atom_site_fract_z
Si Si1 0.151650 0.834529 0.302673
Si Si2 0.000000 0.016596 0.896482
Si Si3 0.152228 0.236647 0.579918
Si Si4 0.751269 0.338972 0.525060
Si Si5 0.500000 0.983660 0.099525
Si Si6 0.500000 0.411575 0.516926
Si Si7 0.242303 0.954436 0.321811
Si Si8 0.500000 0.085085 0.480190
O O1 0.250000 0.817883 0.250000
O O2 0.153270 0.790879 0.355141
O O3 0.207637 0.891370 0.325529
O O4 0.000000 0.842661 0.283526
O O5 0.874354 0.030170 0.856047
O O6 0.000000 0.956725 0.924228
O O7 0.000000 0.052849 0.956793
O O8 0.219279 0.294385 0.575895
O O9 0.226883 0.196643 0.534792
O O10 0.000000 0.241508 0.560263
O O11 0.625184 0.375801 0.530890
O O12 0.873812 0.377734 0.520996
O O13 0.374652 0.982316 0.142346
O O14 0.500000 0.035897 0.058065
O O15 0.500000 0.932988 0.052869
O O16 0.250000 0.967000 0.250000
#
# Coordination Sequence:
#
# PCOD9479041 Si02
#       8
#    16   8  16  16   8   8  16   8
#     4  10  21  37  58  84 111 145 185 231 284 330
#     4  11  23  36  56  85 117 147 190 228 283 338
#     4  10  20  37  58  82 116 148 181 229 283 338
#     4  11  21  36  56  86 112 147 185 223 285 337
#     4  11  21  38  58  85 115 151 184 230 287 336
#     4  11  22  35  60  85 116 149 186 230 281 343
#     4  11  22  37  58  83 113 151 185 232 281 336
#     4  11  22  37  56  85 116 149 182 238 283 333
#
# _framework density 16.911480999999998
#
# number of rings (size 3 to 8) (size 9 to 14) (size 15 to 20)
#    0.000    1.333    2.500    4.500    3.500    2.667 
#    3.000    0.000    0.000    6.000    0.000    0.000 
#    0.000    0.000    0.000    0.000    0.000    0.000 
#
# Total GULP energy -267909.322292 kJ/mol
# GULP energy per Si atom -5581.444214 kJ/mol
# Density = 1.687299 g / cm^3
# Si number density = 16.911481 Si / 1000 Ang^3
#
#
#
# Elastic Constant Matrix: (Units=GPa)
#
#
# Indices 1 2 3 4 5 6 
#
# 1 184.3132 72.9570 67.1499 0.0000 0.0000 0.0000
# 2 72.9570 107.7287 50.5494 0.0000 0.0000 0.0000
# 3 67.1499 50.5494 100.2717 0.0000 0.0000 0.0000
# 4 0.0000 0.0000 0.0000 25.1542 0.0000 0.0000
# 5 0.0000 0.0000 0.0000 0.0000 23.0138 0.0000
# 6 0.0000 0.0000 0.0000 0.0000 0.0000 52.0921
#
#
#
# Elastic Compliance Matrix: (Units=1/GPa)
#
#
# Indices 1 2 3 4 5 6 
#
# 1 0.008282 -0.003938 -0.003561 0.000000 0.000000 0.000000
# 2 -0.003938 0.014031 -0.004436 0.000000 0.000000 0.000000
# 3 -0.003561 -0.004436 0.014594 0.000000 0.000000 0.000000
# 4 0.000000 0.000000 0.000000 0.039755 0.000000 0.000000
# 5 0.000000 0.000000 0.000000 0.000000 0.043452 0.000000
# 6 0.000000 0.000000 0.000000 0.000000 0.000000 0.019197
#
#
# Mechanical properties :
#
#
# Convention : Reuss Voigt Hill
#
# Bulk Modulus (GPa) = 76.70667 85.95848 81.33258
# Shear Modulus (GPa) = 29.84619 33.49585 31.67102
#
# Velocity S-wave (km/s) = 4.20557 4.45529 4.33223
# Velocity P-wave (km/s) = 8.30895 8.79801 8.55697
#
# Compressibility (1/GPa) = 0.01303668
#
# Stress axis : x y z
#
# Youngs Moduli (GPa) = 120.75103 71.27120 68.52093
#
# Poissons Ratio (x) = 0.28064 0.24400
# Poissons Ratio (y) = 0.47547 0.30399
# Poissons Ratio (z) = 0.42999 0.31619
#
# Static dielectric constant tensor:
#      x y z
#    x 1.571930 0.000000 0.000000 
#    y 0.000000 1.562230 0.000000 
#    z 0.000000 0.000000 1.565280 
# 
# From -- ./inp_files/43281.got.cif
#   From: 2010.05.17/outbox.cif.g08.bks.cpg/sg64_22_cif.got.tgz:43281.got - 2010.06.03 16:29:19.
