data_PCOD9479807
_publ_section_title
;
Structure prediction by ZEFSAII (Michael W. Deem and Ramdas Pophale) SiO2 
 PCOD9479807
Probable space group: C M C A
;
_chemical_formula_sum "Si O2"
_cell_formula_units_Z 56
_cell_length_a 14.236523
_cell_length_b 17.188838
_cell_length_c 12.797853
_cell_angle_alpha 90.000000
_cell_angle_beta 90.000000
_cell_angle_gamma 90.000000
_cell_volume 3131.753490
_symmetry_space_group_name_H-M "C M C A"
_symmetry_group_IT_number 64
_symmetry_cell_setting 'orthorhombic'
loop_
_space_group_symop_operation_xyz
x,y,z
-x,1/2-y,1/2+z
x,-y,-z
-x,1/2+y,1/2-z
-x,-y,-z
x,1/2+y,1/2-z
-x,y,z
x,1/2-y,1/2+z
1/2+x,1/2+y,z
1/2-x,-y,1/2+z
1/2+x,1/2-y,-z
1/2-x,y,1/2-z
1/2-x,1/2-y,-z
1/2+x,y,1/2-z
1/2-x,1/2+y,z
1/2+x,-y,1/2+z
loop_
_atom_site_type_symbol
_atom_site_label
_atom_site_fract_x
_atom_site_fract_y
_atom_site_fract_z
Si Si1 0.000000 0.976365 0.223991
Si Si2 0.500000 0.140902 0.369545
Si Si3 0.500000 0.687232 0.890702
Si Si4 0.391518 0.452329 0.598955
Si Si5 0.348136 0.299228 0.706355
O O1 0.911533 0.991758 0.301884
O O2 0.000000 0.893479 0.171990
O O3 0.000000 0.047528 0.142541
O O4 0.500000 0.169676 0.486904
O O5 0.588501 0.172588 0.303847
O O6 0.590811 0.737044 0.856778
O O7 0.355234 0.500000 0.500000
O O8 0.500000 0.425450 0.572761
O O9 0.335799 0.376619 0.634997
O O10 0.250000 0.269764 0.750000
#
# Coordination Sequence:
#
# PCOD9479807 Si02
#       5
#     8   8   8  16  16
#     4   8  16  32  54  79 105 140 185 229 268 338
#     4   9  20  38  55  76 107 149 187 235 283 324
#     4  11  20  34  58  77 110 155 180 222 292 344
#     4   8  15  33  59  80  96 141 191 224 276 330
#     4  10  21  37  54  83 116 142 182 242 286 327
#
# _framework density 17.881357999999999
#
# number of rings (size 3 to 8) (size 9 to 14) (size 15 to 20)
#    0.857    2.000    2.857    0.429    0.000    5.714 
#    0.000   11.429    0.000    0.000    0.000    0.000 
#    0.000    0.000    0.000    0.000    0.000    0.000 
#
# Total GULP energy -155893.635381 kJ/mol
# GULP energy per Si atom -5567.629835 kJ/mol
# Density = 1.784066 g / cm^3
# Si number density = 17.881358 Si / 1000 Ang^3
#
#
#
# Elastic Constant Matrix: (Units=GPa)
#
#
# Indices 1 2 3 4 5 6 
#
# 1 64.5215 22.1347 31.3995 0.0000 0.0000 0.0000
# 2 22.1347 110.6800 89.7272 0.0000 0.0000 0.0000
# 3 31.3995 89.7272 139.6010 0.0000 0.0000 0.0000
# 4 0.0000 0.0000 0.0000 34.1762 0.0000 0.0000
# 5 0.0000 0.0000 0.0000 0.0000 -5.5849 0.0000
# 6 0.0000 0.0000 0.0000 0.0000 0.0000 -8.4813
#
#
#
# Elastic Compliance Matrix: (Units=1/GPa)
#
#
# Indices 1 2 3 4 5 6 
#
# 1 0.017426 -0.000642 -0.003507 0.000000 0.000000 0.000000
# 2 -0.000642 0.018888 -0.011996 0.000000 0.000000 0.000000
# 3 -0.003507 -0.011996 0.015662 0.000000 0.000000 0.000000
# 4 0.000000 0.000000 0.000000 0.029260 0.000000 0.000000
# 5 0.000000 0.000000 0.000000 0.000000 -0.179053 0.000000
# 6 0.000000 0.000000 0.000000 0.000000 0.000000 -0.117907
#
#
# Mechanical properties :
#
#
# Convention : Reuss Voigt Hill
#
# Bulk Modulus (GPa) = 50.79538 66.81392 58.80465
# Shear Modulus (GPa) = -28.26913 15.45806 -6.40554
#
# Velocity S-wave (km/s) = -3.98040 2.94339 -1.89473
# Velocity P-wave (km/s) = 2.70994 6.99983 5.30761
#
# Compressibility (1/GPa) = 0.01968683
#
# Stress axis : x y z
#
# Youngs Moduli (GPa) = 57.38705 52.94238 63.84751
#
# Poissons Ratio (x) = 0.03399 0.22390
# Poissons Ratio (y) = 0.03684 0.76591
# Poissons Ratio (z) = 0.20124 0.63510
#
# Static dielectric constant tensor:
#      x y z
#    x 1.627110 0.000000 0.000000 
#    y 0.000000 1.600720 0.000000 
#    z 0.000000 0.000000 1.611830 
# 
# From -- ./inp_files/15633.got.cif
#   From: 2010.05.17/outbox.cif.g08.bks.cpg/sg64_8_cif.got.tgz:15633.got - 2010.06.03 16:29:19.
