data_PCOD9479244
_publ_section_title
;
Structure prediction by ZEFSAII (Michael W. Deem and Ramdas Pophale) SiO2 
 PCOD9479244
Probable space group: C M C A
;
_chemical_formula_sum "Si O2"
_cell_formula_units_Z 104
_cell_length_a 21.194954
_cell_length_b 26.892371
_cell_length_c 8.931291
_cell_angle_alpha 90.000000
_cell_angle_beta 90.000000
_cell_angle_gamma 90.000000
_cell_volume 5090.680165
_symmetry_space_group_name_H-M "C M C A"
_symmetry_group_IT_number 64
_symmetry_cell_setting 'orthorhombic'
loop_
_space_group_symop_operation_xyz
x,y,z
-x,1/2-y,1/2+z
x,-y,-z
-x,1/2+y,1/2-z
-x,-y,-z
x,1/2+y,1/2-z
-x,y,z
x,1/2-y,1/2+z
1/2+x,1/2+y,z
1/2-x,-y,1/2+z
1/2+x,1/2-y,-z
1/2-x,y,1/2-z
1/2-x,1/2-y,-z
1/2+x,y,1/2-z
1/2-x,1/2+y,z
1/2+x,-y,1/2+z
loop_
_atom_site_type_symbol
_atom_site_label
_atom_site_fract_x
_atom_site_fract_y
_atom_site_fract_z
Si Si1 0.621380 0.810111 0.454034
Si Si2 0.761500 0.838841 0.429929
Si Si3 0.403102 0.075765 0.521310
Si Si4 0.500000 0.939242 0.735229
Si Si5 0.000000 0.452781 0.226441
Si Si6 0.890965 0.209664 0.600192
Si Si7 0.742781 0.448822 0.071595
Si Si8 0.000000 0.136800 0.492983
O O1 0.695884 0.817480 0.491029
O O2 0.592735 0.864465 0.476209
O O3 0.611826 0.796416 0.279463
O O4 0.594311 0.765835 0.553244
O O5 0.750000 0.840960 0.250000
O O6 0.821604 0.805070 0.460327
O O7 0.773646 0.896175 0.476794
O O8 0.439607 0.058826 0.373932
O O9 0.439968 0.055915 0.665707
O O10 0.330830 0.058908 0.530083
O O11 0.500000 0.990460 0.826904
O O12 0.500000 0.889198 0.831537
O O13 0.000000 0.410058 0.104417
O O14 0.940113 0.171237 0.529246
O O15 0.750000 0.452888 0.250000
O O16 0.766618 0.500000 0.000000
#
# Coordination Sequence:
#
# PCOD9479244 Si02
#       8
#    16  16  16   8   8  16  16   8
#     4  10  21  39  68  88 122 164 208 258 321 373
#     4   8  18  39  62  85 122 164 205 250 313 376
#     4  10  21  43  67  90 124 166 212 258 313 393
#     4  11  25  42  68  91 120 170 220 260 302 387
#     4  11  21  44  66  90 118 171 207 252 321 375
#     4  11  23  41  60  93 126 168 205 261 314 377
#     4  10  20  38  61  94 127 165 206 260 325 375
#     4  12  27  40  60  95 136 151 214 272 319 363
#
# _framework density 20.429490999999999
#
# number of rings (size 3 to 8) (size 9 to 14) (size 15 to 20)
#    0.000    1.846    1.538    3.462    2.154    1.846 
#    5.538    0.000    0.000    0.000    0.000    0.000 
#    0.000    0.000    0.000    0.000    0.000    0.000 
#
# Total GULP energy -290465.546105 kJ/mol
# GULP energy per Si atom -5585.875887 kJ/mol
# Density = 2.038299 g / cm^3
# Si number density = 20.429491 Si / 1000 Ang^3
#
#
#
# Elastic Constant Matrix: (Units=GPa)
#
#
# Indices 1 2 3 4 5 6 
#
# 1 46.6562 16.6379 11.1363 0.0000 0.0000 0.0000
# 2 16.6379 163.7188 30.7970 0.0000 0.0000 0.0000
# 3 11.1363 30.7970 47.0580 0.0000 0.0000 0.0000
# 4 0.0000 0.0000 0.0000 37.5338 0.0000 0.0000
# 5 0.0000 0.0000 0.0000 0.0000 5.3863 0.0000
# 6 0.0000 0.0000 0.0000 0.0000 0.0000 5.0233
#
#
#
# Elastic Compliance Matrix: (Units=1/GPa)
#
#
# Indices 1 2 3 4 5 6 
#
# 1 0.023035 -0.001500 -0.004469 0.000000 0.000000 0.000000
# 2 -0.001500 0.007063 -0.004268 0.000000 0.000000 0.000000
# 3 -0.004469 -0.004268 0.025101 0.000000 0.000000 0.000000
# 4 0.000000 0.000000 0.000000 0.026643 0.000000 0.000000
# 5 0.000000 0.000000 0.000000 0.000000 0.185656 0.000000
# 6 0.000000 0.000000 0.000000 0.000000 0.000000 0.199073
#
#
# Mechanical properties :
#
#
# Convention : Reuss Voigt Hill
#
# Bulk Modulus (GPa) = 28.79769 41.61949 35.20859
# Shear Modulus (GPa) = 10.02767 22.84613 16.43690
#
# Velocity S-wave (km/s) = 2.21790 3.34771 2.83957
# Velocity P-wave (km/s) = 4.54813 5.94638 5.29362
#
# Compressibility (1/GPa) = 0.03472501
#
# Stress axis : x y z
#
# Youngs Moduli (GPa) = 43.41186 141.57786 39.83918
#
# Poissons Ratio (x) = 0.21240 0.17806
# Poissons Ratio (y) = 0.06513 0.17001
# Poissons Ratio (z) = 0.19403 0.60418
#
# Static dielectric constant tensor:
#      x y z
#    x 1.711500 0.000000 0.000000 
#    y 0.000000 1.723560 0.000000 
#    z 0.000000 0.000000 1.699060 
# 
# From -- ./inp_files/8568.got.cif
#   From: 2010.05.17/outbox.cif.g08.bks.cpg/sg64_5_cif.got.tgz:8568.got - 2010.06.03 16:29:19.
