data_PCOD9479937
_publ_section_title
;
Structure prediction by ZEFSAII (Michael W. Deem and Ramdas Pophale) SiO2 
 PCOD9479937
Probable space group: C M C A
;
_chemical_formula_sum "Si O2"
_cell_formula_units_Z 72
_cell_length_a 14.625031
_cell_length_b 18.323107
_cell_length_c 13.644960
_cell_angle_alpha 90.000000
_cell_angle_beta 90.000000
_cell_angle_gamma 90.000000
_cell_volume 3656.521909
_symmetry_space_group_name_H-M "C M C A"
_symmetry_group_IT_number 64
_symmetry_cell_setting 'orthorhombic'
loop_
_space_group_symop_operation_xyz
x,y,z
-x,1/2-y,1/2+z
x,-y,-z
-x,1/2+y,1/2-z
-x,-y,-z
x,1/2+y,1/2-z
-x,y,z
x,1/2-y,1/2+z
1/2+x,1/2+y,z
1/2-x,-y,1/2+z
1/2+x,1/2-y,-z
1/2-x,y,1/2-z
1/2-x,1/2-y,-z
1/2+x,y,1/2-z
1/2-x,1/2+y,z
1/2+x,-y,1/2+z
loop_
_atom_site_type_symbol
_atom_site_label
_atom_site_fract_x
_atom_site_fract_y
_atom_site_fract_z
Si Si1 0.796235 0.031427 0.396726
Si Si2 0.148752 0.176174 0.289032
Si Si3 0.602485 0.828660 0.377612
Si Si4 0.600400 0.103773 0.410279
Si Si5 0.750000 0.914346 0.250000
O O1 0.841948 0.105489 0.358644
O O2 0.687098 0.050021 0.402883
O O3 0.827086 0.000000 0.500000
O O4 0.808534 0.968192 0.317910
O O5 0.250000 0.195875 0.250000
O O6 0.109051 0.243763 0.348516
O O7 0.100441 0.151692 0.188683
O O8 0.500000 0.854514 0.351188
O O9 0.614648 0.846717 0.492797
O O10 0.682243 0.868142 0.317451
O O11 0.500000 0.068272 0.418660
#
# Coordination Sequence:
#
# PCOD9479937 Si02
#       5
#    16  16  16  16   8
#     4  11  22  39  61  93 125 166 209 255 320 376
#     4  10  21  40  62  89 127 172 204 254 318 377
#     4  11  24  40  65  97 126 166 213 263 312 372
#     4  10  21  37  62  91 124 165 214 260 305 375
#     4  12  22  40  62  98 128 158 210 268 312 366
#
# _framework density 19.690843000000001
#
# number of rings (size 3 to 8) (size 9 to 14) (size 15 to 20)
#    0.000    1.333    6.667    0.667    0.000    6.667 
#    0.000    0.000    0.000    4.667    0.000    0.000 
#    0.000    0.000    0.000    0.000    0.000    0.000 
#
# Total GULP energy -200952.573794 kJ/mol
# GULP energy per Si atom -5582.015939 kJ/mol
# Density = 1.964603 g / cm^3
# Si number density = 19.690843 Si / 1000 Ang^3
#
#
#
# Elastic Constant Matrix: (Units=GPa)
#
#
# Indices 1 2 3 4 5 6 
#
# 1 64.8150 15.2326 18.2408 0.0000 0.0000 0.0000
# 2 15.2326 93.3735 42.6142 0.0000 0.0000 0.0000
# 3 18.2408 42.6142 130.7066 0.0000 0.0000 0.0000
# 4 0.0000 0.0000 0.0000 35.5468 0.0000 0.0000
# 5 0.0000 0.0000 0.0000 0.0000 8.6747 0.0000
# 6 0.0000 0.0000 0.0000 0.0000 0.0000 -11.2408
#
#
#
# Elastic Compliance Matrix: (Units=1/GPa)
#
#
# Indices 1 2 3 4 5 6 
#
# 1 0.016344 -0.001909 -0.001658 0.000000 0.000000 0.000000
# 2 -0.001909 0.012805 -0.003908 0.000000 0.000000 0.000000
# 3 -0.001658 -0.003908 0.009156 0.000000 0.000000 0.000000
# 4 0.000000 0.000000 0.000000 0.028132 0.000000 0.000000
# 5 0.000000 0.000000 0.000000 0.000000 0.115278 0.000000
# 6 0.000000 0.000000 0.000000 0.000000 0.000000 -0.088962
#
#
# Mechanical properties :
#
#
# Convention : Reuss Voigt Hill
#
# Bulk Modulus (GPa) = 42.82098 49.00782 45.91440
# Shear Modulus (GPa) = 43.29370 20.78328 32.03849
#
# Velocity S-wave (km/s) = 4.69409 3.25234 4.03808
# Velocity P-wave (km/s) = 7.15354 6.24870 6.71638
#
# Compressibility (1/GPa) = 0.02335304
#
# Stress axis : x y z
#
# Youngs Moduli (GPa) = 61.18452 78.09533 109.21349
#
# Poissons Ratio (x) = 0.14912 0.18111
# Poissons Ratio (y) = 0.11683 0.42684
# Poissons Ratio (z) = 0.10147 0.30522
#
# Static dielectric constant tensor:
#      x y z
#    x 1.706080 0.000000 0.000000 
#    y 0.000000 1.674880 0.000000 
#    z 0.000000 0.000000 1.744840 
# 
# From -- ./inp_files/23494.got.cif
#   From: 2010.05.17/outbox.cif.g08.bks.cpg/sg64_12_cif.got.tgz:23494.got - 2010.06.03 16:29:19.
