data_PCOD9479323
_publ_section_title
;
Structure prediction by ZEFSAII (Michael W. Deem and Ramdas Pophale) SiO2 
 PCOD9479323
Probable space group: C M C A
;
_chemical_formula_sum "Si O2"
_cell_formula_units_Z 56
_cell_length_a 16.907431
_cell_length_b 32.072042
_cell_length_c 5.040535
_cell_angle_alpha 90.000000
_cell_angle_beta 90.000000
_cell_angle_gamma 90.000000
_cell_volume 2733.259526
_symmetry_space_group_name_H-M "C M C A"
_symmetry_group_IT_number 64
_symmetry_cell_setting 'orthorhombic'
loop_
_space_group_symop_operation_xyz
x,y,z
-x,1/2-y,1/2+z
x,-y,-z
-x,1/2+y,1/2-z
-x,-y,-z
x,1/2+y,1/2-z
-x,y,z
x,1/2-y,1/2+z
1/2+x,1/2+y,z
1/2-x,-y,1/2+z
1/2+x,1/2-y,-z
1/2-x,y,1/2-z
1/2-x,1/2-y,-z
1/2+x,y,1/2-z
1/2-x,1/2+y,z
1/2+x,-y,1/2+z
loop_
_atom_site_type_symbol
_atom_site_label
_atom_site_fract_x
_atom_site_fract_y
_atom_site_fract_z
Si Si1 0.591357 0.133444 0.655205
Si Si2 0.845139 0.724017 0.750373
Si Si3 0.159683 0.911036 0.652257
Si Si4 0.694397 0.000000 0.000000
O O1 0.500000 0.128413 0.729536
O O2 0.613668 0.182047 0.654390
O O3 0.607666 0.110649 0.377728
O O4 0.645590 0.112497 0.878465
O O5 0.865401 0.761014 0.545554
O O6 0.750000 0.717668 0.750000
O O7 0.250000 0.907751 0.750000
O O8 0.145818 0.960067 0.598686
O O9 0.750000 0.012860 0.750000
#
# Coordination Sequence:
#
# PCOD9479323 Si02
#       4
#    16  16  16   8
#     4  12  25  40  60  93 131 163 200 251 314 371
#     4  10  21  38  61  87 116 157 208 255 300 356
#     4  11  22  41  66  90 120 163 210 255 302 362
#     4  10  20  38  65  96 119 152 212 266 300 348
#
# _framework density 20.488357000000001
#
# number of rings (size 3 to 8) (size 9 to 14) (size 15 to 20)
#    0.000    1.143    0.000    8.571    0.000    3.429 
#    0.000    4.286    0.000    0.000    0.000    0.000 
#    0.000    0.000    0.000    0.000    0.000    0.000 
#
# Total GULP energy -156570.305411 kJ/mol
# GULP energy per Si atom -5591.796622 kJ/mol
# Density = 2.044172 g / cm^3
# Si number density = 20.488357 Si / 1000 Ang^3
#
#
#
# Elastic Constant Matrix: (Units=GPa)
#
#
# Indices 1 2 3 4 5 6 
#
# 1 34.9581 25.0585 -4.9439 0.0000 0.0000 0.0000
# 2 25.0585 114.4437 12.8424 0.0000 0.0000 0.0000
# 3 -4.9439 12.8424 90.2439 0.0000 0.0000 0.0000
# 4 0.0000 0.0000 0.0000 56.3580 0.0000 0.0000
# 5 0.0000 0.0000 0.0000 0.0000 20.6409 0.0000
# 6 0.0000 0.0000 0.0000 0.0000 0.0000 -52.4004
#
#
#
# Elastic Compliance Matrix: (Units=1/GPa)
#
#
# Indices 1 2 3 4 5 6 
#
# 1 0.034729 -0.007945 0.003033 0.000000 0.000000 0.000000
# 2 -0.007945 0.010697 -0.001958 0.000000 0.000000 0.000000
# 3 0.003033 -0.001958 0.011526 0.000000 0.000000 0.000000
# 4 0.000000 0.000000 0.000000 0.017744 0.000000 0.000000
# 5 0.000000 0.000000 0.000000 0.000000 0.048448 0.000000
# 6 0.000000 0.000000 0.000000 0.000000 0.000000 -0.019084
#
#
# Mechanical properties :
#
#
# Convention : Reuss Voigt Hill
#
# Bulk Modulus (GPa) = 23.14043 33.95107 28.54575
# Shear Modulus (GPa) = 37.82070 18.69895 28.25982
#
# Velocity S-wave (km/s) = 4.30113 3.02431 3.71794
# Velocity P-wave (km/s) = 5.99877 5.36676 5.69154
#
# Compressibility (1/GPa) = 0.04321441
#
# Stress axis : x y z
#
# Youngs Moduli (GPa) = 28.79397 93.48287 86.76170
#
# Poissons Ratio (x) = 0.74269 -0.26317
# Poissons Ratio (y) = 0.22876 0.16984
# Poissons Ratio (z) = -0.08734 0.18299
#
# Static dielectric constant tensor:
#      x y z
#    x 1.745460 0.000000 0.000000 
#    y 0.000000 1.732530 0.000000 
#    z 0.000000 0.000000 1.706130 
# 
# From -- ./inp_files/851.got.cif
#   From: 2010.05.17/outbox.cif.g08.bks.cpg/sg64_1_cif.got.tgz:851.got - 2010.06.03 16:29:19.
