data_PCOD9479429
_publ_section_title
;
Structure prediction by ZEFSAII (Michael W. Deem and Ramdas Pophale) SiO2 
 PCOD9479429
Probable space group: C M C A
;
_chemical_formula_sum "Si O2"
_cell_formula_units_Z 56
_cell_length_a 14.833252
_cell_length_b 13.668160
_cell_length_c 12.218318
_cell_angle_alpha 90.000000
_cell_angle_beta 90.000000
_cell_angle_gamma 90.000000
_cell_volume 2477.181643
_symmetry_space_group_name_H-M "C M C A"
_symmetry_group_IT_number 64
_symmetry_cell_setting 'orthorhombic'
loop_
_space_group_symop_operation_xyz
x,y,z
-x,1/2-y,1/2+z
x,-y,-z
-x,1/2+y,1/2-z
-x,-y,-z
x,1/2+y,1/2-z
-x,y,z
x,1/2-y,1/2+z
1/2+x,1/2+y,z
1/2-x,-y,1/2+z
1/2+x,1/2-y,-z
1/2-x,y,1/2-z
1/2-x,1/2-y,-z
1/2+x,y,1/2-z
1/2-x,1/2+y,z
1/2+x,-y,1/2+z
loop_
_atom_site_type_symbol
_atom_site_label
_atom_site_fract_x
_atom_site_fract_y
_atom_site_fract_z
Si Si1 0.000000 0.769943 0.281761
Si Si2 0.000000 0.110952 0.530789
Si Si3 0.806067 0.095906 0.061697
Si Si4 0.000000 0.427050 0.603769
Si Si5 0.353540 0.270598 0.601793
O O1 0.000000 0.873984 0.339258
O O2 0.913279 0.753114 0.207097
O O3 0.000000 0.690810 0.379895
O O4 0.913541 0.162161 0.477723
O O5 0.000000 0.000000 0.500000
O O6 0.892842 0.060596 0.133601
O O7 0.734688 0.164382 0.123184
O O8 0.836617 0.169954 0.963849
O O9 0.768275 0.000000 0.000000
O O10 0.000000 0.500000 0.500000
#
# Coordination Sequence:
#
# PCOD9479429 Si02
#       5
#     8   8  16   8  16
#     4  11  22  43  68  97 133 178 234 279 342 413
#     4  11  22  44  62  95 142 180 224 293 350 394
#     4  10  20  41  70  94 141 180 225 281 349 394
#     4  10  20  39  68  92 129 177 218 282 337 395
#     4  10  22  41  67  98 132 183 227 285 337 406
#
# _framework density 22.606335000000001
#
# number of rings (size 3 to 8) (size 9 to 14) (size 15 to 20)
#    0.000    1.714    2.857    1.714    0.000    1.143 
#   20.571    0.000   12.571    0.000    0.000    0.000 
#    0.000    0.000    0.000    0.000    0.000    0.000 
#
# Total GULP energy -155868.744481 kJ/mol
# GULP energy per Si atom -5566.740874 kJ/mol
# Density = 2.255488 g / cm^3
# Si number density = 22.606335 Si / 1000 Ang^3
#
#
#
# Elastic Constant Matrix: (Units=GPa)
#
#
# Indices 1 2 3 4 5 6 
#
# 1 130.2124 32.7574 51.8160 0.0000 0.0000 0.0000
# 2 32.7574 161.8936 57.4361 0.0000 0.0000 0.0000
# 3 51.8160 57.4361 91.6529 0.0000 0.0000 0.0000
# 4 0.0000 0.0000 0.0000 15.4954 0.0000 0.0000
# 5 0.0000 0.0000 0.0000 0.0000 -3.5859 0.0000
# 6 0.0000 0.0000 0.0000 0.0000 0.0000 34.1141
#
#
#
# Elastic Compliance Matrix: (Units=1/GPa)
#
#
# Indices 1 2 3 4 5 6 
#
# 1 0.009909 -0.000022 -0.005588 0.000000 0.000000 0.000000
# 2 -0.000022 0.007943 -0.004965 0.000000 0.000000 0.000000
# 3 -0.005588 -0.004965 0.017181 0.000000 0.000000 0.000000
# 4 0.000000 0.000000 0.000000 0.064535 0.000000 0.000000
# 5 0.000000 0.000000 0.000000 0.000000 -0.278872 0.000000
# 6 0.000000 0.000000 0.000000 0.000000 0.000000 0.029313
#
#
# Mechanical properties :
#
#
# Convention : Reuss Voigt Hill
#
# Bulk Modulus (GPa) = 72.03315 74.19752 73.11534
# Shear Modulus (GPa) = -40.25368 25.32136 -7.46616
#
# Velocity S-wave (km/s) = -4.22434 3.35042 -1.81930
# Velocity P-wave (km/s) = 2.85306 6.91809 5.29150
#
# Compressibility (1/GPa) = 0.01388250
#
# Stress axis : x y z
#
# Youngs Moduli (GPa) = 100.91756 125.89926 58.20311
#
# Poissons Ratio (x) = 0.00283 0.32524
# Poissons Ratio (y) = 0.00227 0.28897
# Poissons Ratio (z) = 0.56393 0.62507
#
# Static dielectric constant tensor:
#      x y z
#    x 1.931660 0.000000 0.000000 
#    y 0.000000 1.803390 0.000000 
#    z 0.000000 0.000000 1.882230 
# 
# From -- ./inp_files/13806.got.cif
#   From: 2010.05.17/outbox.cif.g08.bks.cpg/sg64_7_cif.got.tgz:13806.got - 2010.06.03 16:29:19.
