data_PCOD9479275
_publ_section_title
;
Structure prediction by ZEFSAII (Michael W. Deem and Ramdas Pophale) SiO2 
 PCOD9479275
Probable space group: C M C A
;
_chemical_formula_sum "Si O2"
_cell_formula_units_Z 80
_cell_length_a 20.766353
_cell_length_b 16.846941
_cell_length_c 9.584065
_cell_angle_alpha 90.000000
_cell_angle_beta 90.000000
_cell_angle_gamma 90.000000
_cell_volume 3352.980576
_symmetry_space_group_name_H-M "C M C A"
_symmetry_group_IT_number 64
_symmetry_cell_setting 'orthorhombic'
loop_
_space_group_symop_operation_xyz
x,y,z
-x,1/2-y,1/2+z
x,-y,-z
-x,1/2+y,1/2-z
-x,-y,-z
x,1/2+y,1/2-z
-x,y,z
x,1/2-y,1/2+z
1/2+x,1/2+y,z
1/2-x,-y,1/2+z
1/2+x,1/2-y,-z
1/2-x,y,1/2-z
1/2-x,1/2-y,-z
1/2+x,y,1/2-z
1/2-x,1/2+y,z
1/2+x,-y,1/2+z
loop_
_atom_site_type_symbol
_atom_site_label
_atom_site_fract_x
_atom_site_fract_y
_atom_site_fract_z
Si Si1 0.319054 0.447373 0.781468
Si Si2 0.304630 0.224490 0.361770
Si Si3 0.633803 0.140173 0.004400
Si Si4 0.075603 0.431784 0.278412
Si Si5 0.569527 0.758398 0.317760
O O1 0.250000 0.488142 0.750000
O O2 0.304483 0.370789 0.879052
O O3 0.343521 0.414404 0.631481
O O4 0.376311 0.502109 0.835404
O O5 0.250000 0.244397 0.250000
O O6 0.309395 0.294563 0.475466
O O7 0.373213 0.238677 0.285915
O O8 0.607906 0.092795 0.870939
O O9 0.576247 0.195074 0.060607
O O10 0.077462 0.349478 0.364432
O O11 0.000000 0.455123 0.264601
O O12 0.500000 0.752534 0.249464
#
# Coordination Sequence:
#
# PCOD9479275 Si02
#       5
#    16  16  16  16  16
#     4  10  22  37  55  84 118 150 187 233 287 337
#     4   9  20  37  58  84 113 147 191 239 283 329
#     4  10  20  38  63  84 107 149 200 237 277 335
#     4  10  21  38  60  87 118 149 185 234 287 338
#     4   9  19  35  57  85 113 143 186 237 284 331
#
# _framework density 23.859368
#
# number of rings (size 3 to 8) (size 9 to 14) (size 15 to 20)
#    0.000    2.400    0.000    1.200    0.000   16.000 
#    0.000    5.000    0.000    2.400    0.000    0.000 
#    0.000    0.000    0.000    0.000    0.000    0.000 
#
# Total GULP energy -223310.964466 kJ/mol
# GULP energy per Si atom -5582.774112 kJ/mol
# Density = 2.380506 g / cm^3
# Si number density = 23.859368 Si / 1000 Ang^3
#
#
#
# Elastic Constant Matrix: (Units=GPa)
#
#
# Indices 1 2 3 4 5 6 
#
# 1 134.4775 46.5043 7.2882 0.0000 0.0000 0.0000
# 2 46.5043 89.1662 15.6450 0.0000 0.0000 0.0000
# 3 7.2882 15.6450 65.1146 0.0000 0.0000 0.0000
# 4 0.0000 0.0000 0.0000 32.7870 0.0000 0.0000
# 5 0.0000 0.0000 0.0000 0.0000 20.4089 0.0000
# 6 0.0000 0.0000 0.0000 0.0000 0.0000 42.1689
#
#
#
# Elastic Compliance Matrix: (Units=1/GPa)
#
#
# Indices 1 2 3 4 5 6 
#
# 1 0.009073 -0.004754 0.000127 0.000000 0.000000 0.000000
# 2 -0.004754 0.014200 -0.002880 0.000000 0.000000 0.000000
# 3 0.000127 -0.002880 0.016035 0.000000 0.000000 0.000000
# 4 0.000000 0.000000 0.000000 0.030500 0.000000 0.000000
# 5 0.000000 0.000000 0.000000 0.000000 0.048998 0.000000
# 6 0.000000 0.000000 0.000000 0.000000 0.000000 0.023714
#
#
# Mechanical properties :
#
#
# Convention : Reuss Voigt Hill
#
# Bulk Modulus (GPa) = 41.16251 47.51483 44.33867
# Shear Modulus (GPa) = 30.18711 33.69436 31.94074
#
# Velocity S-wave (km/s) = 3.56084 3.76201 3.66281
# Velocity P-wave (km/s) = 5.84771 6.23122 6.04251
#
# Compressibility (1/GPa) = 0.02429395
#
# Stress axis : x y z
#
# Youngs Moduli (GPa) = 110.21117 70.42273 62.36267
#
# Poissons Ratio (x) = 0.33482 -0.00791
# Poissons Ratio (y) = 0.52400 0.17958
# Poissons Ratio (z) = -0.01397 0.20279
#
# Static dielectric constant tensor:
#      x y z
#    x 1.925790 0.000000 0.000000 
#    y 0.000000 1.969050 0.000000 
#    z 0.000000 0.000000 1.993370 
# 
# From -- ./inp_files/18075.got.cif
#   From: 2010.05.17/outbox.cif.g08.bks.cpg/sg64_10_cif.got.tgz:18075.got - 2010.06.03 16:29:19.
