data_PCOD9479756
_publ_section_title
;
Structure prediction by ZEFSAII (Michael W. Deem and Ramdas Pophale) SiO2 
 PCOD9479756
Probable space group: C M C A
;
_chemical_formula_sum "Si O2"
_cell_formula_units_Z 120
_cell_length_a 24.991902
_cell_length_b 11.548124
_cell_length_c 21.326843
_cell_angle_alpha 90.000000
_cell_angle_beta 90.000000
_cell_angle_gamma 90.000000
_cell_volume 6155.131271
_symmetry_space_group_name_H-M "C M C A"
_symmetry_group_IT_number 64
_symmetry_cell_setting 'orthorhombic'
loop_
_space_group_symop_operation_xyz
x,y,z
-x,1/2-y,1/2+z
x,-y,-z
-x,1/2+y,1/2-z
-x,-y,-z
x,1/2+y,1/2-z
-x,y,z
x,1/2-y,1/2+z
1/2+x,1/2+y,z
1/2-x,-y,1/2+z
1/2+x,1/2-y,-z
1/2-x,y,1/2-z
1/2-x,1/2-y,-z
1/2+x,y,1/2-z
1/2-x,1/2+y,z
1/2+x,-y,1/2+z
loop_
_atom_site_type_symbol
_atom_site_label
_atom_site_fract_x
_atom_site_fract_y
_atom_site_fract_z
Si Si1 0.163584 0.724995 0.361114
Si Si2 0.234285 0.154041 0.551942
Si Si3 0.382342 0.310229 0.168065
Si Si4 0.390946 0.574828 0.698514
Si Si5 0.311455 0.376706 0.729844
Si Si6 0.560421 0.097615 0.108056
Si Si7 0.861403 0.000000 0.500000
Si Si8 0.341581 0.007376 0.568035
O O1 0.218687 0.786860 0.381951
O O2 0.120104 0.824207 0.351454
O O3 0.162581 0.658901 0.295494
O O4 0.157465 0.624606 0.410735
O O5 0.250000 0.250000 0.500000
O O6 0.179612 0.093867 0.528839
O O7 0.281773 0.061474 0.560230
O O8 0.401075 0.368252 0.233594
O O9 0.331019 0.227081 0.184315
O O10 0.423499 0.222674 0.135394
O O11 0.368157 0.410301 0.119259
O O12 0.337031 0.496250 0.705900
O O13 0.433058 0.488613 0.667583
O O14 0.250000 0.386712 0.750000
O O15 0.500000 0.095609 0.084308
O O16 0.601930 0.056653 0.054258
O O17 0.367739 0.000000 0.500000
#
# Coordination Sequence:
#
# PCOD9479756 Si02
#       8
#    16  16  16  16  16  16   8  16
#     4  11  22  36  56  83 125 166 209 257 307 368
#     4  12  22  37  58  91 131 180 212 249 304 386
#     4  10  23  42  63  95 129 165 214 269 314 385
#     4  10  22  41  63  91 125 161 214 271 319 382
#     4  10  21  36  58  88 128 173 205 253 309 380
#     4  11  25  45  72  94 120 168 219 280 335 368
#     4  12  23  42  62  96 134 162 221 266 308 384
#     4  12  23  37  59  94 131 176 210 242 314 387
#
# _framework density 19.495927999999999
#
# number of rings (size 3 to 8) (size 9 to 14) (size 15 to 20)
#    0.000    1.067    4.667    1.800    1.867    3.733 
#    0.000    0.000    0.000    0.400    0.000    0.000 
#    0.000    0.000    0.000    0.000    0.000    0.000 
#
# Total GULP energy -334676.309696 kJ/mol
# GULP energy per Si atom -5577.938495 kJ/mol
# Density = 1.945155 g / cm^3
# Si number density = 19.495928 Si / 1000 Ang^3
#
#
#
# Elastic Constant Matrix: (Units=GPa)
#
#
# Indices 1 2 3 4 5 6 
#
# 1 58.6758 9.8492 10.6097 0.0000 0.0000 0.0000
# 2 9.8492 90.0696 34.2685 0.0000 0.0000 0.0000
# 3 10.6097 34.2685 91.4950 0.0000 0.0000 0.0000
# 4 0.0000 0.0000 0.0000 41.2431 0.0000 0.0000
# 5 0.0000 0.0000 0.0000 0.0000 18.2941 0.0000
# 6 0.0000 0.0000 0.0000 0.0000 0.0000 3.4720
#
#
#
# Elastic Compliance Matrix: (Units=1/GPa)
#
#
# Indices 1 2 3 4 5 6 
#
# 1 0.017544 -0.001335 -0.001535 0.000000 0.000000 0.000000
# 2 -0.001335 0.013049 -0.004733 0.000000 0.000000 0.000000
# 3 -0.001535 -0.004733 0.012880 0.000000 0.000000 0.000000
# 4 0.000000 0.000000 0.000000 0.024246 0.000000 0.000000
# 5 0.000000 0.000000 0.000000 0.000000 0.054662 0.000000
# 6 0.000000 0.000000 0.000000 0.000000 0.000000 0.288019
#
#
# Mechanical properties :
#
#
# Convention : Reuss Voigt Hill
#
# Bulk Modulus (GPa) = 35.37345 38.85503 37.11424
# Shear Modulus (GPa) = 11.49351 24.96937 18.23144
#
# Velocity S-wave (km/s) = 2.43067 3.58264 3.06132
# Velocity P-wave (km/s) = 5.10499 6.08989 5.61906
#
# Compressibility (1/GPa) = 0.02826979
#
# Stress axis : x y z
#
# Youngs Moduli (GPa) = 56.99852 76.63380 77.63943
#
# Poissons Ratio (x) = 0.10228 0.11914
# Poissons Ratio (y) = 0.07607 0.36744
# Poissons Ratio (z) = 0.08747 0.36268
#
# Static dielectric constant tensor:
#      x y z
#    x 1.685500 0.000000 0.000000 
#    y 0.000000 1.734340 0.000000 
#    z 0.000000 0.000000 1.671420 
# 
# From -- ./inp_files/41986.got.cif
#   From: 2010.05.17/outbox.cif.g08.bks.cpg/sg64_21_cif.got.tgz:41986.got - 2010.06.03 16:29:19.
