data_PCOD9479341
_publ_section_title
;
Structure prediction by ZEFSAII (Michael W. Deem and Ramdas Pophale) SiO2 
 PCOD9479341
Probable space group: C M C A
;
_chemical_formula_sum "Si O2"
_cell_formula_units_Z 72
_cell_length_a 18.564192
_cell_length_b 15.151942
_cell_length_c 11.254750
_cell_angle_alpha 90.000000
_cell_angle_beta 90.000000
_cell_angle_gamma 90.000000
_cell_volume 3165.776152
_symmetry_space_group_name_H-M "C M C A"
_symmetry_group_IT_number 64
_symmetry_cell_setting 'orthorhombic'
loop_
_space_group_symop_operation_xyz
x,y,z
-x,1/2-y,1/2+z
x,-y,-z
-x,1/2+y,1/2-z
-x,-y,-z
x,1/2+y,1/2-z
-x,y,z
x,1/2-y,1/2+z
1/2+x,1/2+y,z
1/2-x,-y,1/2+z
1/2+x,1/2-y,-z
1/2-x,y,1/2-z
1/2-x,1/2-y,-z
1/2+x,y,1/2-z
1/2-x,1/2+y,z
1/2+x,-y,1/2+z
loop_
_atom_site_type_symbol
_atom_site_label
_atom_site_fract_x
_atom_site_fract_y
_atom_site_fract_z
Si Si1 0.579252 0.542627 0.868188
Si Si2 0.280055 0.629699 0.906042
Si Si3 0.329273 0.500000 0.500000
Si Si4 0.918303 0.383835 0.820997
Si Si5 0.305938 0.694775 0.165850
O O1 0.500000 0.585974 0.863983
O O2 0.646791 0.604504 0.840062
O O3 0.579699 0.463878 0.773386
O O4 0.586793 0.500000 0.000000
O O5 0.224705 0.549105 0.910401
O O6 0.233854 0.713519 0.864885
O O7 0.309274 0.648840 0.039173
O O8 0.376329 0.424545 0.565651
O O9 0.876850 0.307601 0.747153
O O10 0.000000 0.359293 0.852774
O O11 0.250000 0.643057 0.250000
#
# Coordination Sequence:
#
# PCOD9479341 Si02
#       5
#    16  16   8  16  16
#     4  10  20  38  67 101 130 169 226 283 339 401
#     4  11  23  38  69 101 131 172 227 287 337 415
#     4  12  23  42  69 102 130 182 234 286 345 408
#     4  11  24  43  66  95 137 178 223 284 344 408
#     4  11  23  42  62  95 135 176 217 271 349 412
#
# _framework density 22.743238999999999
#
# number of rings (size 3 to 8) (size 9 to 14) (size 15 to 20)
#    0.000    1.111    5.556    0.333    3.111    0.000 
#    0.000    3.333    0.000    0.000    0.000    0.000 
#    0.000    0.000    0.000    0.000    0.000    0.000 
#
# Total GULP energy -201015.577535 kJ/mol
# GULP energy per Si atom -5583.766043 kJ/mol
# Density = 2.269147 g / cm^3
# Si number density = 22.743239 Si / 1000 Ang^3
#
#
#
# Elastic Constant Matrix: (Units=GPa)
#
#
# Indices 1 2 3 4 5 6 
#
# 1 205.2199 71.3697 24.9746 0.0000 0.0000 0.0000
# 2 71.3697 73.4572 13.1964 0.0000 0.0000 0.0000
# 3 24.9746 13.1964 66.7044 0.0000 0.0000 0.0000
# 4 0.0000 0.0000 0.0000 21.8180 0.0000 0.0000
# 5 0.0000 0.0000 0.0000 0.0000 24.3674 0.0000
# 6 0.0000 0.0000 0.0000 0.0000 0.0000 24.7497
#
#
#
# Elastic Compliance Matrix: (Units=1/GPa)
#
#
# Indices 1 2 3 4 5 6 
#
# 1 0.007486 -0.007019 -0.001414 0.000000 0.000000 0.000000
# 2 -0.007019 0.020697 -0.001466 0.000000 0.000000 0.000000
# 3 -0.001414 -0.001466 0.015811 0.000000 0.000000 0.000000
# 4 0.000000 0.000000 0.000000 0.045834 0.000000 0.000000
# 5 0.000000 0.000000 0.000000 0.000000 0.041038 0.000000
# 6 0.000000 0.000000 0.000000 0.000000 0.000000 0.040405
#
#
# Mechanical properties :
#
#
# Convention : Reuss Voigt Hill
#
# Bulk Modulus (GPa) = 41.33255 62.71811 52.02533
# Shear Modulus (GPa) = 25.10863 29.90974 27.50919
#
# Velocity S-wave (km/s) = 3.32626 3.63037 3.48164
# Velocity P-wave (km/s) = 5.74152 6.72378 6.25197
#
# Compressibility (1/GPa) = 0.02419401
#
# Stress axis : x y z
#
# Youngs Moduli (GPa) = 133.58248 48.31717 63.24669
#
# Poissons Ratio (x) = 0.33915 0.08944
# Poissons Ratio (y) = 0.93765 0.09275
# Poissons Ratio (z) = 0.18891 0.07085
#
# Static dielectric constant tensor:
#      x y z
#    x 1.881970 0.000000 0.000000 
#    y 0.000000 1.876120 0.000000 
#    z 0.000000 0.000000 1.934310 
# 
# From -- ./inp_files/15743.got.cif
#   From: 2010.05.17/outbox.cif.g08.bks.cpg/sg64_8_cif.got.tgz:15743.got - 2010.06.03 16:29:19.
