data_PCOD9479004
_publ_section_title
;
Structure prediction by ZEFSAII (Michael W. Deem and Ramdas Pophale) SiO2 
 PCOD9479004
Probable space group: C M C A
;
_chemical_formula_sum "Si O2"
_cell_formula_units_Z 112
_cell_length_a 15.992231
_cell_length_b 26.371780
_cell_length_c 13.328536
_cell_angle_alpha 90.000000
_cell_angle_beta 90.000000
_cell_angle_gamma 90.000000
_cell_volume 5621.224724
_symmetry_space_group_name_H-M "C M C A"
_symmetry_group_IT_number 64
_symmetry_cell_setting 'orthorhombic'
loop_
_space_group_symop_operation_xyz
x,y,z
-x,1/2-y,1/2+z
x,-y,-z
-x,1/2+y,1/2-z
-x,-y,-z
x,1/2+y,1/2-z
-x,y,z
x,1/2-y,1/2+z
1/2+x,1/2+y,z
1/2-x,-y,1/2+z
1/2+x,1/2-y,-z
1/2-x,y,1/2-z
1/2-x,1/2-y,-z
1/2+x,y,1/2-z
1/2-x,1/2+y,z
1/2+x,-y,1/2+z
loop_
_atom_site_type_symbol
_atom_site_label
_atom_site_fract_x
_atom_site_fract_y
_atom_site_fract_z
Si Si1 0.676484 0.820316 0.993922
Si Si2 0.408435 0.848708 0.308899
Si Si3 0.252642 0.021808 0.869729
Si Si4 0.402590 0.926219 0.483091
Si Si5 0.770732 0.905502 0.865883
Si Si6 0.289578 0.239703 0.654201
Si Si7 0.407007 0.407696 0.393411
O O1 0.735257 0.861076 0.936397
O O2 0.655042 0.778083 0.911247
O O3 0.724442 0.788175 0.079623
O O4 0.607373 0.855943 0.044191
O O5 0.500000 0.825658 0.299195
O O6 0.400645 0.875293 0.416327
O O7 0.341052 0.805878 0.298250
O O8 0.401497 0.890755 0.222848
O O9 0.250000 0.031107 0.750000
O O10 0.165557 0.038924 0.923117
O O11 0.330372 0.054405 0.910128
O O12 0.267315 0.961866 0.882229
O O13 0.500000 0.943058 0.483695
O O14 0.365479 0.914691 0.593463
O O15 0.750000 0.893819 0.750000
O O16 0.250000 0.267479 0.750000
O O17 0.500000 0.428238 0.412723
#
# Coordination Sequence:
#
# PCOD9479004 Si02
#       7
#    16  16  16  16  16  16  16
#     4  11  23  38  62  88 125 168 206 258 323 383
#     4  10  20  36  64  96 124 152 206 276 317 365
#     4  11  22  38  65  95 131 170 209 263 323 379
#     4  11  22  39  67  98 126 164 219 275 319 373
#     4  11  24  41  60  89 133 173 211 260 321 386
#     4  11  21  38  65  93 117 160 216 265 321 381
#     4  11  22  39  64  97 128 164 215 263 317 385
#
# _framework density 19.924484
#
# number of rings (size 3 to 8) (size 9 to 14) (size 15 to 20)
#    0.000    1.143    5.714    0.857    0.000    1.714 
#    0.000    4.286    0.000    2.571    0.000    0.000 
#    0.000    0.000    0.000    0.000    0.000    0.000 
#
# Total GULP energy -312140.593865 kJ/mol
# GULP energy per Si atom -5573.939176 kJ/mol
# Density = 1.987914 g / cm^3
# Si number density = 19.924484 Si / 1000 Ang^3
#
#
#
# Elastic Constant Matrix: (Units=GPa)
#
#
# Indices 1 2 3 4 5 6 
#
# 1 100.1131 25.5075 49.1683 0.0000 0.0000 0.0000
# 2 25.5075 59.6856 14.3310 0.0000 0.0000 0.0000
# 3 49.1683 14.3310 128.5225 0.0000 0.0000 0.0000
# 4 0.0000 0.0000 0.0000 28.5330 0.0000 0.0000
# 5 0.0000 0.0000 0.0000 0.0000 24.5201 0.0000
# 6 0.0000 0.0000 0.0000 0.0000 0.0000 -11.1859
#
#
#
# Elastic Compliance Matrix: (Units=1/GPa)
#
#
# Indices 1 2 3 4 5 6 
#
# 1 0.013441 -0.004634 -0.004625 0.000000 0.000000 0.000000
# 2 -0.004634 0.018813 -0.000325 0.000000 0.000000 0.000000
# 3 -0.004625 -0.000325 0.009586 0.000000 0.000000 0.000000
# 4 0.000000 0.000000 0.000000 0.035047 0.000000 0.000000
# 5 0.000000 0.000000 0.000000 0.000000 0.040783 0.000000
# 6 0.000000 0.000000 0.000000 0.000000 0.000000 -0.089398
#
#
# Mechanical properties :
#
#
# Convention : Reuss Voigt Hill
#
# Bulk Modulus (GPa) = 44.10706 51.81497 47.96102
# Shear Modulus (GPa) = 90.91377 21.66107 56.28742
#
# Velocity S-wave (km/s) = 6.76226 3.30079 5.32087
# Velocity P-wave (km/s) = 9.11900 6.37095 7.86591
#
# Compressibility (1/GPa) = 0.02267211
#
# Stress axis : x y z
#
# Youngs Moduli (GPa) = 74.39973 53.15544 104.31350
#
# Poissons Ratio (x) = 0.24630 0.48249
# Poissons Ratio (y) = 0.34474 0.03391
# Poissons Ratio (z) = 0.34413 0.01728
#
# Static dielectric constant tensor:
#      x y z
#    x 1.699100 0.000000 0.000000 
#    y 0.000000 1.710300 0.000000 
#    z 0.000000 0.000000 1.756310 
# 
# From -- ./inp_files/24433.got.cif
#   From: 2010.05.17/outbox.cif.g08.bks.cpg/sg64_13_cif.got.tgz:24433.got - 2010.06.03 16:29:19.
