data_PCOD9479814
_publ_section_title
;
Structure prediction by ZEFSAII (Michael W. Deem and Ramdas Pophale) SiO2 
 PCOD9479814
Probable space group: C M C A
;
_chemical_formula_sum "Si O2"
_cell_formula_units_Z 96
_cell_length_a 8.919584
_cell_length_b 19.663154
_cell_length_c 31.021881
_cell_angle_alpha 90.000000
_cell_angle_beta 90.000000
_cell_angle_gamma 90.000000
_cell_volume 5440.839414
_symmetry_space_group_name_H-M "C M C A"
_symmetry_group_IT_number 64
_symmetry_cell_setting 'orthorhombic'
loop_
_space_group_symop_operation_xyz
x,y,z
-x,1/2-y,1/2+z
x,-y,-z
-x,1/2+y,1/2-z
-x,-y,-z
x,1/2+y,1/2-z
-x,y,z
x,1/2-y,1/2+z
1/2+x,1/2+y,z
1/2-x,-y,1/2+z
1/2+x,1/2-y,-z
1/2-x,y,1/2-z
1/2-x,1/2-y,-z
1/2+x,y,1/2-z
1/2-x,1/2+y,z
1/2+x,-y,1/2+z
loop_
_atom_site_type_symbol
_atom_site_label
_atom_site_fract_x
_atom_site_fract_y
_atom_site_fract_z
Si Si1 0.321865 0.295315 0.856018
Si Si2 0.322691 0.604868 0.063665
Si Si3 0.178639 0.594997 0.202928
Si Si4 0.180350 0.852857 0.387916
Si Si5 0.821228 0.178070 0.513432
Si Si6 0.820431 0.505014 0.633226
O O1 0.500000 0.301665 0.846693
O O2 0.297655 0.334992 0.901268
O O3 0.229809 0.334884 0.819903
O O4 0.284022 0.216664 0.862666
O O5 0.500000 0.603755 0.053778
O O6 0.282544 0.536092 0.089148
O O7 0.232530 0.622264 0.020944
O O8 0.250000 0.590065 0.250000
O O9 0.243919 0.536100 0.172025
O O10 0.000000 0.590764 0.205054
O O11 0.222248 0.841360 0.437945
O O12 0.262472 0.918667 0.369864
O O13 0.000000 0.862386 0.386004
O O14 0.750000 0.250000 0.500000
O O15 0.000000 0.185122 0.512307
O O16 0.000000 0.501480 0.638152
#
# Coordination Sequence:
#
# PCOD9479814 Si02
#       6
#    16  16  16  16  16  16
#     4   9  18  36  58  81 114 148 182 229 279 327
#     4   9  18  35  54  76 109 150 192 234 279 327
#     4  11  22  39  64  90 113 142 182 225 275 339
#     4  10  21  37  55  80 116 153 190 235 284 332
#     4  11  21  33  52  79 111 150 196 242 283 327
#     4  10  22  39  58  82 115 151 188 233 286 339
#
# _framework density 17.644337
#
# number of rings (size 3 to 8) (size 9 to 14) (size 15 to 20)
#    0.000    2.000    1.667    3.500    0.000    6.000 
#    0.000    4.167    0.000    4.000    0.000    0.000 
#    0.000    0.000    0.000    0.000    0.000    0.000 
#
# Total GULP energy -268051.150605 kJ/mol
# GULP energy per Si atom -5584.398971 kJ/mol
# Density = 1.760418 g / cm^3
# Si number density = 17.644337 Si / 1000 Ang^3
#
#
#
# Elastic Constant Matrix: (Units=GPa)
#
#
# Indices 1 2 3 4 5 6 
#
# 1 77.3621 59.4993 62.3431 0.0000 0.0000 0.0000
# 2 59.4993 135.6239 52.8789 0.0000 0.0000 0.0000
# 3 62.3431 52.8789 111.4734 0.0000 0.0000 0.0000
# 4 0.0000 0.0000 0.0000 12.9058 0.0000 0.0000
# 5 0.0000 0.0000 0.0000 0.0000 31.3110 0.0000
# 6 0.0000 0.0000 0.0000 0.0000 0.0000 31.4020
#
#
#
# Elastic Compliance Matrix: (Units=1/GPa)
#
#
# Indices 1 2 3 4 5 6 
#
# 1 0.029075 -0.007871 -0.012527 0.000000 0.000000 0.000000
# 2 -0.007871 0.011177 -0.000900 0.000000 0.000000 0.000000
# 3 -0.012527 -0.000900 0.016403 0.000000 0.000000 0.000000
# 4 0.000000 0.000000 0.000000 0.077484 0.000000 0.000000
# 5 0.000000 0.000000 0.000000 0.000000 0.031938 0.000000
# 6 0.000000 0.000000 0.000000 0.000000 0.000000 0.031845
#
#
# Mechanical properties :
#
#
# Convention : Reuss Voigt Hill
#
# Bulk Modulus (GPa) = 71.12532 74.87801 73.00167
# Shear Modulus (GPa) = 20.39110 25.10631 22.74871
#
# Velocity S-wave (km/s) = 3.40321 3.77624 3.59457
# Velocity P-wave (km/s) = 7.47265 7.84493 7.66105
#
# Compressibility (1/GPa) = 0.01405969
#
# Stress axis : x y z
#
# Youngs Moduli (GPa) = 34.39417 89.46591 60.96306
#
# Poissons Ratio (x) = 0.70421 0.76366
# Poissons Ratio (y) = 0.27073 0.05487
# Poissons Ratio (z) = 0.43084 0.08052
#
# Static dielectric constant tensor:
#      x y z
#    x 1.586480 0.000000 0.000000 
#    y 0.000000 1.595460 0.000000 
#    z 0.000000 0.000000 1.581110 
# 
# From -- ./inp_files/48074.got.cif
#   From: 2010.05.17/outbox.cif.g08.bks.cpg/sg64_25_cif.got.tgz:48074.got - 2010.06.03 16:29:19.
