data_PCOD9479806
_publ_section_title
;
Structure prediction by ZEFSAII (Michael W. Deem and Ramdas Pophale) SiO2 
 PCOD9479806
Probable space group: C M C A
;
_chemical_formula_sum "Si O2"
_cell_formula_units_Z 80
_cell_length_a 8.768227
_cell_length_b 19.724062
_cell_length_c 26.246607
_cell_angle_alpha 90.000000
_cell_angle_beta 90.000000
_cell_angle_gamma 90.000000
_cell_volume 4539.220838
_symmetry_space_group_name_H-M "C M C A"
_symmetry_group_IT_number 64
_symmetry_cell_setting 'orthorhombic'
loop_
_space_group_symop_operation_xyz
x,y,z
-x,1/2-y,1/2+z
x,-y,-z
-x,1/2+y,1/2-z
-x,-y,-z
x,1/2+y,1/2-z
-x,y,z
x,1/2-y,1/2+z
1/2+x,1/2+y,z
1/2-x,-y,1/2+z
1/2+x,1/2-y,-z
1/2-x,y,1/2-z
1/2-x,1/2-y,-z
1/2+x,y,1/2-z
1/2-x,1/2+y,z
1/2+x,-y,1/2+z
loop_
_atom_site_type_symbol
_atom_site_label
_atom_site_fract_x
_atom_site_fract_y
_atom_site_fract_z
Si Si1 0.317985 0.637094 0.968640
Si Si2 0.316359 0.476187 0.398493
Si Si3 0.182691 0.380840 0.194174
Si Si4 0.183081 0.734735 0.883203
Si Si5 0.182482 0.131548 0.418722
O O1 0.500000 0.642040 0.969875
O O2 0.265212 0.566558 0.942741
O O3 0.249646 0.695407 0.932305
O O4 0.250497 0.641710 0.024975
O O5 0.500000 0.468010 0.405140
O O6 0.273751 0.440804 0.345062
O O7 0.280160 0.555334 0.401045
O O8 0.250000 0.387333 0.250000
O O9 0.226919 0.311116 0.165434
O O10 0.000000 0.381508 0.197972
O O11 0.248412 0.810068 0.883343
O O12 0.000000 0.735487 0.886956
O O13 0.000000 0.138172 0.420710
#
# Coordination Sequence:
#
# PCOD9479806 Si02
#       5
#    16  16  16  16  16
#     4  11  21  33  52  78 108 143 181 214 251 305
#     4   9  20  37  54  76 107 140 174 213 258 308
#     4   9  19  37  59  78  98 130 171 216 263 312
#     4  10  21  37  54  76 107 139 176 217 258 307
#     4  11  21  34  53  77 109 144 175 212 260 308
#
# _framework density 17.624168999999998
#
# number of rings (size 3 to 8) (size 9 to 14) (size 15 to 20)
#    0.000    2.000    0.000    5.400    0.000    8.000 
#    0.000    1.000    0.000    4.800    0.000    0.000 
#    0.000    0.000    0.000    0.000    0.000    0.000 
#
# Total GULP energy -223405.505099 kJ/mol
# GULP energy per Si atom -5585.137627 kJ/mol
# Density = 1.758406 g / cm^3
# Si number density = 17.624169 Si / 1000 Ang^3
#
#
#
# Elastic Constant Matrix: (Units=GPa)
#
#
# Indices 1 2 3 4 5 6 
#
# 1 50.8857 28.9669 11.4389 0.0000 0.0000 0.0000
# 2 28.9669 82.5444 -2.6605 0.0000 0.0000 0.0000
# 3 11.4389 -2.6605 63.6200 0.0000 0.0000 0.0000
# 4 0.0000 0.0000 0.0000 4.7375 0.0000 0.0000
# 5 0.0000 0.0000 0.0000 0.0000 30.4652 0.0000
# 6 0.0000 0.0000 0.0000 0.0000 0.0000 24.3439
#
#
#
# Elastic Compliance Matrix: (Units=1/GPa)
#
#
# Indices 1 2 3 4 5 6 
#
# 1 0.026102 -0.009324 -0.005083 0.000000 0.000000 0.000000
# 2 -0.009324 0.015462 0.002323 0.000000 0.000000 0.000000
# 3 -0.005083 0.002323 0.016729 0.000000 0.000000 0.000000
# 4 0.000000 0.000000 0.000000 0.211080 0.000000 0.000000
# 5 0.000000 0.000000 0.000000 0.000000 0.032824 0.000000
# 6 0.000000 0.000000 0.000000 0.000000 0.000000 0.041078
#
#
# Mechanical properties :
#
#
# Convention : Reuss Voigt Hill
#
# Bulk Modulus (GPa) = 29.30367 30.28229 29.79298
# Shear Modulus (GPa) = 13.19893 22.52964 17.86429
#
# Velocity S-wave (km/s) = 2.73959 3.57926 3.18720
# Velocity P-wave (km/s) = 5.16432 5.85671 5.52138
#
# Compressibility (1/GPa) = 0.03412542
#
# Stress axis : x y z
#
# Youngs Moduli (GPa) = 38.31104 64.67676 59.77496
#
# Poissons Ratio (x) = 0.60303 0.30384
# Poissons Ratio (y) = 0.35720 -0.13886
# Poissons Ratio (z) = 0.19474 -0.15024
#
# Static dielectric constant tensor:
#      x y z
#    x 1.590950 0.000000 0.000000 
#    y 0.000000 1.616200 0.000000 
#    z 0.000000 0.000000 1.568540 
# 
# From -- ./inp_files/47803.got.cif
#   From: 2010.05.17/outbox.cif.g08.bks.cpg/sg64_24_cif.got.tgz:47803.got - 2010.06.03 16:29:19.
