data_PCOD9479857
_publ_section_title
;
Structure prediction by ZEFSAII (Michael W. Deem and Ramdas Pophale) SiO2 
 PCOD9479857
Probable space group: C M C A
;
_chemical_formula_sum "Si O2"
_cell_formula_units_Z 112
_cell_length_a 14.470976
_cell_length_b 15.575675
_cell_length_c 25.661464
_cell_angle_alpha 90.000000
_cell_angle_beta 90.000000
_cell_angle_gamma 90.000000
_cell_volume 5783.971301
_symmetry_space_group_name_H-M "C M C A"
_symmetry_group_IT_number 64
_symmetry_cell_setting 'orthorhombic'
loop_
_space_group_symop_operation_xyz
x,y,z
-x,1/2-y,1/2+z
x,-y,-z
-x,1/2+y,1/2-z
-x,-y,-z
x,1/2+y,1/2-z
-x,y,z
x,1/2-y,1/2+z
1/2+x,1/2+y,z
1/2-x,-y,1/2+z
1/2+x,1/2-y,-z
1/2-x,y,1/2-z
1/2-x,1/2-y,-z
1/2+x,y,1/2-z
1/2-x,1/2+y,z
1/2+x,-y,1/2+z
loop_
_atom_site_type_symbol
_atom_site_label
_atom_site_fract_x
_atom_site_fract_y
_atom_site_fract_z
Si Si1 0.110565 0.332851 0.404495
Si Si2 0.255867 0.902658 0.487457
Si Si3 0.239950 0.814532 0.903050
Si Si4 0.891293 0.936603 0.306857
Si Si5 0.610469 0.836809 0.091728
Si Si6 0.889395 0.316636 0.287395
Si Si7 0.185908 0.121952 0.298978
O O1 0.159537 0.393221 0.446795
O O2 0.167651 0.243882 0.410338
O O3 0.129194 0.358192 0.344208
O O4 0.000000 0.324541 0.411646
O O5 0.278804 0.858013 0.541933
O O6 0.166775 0.859572 0.460319
O O7 0.234240 0.000000 0.500000
O O8 0.153560 0.753339 0.889955
O O9 0.260823 0.874398 0.854040
O O10 0.859992 0.904234 0.363554
O O11 0.854108 0.875607 0.260210
O O12 0.000000 0.919823 0.306883
O O13 0.877889 0.038022 0.300528
O O14 0.500000 0.835397 0.085128
O O15 0.854585 0.218073 0.289891
O O16 0.000000 0.310933 0.283035
O O17 0.250000 0.106092 0.250000
#
# Coordination Sequence:
#
# PCOD9479857 Si02
#       7
#    16  16  16  16  16  16  16
#     4   9  19  37  60  81 107 148 190 229 281 341
#     4  11  23  37  54  82 119 148 185 240 288 343
#     4  10  22  38  57  84 112 145 190 238 284 337
#     4  10  21  37  58  84 114 148 189 238 288 341
#     4  10  21  39  61  82 110 152 196 238 289 343
#     4   9  19  37  58  81 111 147 191 239 283 338
#     4  11  22  35  57  85 114 149 187 230 291 351
#
# _framework density 19.363859000000001
#
# number of rings (size 3 to 8) (size 9 to 14) (size 15 to 20)
#    0.000    2.000    0.000    3.857    0.000    8.571 
#    0.000    0.714    0.000    0.000    0.000    0.000 
#    0.000    0.000    0.000    0.000    0.000    0.000 
#
# Total GULP energy -312258.320131 kJ/mol
# GULP energy per Si atom -5576.041431 kJ/mol
# Density = 1.931979 g / cm^3
# Si number density = 19.363859 Si / 1000 Ang^3
#
#
#
# Elastic Constant Matrix: (Units=GPa)
#
#
# Indices 1 2 3 4 5 6 
#
# 1 73.9656 -8.4834 5.1870 0.0000 0.0000 0.0000
# 2 -8.4834 55.5989 15.7337 0.0000 0.0000 0.0000
# 3 5.1870 15.7337 94.2471 0.0000 0.0000 0.0000
# 4 0.0000 0.0000 0.0000 -472.1997 0.0000 0.0000
# 5 0.0000 0.0000 0.0000 0.0000 16.3100 0.0000
# 6 0.0000 0.0000 0.0000 0.0000 0.0000 33.5291
#
#
#
# Elastic Compliance Matrix: (Units=1/GPa)
#
#
# Indices 1 2 3 4 5 6 
#
# 1 0.013883 0.002450 -0.001173 0.000000 0.000000 0.000000
# 2 0.002450 0.019310 -0.003359 0.000000 0.000000 0.000000
# 3 -0.001173 -0.003359 0.011236 0.000000 0.000000 0.000000
# 4 0.000000 0.000000 0.000000 -0.002118 0.000000 0.000000
# 5 0.000000 0.000000 0.000000 0.000000 0.061312 0.000000
# 6 0.000000 0.000000 0.000000 0.000000 0.000000 0.029825
#
#
# Mechanical properties :
#
#
# Convention : Reuss Voigt Hill
#
# Bulk Modulus (GPa) = 24.83469 27.63180 26.23324
# Shear Modulus (GPa) = 33.10534 -70.38050 -18.63758
#
# Velocity S-wave (km/s) = 4.13927 -6.03533 -3.10577
# Velocity P-wave (km/s) = 5.97477 5.85373 0.84607
#
# Compressibility (1/GPa) = 0.04026626
#
# Stress axis : x y z
#
# Youngs Moduli (GPa) = 72.02999 51.78601 89.00243
#
# Poissons Ratio (x) = -0.12689 0.10441
# Poissons Ratio (y) = -0.17649 0.29892
# Poissons Ratio (z) = 0.08450 0.17392
#
# Static dielectric constant tensor:
#      x y z
#    x 1.665590 0.000000 0.000000 
#    y 0.000000 1.697330 0.000000 
#    z 0.000000 0.000000 1.704960 
# 
# From -- ./inp_files/45295.got.cif
#   From: 2010.05.17/outbox.cif.g08.bks.cpg/sg64_23_cif.got.tgz:45295.got - 2010.06.03 16:29:19.
