data_PCOD9479839
_publ_section_title
;
Structure prediction by ZEFSAII (Michael W. Deem and Ramdas Pophale) SiO2 
 PCOD9479839
Probable space group: C M C A
;
_chemical_formula_sum "Si O2"
_cell_formula_units_Z 112
_cell_length_a 30.018429
_cell_length_b 13.778898
_cell_length_c 13.952750
_cell_angle_alpha 90.000000
_cell_angle_beta 90.000000
_cell_angle_gamma 90.000000
_cell_volume 5771.148612
_symmetry_space_group_name_H-M "C M C A"
_symmetry_group_IT_number 64
_symmetry_cell_setting 'orthorhombic'
loop_
_space_group_symop_operation_xyz
x,y,z
-x,1/2-y,1/2+z
x,-y,-z
-x,1/2+y,1/2-z
-x,-y,-z
x,1/2+y,1/2-z
-x,y,z
x,1/2-y,1/2+z
1/2+x,1/2+y,z
1/2-x,-y,1/2+z
1/2+x,1/2-y,-z
1/2-x,y,1/2-z
1/2-x,1/2-y,-z
1/2+x,y,1/2-z
1/2-x,1/2+y,z
1/2+x,-y,1/2+z
loop_
_atom_site_type_symbol
_atom_site_label
_atom_site_fract_x
_atom_site_fract_y
_atom_site_fract_z
Si Si1 0.143488 0.234806 0.381351
Si Si2 0.354923 0.576111 0.214428
Si Si3 0.452723 0.790092 0.894243
Si Si4 0.951151 0.977665 0.741813
Si Si5 0.802734 0.381098 0.259771
Si Si6 0.048792 0.326314 0.118502
Si Si7 0.145509 0.760556 0.395719
O O1 0.146416 0.141321 0.311892
O O2 0.091837 0.270144 0.374671
O O3 0.178290 0.313109 0.344243
O O4 0.149876 0.214608 0.493175
O O5 0.405006 0.533699 0.201078
O O6 0.321004 0.488479 0.224397
O O7 0.341958 0.650686 0.130523
O O8 0.500000 0.483992 0.791037
O O9 0.452552 0.881558 0.823995
O O10 0.450968 0.831723 0.002682
O O11 0.000000 0.736891 0.616369
O O12 0.947686 0.070717 0.671477
O O13 0.750000 0.377448 0.250000
O O14 0.825871 0.334968 0.166089
O O15 0.093856 0.268336 0.139289
O O16 0.000000 0.283659 0.145073
#
# Coordination Sequence:
#
# PCOD9479839 Si02
#       7
#    16  16  16  16  16  16  16
#     4   9  21  39  61  88 116 151 190 232 286 347
#     4  10  21  37  57  83 118 150 188 236 289 338
#     4   8  14  26  49  83 119 149 182 225 273 330
#     4   9  15  26  47  79 114 150 189 227 271 332
#     4  11  24  42  61  83 112 144 189 244 300 349
#     4   9  15  26  50  82 115 152 187 225 273 327
#     4  10  21  39  61  86 118 151 190 238 282 347
#
# _framework density 19.406883000000001
#
# number of rings (size 3 to 8) (size 9 to 14) (size 15 to 20)
#    0.000    2.571    1.429    0.429    0.000    6.286 
#    0.000    4.286    0.000    0.000    0.000    5.000 
#    0.000    0.000    0.000    0.000    0.000    0.000 
#
# Total GULP energy -312193.593916 kJ/mol
# GULP energy per Si atom -5574.885606 kJ/mol
# Density = 1.936271 g / cm^3
# Si number density = 19.406883 Si / 1000 Ang^3
#
#
#
# Elastic Constant Matrix: (Units=GPa)
#
#
# Indices 1 2 3 4 5 6 
#
# 1 130.2424 44.8449 -5.5112 0.0000 0.0000 0.0000
# 2 44.8449 61.0640 -12.4270 0.0000 0.0000 0.0000
# 3 -5.5112 -12.4270 33.4988 0.0000 0.0000 0.0000
# 4 0.0000 0.0000 0.0000 4.9031 0.0000 0.0000
# 5 0.0000 0.0000 0.0000 0.0000 12.1454 0.0000
# 6 0.0000 0.0000 0.0000 0.0000 0.0000 22.2694
#
#
#
# Elastic Compliance Matrix: (Units=1/GPa)
#
#
# Indices 1 2 3 4 5 6 
#
# 1 0.010321 -0.007825 -0.001205 0.000000 0.000000 0.000000
# 2 -0.007825 0.023646 0.007485 0.000000 0.000000 0.000000
# 3 -0.001205 0.007485 0.032430 0.000000 0.000000 0.000000
# 4 0.000000 0.000000 0.000000 0.203954 0.000000 0.000000
# 5 0.000000 0.000000 0.000000 0.000000 0.082336 0.000000
# 6 0.000000 0.000000 0.000000 0.000000 0.000000 0.044905
#
#
# Mechanical properties :
#
#
# Convention : Reuss Voigt Hill
#
# Bulk Modulus (GPa) = 15.79607 30.95763 23.37685
# Shear Modulus (GPa) = 11.85438 21.05681 16.45560
#
# Velocity S-wave (km/s) = 2.47419 3.29753 2.91508
# Velocity P-wave (km/s) = 4.03971 5.52131 4.83756
#
# Compressibility (1/GPa) = 0.06330690
#
# Stress axis : x y z
#
# Youngs Moduli (GPa) = 96.88663 42.29026 30.83553
#
# Poissons Ratio (x) = 0.33093 0.03715
# Poissons Ratio (y) = 0.75815 -0.23079
# Poissons Ratio (z) = 0.11673 -0.31652
#
# Static dielectric constant tensor:
#      x y z
#    x 1.720840 0.000000 0.000000 
#    y 0.000000 1.650430 0.000000 
#    z 0.000000 0.000000 1.684730 
# 
# From -- ./inp_files/28061.got.cif
#   From: 2010.05.17/outbox.cif.g08.bks.cpg/sg64_15_cif.got.tgz:28061.got - 2010.06.03 16:29:19.
