data_PCOD9479098
_publ_section_title
;
Structure prediction by ZEFSAII (Michael W. Deem and Ramdas Pophale) SiO2 
 PCOD9479098
Probable space group: C M C A
;
_chemical_formula_sum "Si O2"
_cell_formula_units_Z 120
_cell_length_a 9.441301
_cell_length_b 25.178724
_cell_length_c 28.729224
_cell_angle_alpha 90.000000
_cell_angle_beta 90.000000
_cell_angle_gamma 90.000000
_cell_volume 6829.508603
_symmetry_space_group_name_H-M "C M C A"
_symmetry_group_IT_number 64
_symmetry_cell_setting 'orthorhombic'
loop_
_space_group_symop_operation_xyz
x,y,z
-x,1/2-y,1/2+z
x,-y,-z
-x,1/2+y,1/2-z
-x,-y,-z
x,1/2+y,1/2-z
-x,y,z
x,1/2-y,1/2+z
1/2+x,1/2+y,z
1/2-x,-y,1/2+z
1/2+x,1/2-y,-z
1/2-x,y,1/2-z
1/2-x,1/2-y,-z
1/2+x,y,1/2-z
1/2-x,1/2+y,z
1/2+x,-y,1/2+z
loop_
_atom_site_type_symbol
_atom_site_label
_atom_site_fract_x
_atom_site_fract_y
_atom_site_fract_z
Si Si1 0.000000 0.742365 0.014951
Si Si2 0.164470 0.602019 0.952651
Si Si3 0.714665 0.702680 0.056331
Si Si4 0.833209 0.001753 0.389473
Si Si5 0.165043 0.196807 0.616156
Si Si6 0.667174 0.974409 0.297433
Si Si7 0.665459 0.346332 0.203193
Si Si8 0.835434 0.583468 0.453724
O O1 0.124168 0.708414 0.041012
O O2 0.119723 0.777240 0.986513
O O3 0.174577 0.556061 0.914021
O O4 0.196878 0.657799 0.927513
O O5 0.000000 0.604223 0.968678
O O6 0.267903 0.589053 0.994862
O O7 0.685127 0.743778 0.098064
O O8 0.676058 0.642372 0.067591
O O9 0.757749 0.042658 0.424164
O O10 0.000000 0.013713 0.382740
O O11 0.747639 0.999300 0.341337
O O12 0.263622 0.181164 0.658814
O O13 0.000000 0.187335 0.628029
O O14 0.500000 0.988095 0.295592
O O15 0.750000 0.988114 0.250000
O O16 0.676088 0.910214 0.302613
O O17 0.500000 0.332877 0.207202
O O18 0.750000 0.332256 0.250000
O O19 0.000000 0.567137 0.455904
#
# Coordination Sequence:
#
# PCOD9479098 Si02
#       8
#     8  16  16  16  16  16  16  16
#     4  10  20  38  58  78 114 144 200 242 286 326
#     4  10  22  37  57  82 113 156 199 237 287 344
#     4  11  23  37  57  86 111 154 194 246 286 337
#     4  11  23  40  58  83 115 156 197 237 290 350
#     4  11  21  36  59  85 118 151 191 243 291 343
#     4  10  20  37  61  88 117 146 187 239 291 347
#     4  10  21  36  58  88 119 150 186 234 297 354
#     4  12  25  38  55  80 119 159 201 243 287 341
#
# _framework density 17.570810000000002
#
# number of rings (size 3 to 8) (size 9 to 14) (size 15 to 20)
#    0.000    1.333    2.667    3.600    4.667    4.267 
#    0.000    0.000    0.000    0.800    0.000    3.733 
#    0.000    0.000    0.000    0.000    0.000    0.000 
#
# Total GULP energy -334152.300303 kJ/mol
# GULP energy per Si atom -5569.205005 kJ/mol
# Density = 1.753082 g / cm^3
# Si number density = 17.570810 Si / 1000 Ang^3
#
#
#
# Elastic Constant Matrix: (Units=GPa)
#
#
# Indices 1 2 3 4 5 6 
#
# 1 169.4569 20.6363 70.7581 0.0000 0.0000 0.0000
# 2 20.6363 23.7280 20.6606 0.0000 0.0000 0.0000
# 3 70.7581 20.6606 91.9951 0.0000 0.0000 0.0000
# 4 0.0000 0.0000 0.0000 2.2301 0.0000 0.0000
# 5 0.0000 0.0000 0.0000 0.0000 17.0642 0.0000
# 6 0.0000 0.0000 0.0000 0.0000 0.0000 -47.2641
#
#
#
# Elastic Compliance Matrix: (Units=1/GPa)
#
#
# Indices 1 2 3 4 5 6 
#
# 1 0.008783 -0.002183 -0.006265 0.000000 0.000000 0.000000
# 2 -0.002183 0.052932 -0.010208 0.000000 0.000000 0.000000
# 3 -0.006265 -0.010208 0.017982 0.000000 0.000000 0.000000
# 4 0.000000 0.000000 0.000000 0.448404 0.000000 0.000000
# 5 0.000000 0.000000 0.000000 0.000000 0.058602 0.000000
# 6 0.000000 0.000000 0.000000 0.000000 0.000000 -0.021158
#
#
# Mechanical properties :
#
#
# Convention : Reuss Voigt Hill
#
# Bulk Modulus (GPa) = 23.59447 56.58777 40.09112
# Shear Modulus (GPa) = 8.10391 5.94771 7.02581
#
# Velocity S-wave (km/s) = 2.14992 1.84183 2.00181
# Velocity P-wave (km/s) = 4.42947 6.06618 5.31125
#
# Compressibility (1/GPa) = 0.04238282
#
# Stress axis : x y z
#
# Youngs Moduli (GPa) = 113.85361 18.89227 55.61225
#
# Poissons Ratio (x) = 0.04125 0.34842
# Poissons Ratio (y) = 0.24859 0.56770
# Poissons Ratio (z) = 0.71332 0.19286
#
# Static dielectric constant tensor:
#      x y z
#    x 1.600710 0.000000 0.000000 
#    y 0.000000 1.602560 0.000000 
#    z 0.000000 0.000000 1.583060 
# 
# From -- ./inp_files/48730.got.cif
#   From: 2010.05.17/outbox.cif.g08.bks.cpg/sg64_25_cif.got.tgz:48730.got - 2010.06.03 16:29:19.
