data_PCOD9479056
_publ_section_title
;
Structure prediction by ZEFSAII (Michael W. Deem and Ramdas Pophale) SiO2 
 PCOD9479056
Probable space group: C M C A
;
_chemical_formula_sum "Si O2"
_cell_formula_units_Z 64
_cell_length_a 8.736400
_cell_length_b 14.448798
_cell_length_c 25.001933
_cell_angle_alpha 90.000000
_cell_angle_beta 90.000000
_cell_angle_gamma 90.000000
_cell_volume 3156.005975
_symmetry_space_group_name_H-M "C M C A"
_symmetry_group_IT_number 64
_symmetry_cell_setting 'orthorhombic'
loop_
_space_group_symop_operation_xyz
x,y,z
-x,1/2-y,1/2+z
x,-y,-z
-x,1/2+y,1/2-z
-x,-y,-z
x,1/2+y,1/2-z
-x,y,z
x,1/2-y,1/2+z
1/2+x,1/2+y,z
1/2-x,-y,1/2+z
1/2+x,1/2-y,-z
1/2-x,y,1/2-z
1/2-x,1/2-y,-z
1/2+x,y,1/2-z
1/2-x,1/2+y,z
1/2+x,-y,1/2+z
loop_
_atom_site_type_symbol
_atom_site_label
_atom_site_fract_x
_atom_site_fract_y
_atom_site_fract_z
Si Si1 0.177739 0.546326 0.804329
Si Si2 0.320780 0.181989 0.618849
Si Si3 0.322212 0.495656 0.420879
Si Si4 0.319284 0.680402 0.043604
O O1 0.250000 0.510073 0.750000
O O2 0.267121 0.637875 0.825001
O O3 0.186539 0.481227 0.856904
O O4 0.000000 0.567886 0.796111
O O5 0.500000 0.202679 0.617507
O O6 0.221700 0.267953 0.599292
O O7 0.280387 0.096672 0.578318
O O8 0.500000 0.474066 0.432614
O O9 0.261719 0.580952 0.454498
O O10 0.500000 0.670990 0.036796
O O11 0.250000 0.750000 0.000000
#
# Coordination Sequence:
#
# PCOD9479056 Si02
#       4
#    16  16  16  16
#     4   9  18  34  59  85 115 149 187 231 281 334
#     4  10  20  37  59  84 116 150 189 233 281 335
#     4   9  20  38  58  84 116 148 189 235 280 333
#     4  12  24  39  59  84 114 150 192 235 285 337
#
# _framework density 20.278797000000001
#
# number of rings (size 3 to 8) (size 9 to 14) (size 15 to 20)
#    1.500    0.500    0.000    5.250    0.000    1.000 
#    0.000    6.250    0.000    3.000    0.000    0.000 
#    0.000    0.000    0.000    0.000    0.000    0.000 
#
# Total GULP energy -178360.313601 kJ/mol
# GULP energy per Si atom -5573.759800 kJ/mol
# Density = 2.023264 g / cm^3
# Si number density = 20.278797 Si / 1000 Ang^3
#
#
#
# Elastic Constant Matrix: (Units=GPa)
#
#
# Indices 1 2 3 4 5 6 
#
# 1 116.6876 -2.3938 9.5445 0.0000 0.0000 0.0000
# 2 -2.3938 47.1780 -10.8598 0.0000 0.0000 0.0000
# 3 9.5445 -10.8598 65.9668 0.0000 0.0000 0.0000
# 4 0.0000 0.0000 0.0000 21.8323 0.0000 0.0000
# 5 0.0000 0.0000 0.0000 0.0000 31.7984 0.0000
# 6 0.0000 0.0000 0.0000 0.0000 0.0000 29.5305
#
#
#
# Elastic Compliance Matrix: (Units=1/GPa)
#
#
# Indices 1 2 3 4 5 6 
#
# 1 0.008674 0.000157 -0.001229 0.000000 0.000000 0.000000
# 2 0.000157 0.022034 0.003605 0.000000 0.000000 0.000000
# 3 -0.001229 0.003605 0.015930 0.000000 0.000000 0.000000
# 4 0.000000 0.000000 0.000000 0.045804 0.000000 0.000000
# 5 0.000000 0.000000 0.000000 0.000000 0.031448 0.000000
# 6 0.000000 0.000000 0.000000 0.000000 0.000000 0.033863
#
#
# Mechanical properties :
#
#
# Convention : Reuss Voigt Hill
#
# Bulk Modulus (GPa) = 19.34106 24.71269 22.02688
# Shear Modulus (GPa) = 29.42522 32.20167 30.81344
#
# Velocity S-wave (km/s) = 3.81338 3.98923 3.90229
# Velocity P-wave (km/s) = 5.38028 5.78200 5.58475
#
# Compressibility (1/GPa) = 0.05170347
#
# Stress axis : x y z
#
# Youngs Moduli (GPa) = 115.29177 45.38435 62.77311
#
# Poissons Ratio (x) = -0.00713 0.07715
# Poissons Ratio (y) = -0.01812 -0.22627
# Poissons Ratio (z) = 0.14170 -0.16359
#
# Static dielectric constant tensor:
#      x y z
#    x 1.663660 0.000000 0.000000 
#    y 0.000000 1.714270 0.000000 
#    z 0.000000 0.000000 1.825820 
# 
# From -- ./inp_files/47687.got.cif
#   From: 2010.05.17/outbox.cif.g08.bks.cpg/sg64_24_cif.got.tgz:47687.got - 2010.06.03 16:29:19.
