data_PCOD9479167
_publ_section_title
;
Structure prediction by ZEFSAII (Michael W. Deem and Ramdas Pophale) SiO2 
 PCOD9479167
Probable space group: C M C A
;
_chemical_formula_sum "Si O2"
_cell_formula_units_Z 112
_cell_length_a 21.190013
_cell_length_b 12.750333
_cell_length_c 21.745003
_cell_angle_alpha 90.000000
_cell_angle_beta 90.000000
_cell_angle_gamma 90.000000
_cell_volume 5875.058866
_symmetry_space_group_name_H-M "C M C A"
_symmetry_group_IT_number 64
_symmetry_cell_setting 'orthorhombic'
loop_
_space_group_symop_operation_xyz
x,y,z
-x,1/2-y,1/2+z
x,-y,-z
-x,1/2+y,1/2-z
-x,-y,-z
x,1/2+y,1/2-z
-x,y,z
x,1/2-y,1/2+z
1/2+x,1/2+y,z
1/2-x,-y,1/2+z
1/2+x,1/2-y,-z
1/2-x,y,1/2-z
1/2-x,1/2-y,-z
1/2+x,y,1/2-z
1/2-x,1/2+y,z
1/2+x,-y,1/2+z
loop_
_atom_site_type_symbol
_atom_site_label
_atom_site_fract_x
_atom_site_fract_y
_atom_site_fract_z
Si Si1 0.575289 0.469542 0.432443
Si Si2 0.644607 0.909710 0.824338
Si Si3 0.574404 0.277444 0.776798
Si Si4 0.307805 0.634029 0.704674
Si Si5 0.927170 0.722056 0.418197
Si Si6 0.182480 0.123446 0.006298
Si Si7 0.766356 0.245424 0.396901
O O1 0.599442 0.500000 0.500000
O O2 0.500000 0.484809 0.431328
O O3 0.605524 0.542317 0.381036
O O4 0.586978 0.346811 0.420078
O O5 0.599171 0.862236 0.772065
O O6 0.690015 0.819500 0.850475
O O7 0.684052 0.009381 0.800601
O O8 0.500000 0.250177 0.767194
O O9 0.625174 0.182429 0.773758
O O10 0.579885 0.315248 0.847641
O O11 0.250000 0.657627 0.750000
O O12 0.285573 0.689350 0.641347
O O13 0.883040 0.661457 0.464866
O O14 0.000000 0.710336 0.435805
O O15 0.233569 0.165677 0.055457
O O16 0.194724 0.176448 0.940442
O O17 0.186216 0.000000 0.000000
#
# Coordination Sequence:
#
# PCOD9479167 Si02
#       7
#    16  16  16  16  16  16  16
#     4  10  20  37  65  96 126 168 218 272 330 385
#     4  12  24  39  68  96 132 164 227 271 334 393
#     4  11  24  43  67  95 131 171 218 271 329 398
#     4  12  25  43  68  93 129 176 217 268 335 399
#     4  10  21  41  63  87 126 172 214 260 327 399
#     4  11  23  40  64  90 130 167 214 264 333 392
#     4  11  24  41  62  98 125 166 216 278 323 391
#
# _framework density 19.063638999999998
#
# number of rings (size 3 to 8) (size 9 to 14) (size 15 to 20)
#    0.000    1.000    4.286    2.143    2.000    4.857 
#    0.000    0.714    0.000    0.000    0.000    0.000 
#    0.000    0.000    0.000    0.000    0.000    0.000 
#
# Total GULP energy -312876.416992 kJ/mol
# GULP energy per Si atom -5587.078875 kJ/mol
# Density = 1.902025 g / cm^3
# Si number density = 19.063639 Si / 1000 Ang^3
#
#
#
# Elastic Constant Matrix: (Units=GPa)
#
#
# Indices 1 2 3 4 5 6 
#
# 1 124.3338 68.5725 61.0560 0.0000 0.0000 0.0000
# 2 68.5725 123.2064 60.8990 0.0000 0.0000 0.0000
# 3 61.0560 60.8990 104.2634 0.0000 0.0000 0.0000
# 4 0.0000 0.0000 0.0000 28.9764 0.0000 0.0000
# 5 0.0000 0.0000 0.0000 0.0000 23.6360 0.0000
# 6 0.0000 0.0000 0.0000 0.0000 0.0000 -6.6317
#
#
#
# Elastic Compliance Matrix: (Units=1/GPa)
#
#
# Indices 1 2 3 4 5 6 
#
# 1 0.013120 -0.004927 -0.004805 0.000000 0.000000 0.000000
# 2 -0.004927 0.013261 -0.004860 0.000000 0.000000 0.000000
# 3 -0.004805 -0.004860 0.015244 0.000000 0.000000 0.000000
# 4 0.000000 0.000000 0.000000 0.034511 0.000000 0.000000
# 5 0.000000 0.000000 0.000000 0.000000 0.042308 0.000000
# 6 0.000000 0.000000 0.000000 0.000000 0.000000 -0.150791
#
#
# Mechanical properties :
#
#
# Convention : Reuss Voigt Hill
#
# Bulk Modulus (GPa) = 80.38753 81.42875 80.90814
# Shear Modulus (GPa) = 5080.18352 19.94789 2550.06570
#
# Velocity S-wave (km/s) = 51.67824 3.23830 36.61370
# Velocity P-wave (km/s) = 60.02594 7.53585 42.77793
#
# Compressibility (1/GPa) = 0.01243974
#
# Stress axis : x y z
#
# Youngs Moduli (GPa) = 76.22077 75.40861 65.60022
#
# Poissons Ratio (x) = 0.37153 0.31521
# Poissons Ratio (y) = 0.37554 0.31885
# Poissons Ratio (z) = 0.36625 0.36652
#
# Static dielectric constant tensor:
#      x y z
#    x 1.642680 0.000000 0.000000 
#    y 0.000000 1.631830 0.000000 
#    z 0.000000 0.000000 1.669600 
# 
# From -- ./inp_files/41505.got.cif
#   From: 2010.05.17/outbox.cif.g08.bks.cpg/sg64_21_cif.got.tgz:41505.got - 2010.06.03 16:29:19.
