data_PCOD9479895
_publ_section_title
;
Structure prediction by ZEFSAII (Michael W. Deem and Ramdas Pophale) SiO2 
 PCOD9479895
Probable space group: C M C A
;
_chemical_formula_sum "Si O2"
_cell_formula_units_Z 56
_cell_length_a 23.504981
_cell_length_b 4.960112
_cell_length_c 22.789873
_cell_angle_alpha 90.000000
_cell_angle_beta 90.000000
_cell_angle_gamma 90.000000
_cell_volume 2657.010634
_symmetry_space_group_name_H-M "C M C A"
_symmetry_group_IT_number 64
_symmetry_cell_setting 'orthorhombic'
loop_
_space_group_symop_operation_xyz
x,y,z
-x,1/2-y,1/2+z
x,-y,-z
-x,1/2+y,1/2-z
-x,-y,-z
x,1/2+y,1/2-z
-x,y,z
x,1/2-y,1/2+z
1/2+x,1/2+y,z
1/2-x,-y,1/2+z
1/2+x,1/2-y,-z
1/2-x,y,1/2-z
1/2-x,1/2-y,-z
1/2+x,y,1/2-z
1/2-x,1/2+y,z
1/2+x,-y,1/2+z
loop_
_atom_site_type_symbol
_atom_site_label
_atom_site_fract_x
_atom_site_fract_y
_atom_site_fract_z
Si Si1 0.900476 0.884178 0.876758
Si Si2 0.211814 0.545019 0.567516
Si Si3 0.000000 0.528585 0.712395
Si Si4 0.566485 0.613700 0.439389
O O1 0.905105 0.567413 0.889199
O O2 0.942517 0.958795 0.823590
O O3 0.834938 0.970508 0.883734
O O4 0.926711 0.070761 0.928821
O O5 0.190706 0.500000 0.500000
O O6 0.265924 0.347945 0.572913
O O7 0.000000 0.839854 0.730366
O O8 0.590380 0.500000 0.500000
O O9 0.500000 0.548178 0.437024
#
# Coordination Sequence:
#
# PCOD9479895 Si02
#       4
#    16  16   8  16
#     4  12  22  40  61  86 123 166 199 248 309 363
#     4  10  21  37  59  90 126 162 196 232 286 366
#     4  12  26  44  63  86 117 156 212 272 318 348
#     4  11  20  32  54  90 126 153 186 232 295 381
#
# _framework density 21.076318000000001
#
# number of rings (size 3 to 8) (size 9 to 14) (size 15 to 20)
#    0.000    0.857    2.857    6.000    0.000    4.571 
#    0.000    0.000    0.000    5.143    0.000    0.000 
#    0.000    0.000    0.000    0.000    0.000    0.000 
#
# Total GULP energy -156309.366231 kJ/mol
# GULP energy per Si atom -5582.477365 kJ/mol
# Density = 2.102835 g / cm^3
# Si number density = 21.076318 Si / 1000 Ang^3
#
#
#
# Elastic Constant Matrix: (Units=GPa)
#
#
# Indices 1 2 3 4 5 6 
#
# 1 91.3326 -1.7963 22.5383 0.0000 0.0000 0.0000
# 2 -1.7963 63.6790 -4.3231 0.0000 0.0000 0.0000
# 3 22.5383 -4.3231 43.9834 0.0000 0.0000 0.0000
# 4 0.0000 0.0000 0.0000 33.2671 0.0000 0.0000
# 5 0.0000 0.0000 0.0000 0.0000 18.3551 0.0000
# 6 0.0000 0.0000 0.0000 0.0000 0.0000 28.7038
#
#
#
# Elastic Compliance Matrix: (Units=1/GPa)
#
#
# Indices 1 2 3 4 5 6 
#
# 1 0.012534 -0.000083 -0.006431 0.000000 0.000000 0.000000
# 2 -0.000083 0.015810 0.001596 0.000000 0.000000 0.000000
# 3 -0.006431 0.001596 0.026188 0.000000 0.000000 0.000000
# 4 0.000000 0.000000 0.000000 0.030060 0.000000 0.000000
# 5 0.000000 0.000000 0.000000 0.000000 0.054481 0.000000
# 6 0.000000 0.000000 0.000000 0.000000 0.000000 0.034839
#
#
# Mechanical properties :
#
#
# Convention : Reuss Voigt Hill
#
# Bulk Modulus (GPa) = 22.37283 25.75920 24.06602
# Shear Modulus (GPa) = 25.17043 28.23695 26.70369
#
# Velocity S-wave (km/s) = 3.45954 3.66423 3.56336
# Velocity P-wave (km/s) = 5.15714 5.49095 5.32666
#
# Compressibility (1/GPa) = 0.04469707
#
# Stress axis : x y z
#
# Youngs Moduli (GPa) = 79.78063 63.25193 38.18512
#
# Poissons Ratio (x) = 0.00525 0.24557
# Poissons Ratio (y) = 0.00662 -0.06096
# Poissons Ratio (z) = 0.51308 -0.10098
#
# Static dielectric constant tensor:
#      x y z
#    x 1.804790 0.000000 0.000000 
#    y 0.000000 1.722070 0.000000 
#    z 0.000000 0.000000 1.784490 
# 
# From -- ./inp_files/1629.got.cif
#   From: 2010.05.17/outbox.cif.g08.bks.cpg/sg64_1_cif.got.tgz:1629.got - 2010.06.03 16:29:19.
