data_PCOD9479706
_publ_section_title
;
Structure prediction by ZEFSAII (Michael W. Deem and Ramdas Pophale) SiO2 
 PCOD9479706
Probable space group: C M C A
;
_chemical_formula_sum "Si O2"
_cell_formula_units_Z 72
_cell_length_a 29.198608
_cell_length_b 24.633022
_cell_length_c 4.970338
_cell_angle_alpha 90.000000
_cell_angle_beta 90.000000
_cell_angle_gamma 90.000000
_cell_volume 3574.915374
_symmetry_space_group_name_H-M "C M C A"
_symmetry_group_IT_number 64
_symmetry_cell_setting 'orthorhombic'
loop_
_space_group_symop_operation_xyz
x,y,z
-x,1/2-y,1/2+z
x,-y,-z
-x,1/2+y,1/2-z
-x,-y,-z
x,1/2+y,1/2-z
-x,y,z
x,1/2-y,1/2+z
1/2+x,1/2+y,z
1/2-x,-y,1/2+z
1/2+x,1/2-y,-z
1/2-x,y,1/2-z
1/2-x,1/2-y,-z
1/2+x,y,1/2-z
1/2-x,1/2+y,z
1/2+x,-y,1/2+z
loop_
_atom_site_type_symbol
_atom_site_label
_atom_site_fract_x
_atom_site_fract_y
_atom_site_fract_z
Si Si1 0.890609 0.397313 0.615741
Si Si2 0.299645 0.540022 0.250055
Si Si3 0.554329 0.937711 0.102869
Si Si4 0.500000 0.283886 0.992718
Si Si5 0.600023 0.787375 0.387408
O O1 0.844723 0.424673 0.725184
O O2 0.916024 0.428937 0.372507
O O3 0.874258 0.339758 0.492480
O O4 0.925667 0.398525 0.868651
O O5 0.303477 0.500000 0.500000
O O6 0.250000 0.569261 0.250000
O O7 0.298586 0.500000 0.000000
O O8 0.500000 0.928433 0.148392
O O9 0.559605 0.000000 0.000000
O O10 0.500000 0.271051 0.676907
O O11 0.452403 0.308940 0.078935
O O12 0.606102 0.762913 0.093057
#
# Coordination Sequence:
#
# PCOD9479706 Si02
#       5
#    16  16  16   8  16
#     4  12  22  37  62  81 114 157 193 234 288 347
#     4  10  21  38  62  90 115 141 185 241 292 345
#     4  11  24  38  54  83 120 154 191 230 278 351
#     4   8  16  30  46  64  93 132 181 228 266 296
#     4  10  21  36  52  78 109 148 193 243 279 322
#
# _framework density 20.140336000000001
#
# number of rings (size 3 to 8) (size 9 to 14) (size 15 to 20)
#    0.000    1.556    0.000    6.000    3.111    1.778 
#    4.000    0.000    0.000    1.333    0.000    0.000 
#    0.000    0.000    0.000    0.000    0.000    0.000 
#
# Total GULP energy -200982.465840 kJ/mol
# GULP energy per Si atom -5582.846273 kJ/mol
# Density = 2.009450 g / cm^3
# Si number density = 20.140336 Si / 1000 Ang^3
#
#
#
# Elastic Constant Matrix: (Units=GPa)
#
#
# Indices 1 2 3 4 5 6 
#
# 1 112.5673 25.0982 23.0883 0.0000 0.0000 0.0000
# 2 25.0982 50.4604 0.4816 0.0000 0.0000 0.0000
# 3 23.0883 0.4816 114.7930 0.0000 0.0000 0.0000
# 4 0.0000 0.0000 0.0000 25.6681 0.0000 0.0000
# 5 0.0000 0.0000 0.0000 0.0000 23.6002 0.0000
# 6 0.0000 0.0000 0.0000 0.0000 0.0000 5.3831
#
#
#
# Elastic Compliance Matrix: (Units=1/GPa)
#
#
# Indices 1 2 3 4 5 6 
#
# 1 0.010467 -0.005186 -0.002084 0.000000 0.000000 0.000000
# 2 -0.005186 0.022388 0.000949 0.000000 0.000000 0.000000
# 3 -0.002084 0.000949 0.009126 0.000000 0.000000 0.000000
# 4 0.000000 0.000000 0.000000 0.038959 0.000000 0.000000
# 5 0.000000 0.000000 0.000000 0.000000 0.042373 0.000000
# 6 0.000000 0.000000 0.000000 0.000000 0.000000 0.185767
#
#
# Mechanical properties :
#
#
# Convention : Reuss Voigt Hill
#
# Bulk Modulus (GPa) = 34.08272 41.68411 37.88341
# Shear Modulus (GPa) = 15.08287 26.20711 20.64499
#
# Velocity S-wave (km/s) = 2.73955 3.61116 3.20512
# Velocity P-wave (km/s) = 5.19290 6.17488 5.70505
#
# Compressibility (1/GPa) = 0.02934038
#
# Stress axis : x y z
#
# Youngs Moduli (GPa) = 95.53571 44.66661 109.57216
#
# Poissons Ratio (x) = 0.23166 0.22830
# Poissons Ratio (y) = 0.49548 -0.10401
# Poissons Ratio (z) = 0.19905 -0.04240
#
# Static dielectric constant tensor:
#      x y z
#    x 1.751980 0.000000 0.000000 
#    y 0.000000 1.756800 0.000000 
#    z 0.000000 0.000000 1.715420 
# 
# From -- ./inp_files/2831.got.cif
#   From: 2010.05.17/outbox.cif.g08.bks.cpg/sg64_2_cif.got.tgz:2831.got - 2010.06.03 16:29:19.
