data_PCOD9479388
_publ_section_title
;
Structure prediction by ZEFSAII (Michael W. Deem and Ramdas Pophale) SiO2 
 PCOD9479388
Probable space group: C M C A
;
_chemical_formula_sum "Si O2"
_cell_formula_units_Z 96
_cell_length_a 26.460791
_cell_length_b 9.215634
_cell_length_c 15.808404
_cell_angle_alpha 90.000000
_cell_angle_beta 90.000000
_cell_angle_gamma 90.000000
_cell_volume 3854.926191
_symmetry_space_group_name_H-M "C M C A"
_symmetry_group_IT_number 64
_symmetry_cell_setting 'orthorhombic'
loop_
_space_group_symop_operation_xyz
x,y,z
-x,1/2-y,1/2+z
x,-y,-z
-x,1/2+y,1/2-z
-x,-y,-z
x,1/2+y,1/2-z
-x,y,z
x,1/2-y,1/2+z
1/2+x,1/2+y,z
1/2-x,-y,1/2+z
1/2+x,1/2-y,-z
1/2-x,y,1/2-z
1/2-x,1/2-y,-z
1/2+x,y,1/2-z
1/2-x,1/2+y,z
1/2+x,-y,1/2+z
loop_
_atom_site_type_symbol
_atom_site_label
_atom_site_fract_x
_atom_site_fract_y
_atom_site_fract_z
Si Si1 0.158511 0.719304 0.530006
Si Si2 0.203026 0.705058 0.188683
Si Si3 0.862144 0.443502 0.223419
Si Si4 0.500000 0.595867 0.137690
Si Si5 0.000000 0.746052 0.684626
Si Si6 0.922509 0.442531 0.915472
Si Si7 0.389670 0.428784 0.896080
O O1 0.206697 0.736217 0.591698
O O2 0.126696 0.861437 0.548472
O O3 0.154400 0.678720 0.431273
O O4 0.125661 0.584973 0.565988
O O5 0.250000 0.721191 0.250000
O O6 0.185133 0.538403 0.190069
O O7 0.158995 0.802024 0.231445
O O8 0.903499 0.434594 0.149721
O O9 0.886805 0.541819 0.296745
O O10 0.500000 0.427093 0.170352
O O11 0.500000 0.704534 0.217701
O O12 0.447605 0.615364 0.086106
O O13 0.953329 0.824443 0.637624
O O14 0.948160 0.500000 0.000000
#
# Coordination Sequence:
#
# PCOD9479388 Si02
#       7
#    16  16  16   8   8  16  16
#     4   9  21  38  62  91 124 164 217 265 330 405
#     4  10  21  41  66  95 126 164 214 273 335 410
#     4  10  22  38  67  90 126 173 213 268 341 407
#     4  12  24  38  67  92 136 177 238 286 319 412
#     4  12  25  41  60  99 130 179 240 281 335 390
#     4  11  23  39  61  89 134 167 224 278 332 394
#     4  10  20  39  63  90 127 174 218 266 329 394
#
# _framework density 24.903199999999998
#
# number of rings (size 3 to 8) (size 9 to 14) (size 15 to 20)
#    0.000    1.667    3.333    0.750    2.333    3.333 
#    0.000    0.833    7.333    0.000    0.000    0.000 
#    0.000    0.000    0.000    0.000    0.000    0.000 
#
# Total GULP energy -268014.951584 kJ/mol
# GULP energy per Si atom -5583.644825 kJ/mol
# Density = 2.484652 g / cm^3
# Si number density = 24.903200 Si / 1000 Ang^3
#
#
#
# Elastic Constant Matrix: (Units=GPa)
#
#
# Indices 1 2 3 4 5 6 
#
# 1 70.7352 2.0572 17.9482 0.0000 0.0000 0.0000
# 2 2.0572 82.0655 5.8657 0.0000 0.0000 0.0000
# 3 17.9482 5.8657 113.3055 0.0000 0.0000 0.0000
# 4 0.0000 0.0000 0.0000 29.3427 0.0000 0.0000
# 5 0.0000 0.0000 0.0000 0.0000 -23.7652 0.0000
# 6 0.0000 0.0000 0.0000 0.0000 0.0000 24.5533
#
#
#
# Elastic Compliance Matrix: (Units=1/GPa)
#
#
# Indices 1 2 3 4 5 6 
#
# 1 0.014733 -0.000203 -0.002323 0.000000 0.000000 0.000000
# 2 -0.000203 0.012233 -0.000601 0.000000 0.000000 0.000000
# 3 -0.002323 -0.000601 0.009225 0.000000 0.000000 0.000000
# 4 0.000000 0.000000 0.000000 0.034080 0.000000 0.000000
# 5 0.000000 0.000000 0.000000 0.000000 -0.042078 0.000000
# 6 0.000000 0.000000 0.000000 0.000000 0.000000 0.040728
#
#
# Mechanical properties :
#
#
# Convention : Reuss Voigt Hill
#
# Bulk Modulus (GPa) = 33.40488 35.31648 34.36068
# Shear Modulus (GPa) = 58.71701 22.04181 40.37941
#
# Velocity S-wave (km/s) = 4.86100 2.97829 4.03110
# Velocity P-wave (km/s) = 6.70438 5.10287 5.95768
#
# Compressibility (1/GPa) = 0.02993575
#
# Stress axis : x y z
#
# Youngs Moduli (GPa) = 67.87653 81.74313 108.40312
#
# Poissons Ratio (x) = 0.01661 0.25184
# Poissons Ratio (y) = 0.01380 0.06516
# Poissons Ratio (z) = 0.15769 0.04914
#
# Static dielectric constant tensor:
#      x y z
#    x 2.024090 0.000000 0.000000 
#    y 0.000000 1.953730 0.000000 
#    z 0.000000 0.000000 2.146090 
# 
# From -- ./inp_files/28345.got.cif
#   From: 2010.05.17/outbox.cif.g08.bks.cpg/sg64_15_cif.got.tgz:28345.got - 2010.06.03 16:29:19.
