data_PCOD9479603
_publ_section_title
;
Structure prediction by ZEFSAII (Michael W. Deem and Ramdas Pophale) SiO2 
 PCOD9479603
Probable space group: C M C A
;
_chemical_formula_sum "Si O2"
_cell_formula_units_Z 72
_cell_length_a 30.644614
_cell_length_b 21.310432
_cell_length_c 5.494569
_cell_angle_alpha 90.000000
_cell_angle_beta 90.000000
_cell_angle_gamma 90.000000
_cell_volume 3588.228081
_symmetry_space_group_name_H-M "C M C A"
_symmetry_group_IT_number 64
_symmetry_cell_setting 'orthorhombic'
loop_
_space_group_symop_operation_xyz
x,y,z
-x,1/2-y,1/2+z
x,-y,-z
-x,1/2+y,1/2-z
-x,-y,-z
x,1/2+y,1/2-z
-x,y,z
x,1/2-y,1/2+z
1/2+x,1/2+y,z
1/2-x,-y,1/2+z
1/2+x,1/2-y,-z
1/2-x,y,1/2-z
1/2-x,1/2-y,-z
1/2+x,y,1/2-z
1/2-x,1/2+y,z
1/2+x,-y,1/2+z
loop_
_atom_site_type_symbol
_atom_site_label
_atom_site_fract_x
_atom_site_fract_y
_atom_site_fract_z
Si Si1 0.870276 0.070563 0.887652
Si Si2 0.048416 0.597912 0.323244
Si Si3 0.589100 0.500000 0.500000
Si Si4 0.948881 0.275998 0.958911
Si Si5 0.726033 0.423335 0.001067
O O1 0.879447 0.054227 0.606261
O O2 0.912212 0.106260 0.989584
O O3 0.824140 0.097938 0.967674
O O4 0.870213 0.000000 0.000000
O O5 0.057854 0.531224 0.198283
O O6 0.051317 0.651505 0.118075
O O7 0.000000 0.600612 0.432067
O O8 0.929776 0.240406 0.722287
O O9 0.000000 0.256138 0.980359
O O10 0.750000 0.404196 0.750000
O O11 0.725826 0.500000 0.000000
O O12 0.750000 0.404189 0.250000
#
# Coordination Sequence:
#
# PCOD9479603 Si02
#       5
#    16  16   8  16  16
#     4   9  20  32  47  70 105 137 179 216 258 312
#     4  10  21  34  51  73 106 146 184 221 263 317
#     4  10  21  32  50  74 108 152 182 214 255 320
#     4   9  19  35  54  74  97 131 179 231 274 308
#     4   9  18  29  49  69  95 132 171 212 263 308
#
# _framework density 20.065615999999999
#
# number of rings (size 3 to 8) (size 9 to 14) (size 15 to 20)
#    0.000    2.667    0.000    0.333   14.000    4.889 
#    0.000    0.000    0.000    0.000    0.000    0.000 
#    0.000    5.333    0.000    0.000    0.000    0.000 
#
# Total GULP energy -200533.746816 kJ/mol
# GULP energy per Si atom -5570.381856 kJ/mol
# Density = 2.001995 g / cm^3
# Si number density = 20.065616 Si / 1000 Ang^3
#
#
#
# Elastic Constant Matrix: (Units=GPa)
#
#
# Indices 1 2 3 4 5 6 
#
# 1 160.3757 17.5569 60.4756 0.0000 0.0000 0.0000
# 2 17.5569 24.5347 14.1169 0.0000 0.0000 0.0000
# 3 60.4756 14.1169 103.8648 0.0000 0.0000 0.0000
# 4 0.0000 0.0000 0.0000 25.8588 0.0000 0.0000
# 5 0.0000 0.0000 0.0000 0.0000 19.0473 0.0000
# 6 0.0000 0.0000 0.0000 0.0000 0.0000 -0.5502
#
#
#
# Elastic Compliance Matrix: (Units=1/GPa)
#
#
# Indices 1 2 3 4 5 6 
#
# 1 0.008243 -0.003403 -0.004337 0.000000 0.000000 0.000000
# 2 -0.003403 0.045622 -0.004219 0.000000 0.000000 0.000000
# 3 -0.004337 -0.004219 0.012727 0.000000 0.000000 0.000000
# 4 0.000000 0.000000 0.000000 0.038671 0.000000 0.000000
# 5 0.000000 0.000000 0.000000 0.000000 0.052501 0.000000
# 6 0.000000 0.000000 0.000000 0.000000 0.000000 -1.817435
#
#
# Mechanical properties :
#
#
# Convention : Reuss Voigt Hill
#
# Bulk Modulus (GPa) = 23.43437 52.56380 37.99908
# Shear Modulus (GPa) = -3.08351 21.97956 9.44803
#
# Velocity S-wave (km/s) = -1.24099 3.31325 2.17228
# Velocity P-wave (km/s) = 3.10658 6.39450 5.02695
#
# Compressibility (1/GPa) = 0.04267237
#
# Stress axis : x y z
#
# Youngs Moduli (GPa) = 121.30854 21.91945 78.57503
#
# Poissons Ratio (x) = 0.07460 0.34080
# Poissons Ratio (y) = 0.41286 0.33151
# Poissons Ratio (z) = 0.52614 0.09248
#
# Static dielectric constant tensor:
#      x y z
#    x 1.721940 0.000000 0.000000 
#    y 0.000000 1.717500 0.000000 
#    z 0.000000 0.000000 1.852060 
# 
# From -- ./inp_files/2834.got.cif
#   From: 2010.05.17/outbox.cif.g08.bks.cpg/sg64_2_cif.got.tgz:2834.got - 2010.06.03 16:29:19.
