data_PCOD9479696
_publ_section_title
;
Structure prediction by ZEFSAII (Michael W. Deem and Ramdas Pophale) SiO2 
 PCOD9479696
Probable space group: C M C A
;
_chemical_formula_sum "Si O2"
_cell_formula_units_Z 96
_cell_length_a 14.389239
_cell_length_b 31.016950
_cell_length_c 11.368770
_cell_angle_alpha 90.000000
_cell_angle_beta 90.000000
_cell_angle_gamma 90.000000
_cell_volume 5073.999224
_symmetry_space_group_name_H-M "C M C A"
_symmetry_group_IT_number 64
_symmetry_cell_setting 'orthorhombic'
loop_
_space_group_symop_operation_xyz
x,y,z
-x,1/2-y,1/2+z
x,-y,-z
-x,1/2+y,1/2-z
-x,-y,-z
x,1/2+y,1/2-z
-x,y,z
x,1/2-y,1/2+z
1/2+x,1/2+y,z
1/2-x,-y,1/2+z
1/2+x,1/2-y,-z
1/2-x,y,1/2-z
1/2-x,1/2-y,-z
1/2+x,y,1/2-z
1/2-x,1/2+y,z
1/2+x,-y,1/2+z
loop_
_atom_site_type_symbol
_atom_site_label
_atom_site_fract_x
_atom_site_fract_y
_atom_site_fract_z
Si Si1 0.100903 0.646254 0.569692
Si Si2 0.250000 0.159446 0.250000
Si Si3 0.223047 0.200013 0.492512
Si Si4 0.392401 0.495259 0.140491
Si Si5 0.607197 0.591758 0.145556
Si Si6 0.107540 0.635991 0.850357
Si Si7 0.250000 0.571897 0.750000
O O1 0.183466 0.676196 0.531754
O O2 0.109794 0.601963 0.495089
O O3 0.102714 0.643216 0.709768
O O4 0.000000 0.664145 0.534824
O O5 0.209052 0.187496 0.356372
O O6 0.329776 0.127953 0.297326
O O7 0.250000 0.250000 0.500000
O O8 0.144085 0.177338 0.574858
O O9 0.500000 0.486579 0.174233
O O10 0.364737 0.543579 0.180316
O O11 0.325188 0.459156 0.189923
O O12 0.389832 0.500000 0.000000
O O13 0.500000 0.596605 0.180770
O O14 0.191435 0.600332 0.846518
O O15 0.000000 0.624563 0.885981
#
# Coordination Sequence:
#
# PCOD9479696 Si02
#       7
#    16   8  16  16  16  16   8
#     4   9  18  37  64  89 116 157 204 250 301 362
#     4  10  23  37  60  86 114 166 200 243 313 376
#     4  11  24  40  63  89 122 155 201 256 313 372
#     4  10  21  35  59  92 124 161 212 257 292 352
#     4   9  18  36  58  86 121 161 210 254 294 354
#     4  11  23  40  64  92 124 161 204 254 308 367
#     4  12  21  37  64  92 128 166 206 251 315 364
#
# _framework density 18.919988
#
# number of rings (size 3 to 8) (size 9 to 14) (size 15 to 20)
#    0.000    1.833    1.667    2.000    4.667    4.000 
#    0.000    0.000    0.000    1.000    0.000    0.000 
#    0.000    0.000    0.000    0.000    0.000    0.000 
#
# Total GULP energy -267327.331111 kJ/mol
# GULP energy per Si atom -5569.319398 kJ/mol
# Density = 1.887693 g / cm^3
# Si number density = 18.919988 Si / 1000 Ang^3
#
#
#
# Elastic Constant Matrix: (Units=GPa)
#
#
# Indices 1 2 3 4 5 6 
#
# 1 112.0205 61.8848 29.6848 0.0000 0.0000 0.0000
# 2 61.8848 127.6584 40.8468 0.0000 0.0000 0.0000
# 3 29.6848 40.8468 83.2344 0.0000 0.0000 0.0000
# 4 0.0000 0.0000 0.0000 22.2785 0.0000 0.0000
# 5 0.0000 0.0000 0.0000 0.0000 26.3797 0.0000
# 6 0.0000 0.0000 0.0000 0.0000 0.0000 15.5048
#
#
#
# Elastic Compliance Matrix: (Units=1/GPa)
#
#
# Indices 1 2 3 4 5 6 
#
# 1 0.012403 -0.005453 -0.001747 0.000000 0.000000 0.000000
# 2 -0.005453 0.011690 -0.003792 0.000000 0.000000 0.000000
# 3 -0.001747 -0.003792 0.014498 0.000000 0.000000 0.000000
# 4 0.000000 0.000000 0.000000 0.044886 0.000000 0.000000
# 5 0.000000 0.000000 0.000000 0.000000 0.037908 0.000000
# 6 0.000000 0.000000 0.000000 0.000000 0.000000 0.064496
#
#
# Mechanical properties :
#
#
# Convention : Reuss Voigt Hill
#
# Bulk Modulus (GPa) = 60.21845 65.30509 62.76177
# Shear Modulus (GPa) = 23.42997 25.53240 24.48119
#
# Velocity S-wave (km/s) = 3.52287 3.67753 3.60103
# Velocity P-wave (km/s) = 6.96021 7.25422 7.10873
#
# Compressibility (1/GPa) = 0.01660621
#
# Stress axis : x y z
#
# Youngs Moduli (GPa) = 80.62844 85.54038 68.97369
#
# Poissons Ratio (x) = 0.46648 0.12050
# Poissons Ratio (y) = 0.43970 0.26155
# Poissons Ratio (z) = 0.14086 0.32438
#
# Static dielectric constant tensor:
#      x y z
#    x 1.682790 0.000000 0.000000 
#    y 0.000000 1.685850 0.000000 
#    z 0.000000 0.000000 1.688490 
# 
# From -- ./inp_files/14905.got.cif
#   From: 2010.05.17/outbox.cif.g08.bks.cpg/sg64_8_cif.got.tgz:14905.got - 2010.06.03 16:29:19.
