data_PCOD9479358
_publ_section_title
;
Structure prediction by ZEFSAII (Michael W. Deem and Ramdas Pophale) SiO2 
 PCOD9479358
Probable space group: C M C A
;
_chemical_formula_sum "Si O2"
_cell_formula_units_Z 112
_cell_length_a 17.756652
_cell_length_b 19.906267
_cell_length_c 17.966953
_cell_angle_alpha 90.000000
_cell_angle_beta 90.000000
_cell_angle_gamma 90.000000
_cell_volume 6350.754725
_symmetry_space_group_name_H-M "C M C A"
_symmetry_group_IT_number 64
_symmetry_cell_setting 'orthorhombic'
loop_
_space_group_symop_operation_xyz
x,y,z
-x,1/2-y,1/2+z
x,-y,-z
-x,1/2+y,1/2-z
-x,-y,-z
x,1/2+y,1/2-z
-x,y,z
x,1/2-y,1/2+z
1/2+x,1/2+y,z
1/2-x,-y,1/2+z
1/2+x,1/2-y,-z
1/2-x,y,1/2-z
1/2-x,1/2-y,-z
1/2+x,y,1/2-z
1/2-x,1/2+y,z
1/2+x,-y,1/2+z
loop_
_atom_site_type_symbol
_atom_site_label
_atom_site_fract_x
_atom_site_fract_y
_atom_site_fract_z
Si Si1 0.163370 0.841523 0.670326
Si Si2 0.414455 0.850088 0.986221
Si Si3 0.741260 0.703460 0.669372
Si Si4 0.277914 0.449428 0.891030
Si Si5 0.764631 0.408535 0.051355
Si Si6 0.583831 0.247491 0.387793
Si Si7 0.586071 0.607529 0.179631
O O1 0.108652 0.841671 0.599151
O O2 0.208552 0.771136 0.671405
O O3 0.224018 0.900265 0.655573
O O4 0.118681 0.858994 0.745158
O O5 0.500000 0.875186 0.993485
O O6 0.351000 0.896051 0.025368
O O7 0.409991 0.779344 0.030332
O O8 0.750000 0.670005 0.750000
O O9 0.760514 0.654291 0.601300
O O10 0.654000 0.723231 0.657421
O O11 0.244154 0.523158 0.902475
O O12 0.358017 0.448950 0.850560
O O13 0.280557 0.417911 0.974319
O O14 0.500000 0.266467 0.359137
O O15 0.588553 0.167672 0.380951
O O16 0.500000 0.586390 0.190356
#
# Coordination Sequence:
#
# PCOD9479358 Si02
#       7
#    16  16  16  16  16  16  16
#     4  11  20  33  57  84 114 140 189 232 282 335
#     4   9  19  35  56  82 114 143 180 232 284 332
#     4  11  19  33  54  82 109 148 180 233 284 338
#     4  10  20  39  56  80 109 148 189 240 271 334
#     4   9  22  36  58  80 110 145 195 231 280 333
#     4   9  18  32  51  79 109 142 177 222 278 330
#     4  11  21  34  56  81 113 149 183 228 281 333
#
# _framework density 17.635698999999999
#
# number of rings (size 3 to 8) (size 9 to 14) (size 15 to 20)
#    0.000    2.000    2.857    0.857    2.000    2.857 
#    0.000    7.857    0.000    6.857    0.000    0.000 
#    0.000    0.000    0.000    0.000    0.000    0.000 
#
# Total GULP energy -312137.329456 kJ/mol
# GULP energy per Si atom -5573.880883 kJ/mol
# Density = 1.759556 g / cm^3
# Si number density = 17.635699 Si / 1000 Ang^3
#
#
#
# Elastic Constant Matrix: (Units=GPa)
#
#
# Indices 1 2 3 4 5 6 
#
# 1 105.3267 38.3009 54.8711 0.0000 0.0000 0.0000
# 2 38.3009 72.8805 39.5657 0.0000 0.0000 0.0000
# 3 54.8711 39.5657 71.3475 0.0000 0.0000 0.0000
# 4 0.0000 0.0000 0.0000 17.5197 0.0000 0.0000
# 5 0.0000 0.0000 0.0000 0.0000 23.7114 0.0000
# 6 0.0000 0.0000 0.0000 0.0000 0.0000 18.5784
#
#
#
# Elastic Compliance Matrix: (Units=1/GPa)
#
#
# Indices 1 2 3 4 5 6 
#
# 1 0.016152 -0.002496 -0.011038 0.000000 0.000000 0.000000
# 2 -0.002496 0.020017 -0.009181 0.000000 0.000000 0.000000
# 3 -0.011038 -0.009181 0.027596 0.000000 0.000000 0.000000
# 4 0.000000 0.000000 0.000000 0.057079 0.000000 0.000000
# 5 0.000000 0.000000 0.000000 0.000000 0.042174 0.000000
# 6 0.000000 0.000000 0.000000 0.000000 0.000000 0.053826
#
#
# Mechanical properties :
#
#
# Convention : Reuss Voigt Hill
#
# Bulk Modulus (GPa) = 54.53862 57.22558 55.88210
# Shear Modulus (GPa) = 18.62994 19.74972 19.18983
#
# Velocity S-wave (km/s) = 3.25372 3.35008 3.30225
# Velocity P-wave (km/s) = 6.71624 6.89080 6.80408
#
# Compressibility (1/GPa) = 0.01833563
#
# Stress axis : x y z
#
# Youngs Moduli (GPa) = 61.91048 49.95771 36.23705
#
# Poissons Ratio (x) = 0.12470 0.39999
# Poissons Ratio (y) = 0.15454 0.33268
# Poissons Ratio (z) = 0.68337 0.45865
#
# Static dielectric constant tensor:
#      x y z
#    x 1.615180 0.000000 0.000000 
#    y 0.000000 1.592690 0.000000 
#    z 0.000000 0.000000 1.616810 
# 
# From -- ./inp_files/33611.got.cif
#   From: 2010.05.17/outbox.cif.g08.bks.cpg/sg64_17_cif.got.tgz:33611.got - 2010.06.03 16:29:19.
