data_PCOD9479250
_publ_section_title
;
Structure prediction by ZEFSAII (Michael W. Deem and Ramdas Pophale) SiO2 
 PCOD9479250
Probable space group: C M C A
;
_chemical_formula_sum "Si O2"
_cell_formula_units_Z 88
_cell_length_a 10.487706
_cell_length_b 14.124812
_cell_length_c 29.405103
_cell_angle_alpha 90.000000
_cell_angle_beta 90.000000
_cell_angle_gamma 90.000000
_cell_volume 4355.980084
_symmetry_space_group_name_H-M "C M C A"
_symmetry_group_IT_number 64
_symmetry_cell_setting 'orthorhombic'
loop_
_space_group_symop_operation_xyz
x,y,z
-x,1/2-y,1/2+z
x,-y,-z
-x,1/2+y,1/2-z
-x,-y,-z
x,1/2+y,1/2-z
-x,y,z
x,1/2-y,1/2+z
1/2+x,1/2+y,z
1/2-x,-y,1/2+z
1/2+x,1/2-y,-z
1/2-x,y,1/2-z
1/2-x,1/2-y,-z
1/2+x,y,1/2-z
1/2-x,1/2+y,z
1/2+x,-y,1/2+z
loop_
_atom_site_type_symbol
_atom_site_label
_atom_site_fract_x
_atom_site_fract_y
_atom_site_fract_z
Si Si1 0.250000 0.682312 0.750000
Si Si2 0.148331 0.717498 0.428198
Si Si3 0.349501 0.330585 0.822203
Si Si4 0.144915 0.545601 0.682902
Si Si5 0.144241 0.582769 0.890629
Si Si6 0.853925 0.579489 0.037675
O O1 0.288862 0.751849 0.709497
O O2 0.149377 0.610298 0.727593
O O3 0.173390 0.686491 0.375695
O O4 0.162029 0.831125 0.426275
O O5 0.250025 0.661771 0.458475
O O6 0.000000 0.695027 0.439064
O O7 0.500000 0.322756 0.815392
O O8 0.313407 0.437347 0.808635
O O9 0.245748 0.585357 0.646614
O O10 0.000000 0.543553 0.664710
O O11 0.148570 0.482524 0.916025
O O12 0.000000 0.596238 0.871663
O O13 0.000000 0.613720 0.030623
O O14 0.825693 0.500000 0.000000
#
# Coordination Sequence:
#
# PCOD9479250 Si02
#       6
#     8  16  16  16  16  16
#     4  12  22  38  58  86 118 156 196 246 292 342
#     4  10  20  38  62  85 117 159 196 236 293 354
#     4  10  21  38  56  82 119 154 193 243 291 344
#     4  11  23  38  60  87 116 153 200 246 288 345
#     4  10  21  39  62  85 118 160 193 236 300 355
#     4  10  22  40  62  91 122 151 193 247 296 351
#
# _framework density 20.202112
#
# number of rings (size 3 to 8) (size 9 to 14) (size 15 to 20)
#    0.000    1.636    3.636    1.091    0.000    2.545 
#    0.000    1.818    0.000    0.000    0.000    0.000 
#    0.000    0.000    0.000    0.000    0.000    0.000 
#
# Total GULP energy -245574.745613 kJ/mol
# GULP energy per Si atom -5581.244218 kJ/mol
# Density = 2.015613 g / cm^3
# Si number density = 20.202112 Si / 1000 Ang^3
#
#
#
# Elastic Constant Matrix: (Units=GPa)
#
#
# Indices 1 2 3 4 5 6 
#
# 1 82.5309 41.3382 27.4761 0.0000 0.0000 0.0000
# 2 41.3382 106.8053 14.3841 0.0000 0.0000 0.0000
# 3 27.4761 14.3841 35.5725 0.0000 0.0000 0.0000
# 4 0.0000 0.0000 0.0000 33.1085 0.0000 0.0000
# 5 0.0000 0.0000 0.0000 0.0000 23.5402 0.0000
# 6 0.0000 0.0000 0.0000 0.0000 0.0000 10.0944
#
#
#
# Elastic Compliance Matrix: (Units=1/GPa)
#
#
# Indices 1 2 3 4 5 6 
#
# 1 0.019135 -0.005727 -0.012464 0.000000 0.000000 0.000000
# 2 -0.005727 0.011616 -0.000273 0.000000 0.000000 0.000000
# 3 -0.012464 -0.000273 0.037849 0.000000 0.000000 0.000000
# 4 0.000000 0.000000 0.000000 0.030204 0.000000 0.000000
# 5 0.000000 0.000000 0.000000 0.000000 0.042480 0.000000
# 6 0.000000 0.000000 0.000000 0.000000 0.000000 0.099065
#
#
# Mechanical properties :
#
#
# Convention : Reuss Voigt Hill
#
# Bulk Modulus (GPa) = 31.57433 43.47836 37.52634
# Shear Modulus (GPa) = 17.37105 22.79600 20.08352
#
# Velocity S-wave (km/s) = 2.93552 3.36281 3.15640
# Velocity P-wave (km/s) = 5.21084 6.05362 5.64798
#
# Compressibility (1/GPa) = 0.03167130
#
# Stress axis : x y z
#
# Youngs Moduli (GPa) = 52.26071 86.08513 26.42070
#
# Poissons Ratio (x) = 0.49305 0.32930
# Poissons Ratio (y) = 0.29932 0.00722
# Poissons Ratio (z) = 0.65136 0.02353
#
# Static dielectric constant tensor:
#      x y z
#    x 1.698580 0.000000 0.000000 
#    y 0.000000 1.737390 0.000000 
#    z 0.000000 0.000000 1.749980 
# 
# From -- ./inp_files/44076.got.cif
#   From: 2010.05.17/outbox.cif.g08.bks.cpg/sg64_23_cif.got.tgz:44076.got - 2010.06.03 16:29:19.
