data_PCOD9479306
_publ_section_title
;
Structure prediction by ZEFSAII (Michael W. Deem and Ramdas Pophale) SiO2 
 PCOD9479306
Probable space group: C M C A
;
_chemical_formula_sum "Si O2"
_cell_formula_units_Z 96
_cell_length_a 8.534869
_cell_length_b 21.178748
_cell_length_c 27.505321
_cell_angle_alpha 90.000000
_cell_angle_beta 90.000000
_cell_angle_gamma 90.000000
_cell_volume 4971.802406
_symmetry_space_group_name_H-M "C M C A"
_symmetry_group_IT_number 64
_symmetry_cell_setting 'orthorhombic'
loop_
_space_group_symop_operation_xyz
x,y,z
-x,1/2-y,1/2+z
x,-y,-z
-x,1/2+y,1/2-z
-x,-y,-z
x,1/2+y,1/2-z
-x,y,z
x,1/2-y,1/2+z
1/2+x,1/2+y,z
1/2-x,-y,1/2+z
1/2+x,1/2-y,-z
1/2-x,y,1/2-z
1/2-x,1/2-y,-z
1/2+x,y,1/2-z
1/2-x,1/2+y,z
1/2+x,-y,1/2+z
loop_
_atom_site_type_symbol
_atom_site_label
_atom_site_fract_x
_atom_site_fract_y
_atom_site_fract_z
Si Si1 0.309145 0.062085 0.639167
Si Si2 0.810199 0.065041 0.973334
Si Si3 0.189441 0.563866 0.304849
Si Si4 0.688295 0.810162 0.637697
Si Si5 0.311654 0.311247 0.195128
Si Si6 0.313337 0.188648 0.028002
O O1 0.500000 0.061351 0.639013
O O2 0.259886 0.063664 0.582985
O O3 0.259809 0.124675 0.667958
O O4 0.257104 0.998818 0.666673
O O5 0.000000 0.069269 0.974659
O O6 0.742876 0.125634 0.000646
O O7 0.765484 0.000000 0.000000
O O8 0.250000 0.564328 0.250000
O O9 0.238510 0.626697 0.333634
O O10 0.000000 0.563126 0.303809
O O11 0.500000 0.808694 0.636855
O O12 0.750487 0.749037 0.665783
O O13 0.749841 0.811452 0.582866
O O14 0.500000 0.309987 0.195703
O O15 0.250000 0.310210 0.250000
O O16 0.500000 0.191078 0.028784
O O17 0.250000 0.250000 0.000000
#
# Coordination Sequence:
#
# PCOD9479306 Si02
#       6
#    16  16  16  16  16  16
#     4   9  19  36  58  84 114 152 196 240 288 344
#     4  10  20  38  64  90 120 160 204 249 300 357
#     4  10  21  38  60  86 116 152 194 239 289 346
#     4  11  23  40  62  87 117 154 197 244 299 360
#     4  11  22  37  58  84 117 155 197 245 296 353
#     4  12  25  41  62  89 122 158 201 250 302 361
#
# _framework density 19.308893999999999
#
# number of rings (size 3 to 8) (size 9 to 14) (size 15 to 20)
#    0.000    1.500    0.000    5.500    0.000    7.000 
#    0.000    2.500    0.000    0.000    0.000    0.000 
#    0.000    0.000    0.000    0.000    0.000    0.000 
#
# Total GULP energy -268459.564865 kJ/mol
# GULP energy per Si atom -5592.907601 kJ/mol
# Density = 1.926495 g / cm^3
# Si number density = 19.308894 Si / 1000 Ang^3
#
#
#
# Elastic Constant Matrix: (Units=GPa)
#
#
# Indices 1 2 3 4 5 6 
#
# 1 50.6537 53.3787 47.0383 0.0000 0.0000 0.0000
# 2 53.3787 237.1697 144.3096 0.0000 0.0000 0.0000
# 3 47.0383 144.3096 238.8645 0.0000 0.0000 0.0000
# 4 0.0000 0.0000 0.0000 47.0003 0.0000 0.0000
# 5 0.0000 0.0000 0.0000 0.0000 27.8146 0.0000
# 6 0.0000 0.0000 0.0000 0.0000 0.0000 20.8399
#
#
#
# Elastic Compliance Matrix: (Units=1/GPa)
#
#
# Indices 1 2 3 4 5 6 
#
# 1 0.026855 -0.004469 -0.002588 0.000000 0.000000 0.000000
# 2 -0.004469 0.007411 -0.003597 0.000000 0.000000 0.000000
# 3 -0.002588 -0.003597 0.006869 0.000000 0.000000 0.000000
# 4 0.000000 0.000000 0.000000 0.021276 0.000000 0.000000
# 5 0.000000 0.000000 0.000000 0.000000 0.035952 0.000000
# 6 0.000000 0.000000 0.000000 0.000000 0.000000 0.047985
#
#
# Mechanical properties :
#
#
# Convention : Reuss Voigt Hill
#
# Bulk Modulus (GPa) = 50.43893 112.90455 81.67174
# Shear Modulus (GPa) = 28.69145 37.92837 33.30991
#
# Velocity S-wave (km/s) = 3.85894 4.43685 4.15795
# Velocity P-wave (km/s) = 6.78484 9.21126 8.08954
#
# Compressibility (1/GPa) = 0.01982595
#
# Stress axis : x y z
#
# Youngs Moduli (GPa) = 37.23679 134.93280 145.57132
#
# Poissons Ratio (x) = 0.60305 0.37679
# Poissons Ratio (y) = 0.16642 0.52366
# Poissons Ratio (z) = 0.09638 0.48539
#
# Static dielectric constant tensor:
#      x y z
#    x 1.663190 0.000000 0.000000 
#    y 0.000000 1.645330 0.000000 
#    z 0.000000 0.000000 1.627140 
# 
# From -- ./inp_files/48034.got.cif
#   From: 2010.05.17/outbox.cif.g08.bks.cpg/sg64_25_cif.got.tgz:48034.got - 2010.06.03 16:29:19.
