data_PCOD9479642
_publ_section_title
;
Structure prediction by ZEFSAII (Michael W. Deem and Ramdas Pophale) SiO2 
 PCOD9479642
Probable space group: C M C A
;
_chemical_formula_sum "Si O2"
_cell_formula_units_Z 80
_cell_length_a 19.767356
_cell_length_b 11.141474
_cell_length_c 18.529353
_cell_angle_alpha 90.000000
_cell_angle_beta 90.000000
_cell_angle_gamma 90.000000
_cell_volume 4080.858065
_symmetry_space_group_name_H-M "C M C A"
_symmetry_group_IT_number 64
_symmetry_cell_setting 'orthorhombic'
loop_
_space_group_symop_operation_xyz
x,y,z
-x,1/2-y,1/2+z
x,-y,-z
-x,1/2+y,1/2-z
-x,-y,-z
x,1/2+y,1/2-z
-x,y,z
x,1/2-y,1/2+z
1/2+x,1/2+y,z
1/2-x,-y,1/2+z
1/2+x,1/2-y,-z
1/2-x,y,1/2-z
1/2-x,1/2-y,-z
1/2+x,y,1/2-z
1/2-x,1/2+y,z
1/2+x,-y,1/2+z
loop_
_atom_site_type_symbol
_atom_site_label
_atom_site_fract_x
_atom_site_fract_y
_atom_site_fract_z
Si Si1 0.823484 0.781260 0.285078
Si Si2 0.346111 0.423695 0.899111
Si Si3 0.845861 0.255186 0.970240
Si Si4 0.223663 0.095717 0.580072
Si Si5 0.920989 0.660578 0.652748
O O1 0.750000 0.763649 0.250000
O O2 0.842902 0.664063 0.330899
O O3 0.814183 0.886191 0.344511
O O4 0.877011 0.813163 0.223713
O O5 0.272297 0.481245 0.915837
O O6 0.395144 0.534099 0.880866
O O7 0.364367 0.344606 0.969041
O O8 0.778526 0.204742 0.929919
O O9 0.901819 0.258281 0.908631
O O10 0.827223 0.373307 0.015094
O O11 0.000000 0.657978 0.667680
#
# Coordination Sequence:
#
# PCOD9479642 Si02
#       5
#    16  16  16  16  16
#     4  11  21  35  57  86 117 151 195 245 294 342
#     4  10  21  34  59  87 116 150 194 246 292 345
#     4   9  18  34  57  87 113 144 191 240 292 339
#     4   9  17  34  54  84 118 136 186 246 293 331
#     4  11  23  39  56  84 125 158 192 237 292 354
#
# _framework density 19.603721
#
# number of rings (size 3 to 8) (size 9 to 14) (size 15 to 20)
#    0.000    2.000    4.000    2.400    2.800    2.400 
#    0.000    3.000    0.000    0.000    0.000    1.400 
#    0.000    0.000    0.000    0.000    0.000    0.000 
#
# Total GULP energy -223260.392688 kJ/mol
# GULP energy per Si atom -5581.509817 kJ/mol
# Density = 1.955910 g / cm^3
# Si number density = 19.603721 Si / 1000 Ang^3
#
#
#
# Elastic Constant Matrix: (Units=GPa)
#
#
# Indices 1 2 3 4 5 6 
#
# 1 120.6010 20.3343 73.1087 0.0000 0.0000 0.0000
# 2 20.3343 55.7321 34.0262 0.0000 0.0000 0.0000
# 3 73.1087 34.0262 154.0692 0.0000 0.0000 0.0000
# 4 0.0000 0.0000 0.0000 21.0176 0.0000 0.0000
# 5 0.0000 0.0000 0.0000 0.0000 22.6497 0.0000
# 6 0.0000 0.0000 0.0000 0.0000 0.0000 12.0720
#
#
#
# Elastic Compliance Matrix: (Units=1/GPa)
#
#
# Indices 1 2 3 4 5 6 
#
# 1 0.011690 -0.001015 -0.005323 0.000000 0.000000 0.000000
# 2 -0.001015 0.020828 -0.004118 0.000000 0.000000 0.000000
# 3 -0.005323 -0.004118 0.009926 0.000000 0.000000 0.000000
# 4 0.000000 0.000000 0.000000 0.047579 0.000000 0.000000
# 5 0.000000 0.000000 0.000000 0.000000 0.044151 0.000000
# 6 0.000000 0.000000 0.000000 0.000000 0.000000 0.082836
#
#
# Mechanical properties :
#
#
# Convention : Reuss Voigt Hill
#
# Bulk Modulus (GPa) = 46.44485 65.03785 55.74135
# Shear Modulus (GPa) = 20.39998 24.67673 22.53835
#
# Velocity S-wave (km/s) = 3.22936 3.55177 3.39440
# Velocity P-wave (km/s) = 6.13582 7.07591 6.62257
#
# Compressibility (1/GPa) = 0.02153091
#
# Stress axis : x y z
#
# Youngs Moduli (GPa) = 85.54575 48.01321 100.74784
#
# Poissons Ratio (x) = 0.04875 0.53625
# Poissons Ratio (y) = 0.08686 0.41488
# Poissons Ratio (z) = 0.45534 0.19772
#
# Static dielectric constant tensor:
#      x y z
#    x 1.672500 0.000000 0.000000 
#    y 0.000000 1.768050 0.000000 
#    z 0.000000 0.000000 1.735750 
# 
# From -- ./inp_files/32997.got.cif
#   From: 2010.05.17/outbox.cif.g08.bks.cpg/sg64_17_cif.got.tgz:32997.got - 2010.06.03 16:29:19.
