data_PCOD9479938
_publ_section_title
;
Structure prediction by ZEFSAII (Michael W. Deem and Ramdas Pophale) SiO2 
 PCOD9479938
Probable space group: C M C A
;
_chemical_formula_sum "Si O2"
_cell_formula_units_Z 112
_cell_length_a 16.165612
_cell_length_b 14.744457
_cell_length_c 22.292420
_cell_angle_alpha 90.000000
_cell_angle_beta 90.000000
_cell_angle_gamma 90.000000
_cell_volume 5313.468997
_symmetry_space_group_name_H-M "C M C A"
_symmetry_group_IT_number 64
_symmetry_cell_setting 'orthorhombic'
loop_
_space_group_symop_operation_xyz
x,y,z
-x,1/2-y,1/2+z
x,-y,-z
-x,1/2+y,1/2-z
-x,-y,-z
x,1/2+y,1/2-z
-x,y,z
x,1/2-y,1/2+z
1/2+x,1/2+y,z
1/2-x,-y,1/2+z
1/2+x,1/2-y,-z
1/2-x,y,1/2-z
1/2-x,1/2-y,-z
1/2+x,y,1/2-z
1/2-x,1/2+y,z
1/2+x,-y,1/2+z
loop_
_atom_site_type_symbol
_atom_site_label
_atom_site_fract_x
_atom_site_fract_y
_atom_site_fract_z
Si Si1 0.176579 0.053953 0.795283
Si Si2 0.092278 0.624812 0.283857
Si Si3 0.912933 0.123789 0.393938
Si Si4 0.900727 0.137820 0.537096
Si Si5 0.678766 0.811551 0.600117
Si Si6 0.771847 0.009166 0.407430
Si Si7 0.831629 0.256805 0.815388
O O1 0.250000 0.030374 0.750000
O O2 0.157908 0.158595 0.787691
O O3 0.105130 0.982722 0.782755
O O4 0.210123 0.041790 0.863257
O O5 0.112158 0.653800 0.351829
O O6 0.155884 0.674193 0.239468
O O7 0.000000 0.651029 0.266433
O O8 0.902560 0.132988 0.464999
O O9 0.840178 0.062508 0.368582
O O10 0.903605 0.219636 0.362560
O O11 0.000000 0.080257 0.380934
O O12 0.862694 0.233749 0.559444
O O13 0.000000 0.126246 0.555027
O O14 0.832941 0.060815 0.557486
O O15 0.719485 0.901945 0.568020
O O16 0.749986 0.767589 0.643051
#
# Coordination Sequence:
#
# PCOD9479938 Si02
#       7
#    16  16  16  16  16  16  16
#     4  11  22  40  62  89 122 162 203 253 314 379
#     4  11  23  39  62  91 124 160 204 259 313 380
#     4  10  22  39  60  90 130 162 201 265 319 366
#     4  11  22  40  65  95 128 168 216 267 320 372
#     4  10  21  40  62  92 126 165 206 260 314 376
#     4  10  21  37  62  92 121 162 208 255 318 371
#     4  11  22  39  64  88 121 164 208 252 315 378
#
# _framework density 21.078506999999998
#
# number of rings (size 3 to 8) (size 9 to 14) (size 15 to 20)
#    0.000    1.429    1.429    5.571    0.000    4.571 
#    2.571    0.714    0.000    0.000    0.000    5.000 
#    0.000    0.000    0.000    0.000    0.000    0.000 
#
# Total GULP energy -311891.376617 kJ/mol
# GULP energy per Si atom -5569.488868 kJ/mol
# Density = 2.103053 g / cm^3
# Si number density = 21.078507 Si / 1000 Ang^3
#
#
#
# Elastic Constant Matrix: (Units=GPa)
#
#
# Indices 1 2 3 4 5 6 
#
# 1 89.2631 36.2418 17.6573 0.0000 0.0000 0.0000
# 2 36.2418 122.3878 28.1793 0.0000 0.0000 0.0000
# 3 17.6573 28.1793 46.1855 0.0000 0.0000 0.0000
# 4 0.0000 0.0000 0.0000 23.3032 0.0000 0.0000
# 5 0.0000 0.0000 0.0000 0.0000 24.7221 0.0000
# 6 0.0000 0.0000 0.0000 0.0000 0.0000 16.7811
#
#
#
# Elastic Compliance Matrix: (Units=1/GPa)
#
#
# Indices 1 2 3 4 5 6 
#
# 1 0.013098 -0.003171 -0.003073 0.000000 0.000000 0.000000
# 2 -0.003171 0.010274 -0.005056 0.000000 0.000000 0.000000
# 3 -0.003073 -0.005056 0.025911 0.000000 0.000000 0.000000
# 4 0.000000 0.000000 0.000000 0.042912 0.000000 0.000000
# 5 0.000000 0.000000 0.000000 0.000000 0.040450 0.000000
# 6 0.000000 0.000000 0.000000 0.000000 0.000000 0.059591
#
#
# Mechanical properties :
#
#
# Convention : Reuss Voigt Hill
#
# Bulk Modulus (GPa) = 37.47628 46.88814 42.18221
# Shear Modulus (GPa) = 22.34823 24.67848 23.51336
#
# Velocity S-wave (km/s) = 3.25966 3.42539 3.34355
# Velocity P-wave (km/s) = 5.65554 6.15932 5.91280
#
# Compressibility (1/GPa) = 0.02668355
#
# Stress axis : x y z
#
# Youngs Moduli (GPa) = 76.34637 97.33346 38.59290
#
# Poissons Ratio (x) = 0.30866 0.11859
# Poissons Ratio (y) = 0.24211 0.19513
# Poissons Ratio (z) = 0.23459 0.49213
#
# Static dielectric constant tensor:
#      x y z
#    x 1.810330 0.000000 0.000000 
#    y 0.000000 1.806290 0.000000 
#    z 0.000000 0.000000 1.772540 
# 
# From -- ./inp_files/45226.got.cif
#   From: 2010.05.17/outbox.cif.g08.bks.cpg/sg64_23_cif.got.tgz:45226.got - 2010.06.03 16:29:19.
