data_PCOD9479498
_publ_section_title
;
Structure prediction by ZEFSAII (Michael W. Deem and Ramdas Pophale) SiO2 
 PCOD9479498
Probable space group: C M C A
;
_chemical_formula_sum "Si O2"
_cell_formula_units_Z 112
_cell_length_a 24.024006
_cell_length_b 14.994823
_cell_length_c 16.064336
_cell_angle_alpha 90.000000
_cell_angle_beta 90.000000
_cell_angle_gamma 90.000000
_cell_volume 5786.947609
_symmetry_space_group_name_H-M "C M C A"
_symmetry_group_IT_number 64
_symmetry_cell_setting 'orthorhombic'
loop_
_space_group_symop_operation_xyz
x,y,z
-x,1/2-y,1/2+z
x,-y,-z
-x,1/2+y,1/2-z
-x,-y,-z
x,1/2+y,1/2-z
-x,y,z
x,1/2-y,1/2+z
1/2+x,1/2+y,z
1/2-x,-y,1/2+z
1/2+x,1/2-y,-z
1/2-x,y,1/2-z
1/2-x,1/2-y,-z
1/2+x,y,1/2-z
1/2-x,1/2+y,z
1/2+x,-y,1/2+z
loop_
_atom_site_type_symbol
_atom_site_label
_atom_site_fract_x
_atom_site_fract_y
_atom_site_fract_z
Si Si1 0.063422 0.796989 0.347256
Si Si2 0.840630 0.474042 0.402688
Si Si3 0.854330 0.131180 0.327638
Si Si4 0.935514 0.091489 0.187388
Si Si5 0.128880 0.901163 0.485308
Si Si6 0.214785 0.455894 0.150168
Si Si7 0.657784 0.674953 0.779651
O O1 0.066487 0.689873 0.353579
O O2 0.090708 0.842649 0.426573
O O3 0.098929 0.827219 0.267716
O O4 0.000000 0.823639 0.337664
O O5 0.842528 0.500000 0.500000
O O6 0.889662 0.529583 0.357354
O O7 0.777313 0.486816 0.369782
O O8 0.848019 0.372561 0.369162
O O9 0.911881 0.108668 0.280340
O O10 0.862251 0.143057 0.425835
O O11 0.828419 0.220967 0.289643
O O12 0.816800 0.043901 0.319034
O O13 0.000000 0.060688 0.185777
O O14 0.186059 0.920375 0.434757
O O15 0.104349 0.000000 0.500000
O O16 0.198453 0.379946 0.217815
#
# Coordination Sequence:
#
# PCOD9479498 Si02
#       7
#    16  16  16  16  16  16  16
#     4   9  20  40  62  88 125 166 212 263 313 373
#     4  12  25  42  64  90 129 165 211 261 315 371
#     4  10  20  40  67  94 128 167 205 260 320 372
#     4  10  23  42  62  87 123 170 214 256 310 374
#     4   9  19  36  65  95 130 157 207 264 318 375
#     4  10  21  46  62  95 134 164 205 265 313 382
#     4  10  22  40  63  95 125 166 215 254 313 390
#
# _framework density 19.353899999999999
#
# number of rings (size 3 to 8) (size 9 to 14) (size 15 to 20)
#    0.000    2.000    1.429    1.714    2.000    1.714 
#   12.857    1.429    0.000    0.000    0.000    0.000 
#    0.000    0.000    0.000    0.000    0.000    0.000 
#
# Total GULP energy -312097.714123 kJ/mol
# GULP energy per Si atom -5573.173466 kJ/mol
# Density = 1.930985 g / cm^3
# Si number density = 19.353900 Si / 1000 Ang^3
#
#
#
# Elastic Constant Matrix: (Units=GPa)
#
#
# Indices 1 2 3 4 5 6 
#
# 1 156.0724 54.5459 44.3510 0.0000 0.0000 0.0000
# 2 54.5459 62.4383 37.4593 0.0000 0.0000 0.0000
# 3 44.3510 37.4593 117.2509 0.0000 0.0000 0.0000
# 4 0.0000 0.0000 0.0000 31.7268 0.0000 0.0000
# 5 0.0000 0.0000 0.0000 0.0000 13.3557 0.0000
# 6 0.0000 0.0000 0.0000 0.0000 0.0000 -7.5921
#
#
#
# Elastic Compliance Matrix: (Units=1/GPa)
#
#
# Indices 1 2 3 4 5 6 
#
# 1 0.009346 -0.007477 -0.001147 0.000000 0.000000 0.000000
# 2 -0.007477 0.025795 -0.005413 0.000000 0.000000 0.000000
# 3 -0.001147 -0.005413 0.010692 0.000000 0.000000 0.000000
# 4 0.000000 0.000000 0.000000 0.031519 0.000000 0.000000
# 5 0.000000 0.000000 0.000000 0.000000 0.074875 0.000000
# 6 0.000000 0.000000 0.000000 0.000000 0.000000 -0.131717
#
#
# Mechanical properties :
#
#
# Convention : Reuss Voigt Hill
#
# Bulk Modulus (GPa) = 56.30516 67.60820 61.95668
# Shear Modulus (GPa) = 91.73863 20.79179 56.26521
#
# Velocity S-wave (km/s) = 6.89228 3.28120 5.39767
# Velocity P-wave (km/s) = 9.61736 7.02591 8.42191
#
# Compressibility (1/GPa) = 0.01776036
#
# Stress axis : x y z
#
# Youngs Moduli (GPa) = 106.99504 38.76719 93.53074
#
# Poissons Ratio (x) = 0.28986 0.10724
# Poissons Ratio (y) = 0.80000 0.50626
# Poissons Ratio (z) = 0.12267 0.20984
#
# Static dielectric constant tensor:
#      x y z
#    x 1.680670 0.000000 0.000000 
#    y 0.000000 1.689960 0.000000 
#    z 0.000000 0.000000 1.701200 
# 
# From -- ./inp_files/27433.got.cif
#   From: 2010.05.17/outbox.cif.g08.bks.cpg/sg64_14_cif.got.tgz:27433.got - 2010.06.03 16:29:19.
