data_PCOD9479231
_publ_section_title
;
Structure prediction by ZEFSAII (Michael W. Deem and Ramdas Pophale) SiO2 
 PCOD9479231
Probable space group: C M C A
;
_chemical_formula_sum "Si O2"
_cell_formula_units_Z 80
_cell_length_a 7.457895
_cell_length_b 15.705352
_cell_length_c 28.527244
_cell_angle_alpha 90.000000
_cell_angle_beta 90.000000
_cell_angle_gamma 90.000000
_cell_volume 3341.363744
_symmetry_space_group_name_H-M "C M C A"
_symmetry_group_IT_number 64
_symmetry_cell_setting 'orthorhombic'
loop_
_space_group_symop_operation_xyz
x,y,z
-x,1/2-y,1/2+z
x,-y,-z
-x,1/2+y,1/2-z
-x,-y,-z
x,1/2+y,1/2-z
-x,y,z
x,1/2-y,1/2+z
1/2+x,1/2+y,z
1/2-x,-y,1/2+z
1/2+x,1/2-y,-z
1/2-x,y,1/2-z
1/2-x,1/2-y,-z
1/2+x,y,1/2-z
1/2-x,1/2+y,z
1/2+x,-y,1/2+z
loop_
_atom_site_type_symbol
_atom_site_label
_atom_site_fract_x
_atom_site_fract_y
_atom_site_fract_z
Si Si1 0.783025 0.921953 0.937961
Si Si2 0.787322 0.539657 0.802397
Si Si3 0.217869 0.881647 0.038331
Si Si4 0.290647 0.806564 0.368449
Si Si5 0.297008 0.863302 0.834927
O O1 0.702444 0.890602 0.889611
O O2 0.000000 0.916839 0.934226
O O3 0.737728 0.021109 0.946969
O O4 0.724508 0.870980 0.984584
O O5 0.750000 0.569922 0.750000
O O6 0.716897 0.605187 0.840688
O O7 0.712550 0.444106 0.809025
O O8 0.000000 0.535401 0.809956
O O9 0.285632 0.820431 0.079460
O O10 0.000000 0.877703 0.038187
O O11 0.500000 0.784721 0.374573
O O12 0.211544 0.730143 0.337436
O O13 0.500000 0.854953 0.816148
#
# Coordination Sequence:
#
# PCOD9479231 Si02
#       5
#    16  16  16  16  16
#     4   9  16  30  54  82 112 154 198 228 265 328
#     4  11  24  42  61  83 110 141 181 232 286 340
#     4   8  15  29  53  82 112 151 195 230 268 324
#     4  10  20  38  61  84 114 152 188 229 278 331
#     4  10  22  37  56  86 119 146 182 232 284 331
#
# _framework density 23.942321
#
# number of rings (size 3 to 8) (size 9 to 14) (size 15 to 20)
#    0.000    2.400    2.000    1.800    0.000    3.200 
#    0.000    5.000    0.000    0.000    0.000    0.000 
#    0.000    0.000    0.000    0.000    0.000    0.000 
#
# Total GULP energy -223432.642408 kJ/mol
# GULP energy per Si atom -5585.816060 kJ/mol
# Density = 2.388783 g / cm^3
# Si number density = 23.942321 Si / 1000 Ang^3
#
#
#
# Elastic Constant Matrix: (Units=GPa)
#
#
# Indices 1 2 3 4 5 6 
#
# 1 80.0285 -0.9935 -15.0513 0.0000 0.0000 0.0000
# 2 -0.9935 63.0032 -5.7033 0.0000 0.0000 0.0000
# 3 -15.0513 -5.7033 71.1428 0.0000 0.0000 0.0000
# 4 0.0000 0.0000 0.0000 22.9669 0.0000 0.0000
# 5 0.0000 0.0000 0.0000 0.0000 13.1937 0.0000
# 6 0.0000 0.0000 0.0000 0.0000 0.0000 -5.9182
#
#
#
# Elastic Compliance Matrix: (Units=1/GPa)
#
#
# Indices 1 2 3 4 5 6 
#
# 1 0.013026 0.000458 0.002793 0.000000 0.000000 0.000000
# 2 0.000458 0.016004 0.001380 0.000000 0.000000 0.000000
# 3 0.002793 0.001380 0.014758 0.000000 0.000000 0.000000
# 4 0.000000 0.000000 0.000000 0.043541 0.000000 0.000000
# 5 0.000000 0.000000 0.000000 0.000000 0.075794 0.000000
# 6 0.000000 0.000000 0.000000 0.000000 0.000000 -0.168971
#
#
# Mechanical properties :
#
#
# Convention : Reuss Voigt Hill
#
# Bulk Modulus (GPa) = 18.85007 18.96427 18.90717
# Shear Modulus (GPa) = 1942.68984 21.77665 982.23325
#
# Velocity S-wave (km/s) = 28.51606 3.01914 20.27660
# Velocity P-wave (km/s) = 33.04710 4.48237 23.58180
#
# Compressibility (1/GPa) = 0.05305020
#
# Stress axis : x y z
#
# Youngs Moduli (GPa) = 76.76685 62.48295 67.76131
#
# Poissons Ratio (x) = -0.02863 -0.18923
# Poissons Ratio (y) = -0.03518 -0.09351
# Poissons Ratio (z) = -0.21438 -0.08622
#
# Static dielectric constant tensor:
#      x y z
#    x 1.900400 0.000000 0.000000 
#    y 0.000000 1.965480 0.000000 
#    z 0.000000 0.000000 1.903120 
# 
# From -- ./inp_files/47850.got.cif
#   From: 2010.05.17/outbox.cif.g08.bks.cpg/sg64_24_cif.got.tgz:47850.got - 2010.06.03 16:29:19.
