data_PCOD9479413
_publ_section_title
;
Structure prediction by ZEFSAII (Michael W. Deem and Ramdas Pophale) SiO2 
 PCOD9479413
Probable space group: C M C A
;
_chemical_formula_sum "Si O2"
_cell_formula_units_Z 112
_cell_length_a 28.296944
_cell_length_b 12.236644
_cell_length_c 11.216789
_cell_angle_alpha 90.000000
_cell_angle_beta 90.000000
_cell_angle_gamma 90.000000
_cell_volume 3883.921209
_symmetry_space_group_name_H-M "C M C A"
_symmetry_group_IT_number 64
_symmetry_cell_setting 'orthorhombic'
loop_
_space_group_symop_operation_xyz
x,y,z
-x,1/2-y,1/2+z
x,-y,-z
-x,1/2+y,1/2-z
-x,-y,-z
x,1/2+y,1/2-z
-x,y,z
x,1/2-y,1/2+z
1/2+x,1/2+y,z
1/2-x,-y,1/2+z
1/2+x,1/2-y,-z
1/2-x,y,1/2-z
1/2-x,1/2-y,-z
1/2+x,y,1/2-z
1/2-x,1/2+y,z
1/2+x,-y,1/2+z
loop_
_atom_site_type_symbol
_atom_site_label
_atom_site_fract_x
_atom_site_fract_y
_atom_site_fract_z
Si Si1 0.302544 0.406826 0.401446
Si Si2 0.664451 0.169077 0.364397
Si Si3 0.868037 0.262069 0.865529
Si Si4 0.052438 0.147447 0.502931
Si Si5 0.052855 0.389819 0.269255
Si Si6 0.053944 0.382197 0.621777
Si Si7 0.193693 0.566292 0.627289
O O1 0.310793 0.500000 0.500000
O O2 0.325424 0.287950 0.423113
O O3 0.246234 0.389304 0.389829
O O4 0.318675 0.439076 0.269080
O O5 0.673091 0.194813 0.221633
O O6 0.609882 0.133388 0.353005
O O7 0.693731 0.062575 0.402772
O O8 0.899419 0.355780 0.928253
O O9 0.909934 0.203709 0.790328
O O10 0.845897 0.150142 0.921889
O O11 0.058311 0.917336 0.371712
O O12 0.050452 0.278484 0.531954
O O13 0.000000 0.120429 0.455245
O O14 0.055905 0.484875 0.367415
O O15 0.000000 0.346449 0.278054
O O16 0.000000 0.372055 0.677344
#
# Coordination Sequence:
#
# PCOD9479413 Si02
#       7
#    16  16  16  16  16  16  16
#     4  10  25  48  77 107 146 195 255 315 391 460
#     4  11  23  44  75 106 150 199 240 314 385 446
#     4  11  22  40  69 103 145 196 248 311 374 450
#     4  10  22  39  66 103 144 198 254 302 372 451
#     4  10  20  39  65  99 148 194 243 308 366 436
#     4  10  21  39  67 103 145 193 245 305 364 441
#     4  10  24  46  71 109 152 187 254 317 387 454
#
# _framework density 28.836836999999999
#
# number of rings (size 3 to 8) (size 9 to 14) (size 15 to 20)
#    0.000    1.714    2.857    0.429    0.000    8.571 
#    0.000    2.857    0.000    3.000    0.000    0.000 
#    0.000    0.000    0.000    0.000    0.000    0.000 
#
# Total GULP energy -312443.563982 kJ/mol
# GULP energy per Si atom -5579.349357 kJ/mol
# Density = 2.877120 g / cm^3
# Si number density = 28.836837 Si / 1000 Ang^3
#
#
#
# Elastic Constant Matrix: (Units=GPa)
#
#
# Indices 1 2 3 4 5 6 
#
# 1 125.0353 45.6838 28.2040 0.0000 0.0000 0.0000
# 2 45.6838 156.3566 15.4072 0.0000 0.0000 0.0000
# 3 28.2040 15.4072 40.5143 0.0000 0.0000 0.0000
# 4 0.0000 0.0000 0.0000 38.9646 0.0000 0.0000
# 5 0.0000 0.0000 0.0000 0.0000 29.6641 0.0000
# 6 0.0000 0.0000 0.0000 0.0000 0.0000 60.3636
#
#
#
# Elastic Compliance Matrix: (Units=1/GPa)
#
#
# Indices 1 2 3 4 5 6 
#
# 1 0.010280 -0.002388 -0.006248 0.000000 0.000000 0.000000
# 2 -0.002388 0.007199 -0.001076 0.000000 0.000000 0.000000
# 3 -0.006248 -0.001076 0.029441 0.000000 0.000000 0.000000
# 4 0.000000 0.000000 0.000000 0.025664 0.000000 0.000000
# 5 0.000000 0.000000 0.000000 0.000000 0.033711 0.000000
# 6 0.000000 0.000000 0.000000 0.000000 0.000000 0.016566
#
#
# Mechanical properties :
#
#
# Convention : Reuss Voigt Hill
#
# Bulk Modulus (GPa) = 36.36720 55.61068 45.98894
# Shear Modulus (GPa) = 33.01420 41.30585 37.16003
#
# Velocity S-wave (km/s) = 3.38725 3.78881 3.59364
# Velocity P-wave (km/s) = 5.28552 6.20214 5.76209
#
# Compressibility (1/GPa) = 0.02749730
#
# Stress axis : x y z
#
# Youngs Moduli (GPa) = 97.28089 138.90289 33.96595
#
# Poissons Ratio (x) = 0.33167 0.21222
# Poissons Ratio (y) = 0.23228 0.03653
# Poissons Ratio (z) = 0.60781 0.14940
#
# Static dielectric constant tensor:
#      x y z
#    x 2.069450 0.000000 0.000000 
#    y 0.000000 2.204030 0.000000 
#    z 0.000000 0.000000 2.981110 
# 
# From -- ./inp_files/28387.got.cif
#   From: 2010.05.17/outbox.cif.g08.bks.cpg/sg64_15_cif.got.tgz:28387.got - 2010.06.03 16:29:19.
