data_PCOD9479305
_publ_section_title
;
Structure prediction by ZEFSAII (Michael W. Deem and Ramdas Pophale) SiO2 
 PCOD9479305
Probable space group: C M C A
;
_chemical_formula_sum "Si O2"
_cell_formula_units_Z 88
_cell_length_a 19.755768
_cell_length_b 31.752007
_cell_length_c 6.938026
_cell_angle_alpha 90.000000
_cell_angle_beta 90.000000
_cell_angle_gamma 90.000000
_cell_volume 4352.121609
_symmetry_space_group_name_H-M "C M C A"
_symmetry_group_IT_number 64
_symmetry_cell_setting 'orthorhombic'
loop_
_space_group_symop_operation_xyz
x,y,z
-x,1/2-y,1/2+z
x,-y,-z
-x,1/2+y,1/2-z
-x,-y,-z
x,1/2+y,1/2-z
-x,y,z
x,1/2-y,1/2+z
1/2+x,1/2+y,z
1/2-x,-y,1/2+z
1/2+x,1/2-y,-z
1/2-x,y,1/2-z
1/2-x,1/2-y,-z
1/2+x,y,1/2-z
1/2-x,1/2+y,z
1/2+x,-y,1/2+z
loop_
_atom_site_type_symbol
_atom_site_label
_atom_site_fract_x
_atom_site_fract_y
_atom_site_fract_z
Si Si1 0.370936 0.841735 0.207865
Si Si2 0.192264 0.456428 0.906156
Si Si3 0.075559 0.190807 0.090090
Si Si4 0.577114 0.891795 0.848141
Si Si5 0.750000 0.600200 0.750000
Si Si6 0.196793 0.756342 0.378527
O O1 0.418445 0.820881 0.365774
O O2 0.312756 0.870022 0.306703
O O3 0.331007 0.803909 0.103581
O O4 0.409594 0.870977 0.057132
O O5 0.250000 0.465717 0.750000
O O6 0.131318 0.428719 0.820312
O O7 0.167988 0.500000 0.000000
O O8 0.226084 0.428084 0.072849
O O9 0.086565 0.147120 0.202957
O O10 0.134712 0.223409 0.135784
O O11 0.000000 0.206602 0.137755
O O12 0.500000 0.906825 0.832275
O O13 0.216531 0.745439 0.624517
#
# Coordination Sequence:
#
# PCOD9479305 Si02
#       6
#    16  16  16  16   8  16
#     4  11  21  39  61  85 119 162 207 252 301 353
#     4  11  22  39  67  96 122 154 195 246 301 367
#     4  11  24  40  59  86 123 166 209 255 303 355
#     4  10  24  42  62  90 123 160 202 247 304 365
#     4  10  20  38  64  90 120 154 200 250 302 354
#     4  12  22  38  58  86 121 160 211 255 300 353
#
# _framework density 20.220023000000001
#
# number of rings (size 3 to 8) (size 9 to 14) (size 15 to 20)
#    0.000    1.091    3.636    2.727    0.000    5.455 
#    0.000    0.000    0.000    0.545    0.000    0.000 
#    0.000    0.000    0.000    0.000    0.000    0.000 
#
# Total GULP energy -245766.278318 kJ/mol
# GULP energy per Si atom -5585.597234 kJ/mol
# Density = 2.017400 g / cm^3
# Si number density = 20.220023 Si / 1000 Ang^3
#
#
#
# Elastic Constant Matrix: (Units=GPa)
#
#
# Indices 1 2 3 4 5 6 
#
# 1 147.7664 64.7004 31.7940 0.0000 0.0000 0.0000
# 2 64.7004 93.3166 3.0061 0.0000 0.0000 0.0000
# 3 31.7940 3.0061 48.9941 0.0000 0.0000 0.0000
# 4 0.0000 0.0000 0.0000 32.7541 0.0000 0.0000
# 5 0.0000 0.0000 0.0000 0.0000 20.1064 0.0000
# 6 0.0000 0.0000 0.0000 0.0000 0.0000 10.7175
#
#
#
# Elastic Compliance Matrix: (Units=1/GPa)
#
#
# Indices 1 2 3 4 5 6 
#
# 1 0.011785 -0.007940 -0.007160 0.000000 0.000000 0.000000
# 2 -0.007940 0.016087 0.004166 0.000000 0.000000 0.000000
# 3 -0.007160 0.004166 0.024802 0.000000 0.000000 0.000000
# 4 0.000000 0.000000 0.000000 0.030531 0.000000 0.000000
# 5 0.000000 0.000000 0.000000 0.000000 0.049735 0.000000
# 6 0.000000 0.000000 0.000000 0.000000 0.000000 0.093305
#
#
# Mechanical properties :
#
#
# Convention : Reuss Voigt Hill
#
# Bulk Modulus (GPa) = 32.46350 54.34201 43.40276
# Shear Modulus (GPa) = 19.35112 25.42071 22.38592
#
# Velocity S-wave (km/s) = 3.09694 3.54955 3.33095
# Velocity P-wave (km/s) = 5.37383 6.61308 6.02540
#
# Compressibility (1/GPa) = 0.03080382
#
# Stress axis : x y z
#
# Youngs Moduli (GPa) = 84.85531 62.16079 40.31990
#
# Poissons Ratio (x) = 0.49357 0.28871
# Poissons Ratio (y) = 0.67377 -0.16796
# Poissons Ratio (z) = 0.60760 -0.25894
#
# Static dielectric constant tensor:
#      x y z
#    x 1.716370 0.000000 0.000000 
#    y 0.000000 1.661930 0.000000 
#    z 0.000000 0.000000 1.920190 
# 
# From -- ./inp_files/2431.got.cif
#   From: 2010.05.17/outbox.cif.g08.bks.cpg/sg64_2_cif.got.tgz:2431.got - 2010.06.03 16:29:19.
