data_PCOD9479189
_publ_section_title
;
Structure prediction by ZEFSAII (Michael W. Deem and Ramdas Pophale) SiO2 
 PCOD9479189
Probable space group: C M C A
;
_chemical_formula_sum "Si O2"
_cell_formula_units_Z 72
_cell_length_a 9.513619
_cell_length_b 24.299267
_cell_length_c 13.127632
_cell_angle_alpha 90.000000
_cell_angle_beta 90.000000
_cell_angle_gamma 90.000000
_cell_volume 3034.766783
_symmetry_space_group_name_H-M "C M C A"
_symmetry_group_IT_number 64
_symmetry_cell_setting 'orthorhombic'
loop_
_space_group_symop_operation_xyz
x,y,z
-x,1/2-y,1/2+z
x,-y,-z
-x,1/2+y,1/2-z
-x,-y,-z
x,1/2+y,1/2-z
-x,y,z
x,1/2-y,1/2+z
1/2+x,1/2+y,z
1/2-x,-y,1/2+z
1/2+x,1/2-y,-z
1/2-x,y,1/2-z
1/2-x,1/2-y,-z
1/2+x,y,1/2-z
1/2-x,1/2+y,z
1/2+x,-y,1/2+z
loop_
_atom_site_type_symbol
_atom_site_label
_atom_site_fract_x
_atom_site_fract_y
_atom_site_fract_z
Si Si1 0.655454 0.572775 0.390574
Si Si2 0.000000 0.420415 0.295749
Si Si3 0.288279 0.052390 0.877141
Si Si4 0.665186 0.829836 0.554650
Si Si5 0.667639 0.292184 0.355613
O O1 0.500000 0.589319 0.354057
O O2 0.692153 0.512312 0.350555
O O3 0.651627 0.562805 0.511744
O O4 0.770081 0.620450 0.379679
O O5 0.125549 0.432595 0.377497
O O6 0.120474 0.416431 0.206078
O O7 0.500000 0.836917 0.531666
O O8 0.680494 0.772472 0.615152
O O9 0.754963 0.822608 0.449893
O O10 0.500000 0.303547 0.347858
O O11 0.750000 0.301685 0.250000
#
# Coordination Sequence:
#
# PCOD9479189 Si02
#       5
#    16   8  16  16  16
#     4  11  21  39  57  84 116 166 193 237 294 355
#     4  10  20  38  56  86 110 158 198 256 284 336
#     4  10  21  38  59  79 122 156 199 241 293 342
#     4  10  23  40  63  91 122 154 200 246 297 358
#     4  10  21  43  66  90 119 155 193 246 302 359
#
# _framework density 23.725051000000001
#
# number of rings (size 3 to 8) (size 9 to 14) (size 15 to 20)
#    0.000    1.778    2.222    2.000    3.111    3.556 
#    8.000    0.000    0.000    0.000    0.000    0.000 
#    0.000    0.000    0.000    0.000    0.000    0.000 
#
# Total GULP energy -200443.366882 kJ/mol
# GULP energy per Si atom -5567.871302 kJ/mol
# Density = 2.367105 g / cm^3
# Si number density = 23.725051 Si / 1000 Ang^3
#
#
#
# Elastic Constant Matrix: (Units=GPa)
#
#
# Indices 1 2 3 4 5 6 
#
# 1 254.5638 62.4191 42.3273 0.0000 0.0000 0.0000
# 2 62.4191 123.3673 4.9493 0.0000 0.0000 0.0000
# 3 42.3273 4.9493 84.5361 0.0000 0.0000 0.0000
# 4 0.0000 0.0000 0.0000 -41.1727 0.0000 0.0000
# 5 0.0000 0.0000 0.0000 0.0000 49.0835 0.0000
# 6 0.0000 0.0000 0.0000 0.0000 0.0000 3.2694
#
#
#
# Elastic Compliance Matrix: (Units=1/GPa)
#
#
# Indices 1 2 3 4 5 6 
#
# 1 0.004898 -0.002385 -0.002313 0.000000 0.000000 0.000000
# 2 -0.002385 0.009287 0.000651 0.000000 0.000000 0.000000
# 3 -0.002313 0.000651 0.012949 0.000000 0.000000 0.000000
# 4 0.000000 0.000000 0.000000 -0.024288 0.000000 0.000000
# 5 0.000000 0.000000 0.000000 0.000000 0.020373 0.000000
# 6 0.000000 0.000000 0.000000 0.000000 0.000000 0.305866
#
#
# Mechanical properties :
#
#
# Convention : Reuss Voigt Hill
#
# Bulk Modulus (GPa) = 52.52419 75.76206 64.14312
# Shear Modulus (GPa) = 14.55493 25.75414 20.15454
#
# Velocity S-wave (km/s) = 2.47955 3.29831 2.91779
# Velocity P-wave (km/s) = 5.51220 6.81966 6.20049
#
# Compressibility (1/GPa) = 0.01903885
#
# Stress axis : x y z
#
# Youngs Moduli (GPa) = 204.17825 107.68181 77.22537
#
# Poissons Ratio (x) = 0.25685 0.17859
# Poissons Ratio (y) = 0.48702 -0.05024
# Poissons Ratio (z) = 0.47219 -0.07006
#
# Static dielectric constant tensor:
#      x y z
#    x 1.857280 0.000000 0.000000 
#    y 0.000000 2.003250 0.000000 
#    z 0.000000 0.000000 1.784440 
# 
# From -- ./inp_files/21156.got.cif
#   From: 2010.05.17/outbox.cif.g08.bks.cpg/sg64_11_cif.got.tgz:21156.got - 2010.06.03 16:29:19.
