data_PCOD9479910
_publ_section_title
;
Structure prediction by ZEFSAII (Michael W. Deem and Ramdas Pophale) SiO2 
 PCOD9479910
Probable space group: C M C A
;
_chemical_formula_sum "Si O2"
_cell_formula_units_Z 56
_cell_length_a 14.669419
_cell_length_b 22.070893
_cell_length_c 8.244114
_cell_angle_alpha 90.000000
_cell_angle_beta 90.000000
_cell_angle_gamma 90.000000
_cell_volume 2669.173518
_symmetry_space_group_name_H-M "C M C A"
_symmetry_group_IT_number 64
_symmetry_cell_setting 'orthorhombic'
loop_
_space_group_symop_operation_xyz
x,y,z
-x,1/2-y,1/2+z
x,-y,-z
-x,1/2+y,1/2-z
-x,-y,-z
x,1/2+y,1/2-z
-x,y,z
x,1/2-y,1/2+z
1/2+x,1/2+y,z
1/2-x,-y,1/2+z
1/2+x,1/2-y,-z
1/2-x,y,1/2-z
1/2-x,1/2-y,-z
1/2+x,y,1/2-z
1/2-x,1/2+y,z
1/2+x,-y,1/2+z
loop_
_atom_site_type_symbol
_atom_site_label
_atom_site_fract_x
_atom_site_fract_y
_atom_site_fract_z
Si Si1 0.813925 0.437807 0.904369
Si Si2 0.839062 0.336948 0.162403
Si Si3 0.500000 0.222584 0.029828
Si Si4 0.000000 0.396020 0.755105
Si Si5 0.000000 0.136427 0.885949
O O1 0.750000 0.434261 0.750000
O O2 0.914057 0.429104 0.831756
O O3 0.802821 0.500000 0.000000
O O4 0.800040 0.382919 0.029324
O O5 0.750000 0.309751 0.250000
O O6 0.908586 0.291149 0.073755
O O7 0.907894 0.373930 0.281973
O O8 0.500000 0.173202 0.175261
O O9 0.500000 0.291282 0.083674
O O10 0.000000 0.395050 0.560546
#
# Coordination Sequence:
#
# PCOD9479910 Si02
#       5
#    16  16   8   8   8
#     4  11  23  41  62  87 118 152 194 243 295 349
#     4  10  21  38  60  88 119 155 198 240 286 344
#     4   9  21  38  58  87 123 158 197 241 284 339
#     4  10  21  37  60  89 120 156 196 238 286 345
#     4  11  21  39  61  86 122 158 193 239 289 338
#
# _framework density 20.980276
#
# number of rings (size 3 to 8) (size 9 to 14) (size 15 to 20)
#    0.000    1.714    0.000    5.571    0.000    1.143 
#    0.000    9.286    0.000    0.000    0.000    0.000 
#    0.000    0.000    0.000    0.000    0.000    0.000 
#
# Total GULP energy -156510.112502 kJ/mol
# GULP energy per Si atom -5589.646875 kJ/mol
# Density = 2.093252 g / cm^3
# Si number density = 20.980276 Si / 1000 Ang^3
#
#
#
# Elastic Constant Matrix: (Units=GPa)
#
#
# Indices 1 2 3 4 5 6 
#
# 1 121.0802 30.2409 42.1324 0.0000 0.0000 0.0000
# 2 30.2409 57.3159 26.9970 0.0000 0.0000 0.0000
# 3 42.1324 26.9970 129.0413 0.0000 0.0000 0.0000
# 4 0.0000 0.0000 0.0000 23.7485 0.0000 0.0000
# 5 0.0000 0.0000 0.0000 0.0000 -32.8440 0.0000
# 6 0.0000 0.0000 0.0000 0.0000 0.0000 1.8046
#
#
#
# Elastic Compliance Matrix: (Units=1/GPa)
#
#
# Indices 1 2 3 4 5 6 
#
# 1 0.010159 -0.004213 -0.002435 0.000000 0.000000 0.000000
# 2 -0.004213 0.021101 -0.003039 0.000000 0.000000 0.000000
# 3 -0.002435 -0.003039 0.009180 0.000000 0.000000 0.000000
# 4 0.000000 0.000000 0.000000 0.042108 0.000000 0.000000
# 5 0.000000 0.000000 0.000000 0.000000 -0.030447 0.000000
# 6 0.000000 0.000000 0.000000 0.000000 0.000000 0.554154
#
#
# Mechanical properties :
#
#
# Convention : Reuss Voigt Hill
#
# Bulk Modulus (GPa) = 47.47047 56.24200 51.85623
# Shear Modulus (GPa) = 7.90324 12.41295 10.15810
#
# Velocity S-wave (km/s) = 1.94298 2.43502 2.20278
# Velocity P-wave (km/s) = 5.26393 5.89670 5.58927
#
# Compressibility (1/GPa) = 0.02106573
#
# Stress axis : x y z
#
# Youngs Moduli (GPa) = 98.43849 47.39024 108.92663
#
# Poissons Ratio (x) = 0.19964 0.26529
# Poissons Ratio (y) = 0.41469 0.33105
# Poissons Ratio (z) = 0.23974 0.14403
#
# Static dielectric constant tensor:
#      x y z
#    x 1.721270 0.000000 0.000000 
#    y 0.000000 1.722140 0.000000 
#    z 0.000000 0.000000 1.785480 
# 
# From -- ./inp_files/5407.got.cif
#   From: 2010.05.17/outbox.cif.g08.bks.cpg/sg64_3_cif.got.tgz:5407.got - 2010.06.03 16:29:19.
