data_PCOD9479972
_publ_section_title
;
Structure prediction by ZEFSAII (Michael W. Deem and Ramdas Pophale) SiO2 
 PCOD9479972
Probable space group: C M C A
;
_chemical_formula_sum "Si O2"
_cell_formula_units_Z 88
_cell_length_a 9.879445
_cell_length_b 21.946054
_cell_length_c 21.727632
_cell_angle_alpha 90.000000
_cell_angle_beta 90.000000
_cell_angle_gamma 90.000000
_cell_volume 4710.872914
_symmetry_space_group_name_H-M "C M C A"
_symmetry_group_IT_number 64
_symmetry_cell_setting 'orthorhombic'
loop_
_space_group_symop_operation_xyz
x,y,z
-x,1/2-y,1/2+z
x,-y,-z
-x,1/2+y,1/2-z
-x,-y,-z
x,1/2+y,1/2-z
-x,y,z
x,1/2-y,1/2+z
1/2+x,1/2+y,z
1/2-x,-y,1/2+z
1/2+x,1/2-y,-z
1/2-x,y,1/2-z
1/2-x,1/2-y,-z
1/2+x,y,1/2-z
1/2-x,1/2+y,z
1/2+x,-y,1/2+z
loop_
_atom_site_type_symbol
_atom_site_label
_atom_site_fract_x
_atom_site_fract_y
_atom_site_fract_z
Si Si1 0.844404 0.683439 0.806131
Si Si2 0.000000 0.149073 0.093499
Si Si3 0.500000 0.666676 0.396327
Si Si4 0.000000 0.220453 0.984735
Si Si5 0.230857 0.824538 0.818534
Si Si6 0.741479 0.133641 0.564569
Si Si7 0.500000 0.564884 0.971793
Si Si8 0.500000 0.925507 0.994982
O O1 0.750000 0.662945 0.750000
O O2 0.829129 0.756707 0.810137
O O3 0.795695 0.655843 0.870416
O O4 0.000000 0.668203 0.794444
O O5 0.128763 0.141004 0.136393
O O6 0.000000 0.215471 0.058937
O O7 0.000000 0.106766 0.033639
O O8 0.500000 0.714008 0.453376
O O9 0.628798 0.679174 0.354167
O O10 0.500000 0.599121 0.424906
O O11 0.858522 0.187398 0.962658
O O12 0.250000 0.850520 0.750000
O O13 0.632067 0.079607 0.567483
O O14 0.866321 0.106353 0.525253
O O15 0.500000 0.500000 0.000000
O O16 0.500000 0.000000 0.000000
#
# Coordination Sequence:
#
# PCOD9479972 Si02
#       8
#    16   8   8   8  16  16   8   8
#     4  11  23  36  60  90 128 163 195 241 306 377
#     4  10  21  38  56  88 121 154 199 251 297 373
#     4  12  23  36  62  90 127 156 197 261 298 384
#     4  10  22  34  61  96 123 152 202 240 336 364
#     4  11  23  36  57  88 127 159 194 236 308 380
#     4  10  21  39  60  90 121 154 196 257 300 378
#     4  10  22  41  65  85 115 162 204 257 310 361
#     4  12  26  41  60  87 120 164 208 255 316 356
#
# _framework density 18.68019
#
# number of rings (size 3 to 8) (size 9 to 14) (size 15 to 20)
#    0.000    1.455    3.636    3.273    8.909    1.455 
#    0.000    0.000    0.000    6.545    0.000    0.000 
#    0.000    0.000    0.000    0.000    0.000    0.000 
#
# Total GULP energy -245354.447190 kJ/mol
# GULP energy per Si atom -5576.237436 kJ/mol
# Density = 1.863767 g / cm^3
# Si number density = 18.680190 Si / 1000 Ang^3
#
#
#
# Elastic Constant Matrix: (Units=GPa)
#
#
# Indices 1 2 3 4 5 6 
#
# 1 169.4876 15.6244 49.2161 0.0000 0.0000 0.0000
# 2 15.6244 57.1928 15.7668 0.0000 0.0000 0.0000
# 3 49.2161 15.7668 112.1967 0.0000 0.0000 0.0000
# 4 0.0000 0.0000 0.0000 15.2458 0.0000 0.0000
# 5 0.0000 0.0000 0.0000 0.0000 38.5910 0.0000
# 6 0.0000 0.0000 0.0000 0.0000 0.0000 -6.2460
#
#
#
# Elastic Compliance Matrix: (Units=1/GPa)
#
#
# Indices 1 2 3 4 5 6 
#
# 1 0.006825 -0.001081 -0.002842 0.000000 0.000000 0.000000
# 2 -0.001081 0.018361 -0.002106 0.000000 0.000000 0.000000
# 3 -0.002842 -0.002106 0.010456 0.000000 0.000000 0.000000
# 4 0.000000 0.000000 0.000000 0.065592 0.000000 0.000000
# 5 0.000000 0.000000 0.000000 0.000000 0.025913 0.000000
# 6 0.000000 0.000000 0.000000 0.000000 0.000000 -0.160102
#
#
# Mechanical properties :
#
#
# Convention : Reuss Voigt Hill
#
# Bulk Modulus (GPa) = 42.40301 55.56573 48.98437
# Shear Modulus (GPa) = -383.52583 26.73615 -178.39484
#
# Velocity S-wave (km/s) = -14.34424 3.78730 -9.78299
# Velocity P-wave (km/s) = 15.86172 6.99537 10.06626
#
# Compressibility (1/GPa) = 0.02358323
#
# Stress axis : x y z
#
# Youngs Moduli (GPa) = 146.51915 54.46443 95.64329
#
# Poissons Ratio (x) = 0.05888 0.27181
# Poissons Ratio (y) = 0.15840 0.20142
# Poissons Ratio (z) = 0.41640 0.11470
#
# Static dielectric constant tensor:
#      x y z
#    x 1.651580 0.000000 0.000000 
#    y 0.000000 1.701750 0.000000 
#    z 0.000000 0.000000 1.637260 
# 
# From -- ./inp_files/36882.got.cif
#   From: 2010.05.17/outbox.cif.g08.bks.cpg/sg64_19_cif.got.tgz:36882.got - 2010.06.03 16:29:19.
