data_PCOD9479130
_publ_section_title
;
Structure prediction by ZEFSAII (Michael W. Deem and Ramdas Pophale) SiO2 
 PCOD9479130
Probable space group: C M C A
;
_chemical_formula_sum "Si O2"
_cell_formula_units_Z 104
_cell_length_a 26.322427
_cell_length_b 8.946011
_cell_length_c 18.836614
_cell_angle_alpha 90.000000
_cell_angle_beta 90.000000
_cell_angle_gamma 90.000000
_cell_volume 4435.659455
_symmetry_space_group_name_H-M "C M C A"
_symmetry_group_IT_number 64
_symmetry_cell_setting 'orthorhombic'
loop_
_space_group_symop_operation_xyz
x,y,z
-x,1/2-y,1/2+z
x,-y,-z
-x,1/2+y,1/2-z
-x,-y,-z
x,1/2+y,1/2-z
-x,y,z
x,1/2-y,1/2+z
1/2+x,1/2+y,z
1/2-x,-y,1/2+z
1/2+x,1/2-y,-z
1/2-x,y,1/2-z
1/2-x,1/2-y,-z
1/2+x,y,1/2-z
1/2-x,1/2+y,z
1/2+x,-y,1/2+z
loop_
_atom_site_type_symbol
_atom_site_label
_atom_site_fract_x
_atom_site_fract_y
_atom_site_fract_z
Si Si1 0.211838 0.249109 0.188081
Si Si2 0.915643 0.843317 0.458353
Si Si3 0.738675 0.001622 0.590030
Si Si4 0.322484 0.262662 0.548951
Si Si5 0.500000 0.763900 0.449956
Si Si6 0.105265 0.592632 0.797343
Si Si7 0.908390 0.755278 0.663009
O O1 0.250000 0.195741 0.250000
O O2 0.241796 0.378992 0.147698
O O3 0.203189 0.114257 0.132623
O O4 0.159786 0.326717 0.211028
O O5 0.859166 0.804207 0.484297
O O6 0.916958 0.860170 0.374053
O O7 0.955543 0.725691 0.487967
O O8 0.929609 0.000000 0.500000
O O9 0.788024 0.904650 0.568382
O O10 0.712794 0.119976 0.535919
O O11 0.359413 0.219131 0.614156
O O12 0.455335 0.736307 0.390407
O O13 0.105729 0.414735 0.802799
O O14 0.077813 0.643077 0.725962
#
# Coordination Sequence:
#
# PCOD9479130 Si02
#       7
#    16  16  16  16   8  16  16
#     4  11  22  35  61  95 137 193 235 271 335 412
#     4  11  21  44  77 101 136 179 247 288 355 423
#     4  10  20  37  62  92 138 184 232 282 343 394
#     4  10  21  42  66  99 140 186 233 297 336 426
#     4  10  23  46  78 105 127 188 220 310 356 431
#     4  12  25  42  69 106 141 179 230 293 344 424
#     4  11  25  42  70 104 143 172 240 288 359 419
#
# _framework density 23.446345000000001
#
# number of rings (size 3 to 8) (size 9 to 14) (size 15 to 20)
#    0.000    1.231    4.615    2.538    4.308    1.231 
#    0.000    9.231    0.000    0.923    0.000    0.000 
#    0.000    0.000    0.000    0.000    0.000    0.000 
#
# Total GULP energy -289903.004643 kJ/mol
# GULP energy per Si atom -5575.057782 kJ/mol
# Density = 2.339298 g / cm^3
# Si number density = 23.446345 Si / 1000 Ang^3
#
#
#
# Elastic Constant Matrix: (Units=GPa)
#
#
# Indices 1 2 3 4 5 6 
#
# 1 88.7184 1.5519 6.0317 0.0000 0.0000 0.0000
# 2 1.5519 53.5645 0.4730 0.0000 0.0000 0.0000
# 3 6.0317 0.4730 94.5981 0.0000 0.0000 0.0000
# 4 0.0000 0.0000 0.0000 41.8357 0.0000 0.0000
# 5 0.0000 0.0000 0.0000 0.0000 2.3635 0.0000
# 6 0.0000 0.0000 0.0000 0.0000 0.0000 -53.7085
#
#
#
# Elastic Compliance Matrix: (Units=1/GPa)
#
#
# Indices 1 2 3 4 5 6 
#
# 1 0.011326 -0.000322 -0.000721 0.000000 0.000000 0.000000
# 2 -0.000322 0.018679 -0.000073 0.000000 0.000000 0.000000
# 3 -0.000721 -0.000073 0.010617 0.000000 0.000000 0.000000
# 4 0.000000 0.000000 0.000000 0.023903 0.000000 0.000000
# 5 0.000000 0.000000 0.000000 0.000000 0.423105 0.000000
# 6 0.000000 0.000000 0.000000 0.000000 0.000000 -0.018619
#
#
# Mechanical properties :
#
#
# Convention : Reuss Voigt Hill
#
# Bulk Modulus (GPa) = 26.04699 28.11047 27.07873
# Shear Modulus (GPa) = 10.32973 13.35309 11.84141
#
# Velocity S-wave (km/s) = 2.10125 2.38904 2.24975
# Velocity P-wave (km/s) = 4.12557 4.43005 4.28052
#
# Compressibility (1/GPa) = 0.03839215
#
# Stress axis : x y z
#
# Youngs Moduli (GPa) = 88.29055 53.53592 94.18549
#
# Poissons Ratio (x) = 0.01723 0.06787
# Poissons Ratio (y) = 0.02841 0.00686
# Poissons Ratio (z) = 0.06362 0.00390
#
# Static dielectric constant tensor:
#      x y z
#    x 1.854160 0.000000 0.000000 
#    y 0.000000 1.891300 0.000000 
#    z 0.000000 0.000000 2.006470 
# 
# From -- ./inp_files/41879.got.cif
#   From: 2010.05.17/outbox.cif.g08.bks.cpg/sg64_21_cif.got.tgz:41879.got - 2010.06.03 16:29:19.
