data_PCOD9479069
_publ_section_title
;
Structure prediction by ZEFSAII (Michael W. Deem and Ramdas Pophale) SiO2 
 PCOD9479069
Probable space group: C M C A
;
_chemical_formula_sum "Si O2"
_cell_formula_units_Z 96
_cell_length_a 8.831734
_cell_length_b 20.008151
_cell_length_c 30.090476
_cell_angle_alpha 90.000000
_cell_angle_beta 90.000000
_cell_angle_gamma 90.000000
_cell_volume 5317.187736
_symmetry_space_group_name_H-M "C M C A"
_symmetry_group_IT_number 64
_symmetry_cell_setting 'orthorhombic'
loop_
_space_group_symop_operation_xyz
x,y,z
-x,1/2-y,1/2+z
x,-y,-z
-x,1/2+y,1/2-z
-x,-y,-z
x,1/2+y,1/2-z
-x,y,z
x,1/2-y,1/2+z
1/2+x,1/2+y,z
1/2-x,-y,1/2+z
1/2+x,1/2-y,-z
1/2-x,y,1/2-z
1/2-x,1/2-y,-z
1/2+x,y,1/2-z
1/2-x,1/2+y,z
1/2+x,-y,1/2+z
loop_
_atom_site_type_symbol
_atom_site_label
_atom_site_fract_x
_atom_site_fract_y
_atom_site_fract_z
Si Si1 0.324876 0.565995 0.030171
Si Si2 0.683320 0.006646 0.375428
Si Si3 0.682714 0.261222 0.298409
Si Si4 0.183360 0.858379 0.378687
Si Si5 0.179891 0.314691 0.022882
Si Si6 0.817637 0.607440 0.297994
O O1 0.500000 0.589534 0.032982
O O2 0.273625 0.543939 0.078974
O O3 0.226495 0.622031 0.006727
O O4 0.322510 0.500000 0.000000
O O5 0.500000 0.000685 0.375626
O O6 0.752620 0.932945 0.373822
O O7 0.729927 0.053613 0.334542
O O8 0.500000 0.263712 0.295460
O O9 0.750000 0.277935 0.250000
O O10 0.730417 0.311266 0.337571
O O11 0.725877 0.184195 0.309058
O O12 0.232123 0.828081 0.426346
O O13 0.000000 0.861395 0.378798
O O14 0.000000 0.307346 0.024160
O O15 0.250000 0.250000 0.000000
O O16 0.750000 0.591543 0.250000
O O17 0.000000 0.605884 0.295641
#
# Coordination Sequence:
#
# PCOD9479069 Si02
#       6
#    16  16  16  16  16  16
#     4  10  20  37  60  83 113 150 187 228 276 329
#     4  10  21  36  58  84 111 148 185 226 277 332
#     4   9  19  37  58  80 107 143 183 226 277 328
#     4  10  22  38  57  81 113 148 183 229 278 328
#     4  11  24  39  58  84 115 151 189 232 280 332
#     4   9  19  36  58  81 108 142 183 227 276 331
#
# _framework density 18.054656000000001
#
# number of rings (size 3 to 8) (size 9 to 14) (size 15 to 20)
#    0.000    2.167    1.667    0.500    2.333    3.667 
#    0.000    3.333    0.000    0.000    0.000    0.000 
#    0.000    0.000    0.000    0.000    0.000    0.000 
#
# Total GULP energy -267908.794205 kJ/mol
# GULP energy per Si atom -5581.433213 kJ/mol
# Density = 1.801356 g / cm^3
# Si number density = 18.054656 Si / 1000 Ang^3
#
#
#
# Elastic Constant Matrix: (Units=GPa)
#
#
# Indices 1 2 3 4 5 6 
#
# 1 17.4427 35.7242 36.9350 0.0000 0.0000 0.0000
# 2 35.7242 131.4233 118.4074 0.0000 0.0000 0.0000
# 3 36.9350 118.4074 190.3755 0.0000 0.0000 0.0000
# 4 0.0000 0.0000 0.0000 36.4403 0.0000 0.0000
# 5 0.0000 0.0000 0.0000 0.0000 29.3367 0.0000
# 6 0.0000 0.0000 0.0000 0.0000 0.0000 36.4626
#
#
#
# Elastic Compliance Matrix: (Units=1/GPa)
#
#
# Indices 1 2 3 4 5 6 
#
# 1 0.134003 -0.029575 -0.007603 0.000000 0.000000 0.000000
# 2 -0.029575 0.023835 -0.009087 0.000000 0.000000 0.000000
# 3 -0.007603 -0.009087 0.012380 0.000000 0.000000 0.000000
# 4 0.000000 0.000000 0.000000 0.027442 0.000000 0.000000
# 5 0.000000 0.000000 0.000000 0.000000 0.034087 0.000000
# 6 0.000000 0.000000 0.000000 0.000000 0.000000 0.027425
#
#
# Mechanical properties :
#
#
# Convention : Reuss Voigt Hill
#
# Bulk Modulus (GPa) = 12.87211 80.15275 46.51243
# Shear Modulus (GPa) = 13.24159 30.32625 21.78392
#
# Velocity S-wave (km/s) = 2.71110 4.10285 3.47732
# Velocity P-wave (km/s) = 4.11645 8.18140 6.47613
#
# Compressibility (1/GPa) = 0.07768732
#
# Stress axis : x y z
#
# Youngs Moduli (GPa) = 7.46252 41.95505 80.77817
#
# Poissons Ratio (x) = 1.24082 0.61419
# Poissons Ratio (y) = 0.22070 0.73401
# Poissons Ratio (z) = 0.05674 0.38123
#
# Static dielectric constant tensor:
#      x y z
#    x 1.617700 0.000000 0.000000 
#    y 0.000000 1.466960 0.000000 
#    z 0.000000 0.000000 1.599300 
# 
# From -- ./inp_files/48127.got.cif
#   From: 2010.05.17/outbox.cif.g08.bks.cpg/sg64_25_cif.got.tgz:48127.got - 2010.06.03 16:29:19.
