data_PCOD9479063
_publ_section_title
;
Structure prediction by ZEFSAII (Michael W. Deem and Ramdas Pophale) SiO2 
 PCOD9479063
Probable space group: C M C A
;
_chemical_formula_sum "Si O2"
_cell_formula_units_Z 80
_cell_length_a 15.981827
_cell_length_b 10.570538
_cell_length_c 24.558697
_cell_angle_alpha 90.000000
_cell_angle_beta 90.000000
_cell_angle_gamma 90.000000
_cell_volume 4148.860552
_symmetry_space_group_name_H-M "C M C A"
_symmetry_group_IT_number 64
_symmetry_cell_setting 'orthorhombic'
loop_
_space_group_symop_operation_xyz
x,y,z
-x,1/2-y,1/2+z
x,-y,-z
-x,1/2+y,1/2-z
-x,-y,-z
x,1/2+y,1/2-z
-x,y,z
x,1/2-y,1/2+z
1/2+x,1/2+y,z
1/2-x,-y,1/2+z
1/2+x,1/2-y,-z
1/2-x,y,1/2-z
1/2-x,1/2-y,-z
1/2+x,y,1/2-z
1/2-x,1/2+y,z
1/2+x,-y,1/2+z
loop_
_atom_site_type_symbol
_atom_site_label
_atom_site_fract_x
_atom_site_fract_y
_atom_site_fract_z
Si Si1 0.598937 0.242205 0.389280
Si Si2 0.590613 0.070596 0.216697
Si Si3 0.763851 0.623960 0.464591
Si Si4 0.407453 0.529774 0.413020
Si Si5 0.339828 0.690647 0.732051
O O1 0.500000 0.205458 0.384291
O O2 0.660939 0.150254 0.422033
O O3 0.599488 0.378369 0.419653
O O4 0.639662 0.268238 0.329901
O O5 0.500000 0.119914 0.233453
O O6 0.593557 0.052347 0.151921
O O7 0.602854 0.932158 0.242114
O O8 0.651179 0.181836 0.233632
O O9 0.784697 0.500000 0.500000
O O10 0.750000 0.750000 0.500000
O O11 0.673768 0.594953 0.437466
O O12 0.500000 0.570416 0.433353
O O13 0.250000 0.639371 0.750000
#
# Coordination Sequence:
#
# PCOD9479063 Si02
#       5
#    16  16  16  16  16
#     4  10  22  42  63  87 125 168 204 251 313 371
#     4  10  20  37  59  87 121 158 197 239 293 361
#     4  12  24  41  65  92 119 153 209 268 315 367
#     4   9  20  40  64  87 121 167 206 240 305 390
#     4  11  21  36  60  89 122 159 198 241 295 357
#
# _framework density 19.282402000000001
#
# number of rings (size 3 to 8) (size 9 to 14) (size 15 to 20)
#    0.000    1.600    2.000    4.800    0.000    3.200 
#    3.600    0.000    0.000    0.000    0.000    0.000 
#    0.000    0.000    0.000    0.000    0.000    0.000 
#
# Total GULP energy -222940.533642 kJ/mol
# GULP energy per Si atom -5573.513341 kJ/mol
# Density = 1.923851 g / cm^3
# Si number density = 19.282402 Si / 1000 Ang^3
#
#
#
# Elastic Constant Matrix: (Units=GPa)
#
#
# Indices 1 2 3 4 5 6 
#
# 1 151.1354 18.8701 41.0000 0.0000 0.0000 0.0000
# 2 18.8701 76.2268 13.5357 0.0000 0.0000 0.0000
# 3 41.0000 13.5357 32.9067 0.0000 0.0000 0.0000
# 4 0.0000 0.0000 0.0000 32.0537 0.0000 0.0000
# 5 0.0000 0.0000 0.0000 0.0000 19.3623 0.0000
# 6 0.0000 0.0000 0.0000 0.0000 0.0000 36.7213
#
#
#
# Elastic Compliance Matrix: (Units=1/GPa)
#
#
# Indices 1 2 3 4 5 6 
#
# 1 0.010001 -0.000284 -0.012343 0.000000 0.000000 0.000000
# 2 -0.000284 0.014161 -0.005471 0.000000 0.000000 0.000000
# 3 -0.012343 -0.005471 0.048019 0.000000 0.000000 0.000000
# 4 0.000000 0.000000 0.000000 0.031198 0.000000 0.000000
# 5 0.000000 0.000000 0.000000 0.000000 0.051647 0.000000
# 6 0.000000 0.000000 0.000000 0.000000 0.000000 0.027232
#
#
# Mechanical properties :
#
#
# Convention : Reuss Voigt Hill
#
# Bulk Modulus (GPa) = 27.79089 45.23118 36.51104
# Shear Modulus (GPa) = 21.69694 30.08500 25.89097
#
# Velocity S-wave (km/s) = 3.35807 3.95426 3.66830
# Velocity P-wave (km/s) = 5.42949 6.66006 6.07601
#
# Compressibility (1/GPa) = 0.03598301
#
# Stress axis : x y z
#
# Youngs Moduli (GPa) = 99.99457 70.61889 20.82526
#
# Poissons Ratio (x) = 0.02004 0.25705
# Poissons Ratio (y) = 0.02838 0.11394
# Poissons Ratio (z) = 1.23427 0.38636
#
# Static dielectric constant tensor:
#      x y z
#    x 1.676540 0.000000 0.000000 
#    y 0.000000 1.625930 0.000000 
#    z 0.000000 0.000000 1.688490 
# 
# From -- ./inp_files/44926.got.cif
#   From: 2010.05.17/outbox.cif.g08.bks.cpg/sg64_23_cif.got.tgz:44926.got - 2010.06.03 16:29:19.
