data_PCOD9479489
_publ_section_title
;
Structure prediction by ZEFSAII (Michael W. Deem and Ramdas Pophale) SiO2 
 PCOD9479489
Probable space group: C M C A
;
_chemical_formula_sum "Si O2"
_cell_formula_units_Z 112
_cell_length_a 11.545112
_cell_length_b 13.153857
_cell_length_c 31.186354
_cell_angle_alpha 90.000000
_cell_angle_beta 90.000000
_cell_angle_gamma 90.000000
_cell_volume 4736.045553
_symmetry_space_group_name_H-M "C M C A"
_symmetry_group_IT_number 64
_symmetry_cell_setting 'orthorhombic'
loop_
_space_group_symop_operation_xyz
x,y,z
-x,1/2-y,1/2+z
x,-y,-z
-x,1/2+y,1/2-z
-x,-y,-z
x,1/2+y,1/2-z
-x,y,z
x,1/2-y,1/2+z
1/2+x,1/2+y,z
1/2-x,-y,1/2+z
1/2+x,1/2-y,-z
1/2-x,y,1/2-z
1/2-x,1/2-y,-z
1/2+x,y,1/2-z
1/2-x,1/2+y,z
1/2+x,-y,1/2+z
loop_
_atom_site_type_symbol
_atom_site_label
_atom_site_fract_x
_atom_site_fract_y
_atom_site_fract_z
Si Si1 0.807614 0.866477 0.792690
Si Si2 0.870834 0.879906 0.004092
Si Si3 0.625382 0.974853 0.361246
Si Si4 0.629276 0.232440 0.143099
Si Si5 0.872719 0.068008 0.627388
Si Si6 0.711070 0.740447 0.568351
Si Si7 0.127293 0.358152 0.225730
O O1 0.750000 0.909442 0.750000
O O2 0.705164 0.822608 0.821936
O O3 0.876112 0.764305 0.780663
O O4 0.871082 0.950822 0.820624
O O5 0.772417 0.835201 0.034791
O O6 0.000000 0.856548 0.021112
O O7 0.856030 0.824279 0.958496
O O8 0.859405 0.000000 0.000000
O O9 0.500000 0.991800 0.383684
O O10 0.628651 0.854769 0.350093
O O11 0.751350 0.988335 0.383683
O O12 0.500000 0.196099 0.145848
O O13 0.686149 0.214888 0.097075
O O14 0.863783 0.174508 0.601648
O O15 0.867598 0.090478 0.678510
O O16 0.000000 0.024088 0.617660
O O17 0.250000 0.374473 0.250000
O O18 0.000000 0.387735 0.244809
#
# Coordination Sequence:
#
# PCOD9479489 Si02
#       7
#    16  16  16  16  16  16  16
#     4  11  23  39  61  90 129 170 223 271 328 383
#     4  10  22  40  66  98 128 162 206 257 315 386
#     4  10  22  40  60  88 122 164 215 268 320 374
#     4  10  22  42  66  92 129 172 219 273 327 383
#     4  10  21  41  65  93 127 170 216 265 322 379
#     4  10  20  40  65  94 131 165 207 259 322 388
#     4  10  21  38  59  88 123 167 216 265 315 376
#
# _framework density 23.648420999999999
#
# number of rings (size 3 to 8) (size 9 to 14) (size 15 to 20)
#    0.000    1.857    2.857    1.286    0.000    8.000 
#    0.000    4.286    0.000   14.571    0.000    0.000 
#    0.000    0.000    0.000    0.000    0.000    0.000 
#
# Total GULP energy -313014.563474 kJ/mol
# GULP energy per Si atom -5589.545776 kJ/mol
# Density = 2.359460 g / cm^3
# Si number density = 23.648421 Si / 1000 Ang^3
#
#
#
# Elastic Constant Matrix: (Units=GPa)
#
#
# Indices 1 2 3 4 5 6 
#
# 1 216.7905 24.7415 28.2433 0.0000 0.0000 0.0000
# 2 24.7415 99.0857 9.1528 0.0000 0.0000 0.0000
# 3 28.2433 9.1528 68.5769 0.0000 0.0000 0.0000
# 4 0.0000 0.0000 0.0000 18.6674 0.0000 0.0000
# 5 0.0000 0.0000 0.0000 0.0000 17.2819 0.0000
# 6 0.0000 0.0000 0.0000 0.0000 0.0000 0.0562
#
#
#
# Elastic Compliance Matrix: (Units=1/GPa)
#
#
# Indices 1 2 3 4 5 6 
#
# 1 0.004983 -0.001068 -0.001910 0.000000 0.000000 0.000000
# 2 -0.001068 0.010447 -0.000955 0.000000 0.000000 0.000000
# 3 -0.001910 -0.000955 0.015496 0.000000 0.000000 0.000000
# 4 0.000000 0.000000 0.000000 0.053569 0.000000 0.000000
# 5 0.000000 0.000000 0.000000 0.000000 0.057864 0.000000
# 6 0.000000 0.000000 0.000000 0.000000 0.000000 17.802280
#
#
# Mechanical properties :
#
#
# Convention : Reuss Voigt Hill
#
# Bulk Modulus (GPa) = 43.36137 56.52538 49.94338
# Shear Modulus (GPa) = 0.27839 28.68879 14.48359
#
# Velocity S-wave (km/s) = 0.34348 3.48679 2.47747
# Velocity P-wave (km/s) = 4.30499 6.33755 5.41745
#
# Compressibility (1/GPa) = 0.02306200
#
# Stress axis : x y z
#
# Youngs Moduli (GPa) = 200.66438 95.72030 64.53215
#
# Poissons Ratio (x) = 0.10222 0.12325
# Poissons Ratio (y) = 0.21430 0.06160
# Poissons Ratio (z) = 0.38325 0.09137
#
# Static dielectric constant tensor:
#      x y z
#    x 1.945960 0.000000 0.000000 
#    y 0.000000 1.900430 0.000000 
#    z 0.000000 0.000000 1.892370 
# 
# From -- ./inp_files/52834.got.cif
#   From: 2010.05.17/outbox.cif.g08.bks.cpg/sg64_27_cif.got.tgz:52834.got - 2010.06.03 16:29:19.
