data_PCOD9479442
_publ_section_title
;
Structure prediction by ZEFSAII (Michael W. Deem and Ramdas Pophale) SiO2 
 PCOD9479442
Probable space group: C M C A
;
_chemical_formula_sum "Si O2"
_cell_formula_units_Z 96
_cell_length_a 24.424125
_cell_length_b 9.700566
_cell_length_c 20.194019
_cell_angle_alpha 90.000000
_cell_angle_beta 90.000000
_cell_angle_gamma 90.000000
_cell_volume 4784.525233
_symmetry_space_group_name_H-M "C M C A"
_symmetry_group_IT_number 64
_symmetry_cell_setting 'orthorhombic'
loop_
_space_group_symop_operation_xyz
x,y,z
-x,1/2-y,1/2+z
x,-y,-z
-x,1/2+y,1/2-z
-x,-y,-z
x,1/2+y,1/2-z
-x,y,z
x,1/2-y,1/2+z
1/2+x,1/2+y,z
1/2-x,-y,1/2+z
1/2+x,1/2-y,-z
1/2-x,y,1/2-z
1/2-x,1/2-y,-z
1/2+x,y,1/2-z
1/2-x,1/2+y,z
1/2+x,-y,1/2+z
loop_
_atom_site_type_symbol
_atom_site_label
_atom_site_fract_x
_atom_site_fract_y
_atom_site_fract_z
Si Si1 0.436607 0.191559 0.912260
Si Si2 0.707837 0.296894 0.340242
Si Si3 0.170489 0.708807 0.627442
Si Si4 0.881160 0.019988 0.314872
Si Si5 0.378903 0.927560 0.669914
Si Si6 0.331398 0.339530 0.488459
O O1 0.500000 0.192554 0.928459
O O2 0.417948 0.329349 0.872961
O O3 0.396310 0.175929 0.974636
O O4 0.420478 0.065680 0.863362
O O5 0.772541 0.298505 0.332091
O O6 0.675137 0.430002 0.313937
O O7 0.675409 0.163810 0.314372
O O8 0.696017 0.295588 0.419590
O O9 0.133417 0.831294 0.656249
O O10 0.140141 0.563700 0.632204
O O11 0.183534 0.750610 0.551958
O O12 0.903307 0.031705 0.240791
O O13 0.318357 0.500000 0.500000
#
# Coordination Sequence:
#
# PCOD9479442 Si02
#       6
#    16  16  16  16  16  16
#     4  10  23  44  63  82 115 155 197 258 315 343
#     4  10  22  35  56  88 125 162 188 232 288 350
#     4  12  20  36  61  86 120 160 198 233 289 355
#     4  10  21  40  58  87 122 156 197 238 285 361
#     4  10  23  37  58  90 121 150 195 247 290 343
#     4  10  20  40  58  86 117 152 205 246 288 355
#
# _framework density 20.064685999999998
#
# number of rings (size 3 to 8) (size 9 to 14) (size 15 to 20)
#    0.000    2.000    3.333    3.500    0.000    7.667 
#    0.000    2.500    0.000    0.000    0.000    0.000 
#    0.000    0.000    0.000    0.000    0.000    0.000 
#
# Total GULP energy -268191.249548 kJ/mol
# GULP energy per Si atom -5587.317699 kJ/mol
# Density = 2.001902 g / cm^3
# Si number density = 20.064686 Si / 1000 Ang^3
#
#
#
# Elastic Constant Matrix: (Units=GPa)
#
#
# Indices 1 2 3 4 5 6 
#
# 1 81.4006 12.3353 -20.2832 0.0000 0.0000 0.0000
# 2 12.3353 88.6157 -3.9167 0.0000 0.0000 0.0000
# 3 -20.2832 -3.9167 38.4750 0.0000 0.0000 0.0000
# 4 0.0000 0.0000 0.0000 28.2685 0.0000 0.0000
# 5 0.0000 0.0000 0.0000 0.0000 14.9392 0.0000
# 6 0.0000 0.0000 0.0000 0.0000 0.0000 6.6520
#
#
#
# Elastic Compliance Matrix: (Units=1/GPa)
#
#
# Indices 1 2 3 4 5 6 
#
# 1 0.014386 -0.001675 0.007413 0.000000 0.000000 0.000000
# 2 -0.001675 0.011531 0.000291 0.000000 0.000000 0.000000
# 3 0.007413 0.000291 0.029929 0.000000 0.000000 0.000000
# 4 0.000000 0.000000 0.000000 0.035375 0.000000 0.000000
# 5 0.000000 0.000000 0.000000 0.000000 0.066938 0.000000
# 6 0.000000 0.000000 0.000000 0.000000 0.000000 0.150330
#
#
# Mechanical properties :
#
#
# Convention : Reuss Voigt Hill
#
# Bulk Modulus (GPa) = 14.72661 20.52914 17.62787
# Shear Modulus (GPa) = 15.67081 24.66234 20.16657
#
# Velocity S-wave (km/s) = 2.79770 3.50971 3.17374
# Velocity P-wave (km/s) = 4.21801 5.16506 4.71537
#
# Compressibility (1/GPa) = 0.06790428
#
# Stress axis : x y z
#
# Youngs Moduli (GPa) = 69.51208 86.72514 33.41275
#
# Poissons Ratio (x) = 0.14525 -0.24770
# Poissons Ratio (y) = 0.11642 -0.00972
# Poissons Ratio (z) = -0.51533 -0.02522
#
# Static dielectric constant tensor:
#      x y z
#    x 1.705640 0.000000 0.000000 
#    y 0.000000 1.700300 0.000000 
#    z 0.000000 0.000000 1.720280 
# 
# From -- ./inp_files/41803.got.cif
#   From: 2010.05.17/outbox.cif.g08.bks.cpg/sg64_21_cif.got.tgz:41803.got - 2010.06.03 16:29:19.
