data_PCOD9479838
_publ_section_title
;
Structure prediction by ZEFSAII (Michael W. Deem and Ramdas Pophale) SiO2 
 PCOD9479838
Probable space group: C M C A
;
_chemical_formula_sum "Si O2"
_cell_formula_units_Z 96
_cell_length_a 8.750698
_cell_length_b 18.442644
_cell_length_c 31.697032
_cell_angle_alpha 90.000000
_cell_angle_beta 90.000000
_cell_angle_gamma 90.000000
_cell_volume 5115.457459
_symmetry_space_group_name_H-M "C M C A"
_symmetry_group_IT_number 64
_symmetry_cell_setting 'orthorhombic'
loop_
_space_group_symop_operation_xyz
x,y,z
-x,1/2-y,1/2+z
x,-y,-z
-x,1/2+y,1/2-z
-x,-y,-z
x,1/2+y,1/2-z
-x,y,z
x,1/2-y,1/2+z
1/2+x,1/2+y,z
1/2-x,-y,1/2+z
1/2+x,1/2-y,-z
1/2-x,y,1/2-z
1/2-x,1/2-y,-z
1/2+x,y,1/2-z
1/2-x,1/2+y,z
1/2+x,-y,1/2+z
loop_
_atom_site_type_symbol
_atom_site_label
_atom_site_fract_x
_atom_site_fract_y
_atom_site_fract_z
Si Si1 0.816679 0.451197 0.959229
Si Si2 0.183566 0.792187 0.120579
Si Si3 0.683955 0.290877 0.705037
Si Si4 0.684055 0.459223 0.705043
Si Si5 0.184508 0.047439 0.622327
Si Si6 0.681903 0.208821 0.459604
O O1 0.777743 0.495837 0.917109
O O2 0.732975 0.374685 0.960812
O O3 0.000000 0.438006 0.958966
O O4 0.781302 0.500000 0.000000
O O5 0.231775 0.757393 0.165368
O O6 0.239652 0.874524 0.117721
O O7 0.252984 0.746004 0.082478
O O8 0.000000 0.788893 0.118057
O O9 0.500000 0.289155 0.707369
O O10 0.750000 0.266780 0.750000
O O11 0.730388 0.375076 0.698329
O O12 0.500000 0.460699 0.707013
O O13 0.750000 0.483199 0.750000
O O14 0.731850 0.508499 0.665801
O O15 0.000000 0.055986 0.622686
O O16 0.500000 0.214838 0.460213
O O17 0.750000 0.250000 0.500000
#
# Coordination Sequence:
#
# PCOD9479838 Si02
#       6
#    16  16  16  16  16  16
#     4  10  21  39  63  88 116 150 187 231 286 343
#     4  11  23  39  59  85 119 155 195 241 288 341
#     4   9  19  36  58  83 112 150 193 239 290 342
#     4   9  18  34  55  78 108 147 191 237 286 340
#     4  10  21  37  57  83 117 153 189 234 289 343
#     4  12  25  41  63  89 118 152 192 237 286 342
#
# _framework density 18.766649999999998
#
# number of rings (size 3 to 8) (size 9 to 14) (size 15 to 20)
#    0.000    1.833    0.000    4.000    0.000    7.667 
#    0.000    6.667    0.000    0.000    0.000    0.000 
#    0.000    0.000    0.000    0.000    0.000    0.000 
#
# Total GULP energy -268271.751512 kJ/mol
# GULP energy per Si atom -5588.994823 kJ/mol
# Density = 1.872394 g / cm^3
# Si number density = 18.766650 Si / 1000 Ang^3
#
#
#
# Elastic Constant Matrix: (Units=GPa)
#
#
# Indices 1 2 3 4 5 6 
#
# 1 54.9022 64.7579 66.0849 0.0000 0.0000 0.0000
# 2 64.7579 144.1334 105.8416 0.0000 0.0000 0.0000
# 3 66.0849 105.8416 188.8082 0.0000 0.0000 0.0000
# 4 0.0000 0.0000 0.0000 38.0576 0.0000 0.0000
# 5 0.0000 0.0000 0.0000 0.0000 30.9359 0.0000
# 6 0.0000 0.0000 0.0000 0.0000 0.0000 33.6813
#
#
#
# Elastic Compliance Matrix: (Units=1/GPa)
#
#
# Indices 1 2 3 4 5 6 
#
# 1 0.044023 -0.014386 -0.007344 0.000000 0.000000 0.000000
# 2 -0.014386 0.016494 -0.004211 0.000000 0.000000 0.000000
# 3 -0.007344 -0.004211 0.010227 0.000000 0.000000 0.000000
# 4 0.000000 0.000000 0.000000 0.026276 0.000000 0.000000
# 5 0.000000 0.000000 0.000000 0.000000 0.032325 0.000000
# 6 0.000000 0.000000 0.000000 0.000000 0.000000 0.029690
#
#
# Mechanical properties :
#
#
# Convention : Reuss Voigt Hill
#
# Bulk Modulus (GPa) = 53.01631 95.69028 74.35330
# Shear Modulus (GPa) = 23.01995 30.61225 26.81610
#
# Velocity S-wave (km/s) = 3.50614 4.04320 3.78421
# Velocity P-wave (km/s) = 6.68598 8.53797 7.66809
#
# Compressibility (1/GPa) = 0.01886212
#
# Stress axis : x y z
#
# Youngs Moduli (GPa) = 22.71562 60.62955 97.77885
#
# Poissons Ratio (x) = 0.87223 0.71807
# Poissons Ratio (y) = 0.32679 0.41171
# Poissons Ratio (z) = 0.16682 0.25529
#
# Static dielectric constant tensor:
#      x y z
#    x 1.635700 0.000000 0.000000 
#    y 0.000000 1.616560 0.000000 
#    z 0.000000 0.000000 1.627530 
# 
# From -- ./inp_files/48098.got.cif
#   From: 2010.05.17/outbox.cif.g08.bks.cpg/sg64_25_cif.got.tgz:48098.got - 2010.06.03 16:29:19.
