data_PCOD9479980
_publ_section_title
;
Structure prediction by ZEFSAII (Michael W. Deem and Ramdas Pophale) SiO2 
 PCOD9479980
Probable space group: C M C A
;
_chemical_formula_sum "Si O2"
_cell_formula_units_Z 72
_cell_length_a 32.670812
_cell_length_b 24.575205
_cell_length_c 5.094967
_cell_angle_alpha 90.000000
_cell_angle_beta 90.000000
_cell_angle_gamma 90.000000
_cell_volume 4090.707747
_symmetry_space_group_name_H-M "C M C A"
_symmetry_group_IT_number 64
_symmetry_cell_setting 'orthorhombic'
loop_
_space_group_symop_operation_xyz
x,y,z
-x,1/2-y,1/2+z
x,-y,-z
-x,1/2+y,1/2-z
-x,-y,-z
x,1/2+y,1/2-z
-x,y,z
x,1/2-y,1/2+z
1/2+x,1/2+y,z
1/2-x,-y,1/2+z
1/2+x,1/2-y,-z
1/2-x,y,1/2-z
1/2-x,1/2-y,-z
1/2+x,y,1/2-z
1/2-x,1/2+y,z
1/2+x,-y,1/2+z
loop_
_atom_site_type_symbol
_atom_site_label
_atom_site_fract_x
_atom_site_fract_y
_atom_site_fract_z
Si Si1 0.870932 0.063263 0.915083
Si Si2 0.082657 0.602715 0.101410
Si Si3 0.500000 0.539208 0.255658
Si Si4 0.951200 0.215394 0.601425
Si Si5 0.725029 0.434119 0.005799
O O1 0.892715 0.071750 0.632852
O O2 0.822695 0.075901 0.937785
O O3 0.890877 0.101267 0.135705
O O4 0.876955 0.000000 0.000000
O O5 0.040552 0.575058 0.202865
O O6 0.072088 0.661482 0.985026
O O7 0.500000 0.500000 0.500000
O O8 0.500000 0.500000 0.000000
O O9 0.942334 0.236824 0.892394
O O10 0.000000 0.204124 0.585680
O O11 0.750000 0.412438 0.250000
O O12 0.727777 0.500000 0.000000
O O13 0.750000 0.415134 0.750000
#
# Coordination Sequence:
#
# PCOD9479980 Si02
#       5
#    16  16   8  16  16
#     4  11  22  34  53  79 115 148 178 219 263 319
#     4  12  22  37  53  78 108 144 187 224 270 320
#     4  12  24  36  50  72 108 154 188 212 247 318
#     4  10  21  38  58  76  98 133 183 239 288 316
#     4   9  17  31  50  73 103 142 179 213 259 314
#
# _framework density 17.600867000000001
#
# number of rings (size 3 to 8) (size 9 to 14) (size 15 to 20)
#    0.000    1.333    1.111    6.667    0.000    3.556 
#    0.000    0.000    0.000    0.000    0.000    0.000 
#    0.000   62.222    0.000    0.000    0.000    0.000 
#
# Total GULP energy -200783.903695 kJ/mol
# GULP energy per Si atom -5577.330658 kJ/mol
# Density = 1.756081 g / cm^3
# Si number density = 17.600867 Si / 1000 Ang^3
#
#
#
# Elastic Constant Matrix: (Units=GPa)
#
#
# Indices 1 2 3 4 5 6 
#
# 1 120.5907 17.2368 47.6918 0.0000 0.0000 0.0000
# 2 17.2368 35.2416 -6.1417 0.0000 0.0000 0.0000
# 3 47.6918 -6.1417 117.4863 0.0000 0.0000 0.0000
# 4 0.0000 0.0000 0.0000 17.6041 0.0000 0.0000
# 5 0.0000 0.0000 0.0000 0.0000 19.8793 0.0000
# 6 0.0000 0.0000 0.0000 0.0000 0.0000 0.1555
#
#
#
# Elastic Compliance Matrix: (Units=1/GPa)
#
#
# Indices 1 2 3 4 5 6 
#
# 1 0.011101 -0.006272 -0.004834 0.000000 0.000000 0.000000
# 2 -0.006272 0.032180 0.004228 0.000000 0.000000 0.000000
# 3 -0.004834 0.004228 0.010695 0.000000 0.000000 0.000000
# 4 0.000000 0.000000 0.000000 0.056805 0.000000 0.000000
# 5 0.000000 0.000000 0.000000 0.000000 0.050304 0.000000
# 6 0.000000 0.000000 0.000000 0.000000 0.000000 6.429710
#
#
# Mechanical properties :
#
#
# Convention : Reuss Voigt Hill
#
# Bulk Modulus (GPa) = 24.86304 43.43248 34.14776
# Shear Modulus (GPa) = 0.75552 21.82989 11.29270
#
# Velocity S-wave (km/s) = 0.65588 3.52557 2.53573
# Velocity P-wave (km/s) = 3.83800 6.42672 5.29306
#
# Compressibility (1/GPa) = 0.04022035
#
# Stress axis : x y z
#
# Youngs Moduli (GPa) = 90.08358 31.07516 93.50170
#
# Poissons Ratio (x) = 0.19490 0.45199
# Poissons Ratio (y) = 0.56500 -0.39535
# Poissons Ratio (z) = 0.43547 -0.13139
#
# Static dielectric constant tensor:
#      x y z
#    x 1.533110 0.000000 0.000000 
#    y 0.000000 1.578000 0.000000 
#    z 0.000000 0.000000 1.590570 
# 
# From -- ./inp_files/2833.got.cif
#   From: 2010.05.17/outbox.cif.g08.bks.cpg/sg64_2_cif.got.tgz:2833.got - 2010.06.03 16:29:19.
