data_PCOD9479501
_publ_section_title
;
Structure prediction by ZEFSAII (Michael W. Deem and Ramdas Pophale) SiO2 
 PCOD9479501
Probable space group: C M C A
;
_chemical_formula_sum "Si O2"
_cell_formula_units_Z 96
_cell_length_a 14.666571
_cell_length_b 20.340955
_cell_length_c 14.827669
_cell_angle_alpha 90.000000
_cell_angle_beta 90.000000
_cell_angle_gamma 90.000000
_cell_volume 4423.569048
_symmetry_space_group_name_H-M "C M C A"
_symmetry_group_IT_number 64
_symmetry_cell_setting 'orthorhombic'
loop_
_space_group_symop_operation_xyz
x,y,z
-x,1/2-y,1/2+z
x,-y,-z
-x,1/2+y,1/2-z
-x,-y,-z
x,1/2+y,1/2-z
-x,y,z
x,1/2-y,1/2+z
1/2+x,1/2+y,z
1/2-x,-y,1/2+z
1/2+x,1/2-y,-z
1/2-x,y,1/2-z
1/2-x,1/2-y,-z
1/2+x,y,1/2-z
1/2-x,1/2+y,z
1/2+x,-y,1/2+z
loop_
_atom_site_type_symbol
_atom_site_label
_atom_site_fract_x
_atom_site_fract_y
_atom_site_fract_z
Si Si1 0.604685 0.434602 0.178831
Si Si2 0.610345 0.411386 0.828050
Si Si3 0.101842 0.309655 0.819216
Si Si4 0.851040 0.685784 0.788369
Si Si5 0.279512 0.921850 0.493148
Si Si6 0.890934 0.335879 0.014672
O O1 0.500000 0.432189 0.146943
O O2 0.626037 0.511448 0.195434
O O3 0.614853 0.387560 0.264955
O O4 0.669242 0.405983 0.100432
O O5 0.500000 0.403175 0.841854
O O6 0.643486 0.363915 0.747633
O O7 0.664524 0.396012 0.920197
O O8 0.098261 0.241288 0.767889
O O9 0.000000 0.336194 0.832477
O O10 0.134866 0.299969 0.921086
O O11 0.750000 0.690507 0.750000
O O12 0.862276 0.699992 0.893562
O O13 0.175436 0.898716 0.489932
O O14 0.283932 0.000000 0.500000
O O15 0.000000 0.347409 0.020790
#
# Coordination Sequence:
#
# PCOD9479501 Si02
#       6
#    16  16  16  16  16  16
#     4  10  20  40  67  96 130 171 218 270 320 378
#     4   9  20  40  67  97 131 172 221 269 319 377
#     4  10  24  44  65  95 130 171 215 265 328 389
#     4  12  25  43  68  96 128 172 217 265 324 388
#     4  10  21  38  64  99 132 171 218 269 319 380
#     4  11  25  44  63  91 130 169 215 266 324 391
#
# _framework density 21.701933
#
# number of rings (size 3 to 8) (size 9 to 14) (size 15 to 20)
#    0.000    1.667    1.667    2.000    2.333    5.667 
#    0.000    3.333    0.000    0.000    0.000    0.000 
#    0.000    0.000    0.000    0.000    0.000    0.000 
#
# Total GULP energy -267870.304600 kJ/mol
# GULP energy per Si atom -5580.631346 kJ/mol
# Density = 2.165254 g / cm^3
# Si number density = 21.701933 Si / 1000 Ang^3
#
#
#
# Elastic Constant Matrix: (Units=GPa)
#
#
# Indices 1 2 3 4 5 6 
#
# 1 108.7600 16.7643 37.5891 0.0000 0.0000 0.0000
# 2 16.7643 43.4220 41.1797 0.0000 0.0000 0.0000
# 3 37.5891 41.1797 173.8607 0.0000 0.0000 0.0000
# 4 0.0000 0.0000 0.0000 27.2153 0.0000 0.0000
# 5 0.0000 0.0000 0.0000 0.0000 47.1863 0.0000
# 6 0.0000 0.0000 0.0000 0.0000 0.0000 9.8563
#
#
#
# Elastic Compliance Matrix: (Units=1/GPa)
#
#
# Indices 1 2 3 4 5 6 
#
# 1 0.010122 -0.002363 -0.001629 0.000000 0.000000 0.000000
# 2 -0.002363 0.030253 -0.006655 0.000000 0.000000 0.000000
# 3 -0.001629 -0.006655 0.007680 0.000000 0.000000 0.000000
# 4 0.000000 0.000000 0.000000 0.036744 0.000000 0.000000
# 5 0.000000 0.000000 0.000000 0.000000 0.021193 0.000000
# 6 0.000000 0.000000 0.000000 0.000000 0.000000 0.101458
#
#
# Mechanical properties :
#
#
# Convention : Reuss Voigt Hill
#
# Bulk Modulus (GPa) = 37.36660 57.45655 47.41157
# Shear Modulus (GPa) = 21.03817 32.21890 26.62854
#
# Velocity S-wave (km/s) = 3.11692 3.85724 3.50667
# Velocity P-wave (km/s) = 5.49628 6.80959 6.18788
#
# Compressibility (1/GPa) = 0.02676187
#
# Stress axis : x y z
#
# Youngs Moduli (GPa) = 98.79762 33.05434 130.20802
#
# Poissons Ratio (x) = 0.07812 0.21205
# Poissons Ratio (y) = 0.23349 0.86649
# Poissons Ratio (z) = 0.16090 0.21997
#
# Static dielectric constant tensor:
#      x y z
#    x 1.845420 0.000000 0.000000 
#    y 0.000000 1.763400 0.000000 
#    z 0.000000 0.000000 1.833870 
# 
# From -- ./inp_files/23871.got.cif
#   From: 2010.05.17/outbox.cif.g08.bks.cpg/sg64_12_cif.got.tgz:23871.got - 2010.06.03 16:29:19.
