data_PCOD9479258
_publ_section_title
;
Structure prediction by ZEFSAII (Michael W. Deem and Ramdas Pophale) SiO2 
 PCOD9479258
Probable space group: C M C A
;
_chemical_formula_sum "Si O2"
_cell_formula_units_Z 72
_cell_length_a 14.843913
_cell_length_b 24.414177
_cell_length_c 7.118712
_cell_angle_alpha 90.000000
_cell_angle_beta 90.000000
_cell_angle_gamma 90.000000
_cell_volume 2579.834892
_symmetry_space_group_name_H-M "C M C A"
_symmetry_group_IT_number 64
_symmetry_cell_setting 'orthorhombic'
loop_
_space_group_symop_operation_xyz
x,y,z
-x,1/2-y,1/2+z
x,-y,-z
-x,1/2+y,1/2-z
-x,-y,-z
x,1/2+y,1/2-z
-x,y,z
x,1/2-y,1/2+z
1/2+x,1/2+y,z
1/2-x,-y,1/2+z
1/2+x,1/2-y,-z
1/2-x,y,1/2-z
1/2-x,1/2-y,-z
1/2+x,y,1/2-z
1/2-x,1/2+y,z
1/2+x,-y,1/2+z
loop_
_atom_site_type_symbol
_atom_site_label
_atom_site_fract_x
_atom_site_fract_y
_atom_site_fract_z
Si Si1 0.164666 0.801436 0.874582
Si Si2 0.268287 0.000000 0.500000
Si Si3 0.603265 0.595571 0.949322
Si Si4 0.602946 0.925979 0.895917
Si Si5 0.901931 0.810213 0.484683
O O1 0.250000 0.819670 0.750000
O O2 0.143833 0.842339 0.047359
O O3 0.165169 0.737485 0.926227
O O4 0.091012 0.804443 0.710270
O O5 0.334484 0.043686 0.607384
O O6 0.192964 0.038983 0.407307
O O7 0.500000 0.592582 0.880192
O O8 0.598673 0.587115 0.175362
O O9 0.500000 0.944437 0.941223
O O10 0.620483 0.874082 0.033521
O O11 0.000000 0.800244 0.400110
#
# Coordination Sequence:
#
# PCOD9479258 Si02
#       5
#    16   8  16  16  16
#     4  11  21  37  62  92 121 157 200 246 298 361
#     4  12  20  34  58  82 106 146 204 254 282 338
#     4  10  21  38  58  83 116 155 195 242 304 362
#     4   9  20  38  59  82 115 158 197 239 302 366
#     4  10  20  38  62  88 120 157 194 239 300 366
#
# _framework density 27.908763
#
# number of rings (size 3 to 8) (size 9 to 14) (size 15 to 20)
#    0.000    1.778    0.000    8.000    0.000    0.000 
#    0.000    6.667    0.000    8.000    0.000    0.000 
#    0.000    0.000    0.000    0.000    0.000    0.000 
#
# Total GULP energy -200966.696328 kJ/mol
# GULP energy per Si atom -5582.408231 kJ/mol
# Density = 2.784524 g / cm^3
# Si number density = 27.908763 Si / 1000 Ang^3
#
#
#
# Elastic Constant Matrix: (Units=GPa)
#
#
# Indices 1 2 3 4 5 6 
#
# 1 251.0733 96.3195 14.8778 0.0000 0.0000 0.0000
# 2 96.3195 200.9330 23.8372 0.0000 0.0000 0.0000
# 3 14.8778 23.8372 41.7837 0.0000 0.0000 0.0000
# 4 0.0000 0.0000 0.0000 45.3849 0.0000 0.0000
# 5 0.0000 0.0000 0.0000 0.0000 29.8664 0.0000
# 6 0.0000 0.0000 0.0000 0.0000 0.0000 55.5737
#
#
#
# Elastic Compliance Matrix: (Units=1/GPa)
#
#
# Indices 1 2 3 4 5 6 
#
# 1 0.004888 -0.002292 -0.000433 0.000000 0.000000 0.000000
# 2 -0.002292 0.006412 -0.002842 0.000000 0.000000 0.000000
# 3 -0.000433 -0.002842 0.025708 0.000000 0.000000 0.000000
# 4 0.000000 0.000000 0.000000 0.022034 0.000000 0.000000
# 5 0.000000 0.000000 0.000000 0.000000 0.033482 0.000000
# 6 0.000000 0.000000 0.000000 0.000000 0.000000 0.017994
#
#
# Mechanical properties :
#
#
# Convention : Reuss Voigt Hill
#
# Bulk Modulus (GPa) = 38.64766 84.87323 61.76044
# Shear Modulus (GPa) = 38.37956 50.08204 44.23080
#
# Velocity S-wave (km/s) = 3.71236 4.24074 3.98532
# Velocity P-wave (km/s) = 5.67921 7.37940 6.58441
#
# Compressibility (1/GPa) = 0.02587479
#
# Stress axis : x y z
#
# Youngs Moduli (GPa) = 204.59573 155.94600 38.89774
#
# Poissons Ratio (x) = 0.35737 0.01684
# Poissons Ratio (y) = 0.46885 0.11056
# Poissons Ratio (z) = 0.08859 0.44324
#
# Static dielectric constant tensor:
#      x y z
#    x 2.155060 0.000000 0.000000 
#    y 0.000000 2.338110 0.000000 
#    z 0.000000 0.000000 2.288060 
# 
# From -- ./inp_files/14368.got.cif
#   From: 2010.05.17/outbox.cif.g08.bks.cpg/sg64_8_cif.got.tgz:14368.got - 2010.06.03 16:29:19.
