data_PCOD9479084
_publ_section_title
;
Structure prediction by ZEFSAII (Michael W. Deem and Ramdas Pophale) SiO2 
 PCOD9479084
Probable space group: C M C A
;
_chemical_formula_sum "Si O2"
_cell_formula_units_Z 80
_cell_length_a 14.425043
_cell_length_b 28.003991
_cell_length_c 8.070157
_cell_angle_alpha 90.000000
_cell_angle_beta 90.000000
_cell_angle_gamma 90.000000
_cell_volume 3260.010731
_symmetry_space_group_name_H-M "C M C A"
_symmetry_group_IT_number 64
_symmetry_cell_setting 'orthorhombic'
loop_
_space_group_symop_operation_xyz
x,y,z
-x,1/2-y,1/2+z
x,-y,-z
-x,1/2+y,1/2-z
-x,-y,-z
x,1/2+y,1/2-z
-x,y,z
x,1/2-y,1/2+z
1/2+x,1/2+y,z
1/2-x,-y,1/2+z
1/2+x,1/2-y,-z
1/2-x,y,1/2-z
1/2-x,1/2-y,-z
1/2+x,y,1/2-z
1/2-x,1/2+y,z
1/2+x,-y,1/2+z
loop_
_atom_site_type_symbol
_atom_site_label
_atom_site_fract_x
_atom_site_fract_y
_atom_site_fract_z
Si Si1 0.862612 0.947496 0.064024
Si Si2 0.639004 0.613987 0.242677
Si Si3 0.109388 0.789035 0.908438
Si Si4 0.849694 0.085193 0.588433
Si Si5 0.886249 0.187391 0.723033
O O1 0.895667 0.938581 0.250908
O O2 0.751097 0.939042 0.071210
O O3 0.895922 0.909982 0.926204
O O4 0.882685 0.000000 0.000000
O O5 0.750000 0.608709 0.250000
O O6 0.621143 0.670490 0.231068
O O7 0.604968 0.587446 0.407528
O O8 0.144755 0.736994 0.860050
O O9 0.000000 0.782025 0.929722
O O10 0.142214 0.808917 0.084503
O O11 0.843672 0.140880 0.639173
O O12 0.000000 0.183094 0.713087
#
# Coordination Sequence:
#
# PCOD9479084 Si02
#       5
#    16  16  16  16  16
#     4  10  22  38  59  86 116 151 196 247 306 358
#     4  10  21  37  56  91 120 154 199 248 301 349
#     4  10  20  37  60  86 123 167 202 239 291 359
#     4  10  21  35  59  87 116 151 193 246 292 354
#     4  10  20  37  60  87 121 161 202 242 292 355
#
# _framework density 24.539797
#
# number of rings (size 3 to 8) (size 9 to 14) (size 15 to 20)
#    0.000    2.000    2.000    1.200    8.400    2.400 
#    3.600    3.000    0.000    3.000    0.000    0.000 
#    0.000    0.000    0.000    0.000    0.000    0.000 
#
# Total GULP energy -223730.993638 kJ/mol
# GULP energy per Si atom -5593.274841 kJ/mol
# Density = 2.448394 g / cm^3
# Si number density = 24.539797 Si / 1000 Ang^3
#
#
#
# Elastic Constant Matrix: (Units=GPa)
#
#
# Indices 1 2 3 4 5 6 
#
# 1 96.4058 0.6912 -5.0568 0.0000 0.0000 0.0000
# 2 0.6912 141.6795 29.6686 0.0000 0.0000 0.0000
# 3 -5.0568 29.6686 136.9567 0.0000 0.0000 0.0000
# 4 0.0000 0.0000 0.0000 42.9680 0.0000 0.0000
# 5 0.0000 0.0000 0.0000 0.0000 -3.8237 0.0000
# 6 0.0000 0.0000 0.0000 0.0000 0.0000 117.4913
#
#
#
# Elastic Compliance Matrix: (Units=1/GPa)
#
#
# Indices 1 2 3 4 5 6 
#
# 1 0.010395 -0.000137 0.000414 0.000000 0.000000 0.000000
# 2 -0.000137 0.007395 -0.001607 0.000000 0.000000 0.000000
# 3 0.000414 -0.001607 0.007665 0.000000 0.000000 0.000000
# 4 0.000000 0.000000 0.000000 0.023273 0.000000 0.000000
# 5 0.000000 0.000000 0.000000 0.000000 -0.261526 0.000000
# 6 0.000000 0.000000 0.000000 0.000000 0.000000 0.008511
#
#
# Mechanical properties :
#
#
# Convention : Reuss Voigt Hill
#
# Bulk Modulus (GPa) = 43.87087 47.29420 45.58253
# Shear Modulus (GPa) = -25.76978 54.64305 14.43663
#
# Velocity S-wave (km/s) = -3.24407 4.72392 2.42811
# Velocity P-wave (km/s) = 1.97084 7.00487 5.14551
#
# Compressibility (1/GPa) = 0.02279417
#
# Stress axis : x y z
#
# Youngs Moduli (GPa) = 96.19552 135.21927 130.46321
#
# Poissons Ratio (x) = 0.01857 -0.05396
# Poissons Ratio (y) = 0.01321 0.20967
# Poissons Ratio (z) = -0.03978 0.21731
#
# Static dielectric constant tensor:
#      x y z
#    x 1.917310 0.000000 0.000000 
#    y 0.000000 1.876500 0.000000 
#    z 0.000000 0.000000 1.990280 
# 
# From -- ./inp_files/7022.got.cif
#   From: 2010.05.17/outbox.cif.g08.bks.cpg/sg64_4_cif.got.tgz:7022.got - 2010.06.03 16:29:19.
