data_PCOD9479040
_publ_section_title
;
Structure prediction by ZEFSAII (Michael W. Deem and Ramdas Pophale) SiO2 
 PCOD9479040
Probable space group: C M C A
;
_chemical_formula_sum "Si O2"
_cell_formula_units_Z 64
_cell_length_a 14.154968
_cell_length_b 22.740513
_cell_length_c 9.126079
_cell_angle_alpha 90.000000
_cell_angle_beta 90.000000
_cell_angle_gamma 90.000000
_cell_volume 2937.604829
_symmetry_space_group_name_H-M "C M C A"
_symmetry_group_IT_number 64
_symmetry_cell_setting 'orthorhombic'
loop_
_space_group_symop_operation_xyz
x,y,z
-x,1/2-y,1/2+z
x,-y,-z
-x,1/2+y,1/2-z
-x,-y,-z
x,1/2+y,1/2-z
-x,y,z
x,1/2-y,1/2+z
1/2+x,1/2+y,z
1/2-x,-y,1/2+z
1/2+x,1/2-y,-z
1/2-x,y,1/2-z
1/2-x,1/2-y,-z
1/2+x,y,1/2-z
1/2-x,1/2+y,z
1/2+x,-y,1/2+z
loop_
_atom_site_type_symbol
_atom_site_label
_atom_site_fract_x
_atom_site_fract_y
_atom_site_fract_z
Si Si1 0.825420 0.067367 0.532711
Si Si2 0.107278 0.777836 0.960333
Si Si3 0.615311 0.828087 0.845828
Si Si4 0.839681 0.126093 0.818903
O O1 0.848742 0.108785 0.396497
O O2 0.880405 0.093080 0.676706
O O3 0.716069 0.078525 0.581021
O O4 0.844426 0.000000 0.500000
O O5 0.147504 0.806068 0.813275
O O6 0.000000 0.760805 0.921062
O O7 0.148602 0.719495 0.033377
O O8 0.104722 0.828485 0.083952
O O9 0.500000 0.829736 0.845469
O O10 0.750000 0.161191 0.750000
#
# Coordination Sequence:
#
# PCOD9479040 Si02
#       4
#    16  16  16  16
#     4   9  20  38  56  79 111 148 183 229 265 327
#     4  10  20  37  58  82 114 140 180 230 278 329
#     4  10  21  35  57  84 109 148 183 223 279 325
#     4   8  21  37  54  83 107 142 185 220 280 318
#
# _framework density 21.786455
#
# number of rings (size 3 to 8) (size 9 to 14) (size 15 to 20)
#    1.500    1.000    0.000    1.500    0.000    9.500 
#    0.000    0.000    0.000    3.750    0.000    0.000 
#    0.000    0.000    0.000    0.000    0.000    0.000 
#
# Total GULP energy -178298.529043 kJ/mol
# GULP energy per Si atom -5571.829033 kJ/mol
# Density = 2.173687 g / cm^3
# Si number density = 21.786455 Si / 1000 Ang^3
#
#
#
# Elastic Constant Matrix: (Units=GPa)
#
#
# Indices 1 2 3 4 5 6 
#
# 1 42.7767 6.8271 17.5788 0.0000 0.0000 0.0000
# 2 6.8271 169.0047 69.5541 0.0000 0.0000 0.0000
# 3 17.5788 69.5541 102.9366 0.0000 0.0000 0.0000
# 4 0.0000 0.0000 0.0000 29.7348 0.0000 0.0000
# 5 0.0000 0.0000 0.0000 0.0000 25.0156 0.0000
# 6 0.0000 0.0000 0.0000 0.0000 0.0000 0.2415
#
#
#
# Elastic Compliance Matrix: (Units=1/GPa)
#
#
# Indices 1 2 3 4 5 6 
#
# 1 0.025274 0.001046 -0.005023 0.000000 0.000000 0.000000
# 2 0.001046 0.008240 -0.005746 0.000000 0.000000 0.000000
# 3 -0.005023 -0.005746 0.014455 0.000000 0.000000 0.000000
# 4 0.000000 0.000000 0.000000 0.033631 0.000000 0.000000
# 5 0.000000 0.000000 0.000000 0.000000 0.039975 0.000000
# 6 0.000000 0.000000 0.000000 0.000000 0.000000 4.140391
#
#
# Mechanical properties :
#
#
# Convention : Reuss Voigt Hill
#
# Bulk Modulus (GPa) = 35.05919 55.84866 45.45393
# Shear Modulus (GPa) = 1.16525 25.71559 13.44042
#
# Velocity S-wave (km/s) = 0.73213 3.43935 2.48647
# Velocity P-wave (km/s) = 4.10388 6.43913 5.39927
#
# Compressibility (1/GPa) = 0.02852319
#
# Stress axis : x y z
#
# Youngs Moduli (GPa) = 39.56566 121.36567 69.17924
#
# Poissons Ratio (x) = -0.12699 0.34750
# Poissons Ratio (y) = -0.04140 0.39751
# Poissons Ratio (z) = 0.19875 0.69738
#
# Static dielectric constant tensor:
#      x y z
#    x 1.877590 0.000000 0.000000 
#    y 0.000000 1.732020 0.000000 
#    z 0.000000 0.000000 1.832420 
# 
# From -- ./inp_files/5589.got.cif
#   From: 2010.05.17/outbox.cif.g08.bks.cpg/sg64_3_cif.got.tgz:5589.got - 2010.06.03 16:29:19.
