data_PCOD9479184
_publ_section_title
;
Structure prediction by ZEFSAII (Michael W. Deem and Ramdas Pophale) SiO2 
 PCOD9479184
Probable space group: C M C A
;
_chemical_formula_sum "Si O2"
_cell_formula_units_Z 96
_cell_length_a 22.617335
_cell_length_b 22.509658
_cell_length_c 8.943593
_cell_angle_alpha 90.000000
_cell_angle_beta 90.000000
_cell_angle_gamma 90.000000
_cell_volume 4553.259000
_symmetry_space_group_name_H-M "C M C A"
_symmetry_group_IT_number 64
_symmetry_cell_setting 'orthorhombic'
loop_
_space_group_symop_operation_xyz
x,y,z
-x,1/2-y,1/2+z
x,-y,-z
-x,1/2+y,1/2-z
-x,-y,-z
x,1/2+y,1/2-z
-x,y,z
x,1/2-y,1/2+z
1/2+x,1/2+y,z
1/2-x,-y,1/2+z
1/2+x,1/2-y,-z
1/2-x,y,1/2-z
1/2-x,1/2-y,-z
1/2+x,y,1/2-z
1/2-x,1/2+y,z
1/2+x,-y,1/2+z
loop_
_atom_site_type_symbol
_atom_site_label
_atom_site_fract_x
_atom_site_fract_y
_atom_site_fract_z
Si Si1 0.788894 0.941536 0.900557
Si Si2 0.199214 0.853762 0.150161
Si Si3 0.374343 0.363822 0.403849
Si Si4 0.500000 0.676057 0.624546
Si Si5 0.373256 0.361867 0.748398
Si Si6 0.684337 0.264283 0.933123
Si Si7 0.500000 0.195752 0.228995
O O1 0.750000 0.945465 0.750000
O O2 0.852693 0.917169 0.848402
O O3 0.769683 0.890316 0.018301
O O4 0.789408 0.000000 0.000000
O O5 0.250000 0.824104 0.250000
O O6 0.163598 0.892532 0.270193
O O7 0.159005 0.805538 0.067973
O O8 0.441607 0.362263 0.353151
O O9 0.368696 0.382369 0.575789
O O10 0.352347 0.295082 0.410419
O O11 0.500000 0.736735 0.716422
O O12 0.500000 0.694542 0.450370
O O13 0.326723 0.308352 0.791333
O O14 0.438983 0.336814 0.776337
O O15 0.750000 0.250000 0.000000
#
# Coordination Sequence:
#
# PCOD9479184 Si02
#       7
#    16  16  16   8  16  16   8
#     4  11  25  45  67  90 117 153 200 262 330 387
#     4  11  22  36  57  87 121 161 205 249 306 366
#     4  11  21  36  55  89 127 172 211 248 297 364
#     4  10  22  34  58  83 132 182 215 248 295 350
#     4  10  23  37  59  87 124 168 217 263 309 371
#     4  11  21  32  51  85 131 171 206 245 299 365
#     4  10  20  38  55  85 125 174 223 258 300 362
#
# _framework density 21.0838
#
# number of rings (size 3 to 8) (size 9 to 14) (size 15 to 20)
#    0.000    1.333    3.333    2.500    4.667    0.000 
#    0.000    0.417    0.000    0.000    0.000    4.083 
#    0.000    0.000    0.000    0.000    0.000    0.000 
#
# Total GULP energy -267609.010275 kJ/mol
# GULP energy per Si atom -5575.187714 kJ/mol
# Density = 2.103581 g / cm^3
# Si number density = 21.083800 Si / 1000 Ang^3
#
#
#
# Elastic Constant Matrix: (Units=GPa)
#
#
# Indices 1 2 3 4 5 6 
#
# 1 97.8848 -10.7850 28.5575 0.0000 0.0000 0.0000
# 2 -10.7850 41.0646 22.0939 0.0000 0.0000 0.0000
# 3 28.5575 22.0939 115.0255 0.0000 0.0000 0.0000
# 4 0.0000 0.0000 0.0000 31.1591 0.0000 0.0000
# 5 0.0000 0.0000 0.0000 0.0000 26.7153 0.0000
# 6 0.0000 0.0000 0.0000 0.0000 0.0000 13.0986
#
#
#
# Elastic Compliance Matrix: (Units=1/GPa)
#
#
# Indices 1 2 3 4 5 6 
#
# 1 0.011961 0.005285 -0.003985 0.000000 0.000000 0.000000
# 2 0.005285 0.029494 -0.006977 0.000000 0.000000 0.000000
# 3 -0.003985 -0.006977 0.011023 0.000000 0.000000 0.000000
# 4 0.000000 0.000000 0.000000 0.032093 0.000000 0.000000
# 5 0.000000 0.000000 0.000000 0.000000 0.037432 0.000000
# 6 0.000000 0.000000 0.000000 0.000000 0.000000 0.076344
#
#
# Mechanical properties :
#
#
# Convention : Reuss Voigt Hill
#
# Bulk Modulus (GPa) = 24.31640 37.07864 30.69752
# Shear Modulus (GPa) = 22.38046 28.46850 25.42448
#
# Velocity S-wave (km/s) = 3.26160 3.67857 3.47634
# Velocity P-wave (km/s) = 5.07369 5.97218 5.54118
#
# Compressibility (1/GPa) = 0.04112451
#
# Stress axis : x y z
#
# Youngs Moduli (GPa) = 83.60539 33.90525 90.71769
#
# Poissons Ratio (x) = -0.17920 0.36149
# Poissons Ratio (y) = -0.44188 0.63297
# Poissons Ratio (z) = 0.33315 0.23657
#
# Static dielectric constant tensor:
#      x y z
#    x 1.823960 0.000000 0.000000 
#    y 0.000000 1.771070 0.000000 
#    z 0.000000 0.000000 1.849330 
# 
# From -- ./inp_files/9559.got.cif
#   From: 2010.05.17/outbox.cif.g08.bks.cpg/sg64_5_cif.got.tgz:9559.got - 2010.06.03 16:29:19.
