data_PCOD9479308
_publ_section_title
;
Structure prediction by ZEFSAII (Michael W. Deem and Ramdas Pophale) SiO2 
 PCOD9479308
Probable space group: C M C A
;
_chemical_formula_sum "Si O2"
_cell_formula_units_Z 64
_cell_length_a 23.205770
_cell_length_b 16.400219
_cell_length_c 6.845974
_cell_angle_alpha 90.000000
_cell_angle_beta 90.000000
_cell_angle_gamma 90.000000
_cell_volume 2605.438800
_symmetry_space_group_name_H-M "C M C A"
_symmetry_group_IT_number 64
_symmetry_cell_setting 'orthorhombic'
loop_
_space_group_symop_operation_xyz
x,y,z
-x,1/2-y,1/2+z
x,-y,-z
-x,1/2+y,1/2-z
-x,-y,-z
x,1/2+y,1/2-z
-x,y,z
x,1/2-y,1/2+z
1/2+x,1/2+y,z
1/2-x,-y,1/2+z
1/2+x,1/2-y,-z
1/2-x,y,1/2-z
1/2-x,1/2-y,-z
1/2+x,y,1/2-z
1/2-x,1/2+y,z
1/2+x,-y,1/2+z
loop_
_atom_site_type_symbol
_atom_site_label
_atom_site_fract_x
_atom_site_fract_y
_atom_site_fract_z
Si Si1 0.935910 0.681693 0.053705
Si Si2 0.704018 0.078063 0.390774
Si Si3 0.586500 0.976126 0.778461
Si Si4 0.109119 0.143669 0.834463
O O1 0.935594 0.617009 0.232121
O O2 0.922473 0.773653 0.108673
O O3 0.000000 0.677083 0.965801
O O4 0.886898 0.654257 0.900144
O O5 0.750000 0.119848 0.250000
O O6 0.654123 0.037055 0.258717
O O7 0.668128 0.132399 0.545030
O O8 0.731460 0.000000 0.500000
O O9 0.574599 0.057399 0.651526
O O10 0.570026 0.000000 0.000000
#
# Coordination Sequence:
#
# PCOD9479308 Si02
#       4
#    16  16  16  16
#     4  11  22  39  63  90 130 178 216 259 317 372
#     4  10  20  38  64  92 122 163 209 260 326 384
#     4   9  20  38  62  92 125 161 211 266 312 377
#     4  10  22  38  59  92 128 164 216 269 309 372
#
# _framework density 24.564003
#
# number of rings (size 3 to 8) (size 9 to 14) (size 15 to 20)
#    0.000    2.000    0.000    3.000    0.000    5.500 
#    0.000    6.250    0.000   27.750    0.000   21.000 
#    0.000    0.000    0.000    0.000    0.000    0.000 
#
# Total GULP energy -178323.717267 kJ/mol
# GULP energy per Si atom -5572.616165 kJ/mol
# Density = 2.450809 g / cm^3
# Si number density = 24.564003 Si / 1000 Ang^3
#
#
#
# Elastic Constant Matrix: (Units=GPa)
#
#
# Indices 1 2 3 4 5 6 
#
# 1 93.1386 38.3226 42.6482 0.0000 0.0000 0.0000
# 2 38.3226 221.4989 63.7962 0.0000 0.0000 0.0000
# 3 42.6482 63.7962 95.3138 0.0000 0.0000 0.0000
# 4 0.0000 0.0000 0.0000 48.6682 0.0000 0.0000
# 5 0.0000 0.0000 0.0000 0.0000 30.5995 0.0000
# 6 0.0000 0.0000 0.0000 0.0000 0.0000 21.2415
#
#
#
# Elastic Compliance Matrix: (Units=1/GPa)
#
#
# Indices 1 2 3 4 5 6 
#
# 1 0.013602 -0.000744 -0.005588 0.000000 0.000000 0.000000
# 2 -0.000744 0.005634 -0.003438 0.000000 0.000000 0.000000
# 3 -0.005588 -0.003438 0.015293 0.000000 0.000000 0.000000
# 4 0.000000 0.000000 0.000000 0.020547 0.000000 0.000000
# 5 0.000000 0.000000 0.000000 0.000000 0.032680 0.000000
# 6 0.000000 0.000000 0.000000 0.000000 0.000000 0.047078
#
#
# Mechanical properties :
#
#
# Convention : Reuss Voigt Hill
#
# Bulk Modulus (GPa) = 66.71750 77.72060 72.21905
# Shear Modulus (GPa) = 31.37364 37.78079 34.57722
#
# Velocity S-wave (km/s) = 3.57770 3.92606 3.75592
# Velocity P-wave (km/s) = 6.65479 7.22915 6.94791
#
# Compressibility (1/GPa) = 0.01498857
#
# Stress axis : x y z
#
# Youngs Moduli (GPa) = 73.52102 177.50757 65.38859
#
# Poissons Ratio (x) = 0.13202 0.36540
# Poissons Ratio (y) = 0.05468 0.22480
# Poissons Ratio (z) = 0.41085 0.61025
#
# Static dielectric constant tensor:
#      x y z
#    x 1.877790 0.000000 0.000000 
#    y 0.000000 2.020790 0.000000 
#    z 0.000000 0.000000 2.134600 
# 
# From -- ./inp_files/8948.got.cif
#   From: 2010.05.17/outbox.cif.g08.bks.cpg/sg64_5_cif.got.tgz:8948.got - 2010.06.03 16:29:19.
