data_PCOD9479463
_publ_section_title
;
Structure prediction by ZEFSAII (Michael W. Deem and Ramdas Pophale) SiO2 
 PCOD9479463
Probable space group: C M C A
;
_chemical_formula_sum "Si O2"
_cell_formula_units_Z 80
_cell_length_a 16.744855
_cell_length_b 8.725685
_cell_length_c 23.809120
_cell_angle_alpha 90.000000
_cell_angle_beta 90.000000
_cell_angle_gamma 90.000000
_cell_volume 3478.758383
_symmetry_space_group_name_H-M "C M C A"
_symmetry_group_IT_number 64
_symmetry_cell_setting 'orthorhombic'
loop_
_space_group_symop_operation_xyz
x,y,z
-x,1/2-y,1/2+z
x,-y,-z
-x,1/2+y,1/2-z
-x,-y,-z
x,1/2+y,1/2-z
-x,y,z
x,1/2-y,1/2+z
1/2+x,1/2+y,z
1/2-x,-y,1/2+z
1/2+x,1/2-y,-z
1/2-x,y,1/2-z
1/2-x,1/2-y,-z
1/2+x,y,1/2-z
1/2-x,1/2+y,z
1/2+x,-y,1/2+z
loop_
_atom_site_type_symbol
_atom_site_label
_atom_site_fract_x
_atom_site_fract_y
_atom_site_fract_z
Si Si1 0.000000 0.771171 0.722198
Si Si2 0.000000 0.572396 0.334171
Si Si3 0.363154 0.146498 0.425036
Si Si4 0.136526 0.095850 0.349268
Si Si5 0.500000 0.179617 0.504575
Si Si6 0.732078 0.117259 0.611613
Si Si7 0.500000 0.447943 0.566243
O O1 0.923135 0.869715 0.701612
O O2 0.000000 0.597685 0.695718
O O3 0.000000 0.789687 0.788921
O O4 0.077141 0.600894 0.373875
O O5 0.419407 0.216486 0.472332
O O6 0.297310 0.271908 0.413934
O O7 0.313174 0.990553 0.432700
O O8 0.168437 0.265468 0.363326
O O9 0.079439 0.021523 0.397774
O O10 0.216133 0.990854 0.346047
O O11 0.500000 0.261393 0.563312
O O12 0.500000 0.000000 0.500000
O O13 0.500000 0.500000 0.500000
#
# Coordination Sequence:
#
# PCOD9479463 Si02
#       7
#     8   8  16  16   8  16   8
#     4  11  24  42  65  92 118 161 201 250 297 364
#     4  11  24  42  65  91 120 157 205 244 300 362
#     4  10  22  41  63  86 125 157 200 248 299 355
#     4  10  22  41  65  84 129 158 205 249 306 354
#     4  11  22  37  63  88 116 162 206 244 297 353
#     4  10  20  40  63  88 120 168 191 251 309 352
#     4  11  22  39  61  92 120 164 210 249 292 361
#
# _framework density 22.996711000000001
#
# number of rings (size 3 to 8) (size 9 to 14) (size 15 to 20)
#    0.000    1.600    2.000    2.400    5.600    1.600 
#    0.000   26.000    0.000    0.000    0.000    0.000 
#    0.000    0.000    0.000    0.000    0.000    0.000 
#
# Total GULP energy -223122.500226 kJ/mol
# GULP energy per Si atom -5578.062506 kJ/mol
# Density = 2.294437 g / cm^3
# Si number density = 22.996711 Si / 1000 Ang^3
#
#
#
# Elastic Constant Matrix: (Units=GPa)
#
#
# Indices 1 2 3 4 5 6 
#
# 1 133.2075 30.4407 30.3814 0.0000 0.0000 0.0000
# 2 30.4407 86.2315 7.5123 0.0000 0.0000 0.0000
# 3 30.3814 7.5123 45.4517 0.0000 0.0000 0.0000
# 4 0.0000 0.0000 0.0000 21.1551 0.0000 0.0000
# 5 0.0000 0.0000 0.0000 0.0000 -2.4260 0.0000
# 6 0.0000 0.0000 0.0000 0.0000 0.0000 -2.4996
#
#
#
# Elastic Compliance Matrix: (Units=1/GPa)
#
#
# Indices 1 2 3 4 5 6 
#
# 1 0.009497 -0.002840 -0.005879 0.000000 0.000000 0.000000
# 2 -0.002840 0.012616 -0.000187 0.000000 0.000000 0.000000
# 3 -0.005879 -0.000187 0.025962 0.000000 0.000000 0.000000
# 4 0.000000 0.000000 0.000000 0.047270 0.000000 0.000000
# 5 0.000000 0.000000 0.000000 0.000000 -0.412205 0.000000
# 6 0.000000 0.000000 0.000000 0.000000 0.000000 -0.400072
#
#
# Mechanical properties :
#
#
# Convention : Reuss Voigt Hill
#
# Bulk Modulus (GPa) = 33.04344 44.61772 38.83058
# Shear Modulus (GPa) = -7.25654 16.34966 4.54656
#
# Velocity S-wave (km/s) = -1.77829 2.66927 1.40760
# Velocity P-wave (km/s) = 3.19117 5.37995 4.42309
#
# Compressibility (1/GPa) = 0.03026319
#
# Stress axis : x y z
#
# Youngs Moduli (GPa) = 105.29707 79.26678 38.51838
#
# Poissons Ratio (x) = 0.22515 0.22643
# Poissons Ratio (y) = 0.29909 0.00718
# Poissons Ratio (z) = 0.61900 0.01478
#
# Static dielectric constant tensor:
#      x y z
#    x 1.866560 0.000000 0.000000 
#    y 0.000000 1.973350 0.000000 
#    z 0.000000 0.000000 1.913550 
# 
# From -- ./inp_files/50346.got.cif
#   From: 2010.05.17/outbox.cif.g08.bks.cpg/sg64_26_cif.got.tgz:50346.got - 2010.06.03 16:29:19.
