data_PCOD9479743
_publ_section_title
;
Structure prediction by ZEFSAII (Michael W. Deem and Ramdas Pophale) SiO2 
 PCOD9479743
Probable space group: C M C A
;
_chemical_formula_sum "Si O2"
_cell_formula_units_Z 116
_cell_length_a 7.578738
_cell_length_b 26.108150
_cell_length_c 26.459941
_cell_angle_alpha 90.000000
_cell_angle_beta 90.000000
_cell_angle_gamma 90.000000
_cell_volume 5235.544608
_symmetry_space_group_name_H-M "C M C A"
_symmetry_group_IT_number 64
_symmetry_cell_setting 'orthorhombic'
loop_
_space_group_symop_operation_xyz
x,y,z
-x,1/2-y,1/2+z
x,-y,-z
-x,1/2+y,1/2-z
-x,-y,-z
x,1/2+y,1/2-z
-x,y,z
x,1/2-y,1/2+z
1/2+x,1/2+y,z
1/2-x,-y,1/2+z
1/2+x,1/2-y,-z
1/2-x,y,1/2-z
1/2-x,1/2-y,-z
1/2+x,y,1/2-z
1/2-x,1/2+y,z
1/2+x,-y,1/2+z
loop_
_atom_site_type_symbol
_atom_site_label
_atom_site_fract_x
_atom_site_fract_y
_atom_site_fract_z
Si Si1 0.296311 0.873064 0.051002
Si Si2 0.717999 0.013698 0.918207
Si Si3 0.793206 0.382734 0.669010
Si Si4 0.306759 0.490555 0.694373
Si Si5 0.714420 0.346866 0.939742
Si Si6 0.296302 0.234003 0.913510
Si Si7 0.500000 0.500000 0.000000
Si Si8 0.207917 0.767772 0.694833
O O1 0.500000 0.872388 0.067287
O O2 0.228617 0.927062 0.070680
O O3 0.213311 0.819626 0.069853
O O4 0.282448 0.871017 0.990791
O O5 0.500000 0.006895 0.924511
O O6 0.841813 0.984717 0.958354
O O7 0.775238 0.002161 0.860454
O O8 0.694136 0.428747 0.695550
O O9 0.731034 0.375954 0.611130
O O10 0.771035 0.326674 0.692685
O O11 0.000000 0.395457 0.669973
O O12 0.500000 0.512610 0.688192
O O13 0.250000 0.508027 0.750000
O O14 0.500000 0.346396 0.940005
O O15 0.777114 0.287554 0.935015
O O16 0.500000 0.233184 0.930697
O O17 0.291422 0.239570 0.853013
O O18 0.250000 0.746298 0.750000
O O19 0.000000 0.767518 0.686927
#
# Coordination Sequence:
#
# PCOD9479743 Si02
#       8
#    16  16  16  16  16  16   4  16
#     4  10  21  38  59  83 120 158 197 249 305 364
#     4  10  26  45  66 100 130 170 217 267 331 390
#     4  10  21  36  57  86 120 155 200 246 306 377
#     4  11  24  42  64  89 126 166 213 268 320 387
#     4   9  19  32  54  87 120 156 198 238 293 370
#     4   9  19  37  56  80 116 156 193 240 295 356
#     4  12  26  44  76  94 136 168 210 278 324 394
#     4  11  21  35  55  81 113 150 193 245 301 358
#
# _framework density 22.156244000000001
#
# number of rings (size 3 to 8) (size 9 to 14) (size 15 to 20)
#    0.000    1.931    0.000    3.931    4.828    3.310 
#    0.000    0.690    0.000    1.655    0.000    0.000 
#    0.000    0.000    0.000    0.000    0.000    0.000 
#
# Total GULP energy -323252.033442 kJ/mol
# GULP energy per Si atom -5573.310921 kJ/mol
# Density = 2.210582 g / cm^3
# Si number density = 22.156244 Si / 1000 Ang^3
#
#
#
# Elastic Constant Matrix: (Units=GPa)
#
#
# Indices 1 2 3 4 5 6 
#
# 1 84.6293 -0.3782 6.5375 0.0000 0.0000 0.0000
# 2 -0.3782 63.0949 20.0759 0.0000 0.0000 0.0000
# 3 6.5375 20.0759 134.7741 0.0000 0.0000 0.0000
# 4 0.0000 0.0000 0.0000 9.9562 0.0000 0.0000
# 5 0.0000 0.0000 0.0000 0.0000 29.5384 0.0000
# 6 0.0000 0.0000 0.0000 0.0000 0.0000 3.1507
#
#
#
# Elastic Compliance Matrix: (Units=1/GPa)
#
#
# Indices 1 2 3 4 5 6 
#
# 1 0.011865 0.000267 -0.000615 0.000000 0.000000 0.000000
# 2 0.000267 0.016644 -0.002492 0.000000 0.000000 0.000000
# 3 -0.000615 -0.002492 0.007821 0.000000 0.000000 0.000000
# 4 0.000000 0.000000 0.000000 0.100440 0.000000 0.000000
# 5 0.000000 0.000000 0.000000 0.000000 0.033854 0.000000
# 6 0.000000 0.000000 0.000000 0.000000 0.000000 0.317390
#
#
# Mechanical properties :
#
#
# Convention : Reuss Voigt Hill
#
# Bulk Modulus (GPa) = 32.62811 37.21874 34.92343
# Shear Modulus (GPa) = 9.92239 25.61325 17.76782
#
# Velocity S-wave (km/s) = 2.11851 3.40373 2.83491
# Velocity P-wave (km/s) = 4.55439 5.68172 5.14900
#
# Compressibility (1/GPa) = 0.03064842
#
# Stress axis : x y z
#
# Youngs Moduli (GPa) = 84.28181 60.08269 127.86243
#
# Poissons Ratio (x) = -0.01604 0.07867
# Poissons Ratio (y) = -0.02249 0.31866
# Poissons Ratio (z) = 0.05186 0.14974
#
# Static dielectric constant tensor:
#      x y z
#    x 1.875040 0.000000 0.000000 
#    y 0.000000 1.850300 0.000000 
#    z 0.000000 0.000000 1.842910 
# 
# From -- ./inp_files/48566.got.cif
#   From: 2010.05.17/outbox.cif.g08.bks.cpg/sg64_25_cif.got.tgz:48566.got - 2010.06.03 16:29:19.
