data_PCOD9479292
_publ_section_title
;
Structure prediction by ZEFSAII (Michael W. Deem and Ramdas Pophale) SiO2 
 PCOD9479292
Probable space group: C M C A
;
_chemical_formula_sum "Si O2"
_cell_formula_units_Z 104
_cell_length_a 22.548470
_cell_length_b 26.286530
_cell_length_c 7.736821
_cell_angle_alpha 90.000000
_cell_angle_beta 90.000000
_cell_angle_gamma 90.000000
_cell_volume 4585.776536
_symmetry_space_group_name_H-M "C M C A"
_symmetry_group_IT_number 64
_symmetry_cell_setting 'orthorhombic'
loop_
_space_group_symop_operation_xyz
x,y,z
-x,1/2-y,1/2+z
x,-y,-z
-x,1/2+y,1/2-z
-x,-y,-z
x,1/2+y,1/2-z
-x,y,z
x,1/2-y,1/2+z
1/2+x,1/2+y,z
1/2-x,-y,1/2+z
1/2+x,1/2-y,-z
1/2-x,y,1/2-z
1/2-x,1/2-y,-z
1/2+x,y,1/2-z
1/2-x,1/2+y,z
1/2+x,-y,1/2+z
loop_
_atom_site_type_symbol
_atom_site_label
_atom_site_fract_x
_atom_site_fract_y
_atom_site_fract_z
Si Si1 0.931759 0.169142 0.010489
Si Si2 0.880394 0.921557 0.800524
Si Si3 0.068425 0.729884 0.131061
Si Si4 0.750000 0.878026 0.250000
Si Si5 0.731652 0.550784 0.068793
Si Si6 0.500000 0.526034 0.267568
Si Si7 0.000000 0.584106 0.857225
Si Si8 0.624301 0.861271 0.064230
O O1 0.887552 0.124627 0.063179
O O2 0.932143 0.204510 0.181893
O O3 0.000000 0.151553 0.982930
O O4 0.914346 0.210886 0.868423
O O5 0.833491 0.962486 0.864601
O O6 0.941924 0.949474 0.806161
O O7 0.868035 0.898376 0.607430
O O8 0.108513 0.693501 0.015505
O O9 0.000000 0.727493 0.067900
O O10 0.730889 0.911557 0.412193
O O11 0.814326 0.857150 0.325350
O O12 0.750000 0.576204 0.250000
O O13 0.763452 0.500000 0.000000
O O14 0.500000 0.465569 0.237683
O O15 0.500000 0.552484 0.460571
O O16 0.937650 0.615920 0.851418
#
# Coordination Sequence:
#
# PCOD9479292 Si02
#       8
#    16  16  16   8  16   8   8  16
#     4   9  17  32  59  92 126 166 206 265 324 388
#     4  10  20  39  64  89 129 168 212 264 335 388
#     4   9  17  32  58  90 124 165 214 259 327 392
#     4  12  26  42  66  94 128 170 220 268 326 382
#     4  12  26  45  65  90 124 171 220 270 318 382
#     4   9  18  32  59  89 120 165 207 255 325 393
#     4   9  18  32  58  90 123 165 210 258 330 381
#     4  10  20  38  63  93 127 168 216 274 326 394
#
# _framework density 22.678820000000002
#
# number of rings (size 3 to 8) (size 9 to 14) (size 15 to 20)
#    0.000    2.000    3.846    0.000    2.154    1.231 
#    0.000    1.154    1.692    2.769    0.000    0.000 
#    0.000    0.000    0.000    0.000    0.000    0.000 
#
# Total GULP energy -289532.712222 kJ/mol
# GULP energy per Si atom -5567.936774 kJ/mol
# Density = 2.262720 g / cm^3
# Si number density = 22.678820 Si / 1000 Ang^3
#
#
#
# Elastic Constant Matrix: (Units=GPa)
#
#
# Indices 1 2 3 4 5 6 
#
# 1 99.1882 3.1960 27.1623 0.0000 0.0000 0.0000
# 2 3.1960 57.1361 5.7669 0.0000 0.0000 0.0000
# 3 27.1623 5.7669 97.8564 0.0000 0.0000 0.0000
# 4 0.0000 0.0000 0.0000 31.2622 0.0000 0.0000
# 5 0.0000 0.0000 0.0000 0.0000 48.2131 0.0000
# 6 0.0000 0.0000 0.0000 0.0000 0.0000 8.8179
#
#
#
# Elastic Compliance Matrix: (Units=1/GPa)
#
#
# Indices 1 2 3 4 5 6 
#
# 1 0.010917 -0.000307 -0.003012 0.000000 0.000000 0.000000
# 2 -0.000307 0.017615 -0.000953 0.000000 0.000000 0.000000
# 3 -0.003012 -0.000953 0.011111 0.000000 0.000000 0.000000
# 4 0.000000 0.000000 0.000000 0.031988 0.000000 0.000000
# 5 0.000000 0.000000 0.000000 0.000000 0.020741 0.000000
# 6 0.000000 0.000000 0.000000 0.000000 0.000000 0.113406
#
#
# Mechanical properties :
#
#
# Convention : Reuss Voigt Hill
#
# Bulk Modulus (GPa) = 32.15450 36.27014 34.21232
# Shear Modulus (GPa) = 22.25311 32.19566 27.22439
#
# Velocity S-wave (km/s) = 3.13586 3.77189 3.46848
# Velocity P-wave (km/s) = 5.22690 5.91585 5.58201
#
# Compressibility (1/GPa) = 0.03109985
#
# Stress axis : x y z
#
# Youngs Moduli (GPa) = 91.60382 56.76848 89.99852
#
# Poissons Ratio (x) = 0.01741 0.27108
# Poissons Ratio (y) = 0.02809 0.08577
# Poissons Ratio (z) = 0.27592 0.05410
#
# Static dielectric constant tensor:
#      x y z
#    x 1.896080 0.000000 0.000000 
#    y 0.000000 1.836880 0.000000 
#    z 0.000000 0.000000 1.955580 
# 
# From -- ./inp_files/8722.got.cif
#   From: 2010.05.17/outbox.cif.g08.bks.cpg/sg64_5_cif.got.tgz:8722.got - 2010.06.03 16:29:19.
