data_PCOD9479833
_publ_section_title
;
Structure prediction by ZEFSAII (Michael W. Deem and Ramdas Pophale) SiO2 
 PCOD9479833
Probable space group: C M C A
;
_chemical_formula_sum "Si O2"
_cell_formula_units_Z 96
_cell_length_a 7.676571
_cell_length_b 20.289101
_cell_length_c 30.026202
_cell_angle_alpha 90.000000
_cell_angle_beta 90.000000
_cell_angle_gamma 90.000000
_cell_volume 4676.602711
_symmetry_space_group_name_H-M "C M C A"
_symmetry_group_IT_number 64
_symmetry_cell_setting 'orthorhombic'
loop_
_space_group_symop_operation_xyz
x,y,z
-x,1/2-y,1/2+z
x,-y,-z
-x,1/2+y,1/2-z
-x,-y,-z
x,1/2+y,1/2-z
-x,y,z
x,1/2-y,1/2+z
1/2+x,1/2+y,z
1/2-x,-y,1/2+z
1/2+x,1/2-y,-z
1/2-x,y,1/2-z
1/2-x,1/2-y,-z
1/2+x,y,1/2-z
1/2-x,1/2+y,z
1/2+x,-y,1/2+z
loop_
_atom_site_type_symbol
_atom_site_label
_atom_site_fract_x
_atom_site_fract_y
_atom_site_fract_z
Si Si1 0.207312 0.361081 0.301195
Si Si2 0.209262 0.010089 0.198689
Si Si3 0.201906 0.560604 0.472949
Si Si4 0.291633 0.685913 0.529086
Si Si5 0.214340 0.110488 0.122733
Si Si6 0.794701 0.760897 0.377852
O O1 0.250000 0.345634 0.250000
O O2 0.275107 0.435496 0.310271
O O3 0.274010 0.305987 0.334725
O O4 0.000000 0.362790 0.306057
O O5 0.250000 0.026565 0.250000
O O6 0.271960 0.063901 0.163293
O O7 0.000000 0.007830 0.194842
O O8 0.283381 0.500000 0.500000
O O9 0.209512 0.623602 0.504881
O O10 0.273670 0.580884 0.424687
O O11 0.000000 0.542819 0.464099
O O12 0.500000 0.675292 0.529878
O O13 0.250000 0.750000 0.500000
O O14 0.224848 0.701036 0.578781
O O15 0.273823 0.186393 0.126943
O O16 0.000000 0.110996 0.122976
O O17 0.000000 0.752875 0.386756
#
# Coordination Sequence:
#
# PCOD9479833 Si02
#       6
#    16  16  16  16  16  16
#     4  10  21  37  59  85 112 143 185 230 278 338
#     4   9  19  36  58  80 107 142 180 226 276 330
#     4  10  21  37  60  85 114 153 195 237 286 345
#     4  11  22  38  59  83 118 156 193 237 287 340
#     4   9  18  36  56  80 112 145 183 230 281 328
#     4  10  21  37  57  81 114 151 184 230 284 333
#
# _framework density 20.527723000000002
#
# number of rings (size 3 to 8) (size 9 to 14) (size 15 to 20)
#    0.000    2.167    1.667    1.000    2.333    3.000 
#    0.000    3.333    0.000    0.000    0.000    0.000 
#    0.000    0.000    0.000    0.000    0.000    0.000 
#
# Total GULP energy -267974.664509 kJ/mol
# GULP energy per Si atom -5582.805511 kJ/mol
# Density = 2.048100 g / cm^3
# Si number density = 20.527723 Si / 1000 Ang^3
#
#
#
# Elastic Constant Matrix: (Units=GPa)
#
#
# Indices 1 2 3 4 5 6 
#
# 1 34.7781 -14.2160 -13.1263 0.0000 0.0000 0.0000
# 2 -14.2160 149.1115 114.9650 0.0000 0.0000 0.0000
# 3 -13.1263 114.9650 168.1268 0.0000 0.0000 0.0000
# 4 0.0000 0.0000 0.0000 41.5639 0.0000 0.0000
# 5 0.0000 0.0000 0.0000 0.0000 13.7807 0.0000
# 6 0.0000 0.0000 0.0000 0.0000 0.0000 12.7597
#
#
#
# Elastic Compliance Matrix: (Units=1/GPa)
#
#
# Indices 1 2 3 4 5 6 
#
# 1 0.029973 0.002228 0.000817 0.000000 0.000000 0.000000
# 2 0.002228 0.014350 -0.009639 0.000000 0.000000 0.000000
# 3 0.000817 -0.009639 0.012603 0.000000 0.000000 0.000000
# 4 0.000000 0.000000 0.000000 0.024059 0.000000 0.000000
# 5 0.000000 0.000000 0.000000 0.000000 0.072565 0.000000
# 6 0.000000 0.000000 0.000000 0.000000 0.000000 0.078372
#
#
# Mechanical properties :
#
#
# Convention : Reuss Voigt Hill
#
# Bulk Modulus (GPa) = 22.86388 58.58462 40.72425
# Shear Modulus (GPa) = 19.25379 31.24711 25.25045
#
# Velocity S-wave (km/s) = 3.06590 3.90576 3.51103
# Velocity P-wave (km/s) = 4.86778 6.99580 6.02646
#
# Compressibility (1/GPa) = 0.04373711
#
# Stress axis : x y z
#
# Youngs Moduli (GPa) = 33.36377 69.68494 79.34845
#
# Poissons Ratio (x) = -0.15525 -0.06480
# Poissons Ratio (y) = -0.07433 0.76482
# Poissons Ratio (z) = -0.02725 0.67168
#
# Static dielectric constant tensor:
#      x y z
#    x 1.685820 0.000000 0.000000 
#    y 0.000000 1.728260 0.000000 
#    z 0.000000 0.000000 1.693150 
# 
# From -- ./inp_files/48165.got.cif
#   From: 2010.05.17/outbox.cif.g08.bks.cpg/sg64_25_cif.got.tgz:48165.got - 2010.06.03 16:29:19.
