data_PCOD9479378
_publ_section_title
;
Structure prediction by ZEFSAII (Michael W. Deem and Ramdas Pophale) SiO2 
 PCOD9479378
Probable space group: C M C A
;
_chemical_formula_sum "Si O2"
_cell_formula_units_Z 80
_cell_length_a 15.025939
_cell_length_b 23.556221
_cell_length_c 11.044585
_cell_angle_alpha 90.000000
_cell_angle_beta 90.000000
_cell_angle_gamma 90.000000
_cell_volume 3909.278792
_symmetry_space_group_name_H-M "C M C A"
_symmetry_group_IT_number 64
_symmetry_cell_setting 'orthorhombic'
loop_
_space_group_symop_operation_xyz
x,y,z
-x,1/2-y,1/2+z
x,-y,-z
-x,1/2+y,1/2-z
-x,-y,-z
x,1/2+y,1/2-z
-x,y,z
x,1/2-y,1/2+z
1/2+x,1/2+y,z
1/2-x,-y,1/2+z
1/2+x,1/2-y,-z
1/2-x,y,1/2-z
1/2-x,1/2-y,-z
1/2+x,y,1/2-z
1/2-x,1/2+y,z
1/2+x,-y,1/2+z
loop_
_atom_site_type_symbol
_atom_site_label
_atom_site_fract_x
_atom_site_fract_y
_atom_site_fract_z
Si Si1 0.193090 0.406683 0.869785
Si Si2 0.750000 0.112114 0.750000
Si Si3 0.000000 0.121461 0.315933
Si Si4 0.156479 0.940782 0.045940
Si Si5 0.500000 0.727914 0.498642
Si Si6 0.191539 0.696253 0.964909
Si Si7 0.000000 0.357844 0.530858
O O1 0.250000 0.415661 0.750000
O O2 0.088403 0.415197 0.846554
O O3 0.248848 0.437603 0.974841
O O4 0.194668 0.341669 0.914134
O O5 0.822109 0.070662 0.813189
O O6 0.777942 0.155075 0.643049
O O7 0.000000 0.140875 0.176615
O O8 0.000000 0.180246 0.392896
O O9 0.088893 0.891252 0.007752
O O10 0.116478 0.000000 0.000000
O O11 0.408032 0.715795 0.566493
O O12 0.500000 0.795084 0.472949
O O13 0.250000 0.750000 0.000000
#
# Coordination Sequence:
#
# PCOD9479378 Si02
#       7
#    16   8   8  16   8  16   8
#     4  10  20  39  62  90 123 162 211 261 309 385
#     4  10  24  42  60  92 132 166 218 266 314 390
#     4  10  22  37  64  94 129 163 207 256 308 387
#     4  11  25  43  66  91 122 170 217 273 331 365
#     4  10  22  37  60  95 126 171 203 246 323 389
#     4  10  22  37  60  91 128 170 205 249 322 386
#     4  12  23  40  61  99 125 162 220 264 317 390
#
# _framework density 20.464133
#
# number of rings (size 3 to 8) (size 9 to 14) (size 15 to 20)
#    0.000    1.600    2.000    2.700    2.800    4.000 
#    0.000    1.500    0.000    0.000    0.000    0.000 
#    0.000    0.000    0.000    0.000    0.000    0.000 
#
# Total GULP energy -222872.520649 kJ/mol
# GULP energy per Si atom -5571.813016 kJ/mol
# Density = 2.041756 g / cm^3
# Si number density = 20.464133 Si / 1000 Ang^3
#
#
#
# Elastic Constant Matrix: (Units=GPa)
#
#
# Indices 1 2 3 4 5 6 
#
# 1 117.6515 21.8286 22.3460 0.0000 0.0000 0.0000
# 2 21.8286 80.9322 4.4237 0.0000 0.0000 0.0000
# 3 22.3460 4.4237 74.5019 0.0000 0.0000 0.0000
# 4 0.0000 0.0000 0.0000 15.0260 0.0000 0.0000
# 5 0.0000 0.0000 0.0000 0.0000 13.0223 0.0000
# 6 0.0000 0.0000 0.0000 0.0000 0.0000 3.9693
#
#
#
# Elastic Compliance Matrix: (Units=1/GPa)
#
#
# Indices 1 2 3 4 5 6 
#
# 1 0.009457 -0.002404 -0.002694 0.000000 0.000000 0.000000
# 2 -0.002404 0.013007 -0.000051 0.000000 0.000000 0.000000
# 3 -0.002694 -0.000051 0.014234 0.000000 0.000000 0.000000
# 4 0.000000 0.000000 0.000000 0.066551 0.000000 0.000000
# 5 0.000000 0.000000 0.000000 0.000000 0.076791 0.000000
# 6 0.000000 0.000000 0.000000 0.000000 0.000000 0.251931
#
#
# Mechanical properties :
#
#
# Convention : Reuss Voigt Hill
#
# Bulk Modulus (GPa) = 37.87842 41.14248 39.51045
# Shear Modulus (GPa) = 11.08477 21.36935 16.22706
#
# Velocity S-wave (km/s) = 2.32990 3.23497 2.81899
# Velocity P-wave (km/s) = 5.07817 5.83966 5.47218
#
# Compressibility (1/GPa) = 0.02640025
#
# Stress axis : x y z
#
# Youngs Moduli (GPa) = 105.73863 76.88114 70.25664
#
# Poissons Ratio (x) = 0.18479 0.18926
# Poissons Ratio (y) = 0.25415 0.00361
# Poissons Ratio (z) = 0.28485 0.00395
#
# Static dielectric constant tensor:
#      x y z
#    x 1.769100 0.000000 0.000000 
#    y 0.000000 1.750270 0.000000 
#    z 0.000000 0.000000 1.741990 
# 
# From -- ./inp_files/15985.got.cif
#   From: 2010.05.17/outbox.cif.g08.bks.cpg/sg64_8_cif.got.tgz:15985.got - 2010.06.03 16:29:19.
