data_PCOD9479303
_publ_section_title
;
Structure prediction by ZEFSAII (Michael W. Deem and Ramdas Pophale) SiO2 
 PCOD9479303
Probable space group: C M C A
;
_chemical_formula_sum "Si O2"
_cell_formula_units_Z 104
_cell_length_a 21.738107
_cell_length_b 9.379889
_cell_length_c 29.382404
_cell_angle_alpha 90.000000
_cell_angle_beta 90.000000
_cell_angle_gamma 90.000000
_cell_volume 5991.102461
_symmetry_space_group_name_H-M "C M C A"
_symmetry_group_IT_number 64
_symmetry_cell_setting 'orthorhombic'
loop_
_space_group_symop_operation_xyz
x,y,z
-x,1/2-y,1/2+z
x,-y,-z
-x,1/2+y,1/2-z
-x,-y,-z
x,1/2+y,1/2-z
-x,y,z
x,1/2-y,1/2+z
1/2+x,1/2+y,z
1/2-x,-y,1/2+z
1/2+x,1/2-y,-z
1/2-x,y,1/2-z
1/2-x,1/2-y,-z
1/2+x,y,1/2-z
1/2-x,1/2+y,z
1/2+x,-y,1/2+z
loop_
_atom_site_type_symbol
_atom_site_label
_atom_site_fract_x
_atom_site_fract_y
_atom_site_fract_z
Si Si1 0.796776 0.344227 0.389338
Si Si2 0.500000 0.428385 0.925996
Si Si3 0.000000 0.269988 0.478763
Si Si4 0.317855 0.156382 0.952658
Si Si5 0.129774 0.360081 0.950703
Si Si6 0.129654 0.129311 0.115761
Si Si7 0.202701 0.739978 0.811276
Si Si8 0.750000 0.492873 0.750000
O O1 0.747429 0.376902 0.429497
O O2 0.845987 0.234279 0.409413
O O3 0.831378 0.487137 0.375291
O O4 0.758197 0.279094 0.347708
O O5 0.500000 0.584763 0.949010
O O6 0.560121 0.406525 0.895678
O O7 0.500000 0.318304 0.968541
O O8 0.937913 0.184623 0.466815
O O9 0.341979 0.299304 0.929503
O O10 0.363390 0.026367 0.939927
O O11 0.323230 0.165555 0.006894
O O12 0.143014 0.236876 0.157298
O O13 0.213396 0.882898 0.782145
O O14 0.292684 0.600767 0.720674
#
# Coordination Sequence:
#
# PCOD9479303 Si02
#       8
#    16   8   8  16  16  16  16   8
#     4  11  21  36  55  84 120 147 191 236 294 353
#     4  11  22  39  56  79 112 168 208 251 273 334
#     4  11  22  38  55  74 111 169 227 236 278 323
#     4  10  22  34  52  80 113 154 195 251 300 322
#     4  11  22  36  52  77 115 160 205 247 279 336
#     4  11  21  37  59  83 117 154 199 243 280 348
#     4  10  21  37  60  95 113 149 174 235 297 366
#     4  10  20  38  64  88 124 136 176 228 308 366
#
# _framework density 17.359075000000001
#
# number of rings (size 3 to 8) (size 9 to 14) (size 15 to 20)
#    0.000    1.385    4.615    2.308    2.154    3.692 
#    0.000    0.000    0.000    0.923    0.000    0.000 
#    0.000    0.000    0.000    0.000    0.000    0.000 
#
# Total GULP energy -290162.787748 kJ/mol
# GULP energy per Si atom -5580.053611 kJ/mol
# Density = 1.731957 g / cm^3
# Si number density = 17.359075 Si / 1000 Ang^3
#
#
#
# Elastic Constant Matrix: (Units=GPa)
#
#
# Indices 1 2 3 4 5 6 
#
# 1 98.6412 17.4036 25.7790 0.0000 0.0000 0.0000
# 2 17.4036 82.4981 25.3238 0.0000 0.0000 0.0000
# 3 25.7790 25.3238 75.3979 0.0000 0.0000 0.0000
# 4 0.0000 0.0000 0.0000 31.7641 0.0000 0.0000
# 5 0.0000 0.0000 0.0000 0.0000 5.9409 0.0000
# 6 0.0000 0.0000 0.0000 0.0000 0.0000 24.4738
#
#
#
# Elastic Compliance Matrix: (Units=1/GPa)
#
#
# Indices 1 2 3 4 5 6 
#
# 1 0.011262 -0.001331 -0.003403 0.000000 0.000000 0.000000
# 2 -0.001331 0.013672 -0.004137 0.000000 0.000000 0.000000
# 3 -0.003403 -0.004137 0.015816 0.000000 0.000000 0.000000
# 4 0.000000 0.000000 0.000000 0.031482 0.000000 0.000000
# 5 0.000000 0.000000 0.000000 0.000000 0.168324 0.000000
# 6 0.000000 0.000000 0.000000 0.000000 0.000000 0.040860
#
#
# Mechanical properties :
#
#
# Convention : Reuss Voigt Hill
#
# Bulk Modulus (GPa) = 43.46446 43.72779 43.59612
# Shear Modulus (GPa) = 16.29576 24.97115 20.63345
#
# Velocity S-wave (km/s) = 3.06722 3.79688 3.45139
# Velocity P-wave (km/s) = 6.13487 6.66833 6.40715
#
# Compressibility (1/GPa) = 0.02300730
#
# Stress axis : x y z
#
# Youngs Moduli (GPa) = 88.79365 73.14120 63.22667
#
# Poissons Ratio (x) = 0.09736 0.21519
# Poissons Ratio (y) = 0.11819 0.26157
# Poissons Ratio (z) = 0.30221 0.30258
#
# Static dielectric constant tensor:
#      x y z
#    x 1.566320 0.000000 0.000000 
#    y 0.000000 1.610770 0.000000 
#    z 0.000000 0.000000 1.598300 
# 
# From -- ./inp_files/53793.got.cif
#   From: 2010.05.17/outbox.cif.g08.bks.cpg/sg64_27_cif.got.tgz:53793.got - 2010.06.03 16:29:19.
