data_PCOD9479122
_publ_section_title
;
Structure prediction by ZEFSAII (Michael W. Deem and Ramdas Pophale) SiO2 
 PCOD9479122
Probable space group: C M C A
;
_chemical_formula_sum "Si O2"
_cell_formula_units_Z 96
_cell_length_a 18.485123
_cell_length_b 13.835580
_cell_length_c 19.878462
_cell_angle_alpha 90.000000
_cell_angle_beta 90.000000
_cell_angle_gamma 90.000000
_cell_volume 5083.964327
_symmetry_space_group_name_H-M "C M C A"
_symmetry_group_IT_number 64
_symmetry_cell_setting 'orthorhombic'
loop_
_space_group_symop_operation_xyz
x,y,z
-x,1/2-y,1/2+z
x,-y,-z
-x,1/2+y,1/2-z
-x,-y,-z
x,1/2+y,1/2-z
-x,y,z
x,1/2-y,1/2+z
1/2+x,1/2+y,z
1/2-x,-y,1/2+z
1/2+x,1/2-y,-z
1/2-x,y,1/2-z
1/2-x,1/2-y,-z
1/2+x,y,1/2-z
1/2-x,1/2+y,z
1/2+x,-y,1/2+z
loop_
_atom_site_type_symbol
_atom_site_label
_atom_site_fract_x
_atom_site_fract_y
_atom_site_fract_z
Si Si1 0.259359 0.787165 0.424362
Si Si2 0.584138 0.503645 0.220225
Si Si3 0.786284 0.118884 0.176866
Si Si4 0.582527 0.415398 0.636359
Si Si5 0.414408 0.810769 0.364001
Si Si6 0.791006 0.988608 0.426070
O O1 0.250000 0.750000 0.500000
O O2 0.235954 0.708483 0.369307
O O3 0.343713 0.818313 0.412558
O O4 0.204404 0.875560 0.415446
O O5 0.500000 0.523646 0.209994
O O6 0.631039 0.587961 0.186179
O O7 0.598585 0.516391 0.299690
O O8 0.597500 0.395857 0.191006
O O9 0.750000 0.127912 0.250000
O O10 0.755006 0.029020 0.135243
O O11 0.500000 0.428780 0.615797
O O12 0.590572 0.302596 0.657395
O O13 0.636698 0.447431 0.577990
O O14 0.500000 0.822430 0.387051
O O15 0.756956 0.000000 0.500000
#
# Coordination Sequence:
#
# PCOD9479122 Si02
#       6
#    16  16  16  16  16  16
#     4  12  24  41  65  92 127 168 214 265 318 377
#     4  10  21  38  61  92 129 166 205 263 321 372
#     4  12  23  40  64  96 126 164 215 259 316 379
#     4  10  21  39  60  90 127 164 211 261 316 379
#     4  10  20  37  62  89 122 165 209 257 319 376
#     4  12  23  40  64  91 128 165 212 266 319 375
#
# _framework density 18.882902000000001
#
# number of rings (size 3 to 8) (size 9 to 14) (size 15 to 20)
#    0.000    1.000    6.667    0.000    0.000    3.667 
#    0.000    4.167    0.000    3.000    0.000    0.000 
#    0.000    0.000    0.000    0.000    0.000    0.000 
#
# Total GULP energy -267267.910484 kJ/mol
# GULP energy per Si atom -5568.081468 kJ/mol
# Density = 1.883992 g / cm^3
# Si number density = 18.882902 Si / 1000 Ang^3
#
#
#
# Elastic Constant Matrix: (Units=GPa)
#
#
# Indices 1 2 3 4 5 6 
#
# 1 75.4242 22.0529 23.6829 0.0000 0.0000 0.0000
# 2 22.0529 94.8995 39.3459 0.0000 0.0000 0.0000
# 3 23.6829 39.3459 108.8035 0.0000 0.0000 0.0000
# 4 0.0000 0.0000 0.0000 26.2913 0.0000 0.0000
# 5 0.0000 0.0000 0.0000 0.0000 15.9691 0.0000
# 6 0.0000 0.0000 0.0000 0.0000 0.0000 30.8350
#
#
#
# Elastic Compliance Matrix: (Units=1/GPa)
#
#
# Indices 1 2 3 4 5 6 
#
# 1 0.014703 -0.002458 -0.002311 0.000000 0.000000 0.000000
# 2 -0.002458 0.012807 -0.004096 0.000000 0.000000 0.000000
# 3 -0.002311 -0.004096 0.011175 0.000000 0.000000 0.000000
# 4 0.000000 0.000000 0.000000 0.038035 0.000000 0.000000
# 5 0.000000 0.000000 0.000000 0.000000 0.062621 0.000000
# 6 0.000000 0.000000 0.000000 0.000000 0.000000 0.032431
#
#
# Mechanical properties :
#
#
# Convention : Reuss Voigt Hill
#
# Bulk Modulus (GPa) = 47.72507 49.92119 48.82313
# Shear Modulus (GPa) = 25.44677 27.55544 26.50111
#
# Velocity S-wave (km/s) = 3.67496 3.82420 3.75032
# Velocity P-wave (km/s) = 6.58303 6.78188 6.68319
#
# Compressibility (1/GPa) = 0.02095335
#
# Stress axis : x y z
#
# Youngs Moduli (GPa) = 68.01383 78.08181 89.48330
#
# Poissons Ratio (x) = 0.19196 0.20682
# Poissons Ratio (y) = 0.16721 0.36654
# Poissons Ratio (z) = 0.15720 0.31984
#
# Static dielectric constant tensor:
#      x y z
#    x 1.705380 0.000000 0.000000 
#    y 0.000000 1.661210 0.000000 
#    z 0.000000 0.000000 1.656210 
# 
# From -- ./inp_files/40865.got.cif
#   From: 2010.05.17/outbox.cif.g08.bks.cpg/sg64_21_cif.got.tgz:40865.got - 2010.06.03 16:29:19.
