data_PCOD9479011
_publ_section_title
;
Structure prediction by ZEFSAII (Michael W. Deem and Ramdas Pophale) SiO2 
 PCOD9479011
Probable space group: C M C A
;
_chemical_formula_sum "Si O2"
_cell_formula_units_Z 88
_cell_length_a 12.806611
_cell_length_b 18.892785
_cell_length_c 16.037542
_cell_angle_alpha 90.000000
_cell_angle_beta 90.000000
_cell_angle_gamma 90.000000
_cell_volume 3880.324154
_symmetry_space_group_name_H-M "C M C A"
_symmetry_group_IT_number 64
_symmetry_cell_setting 'orthorhombic'
loop_
_space_group_symop_operation_xyz
x,y,z
-x,1/2-y,1/2+z
x,-y,-z
-x,1/2+y,1/2-z
-x,-y,-z
x,1/2+y,1/2-z
-x,y,z
x,1/2-y,1/2+z
1/2+x,1/2+y,z
1/2-x,-y,1/2+z
1/2+x,1/2-y,-z
1/2-x,y,1/2-z
1/2-x,1/2-y,-z
1/2+x,y,1/2-z
1/2-x,1/2+y,z
1/2+x,-y,1/2+z
loop_
_atom_site_type_symbol
_atom_site_label
_atom_site_fract_x
_atom_site_fract_y
_atom_site_fract_z
Si Si1 0.500000 0.165414 0.226411
Si Si2 0.187016 0.193460 0.384883
Si Si3 0.000000 0.079902 0.111263
Si Si4 0.297842 0.081995 0.830578
Si Si5 0.221952 0.043309 0.077636
Si Si6 0.000000 0.996404 0.722224
Si Si7 0.123126 0.712358 0.928113
O O1 0.395809 0.202069 0.190110
O O2 0.500000 0.146856 0.324991
O O3 0.500000 0.084696 0.189425
O O4 0.212676 0.110101 0.392511
O O5 0.135239 0.219361 0.471832
O O6 0.299159 0.232165 0.383307
O O7 0.894027 0.073035 0.059822
O O8 0.000000 0.016406 0.178619
O O9 0.250000 0.120200 0.750000
O O10 0.401770 0.040037 0.807957
O O11 0.326212 0.137512 0.901618
O O12 0.219403 0.018930 0.854657
O O13 0.266976 0.000000 0.000000
O O14 0.000000 0.713780 0.906824
#
# Coordination Sequence:
#
# PCOD9479011 Si02
#       7
#     8  16   8  16  16   8  16
#     4  10  20  42  69  98 130 171 226 279 338 395
#     4  11  24  42  67 102 129 178 227 278 337 404
#     4  10  23  40  61 101 138 177 209 288 340 393
#     4  12  22  42  66  99 132 167 222 280 335 396
#     4  12  23  40  67  99 134 173 229 278 340 402
#     4  10  20  36  68  94 128 163 208 282 331 385
#     4  11  25  45  67  94 140 178 222 276 339 407
#
# _framework density 22.678516999999999
#
# number of rings (size 3 to 8) (size 9 to 14) (size 15 to 20)
#    0.545    0.364    7.273    0.273    1.273    0.000 
#    3.273    4.545    0.000    0.000    0.000    0.000 
#    0.000    0.000    0.000    0.000    0.000    0.000 
#
# Total GULP energy -245550.720976 kJ/mol
# GULP energy per Si atom -5580.698204 kJ/mol
# Density = 2.262690 g / cm^3
# Si number density = 22.678517 Si / 1000 Ang^3
#
#
#
# Elastic Constant Matrix: (Units=GPa)
#
#
# Indices 1 2 3 4 5 6 
#
# 1 129.6831 33.6650 -4.2855 0.0000 0.0000 0.0000
# 2 33.6650 88.3522 11.9510 0.0000 0.0000 0.0000
# 3 -4.2855 11.9510 28.6090 0.0000 0.0000 0.0000
# 4 0.0000 0.0000 0.0000 21.6971 0.0000 0.0000
# 5 0.0000 0.0000 0.0000 0.0000 26.7884 0.0000
# 6 0.0000 0.0000 0.0000 0.0000 0.0000 28.3207
#
#
#
# Elastic Compliance Matrix: (Units=1/GPa)
#
#
# Indices 1 2 3 4 5 6 
#
# 1 0.008775 -0.003732 0.002874 0.000000 0.000000 0.000000
# 2 -0.003732 0.013584 -0.006233 0.000000 0.000000 0.000000
# 3 0.002874 -0.006233 0.037988 0.000000 0.000000 0.000000
# 4 0.000000 0.000000 0.000000 0.046089 0.000000 0.000000
# 5 0.000000 0.000000 0.000000 0.000000 0.037330 0.000000
# 6 0.000000 0.000000 0.000000 0.000000 0.000000 0.035310
#
#
# Mechanical properties :
#
#
# Convention : Reuss Voigt Hill
#
# Bulk Modulus (GPa) = 21.66249 36.58947 29.12598
# Shear Modulus (GPa) = 23.96388 29.04883 26.50636
#
# Velocity S-wave (km/s) = 3.25418 3.58284 3.42246
# Velocity P-wave (km/s) = 4.86748 5.76929 5.33746
#
# Compressibility (1/GPa) = 0.04616274
#
# Stress axis : x y z
#
# Youngs Moduli (GPa) = 113.96108 73.61821 26.32381
#
# Poissons Ratio (x) = 0.27476 -0.07564
# Poissons Ratio (y) = 0.42533 0.16409
# Poissons Ratio (z) = -0.32747 0.45889
#
# Static dielectric constant tensor:
#      x y z
#    x 1.850460 0.000000 0.000000 
#    y 0.000000 1.844360 0.000000 
#    z 0.000000 0.000000 1.931790 
# 
# From -- ./inp_files/38132.got.cif
#   From: 2010.05.17/outbox.cif.g08.bks.cpg/sg64_20_cif.got.tgz:38132.got - 2010.06.03 16:29:19.
