data_PCOD9479915
_publ_section_title
;
Structure prediction by ZEFSAII (Michael W. Deem and Ramdas Pophale) SiO2 
 PCOD9479915
Probable space group: C M C A
;
_chemical_formula_sum "Si O2"
_cell_formula_units_Z 72
_cell_length_a 9.412093
_cell_length_b 23.741369
_cell_length_c 13.885567
_cell_angle_alpha 90.000000
_cell_angle_beta 90.000000
_cell_angle_gamma 90.000000
_cell_volume 3102.812884
_symmetry_space_group_name_H-M "C M C A"
_symmetry_group_IT_number 64
_symmetry_cell_setting 'orthorhombic'
loop_
_space_group_symop_operation_xyz
x,y,z
-x,1/2-y,1/2+z
x,-y,-z
-x,1/2+y,1/2-z
-x,-y,-z
x,1/2+y,1/2-z
-x,y,z
x,1/2-y,1/2+z
1/2+x,1/2+y,z
1/2-x,-y,1/2+z
1/2+x,1/2-y,-z
1/2-x,y,1/2-z
1/2-x,1/2-y,-z
1/2+x,y,1/2-z
1/2-x,1/2+y,z
1/2+x,-y,1/2+z
loop_
_atom_site_type_symbol
_atom_site_label
_atom_site_fract_x
_atom_site_fract_y
_atom_site_fract_z
Si Si1 0.335943 0.478282 0.654888
Si Si2 0.166610 0.614711 0.846398
Si Si3 0.500000 0.772623 0.005789
Si Si4 0.836272 0.104817 0.033737
Si Si5 0.767589 0.784787 0.863190
O O1 0.500000 0.459773 0.656233
O O2 0.250000 0.461655 0.750000
O O3 0.335074 0.546064 0.652724
O O4 0.253604 0.448494 0.568616
O O5 0.250000 0.632473 0.750000
O O6 0.000000 0.631595 0.854205
O O7 0.260686 0.629344 0.938901
O O8 0.622314 0.780979 0.922089
O O9 0.377019 0.757106 0.086328
O O10 0.827352 0.152412 0.115122
O O11 0.000000 0.090777 0.013269
O O12 0.750000 0.775278 0.750000
#
# Coordination Sequence:
#
# PCOD9479915 Si02
#       5
#    16  16   8  16  16
#     4  10  21  37  60  92 130 176 224 270 330 391
#     4  10  22  41  61  87 131 182 227 274 329 391
#     4  10  24  46  72 100 134 172 214 262 346 416
#     4  12  24  38  63  98 133 168 225 274 329 393
#     4  11  24  46  74 102 136 170 215 277 336 407
#
# _framework density 23.204751000000002
#
# number of rings (size 3 to 8) (size 9 to 14) (size 15 to 20)
#    0.000    1.333    1.111    4.000    3.111    5.333 
#    0.000    6.667    0.000    0.000    0.000    0.000 
#    0.000    0.000    0.000    0.000    0.000    0.000 
#
# Total GULP energy -200521.253304 kJ/mol
# GULP energy per Si atom -5570.034814 kJ/mol
# Density = 2.315194 g / cm^3
# Si number density = 23.204751 Si / 1000 Ang^3
#
#
#
# Elastic Constant Matrix: (Units=GPa)
#
#
# Indices 1 2 3 4 5 6 
#
# 1 237.4905 28.8135 48.7712 0.0000 0.0000 0.0000
# 2 28.8135 69.3091 12.8940 0.0000 0.0000 0.0000
# 3 48.7712 12.8940 156.0101 0.0000 0.0000 0.0000
# 4 0.0000 0.0000 0.0000 146.8170 0.0000 0.0000
# 5 0.0000 0.0000 0.0000 0.0000 27.0537 0.0000
# 6 0.0000 0.0000 0.0000 0.0000 0.0000 -43.7478
#
#
#
# Elastic Compliance Matrix: (Units=1/GPa)
#
#
# Indices 1 2 3 4 5 6 
#
# 1 0.004689 -0.001703 -0.001325 0.000000 0.000000 0.000000
# 2 -0.001703 0.015272 -0.000730 0.000000 0.000000 0.000000
# 3 -0.001325 -0.000730 0.006884 0.000000 0.000000 0.000000
# 4 0.000000 0.000000 0.000000 0.006811 0.000000 0.000000
# 5 0.000000 0.000000 0.000000 0.000000 0.036964 0.000000
# 6 0.000000 0.000000 0.000000 0.000000 0.000000 -0.022858
#
#
# Mechanical properties :
#
#
# Convention : Reuss Voigt Hill
#
# Bulk Modulus (GPa) = 51.73389 71.52967 61.63178
# Shear Modulus (GPa) = 81.00888 50.84662 65.92775
#
# Velocity S-wave (km/s) = 5.91492 4.68612 5.33601
# Velocity P-wave (km/s) = 8.30610 7.75706 8.03627
#
# Compressibility (1/GPa) = 0.01932969
#
# Stress axis : x y z
#
# Youngs Moduli (GPa) = 213.24410 65.47985 145.25481
#
# Poissons Ratio (x) = 0.11151 0.19250
# Poissons Ratio (y) = 0.36315 0.10601
# Poissons Ratio (z) = 0.28260 0.04779
#
# Static dielectric constant tensor:
#      x y z
#    x 1.787200 0.000000 0.000000 
#    y 0.000000 1.973370 0.000000 
#    z 0.000000 0.000000 1.865590 
# 
# From -- ./inp_files/21158.got.cif
#   From: 2010.05.17/outbox.cif.g08.bks.cpg/sg64_11_cif.got.tgz:21158.got - 2010.06.03 16:29:19.
