data_PCOD9479926
_publ_section_title
;
Structure prediction by ZEFSAII (Michael W. Deem and Ramdas Pophale) SiO2 
 PCOD9479926
Probable space group: C M C A
;
_chemical_formula_sum "Si O2"
_cell_formula_units_Z 96
_cell_length_a 16.673375
_cell_length_b 11.050264
_cell_length_c 25.969379
_cell_angle_alpha 90.000000
_cell_angle_beta 90.000000
_cell_angle_gamma 90.000000
_cell_volume 4784.733311
_symmetry_space_group_name_H-M "C M C A"
_symmetry_group_IT_number 64
_symmetry_cell_setting 'orthorhombic'
loop_
_space_group_symop_operation_xyz
x,y,z
-x,1/2-y,1/2+z
x,-y,-z
-x,1/2+y,1/2-z
-x,-y,-z
x,1/2+y,1/2-z
-x,y,z
x,1/2-y,1/2+z
1/2+x,1/2+y,z
1/2-x,-y,1/2+z
1/2+x,1/2-y,-z
1/2-x,y,1/2-z
1/2-x,1/2-y,-z
1/2+x,y,1/2-z
1/2-x,1/2+y,z
1/2+x,-y,1/2+z
loop_
_atom_site_type_symbol
_atom_site_label
_atom_site_fract_x
_atom_site_fract_y
_atom_site_fract_z
Si Si1 0.087615 0.650712 0.852439
Si Si2 0.697253 0.779851 0.900529
Si Si3 0.091170 0.584515 0.549293
Si Si4 0.243469 0.602989 0.690113
Si Si5 0.407462 0.511978 0.443021
Si Si6 0.148163 0.095633 0.132101
O O1 0.164345 0.590362 0.827045
O O2 0.093503 0.614336 0.912608
O O3 0.097801 0.793713 0.845788
O O4 0.000000 0.609732 0.834401
O O5 0.661642 0.682210 0.940966
O O6 0.704818 0.708261 0.846035
O O7 0.636671 0.890709 0.907584
O O8 0.784657 0.840968 0.904645
O O9 0.104221 0.500000 0.500000
O O10 0.096894 0.496367 0.598478
O O11 0.000000 0.636036 0.545939
O O12 0.250000 0.631671 0.750000
O O13 0.195228 0.481843 0.675158
O O14 0.371478 0.500000 0.500000
O O15 0.500000 0.549570 0.448830
#
# Coordination Sequence:
#
# PCOD9479926 Si02
#       6
#    16  16  16  16  16  16
#     4  10  21  40  61  90 125 157 205 255 305 372
#     4  10  21  39  60  90 118 158 211 254 301 368
#     4  10  22  37  56  84 120 161 199 242 298 359
#     4  10  22  43  67  86 119 161 206 263 325 369
#     4  10  21  37  61  91 129 172 207 251 309 374
#     4  10  21  38  59  86 116 158 195 252 309 362
#
# _framework density 20.063814000000001
#
# number of rings (size 3 to 8) (size 9 to 14) (size 15 to 20)
#    0.000    2.000    1.667    1.000    2.333    4.000 
#    0.000    5.000    0.000    0.000    0.000    0.000 
#    0.000    0.000    0.000    0.000    0.000    0.000 
#
# Total GULP energy -267454.397435 kJ/mol
# GULP energy per Si atom -5571.966613 kJ/mol
# Density = 2.001815 g / cm^3
# Si number density = 20.063814 Si / 1000 Ang^3
#
#
#
# Elastic Constant Matrix: (Units=GPa)
#
#
# Indices 1 2 3 4 5 6 
#
# 1 86.5951 18.3299 42.7971 0.0000 0.0000 0.0000
# 2 18.3299 80.3228 18.3065 0.0000 0.0000 0.0000
# 3 42.7971 18.3065 84.2416 0.0000 0.0000 0.0000
# 4 0.0000 0.0000 0.0000 14.8666 0.0000 0.0000
# 5 0.0000 0.0000 0.0000 0.0000 5.9861 0.0000
# 6 0.0000 0.0000 0.0000 0.0000 0.0000 17.1131
#
#
#
# Elastic Compliance Matrix: (Units=1/GPa)
#
#
# Indices 1 2 3 4 5 6 
#
# 1 0.015678 -0.001854 -0.007562 0.000000 0.000000 0.000000
# 2 -0.001854 0.013318 -0.001952 0.000000 0.000000 0.000000
# 3 -0.007562 -0.001952 0.016136 0.000000 0.000000 0.000000
# 4 0.000000 0.000000 0.000000 0.067265 0.000000 0.000000
# 5 0.000000 0.000000 0.000000 0.000000 0.167052 0.000000
# 6 0.000000 0.000000 0.000000 0.000000 0.000000 0.058435
#
#
# Mechanical properties :
#
#
# Convention : Reuss Voigt Hill
#
# Bulk Modulus (GPa) = 44.65142 45.55851 45.10496
# Shear Modulus (GPa) = 13.58380 19.04157 16.31268
#
# Velocity S-wave (km/s) = 2.60480 3.08401 2.85448
# Velocity P-wave (km/s) = 5.59908 5.95295 5.77872
#
# Compressibility (1/GPa) = 0.02239571
#
# Stress axis : x y z
#
# Youngs Moduli (GPa) = 63.78502 75.08742 61.97169
#
# Poissons Ratio (x) = 0.13923 0.46861
# Poissons Ratio (y) = 0.11828 0.12097
# Poissons Ratio (z) = 0.48233 0.14658
#
# Static dielectric constant tensor:
#      x y z
#    x 1.729370 0.000000 0.000000 
#    y 0.000000 1.740980 0.000000 
#    z 0.000000 0.000000 1.727710 
# 
# From -- ./inp_files/45730.got.cif
#   From: 2010.05.17/outbox.cif.g08.bks.cpg/sg64_23_cif.got.tgz:45730.got - 2010.06.03 16:29:19.
