data_PCOD9479516
_publ_section_title
;
Structure prediction by ZEFSAII (Michael W. Deem and Ramdas Pophale) SiO2 
 PCOD9479516
Probable space group: C M C A
;
_chemical_formula_sum "Si O2"
_cell_formula_units_Z 64
_cell_length_a 20.884519
_cell_length_b 9.582373
_cell_length_c 13.677011
_cell_angle_alpha 90.000000
_cell_angle_beta 90.000000
_cell_angle_gamma 90.000000
_cell_volume 2737.087905
_symmetry_space_group_name_H-M "C M C A"
_symmetry_group_IT_number 64
_symmetry_cell_setting 'orthorhombic'
loop_
_space_group_symop_operation_xyz
x,y,z
-x,1/2-y,1/2+z
x,-y,-z
-x,1/2+y,1/2-z
-x,-y,-z
x,1/2+y,1/2-z
-x,y,z
x,1/2-y,1/2+z
1/2+x,1/2+y,z
1/2-x,-y,1/2+z
1/2+x,1/2-y,-z
1/2-x,y,1/2-z
1/2-x,1/2-y,-z
1/2+x,y,1/2-z
1/2-x,1/2+y,z
1/2+x,-y,1/2+z
loop_
_atom_site_type_symbol
_atom_site_label
_atom_site_fract_x
_atom_site_fract_y
_atom_site_fract_z
Si Si1 0.000000 0.241992 0.957580
Si Si2 0.000000 0.048730 0.151876
Si Si3 0.909996 0.000000 0.500000
Si Si4 0.808615 0.907169 0.345669
Si Si5 0.643697 0.387578 0.812186
Si Si6 0.795630 0.500000 0.500000
O O1 0.943972 0.358224 0.960894
O O2 0.000000 0.117877 0.876255
O O3 0.000000 0.148856 0.056248
O O4 0.932329 0.086937 0.203514
O O5 0.868350 0.055459 0.587428
O O6 0.825541 0.762122 0.295964
O O7 0.815307 0.014326 0.257516
O O8 0.750035 0.915340 0.423752
O O9 0.658919 0.415669 0.926802
#
# Coordination Sequence:
#
# PCOD9479516 Si02
#       6
#     8   8   8  16  16   8
#     4  10  20  40  70 101 143 199 239 286 355 435
#     4  11  24  42  74 110 151 189 239 300 364 442
#     4  10  22  43  68 101 148 190 242 290 358 426
#     4  11  27  46  73 108 145 192 244 303 360 433
#     4  12  27  47  74 112 148 191 245 297 371 435
#     4  11  26  50  80 102 142 193 254 308 354 425
#
# _framework density 23.382515000000001
#
# number of rings (size 3 to 8) (size 9 to 14) (size 15 to 20)
#    0.000    1.000    2.500    3.000    3.500    9.000 
#    0.000    0.000    0.000    0.000    0.000    0.000 
#    0.000    0.000    0.000    0.000    0.000    0.000 
#
# Total GULP energy -178502.768212 kJ/mol
# GULP energy per Si atom -5578.211507 kJ/mol
# Density = 2.332930 g / cm^3
# Si number density = 23.382515 Si / 1000 Ang^3
#
#
#
# Elastic Constant Matrix: (Units=GPa)
#
#
# Indices 1 2 3 4 5 6 
#
# 1 153.7878 37.7990 32.7713 0.0000 0.0000 0.0000
# 2 37.7990 190.8732 38.3675 0.0000 0.0000 0.0000
# 3 32.7713 38.3675 86.6192 0.0000 0.0000 0.0000
# 4 0.0000 0.0000 0.0000 40.3954 0.0000 0.0000
# 5 0.0000 0.0000 0.0000 0.0000 24.2416 0.0000
# 6 0.0000 0.0000 0.0000 0.0000 0.0000 17.4042
#
#
#
# Elastic Compliance Matrix: (Units=1/GPa)
#
#
# Indices 1 2 3 4 5 6 
#
# 1 0.007232 -0.000968 -0.002307 0.000000 0.000000 0.000000
# 2 -0.000968 0.005881 -0.002238 0.000000 0.000000 0.000000
# 3 -0.002307 -0.002238 0.013409 0.000000 0.000000 0.000000
# 4 0.000000 0.000000 0.000000 0.024755 0.000000 0.000000
# 5 0.000000 0.000000 0.000000 0.000000 0.041251 0.000000
# 6 0.000000 0.000000 0.000000 0.000000 0.000000 0.057458
#
#
# Mechanical properties :
#
#
# Convention : Reuss Voigt Hill
#
# Bulk Modulus (GPa) = 64.54150 72.12843 68.33496
# Shear Modulus (GPa) = 30.08798 37.89773 33.99285
#
# Velocity S-wave (km/s) = 3.59105 4.03025 3.81697
# Velocity P-wave (km/s) = 6.69751 7.25061 6.97954
#
# Compressibility (1/GPa) = 0.01549391
#
# Stress axis : x y z
#
# Youngs Moduli (GPa) = 138.27144 170.04442 74.57550
#
# Poissons Ratio (x) = 0.16467 0.17206
# Poissons Ratio (y) = 0.13390 0.16694
# Poissons Ratio (z) = 0.31903 0.38064
#
# Static dielectric constant tensor:
#      x y z
#    x 1.946020 0.000000 0.000000 
#    y 0.000000 1.555380 0.000000 
#    z 0.000000 0.000000 1.917010 
# 
# From -- ./inp_files/26976.got.cif
#   From: 2010.05.17/outbox.cif.g08.bks.cpg/sg64_14_cif.got.tgz:26976.got - 2010.06.03 16:29:19.
