data_PCOD9479661
_publ_section_title
;
Structure prediction by ZEFSAII (Michael W. Deem and Ramdas Pophale) SiO2 
 PCOD9479661
Probable space group: C M C A
;
_chemical_formula_sum "Si O2"
_cell_formula_units_Z 96
_cell_length_a 14.427478
_cell_length_b 23.863864
_cell_length_c 11.237171
_cell_angle_alpha 90.000000
_cell_angle_beta 90.000000
_cell_angle_gamma 90.000000
_cell_volume 3868.905979
_symmetry_space_group_name_H-M "C M C A"
_symmetry_group_IT_number 64
_symmetry_cell_setting 'orthorhombic'
loop_
_space_group_symop_operation_xyz
x,y,z
-x,1/2-y,1/2+z
x,-y,-z
-x,1/2+y,1/2-z
-x,-y,-z
x,1/2+y,1/2-z
-x,y,z
x,1/2-y,1/2+z
1/2+x,1/2+y,z
1/2-x,-y,1/2+z
1/2+x,1/2-y,-z
1/2-x,y,1/2-z
1/2-x,1/2-y,-z
1/2+x,y,1/2-z
1/2-x,1/2+y,z
1/2+x,-y,1/2+z
loop_
_atom_site_type_symbol
_atom_site_label
_atom_site_fract_x
_atom_site_fract_y
_atom_site_fract_z
Si Si1 0.113745 0.981902 0.684869
Si Si2 0.113038 0.411958 0.311246
Si Si3 0.145997 0.822170 0.781095
Si Si4 0.112282 0.693235 0.825196
Si Si5 0.392205 0.576337 0.071645
Si Si6 0.895810 0.120007 0.459037
O O1 0.143749 0.954916 0.811331
O O2 0.146234 0.939775 0.581526
O O3 0.000000 0.979499 0.678148
O O4 0.140066 0.046445 0.703606
O O5 0.138904 0.348593 0.281239
O O6 0.147117 0.431661 0.440292
O O7 0.000000 0.413556 0.316148
O O8 0.250000 0.837864 0.750000
O O9 0.141870 0.756587 0.806142
O O10 0.112884 0.858283 0.893110
O O11 0.095667 0.844168 0.662643
O O12 0.000000 0.695741 0.831647
O O13 0.147327 0.661326 0.943751
O O14 0.500000 0.559433 0.065849
O O15 0.000000 0.106911 0.503481
#
# Coordination Sequence:
#
# PCOD9479661 Si02
#       6
#    16  16  16  16  16  16
#     4   8  14  28  52  83 112 133 166 219 274 325
#     4   9  17  29  52  86 113 135 173 222 274 332
#     4  11  23  37  54  76 107 147 192 234 274 321
#     4  10  21  35  53  79 110 146 183 224 277 333
#     4   9  17  32  55  83 109 141 179 226 279 329
#     4   9  19  36  57  81 110 142 177 224 280 335
#
# _framework density 24.813216000000001
#
# number of rings (size 3 to 8) (size 9 to 14) (size 15 to 20)
#    0.000    2.667    0.000    3.000    2.333    3.333 
#    0.000    3.333    0.000    4.000   17.333    0.000 
#    0.000    0.000    0.000    0.000    0.000    0.000 
#
# Total GULP energy -268171.678066 kJ/mol
# GULP energy per Si atom -5586.909960 kJ/mol
# Density = 2.475674 g / cm^3
# Si number density = 24.813216 Si / 1000 Ang^3
#
#
#
# Elastic Constant Matrix: (Units=GPa)
#
#
# Indices 1 2 3 4 5 6 
#
# 1 70.8945 -9.7191 4.7859 0.0000 0.0000 0.0000
# 2 -9.7191 143.8717 13.9762 0.0000 0.0000 0.0000
# 3 4.7859 13.9762 99.3441 0.0000 0.0000 0.0000
# 4 0.0000 0.0000 0.0000 32.8127 0.0000 0.0000
# 5 0.0000 0.0000 0.0000 0.0000 9.1140 0.0000
# 6 0.0000 0.0000 0.0000 0.0000 0.0000 -32.9325
#
#
#
# Elastic Compliance Matrix: (Units=1/GPa)
#
#
# Indices 1 2 3 4 5 6 
#
# 1 0.014306 0.001048 -0.000837 0.000000 0.000000 0.000000
# 2 0.001048 0.007124 -0.001053 0.000000 0.000000 0.000000
# 3 -0.000837 -0.001053 0.010254 0.000000 0.000000 0.000000
# 4 0.000000 0.000000 0.000000 0.030476 0.000000 0.000000
# 5 0.000000 0.000000 0.000000 0.000000 0.109721 0.000000
# 6 0.000000 0.000000 0.000000 0.000000 0.000000 -0.030365
#
#
# Mechanical properties :
#
#
# Convention : Reuss Voigt Hill
#
# Bulk Modulus (GPa) = 33.33273 36.91069 35.12171
# Shear Modulus (GPa) = 32.63726 22.13667 27.38696
#
# Velocity S-wave (km/s) = 3.63067 2.99010 3.32584
# Velocity P-wave (km/s) = 5.57120 5.17964 5.37898
#
# Compressibility (1/GPa) = 0.03000054
#
# Stress axis : x y z
#
# Youngs Moduli (GPa) = 69.90288 140.37710 97.51891
#
# Poissons Ratio (x) = -0.14707 0.08158
# Poissons Ratio (y) = -0.07323 0.10265
# Poissons Ratio (z) = 0.05848 0.14777
#
# Static dielectric constant tensor:
#      x y z
#    x 1.974620 0.000000 0.000000 
#    y 0.000000 1.946440 0.000000 
#    z 0.000000 0.000000 1.965470 
# 
# From -- ./inp_files/16186.got.cif
#   From: 2010.05.17/outbox.cif.g08.bks.cpg/sg64_9_cif.got.tgz:16186.got - 2010.06.03 16:29:19.
