data_PCOD9479238
_publ_section_title
;
Structure prediction by ZEFSAII (Michael W. Deem and Ramdas Pophale) SiO2 
 PCOD9479238
Probable space group: C M C A
;
_chemical_formula_sum "Si O2"
_cell_formula_units_Z 96
_cell_length_a 17.305437
_cell_length_b 11.113521
_cell_length_c 23.450588
_cell_angle_alpha 90.000000
_cell_angle_beta 90.000000
_cell_angle_gamma 90.000000
_cell_volume 4510.118801
_symmetry_space_group_name_H-M "C M C A"
_symmetry_group_IT_number 64
_symmetry_cell_setting 'orthorhombic'
loop_
_space_group_symop_operation_xyz
x,y,z
-x,1/2-y,1/2+z
x,-y,-z
-x,1/2+y,1/2-z
-x,-y,-z
x,1/2+y,1/2-z
-x,y,z
x,1/2-y,1/2+z
1/2+x,1/2+y,z
1/2-x,-y,1/2+z
1/2+x,1/2-y,-z
1/2-x,y,1/2-z
1/2-x,1/2-y,-z
1/2+x,y,1/2-z
1/2-x,1/2+y,z
1/2+x,-y,1/2+z
loop_
_atom_site_type_symbol
_atom_site_label
_atom_site_fract_x
_atom_site_fract_y
_atom_site_fract_z
Si Si1 0.413825 0.957076 0.414630
Si Si2 0.853546 0.104879 0.383207
Si Si3 0.669373 0.852494 0.178713
Si Si4 0.816935 0.315314 0.580704
Si Si5 0.144659 0.670548 0.692869
Si Si6 0.085905 0.711059 0.012446
O O1 0.500000 0.004877 0.421603
O O2 0.396061 0.923195 0.349216
O O3 0.408293 0.834220 0.450304
O O4 0.354887 0.057853 0.433918
O O5 0.772495 0.157913 0.407762
O O6 0.876534 0.199249 0.333477
O O7 0.906124 0.109081 0.439394
O O8 0.846824 0.975102 0.355081
O O9 0.649703 0.738651 0.139448
O O10 0.762648 0.846917 0.186400
O O11 0.629861 0.845492 0.240350
O O12 0.844612 0.220991 0.532728
O O13 0.000000 0.706968 0.986134
#
# Coordination Sequence:
#
# PCOD9479238 Si02
#       6
#    16  16  16  16  16  16
#     4  10  20  38  61  86 116 155 201 244 287 340
#     4  10  21  38  59  89 120 151 196 243 295 349
#     4  10  21  35  60  90 116 151 194 244 295 347
#     4  11  21  36  59  92 117 153 201 242 290 348
#     4   9  20  36  59  85 116 153 191 241 294 345
#     4  10  22  41  61  83 120 162 197 241 295 349
#
# _framework density 21.28547
#
# number of rings (size 3 to 8) (size 9 to 14) (size 15 to 20)
#    0.000    2.000    1.667    1.500    2.333    3.333 
#    3.000    5.000    0.000    0.000    0.000    0.000 
#    0.000    0.000    0.000    0.000    0.000    0.000 
#
# Total GULP energy -267961.756209 kJ/mol
# GULP energy per Si atom -5582.536588 kJ/mol
# Density = 2.123702 g / cm^3
# Si number density = 21.285470 Si / 1000 Ang^3
#
#
#
# Elastic Constant Matrix: (Units=GPa)
#
#
# Indices 1 2 3 4 5 6 
#
# 1 34.5615 -7.8746 14.0697 0.0000 0.0000 0.0000
# 2 -7.8746 35.8654 -5.9828 0.0000 0.0000 0.0000
# 3 14.0697 -5.9828 99.7179 0.0000 0.0000 0.0000
# 4 0.0000 0.0000 0.0000 25.0554 0.0000 0.0000
# 5 0.0000 0.0000 0.0000 0.0000 3.9850 0.0000
# 6 0.0000 0.0000 0.0000 0.0000 0.0000 11.1520
#
#
#
# Elastic Compliance Matrix: (Units=1/GPa)
#
#
# Indices 1 2 3 4 5 6 
#
# 1 0.032067 0.006350 -0.004144 0.000000 0.000000 0.000000
# 2 0.006350 0.029421 0.000869 0.000000 0.000000 0.000000
# 3 -0.004144 0.000869 0.010665 0.000000 0.000000 0.000000
# 4 0.000000 0.000000 0.000000 0.039912 0.000000 0.000000
# 5 0.000000 0.000000 0.000000 0.000000 0.250943 0.000000
# 6 0.000000 0.000000 0.000000 0.000000 0.000000 0.089670
#
#
# Mechanical properties :
#
#
# Convention : Reuss Voigt Hill
#
# Bulk Modulus (GPa) = 12.77070 18.95214 15.86142
# Shear Modulus (GPa) = 10.57913 19.36731 14.97322
#
# Velocity S-wave (km/s) = 2.23179 3.01970 2.65514
# Velocity P-wave (km/s) = 3.55724 4.59143 4.10702
#
# Compressibility (1/GPa) = 0.07830423
#
# Stress axis : x y z
#
# Youngs Moduli (GPa) = 31.18423 33.98915 93.76388
#
# Poissons Ratio (x) = -0.21582 0.38852
# Poissons Ratio (y) = -0.19801 -0.08151
# Poissons Ratio (z) = 0.12922 -0.02955
#
# Static dielectric constant tensor:
#      x y z
#    x 1.770080 0.000000 0.000000 
#    y 0.000000 1.743730 0.000000 
#    z 0.000000 0.000000 1.793610 
# 
# From -- ./inp_files/40837.got.cif
#   From: 2010.05.17/outbox.cif.g08.bks.cpg/sg64_21_cif.got.tgz:40837.got - 2010.06.03 16:29:19.
