data_PCOD9479055
_publ_section_title
;
Structure prediction by ZEFSAII (Michael W. Deem and Ramdas Pophale) SiO2 
 PCOD9479055
Probable space group: C M C A
;
_chemical_formula_sum "Si O2"
_cell_formula_units_Z 64
_cell_length_a 8.853407
_cell_length_b 15.340167
_cell_length_c 25.706099
_cell_angle_alpha 90.000000
_cell_angle_beta 90.000000
_cell_angle_gamma 90.000000
_cell_volume 3491.215789
_symmetry_space_group_name_H-M "C M C A"
_symmetry_group_IT_number 64
_symmetry_cell_setting 'orthorhombic'
loop_
_space_group_symop_operation_xyz
x,y,z
-x,1/2-y,1/2+z
x,-y,-z
-x,1/2+y,1/2-z
-x,-y,-z
x,1/2+y,1/2-z
-x,y,z
x,1/2-y,1/2+z
1/2+x,1/2+y,z
1/2-x,-y,1/2+z
1/2+x,1/2-y,-z
1/2-x,y,1/2-z
1/2-x,1/2-y,-z
1/2+x,y,1/2-z
1/2-x,1/2+y,z
1/2+x,-y,1/2+z
loop_
_atom_site_type_symbol
_atom_site_label
_atom_site_fract_x
_atom_site_fract_y
_atom_site_fract_z
Si Si1 0.679863 0.555119 0.304453
Si Si2 0.825267 0.208676 0.550238
Si Si3 0.324780 0.266874 0.837479
Si Si4 0.820107 0.095407 0.867856
O O1 0.500000 0.550286 0.303363
O O2 0.750000 0.524121 0.250000
O O3 0.735451 0.653848 0.312946
O O4 0.746955 0.494124 0.349470
O O5 0.750000 0.250000 0.500000
O O6 0.822278 0.275267 0.599377
O O7 0.736229 0.126771 0.575153
O O8 0.000000 0.186248 0.540613
O O9 0.500000 0.265450 0.820836
O O10 0.245696 0.172910 0.830858
O O11 0.000000 0.092510 0.865438
#
# Coordination Sequence:
#
# PCOD9479055 Si02
#       4
#    16  16  16  16
#     4  12  24  39  59  84 114 150 191 235 283 337
#     4   9  18  34  59  85 115 149 188 231 282 336
#     4   9  20  38  58  84 116 148 188 234 280 335
#     4  10  20  37  59  84 116 150 188 234 281 334
#
# _framework density 18.331723
#
# number of rings (size 3 to 8) (size 9 to 14) (size 15 to 20)
#    1.500    0.500    0.000    5.250    0.000    1.000 
#    0.000    6.250    0.000    7.500    0.000    0.000 
#    0.000    0.000    0.000    0.000    0.000    0.000 
#
# Total GULP energy -178231.501924 kJ/mol
# GULP energy per Si atom -5569.734435 kJ/mol
# Density = 1.829000 g / cm^3
# Si number density = 18.331723 Si / 1000 Ang^3
#
#
#
# Elastic Constant Matrix: (Units=GPa)
#
#
# Indices 1 2 3 4 5 6 
#
# 1 181.4635 21.1669 12.4634 0.0000 0.0000 0.0000
# 2 21.1669 50.1607 -12.6536 0.0000 0.0000 0.0000
# 3 12.4634 -12.6536 27.8512 0.0000 0.0000 0.0000
# 4 0.0000 0.0000 0.0000 19.5879 0.0000 0.0000
# 5 0.0000 0.0000 0.0000 0.0000 30.8556 0.0000
# 6 0.0000 0.0000 0.0000 0.0000 0.0000 30.8103
#
#
#
# Elastic Compliance Matrix: (Units=1/GPa)
#
#
# Indices 1 2 3 4 5 6 
#
# 1 0.006263 -0.003783 -0.004521 0.000000 0.000000 0.000000
# 2 -0.003783 0.024802 0.012961 0.000000 0.000000 0.000000
# 3 -0.004521 0.012961 0.043817 0.000000 0.000000 0.000000
# 4 0.000000 0.000000 0.000000 0.051052 0.000000 0.000000
# 5 0.000000 0.000000 0.000000 0.000000 0.032409 0.000000
# 6 0.000000 0.000000 0.000000 0.000000 0.000000 0.032457
#
#
# Mechanical properties :
#
#
# Convention : Reuss Voigt Hill
#
# Bulk Modulus (GPa) = 11.87717 33.49208 22.68463
# Shear Modulus (GPa) = 23.86055 32.15069 28.00562
#
# Velocity S-wave (km/s) = 3.61168 4.19242 3.91284
# Velocity P-wave (km/s) = 4.88727 6.46102 5.72845
#
# Compressibility (1/GPa) = 0.08419512
#
# Stress axis : x y z
#
# Youngs Moduli (GPa) = 159.67840 40.31923 22.82216
#
# Poissons Ratio (x) = 0.15254 0.10319
# Poissons Ratio (y) = 0.60411 -0.29581
# Poissons Ratio (z) = 0.72196 -0.52259
#
# Static dielectric constant tensor:
#      x y z
#    x 1.605840 0.000000 0.000000 
#    y 0.000000 1.619470 0.000000 
#    z 0.000000 0.000000 1.662800 
# 
# From -- ./inp_files/42474.got.cif
#   From: 2010.05.17/outbox.cif.g08.bks.cpg/sg64_22_cif.got.tgz:42474.got - 2010.06.03 16:29:19.
