data_PCOD9479813
_publ_section_title
;
Structure prediction by ZEFSAII (Michael W. Deem and Ramdas Pophale) SiO2 
 PCOD9479813
Probable space group: C M C A
;
_chemical_formula_sum "Si O2"
_cell_formula_units_Z 112
_cell_length_a 14.457241
_cell_length_b 15.494443
_cell_length_c 22.536497
_cell_angle_alpha 90.000000
_cell_angle_beta 90.000000
_cell_angle_gamma 90.000000
_cell_volume 5048.330753
_symmetry_space_group_name_H-M "C M C A"
_symmetry_group_IT_number 64
_symmetry_cell_setting 'orthorhombic'
loop_
_space_group_symop_operation_xyz
x,y,z
-x,1/2-y,1/2+z
x,-y,-z
-x,1/2+y,1/2-z
-x,-y,-z
x,1/2+y,1/2-z
-x,y,z
x,1/2-y,1/2+z
1/2+x,1/2+y,z
1/2-x,-y,1/2+z
1/2+x,1/2-y,-z
1/2-x,y,1/2-z
1/2-x,1/2-y,-z
1/2+x,y,1/2-z
1/2-x,1/2+y,z
1/2+x,-y,1/2+z
loop_
_atom_site_type_symbol
_atom_site_label
_atom_site_fract_x
_atom_site_fract_y
_atom_site_fract_z
Si Si1 0.891606 0.791626 0.273900
Si Si2 0.893776 0.284202 0.539362
Si Si3 0.602204 0.625768 0.912280
Si Si4 0.611862 0.509982 0.750944
Si Si5 0.607518 0.060097 0.375832
Si Si6 0.107678 0.350806 0.830827
Si Si7 0.255548 0.739089 0.618807
O O1 0.885653 0.721275 0.221414
O O2 0.826218 0.759669 0.326588
O O3 0.000000 0.793556 0.292092
O O4 0.863346 0.890077 0.258382
O O5 0.892983 0.323552 0.474051
O O6 0.862942 0.359362 0.585336
O O7 0.814412 0.218712 0.558947
O O8 0.000000 0.257052 0.550879
O O9 0.500000 0.642346 0.885014
O O10 0.609931 0.523730 0.917636
O O11 0.685319 0.659350 0.873296
O O12 0.500000 0.511334 0.756112
O O13 0.648156 0.467754 0.812401
O O14 0.631474 0.443368 0.697764
O O15 0.500000 0.080068 0.363222
O O16 0.181833 0.318244 0.878790
O O17 0.000000 0.352165 0.851101
#
# Coordination Sequence:
#
# PCOD9479813 Si02
#       7
#    16  16  16  16  16  16  16
#     4  10  21  37  55  79 113 149 185 222 264 321
#     4  10  21  37  56  78 104 136 178 228 277 321
#     4  10  21  37  56  78 104 136 178 228 277 321
#     4   9  18  34  56  80 109 146 181 217 264 321
#     4   9  17  33  57  79 102 135 175 222 274 321
#     4  10  21  37  55  79 113 149 185 222 264 321
#     4  12  22  34  54  80 110 146 180 218 266 322
#
# _framework density 22.185552000000001
#
# number of rings (size 3 to 8) (size 9 to 14) (size 15 to 20)
#    0.000    2.000    0.000    3.857    0.000    7.429 
#    0.000    4.286    0.000    0.000    0.000    0.000 
#    0.000   16.000    0.000    0.000    0.000    0.000 
#
# Total GULP energy -312562.944013 kJ/mol
# GULP energy per Si atom -5581.481143 kJ/mol
# Density = 2.213506 g / cm^3
# Si number density = 22.185552 Si / 1000 Ang^3
#
#
#
# Elastic Constant Matrix: (Units=GPa)
#
#
# Indices 1 2 3 4 5 6 
#
# 1 133.9253 8.3519 23.9835 0.0000 0.0000 0.0000
# 2 8.3519 61.9554 -4.2037 0.0000 0.0000 0.0000
# 3 23.9835 -4.2037 38.1273 0.0000 0.0000 0.0000
# 4 0.0000 0.0000 0.0000 20.5184 0.0000 0.0000
# 5 0.0000 0.0000 0.0000 0.0000 24.1842 0.0000
# 6 0.0000 0.0000 0.0000 0.0000 0.0000 -2.3573
#
#
#
# Elastic Compliance Matrix: (Units=1/GPa)
#
#
# Indices 1 2 3 4 5 6 
#
# 1 0.008556 -0.001530 -0.005551 0.000000 0.000000 0.000000
# 2 -0.001530 0.016536 0.002786 0.000000 0.000000 0.000000
# 3 -0.005551 0.002786 0.030027 0.000000 0.000000 0.000000
# 4 0.000000 0.000000 0.000000 0.048737 0.000000 0.000000
# 5 0.000000 0.000000 0.000000 0.000000 0.041349 0.000000
# 6 0.000000 0.000000 0.000000 0.000000 0.000000 -0.424209
#
#
# Mechanical properties :
#
#
# Convention : Reuss Voigt Hill
#
# Bulk Modulus (GPa) = 21.49229 32.25237 26.87233
# Shear Modulus (GPa) = -19.61523 22.19414 1.28946
#
# Velocity S-wave (km/s) = -2.97668 3.16632 0.76320
# Velocity P-wave (km/s) = 1.45108 5.28551 3.59381
#
# Compressibility (1/GPa) = 0.04652831
#
# Stress axis : x y z
#
# Youngs Moduli (GPa) = 116.87245 60.47439 33.30356
#
# Poissons Ratio (x) = 0.09253 0.18487
# Poissons Ratio (y) = 0.17882 -0.09277
# Poissons Ratio (z) = 0.64875 -0.16846
#
# Static dielectric constant tensor:
#      x y z
#    x 1.918120 0.000000 0.000000 
#    y 0.000000 1.881750 0.000000 
#    z 0.000000 0.000000 1.831880 
# 
# From -- ./inp_files/50056.got.cif
#   From: 2010.05.17/outbox.cif.g08.bks.cpg/sg64_26_cif.got.tgz:50056.got - 2010.06.03 16:29:19.
