data_PCOD9479758
_publ_section_title
;
Structure prediction by ZEFSAII (Michael W. Deem and Ramdas Pophale) SiO2 
 PCOD9479758
Probable space group: C M C A
;
_chemical_formula_sum "Si O2"
_cell_formula_units_Z 116
_cell_length_a 24.408318
_cell_length_b 27.064989
_cell_length_c 9.494107
_cell_angle_alpha 90.000000
_cell_angle_beta 90.000000
_cell_angle_gamma 90.000000
_cell_volume 6271.910173
_symmetry_space_group_name_H-M "C M C A"
_symmetry_group_IT_number 64
_symmetry_cell_setting 'orthorhombic'
loop_
_space_group_symop_operation_xyz
x,y,z
-x,1/2-y,1/2+z
x,-y,-z
-x,1/2+y,1/2-z
-x,-y,-z
x,1/2+y,1/2-z
-x,y,z
x,1/2-y,1/2+z
1/2+x,1/2+y,z
1/2-x,-y,1/2+z
1/2+x,1/2-y,-z
1/2-x,y,1/2-z
1/2-x,1/2-y,-z
1/2+x,y,1/2-z
1/2-x,1/2+y,z
1/2+x,-y,1/2+z
loop_
_atom_site_type_symbol
_atom_site_label
_atom_site_fract_x
_atom_site_fract_y
_atom_site_fract_z
Si Si1 0.202309 0.026904 0.649814
Si Si2 0.286077 0.807826 0.611305
Si Si3 0.868865 0.879096 0.737292
Si Si4 0.304026 0.864738 0.055058
Si Si5 0.112430 0.010721 0.152632
Si Si6 0.500000 0.500000 0.000000
Si Si7 0.564029 0.212022 0.158270
Si Si8 0.629492 0.776795 0.123798
O O1 0.250000 0.005527 0.750000
O O2 0.212945 0.084525 0.624577
O O3 0.144761 0.019781 0.729830
O O4 0.201616 0.000000 0.500000
O O5 0.250000 0.794624 0.750000
O O6 0.327170 0.851016 0.659519
O O7 0.246298 0.830845 0.495628
O O8 0.323116 0.761049 0.571432
O O9 0.838052 0.879744 0.586325
O O10 0.920118 0.842240 0.716824
O O11 0.883047 0.932356 0.798608
O O12 0.342196 0.829436 0.149319
O O13 0.049339 0.997766 0.120614
O O14 0.140314 0.000000 0.000000
O O15 0.500000 0.221610 0.170535
O O16 0.600010 0.251051 0.246026
O O17 0.585370 0.215712 0.999228
#
# Coordination Sequence:
#
# PCOD9479758 Si02
#       8
#    16  16  16  16  16   4  16  16
#     4  12  26  39  63  96 131 172 203 260 321 375
#     4   9  19  34  60  89 120 160 201 240 295 367
#     4   9  19  36  61  86 117 159 204 251 296 373
#     4  10  21  36  58  89 125 161 194 242 314 369
#     4  10  22  43  66  88 124 157 220 261 315 371
#     4   8  24  40  70  88 112 168 214 282 304 364
#     4  10  21  37  62  84 116 155 205 249 305 354
#     4  10  21  39  58  87 119 157 199 248 296 362
#
# _framework density 18.495163000000002
#
# number of rings (size 3 to 8) (size 9 to 14) (size 15 to 20)
#    0.414    1.655    1.379    2.069    4.828    1.655 
#    2.483    0.345   13.655    0.000    0.000    0.000 
#    0.000    0.000    0.000    0.000    0.000    0.000 
#
# Total GULP energy -323002.577053 kJ/mol
# GULP energy per Si atom -5569.009949 kJ/mol
# Density = 1.845307 g / cm^3
# Si number density = 18.495163 Si / 1000 Ang^3
#
#
#
# Elastic Constant Matrix: (Units=GPa)
#
#
# Indices 1 2 3 4 5 6 
#
# 1 101.8042 9.4063 20.6173 0.0000 0.0000 0.0000
# 2 9.4063 50.9120 6.0733 0.0000 0.0000 0.0000
# 3 20.6173 6.0733 45.6463 0.0000 0.0000 0.0000
# 4 0.0000 0.0000 0.0000 20.9601 0.0000 0.0000
# 5 0.0000 0.0000 0.0000 0.0000 29.7273 0.0000
# 6 0.0000 0.0000 0.0000 0.0000 0.0000 6.9282
#
#
#
# Elastic Compliance Matrix: (Units=1/GPa)
#
#
# Indices 1 2 3 4 5 6 
#
# 1 0.010916 -0.001452 -0.004737 0.000000 0.000000 0.000000
# 2 -0.001452 0.020152 -0.002025 0.000000 0.000000 0.000000
# 3 -0.004737 -0.002025 0.024317 0.000000 0.000000 0.000000
# 4 0.000000 0.000000 0.000000 0.047710 0.000000 0.000000
# 5 0.000000 0.000000 0.000000 0.000000 0.033639 0.000000
# 6 0.000000 0.000000 0.000000 0.000000 0.000000 0.144338
#
#
# Mechanical properties :
#
#
# Convention : Reuss Voigt Hill
#
# Bulk Modulus (GPa) = 25.67039 30.06180 27.86610
# Shear Modulus (GPa) = 16.10379 22.34084 19.22232
#
# Velocity S-wave (km/s) = 2.95397 3.47930 3.22734
# Velocity P-wave (km/s) = 5.05413 5.69472 5.38396
#
# Compressibility (1/GPa) = 0.03895539
#
# Stress axis : x y z
#
# Youngs Moduli (GPa) = 91.60582 49.62397 41.12370
#
# Poissons Ratio (x) = 0.07204 0.19482
# Poissons Ratio (y) = 0.13299 0.08330
# Poissons Ratio (z) = 0.43398 0.10051
#
# Static dielectric constant tensor:
#      x y z
#    x 1.630540 0.000000 0.000000 
#    y 0.000000 1.630420 0.000000 
#    z 0.000000 0.000000 1.646410 
# 
# From -- ./inp_files/10647.got.cif
#   From: 2010.05.17/outbox.cif.g08.bks.cpg/sg64_6_cif.got.tgz:10647.got - 2010.06.03 16:29:19.
