data_PCOD9479701
_publ_section_title
;
Structure prediction by ZEFSAII (Michael W. Deem and Ramdas Pophale) SiO2 
 PCOD9479701
Probable space group: C M C A
;
_chemical_formula_sum "Si O2"
_cell_formula_units_Z 64
_cell_length_a 19.683244
_cell_length_b 29.412292
_cell_length_c 5.393476
_cell_angle_alpha 90.000000
_cell_angle_beta 90.000000
_cell_angle_gamma 90.000000
_cell_volume 3122.441393
_symmetry_space_group_name_H-M "C M C A"
_symmetry_group_IT_number 64
_symmetry_cell_setting 'orthorhombic'
loop_
_space_group_symop_operation_xyz
x,y,z
-x,1/2-y,1/2+z
x,-y,-z
-x,1/2+y,1/2-z
-x,-y,-z
x,1/2+y,1/2-z
-x,y,z
x,1/2-y,1/2+z
1/2+x,1/2+y,z
1/2-x,-y,1/2+z
1/2+x,1/2-y,-z
1/2-x,y,1/2-z
1/2-x,1/2-y,-z
1/2+x,y,1/2-z
1/2-x,1/2+y,z
1/2+x,-y,1/2+z
loop_
_atom_site_type_symbol
_atom_site_label
_atom_site_fract_x
_atom_site_fract_y
_atom_site_fract_z
Si Si1 0.326889 0.230888 0.508600
Si Si2 0.637641 0.628236 0.974693
Si Si3 0.176170 0.037327 0.176294
Si Si4 0.577910 0.094261 0.035453
O O1 0.359861 0.248082 0.254237
O O2 0.250000 0.250000 0.500000
O O3 0.326301 0.176632 0.524300
O O4 0.600680 0.619332 0.714603
O O5 0.685801 0.584728 0.025038
O O6 0.588703 0.624833 0.216266
O O7 0.250000 0.020349 0.250000
O O8 0.128576 0.052451 0.403428
O O9 0.142305 0.000000 0.000000
O O10 0.500000 0.080152 0.015952
#
# Coordination Sequence:
#
# PCOD9479701 Si02
#       4
#    16  16  16  16
#     4  10  21  35  61  95 130 165 221 272 332 397
#     4  10  23  41  67  96 132 174 221 281 335 397
#     4  10  26  40  67 101 140 175 221 279 346 404
#     4  10  23  44  70  95 134 182 227 273 333 410
#
# _framework density 20.496783000000001
#
# number of rings (size 3 to 8) (size 9 to 14) (size 15 to 20)
#    1.500    0.500    0.000    2.250    7.000    2.500 
#    0.000    1.250    0.000   15.000    0.000    0.000 
#    0.000    0.000    0.000    0.000    0.000    0.000 
#
# Total GULP energy -178287.720347 kJ/mol
# GULP energy per Si atom -5571.491261 kJ/mol
# Density = 2.045013 g / cm^3
# Si number density = 20.496783 Si / 1000 Ang^3
#
#
#
# Elastic Constant Matrix: (Units=GPa)
#
#
# Indices 1 2 3 4 5 6 
#
# 1 57.1612 -9.1327 15.5266 0.0000 0.0000 0.0000
# 2 -9.1327 104.4587 28.6948 0.0000 0.0000 0.0000
# 3 15.5266 28.6948 180.1260 0.0000 0.0000 0.0000
# 4 0.0000 0.0000 0.0000 26.1767 0.0000 0.0000
# 5 0.0000 0.0000 0.0000 0.0000 10.4947 0.0000
# 6 0.0000 0.0000 0.0000 0.0000 0.0000 -52.9580
#
#
#
# Elastic Compliance Matrix: (Units=1/GPa)
#
#
# Indices 1 2 3 4 5 6 
#
# 1 0.018357 0.002133 -0.001922 0.000000 0.000000 0.000000
# 2 0.002133 0.010259 -0.001818 0.000000 0.000000 0.000000
# 3 -0.001922 -0.001818 0.006007 0.000000 0.000000 0.000000
# 4 0.000000 0.000000 0.000000 0.038202 0.000000 0.000000
# 5 0.000000 0.000000 0.000000 0.000000 0.095286 0.000000
# 6 0.000000 0.000000 0.000000 0.000000 0.000000 -0.018883
#
#
# Mechanical properties :
#
#
# Convention : Reuss Voigt Hill
#
# Bulk Modulus (GPa) = 31.83833 45.76925 38.80379
# Shear Modulus (GPa) = 30.69132 17.18650 23.93891
#
# Velocity S-wave (km/s) = 3.87379 2.89882 3.42121
# Velocity P-wave (km/s) = 5.96451 5.79506 5.88039
#
# Compressibility (1/GPa) = 0.03140869
#
# Stress axis : x y z
#
# Youngs Moduli (GPa) = 54.47424 97.47440 166.47248
#
# Poissons Ratio (x) = -0.20791 0.31999
# Poissons Ratio (y) = -0.11619 0.30268
# Poissons Ratio (z) = 0.10471 0.17723
#
# Static dielectric constant tensor:
#      x y z
#    x 1.675400 0.000000 0.000000 
#    y 0.000000 1.732330 0.000000 
#    z 0.000000 0.000000 2.014770 
# 
# From -- ./inp_files/2183.got.cif
#   From: 2010.05.17/outbox.cif.g08.bks.cpg/sg64_2_cif.got.tgz:2183.got - 2010.06.03 16:29:19.
