data_PCOD9479008
_publ_section_title
;
Structure prediction by ZEFSAII (Michael W. Deem and Ramdas Pophale) SiO2 
 PCOD9479008
Probable space group: C M C A
;
_chemical_formula_sum "Si O2"
_cell_formula_units_Z 72
_cell_length_a 15.971043
_cell_length_b 13.816122
_cell_length_c 14.984424
_cell_angle_alpha 90.000000
_cell_angle_beta 90.000000
_cell_angle_gamma 90.000000
_cell_volume 3306.431211
_symmetry_space_group_name_H-M "C M C A"
_symmetry_group_IT_number 64
_symmetry_cell_setting 'orthorhombic'
loop_
_space_group_symop_operation_xyz
x,y,z
-x,1/2-y,1/2+z
x,-y,-z
-x,1/2+y,1/2-z
-x,-y,-z
x,1/2+y,1/2-z
-x,y,z
x,1/2-y,1/2+z
1/2+x,1/2+y,z
1/2-x,-y,1/2+z
1/2+x,1/2-y,-z
1/2-x,y,1/2-z
1/2-x,1/2-y,-z
1/2+x,y,1/2-z
1/2-x,1/2+y,z
1/2+x,-y,1/2+z
loop_
_atom_site_type_symbol
_atom_site_label
_atom_site_fract_x
_atom_site_fract_y
_atom_site_fract_z
Si Si1 0.800173 0.492401 0.662039
Si Si2 0.405773 0.812895 0.734809
Si Si3 0.661449 0.193041 0.601184
Si Si4 0.362079 0.698015 0.570304
Si Si5 0.174228 0.500000 0.000000
O O1 0.750000 0.526790 0.750000
O O2 0.851587 0.399491 0.693189
O O3 0.855614 0.582470 0.628500
O O4 0.735208 0.468804 0.582006
O O5 0.500000 0.845351 0.753418
O O6 0.365337 0.767731 0.822895
O O7 0.405589 0.728851 0.660529
O O8 0.621648 0.225252 0.507982
O O9 0.762019 0.198100 0.589663
O O10 0.378477 0.590930 0.533676
#
# Coordination Sequence:
#
# PCOD9479008 Si02
#       5
#    16  16  16  16   8
#     4  11  21  37  61  86 111 147 196 245 288 335
#     4  12  25  38  55  85 125 160 187 226 287 354
#     4  10  21  39  64  87 111 147 198 249 288 329
#     4  10  20  39  63  89 114 146 195 245 288 336
#     4  10  20  36  66  92 108 140 198 254 290 326
#
# _framework density 21.775745000000001
#
# number of rings (size 3 to 8) (size 9 to 14) (size 15 to 20)
#    0.000    1.333    0.000   10.000    0.000    1.778 
#    0.000    4.444    0.000    0.000    0.000    4.667 
#    0.000    0.000    0.000    0.000    0.000    0.000 
#
# Total GULP energy -201438.864958 kJ/mol
# GULP energy per Si atom -5595.524027 kJ/mol
# Density = 2.172618 g / cm^3
# Si number density = 21.775745 Si / 1000 Ang^3
#
#
#
# Elastic Constant Matrix: (Units=GPa)
#
#
# Indices 1 2 3 4 5 6 
#
# 1 9.3292 1.3472 -1.8890 0.0000 0.0000 0.0000
# 2 1.3472 78.2900 12.0313 0.0000 0.0000 0.0000
# 3 -1.8890 12.0313 118.2321 0.0000 0.0000 0.0000
# 4 0.0000 0.0000 0.0000 46.3104 0.0000 0.0000
# 5 0.0000 0.0000 0.0000 0.0000 -35.8072 0.0000
# 6 0.0000 0.0000 0.0000 0.0000 0.0000 -2.8120
#
#
#
# Elastic Compliance Matrix: (Units=1/GPa)
#
#
# Indices 1 2 3 4 5 6 
#
# 1 0.107895 -0.002155 0.001943 0.000000 0.000000 0.000000
# 2 -0.002155 0.013019 -0.001359 0.000000 0.000000 0.000000
# 3 0.001943 -0.001359 0.008627 0.000000 0.000000 0.000000
# 4 0.000000 0.000000 0.000000 0.021593 0.000000 0.000000
# 5 0.000000 0.000000 0.000000 0.000000 -0.027927 0.000000
# 6 0.000000 0.000000 0.000000 0.000000 0.000000 -0.355621
#
#
# Mechanical properties :
#
#
# Convention : Reuss Voigt Hill
#
# Bulk Modulus (GPa) = 7.91149 25.42561 16.66855
# Shear Modulus (GPa) = -26.71819 14.49571 -6.11124
#
# Velocity S-wave (km/s) = -3.50661 2.58288 -1.67706
# Velocity P-wave (km/s) = 3.57128 4.53834 1.98021
#
# Compressibility (1/GPa) = 0.12639844
#
# Stress axis : x y z
#
# Youngs Moduli (GPa) = 9.26828 76.81085 115.91109
#
# Poissons Ratio (x) = 0.16555 -0.22523
# Poissons Ratio (y) = 0.01998 0.15755
# Poissons Ratio (z) = -0.01801 0.10441
#
# Static dielectric constant tensor:
#      x y z
#    x 1.809870 0.000000 0.000000 
#    y 0.000000 1.830680 0.000000 
#    z 0.000000 0.000000 1.776390 
# 
# From -- ./inp_files/25096.got.cif
#   From: 2010.05.17/outbox.cif.g08.bks.cpg/sg64_13_cif.got.tgz:25096.got - 2010.06.03 16:29:19.
