data_PCOD9479987
_publ_section_title
;
Structure prediction by ZEFSAII (Michael W. Deem and Ramdas Pophale) SiO2 
 PCOD9479987
Probable space group: C M C A
;
_chemical_formula_sum "Si O2"
_cell_formula_units_Z 48
_cell_length_a 18.605785
_cell_length_b 18.840245
_cell_length_c 5.276549
_cell_angle_alpha 90.000000
_cell_angle_beta 90.000000
_cell_angle_gamma 90.000000
_cell_volume 1849.628547
_symmetry_space_group_name_H-M "C M C A"
_symmetry_group_IT_number 64
_symmetry_cell_setting 'orthorhombic'
loop_
_space_group_symop_operation_xyz
x,y,z
-x,1/2-y,1/2+z
x,-y,-z
-x,1/2+y,1/2-z
-x,-y,-z
x,1/2+y,1/2-z
-x,y,z
x,1/2-y,1/2+z
1/2+x,1/2+y,z
1/2-x,-y,1/2+z
1/2+x,1/2-y,-z
1/2-x,y,1/2-z
1/2-x,1/2-y,-z
1/2+x,y,1/2-z
1/2-x,1/2+y,z
1/2+x,-y,1/2+z
loop_
_atom_site_type_symbol
_atom_site_label
_atom_site_fract_x
_atom_site_fract_y
_atom_site_fract_z
Si Si1 0.586434 0.784964 0.377938
Si Si2 0.583899 0.931149 0.665472
Si Si3 0.713360 0.583931 0.497639
O O1 0.500000 0.772790 0.356242
O O2 0.615587 0.765682 0.101800
O O3 0.594739 0.863902 0.482766
O O4 0.500000 0.936900 0.729803
O O5 0.629716 0.918962 0.919164
O O6 0.605004 0.000000 0.500000
O O7 0.732675 0.500000 0.500000
O O8 0.750000 0.617126 0.250000
O O9 0.750000 0.613878 0.750000
#
# Coordination Sequence:
#
# PCOD9479987 Si02
#       3
#    16  16  16
#     4   9  19  36  57  85 128 177 213 251 324 408
#     4  10  21  38  66 103 134 164 219 289 333 371
#     4  10  21  38  58  84 126 173 210 252 322 401
#
# _framework density 25.951160000000002
#
# number of rings (size 3 to 8) (size 9 to 14) (size 15 to 20)
#    0.000    2.333    0.000    3.000    0.000    6.000 
#    0.000   11.667    0.000    7.000    0.000    0.000 
#    0.000   10.667    0.000    0.000    0.000    0.000 
#
# Total GULP energy -134294.384151 kJ/mol
# GULP energy per Si atom -5595.599340 kJ/mol
# Density = 2.589209 g / cm^3
# Si number density = 25.951160 Si / 1000 Ang^3
#
#
#
# Elastic Constant Matrix: (Units=GPa)
#
#
# Indices 1 2 3 4 5 6 
#
# 1 153.6160 9.0899 63.5193 0.0000 0.0000 0.0000
# 2 9.0899 94.8079 50.4588 0.0000 0.0000 0.0000
# 3 63.5193 50.4588 200.8109 0.0000 0.0000 0.0000
# 4 0.0000 0.0000 0.0000 25.9407 0.0000 0.0000
# 5 0.0000 0.0000 0.0000 0.0000 33.8064 0.0000
# 6 0.0000 0.0000 0.0000 0.0000 0.0000 -0.2199
#
#
#
# Elastic Compliance Matrix: (Units=1/GPa)
#
#
# Indices 1 2 3 4 5 6 
#
# 1 0.007522 0.000629 -0.002537 0.000000 0.000000 0.000000
# 2 0.000629 0.012229 -0.003272 0.000000 0.000000 0.000000
# 3 -0.002537 -0.003272 0.006605 0.000000 0.000000 0.000000
# 4 0.000000 0.000000 0.000000 0.038549 0.000000 0.000000
# 5 0.000000 0.000000 0.000000 0.000000 0.029580 0.000000
# 6 0.000000 0.000000 0.000000 0.000000 0.000000 -4.548294
#
#
# Mechanical properties :
#
#
# Convention : Reuss Voigt Hill
#
# Bulk Modulus (GPa) = 62.51913 77.26343 69.89128
# Shear Modulus (GPa) = -1.12660 33.64990 16.26165
#
# Velocity S-wave (km/s) = -0.65960 3.60483 2.50596
# Velocity P-wave (km/s) = 4.85420 6.86758 5.94672
#
# Compressibility (1/GPa) = 0.01599511
#
# Stress axis : x y z
#
# Youngs Moduli (GPa) = 132.94916 81.77525 151.41139
#
# Poissons Ratio (x) = -0.05146 0.38418
# Poissons Ratio (y) = -0.08366 0.49539
# Poissons Ratio (z) = 0.33734 0.26755
#
# Static dielectric constant tensor:
#      x y z
#    x 2.091570 0.000000 0.000000 
#    y 0.000000 2.077740 0.000000 
#    z 0.000000 0.000000 2.062130 
# 
# From -- ./inp_files/1525.got.cif
#   From: 2010.05.17/outbox.cif.g08.bks.cpg/sg64_1_cif.got.tgz:1525.got - 2010.06.03 16:29:19.
