data_PCOD9479027
_publ_section_title
;
Structure prediction by ZEFSAII (Michael W. Deem and Ramdas Pophale) SiO2 
 PCOD9479027
Probable space group: C M C A
;
_chemical_formula_sum "Si O2"
_cell_formula_units_Z 56
_cell_length_a 26.374555
_cell_length_b 8.221616
_cell_length_c 12.106067
_cell_angle_alpha 90.000000
_cell_angle_beta 90.000000
_cell_angle_gamma 90.000000
_cell_volume 2625.097284
_symmetry_space_group_name_H-M "C M C A"
_symmetry_group_IT_number 64
_symmetry_cell_setting 'orthorhombic'
loop_
_space_group_symop_operation_xyz
x,y,z
-x,1/2-y,1/2+z
x,-y,-z
-x,1/2+y,1/2-z
-x,-y,-z
x,1/2+y,1/2-z
-x,y,z
x,1/2-y,1/2+z
1/2+x,1/2+y,z
1/2-x,-y,1/2+z
1/2+x,1/2-y,-z
1/2-x,y,1/2-z
1/2-x,1/2-y,-z
1/2+x,y,1/2-z
1/2-x,1/2+y,z
1/2+x,-y,1/2+z
loop_
_atom_site_type_symbol
_atom_site_label
_atom_site_fract_x
_atom_site_fract_y
_atom_site_fract_z
Si Si1 0.000000 0.311308 0.572393
Si Si2 0.917132 0.837738 0.574081
Si Si3 0.500000 0.515232 0.278378
Si Si4 0.804253 0.103221 0.388192
Si Si5 0.250000 0.142954 0.750000
O O1 0.050469 0.287471 0.499068
O O2 0.000000 0.528927 0.352691
O O3 0.000000 0.156669 0.658211
O O4 0.859094 0.811507 0.605367
O O5 0.915914 0.000000 0.500000
O O6 0.950884 0.887072 0.678642
O O7 0.765181 0.243353 0.352880
O O8 0.795692 0.000000 0.500000
O O9 0.796234 0.971141 0.290072
#
# Coordination Sequence:
#
# PCOD9479027 Si02
#       5
#     8  16   8  16   8
#     4   9  17  33  54  78 106 143 174 212 269 319
#     4   8  17  32  51  73 105 142 169 208 271 319
#     4   9  17  31  52  76 102 133 175 210 251 329
#     4  10  20  37  57  80 112 143 182 234 276 325
#     4  10  22  36  58  84 104 146 194 226 280 328
#
# _framework density 21.332543000000001
#
# number of rings (size 3 to 8) (size 9 to 14) (size 15 to 20)
#    0.000    2.857    0.000    2.571    0.000    6.857 
#    0.000    2.857    0.000   20.571    0.000    0.000 
#    0.000    0.000    0.000    0.000    0.000    0.000 
#
# Total GULP energy -156021.445397 kJ/mol
# GULP energy per Si atom -5572.194478 kJ/mol
# Density = 2.128399 g / cm^3
# Si number density = 21.332543 Si / 1000 Ang^3
#
#
#
# Elastic Constant Matrix: (Units=GPa)
#
#
# Indices 1 2 3 4 5 6 
#
# 1 120.9546 31.6846 46.8213 0.0000 0.0000 0.0000
# 2 31.6846 64.6295 41.0381 0.0000 0.0000 0.0000
# 3 46.8213 41.0381 75.5311 0.0000 0.0000 0.0000
# 4 0.0000 0.0000 0.0000 47.5620 0.0000 0.0000
# 5 0.0000 0.0000 0.0000 0.0000 13.5620 0.0000
# 6 0.0000 0.0000 0.0000 0.0000 0.0000 13.2015
#
#
#
# Elastic Compliance Matrix: (Units=1/GPa)
#
#
# Indices 1 2 3 4 5 6 
#
# 1 0.010988 -0.001621 -0.005931 0.000000 0.000000 0.000000
# 2 -0.001621 0.023862 -0.011960 0.000000 0.000000 0.000000
# 3 -0.005931 -0.011960 0.023414 0.000000 0.000000 0.000000
# 4 0.000000 0.000000 0.000000 0.021025 0.000000 0.000000
# 5 0.000000 0.000000 0.000000 0.000000 0.073735 0.000000
# 6 0.000000 0.000000 0.000000 0.000000 0.000000 0.075749
#
#
# Mechanical properties :
#
#
# Convention : Reuss Voigt Hill
#
# Bulk Modulus (GPa) = 51.97313 55.57812 53.77563
# Shear Modulus (GPa) = 18.23423 24.30319 21.26871
#
# Velocity S-wave (km/s) = 2.92680 3.37895 3.16097
# Velocity P-wave (km/s) = 5.98646 6.42906 6.21170
#
# Compressibility (1/GPa) = 0.01924071
#
# Stress axis : x y z
#
# Youngs Moduli (GPa) = 91.00903 41.90813 42.70952
#
# Poissons Ratio (x) = 0.06794 0.25329
# Poissons Ratio (y) = 0.14753 0.51080
# Poissons Ratio (z) = 0.53974 0.50121
#
# Static dielectric constant tensor:
#      x y z
#    x 1.775010 0.000000 0.000000 
#    y 0.000000 1.798200 0.000000 
#    z 0.000000 0.000000 1.777750 
# 
# From -- ./inp_files/9906.got.cif
#   From: 2010.05.17/outbox.cif.g08.bks.cpg/sg64_5_cif.got.tgz:9906.got - 2010.06.03 16:29:19.
