data_PCOD9479524
_publ_section_title
;
Structure prediction by ZEFSAII (Michael W. Deem and Ramdas Pophale) SiO2 
 PCOD9479524
Probable space group: C M C A
;
_chemical_formula_sum "Si O2"
_cell_formula_units_Z 96
_cell_length_a 21.769152
_cell_length_b 13.821030
_cell_length_c 15.194405
_cell_angle_alpha 90.000000
_cell_angle_beta 90.000000
_cell_angle_gamma 90.000000
_cell_volume 4571.572584
_symmetry_space_group_name_H-M "C M C A"
_symmetry_group_IT_number 64
_symmetry_cell_setting 'orthorhombic'
loop_
_space_group_symop_operation_xyz
x,y,z
-x,1/2-y,1/2+z
x,-y,-z
-x,1/2+y,1/2-z
-x,-y,-z
x,1/2+y,1/2-z
-x,y,z
x,1/2-y,1/2+z
1/2+x,1/2+y,z
1/2-x,-y,1/2+z
1/2+x,1/2-y,-z
1/2-x,y,1/2-z
1/2-x,1/2-y,-z
1/2+x,y,1/2-z
1/2-x,1/2+y,z
1/2+x,-y,1/2+z
loop_
_atom_site_type_symbol
_atom_site_label
_atom_site_fract_x
_atom_site_fract_y
_atom_site_fract_z
Si Si1 0.068362 0.318112 0.282202
Si Si2 0.270899 0.560626 0.913896
Si Si3 0.393593 0.972514 0.674281
Si Si4 0.429093 0.227638 0.407488
Si Si5 0.662442 0.746558 0.430310
Si Si6 0.303276 0.576273 0.316463
O O1 0.068257 0.433353 0.299412
O O2 0.082756 0.288841 0.181644
O O3 0.117418 0.276451 0.350081
O O4 0.000000 0.279193 0.300344
O O5 0.334162 0.514093 0.876890
O O6 0.284750 0.671831 0.932081
O O7 0.218206 0.531073 0.845118
O O8 0.257474 0.500000 0.000000
O O9 0.423155 0.886170 0.618498
O O10 0.366047 0.927449 0.763157
O O11 0.500000 0.245579 0.435611
O O12 0.378876 0.251328 0.481974
O O13 0.690006 0.645033 0.399982
O O14 0.250000 0.613534 0.250000
#
# Coordination Sequence:
#
# PCOD9479524 Si02
#       6
#    16  16  16  16  16  16
#     4  10  22  38  63  92 123 164 205 254 315 369
#     4  10  21  38  57  88 118 157 209 251 300 367
#     4  10  20  41  60  87 127 162 204 256 310 364
#     4  11  22  39  66  97 123 158 211 257 310 377
#     4  11  22  40  66  89 128 162 205 264 308 365
#     4  10  23  40  60  89 125 169 208 247 314 375
#
# _framework density 20.999338000000002
#
# number of rings (size 3 to 8) (size 9 to 14) (size 15 to 20)
#    0.000    1.667    3.333    1.000    0.000    5.333 
#    0.000    2.500    0.000    2.000    0.000    0.000 
#    0.000    0.000    0.000    0.000    0.000    0.000 
#
# Total GULP energy -268046.664936 kJ/mol
# GULP energy per Si atom -5584.305520 kJ/mol
# Density = 2.095154 g / cm^3
# Si number density = 20.999338 Si / 1000 Ang^3
#
#
#
# Elastic Constant Matrix: (Units=GPa)
#
#
# Indices 1 2 3 4 5 6 
#
# 1 61.6721 26.9490 31.7131 0.0000 0.0000 0.0000
# 2 26.9490 81.6487 39.7609 0.0000 0.0000 0.0000
# 3 31.7131 39.7609 91.6006 0.0000 0.0000 0.0000
# 4 0.0000 0.0000 0.0000 22.2351 0.0000 0.0000
# 5 0.0000 0.0000 0.0000 0.0000 17.8174 0.0000
# 6 0.0000 0.0000 0.0000 0.0000 0.0000 14.7869
#
#
#
# Elastic Compliance Matrix: (Units=1/GPa)
#
#
# Indices 1 2 3 4 5 6 
#
# 1 0.020836 -0.004266 -0.005362 0.000000 0.000000 0.000000
# 2 -0.004266 0.016404 -0.005643 0.000000 0.000000 0.000000
# 3 -0.005362 -0.005643 0.015223 0.000000 0.000000 0.000000
# 4 0.000000 0.000000 0.000000 0.044974 0.000000 0.000000
# 5 0.000000 0.000000 0.000000 0.000000 0.056125 0.000000
# 6 0.000000 0.000000 0.000000 0.000000 0.000000 0.067628
#
#
# Mechanical properties :
#
#
# Convention : Reuss Voigt Hill
#
# Bulk Modulus (GPa) = 45.62020 47.97414 46.79717
# Shear Modulus (GPa) = 19.30210 20.06775 19.68493
#
# Velocity S-wave (km/s) = 3.03508 3.09469 3.06503
# Velocity P-wave (km/s) = 5.83558 5.97199 5.90418
#
# Compressibility (1/GPa) = 0.02192012
#
# Stress axis : x y z
#
# Youngs Moduli (GPa) = 47.99352 60.96121 65.69028
#
# Poissons Ratio (x) = 0.26006 0.35223
# Poissons Ratio (y) = 0.20474 0.37072
# Poissons Ratio (z) = 0.25734 0.34403
#
# Static dielectric constant tensor:
#      x y z
#    x 1.781840 0.000000 0.000000 
#    y 0.000000 1.770010 0.000000 
#    z 0.000000 0.000000 1.774200 
# 
# From -- ./inp_files/34963.got.cif
#   From: 2010.05.17/outbox.cif.g08.bks.cpg/sg64_18_cif.got.tgz:34963.got - 2010.06.03 16:29:19.
