data_PCOD9479909
_publ_section_title
;
Structure prediction by ZEFSAII (Michael W. Deem and Ramdas Pophale) SiO2 
 PCOD9479909
Probable space group: C M C A
;
_chemical_formula_sum "Si O2"
_cell_formula_units_Z 72
_cell_length_a 13.039341
_cell_length_b 23.475056
_cell_length_c 12.150314
_cell_angle_alpha 90.000000
_cell_angle_beta 90.000000
_cell_angle_gamma 90.000000
_cell_volume 3719.202126
_symmetry_space_group_name_H-M "C M C A"
_symmetry_group_IT_number 64
_symmetry_cell_setting 'orthorhombic'
loop_
_space_group_symop_operation_xyz
x,y,z
-x,1/2-y,1/2+z
x,-y,-z
-x,1/2+y,1/2-z
-x,-y,-z
x,1/2+y,1/2-z
-x,y,z
x,1/2-y,1/2+z
1/2+x,1/2+y,z
1/2-x,-y,1/2+z
1/2+x,1/2-y,-z
1/2-x,y,1/2-z
1/2-x,1/2-y,-z
1/2+x,y,1/2-z
1/2-x,1/2+y,z
1/2+x,-y,1/2+z
loop_
_atom_site_type_symbol
_atom_site_label
_atom_site_fract_x
_atom_site_fract_y
_atom_site_fract_z
Si Si1 0.381891 0.811672 0.544658
Si Si2 0.250000 0.527588 0.750000
Si Si3 0.708659 0.705214 0.632758
Si Si4 0.880706 0.409693 0.064048
Si Si5 0.720940 0.079735 0.369298
O O1 0.500000 0.804214 0.519414
O O2 0.345750 0.766400 0.636612
O O3 0.308871 0.794846 0.443970
O O4 0.357959 0.876789 0.576513
O O5 0.175005 0.562082 0.830064
O O6 0.310506 0.483875 0.831789
O O7 0.750000 0.686972 0.750000
O O8 0.633124 0.658078 0.581864
O O9 0.000000 0.425290 0.056097
O O10 0.816442 0.424975 0.953809
O O11 0.750000 0.105858 0.250000
#
# Coordination Sequence:
#
# PCOD9479909 Si02
#       5
#    16   8  16  16  16
#     4  10  21  37  60  89 118 155 196 242 308 368
#     4  10  22  40  58  90 124 158 204 266 292 346
#     4  10  21  40  61  87 124 152 193 257 299 357
#     4  11  22  40  66  91 118 165 210 245 307 371
#     4   9  22  39  58  86 128 155 198 258 299 348
#
# _framework density 19.358989999999999
#
# number of rings (size 3 to 8) (size 9 to 14) (size 15 to 20)
#    0.667    1.333    1.111    2.000    0.000    5.333 
#    0.000    0.000    0.000    4.000    0.000    0.000 
#    0.000    0.000    0.000    0.000    0.000    0.000 
#
# Total GULP energy -200498.462305 kJ/mol
# GULP energy per Si atom -5569.401731 kJ/mol
# Density = 1.931493 g / cm^3
# Si number density = 19.358990 Si / 1000 Ang^3
#
#
#
# Elastic Constant Matrix: (Units=GPa)
#
#
# Indices 1 2 3 4 5 6 
#
# 1 109.0336 50.4606 46.1264 0.0000 0.0000 0.0000
# 2 50.4606 82.2012 15.4238 0.0000 0.0000 0.0000
# 3 46.1264 15.4238 100.7639 0.0000 0.0000 0.0000
# 4 0.0000 0.0000 0.0000 32.5448 0.0000 0.0000
# 5 0.0000 0.0000 0.0000 0.0000 8.6545 0.0000
# 6 0.0000 0.0000 0.0000 0.0000 0.0000 2.8819
#
#
#
# Elastic Compliance Matrix: (Units=1/GPa)
#
#
# Indices 1 2 3 4 5 6 
#
# 1 0.015546 -0.008450 -0.005823 0.000000 0.000000 0.000000
# 2 -0.008450 0.017119 0.001248 0.000000 0.000000 0.000000
# 3 -0.005823 0.001248 0.012399 0.000000 0.000000 0.000000
# 4 0.000000 0.000000 0.000000 0.030727 0.000000 0.000000
# 5 0.000000 0.000000 0.000000 0.000000 0.115547 0.000000
# 6 0.000000 0.000000 0.000000 0.000000 0.000000 0.346998
#
#
# Mechanical properties :
#
#
# Convention : Reuss Voigt Hill
#
# Bulk Modulus (GPa) = 52.59717 57.33559 54.96638
# Shear Modulus (GPa) = 8.76082 20.81543 14.78813
#
# Velocity S-wave (km/s) = 2.12962 3.28263 2.76685
# Velocity P-wave (km/s) = 5.76848 6.63693 6.21789
#
# Compressibility (1/GPa) = 0.01901243
#
# Stress axis : x y z
#
# Youngs Moduli (GPa) = 64.32684 58.41628 80.65405
#
# Poissons Ratio (x) = 0.49364 0.46963
# Poissons Ratio (y) = 0.54359 -0.10066
# Poissons Ratio (z) = 0.37456 -0.07290
#
# Static dielectric constant tensor:
#      x y z
#    x 1.622760 0.000000 0.000000 
#    y 0.000000 1.719290 0.000000 
#    z 0.000000 0.000000 1.707800 
# 
# From -- ./inp_files/13078.got.cif
#   From: 2010.05.17/outbox.cif.g08.bks.cpg/sg64_7_cif.got.tgz:13078.got - 2010.06.03 16:29:19.
