data_PCOD9479045
_publ_section_title
;
Structure prediction by ZEFSAII (Michael W. Deem and Ramdas Pophale) SiO2 
 PCOD9479045
Probable space group: C M C A
;
_chemical_formula_sum "Si O2"
_cell_formula_units_Z 80
_cell_length_a 27.399482
_cell_length_b 9.597188
_cell_length_c 14.344128
_cell_angle_alpha 90.000000
_cell_angle_beta 90.000000
_cell_angle_gamma 90.000000
_cell_volume 3771.902922
_symmetry_space_group_name_H-M "C M C A"
_symmetry_group_IT_number 64
_symmetry_cell_setting 'orthorhombic'
loop_
_space_group_symop_operation_xyz
x,y,z
-x,1/2-y,1/2+z
x,-y,-z
-x,1/2+y,1/2-z
-x,-y,-z
x,1/2+y,1/2-z
-x,y,z
x,1/2-y,1/2+z
1/2+x,1/2+y,z
1/2-x,-y,1/2+z
1/2+x,1/2-y,-z
1/2-x,y,1/2-z
1/2-x,1/2-y,-z
1/2+x,y,1/2-z
1/2-x,1/2+y,z
1/2+x,-y,1/2+z
loop_
_atom_site_type_symbol
_atom_site_label
_atom_site_fract_x
_atom_site_fract_y
_atom_site_fract_z
Si Si1 0.054648 0.340387 0.963579
Si Si2 0.301797 0.438942 0.596063
Si Si3 0.602394 0.456239 0.710656
Si Si4 0.732604 0.721284 0.645585
Si Si5 0.116433 0.760552 0.869821
O O1 0.067787 0.363715 0.855717
O O2 0.000000 0.284470 0.975782
O O3 0.055456 0.500000 0.000000
O O4 0.093014 0.257459 0.027842
O O5 0.323401 0.500000 0.500000
O O6 0.343952 0.420917 0.670521
O O7 0.264586 0.556406 0.630872
O O8 0.271295 0.301318 0.582562
O O9 0.599585 0.398668 0.814995
O O10 0.598902 0.621829 0.688788
O O11 0.750000 0.755505 0.750000
O O12 0.675598 0.757296 0.629455
#
# Coordination Sequence:
#
# PCOD9479045 Si02
#       5
#    16  16  16  16  16
#     4   9  19  38  61  83 109 146 192 238 286 343
#     4  11  22  35  54  81 114 154 195 230 277 338
#     4  10  20  37  58  84 114 149 189 237 281 342
#     4  11  21  35  54  79 116 151 187 230 278 335
#     4  10  21  36  59  84 115 150 190 234 286 341
#
# _framework density 21.209453
#
# number of rings (size 3 to 8) (size 9 to 14) (size 15 to 20)
#    0.000    1.800    2.000    4.200    2.800    0.800 
#    0.000    1.000    0.000    1.200    0.000    0.000 
#    0.000    0.000    0.000    0.000    0.000    0.000 
#
# Total GULP energy -223191.432552 kJ/mol
# GULP energy per Si atom -5579.785814 kJ/mol
# Density = 2.116118 g / cm^3
# Si number density = 21.209453 Si / 1000 Ang^3
#
#
#
# Elastic Constant Matrix: (Units=GPa)
#
#
# Indices 1 2 3 4 5 6 
#
# 1 75.2575 10.7403 -0.0066 0.0000 0.0000 0.0000
# 2 10.7403 13.4498 -11.2326 0.0000 0.0000 0.0000
# 3 -0.0066 -11.2326 22.5837 0.0000 0.0000 0.0000
# 4 0.0000 0.0000 0.0000 34.2757 0.0000 0.0000
# 5 0.0000 0.0000 0.0000 0.0000 16.9987 0.0000
# 6 0.0000 0.0000 0.0000 0.0000 0.0000 12.5936
#
#
#
# Elastic Compliance Matrix: (Units=1/GPa)
#
#
# Indices 1 2 3 4 5 6 
#
# 1 0.016503 -0.022535 -0.011203 0.000000 0.000000 0.000000
# 2 -0.022535 0.157949 0.078553 0.000000 0.000000 0.000000
# 3 -0.011203 0.078553 0.083347 0.000000 0.000000 0.000000
# 4 0.000000 0.000000 0.000000 0.029175 0.000000 0.000000
# 5 0.000000 0.000000 0.000000 0.000000 0.058828 0.000000
# 6 0.000000 0.000000 0.000000 0.000000 0.000000 0.079405
#
#
# Mechanical properties :
#
#
# Convention : Reuss Voigt Hill
#
# Bulk Modulus (GPa) = 2.87828 12.25479 7.56654
# Shear Modulus (GPa) = 11.07699 20.22626 15.65163
#
# Velocity S-wave (km/s) = 2.28779 3.09146 2.71948
# Velocity P-wave (km/s) = 2.88768 4.30504 3.66552
#
# Compressibility (1/GPa) = 0.34742977
#
# Stress axis : x y z
#
# Youngs Moduli (GPa) = 60.59600 6.33116 11.99802
#
# Poissons Ratio (x) = 0.14267 0.13442
# Poissons Ratio (y) = 1.36551 -0.94249
# Poissons Ratio (z) = 0.67888 -0.49733
#
# Static dielectric constant tensor:
#      x y z
#    x 1.769290 0.000000 0.000000 
#    y 0.000000 1.770480 0.000000 
#    z 0.000000 0.000000 1.830390 
# 
# From -- ./inp_files/27061.got.cif
#   From: 2010.05.17/outbox.cif.g08.bks.cpg/sg64_14_cif.got.tgz:27061.got - 2010.06.03 16:29:19.
