data_PCOD9479588
_publ_section_title
;
Structure prediction by ZEFSAII (Michael W. Deem and Ramdas Pophale) SiO2 
 PCOD9479588
Probable space group: C M C A
;
_chemical_formula_sum "Si O2"
_cell_formula_units_Z 120
_cell_length_a 23.574099
_cell_length_b 22.170124
_cell_length_c 9.718187
_cell_angle_alpha 90.000000
_cell_angle_beta 90.000000
_cell_angle_gamma 90.000000
_cell_volume 5079.120037
_symmetry_space_group_name_H-M "C M C A"
_symmetry_group_IT_number 64
_symmetry_cell_setting 'orthorhombic'
loop_
_space_group_symop_operation_xyz
x,y,z
-x,1/2-y,1/2+z
x,-y,-z
-x,1/2+y,1/2-z
-x,-y,-z
x,1/2+y,1/2-z
-x,y,z
x,1/2-y,1/2+z
1/2+x,1/2+y,z
1/2-x,-y,1/2+z
1/2+x,1/2-y,-z
1/2-x,y,1/2-z
1/2-x,1/2-y,-z
1/2+x,y,1/2-z
1/2-x,1/2+y,z
1/2+x,-y,1/2+z
loop_
_atom_site_type_symbol
_atom_site_label
_atom_site_fract_x
_atom_site_fract_y
_atom_site_fract_z
Si Si1 0.101599 0.155158 0.096826
Si Si2 0.329438 0.840964 0.341916
Si Si3 0.746538 0.097645 0.052712
Si Si4 0.357430 0.568731 0.613403
Si Si5 0.144637 0.030219 0.149106
Si Si6 0.562955 0.654937 0.493598
Si Si7 0.328466 0.201731 0.177302
Si Si8 0.500000 0.747300 0.139641
O O1 0.103405 0.087987 0.159172
O O2 0.156179 0.187378 0.165181
O O3 0.048728 0.195543 0.129090
O O4 0.114029 0.152229 0.934892
O O5 0.282934 0.880451 0.421568
O O6 0.339745 0.870557 0.195618
O O7 0.313495 0.771210 0.337727
O O8 0.692159 0.061662 0.997653
O O9 0.791698 0.058272 0.139256
O O10 0.718482 0.156076 0.122383
O O11 0.361828 0.516753 0.727197
O O12 0.415096 0.589441 0.538260
O O13 0.134881 0.000000 0.000000
O O14 0.500000 0.655097 0.424186
O O15 0.612528 0.685696 0.403501
O O16 0.549133 0.699236 0.621672
#
# Coordination Sequence:
#
# PCOD9479588 Si02
#       8
#    16  16  16  16  16  16  16   8
#     4  11  24  41  63  99 132 177 220 283 346 402
#     4  11  21  40  62  97 132 174 218 280 343 421
#     4  10  24  40  64  96 131 184 220 277 358 399
#     4  11  22  44  69  96 134 182 236 278 337 418
#     4  11  24  45  64  95 135 177 228 280 324 421
#     4   9  21  42  69  98 126 174 225 286 349 410
#     4  11  23  40  64 100 135 166 228 284 345 427
#     4  10  20  44  65  98 131 172 225 279 361 409
#
# _framework density 23.626141000000001
#
# number of rings (size 3 to 8) (size 9 to 14) (size 15 to 20)
#    0.400    1.067    4.000    1.600    2.800    4.267 
#    9.600    2.333    0.000    0.800    0.000    0.000 
#    0.000    0.000    0.000    0.000    0.000    0.000 
#
# Total GULP energy -334569.856923 kJ/mol
# GULP energy per Si atom -5576.164282 kJ/mol
# Density = 2.357237 g / cm^3
# Si number density = 23.626141 Si / 1000 Ang^3
#
#
#
# Elastic Constant Matrix: (Units=GPa)
#
#
# Indices 1 2 3 4 5 6 
#
# 1 108.2198 27.8606 -2.0712 0.0000 0.0000 0.0000
# 2 27.8606 155.3347 13.9285 0.0000 0.0000 0.0000
# 3 -2.0712 13.9285 32.4236 0.0000 0.0000 0.0000
# 4 0.0000 0.0000 0.0000 17.6380 0.0000 0.0000
# 5 0.0000 0.0000 0.0000 0.0000 19.1218 0.0000
# 6 0.0000 0.0000 0.0000 0.0000 0.0000 27.7812
#
#
#
# Elastic Compliance Matrix: (Units=1/GPa)
#
#
# Indices 1 2 3 4 5 6 
#
# 1 0.009751 -0.001877 0.001429 0.000000 0.000000 0.000000
# 2 -0.001877 0.007057 -0.003151 0.000000 0.000000 0.000000
# 3 0.001429 -0.003151 0.032287 0.000000 0.000000 0.000000
# 4 0.000000 0.000000 0.000000 0.056696 0.000000 0.000000
# 5 0.000000 0.000000 0.000000 0.000000 0.052296 0.000000
# 6 0.000000 0.000000 0.000000 0.000000 0.000000 0.035996
#
#
# Mechanical properties :
#
#
# Convention : Reuss Voigt Hill
#
# Bulk Modulus (GPa) = 23.86844 41.71263 32.79054
# Shear Modulus (GPa) = 23.22915 29.99219 26.61067
#
# Velocity S-wave (km/s) = 3.13900 3.56680 3.35971
# Velocity P-wave (km/s) = 4.82309 5.88696 5.38138
#
# Compressibility (1/GPa) = 0.04189633
#
# Stress axis : x y z
#
# Youngs Moduli (GPa) = 102.55298 141.70401 30.97237
#
# Poissons Ratio (x) = 0.26599 -0.04427
# Poissons Ratio (y) = 0.19250 0.09761
# Poissons Ratio (z) = -0.14657 0.44657
#
# Static dielectric constant tensor:
#      x y z
#    x 1.882270 0.000000 0.000000 
#    y 0.000000 1.897400 0.000000 
#    z 0.000000 0.000000 1.984720 
# 
# From -- ./inp_files/18594.got.cif
#   From: 2010.05.17/outbox.cif.g08.bks.cpg/sg64_10_cif.got.tgz:18594.got - 2010.06.03 16:29:19.
