data_PCOD9479012
_publ_section_title
;
Structure prediction by ZEFSAII (Michael W. Deem and Ramdas Pophale) SiO2 
 PCOD9479012
Probable space group: C M C A
;
_chemical_formula_sum "Si O2"
_cell_formula_units_Z 80
_cell_length_a 28.690331
_cell_length_b 8.260705
_cell_length_c 14.161732
_cell_angle_alpha 90.000000
_cell_angle_beta 90.000000
_cell_angle_gamma 90.000000
_cell_volume 3356.363916
_symmetry_space_group_name_H-M "C M C A"
_symmetry_group_IT_number 64
_symmetry_cell_setting 'orthorhombic'
loop_
_space_group_symop_operation_xyz
x,y,z
-x,1/2-y,1/2+z
x,-y,-z
-x,1/2+y,1/2-z
-x,-y,-z
x,1/2+y,1/2-z
-x,y,z
x,1/2-y,1/2+z
1/2+x,1/2+y,z
1/2-x,-y,1/2+z
1/2+x,1/2-y,-z
1/2-x,y,1/2-z
1/2-x,1/2-y,-z
1/2+x,y,1/2-z
1/2-x,1/2+y,z
1/2+x,-y,1/2+z
loop_
_atom_site_type_symbol
_atom_site_label
_atom_site_fract_x
_atom_site_fract_y
_atom_site_fract_z
Si Si1 0.118119 0.500000 0.000000
Si Si2 0.650752 0.844520 0.562541
Si Si3 0.550346 0.540760 0.133741
Si Si4 0.181738 0.305918 0.776657
Si Si5 0.923533 0.177464 0.334239
Si Si6 0.250000 0.556202 0.750000
O O1 0.147710 0.664762 0.983180
O O2 0.084436 0.459434 0.912313
O O3 0.677786 0.826817 0.662449
O O4 0.666497 0.000000 0.500000
O O5 0.596324 0.886345 0.585879
O O6 0.500000 0.591842 0.094952
O O7 0.554062 0.345440 0.133360
O O8 0.553493 0.601323 0.241985
O O9 0.129780 0.277323 0.807690
O O10 0.211305 0.460017 0.808526
O O11 0.216158 0.167310 0.809924
#
# Coordination Sequence:
#
# PCOD9479012 Si02
#       6
#     8  16  16  16  16   8
#     4  12  24  40  67 100 126 178 226 268 328 402
#     4  11  23  44  67  94 133 176 219 269 336 401
#     4  11  23  43  67  96 133 176 229 281 330 398
#     4  10  21  40  66  94 128 175 217 268 334 402
#     4  11  22  41  67  95 132 180 222 273 340 404
#     4  10  20  36  68  96 126 162 226 274 320 400
#
# _framework density 23.835315999999999
#
# number of rings (size 3 to 8) (size 9 to 14) (size 15 to 20)
#    0.000    1.200    2.000    6.600    0.000    0.400 
#    0.000    4.500    8.800    0.000    0.000    0.000 
#    0.000    0.000    0.000    0.000    0.000    0.000 
#
# Total GULP energy -223315.345406 kJ/mol
# GULP energy per Si atom -5582.883635 kJ/mol
# Density = 2.378107 g / cm^3
# Si number density = 23.835316 Si / 1000 Ang^3
#
#
#
# Elastic Constant Matrix: (Units=GPa)
#
#
# Indices 1 2 3 4 5 6 
#
# 1 130.9844 13.3279 2.8518 0.0000 0.0000 0.0000
# 2 13.3279 140.5755 18.9563 0.0000 0.0000 0.0000
# 3 2.8518 18.9563 91.0925 0.0000 0.0000 0.0000
# 4 0.0000 0.0000 0.0000 35.3358 0.0000 0.0000
# 5 0.0000 0.0000 0.0000 0.0000 -4.2899 0.0000
# 6 0.0000 0.0000 0.0000 0.0000 0.0000 23.1314
#
#
#
# Elastic Compliance Matrix: (Units=1/GPa)
#
#
# Indices 1 2 3 4 5 6 
#
# 1 0.007710 -0.000719 -0.000092 0.000000 0.000000 0.000000
# 2 -0.000719 0.007386 -0.001515 0.000000 0.000000 0.000000
# 3 -0.000092 -0.001515 0.011296 0.000000 0.000000 0.000000
# 4 0.000000 0.000000 0.000000 0.028300 0.000000 0.000000
# 5 0.000000 0.000000 0.000000 0.000000 -0.233108 0.000000
# 6 0.000000 0.000000 0.000000 0.000000 0.000000 0.043231
#
#
# Mechanical properties :
#
#
# Convention : Reuss Voigt Hill
#
# Bulk Modulus (GPa) = 45.99469 48.10274 47.04871
# Shear Modulus (GPa) = -40.55533 32.66989 -3.94272
#
# Velocity S-wave (km/s) = -4.12938 3.70625 -1.28753
# Velocity P-wave (km/s) = 1.84307 6.20807 4.19185
#
# Compressibility (1/GPa) = 0.02174164
#
# Stress axis : x y z
#
# Youngs Moduli (GPa) = 129.70822 135.39175 88.52775
#
# Poissons Ratio (x) = 0.09729 0.00813
# Poissons Ratio (y) = 0.09320 0.13408
# Poissons Ratio (z) = 0.01191 0.20505
#
# Static dielectric constant tensor:
#      x y z
#    x 1.574780 0.000000 0.000000 
#    y 0.000000 2.031390 0.000000 
#    z 0.000000 0.000000 1.941710 
# 
# From -- ./inp_files/35682.got.cif
#   From: 2010.05.17/outbox.cif.g08.bks.cpg/sg64_18_cif.got.tgz:35682.got - 2010.06.03 16:29:19.
