data_PCOD9479945
_publ_section_title
;
Structure prediction by ZEFSAII (Michael W. Deem and Ramdas Pophale) SiO2 
 PCOD9479945
Probable space group: C M C A
;
_chemical_formula_sum "Si O2"
_cell_formula_units_Z 80
_cell_length_a 22.263784
_cell_length_b 26.529665
_cell_length_c 5.346701
_cell_angle_alpha 90.000000
_cell_angle_beta 90.000000
_cell_angle_gamma 90.000000
_cell_volume 3158.032855
_symmetry_space_group_name_H-M "C M C A"
_symmetry_group_IT_number 64
_symmetry_cell_setting 'orthorhombic'
loop_
_space_group_symop_operation_xyz
x,y,z
-x,1/2-y,1/2+z
x,-y,-z
-x,1/2+y,1/2-z
-x,-y,-z
x,1/2+y,1/2-z
-x,y,z
x,1/2-y,1/2+z
1/2+x,1/2+y,z
1/2-x,-y,1/2+z
1/2+x,1/2-y,-z
1/2-x,y,1/2-z
1/2-x,1/2-y,-z
1/2+x,y,1/2-z
1/2-x,1/2+y,z
1/2+x,-y,1/2+z
loop_
_atom_site_type_symbol
_atom_site_label
_atom_site_fract_x
_atom_site_fract_y
_atom_site_fract_z
Si Si1 0.069121 0.073625 0.629523
Si Si2 0.932127 0.181625 0.887941
Si Si3 0.353038 0.137534 0.224146
Si Si4 0.829422 0.777665 0.395218
Si Si5 0.661340 0.000000 0.000000
Si Si6 0.250000 0.922053 0.750000
O O1 0.068815 0.122325 0.808446
O O2 0.098153 0.097996 0.378476
O O3 0.114628 0.027918 0.688921
O O4 0.000000 0.057669 0.599776
O O5 0.901047 0.213639 0.668802
O O6 0.000000 0.196467 0.936682
O O7 0.888817 0.179845 0.126180
O O8 0.300752 0.111661 0.383396
O O9 0.318148 0.165629 0.996939
O O10 0.808811 0.757371 0.125946
O O11 0.707274 0.042824 0.087052
#
# Coordination Sequence:
#
# PCOD9479945 Si02
#       6
#    16  16  16  16   8   8
#     4   9  19  36  59  91 130 177 226 281 353 423
#     4  10  21  37  63  94 132 178 220 276 350 418
#     4  10  21  41  63  92 139 185 230 287 350 420
#     4  11  22  42  66  99 135 173 226 280 334 408
#     4  10  21  38  62  92 127 172 230 298 344 416
#     4  10  24  40  64  98 130 184 238 296 358 416
#
# _framework density 25.332227
#
# number of rings (size 3 to 8) (size 9 to 14) (size 15 to 20)
#    0.000    2.000    2.000    0.900    2.800    1.600 
#    0.000    1.000    0.000    6.000    0.000    0.000 
#    0.000    0.000    0.000    0.000    0.000    0.000 
#
# Total GULP energy -222962.524572 kJ/mol
# GULP energy per Si atom -5574.063114 kJ/mol
# Density = 2.527457 g / cm^3
# Si number density = 25.332227 Si / 1000 Ang^3
#
#
#
# Elastic Constant Matrix: (Units=GPa)
#
#
# Indices 1 2 3 4 5 6 
#
# 1 163.2866 39.2849 52.6784 0.0000 0.0000 0.0000
# 2 39.2849 87.1616 24.4233 0.0000 0.0000 0.0000
# 3 52.6784 24.4233 105.3831 0.0000 0.0000 0.0000
# 4 0.0000 0.0000 0.0000 8.6376 0.0000 0.0000
# 5 0.0000 0.0000 0.0000 0.0000 26.9626 0.0000
# 6 0.0000 0.0000 0.0000 0.0000 0.0000 23.2933
#
#
#
# Elastic Compliance Matrix: (Units=1/GPa)
#
#
# Indices 1 2 3 4 5 6 
#
# 1 0.007815 -0.002596 -0.003305 0.000000 0.000000 0.000000
# 2 -0.002596 0.013132 -0.001746 0.000000 0.000000 0.000000
# 3 -0.003305 -0.001746 0.011546 0.000000 0.000000 0.000000
# 4 0.000000 0.000000 0.000000 0.115773 0.000000 0.000000
# 5 0.000000 0.000000 0.000000 0.000000 0.037088 0.000000
# 6 0.000000 0.000000 0.000000 0.000000 0.000000 0.042931
#
#
# Mechanical properties :
#
#
# Convention : Reuss Voigt Hill
#
# Bulk Modulus (GPa) = 58.14138 65.40052 61.77095
# Shear Modulus (GPa) = 20.05520 27.74169 23.89844
#
# Velocity S-wave (km/s) = 2.81675 3.31284 3.07482
# Velocity P-wave (km/s) = 5.79484 6.36446 6.08632
#
# Compressibility (1/GPa) = 0.01719946
#
# Stress axis : x y z
#
# Youngs Moduli (GPa) = 127.95875 76.14826 86.61191
#
# Poissons Ratio (x) = 0.19770 0.28624
# Poissons Ratio (y) = 0.33222 0.15120
# Poissons Ratio (z) = 0.42288 0.13293
#
# Static dielectric constant tensor:
#      x y z
#    x 2.012230 0.000000 0.000000 
#    y 0.000000 2.108580 0.000000 
#    z 0.000000 0.000000 2.058650 
# 
# From -- ./inp_files/2380.got.cif
#   From: 2010.05.17/outbox.cif.g08.bks.cpg/sg64_2_cif.got.tgz:2380.got - 2010.06.03 16:29:19.
