data_PCOD9479362
_publ_section_title
;
Structure prediction by ZEFSAII (Michael W. Deem and Ramdas Pophale) SiO2 
 PCOD9479362
Probable space group: C M C A
;
_chemical_formula_sum "Si O2"
_cell_formula_units_Z 96
_cell_length_a 17.582949
_cell_length_b 16.566664
_cell_length_c 18.349500
_cell_angle_alpha 90.000000
_cell_angle_beta 90.000000
_cell_angle_gamma 90.000000
_cell_volume 5345.040685
_symmetry_space_group_name_H-M "C M C A"
_symmetry_group_IT_number 64
_symmetry_cell_setting 'orthorhombic'
loop_
_space_group_symop_operation_xyz
x,y,z
-x,1/2-y,1/2+z
x,-y,-z
-x,1/2+y,1/2-z
-x,-y,-z
x,1/2+y,1/2-z
-x,y,z
x,1/2-y,1/2+z
1/2+x,1/2+y,z
1/2-x,-y,1/2+z
1/2+x,1/2-y,-z
1/2-x,y,1/2-z
1/2-x,1/2-y,-z
1/2+x,y,1/2-z
1/2-x,1/2+y,z
1/2+x,-y,1/2+z
loop_
_atom_site_type_symbol
_atom_site_label
_atom_site_fract_x
_atom_site_fract_y
_atom_site_fract_z
Si Si1 0.683902 0.679099 0.414856
Si Si2 0.352654 0.638511 0.670330
Si Si3 0.412781 0.583887 0.970552
Si Si4 0.329498 0.660778 0.834724
Si Si5 0.911383 0.981085 0.586171
Si Si6 0.643955 0.724730 0.061734
O O1 0.661745 0.744832 0.354052
O O2 0.644531 0.594164 0.400059
O O3 0.657154 0.714476 0.493316
O O4 0.775366 0.682336 0.419514
O O5 0.365176 0.640782 0.756784
O O6 0.260581 0.641570 0.663089
O O7 0.386070 0.559477 0.631805
O O8 0.381267 0.718762 0.628294
O O9 0.500000 0.570718 0.949698
O O10 0.367181 0.613437 0.900810
O O11 0.380551 0.500000 0.000000
O O12 0.408116 0.653426 0.031697
O O13 0.000000 0.961411 0.601888
O O14 0.906037 0.000000 0.500000
#
# Coordination Sequence:
#
# PCOD9479362 Si02
#       6
#    16  16  16  16  16  16
#     4   9  18  35  56  85 111 146 193 231 280 340
#     4  10  20  39  59  88 117 146 194 237 291 347
#     4  10  22  37  56  83 111 149 198 236 277 338
#     4   9  21  39  60  83 113 155 192 235 285 340
#     4  11  23  35  56  90 122 149 186 238 296 352
#     4   9  18  34  60  81 108 148 189 237 280 337
#
# _framework density 17.960574000000001
#
# number of rings (size 3 to 8) (size 9 to 14) (size 15 to 20)
#    0.000    2.333    1.667    1.000    2.333    4.000 
#    3.000    1.667    0.000    0.000    0.000    0.000 
#    0.000    0.000    0.000    0.000    0.000    0.000 
#
# Total GULP energy -267693.438962 kJ/mol
# GULP energy per Si atom -5576.946645 kJ/mol
# Density = 1.791969 g / cm^3
# Si number density = 17.960574 Si / 1000 Ang^3
#
#
#
# Elastic Constant Matrix: (Units=GPa)
#
#
# Indices 1 2 3 4 5 6 
#
# 1 30.6602 40.3486 27.1476 0.0000 0.0000 0.0000
# 2 40.3486 117.4189 53.6336 0.0000 0.0000 0.0000
# 3 27.1476 53.6336 104.7973 0.0000 0.0000 0.0000
# 4 0.0000 0.0000 0.0000 23.9131 0.0000 0.0000
# 5 0.0000 0.0000 0.0000 0.0000 4.9947 0.0000
# 6 0.0000 0.0000 0.0000 0.0000 0.0000 141.6286
#
#
#
# Elastic Compliance Matrix: (Units=1/GPa)
#
#
# Indices 1 2 3 4 5 6 
#
# 1 0.063096 -0.018553 -0.006850 0.000000 0.000000 0.000000
# 2 -0.018553 0.016570 -0.003674 0.000000 0.000000 0.000000
# 3 -0.006850 -0.003674 0.013197 0.000000 0.000000 0.000000
# 4 0.000000 0.000000 0.000000 0.041818 0.000000 0.000000
# 5 0.000000 0.000000 0.000000 0.000000 0.200212 0.000000
# 6 0.000000 0.000000 0.000000 0.000000 0.000000 0.007061
#
#
# Mechanical properties :
#
#
# Convention : Reuss Voigt Hill
#
# Bulk Modulus (GPa) = 28.81069 55.01512 41.91290
# Shear Modulus (GPa) = 12.14543 42.89040 27.51792
#
# Velocity S-wave (km/s) = 2.60326 4.89205 3.91849
# Velocity P-wave (km/s) = 5.01117 7.91246 6.62265
#
# Compressibility (1/GPa) = 0.03470934
#
# Stress axis : x y z
#
# Youngs Moduli (GPa) = 15.84886 60.34967 75.77426
#
# Poissons Ratio (x) = 1.11966 0.51904
# Poissons Ratio (y) = 0.29404 0.27841
# Poissons Ratio (z) = 0.10856 0.22174
#
# Static dielectric constant tensor:
#      x y z
#    x 1.621780 0.000000 0.000000 
#    y 0.000000 1.603180 0.000000 
#    z 0.000000 0.000000 1.603920 
# 
# From -- ./inp_files/33291.got.cif
#   From: 2010.05.17/outbox.cif.g08.bks.cpg/sg64_17_cif.got.tgz:33291.got - 2010.06.03 16:29:19.
