data_PCOD9479767
_publ_section_title
;
Structure prediction by ZEFSAII (Michael W. Deem and Ramdas Pophale) SiO2 
 PCOD9479767
Probable space group: C M C A
;
_chemical_formula_sum "Si O2"
_cell_formula_units_Z 116
_cell_length_a 26.545188
_cell_length_b 9.774679
_cell_length_c 24.819657
_cell_angle_alpha 90.000000
_cell_angle_beta 90.000000
_cell_angle_gamma 90.000000
_cell_volume 6439.973569
_symmetry_space_group_name_H-M "C M C A"
_symmetry_group_IT_number 64
_symmetry_cell_setting 'orthorhombic'
loop_
_space_group_symop_operation_xyz
x,y,z
-x,1/2-y,1/2+z
x,-y,-z
-x,1/2+y,1/2-z
-x,-y,-z
x,1/2+y,1/2-z
-x,y,z
x,1/2-y,1/2+z
1/2+x,1/2+y,z
1/2-x,-y,1/2+z
1/2+x,1/2-y,-z
1/2-x,y,1/2-z
1/2-x,1/2-y,-z
1/2+x,y,1/2-z
1/2-x,1/2+y,z
1/2+x,-y,1/2+z
loop_
_atom_site_type_symbol
_atom_site_label
_atom_site_fract_x
_atom_site_fract_y
_atom_site_fract_z
Si Si1 0.441886 0.544117 0.612480
Si Si2 0.792521 0.325347 0.872465
Si Si3 0.500000 0.000000 0.500000
Si Si4 0.799648 0.580869 0.712438
Si Si5 0.912320 0.175091 0.055455
Si Si6 0.128772 0.372462 0.964532
Si Si7 0.320183 0.148019 0.372117
Si Si8 0.850022 0.071477 0.682211
O O1 0.500000 0.513473 0.621484
O O2 0.435396 0.698640 0.590110
O O3 0.417458 0.441551 0.568413
O O4 0.406315 0.533053 0.664657
O O5 0.791677 0.194130 0.833501
O O6 0.831122 0.318135 0.921712
O O7 0.736563 0.353712 0.894644
O O8 0.813431 0.447665 0.834922
O O9 0.544443 0.073134 0.462920
O O10 0.750000 0.571885 0.750000
O O11 0.814861 0.443885 0.681225
O O12 0.842961 0.611347 0.755937
O O13 0.865830 0.107941 0.088471
O O14 0.889476 0.253037 0.003509
O O15 0.149710 0.500000 0.000000
O O16 0.333057 0.301708 0.354364
#
# Coordination Sequence:
#
# PCOD9479767 Si02
#       8
#    16  16   4  16  16  16  16  16
#     4   9  18  38  64  85 106 150 205 255 291 350
#     4  11  21  37  60  90 121 154 199 242 289 366
#     4  12  24  40  58  76 120 160 200 242 306 356
#     4  12  22  35  60  88 122 161 194 244 294 360
#     4  10  23  38  58  83 114 158 195 242 299 354
#     4   9  21  38  61  89 117 150 199 247 303 348
#     4  11  22  38  58  87 121 156 198 236 303 360
#     4  10  21  36  59  86 119 156 198 246 299 353
#
# _framework density 18.012497
#
# number of rings (size 3 to 8) (size 9 to 14) (size 15 to 20)
#    0.000    1.655    3.448    1.655    2.897    1.379 
#    1.241    0.000    1.517    8.276    0.000    0.000 
#    0.000    0.000    0.000    0.000    0.000    0.000 
#
# Total GULP energy -322977.613614 kJ/mol
# GULP energy per Si atom -5568.579545 kJ/mol
# Density = 1.797150 g / cm^3
# Si number density = 18.012497 Si / 1000 Ang^3
#
#
#
# Elastic Constant Matrix: (Units=GPa)
#
#
# Indices 1 2 3 4 5 6 
#
# 1 139.8699 18.8384 55.9556 0.0000 0.0000 0.0000
# 2 18.8384 29.0670 6.7776 0.0000 0.0000 0.0000
# 3 55.9556 6.7776 76.1356 0.0000 0.0000 0.0000
# 4 0.0000 0.0000 0.0000 27.3048 0.0000 0.0000
# 5 0.0000 0.0000 0.0000 0.0000 16.1435 0.0000
# 6 0.0000 0.0000 0.0000 0.0000 0.0000 12.4516
#
#
#
# Elastic Compliance Matrix: (Units=1/GPa)
#
#
# Indices 1 2 3 4 5 6 
#
# 1 0.010870 -0.005292 -0.007518 0.000000 0.000000 0.000000
# 2 -0.005292 0.037709 0.000532 0.000000 0.000000 0.000000
# 3 -0.007518 0.000532 0.018612 0.000000 0.000000 0.000000
# 4 0.000000 0.000000 0.000000 0.036624 0.000000 0.000000
# 5 0.000000 0.000000 0.000000 0.000000 0.061944 0.000000
# 6 0.000000 0.000000 0.000000 0.000000 0.000000 0.080311
#
#
# Mechanical properties :
#
#
# Convention : Reuss Voigt Hill
#
# Bulk Modulus (GPa) = 23.45410 45.35730 34.40570
# Shear Modulus (GPa) = 17.55399 22.08005 19.81702
#
# Velocity S-wave (km/s) = 3.12516 3.50497 3.32050
# Velocity P-wave (km/s) = 5.10602 6.45100 5.81751
#
# Compressibility (1/GPa) = 0.04263646
#
# Stress axis : x y z
#
# Youngs Moduli (GPa) = 91.99933 26.51908 53.72859
#
# Poissons Ratio (x) = 0.14033 0.40391
# Poissons Ratio (y) = 0.48684 -0.02860
# Poissons Ratio (z) = 0.69161 -0.01412
#
# Static dielectric constant tensor:
#      x y z
#    x 1.624020 0.000000 0.000000 
#    y 0.000000 1.636590 0.000000 
#    z 0.000000 0.000000 1.624030 
# 
# From -- ./inp_files/46941.got.cif
#   From: 2010.05.17/outbox.cif.g08.bks.cpg/sg64_24_cif.got.tgz:46941.got - 2010.06.03 16:29:19.
