data_PCOD9479829
_publ_section_title
;
Structure prediction by ZEFSAII (Michael W. Deem and Ramdas Pophale) SiO2 
 PCOD9479829
Probable space group: C M C A
;
_chemical_formula_sum "Si O2"
_cell_formula_units_Z 96
_cell_length_a 14.323367
_cell_length_b 29.014062
_cell_length_c 11.612648
_cell_angle_alpha 90.000000
_cell_angle_beta 90.000000
_cell_angle_gamma 90.000000
_cell_volume 4825.973319
_symmetry_space_group_name_H-M "C M C A"
_symmetry_group_IT_number 64
_symmetry_cell_setting 'orthorhombic'
loop_
_space_group_symop_operation_xyz
x,y,z
-x,1/2-y,1/2+z
x,-y,-z
-x,1/2+y,1/2-z
-x,-y,-z
x,1/2+y,1/2-z
-x,y,z
x,1/2-y,1/2+z
1/2+x,1/2+y,z
1/2-x,-y,1/2+z
1/2+x,1/2-y,-z
1/2-x,y,1/2-z
1/2-x,1/2-y,-z
1/2+x,y,1/2-z
1/2-x,1/2+y,z
1/2+x,-y,1/2+z
loop_
_atom_site_type_symbol
_atom_site_label
_atom_site_fract_x
_atom_site_fract_y
_atom_site_fract_z
Si Si1 0.890988 0.353340 0.403379
Si Si2 0.500000 0.565700 0.617711
Si Si3 0.390382 0.709924 0.683620
Si Si4 0.500000 0.037725 0.153962
Si Si5 0.165167 0.397930 0.816797
Si Si6 0.889317 0.313714 0.660506
Si Si7 0.689371 0.879717 0.085385
O O1 0.886575 0.311417 0.311953
O O2 0.875603 0.334464 0.532909
O O3 0.798814 0.385043 0.377514
O O4 0.000000 0.371231 0.396676
O O5 0.500000 0.516248 0.678740
O O6 0.500000 0.550346 0.482878
O O7 0.402758 0.593752 0.637947
O O8 0.500000 0.709094 0.648058
O O9 0.353389 0.761687 0.673180
O O10 0.333911 0.673791 0.606982
O O11 0.585637 0.065453 0.202774
O O12 0.250000 0.419044 0.750000
O O13 0.145769 0.349081 0.756364
O O14 0.183664 0.391245 0.950894
O O15 0.000000 0.310402 0.678439
#
# Coordination Sequence:
#
# PCOD9479829 Si02
#       7
#    16   8  16   8  16  16  16
#     4  10  22  39  55  84 123 173 201 251 298 360
#     4   9  20  40  67  95 111 155 203 258 312 359
#     4  10  22  37  57  87 124 165 215 251 293 355
#     4   9  20  40  65  91 123 145 197 262 312 365
#     4  11  21  36  61  94 121 159 201 252 312 363
#     4  10  21  37  56  85 127 168 206 249 305 364
#     4  11  21  38  63  87 123 163 206 257 299 365
#
# _framework density 19.89236
#
# number of rings (size 3 to 8) (size 9 to 14) (size 15 to 20)
#    0.000    1.833    3.333    0.500    2.333    2.000 
#    0.000    1.667    0.000    0.000    0.000    3.500 
#    0.000    0.000    0.000    0.000    0.000    0.000 
#
# Total GULP energy -267494.627308 kJ/mol
# GULP energy per Si atom -5572.804736 kJ/mol
# Density = 1.984708 g / cm^3
# Si number density = 19.892360 Si / 1000 Ang^3
#
#
#
# Elastic Constant Matrix: (Units=GPa)
#
#
# Indices 1 2 3 4 5 6 
#
# 1 178.6009 79.5595 34.4602 0.0000 0.0000 0.0000
# 2 79.5595 107.7306 9.7864 0.0000 0.0000 0.0000
# 3 34.4602 9.7864 46.4305 0.0000 0.0000 0.0000
# 4 0.0000 0.0000 0.0000 318.2198 0.0000 0.0000
# 5 0.0000 0.0000 0.0000 0.0000 22.2181 0.0000
# 6 0.0000 0.0000 0.0000 0.0000 0.0000 29.9379
#
#
#
# Elastic Compliance Matrix: (Units=1/GPa)
#
#
# Indices 1 2 3 4 5 6 
#
# 1 0.009656 -0.006607 -0.005774 0.000000 0.000000 0.000000
# 2 -0.006607 0.013984 0.001956 0.000000 0.000000 0.000000
# 3 -0.005774 0.001956 0.025411 0.000000 0.000000 0.000000
# 4 0.000000 0.000000 0.000000 0.003142 0.000000 0.000000
# 5 0.000000 0.000000 0.000000 0.000000 0.045008 0.000000
# 6 0.000000 0.000000 0.000000 0.000000 0.000000 0.033403
#
#
# Mechanical properties :
#
#
# Convention : Reuss Voigt Hill
#
# Bulk Modulus (GPa) = 35.45975 64.48604 49.97290
# Shear Modulus (GPa) = 31.08408 88.00554 59.54481
#
# Velocity S-wave (km/s) = 3.95728 6.65860 5.47709
# Velocity P-wave (km/s) = 6.22452 9.57099 8.07305
#
# Compressibility (1/GPa) = 0.02820099
#
# Stress axis : x y z
#
# Youngs Moduli (GPa) = 103.56111 71.51173 39.35332
#
# Poissons Ratio (x) = 0.47245 0.22723
# Poissons Ratio (y) = 0.68418 -0.07697
# Poissons Ratio (z) = 0.59798 -0.13987
#
# Static dielectric constant tensor:
#      x y z
#    x 1.792450 0.000000 0.000000 
#    y 0.000000 1.685890 0.000000 
#    z 0.000000 0.000000 1.704000 
# 
# From -- ./inp_files/14909.got.cif
#   From: 2010.05.17/outbox.cif.g08.bks.cpg/sg64_8_cif.got.tgz:14909.got - 2010.06.03 16:29:19.
