data_PCOD9479326
_publ_section_title
;
Structure prediction by ZEFSAII (Michael W. Deem and Ramdas Pophale) SiO2 
 PCOD9479326
Probable space group: C M C A
;
_chemical_formula_sum "Si O2"
_cell_formula_units_Z 56
_cell_length_a 8.783478
_cell_length_b 15.877954
_cell_length_c 18.172723
_cell_angle_alpha 90.000000
_cell_angle_beta 90.000000
_cell_angle_gamma 90.000000
_cell_volume 2534.434455
_symmetry_space_group_name_H-M "C M C A"
_symmetry_group_IT_number 64
_symmetry_cell_setting 'orthorhombic'
loop_
_space_group_symop_operation_xyz
x,y,z
-x,1/2-y,1/2+z
x,-y,-z
-x,1/2+y,1/2-z
-x,-y,-z
x,1/2+y,1/2-z
-x,y,z
x,1/2-y,1/2+z
1/2+x,1/2+y,z
1/2-x,-y,1/2+z
1/2+x,1/2-y,-z
1/2-x,y,1/2-z
1/2-x,1/2-y,-z
1/2+x,y,1/2-z
1/2-x,1/2+y,z
1/2+x,-y,1/2+z
loop_
_atom_site_type_symbol
_atom_site_label
_atom_site_fract_x
_atom_site_fract_y
_atom_site_fract_z
Si Si1 0.500000 0.510050 0.833440
Si Si2 0.669747 0.031830 0.916102
Si Si3 0.774652 0.726964 0.915611
Si Si4 0.500000 0.674235 0.174806
Si Si5 0.000000 0.194963 0.806386
O O1 0.335332 0.512497 0.877208
O O2 0.500000 0.419523 0.795001
O O3 0.500000 0.595934 0.786367
O O4 0.500000 0.000077 0.889064
O O5 0.657089 0.133205 0.915471
O O6 0.684051 0.000000 0.000000
O O7 0.637566 0.714635 0.859933
O O8 0.862215 0.804607 0.879222
O O9 0.750000 0.750000 0.000000
O O10 0.500000 0.745125 0.236889
#
# Coordination Sequence:
#
# PCOD9479326 Si02
#       5
#     8  16  16   8   8
#     4  10  23  44  68  93 140 192 231 285 360 430
#     4  10  20  38  66 101 139 182 233 292 351 416
#     4  11  22  41  69 101 136 179 233 293 344 413
#     4  12  23  45  69 100 140 180 230 290 355 419
#     4  10  25  45  68  99 137 184 231 285 356 423
#
# _framework density 22.095658
#
# number of rings (size 3 to 8) (size 9 to 14) (size 15 to 20)
#    0.000    1.429    1.429    3.857    0.000    2.286 
#    2.571   14.286    0.000    0.000    0.000    0.000 
#    0.000    0.000    0.000    0.000    0.000    0.000 
#
# Total GULP energy -155950.499805 kJ/mol
# GULP energy per Si atom -5569.660707 kJ/mol
# Density = 2.204537 g / cm^3
# Si number density = 22.095658 Si / 1000 Ang^3
#
#
#
# Elastic Constant Matrix: (Units=GPa)
#
#
# Indices 1 2 3 4 5 6 
#
# 1 124.8453 34.4297 22.6832 0.0000 0.0000 0.0000
# 2 34.4297 153.8199 49.4799 0.0000 0.0000 0.0000
# 3 22.6832 49.4799 117.9732 0.0000 0.0000 0.0000
# 4 0.0000 0.0000 0.0000 41.9442 0.0000 0.0000
# 5 0.0000 0.0000 0.0000 0.0000 -47.4121 0.0000
# 6 0.0000 0.0000 0.0000 0.0000 0.0000 17.4247
#
#
#
# Elastic Compliance Matrix: (Units=1/GPa)
#
#
# Indices 1 2 3 4 5 6 
#
# 1 0.008634 -0.001617 -0.000982 0.000000 0.000000 0.000000
# 2 -0.001617 0.007818 -0.002968 0.000000 0.000000 0.000000
# 3 -0.000982 -0.002968 0.009910 0.000000 0.000000 0.000000
# 4 0.000000 0.000000 0.000000 0.023841 0.000000 0.000000
# 5 0.000000 0.000000 0.000000 0.000000 -0.021092 0.000000
# 6 0.000000 0.000000 0.000000 0.000000 0.000000 0.057390
#
#
# Mechanical properties :
#
#
# Convention : Reuss Voigt Hill
#
# Bulk Modulus (GPa) = 65.66636 67.75821 66.71229
# Shear Modulus (GPa) = 48.68021 21.72773 35.20397
#
# Velocity S-wave (km/s) = 4.69887 3.13924 3.99589
# Velocity P-wave (km/s) = 7.69564 6.62361 7.17966
#
# Compressibility (1/GPa) = 0.01522850
#
# Stress axis : x y z
#
# Youngs Moduli (GPa) = 115.81859 127.91462 100.90651
#
# Poissons Ratio (x) = 0.20680 0.09910
# Poissons Ratio (y) = 0.18724 0.29949
# Poissons Ratio (z) = 0.11374 0.37965
#
# Static dielectric constant tensor:
#      x y z
#    x 1.924920 0.000000 0.000000 
#    y 0.000000 1.787380 0.000000 
#    z 0.000000 0.000000 1.758680 
# 
# From -- ./inp_files/29120.got.cif
#   From: 2010.05.17/outbox.cif.g08.bks.cpg/sg64_15_cif.got.tgz:29120.got - 2010.06.03 16:29:19.
