data_PCOD9479131
_publ_section_title
;
Structure prediction by ZEFSAII (Michael W. Deem and Ramdas Pophale) SiO2 
 PCOD9479131
Probable space group: C M C A
;
_chemical_formula_sum "Si O2"
_cell_formula_units_Z 104
_cell_length_a 19.938200
_cell_length_b 15.737022
_cell_length_c 13.776203
_cell_angle_alpha 90.000000
_cell_angle_beta 90.000000
_cell_angle_gamma 90.000000
_cell_volume 4322.530176
_symmetry_space_group_name_H-M "C M C A"
_symmetry_group_IT_number 64
_symmetry_cell_setting 'orthorhombic'
loop_
_space_group_symop_operation_xyz
x,y,z
-x,1/2-y,1/2+z
x,-y,-z
-x,1/2+y,1/2-z
-x,-y,-z
x,1/2+y,1/2-z
-x,y,z
x,1/2-y,1/2+z
1/2+x,1/2+y,z
1/2-x,-y,1/2+z
1/2+x,1/2-y,-z
1/2-x,y,1/2-z
1/2-x,1/2-y,-z
1/2+x,y,1/2-z
1/2-x,1/2+y,z
1/2+x,-y,1/2+z
loop_
_atom_site_type_symbol
_atom_site_label
_atom_site_fract_x
_atom_site_fract_y
_atom_site_fract_z
Si Si1 0.706546 0.123238 0.999400
Si Si2 0.654287 0.306567 0.007150
Si Si3 0.500000 0.126108 0.095672
Si Si4 0.631226 0.371996 0.296101
Si Si5 0.500000 0.743663 0.721524
Si Si6 0.177959 0.796589 0.776749
Si Si7 0.500000 0.790981 0.510744
Si Si8 0.369608 0.947837 0.835838
O O1 0.784774 0.128628 0.969894
O O2 0.690762 0.058479 0.086207
O O3 0.681397 0.214800 0.043540
O O4 0.659236 0.116585 0.905508
O O5 0.661786 0.298021 0.890339
O O6 0.574488 0.320440 0.028465
O O7 0.500000 0.198820 0.181575
O O8 0.436674 0.064508 0.102071
O O9 0.500000 0.188632 0.004027
O O10 0.562383 0.320741 0.286886
O O11 0.676411 0.301562 0.243260
O O12 0.629449 0.469927 0.267144
O O13 0.500000 0.803582 0.626485
O O14 0.250000 0.831614 0.750000
O O15 0.129452 0.863315 0.728388
#
# Coordination Sequence:
#
# PCOD9479131 Si02
#       8
#    16  16   8  16   8  16   8  16
#     4  10  20  37  62  93 129 169 213 272 342 390
#     4  10  20  37  63  91 131 173 219 268 326 405
#     4  12  23  37  68  98 134 183 223 272 338 408
#     4  11  24  39  64  96 137 168 218 282 334 395
#     4  12  21  43  60  98 138 175 223 274 334 402
#     4  11  22  40  64  91 130 174 221 274 330 397
#     4  12  20  38  67  98 129 182 222 268 341 404
#     4  12  22  39  65  98 129 173 223 272 335 401
#
# _framework density 24.059982999999999
#
# number of rings (size 3 to 8) (size 9 to 14) (size 15 to 20)
#    0.000    0.923    7.692    0.923    0.000    0.615 
#    0.000    2.308    0.000    0.000    0.000   14.000 
#    0.000    0.000    0.000    0.000    0.000    0.000 
#
# Total GULP energy -290053.056204 kJ/mol
# GULP energy per Si atom -5577.943389 kJ/mol
# Density = 2.400522 g / cm^3
# Si number density = 24.059983 Si / 1000 Ang^3
#
#
#
# Elastic Constant Matrix: (Units=GPa)
#
#
# Indices 1 2 3 4 5 6 
#
# 1 182.7850 11.1592 -0.8840 0.0000 0.0000 0.0000
# 2 11.1592 99.8965 19.3259 0.0000 0.0000 0.0000
# 3 -0.8840 19.3259 53.8166 0.0000 0.0000 0.0000
# 4 0.0000 0.0000 0.0000 28.8562 0.0000 0.0000
# 5 0.0000 0.0000 0.0000 0.0000 21.0405 0.0000
# 6 0.0000 0.0000 0.0000 0.0000 0.0000 15.7710
#
#
#
# Elastic Compliance Matrix: (Units=1/GPa)
#
#
# Indices 1 2 3 4 5 6 
#
# 1 0.005514 -0.000681 0.000335 0.000000 0.000000 0.000000
# 2 -0.000681 0.010842 -0.003905 0.000000 0.000000 0.000000
# 3 0.000335 -0.003905 0.019989 0.000000 0.000000 0.000000
# 4 0.000000 0.000000 0.000000 0.034655 0.000000 0.000000
# 5 0.000000 0.000000 0.000000 0.000000 0.047527 0.000000
# 6 0.000000 0.000000 0.000000 0.000000 0.000000 0.063407
#
#
# Mechanical properties :
#
#
# Convention : Reuss Voigt Hill
#
# Bulk Modulus (GPa) = 35.91358 43.96669 39.94014
# Shear Modulus (GPa) = 25.03547 33.59333 29.31440
#
# Velocity S-wave (km/s) = 3.22925 3.74067 3.49433
# Velocity P-wave (km/s) = 5.37244 6.08032 5.73731
#
# Compressibility (1/GPa) = 0.02784462
#
# Stress axis : x y z
#
# Youngs Moduli (GPa) = 181.35350 92.23581 50.02678
#
# Poissons Ratio (x) = 0.06279 -0.01676
# Poissons Ratio (y) = 0.12346 0.19533
# Poissons Ratio (z) = -0.06076 0.36014
#
# Static dielectric constant tensor:
#      x y z
#    x 2.043720 0.000000 0.000000 
#    y 0.000000 1.988510 0.000000 
#    z 0.000000 0.000000 1.969190 
# 
# From -- ./inp_files/26584.got.cif
#   From: 2010.05.17/outbox.cif.g08.bks.cpg/sg64_14_cif.got.tgz:26584.got - 2010.06.03 16:29:19.
