data_PCOD9479713
_publ_section_title
;
Structure prediction by ZEFSAII (Michael W. Deem and Ramdas Pophale) SiO2 
 PCOD9479713
Probable space group: C M C A
;
_chemical_formula_sum "Si O2"
_cell_formula_units_Z 96
_cell_length_a 11.018269
_cell_length_b 24.805097
_cell_length_c 19.396886
_cell_angle_alpha 90.000000
_cell_angle_beta 90.000000
_cell_angle_gamma 90.000000
_cell_volume 5301.348003
_symmetry_space_group_name_H-M "C M C A"
_symmetry_group_IT_number 64
_symmetry_cell_setting 'orthorhombic'
loop_
_space_group_symop_operation_xyz
x,y,z
-x,1/2-y,1/2+z
x,-y,-z
-x,1/2+y,1/2-z
-x,-y,-z
x,1/2+y,1/2-z
-x,y,z
x,1/2-y,1/2+z
1/2+x,1/2+y,z
1/2-x,-y,1/2+z
1/2+x,1/2-y,-z
1/2-x,y,1/2-z
1/2-x,1/2-y,-z
1/2+x,y,1/2-z
1/2-x,1/2+y,z
1/2+x,-y,1/2+z
loop_
_atom_site_type_symbol
_atom_site_label
_atom_site_fract_x
_atom_site_fract_y
_atom_site_fract_z
Si Si1 0.229592 0.831500 0.449285
Si Si2 0.000000 0.525587 0.103860
Si Si3 0.000000 0.089655 0.540681
Si Si4 0.634393 0.630332 0.200991
Si Si5 0.141326 0.431613 0.453168
Si Si6 0.358599 0.281736 0.918080
Si Si7 0.228667 0.460188 0.605842
O O1 0.114205 0.870854 0.453762
O O2 0.333466 0.872260 0.424226
O O3 0.277052 0.809715 0.523037
O O4 0.193691 0.778208 0.407493
O O5 0.132174 0.541513 0.132262
O O6 0.000000 0.460671 0.093624
O O7 0.000000 0.557305 0.031034
O O8 0.500000 0.631196 0.233883
O O9 0.750000 0.632597 0.250000
O O10 0.642892 0.680650 0.148568
O O11 0.648130 0.576637 0.154715
O O12 0.210201 0.438764 0.526943
O O13 0.188043 0.478019 0.402423
O O14 0.000000 0.439485 0.467393
O O15 0.500000 0.277716 0.941329
#
# Coordination Sequence:
#
# PCOD9479713 Si02
#       7
#    16   8   8  16  16  16  16
#     4  11  19  31  53  83 113 146 177 228 289 346
#     4  11  18  28  52  81 118 144 174 224 278 352
#     4  11  16  30  44  81 118 146 173 213 276 337
#     4  11  24  43  60  81 112 154 200 239 277 333
#     4  11  19  31  53  83 116 150 177 223 292 349
#     4  10  21  36  54  77 112 149 188 234 286 335
#     4  11  20  33  55  82 115 146 185 228 284 343
#
# _framework density 18.108601
#
# number of rings (size 3 to 8) (size 9 to 14) (size 15 to 20)
#    0.000    1.167    5.833    3.500    1.167    0.000 
#    1.500    0.000    0.000    1.000    0.000    2.333 
#    0.000    0.000    0.000    0.000    0.000    0.000 
#
# Total GULP energy -267565.615611 kJ/mol
# GULP energy per Si atom -5574.283659 kJ/mol
# Density = 1.806739 g / cm^3
# Si number density = 18.108601 Si / 1000 Ang^3
#
#
#
# Elastic Constant Matrix: (Units=GPa)
#
#
# Indices 1 2 3 4 5 6 
#
# 1 133.4203 33.9815 21.5089 0.0000 0.0000 0.0000
# 2 33.9815 122.6619 15.3694 0.0000 0.0000 0.0000
# 3 21.5089 15.3694 23.9803 0.0000 0.0000 0.0000
# 4 0.0000 0.0000 0.0000 11.2183 0.0000 0.0000
# 5 0.0000 0.0000 0.0000 0.0000 23.2725 0.0000
# 6 0.0000 0.0000 0.0000 0.0000 0.0000 30.3938
#
#
#
# Elastic Compliance Matrix: (Units=1/GPa)
#
#
# Indices 1 2 3 4 5 6 
#
# 1 0.009049 -0.001620 -0.007078 0.000000 0.000000 0.000000
# 2 -0.001620 0.009154 -0.004414 0.000000 0.000000 0.000000
# 3 -0.007078 -0.004414 0.050878 0.000000 0.000000 0.000000
# 4 0.000000 0.000000 0.000000 0.089140 0.000000 0.000000
# 5 0.000000 0.000000 0.000000 0.000000 0.042969 0.000000
# 6 0.000000 0.000000 0.000000 0.000000 0.000000 0.032901
#
#
# Mechanical properties :
#
#
# Convention : Reuss Voigt Hill
#
# Bulk Modulus (GPa) = 23.33317 46.86468 35.09892
# Shear Modulus (GPa) = 18.20818 26.92379 22.56598
#
# Velocity S-wave (km/s) = 3.17440 3.86008 3.53391
# Velocity P-wave (km/s) = 5.13311 6.76779 6.00632
#
# Compressibility (1/GPa) = 0.04285745
#
# Stress axis : x y z
#
# Youngs Moduli (GPa) = 110.51259 109.23754 19.65467
#
# Poissons Ratio (x) = 0.17696 0.13911
# Poissons Ratio (y) = 0.17902 0.08676
# Poissons Ratio (z) = 0.78220 0.48220
#
# Static dielectric constant tensor:
#      x y z
#    x 1.685540 0.000000 0.000000 
#    y 0.000000 1.640170 0.000000 
#    z 0.000000 0.000000 1.594650 
# 
# From -- ./inp_files/31200.got.cif
#   From: 2010.05.17/outbox.cif.g08.bks.cpg/sg64_16_cif.got.tgz:31200.got - 2010.06.03 16:29:19.
