data_PCOD9479543
_publ_section_title
;
Structure prediction by ZEFSAII (Michael W. Deem and Ramdas Pophale) SiO2 
 PCOD9479543
Probable space group: C M C A
;
_chemical_formula_sum "Si O2"
_cell_formula_units_Z 64
_cell_length_a 18.074066
_cell_length_b 14.733619
_cell_length_c 10.150364
_cell_angle_alpha 90.000000
_cell_angle_beta 90.000000
_cell_angle_gamma 90.000000
_cell_volume 2703.005414
_symmetry_space_group_name_H-M "C M C A"
_symmetry_group_IT_number 64
_symmetry_cell_setting 'orthorhombic'
loop_
_space_group_symop_operation_xyz
x,y,z
-x,1/2-y,1/2+z
x,-y,-z
-x,1/2+y,1/2-z
-x,-y,-z
x,1/2+y,1/2-z
-x,y,z
x,1/2-y,1/2+z
1/2+x,1/2+y,z
1/2-x,-y,1/2+z
1/2+x,1/2-y,-z
1/2-x,y,1/2-z
1/2-x,1/2-y,-z
1/2+x,y,1/2-z
1/2-x,1/2+y,z
1/2+x,-y,1/2+z
loop_
_atom_site_type_symbol
_atom_site_label
_atom_site_fract_x
_atom_site_fract_y
_atom_site_fract_z
Si Si1 0.086781 0.452705 0.752721
Si Si2 0.718108 0.921498 0.605497
Si Si3 0.648627 0.695081 0.449326
Si Si4 0.840144 0.152258 0.741757
O O1 0.135549 0.284013 0.362603
O O2 0.121406 0.446175 0.241896
O O3 0.000000 0.456624 0.734415
O O4 0.106125 0.389983 0.879418
O O5 0.750000 0.944578 0.750000
O O6 0.765403 0.835004 0.566664
O O7 0.631787 0.908816 0.630845
O O8 0.731592 0.000000 0.500000
O O9 0.635084 0.696448 0.603888
O O10 0.750000 0.146019 0.750000
#
# Coordination Sequence:
#
# PCOD9479543 Si02
#       4
#    16  16  16  16
#     4  11  25  44  67  97 138 183 223 270 333 403
#     4  10  20  41  68  97 130 171 222 272 327 389
#     4  11  24  44  70 100 132 172 225 282 334 394
#     4  12  24  42  72 102 132 172 224 280 335 396
#
# _framework density 23.677347999999999
#
# number of rings (size 3 to 8) (size 9 to 14) (size 15 to 20)
#    0.000    1.000    0.000   10.500    0.000    7.500 
#    0.000    0.000    0.000    0.000    0.000    0.000 
#    0.000    0.000    0.000    0.000    0.000    0.000 
#
# Total GULP energy -179141.511571 kJ/mol
# GULP energy per Si atom -5598.172237 kJ/mol
# Density = 2.362346 g / cm^3
# Si number density = 23.677348 Si / 1000 Ang^3
#
#
#
# Elastic Constant Matrix: (Units=GPa)
#
#
# Indices 1 2 3 4 5 6 
#
# 1 140.2016 54.1994 24.4818 0.0000 0.0000 0.0000
# 2 54.1994 162.2931 64.3068 0.0000 0.0000 0.0000
# 3 24.4818 64.3068 165.0528 0.0000 0.0000 0.0000
# 4 0.0000 0.0000 0.0000 47.5209 0.0000 0.0000
# 5 0.0000 0.0000 0.0000 0.0000 12.3294 0.0000
# 6 0.0000 0.0000 0.0000 0.0000 0.0000 15.4515
#
#
#
# Elastic Compliance Matrix: (Units=1/GPa)
#
#
# Indices 1 2 3 4 5 6 
#
# 1 0.008194 -0.002667 -0.000176 0.000000 0.000000 0.000000
# 2 -0.002667 0.008154 -0.002782 0.000000 0.000000 0.000000
# 3 -0.000176 -0.002782 0.007169 0.000000 0.000000 0.000000
# 4 0.000000 0.000000 0.000000 0.021043 0.000000 0.000000
# 5 0.000000 0.000000 0.000000 0.000000 0.081107 0.000000
# 6 0.000000 0.000000 0.000000 0.000000 0.000000 0.064718
#
#
# Mechanical properties :
#
#
# Convention : Reuss Voigt Hill
#
# Bulk Modulus (GPa) = 81.51317 83.72483 82.61900
# Shear Modulus (GPa) = 24.30433 36.69768 30.50101
#
# Velocity S-wave (km/s) = 3.20735 3.94116 3.59304
# Velocity P-wave (km/s) = 6.94388 7.49318 7.22376
#
# Compressibility (1/GPa) = 0.01226796
#
# Stress axis : x y z
#
# Youngs Moduli (GPa) = 122.03649 122.63338 139.49798
#
# Poissons Ratio (x) = 0.32702 0.02462
# Poissons Ratio (y) = 0.32543 0.38802
# Poissons Ratio (z) = 0.02154 0.34111
#
# Static dielectric constant tensor:
#      x y z
#    x 1.916000 0.000000 0.000000 
#    y 0.000000 1.988190 0.000000 
#    z 0.000000 0.000000 1.956600 
# 
# From -- ./inp_files/7771.got.cif
#   From: 2010.05.17/outbox.cif.g08.bks.cpg/sg64_4_cif.got.tgz:7771.got - 2010.06.03 16:29:19.
