data_PCOD9479381
_publ_section_title
;
Structure prediction by ZEFSAII (Michael W. Deem and Ramdas Pophale) SiO2 
 PCOD9479381
Probable space group: C M C A
;
_chemical_formula_sum "Si O2"
_cell_formula_units_Z 96
_cell_length_a 17.762277
_cell_length_b 10.188317
_cell_length_c 28.144918
_cell_angle_alpha 90.000000
_cell_angle_beta 90.000000
_cell_angle_gamma 90.000000
_cell_volume 5093.321323
_symmetry_space_group_name_H-M "C M C A"
_symmetry_group_IT_number 64
_symmetry_cell_setting 'orthorhombic'
loop_
_space_group_symop_operation_xyz
x,y,z
-x,1/2-y,1/2+z
x,-y,-z
-x,1/2+y,1/2-z
-x,-y,-z
x,1/2+y,1/2-z
-x,y,z
x,1/2-y,1/2+z
1/2+x,1/2+y,z
1/2-x,-y,1/2+z
1/2+x,1/2-y,-z
1/2-x,y,1/2-z
1/2-x,1/2-y,-z
1/2+x,y,1/2-z
1/2-x,1/2+y,z
1/2+x,-y,1/2+z
loop_
_atom_site_type_symbol
_atom_site_label
_atom_site_fract_x
_atom_site_fract_y
_atom_site_fract_z
Si Si1 0.837524 0.249191 0.265909
Si Si2 0.181242 0.492968 0.617561
Si Si3 0.590620 0.127949 0.030398
Si Si4 0.181176 0.797434 0.624313
Si Si5 0.584074 0.376113 0.965741
Si Si6 0.910978 0.487764 0.713368
O O1 0.750000 0.238791 0.250000
O O2 0.849062 0.215951 0.321783
O O3 0.866804 0.396881 0.259198
O O4 0.887045 0.149494 0.235842
O O5 0.202445 0.646504 0.610255
O O6 0.251699 0.401519 0.629301
O O7 0.141912 0.422444 0.573512
O O8 0.121150 0.491669 0.660132
O O9 0.500000 0.123134 0.036591
O O10 0.628082 0.148800 0.081944
O O11 0.608399 0.252591 0.997155
O O12 0.614005 0.000000 0.000000
O O13 0.500000 0.347379 0.946005
O O14 0.577268 0.500000 0.000000
O O15 0.000000 0.508966 0.714646
#
# Coordination Sequence:
#
# PCOD9479381 Si02
#       6
#    16  16  16  16  16  16
#     4  11  23  44  68  94 134 173 212 271 332 391
#     4  11  24  40  62  93 125 167 216 265 321 388
#     4  10  23  43  64  93 131 169 214 268 327 391
#     4  11  25  40  66  92 127 171 211 260 328 391
#     4  10  20  39  63  85 119 163 206 259 313 372
#     4  11  24  42  67  97 129 168 221 274 325 392
#
# _framework density 18.848212
#
# number of rings (size 3 to 8) (size 9 to 14) (size 15 to 20)
#    0.000    1.333    3.333    1.500    4.667    4.667 
#    0.000    0.000    0.000    0.000    0.000    0.000 
#    0.000    0.000    0.000    0.000    0.000    0.000 
#
# Total GULP energy -267830.927205 kJ/mol
# GULP energy per Si atom -5579.810983 kJ/mol
# Density = 1.880531 g / cm^3
# Si number density = 18.848212 Si / 1000 Ang^3
#
#
#
# Elastic Constant Matrix: (Units=GPa)
#
#
# Indices 1 2 3 4 5 6 
#
# 1 56.9878 19.9435 16.8082 0.0000 0.0000 0.0000
# 2 19.9435 82.1809 19.5559 0.0000 0.0000 0.0000
# 3 16.8082 19.5559 51.0828 0.0000 0.0000 0.0000
# 4 0.0000 0.0000 0.0000 31.2132 0.0000 0.0000
# 5 0.0000 0.0000 0.0000 0.0000 19.0036 0.0000
# 6 0.0000 0.0000 0.0000 0.0000 0.0000 25.2619
#
#
#
# Elastic Compliance Matrix: (Units=1/GPa)
#
#
# Indices 1 2 3 4 5 6 
#
# 1 0.020402 -0.003690 -0.005301 0.000000 0.000000 0.000000
# 2 -0.003690 0.014055 -0.004167 0.000000 0.000000 0.000000
# 3 -0.005301 -0.004167 0.022915 0.000000 0.000000 0.000000
# 4 0.000000 0.000000 0.000000 0.032038 0.000000 0.000000
# 5 0.000000 0.000000 0.000000 0.000000 0.052621 0.000000
# 6 0.000000 0.000000 0.000000 0.000000 0.000000 0.039585
#
#
# Mechanical properties :
#
#
# Convention : Reuss Voigt Hill
#
# Bulk Modulus (GPa) = 32.19710 33.65184 32.92447
# Shear Modulus (GPa) = 22.90591 24.02534 23.46563
#
# Velocity S-wave (km/s) = 3.48987 3.57413 3.53225
# Velocity P-wave (km/s) = 5.77567 5.90978 5.84311
#
# Compressibility (1/GPa) = 0.03105870
#
# Stress axis : x y z
#
# Youngs Moduli (GPa) = 49.01410 71.14795 43.63903
#
# Poissons Ratio (x) = 0.26253 0.23131
# Poissons Ratio (y) = 0.18085 0.18183
# Poissons Ratio (z) = 0.25980 0.29645
#
# Static dielectric constant tensor:
#      x y z
#    x 1.662910 0.000000 0.000000 
#    y 0.000000 1.646410 0.000000 
#    z 0.000000 0.000000 1.634690 
# 
# From -- ./inp_files/45742.got.cif
#   From: 2010.05.17/outbox.cif.g08.bks.cpg/sg64_23_cif.got.tgz:45742.got - 2010.06.03 16:29:19.
