data_PCOD9479212
_publ_section_title
;
Structure prediction by ZEFSAII (Michael W. Deem and Ramdas Pophale) SiO2 
 PCOD9479212
Probable space group: C M C A
;
_chemical_formula_sum "Si O2"
_cell_formula_units_Z 104
_cell_length_a 9.773766
_cell_length_b 26.793193
_cell_length_c 20.434290
_cell_angle_alpha 90.000000
_cell_angle_beta 90.000000
_cell_angle_gamma 90.000000
_cell_volume 5351.135671
_symmetry_space_group_name_H-M "C M C A"
_symmetry_group_IT_number 64
_symmetry_cell_setting 'orthorhombic'
loop_
_space_group_symop_operation_xyz
x,y,z
-x,1/2-y,1/2+z
x,-y,-z
-x,1/2+y,1/2-z
-x,-y,-z
x,1/2+y,1/2-z
-x,y,z
x,1/2-y,1/2+z
1/2+x,1/2+y,z
1/2-x,-y,1/2+z
1/2+x,1/2-y,-z
1/2-x,y,1/2-z
1/2-x,1/2-y,-z
1/2+x,y,1/2-z
1/2-x,1/2+y,z
1/2+x,-y,1/2+z
loop_
_atom_site_type_symbol
_atom_site_label
_atom_site_fract_x
_atom_site_fract_y
_atom_site_fract_z
Si Si1 0.660969 0.854531 0.937972
Si Si2 0.500000 0.244834 0.259809
Si Si3 0.347691 0.369767 0.192408
Si Si4 0.236315 0.228521 0.349139
Si Si5 0.837505 0.313738 0.442234
Si Si6 0.342156 0.026107 0.070037
Si Si7 0.341878 0.990165 0.311480
O O1 0.500000 0.841541 0.944804
O O2 0.717588 0.828653 0.872167
O O3 0.670517 0.914360 0.935900
O O4 0.749521 0.834487 0.998391
O O5 0.379806 0.240609 0.316434
O O6 0.381370 0.242418 0.202020
O O7 0.500000 0.352321 0.210778
O O8 0.250000 0.352206 0.250000
O O9 0.315509 0.349268 0.121150
O O10 0.344557 0.429702 0.190342
O O11 0.211016 0.260564 0.414989
O O12 0.000000 0.313006 0.456969
O O13 0.500000 0.014429 0.090088
O O14 0.234769 0.006720 0.123041
O O15 0.319489 0.000000 0.000000
O O16 0.500000 0.007065 0.307842
O O17 0.250000 0.007120 0.250000
#
# Coordination Sequence:
#
# PCOD9479212 Si02
#       7
#    16   8  16  16  16  16  16
#     4  11  24  42  60  91 121 160 204 249 301 363
#     4  10  24  42  66  88 122 160 204 248 300 344
#     4   9  20  34  55  86 120 154 199 248 302 360
#     4  11  23  43  63  91 123 161 200 250 293 360
#     4  11  23  37  61  89 125 159 202 245 297 359
#     4  10  22  41  64  87 121 159 206 255 310 365
#     4  10  20  38  59  87 119 155 199 254 307 364
#
# _framework density 19.435126
#
# number of rings (size 3 to 8) (size 9 to 14) (size 15 to 20)
#    0.000    1.692    1.538    1.846    4.308    2.154 
#    2.769    0.000    0.000    0.000    0.000    0.000 
#    0.000    0.000    0.000    0.000    0.000    0.000 
#
# Total GULP energy -289556.093685 kJ/mol
# GULP energy per Si atom -5568.386417 kJ/mol
# Density = 1.939089 g / cm^3
# Si number density = 19.435126 Si / 1000 Ang^3
#
#
#
# Elastic Constant Matrix: (Units=GPa)
#
#
# Indices 1 2 3 4 5 6 
#
# 1 178.6292 31.9714 78.6357 0.0000 0.0000 0.0000
# 2 31.9714 42.6429 13.1857 0.0000 0.0000 0.0000
# 3 78.6357 13.1857 78.0954 0.0000 0.0000 0.0000
# 4 0.0000 0.0000 0.0000 17.2929 0.0000 0.0000
# 5 0.0000 0.0000 0.0000 0.0000 53.6100 0.0000
# 6 0.0000 0.0000 0.0000 0.0000 0.0000 17.6267
#
#
#
# Elastic Compliance Matrix: (Units=1/GPa)
#
#
# Indices 1 2 3 4 5 6 
#
# 1 0.011013 -0.005094 -0.010229 0.000000 0.000000 0.000000
# 2 -0.005094 0.027098 0.000554 0.000000 0.000000 0.000000
# 3 -0.010229 0.000554 0.023011 0.000000 0.000000 0.000000
# 4 0.000000 0.000000 0.000000 0.057827 0.000000 0.000000
# 5 0.000000 0.000000 0.000000 0.000000 0.018653 0.000000
# 6 0.000000 0.000000 0.000000 0.000000 0.000000 0.056732
#
#
# Mechanical properties :
#
#
# Convention : Reuss Voigt Hill
#
# Bulk Modulus (GPa) = 31.66130 60.77257 46.21693
# Shear Modulus (GPa) = 21.33090 29.41089 25.37089
#
# Velocity S-wave (km/s) = 3.31651 3.89432 3.61697
# Velocity P-wave (km/s) = 5.56703 7.18041 6.42457
#
# Compressibility (1/GPa) = 0.03158430
#
# Stress axis : x y z
#
# Youngs Moduli (GPa) = 90.80234 36.90243 43.45721
#
# Poissons Ratio (x) = 0.18798 0.44453
# Poissons Ratio (y) = 0.46255 -0.02407
# Poissons Ratio (z) = 0.92882 -0.02044
#
# Static dielectric constant tensor:
#      x y z
#    x 1.658940 0.000000 0.000000 
#    y 0.000000 1.754740 0.000000 
#    z 0.000000 0.000000 1.638340 
# 
# From -- ./inp_files/37220.got.cif
#   From: 2010.05.17/outbox.cif.g08.bks.cpg/sg64_19_cif.got.tgz:37220.got - 2010.06.03 16:29:19.
