data_PCOD9479302
_publ_section_title
;
Structure prediction by ZEFSAII (Michael W. Deem and Ramdas Pophale) SiO2 
 PCOD9479302
Probable space group: C M C A
;
_chemical_formula_sum "Si O2"
_cell_formula_units_Z 64
_cell_length_a 15.228340
_cell_length_b 24.949777
_cell_length_c 8.135161
_cell_angle_alpha 90.000000
_cell_angle_beta 90.000000
_cell_angle_gamma 90.000000
_cell_volume 3090.903065
_symmetry_space_group_name_H-M "C M C A"
_symmetry_group_IT_number 64
_symmetry_cell_setting 'orthorhombic'
loop_
_space_group_symop_operation_xyz
x,y,z
-x,1/2-y,1/2+z
x,-y,-z
-x,1/2+y,1/2-z
-x,-y,-z
x,1/2+y,1/2-z
-x,y,z
x,1/2-y,1/2+z
1/2+x,1/2+y,z
1/2-x,-y,1/2+z
1/2+x,1/2-y,-z
1/2-x,y,1/2-z
1/2-x,1/2-y,-z
1/2+x,y,1/2-z
1/2-x,1/2+y,z
1/2+x,-y,1/2+z
loop_
_atom_site_type_symbol
_atom_site_label
_atom_site_fract_x
_atom_site_fract_y
_atom_site_fract_z
Si Si1 0.329291 0.000000 0.500000
Si Si2 0.850343 0.400410 0.308935
Si Si3 0.000000 0.269575 0.814322
Si Si4 0.000000 0.662762 0.847987
Si Si5 0.099805 0.647406 0.351487
Si Si6 0.750000 0.079479 0.250000
O O1 0.378283 0.959912 0.374157
O O2 0.269211 0.959224 0.599588
O O3 0.750000 0.403005 0.250000
O O4 0.915364 0.374861 0.175603
O O5 0.859879 0.362210 0.469577
O O6 0.000000 0.206171 0.802415
O O7 0.083414 0.292625 0.711892
O O8 0.000000 0.301109 0.987162
O O9 0.164584 0.616134 0.231242
O O10 0.000000 0.624556 0.351252
#
# Coordination Sequence:
#
# PCOD9479302 Si02
#       6
#     8  16   8   8  16   8
#     4  10  22  39  63  94 138 170 218 279 329 388
#     4  11  23  42  67  97 132 178 223 274 333 404
#     4  10  24  44  69  94 138 171 216 289 322 400
#     4  12  24  45  65  99 134 171 230 270 338 395
#     4   9  21  42  64  93 131 173 213 277 336 385
#     4  10  20  38  64  86 136 170 226 270 330 398
#
# _framework density 20.705922999999999
#
# number of rings (size 3 to 8) (size 9 to 14) (size 15 to 20)
#    0.750    1.000    2.500    1.500    7.000    0.500 
#    4.500    3.125    0.000    0.000    0.000    0.000 
#    0.000    0.000    0.000    0.000    0.000    0.000 
#
# Total GULP energy -178231.697282 kJ/mol
# GULP energy per Si atom -5569.740540 kJ/mol
# Density = 2.065880 g / cm^3
# Si number density = 20.705923 Si / 1000 Ang^3
#
#
#
# Elastic Constant Matrix: (Units=GPa)
#
#
# Indices 1 2 3 4 5 6 
#
# 1 97.7416 49.6110 20.4580 0.0000 0.0000 0.0000
# 2 49.6110 102.7495 22.8640 0.0000 0.0000 0.0000
# 3 20.4580 22.8640 63.1137 0.0000 0.0000 0.0000
# 4 0.0000 0.0000 0.0000 38.9203 0.0000 0.0000
# 5 0.0000 0.0000 0.0000 0.0000 49.0079 0.0000
# 6 0.0000 0.0000 0.0000 0.0000 0.0000 24.8375
#
#
#
# Elastic Compliance Matrix: (Units=1/GPa)
#
#
# Indices 1 2 3 4 5 6 
#
# 1 0.013839 -0.006182 -0.002246 0.000000 0.000000 0.000000
# 2 -0.006182 0.013347 -0.002831 0.000000 0.000000 0.000000
# 3 -0.002246 -0.002831 0.017598 0.000000 0.000000 0.000000
# 4 0.000000 0.000000 0.000000 0.025694 0.000000 0.000000
# 5 0.000000 0.000000 0.000000 0.000000 0.020405 0.000000
# 6 0.000000 0.000000 0.000000 0.000000 0.000000 0.040262
#
#
# Mechanical properties :
#
#
# Convention : Reuss Voigt Hill
#
# Bulk Modulus (GPa) = 44.91335 49.94119 47.42727
# Shear Modulus (GPa) = 31.03926 33.93125 32.48525
#
# Velocity S-wave (km/s) = 3.87596 4.05250 3.96521
# Velocity P-wave (km/s) = 6.46289 6.78739 6.62713
#
# Compressibility (1/GPa) = 0.02226509
#
# Stress axis : x y z
#
# Youngs Moduli (GPa) = 72.25896 74.92089 56.82373
#
# Poissons Ratio (x) = 0.46317 0.12764
# Poissons Ratio (y) = 0.44672 0.16089
# Poissons Ratio (z) = 0.16231 0.21213
#
# Static dielectric constant tensor:
#      x y z
#    x 1.711470 0.000000 0.000000 
#    y 0.000000 1.763490 0.000000 
#    z 0.000000 0.000000 1.869360 
# 
# From -- ./inp_files/5780.got.cif
#   From: 2010.05.17/outbox.cif.g08.bks.cpg/sg64_3_cif.got.tgz:5780.got - 2010.06.03 16:29:19.
