data_PCOD9479006
_publ_section_title
;
Structure prediction by ZEFSAII (Michael W. Deem and Ramdas Pophale) SiO2 
 PCOD9479006
Probable space group: C M C A
;
_chemical_formula_sum "Si O2"
_cell_formula_units_Z 88
_cell_length_a 14.491258
_cell_length_b 28.290378
_cell_length_c 10.895061
_cell_angle_alpha 90.000000
_cell_angle_beta 90.000000
_cell_angle_gamma 90.000000
_cell_volume 4466.573707
_symmetry_space_group_name_H-M "C M C A"
_symmetry_group_IT_number 64
_symmetry_cell_setting 'orthorhombic'
loop_
_space_group_symop_operation_xyz
x,y,z
-x,1/2-y,1/2+z
x,-y,-z
-x,1/2+y,1/2-z
-x,-y,-z
x,1/2+y,1/2-z
-x,y,z
x,1/2-y,1/2+z
1/2+x,1/2+y,z
1/2-x,-y,1/2+z
1/2+x,1/2-y,-z
1/2-x,y,1/2-z
1/2-x,1/2-y,-z
1/2+x,y,1/2-z
1/2-x,1/2+y,z
1/2+x,-y,1/2+z
loop_
_atom_site_type_symbol
_atom_site_label
_atom_site_fract_x
_atom_site_fract_y
_atom_site_fract_z
Si Si1 0.000000 0.899555 0.563929
Si Si2 0.000000 0.204447 0.554978
Si Si3 0.000000 0.113462 0.141062
Si Si4 0.160544 0.447656 0.528968
Si Si5 0.000000 0.807107 0.043004
Si Si6 0.143078 0.326823 0.247019
Si Si7 0.339525 0.573819 0.615725
Si Si8 0.250000 0.504577 0.250000
O O1 0.000000 0.897466 0.712586
O O2 0.088690 0.924073 0.497417
O O3 0.000000 0.844533 0.520820
O O4 0.000000 0.250998 0.474137
O O5 0.912154 0.203105 0.645477
O O6 0.086767 0.088723 0.076299
O O7 0.000000 0.167033 0.089367
O O8 0.119383 0.500000 0.500000
O O9 0.233033 0.426707 0.431056
O O10 0.225723 0.462151 0.639650
O O11 0.088480 0.821877 0.125416
O O12 0.250000 0.313380 0.250000
O O13 0.138326 0.380584 0.197198
O O14 0.335634 0.527647 0.702202
#
# Coordination Sequence:
#
# PCOD9479006 Si02
#       8
#     8   8   8  16   8  16  16   8
#     4  10  23  39  64  88 128 166 204 248 321 390
#     4   9  23  42  61  94 128 154 199 273 317 366
#     4  12  24  38  60  87 123 172 206 248 324 378
#     4  10  22  38  56  89 127 158 206 260 304 363
#     4  11  25  39  67  91 125 162 213 265 318 382
#     4  10  20  40  68  92 121 160 212 255 310 390
#     4  10  20  40  63  92 122 164 207 253 312 364
#     4  10  20  36  66  86 128 160 202 268 302 354
#
# _framework density 19.701903000000001
#
# number of rings (size 3 to 8) (size 9 to 14) (size 15 to 20)
#    0.000    1.818    0.909    3.000    5.091    1.455 
#    0.000    5.000    2.000    0.000    0.000    0.000 
#    0.000    0.000    0.000    0.000    0.000    0.000 
#
# Total GULP energy -245285.131410 kJ/mol
# GULP energy per Si atom -5574.662078 kJ/mol
# Density = 1.965706 g / cm^3
# Si number density = 19.701903 Si / 1000 Ang^3
#
#
#
# Elastic Constant Matrix: (Units=GPa)
#
#
# Indices 1 2 3 4 5 6 
#
# 1 108.7913 11.3527 18.6260 0.0000 0.0000 0.0000
# 2 11.3527 55.3604 -3.1875 0.0000 0.0000 0.0000
# 3 18.6260 -3.1875 72.6414 0.0000 0.0000 0.0000
# 4 0.0000 0.0000 0.0000 38.1915 0.0000 0.0000
# 5 0.0000 0.0000 0.0000 0.0000 40.6778 0.0000
# 6 0.0000 0.0000 0.0000 0.0000 0.0000 21.3146
#
#
#
# Elastic Compliance Matrix: (Units=1/GPa)
#
#
# Indices 1 2 3 4 5 6 
#
# 1 0.009868 -0.002175 -0.002626 0.000000 0.000000 0.000000
# 2 -0.002175 0.018589 0.001373 0.000000 0.000000 0.000000
# 3 -0.002626 0.001373 0.014500 0.000000 0.000000 0.000000
# 4 0.000000 0.000000 0.000000 0.026184 0.000000 0.000000
# 5 0.000000 0.000000 0.000000 0.000000 0.024583 0.000000
# 6 0.000000 0.000000 0.000000 0.000000 0.000000 0.046916
#
#
# Mechanical properties :
#
#
# Convention : Reuss Voigt Hill
#
# Bulk Modulus (GPa) = 27.69930 32.26396 29.98163
# Shear Modulus (GPa) = 31.34227 34.03689 32.68958
#
# Velocity S-wave (km/s) = 3.99284 4.16094 4.07776
# Velocity P-wave (km/s) = 5.94531 6.28460 6.11731
#
# Compressibility (1/GPa) = 0.03610199
#
# Stress axis : x y z
#
# Youngs Moduli (GPa) = 101.33332 53.79667 68.96651
#
# Poissons Ratio (x) = 0.11700 0.18109
# Poissons Ratio (y) = 0.22039 -0.09471
# Poissons Ratio (z) = 0.26608 -0.07388
#
# Static dielectric constant tensor:
#      x y z
#    x 1.696030 0.000000 0.000000 
#    y 0.000000 1.689930 0.000000 
#    z 0.000000 0.000000 1.749200 
# 
# From -- ./inp_files/14822.got.cif
#   From: 2010.05.17/outbox.cif.g08.bks.cpg/sg64_8_cif.got.tgz:14822.got - 2010.06.03 16:29:19.
