data_PCOD9479977
_publ_section_title
;
Structure prediction by ZEFSAII (Michael W. Deem and Ramdas Pophale) SiO2 
 PCOD9479977
Probable space group: C M C A
;
_chemical_formula_sum "Si O2"
_cell_formula_units_Z 96
_cell_length_a 8.551040
_cell_length_b 29.643964
_cell_length_c 20.975617
_cell_angle_alpha 90.000000
_cell_angle_beta 90.000000
_cell_angle_gamma 90.000000
_cell_volume 5317.040394
_symmetry_space_group_name_H-M "C M C A"
_symmetry_group_IT_number 64
_symmetry_cell_setting 'orthorhombic'
loop_
_space_group_symop_operation_xyz
x,y,z
-x,1/2-y,1/2+z
x,-y,-z
-x,1/2+y,1/2-z
-x,-y,-z
x,1/2+y,1/2-z
-x,y,z
x,1/2-y,1/2+z
1/2+x,1/2+y,z
1/2-x,-y,1/2+z
1/2+x,1/2-y,-z
1/2-x,y,1/2-z
1/2-x,1/2-y,-z
1/2+x,y,1/2-z
1/2-x,1/2+y,z
1/2+x,-y,1/2+z
loop_
_atom_site_type_symbol
_atom_site_label
_atom_site_fract_x
_atom_site_fract_y
_atom_site_fract_z
Si Si1 0.812453 0.528851 0.937728
Si Si2 0.190205 0.124549 0.127951
Si Si3 0.811265 0.779021 0.819365
Si Si4 0.687659 0.027931 0.319599
Si Si5 0.312101 0.279399 0.440867
Si Si6 0.187813 0.624429 0.520642
O O1 0.747064 0.505112 0.874760
O O2 0.000000 0.528747 0.935568
O O3 0.762158 0.500000 0.000000
O O4 0.751672 0.579482 0.946581
O O5 0.243232 0.170464 0.161751
O O6 0.238060 0.124265 0.053850
O O7 0.000000 0.124843 0.128587
O O8 0.241987 0.078748 0.162249
O O9 0.750000 0.766583 0.750000
O O10 0.762805 0.744986 0.875399
O O11 0.000000 0.779612 0.818174
O O12 0.500000 0.027626 0.319249
O O13 0.750000 0.015762 0.250000
O O14 0.500000 0.279579 0.443214
O O15 0.250000 0.250000 0.500000
O O16 0.249176 0.329891 0.447682
O O17 0.000000 0.624127 0.521994
#
# Coordination Sequence:
#
# PCOD9479977 Si02
#       6
#    16  16  16  16  16  16
#     4  11  23  39  60  89 121 154 200 249 294 353
#     4   9  18  34  57  86 120 153 188 237 295 354
#     4  10  21  38  57  84 120 156 194 239 290 349
#     4  11  22  38  60  87 122 161 198 242 299 358
#     4  11  22  38  60  87 120 156 198 247 295 351
#     4  11  21  38  62  89 119 153 199 247 298 353
#
# _framework density 18.055156
#
# number of rings (size 3 to 8) (size 9 to 14) (size 15 to 20)
#    0.000    1.500    3.333    2.500    0.000    2.000 
#    0.000    1.667    0.000    2.000    0.000    0.000 
#    0.000    0.000    0.000    0.000    0.000    0.000 
#
# Total GULP energy -268235.503068 kJ/mol
# GULP energy per Si atom -5588.239647 kJ/mol
# Density = 1.801406 g / cm^3
# Si number density = 18.055156 Si / 1000 Ang^3
#
#
#
# Elastic Constant Matrix: (Units=GPa)
#
#
# Indices 1 2 3 4 5 6 
#
# 1 46.2045 39.0065 42.0338 0.0000 0.0000 0.0000
# 2 39.0065 163.2685 96.0794 0.0000 0.0000 0.0000
# 3 42.0338 96.0794 185.5044 0.0000 0.0000 0.0000
# 4 0.0000 0.0000 0.0000 20.7719 0.0000 0.0000
# 5 0.0000 0.0000 0.0000 0.0000 25.9483 0.0000
# 6 0.0000 0.0000 0.0000 0.0000 0.0000 28.1860
#
#
#
# Elastic Compliance Matrix: (Units=1/GPa)
#
#
# Indices 1 2 3 4 5 6 
#
# 1 0.029358 -0.004458 -0.004343 0.000000 0.000000 0.000000
# 2 -0.004458 0.009487 -0.003904 0.000000 0.000000 0.000000
# 3 -0.004343 -0.003904 0.008397 0.000000 0.000000 0.000000
# 4 0.000000 0.000000 0.000000 0.048142 0.000000 0.000000
# 5 0.000000 0.000000 0.000000 0.000000 0.038538 0.000000
# 6 0.000000 0.000000 0.000000 0.000000 0.000000 0.035479
#
#
# Mechanical properties :
#
#
# Convention : Reuss Voigt Hill
#
# Bulk Modulus (GPa) = 45.80481 83.24632 64.52556
# Shear Modulus (GPa) = 24.74185 29.50509 27.12347
#
# Velocity S-wave (km/s) = 3.70584 4.04687 3.88010
# Velocity P-wave (km/s) = 6.61328 8.24881 7.47591
#
# Compressibility (1/GPa) = 0.02183177
#
# Stress axis : x y z
#
# Youngs Moduli (GPa) = 34.06281 105.40667 119.09503
#
# Poissons Ratio (x) = 0.46989 0.51726
# Poissons Ratio (y) = 0.15185 0.46490
# Poissons Ratio (z) = 0.14794 0.41146
#
# Static dielectric constant tensor:
#      x y z
#    x 1.617100 0.000000 0.000000 
#    y 0.000000 1.597010 0.000000 
#    z 0.000000 0.000000 1.600190 
# 
# From -- ./inp_files/37130.got.cif
#   From: 2010.05.17/outbox.cif.g08.bks.cpg/sg64_19_cif.got.tgz:37130.got - 2010.06.03 16:29:19.
