data_PCOD9479085
_publ_section_title
;
Structure prediction by ZEFSAII (Michael W. Deem and Ramdas Pophale) SiO2 
 PCOD9479085
Probable space group: C M C A
;
_chemical_formula_sum "Si O2"
_cell_formula_units_Z 96
_cell_length_a 8.729308
_cell_length_b 23.979653
_cell_length_c 25.941271
_cell_angle_alpha 90.000000
_cell_angle_beta 90.000000
_cell_angle_gamma 90.000000
_cell_volume 5430.176702
_symmetry_space_group_name_H-M "C M C A"
_symmetry_group_IT_number 64
_symmetry_cell_setting 'orthorhombic'
loop_
_space_group_symop_operation_xyz
x,y,z
-x,1/2-y,1/2+z
x,-y,-z
-x,1/2+y,1/2-z
-x,-y,-z
x,1/2+y,1/2-z
-x,y,z
x,1/2-y,1/2+z
1/2+x,1/2+y,z
1/2-x,-y,1/2+z
1/2+x,1/2-y,-z
1/2-x,y,1/2-z
1/2-x,1/2-y,-z
1/2+x,y,1/2-z
1/2-x,1/2+y,z
1/2+x,-y,1/2+z
loop_
_atom_site_type_symbol
_atom_site_label
_atom_site_fract_x
_atom_site_fract_y
_atom_site_fract_z
Si Si1 0.816952 0.864641 0.900402
Si Si2 0.315645 0.062939 0.806050
Si Si3 0.816805 0.434950 0.496708
Si Si4 0.183237 0.635484 0.903609
Si Si5 0.184030 0.434188 0.806528
Si Si6 0.182714 0.749546 0.057985
O O1 0.783979 0.904272 0.949488
O O2 0.750371 0.893563 0.849672
O O3 0.743754 0.804981 0.912860
O O4 0.000000 0.858968 0.896052
O O5 0.500000 0.064225 0.803450
O O6 0.250000 0.077089 0.750000
O O7 0.266824 0.104803 0.851066
O O8 0.271324 0.998736 0.818225
O O9 0.777248 0.500000 0.500000
O O10 0.728616 0.404255 0.451072
O O11 0.000000 0.430309 0.487120
O O12 0.261990 0.694642 0.913534
O O13 0.000000 0.642819 0.902458
O O14 0.250000 0.421217 0.750000
O O15 0.000000 0.430934 0.805697
O O16 0.000000 0.748472 0.054598
O O17 0.250000 0.750000 0.000000
#
# Coordination Sequence:
#
# PCOD9479085 Si02
#       6
#    16  16  16  16  16  16
#     4  11  22  37  58  85 117 152 194 239 287 346
#     4   9  20  37  59  87 118 154 193 236 287 343
#     4  10  21  35  54  83 117 151 188 234 289 348
#     4  11  22  37  58  85 116 151 194 241 290 347
#     4  10  20  37  60  87 119 155 194 237 289 344
#     4  12  24  40  60  83 113 154 197 240 291 348
#
# _framework density 17.678982999999999
#
# number of rings (size 3 to 8) (size 9 to 14) (size 15 to 20)
#    0.000    1.500    1.667    4.000    0.000    3.000 
#    0.000    0.833    0.000    2.000    0.000    0.000 
#    0.000    0.000    0.000    0.000    0.000    0.000 
#
# Total GULP energy -268275.532764 kJ/mol
# GULP energy per Si atom -5589.073599 kJ/mol
# Density = 1.763874 g / cm^3
# Si number density = 17.678983 Si / 1000 Ang^3
#
#
#
# Elastic Constant Matrix: (Units=GPa)
#
#
# Indices 1 2 3 4 5 6 
#
# 1 81.4218 71.4592 70.5263 0.0000 0.0000 0.0000
# 2 71.4592 167.4654 110.9869 0.0000 0.0000 0.0000
# 3 70.5263 110.9869 161.2337 0.0000 0.0000 0.0000
# 4 0.0000 0.0000 0.0000 9.8672 0.0000 0.0000
# 5 0.0000 0.0000 0.0000 0.0000 29.1280 0.0000
# 6 0.0000 0.0000 0.0000 0.0000 0.0000 21.0980
#
#
#
# Elastic Compliance Matrix: (Units=1/GPa)
#
#
# Indices 1 2 3 4 5 6 
#
# 1 0.022317 -0.005615 -0.005897 0.000000 0.000000 0.000000
# 2 -0.005615 0.012394 -0.006075 0.000000 0.000000 0.000000
# 3 -0.005897 -0.006075 0.012964 0.000000 0.000000 0.000000
# 4 0.000000 0.000000 0.000000 0.101346 0.000000 0.000000
# 5 0.000000 0.000000 0.000000 0.000000 0.034331 0.000000
# 6 0.000000 0.000000 0.000000 0.000000 0.000000 0.047398
#
#
# Mechanical properties :
#
#
# Convention : Reuss Voigt Hill
#
# Bulk Modulus (GPa) = 79.99700 101.78505 90.89103
# Shear Modulus (GPa) = 18.51230 22.49520 20.50375
#
# Velocity S-wave (km/s) = 3.23946 3.57098 3.40925
# Velocity P-wave (km/s) = 7.70326 8.64301 8.18663
#
# Compressibility (1/GPa) = 0.01250047
#
# Stress axis : x y z
#
# Youngs Moduli (GPa) = 44.80798 80.68632 77.13931
#
# Poissons Ratio (x) = 0.45305 0.45489
# Poissons Ratio (y) = 0.25159 0.46864
# Poissons Ratio (z) = 0.26423 0.49019
#
# Static dielectric constant tensor:
#      x y z
#    x 1.598290 0.000000 0.000000 
#    y 0.000000 1.584640 0.000000 
#    z 0.000000 0.000000 1.568980 
# 
# From -- ./inp_files/42989.got.cif
#   From: 2010.05.17/outbox.cif.g08.bks.cpg/sg64_22_cif.got.tgz:42989.got - 2010.06.03 16:29:19.
