data_PCOD9479927
_publ_section_title
;
Structure prediction by ZEFSAII (Michael W. Deem and Ramdas Pophale) SiO2 
 PCOD9479927
Probable space group: C M C A
;
_chemical_formula_sum "Si O2"
_cell_formula_units_Z 80
_cell_length_a 14.016547
_cell_length_b 9.240534
_cell_length_c 27.238105
_cell_angle_alpha 90.000000
_cell_angle_beta 90.000000
_cell_angle_gamma 90.000000
_cell_volume 3527.889686
_symmetry_space_group_name_H-M "C M C A"
_symmetry_group_IT_number 64
_symmetry_cell_setting 'orthorhombic'
loop_
_space_group_symop_operation_xyz
x,y,z
-x,1/2-y,1/2+z
x,-y,-z
-x,1/2+y,1/2-z
-x,-y,-z
x,1/2+y,1/2-z
-x,y,z
x,1/2-y,1/2+z
1/2+x,1/2+y,z
1/2-x,-y,1/2+z
1/2+x,1/2-y,-z
1/2-x,y,1/2-z
1/2-x,1/2-y,-z
1/2+x,y,1/2-z
1/2-x,1/2+y,z
1/2+x,-y,1/2+z
loop_
_atom_site_type_symbol
_atom_site_label
_atom_site_fract_x
_atom_site_fract_y
_atom_site_fract_z
Si Si1 0.395574 0.145092 0.873419
Si Si2 0.886203 0.765755 0.771154
Si Si3 0.295139 0.860841 0.418744
Si Si4 0.615509 0.429007 0.185072
Si Si5 0.649320 0.070689 0.048900
O O1 0.500000 0.213606 0.881406
O O2 0.378324 0.148985 0.815373
O O3 0.303866 0.214520 0.899281
O O4 0.395962 0.989483 0.900404
O O5 0.848793 0.699615 0.720670
O O6 0.000000 0.786915 0.763354
O O7 0.850506 0.918350 0.792019
O O8 0.349923 0.906818 0.370039
O O9 0.348699 0.742139 0.450693
O O10 0.254289 0.998220 0.447116
O O11 0.500000 0.429848 0.185455
O O12 0.606528 0.000000 0.000000
#
# Coordination Sequence:
#
# PCOD9479927 Si02
#       5
#    16  16  16  16  16
#     4   9  21  38  61  89 125 160 201 250 306 363
#     4   9  19  36  58  87 127 165 195 250 307 362
#     4  10  22  38  62  90 120 162 201 258 307 365
#     4  10  21  37  61  92 127 163 206 250 308 372
#     4  10  22  40  65  89 121 161 210 262 317 358
#
# _framework density 22.676445000000001
#
# number of rings (size 3 to 8) (size 9 to 14) (size 15 to 20)
#    1.200    1.200    0.000    1.800    2.800    2.000 
#    0.000    2.000    0.000    1.200    0.000    0.000 
#    0.000    0.000    0.000    0.000    0.000    0.000 
#
# Total GULP energy -222850.972451 kJ/mol
# GULP energy per Si atom -5571.274311 kJ/mol
# Density = 2.262483 g / cm^3
# Si number density = 22.676445 Si / 1000 Ang^3
#
#
#
# Elastic Constant Matrix: (Units=GPa)
#
#
# Indices 1 2 3 4 5 6 
#
# 1 51.6623 0.6003 4.5961 0.0000 0.0000 0.0000
# 2 0.6003 81.2985 23.7314 0.0000 0.0000 0.0000
# 3 4.5961 23.7314 69.2056 0.0000 0.0000 0.0000
# 4 0.0000 0.0000 0.0000 35.5643 0.0000 0.0000
# 5 0.0000 0.0000 0.0000 0.0000 -47.9979 0.0000
# 6 0.0000 0.0000 0.0000 0.0000 0.0000 12.1198
#
#
#
# Elastic Compliance Matrix: (Units=1/GPa)
#
#
# Indices 1 2 3 4 5 6 
#
# 1 0.019476 0.000260 -0.001383 0.000000 0.000000 0.000000
# 2 0.000260 0.013672 -0.004706 0.000000 0.000000 0.000000
# 3 -0.001383 -0.004706 0.016155 0.000000 0.000000 0.000000
# 4 0.000000 0.000000 0.000000 0.028118 0.000000 0.000000
# 5 0.000000 0.000000 0.000000 0.000000 -0.020834 0.000000
# 6 0.000000 0.000000 0.000000 0.000000 0.000000 0.082510
#
#
# Mechanical properties :
#
#
# Convention : Reuss Voigt Hill
#
# Bulk Modulus (GPa) = 26.56263 28.89135 27.72699
# Shear Modulus (GPa) = 30.61792 11.48646 21.05219
#
# Velocity S-wave (km/s) = 3.67850 2.25308 3.05023
# Velocity P-wave (km/s) = 5.45720 4.42005 4.96578
#
# Compressibility (1/GPa) = 0.03764687
#
# Stress axis : x y z
#
# Youngs Moduli (GPa) = 51.34406 73.14215 61.89989
#
# Poissons Ratio (x) = -0.01900 0.08558
# Poissons Ratio (y) = -0.01334 0.29127
# Poissons Ratio (z) = 0.07099 0.34417
#
# Static dielectric constant tensor:
#      x y z
#    x 1.901730 0.000000 0.000000 
#    y 0.000000 1.838830 0.000000 
#    z 0.000000 0.000000 1.816640 
# 
# From -- ./inp_files/44969.got.cif
#   From: 2010.05.17/outbox.cif.g08.bks.cpg/sg64_23_cif.got.tgz:44969.got - 2010.06.03 16:29:19.
