data_PCOD9479865
_publ_section_title
;
Structure prediction by ZEFSAII (Michael W. Deem and Ramdas Pophale) SiO2 
 PCOD9479865
Probable space group: C M C A
;
_chemical_formula_sum "Si O2"
_cell_formula_units_Z 72
_cell_length_a 13.406936
_cell_length_b 13.029964
_cell_length_c 23.403173
_cell_angle_alpha 90.000000
_cell_angle_beta 90.000000
_cell_angle_gamma 90.000000
_cell_volume 4088.344604
_symmetry_space_group_name_H-M "C M C A"
_symmetry_group_IT_number 64
_symmetry_cell_setting 'orthorhombic'
loop_
_space_group_symop_operation_xyz
x,y,z
-x,1/2-y,1/2+z
x,-y,-z
-x,1/2+y,1/2-z
-x,-y,-z
x,1/2+y,1/2-z
-x,y,z
x,1/2-y,1/2+z
1/2+x,1/2+y,z
1/2-x,-y,1/2+z
1/2+x,1/2-y,-z
1/2-x,y,1/2-z
1/2-x,1/2-y,-z
1/2+x,y,1/2-z
1/2-x,1/2+y,z
1/2+x,-y,1/2+z
loop_
_atom_site_type_symbol
_atom_site_label
_atom_site_fract_x
_atom_site_fract_y
_atom_site_fract_z
Si Si1 0.250000 0.829406 0.250000
Si Si2 0.381297 0.956406 0.161636
Si Si3 0.112821 0.705380 0.537550
Si Si4 0.383553 0.198586 0.163869
Si Si5 0.680674 0.397689 0.465426
O O1 0.321816 0.899410 0.211392
O O2 0.314898 0.758920 0.292124
O O3 0.500000 0.943393 0.168455
O O4 0.348821 0.912372 0.100219
O O5 0.359048 0.078004 0.162157
O O6 0.127038 0.754242 0.600527
O O7 0.200985 0.624126 0.528982
O O8 0.128396 0.798371 0.492991
O O9 0.000000 0.665246 0.533204
O O10 0.500000 0.208791 0.180141
O O11 0.652573 0.500000 0.500000
#
# Coordination Sequence:
#
# PCOD9479865 Si02
#       5
#     8  16  16  16  16
#     4  12  22  40  58  82 116 154 188 232 284 336
#     4  11  23  38  59  88 114 147 194 235 277 337
#     4  10  21  37  58  86 117 148 185 232 287 338
#     4  10  21  38  59  82 113 150 188 234 281 334
#     4  11  21  37  62  86 114 149 189 235 286 337
#
# _framework density 17.611039999999999
#
# number of rings (size 3 to 8) (size 9 to 14) (size 15 to 20)
#    0.000    1.333    4.444    2.000    0.000    1.333 
#    0.000    0.000    0.000    1.333    0.000    0.000 
#    0.000    0.000    0.000    0.000    0.000    0.000 
#
# Total GULP energy -201122.835347 kJ/mol
# GULP energy per Si atom -5586.745426 kJ/mol
# Density = 1.757096 g / cm^3
# Si number density = 17.611040 Si / 1000 Ang^3
#
#
#
# Elastic Constant Matrix: (Units=GPa)
#
#
# Indices 1 2 3 4 5 6 
#
# 1 55.1210 4.8531 17.1695 0.0000 0.0000 0.0000
# 2 4.8531 36.5900 9.8926 0.0000 0.0000 0.0000
# 3 17.1695 9.8926 81.0851 0.0000 0.0000 0.0000
# 4 0.0000 0.0000 0.0000 28.5986 0.0000 0.0000
# 5 0.0000 0.0000 0.0000 0.0000 16.2513 0.0000
# 6 0.0000 0.0000 0.0000 0.0000 0.0000 16.7169
#
#
#
# Elastic Compliance Matrix: (Units=1/GPa)
#
#
# Indices 1 2 3 4 5 6 
#
# 1 0.019504 -0.001521 -0.003944 0.000000 0.000000 0.000000
# 2 -0.001521 0.028381 -0.003141 0.000000 0.000000 0.000000
# 3 -0.003944 -0.003141 0.013551 0.000000 0.000000 0.000000
# 4 0.000000 0.000000 0.000000 0.034967 0.000000 0.000000
# 5 0.000000 0.000000 0.000000 0.000000 0.061534 0.000000
# 6 0.000000 0.000000 0.000000 0.000000 0.000000 0.059820
#
#
# Mechanical properties :
#
#
# Convention : Reuss Voigt Hill
#
# Bulk Modulus (GPa) = 22.61161 26.29183 24.45172
# Shear Modulus (GPa) = 20.02331 21.70542 20.86436
#
# Velocity S-wave (km/s) = 3.37556 3.51449 3.44573
# Velocity P-wave (km/s) = 5.29716 5.60629 5.45391
#
# Compressibility (1/GPa) = 0.04422507
#
# Stress axis : x y z
#
# Youngs Moduli (GPa) = 51.27039 35.23532 73.79469
#
# Poissons Ratio (x) = 0.05358 0.29108
# Poissons Ratio (y) = 0.07796 0.23176
# Poissons Ratio (z) = 0.20224 0.11066
#
# Static dielectric constant tensor:
#      x y z
#    x 1.596040 0.000000 0.000000 
#    y 0.000000 1.565310 0.000000 
#    z 0.000000 0.000000 1.564160 
# 
# From -- ./inp_files/43819.got.cif
#   From: 2010.05.17/outbox.cif.g08.bks.cpg/sg64_22_cif.got.tgz:43819.got - 2010.06.03 16:29:19.
