data_PCOD9479782
_publ_section_title
;
Structure prediction by ZEFSAII (Michael W. Deem and Ramdas Pophale) SiO2 
 PCOD9479782
Probable space group: C M C A
;
_chemical_formula_sum "Si O2"
_cell_formula_units_Z 52
_cell_length_a 21.792032
_cell_length_b 19.186612
_cell_length_c 4.729747
_cell_angle_alpha 90.000000
_cell_angle_beta 90.000000
_cell_angle_gamma 90.000000
_cell_volume 1977.579409
_symmetry_space_group_name_H-M "C M C A"
_symmetry_group_IT_number 64
_symmetry_cell_setting 'orthorhombic'
loop_
_space_group_symop_operation_xyz
x,y,z
-x,1/2-y,1/2+z
x,-y,-z
-x,1/2+y,1/2-z
-x,-y,-z
x,1/2+y,1/2-z
-x,y,z
x,1/2-y,1/2+z
1/2+x,1/2+y,z
1/2-x,-y,1/2+z
1/2+x,1/2-y,-z
1/2-x,y,1/2-z
1/2-x,1/2-y,-z
1/2+x,y,1/2-z
1/2-x,1/2+y,z
1/2+x,-y,1/2+z
loop_
_atom_site_type_symbol
_atom_site_label
_atom_site_fract_x
_atom_site_fract_y
_atom_site_fract_z
Si Si1 0.500000 0.500000 0.000000
Si Si2 0.683639 0.796543 0.149673
Si Si3 0.601295 0.394146 0.006378
Si Si4 0.704730 0.000000 0.500000
Si Si5 0.500000 0.801354 0.786431
O O1 0.553818 0.550117 0.865909
O O2 0.679624 0.723417 0.323613
O O3 0.750000 0.823194 0.250000
O O4 0.630228 0.844581 0.259209
O O5 0.659438 0.438389 0.893216
O O6 0.558289 0.349072 0.797086
O O7 0.750000 0.021751 0.750000
O O8 0.500000 0.730800 0.597043
#
# Coordination Sequence:
#
# PCOD9479782 Si02
#       5
#     4  16  16   8   8
#     4   8  20  40  64  90 120 170 216 258 312 366
#     4  10  21  36  60  92 123 157 196 248 313 373
#     4  10  21  42  65  92 130 165 213 266 312 378
#     4  11  26  43  66  95 126 173 218 262 320 377
#     4  11  24  41  68  99 128 169 212 262 326 383
#
# _framework density 26.294771999999998
#
# number of rings (size 3 to 8) (size 9 to 14) (size 15 to 20)
#    0.000    1.846    0.000    2.769    0.000    8.615 
#    0.000    0.000    0.000   20.308    0.000    0.000 
#    0.000    0.000    0.000    0.000    0.000    0.000 
#
# Total GULP energy -145122.326866 kJ/mol
# GULP energy per Si atom -5581.627956 kJ/mol
# Density = 2.623492 g / cm^3
# Si number density = 26.294772 Si / 1000 Ang^3
#
#
#
# Elastic Constant Matrix: (Units=GPa)
#
#
# Indices 1 2 3 4 5 6 
#
# 1 230.4642 76.5816 31.2331 0.0000 0.0000 0.0000
# 2 76.5816 112.4377 9.5207 0.0000 0.0000 0.0000
# 3 31.2331 9.5207 63.0487 0.0000 0.0000 0.0000
# 4 0.0000 0.0000 0.0000 7.0285 0.0000 0.0000
# 5 0.0000 0.0000 0.0000 0.0000 31.0570 0.0000
# 6 0.0000 0.0000 0.0000 0.0000 0.0000 -5.3953
#
#
#
# Elastic Compliance Matrix: (Units=1/GPa)
#
#
# Indices 1 2 3 4 5 6 
#
# 1 0.005936 -0.003843 -0.002360 0.000000 0.000000 0.000000
# 2 -0.003843 0.011497 0.000168 0.000000 0.000000 0.000000
# 3 -0.002360 0.000168 0.017005 0.000000 0.000000 0.000000
# 4 0.000000 0.000000 0.000000 0.142278 0.000000 0.000000
# 5 0.000000 0.000000 0.000000 0.000000 0.032199 0.000000
# 6 0.000000 0.000000 0.000000 0.000000 0.000000 -0.185345
#
#
# Mechanical properties :
#
#
# Convention : Reuss Voigt Hill
#
# Bulk Modulus (GPa) = 44.70990 71.18018 57.94504
# Shear Modulus (GPa) = 116.01928 25.77906 70.89917
#
# Velocity S-wave (km/s) = 6.64969 3.13451 5.19825
# Velocity P-wave (km/s) = 8.71769 6.34264 7.62323
#
# Compressibility (1/GPa) = 0.02236641
#
# Stress axis : x y z
#
# Youngs Moduli (GPa) = 168.46396 86.97771 58.80743
#
# Poissons Ratio (x) = 0.33427 0.13880
# Poissons Ratio (y) = 0.64743 -0.00986
# Poissons Ratio (z) = 0.39761 -0.01458
#
# Static dielectric constant tensor:
#      x y z
#    x 2.033170 0.000000 0.000000 
#    y 0.000000 2.155330 0.000000 
#    z 0.000000 0.000000 2.127810 
# 
# From -- ./inp_files/1582.got.cif
#   From: 2010.05.17/outbox.cif.g08.bks.cpg/sg64_1_cif.got.tgz:1582.got - 2010.06.03 16:29:19.
