data_PCOD9479572
_publ_section_title
;
Structure prediction by ZEFSAII (Michael W. Deem and Ramdas Pophale) SiO2 
 PCOD9479572
Probable space group: C M C A
;
_chemical_formula_sum "Si O2"
_cell_formula_units_Z 64
_cell_length_a 26.145761
_cell_length_b 15.600324
_cell_length_c 8.803702
_cell_angle_alpha 90.000000
_cell_angle_beta 90.000000
_cell_angle_gamma 90.000000
_cell_volume 3590.874597
_symmetry_space_group_name_H-M "C M C A"
_symmetry_group_IT_number 64
_symmetry_cell_setting 'orthorhombic'
loop_
_space_group_symop_operation_xyz
x,y,z
-x,1/2-y,1/2+z
x,-y,-z
-x,1/2+y,1/2-z
-x,-y,-z
x,1/2+y,1/2-z
-x,y,z
x,1/2-y,1/2+z
1/2+x,1/2+y,z
1/2-x,-y,1/2+z
1/2+x,1/2-y,-z
1/2-x,y,1/2-z
1/2-x,1/2-y,-z
1/2+x,y,1/2-z
1/2-x,1/2+y,z
1/2+x,-y,1/2+z
loop_
_atom_site_type_symbol
_atom_site_label
_atom_site_fract_x
_atom_site_fract_y
_atom_site_fract_z
Si Si1 0.303779 0.536904 0.168933
Si Si2 0.400368 0.523949 0.675952
Si Si3 0.399033 0.144851 0.338435
Si Si4 0.060424 0.691061 0.670777
O O1 0.250000 0.548701 0.250000
O O2 0.341232 0.474576 0.266692
O O3 0.338641 0.622463 0.159512
O O4 0.297838 0.500000 0.000000
O O5 0.402765 0.500000 0.500000
O O6 0.422530 0.444038 0.773399
O O7 0.427106 0.612407 0.716717
O O8 0.412508 0.223420 0.230548
O O9 0.419156 0.164612 0.505572
O O10 0.000000 0.705934 0.664433
#
# Coordination Sequence:
#
# PCOD9479572 Si02
#       4
#    16  16  16  16
#     4  10  20  42  68  95 123 166 211 266 327 374
#     4  10  21  40  64  91 130 165 215 267 311 386
#     4  10  23  41  60  96 129 161 218 265 312 387
#     4  12  23  40  65  91 131 173 212 265 319 376
#
# _framework density 17.822955
#
# number of rings (size 3 to 8) (size 9 to 14) (size 15 to 20)
#    1.500    0.000    2.500    3.750    0.000    3.500 
#    0.000    2.500    0.000    0.000    0.000    0.000 
#    0.000    0.000    0.000    0.000    0.000    0.000 
#
# Total GULP energy -178369.040751 kJ/mol
# GULP energy per Si atom -5574.032523 kJ/mol
# Density = 1.778239 g / cm^3
# Si number density = 17.822955 Si / 1000 Ang^3
#
#
#
# Elastic Constant Matrix: (Units=GPa)
#
#
# Indices 1 2 3 4 5 6 
#
# 1 119.0452 49.1975 52.7725 0.0000 0.0000 0.0000
# 2 49.1975 89.9813 3.0170 0.0000 0.0000 0.0000
# 3 52.7725 3.0170 73.7057 0.0000 0.0000 0.0000
# 4 0.0000 0.0000 0.0000 38.0145 0.0000 0.0000
# 5 0.0000 0.0000 0.0000 0.0000 37.7151 0.0000
# 6 0.0000 0.0000 0.0000 0.0000 0.0000 8.7342
#
#
#
# Elastic Compliance Matrix: (Units=1/GPa)
#
#
# Indices 1 2 3 4 5 6 
#
# 1 0.017656 -0.009242 -0.012263 0.000000 0.000000 0.000000
# 2 -0.009242 0.015967 0.005964 0.000000 0.000000 0.000000
# 3 -0.012263 0.005964 0.022104 0.000000 0.000000 0.000000
# 4 0.000000 0.000000 0.000000 0.026306 0.000000 0.000000
# 5 0.000000 0.000000 0.000000 0.000000 0.026515 0.000000
# 6 0.000000 0.000000 0.000000 0.000000 0.000000 0.114493
#
#
# Mechanical properties :
#
#
# Convention : Reuss Voigt Hill
#
# Bulk Modulus (GPa) = 40.57942 54.74515 47.66228
# Shear Modulus (GPa) = 19.05945 28.74243 23.90094
#
# Velocity S-wave (km/s) = 3.27368 4.02015 3.66597
# Velocity P-wave (km/s) = 6.09153 7.23406 6.68724
#
# Compressibility (1/GPa) = 0.02464303
#
# Stress axis : x y z
#
# Youngs Moduli (GPa) = 56.63821 62.63039 45.24143
#
# Poissons Ratio (x) = 0.57885 0.55480
# Poissons Ratio (y) = 0.52346 -0.26981
# Poissons Ratio (z) = 0.69456 -0.37351
#
# Static dielectric constant tensor:
#      x y z
#    x 1.604970 0.000000 0.000000 
#    y 0.000000 1.594250 0.000000 
#    z 0.000000 0.000000 1.598830 
# 
# From -- ./inp_files/10870.got.cif
#   From: 2010.05.17/outbox.cif.g08.bks.cpg/sg64_6_cif.got.tgz:10870.got - 2010.06.03 16:29:19.
