data_PCOD9479598
_publ_section_title
;
Structure prediction by ZEFSAII (Michael W. Deem and Ramdas Pophale) SiO2 
 PCOD9479598
Probable space group: C M C A
;
_chemical_formula_sum "Si O2"
_cell_formula_units_Z 64
_cell_length_a 26.209257
_cell_length_b 28.845761
_cell_length_c 5.094188
_cell_angle_alpha 90.000000
_cell_angle_beta 90.000000
_cell_angle_gamma 90.000000
_cell_volume 3851.338390
_symmetry_space_group_name_H-M "C M C A"
_symmetry_group_IT_number 64
_symmetry_cell_setting 'orthorhombic'
loop_
_space_group_symop_operation_xyz
x,y,z
-x,1/2-y,1/2+z
x,-y,-z
-x,1/2+y,1/2-z
-x,-y,-z
x,1/2+y,1/2-z
-x,y,z
x,1/2-y,1/2+z
1/2+x,1/2+y,z
1/2-x,-y,1/2+z
1/2+x,1/2-y,-z
1/2-x,y,1/2-z
1/2-x,1/2-y,-z
1/2+x,y,1/2-z
1/2-x,1/2+y,z
1/2+x,-y,1/2+z
loop_
_atom_site_type_symbol
_atom_site_label
_atom_site_fract_x
_atom_site_fract_y
_atom_site_fract_z
Si Si1 0.750000 0.215808 0.250000
Si Si2 0.195340 0.650743 0.596724
Si Si3 0.887803 0.783405 0.320397
Si Si4 0.500000 0.280598 0.386655
Si Si5 0.212867 0.050241 0.999443
O O1 0.750000 0.250000 0.500000
O O2 0.705147 0.180483 0.332447
O O3 0.250000 0.650733 0.750000
O O4 0.153666 0.677407 0.766940
O O5 0.181944 0.597800 0.529581
O O6 0.882063 0.753803 0.585055
O O7 0.945601 0.803352 0.324584
O O8 0.500000 0.263801 0.688490
O O9 0.250000 0.055170 0.250000
O O10 0.250000 0.047851 0.750000
O O11 0.185755 0.000000 0.000000
#
# Coordination Sequence:
#
# PCOD9479598 Si02
#       5
#     8  16  16   8  16
#     4  12  22  30  40  60  98 126 144 170 216 272
#     4  11  22  32  46  69  96 125 153 187 229 279
#     4  10  21  31  47  65  90 124 154 186 222 265
#     4   8  16  34  46  60  83 116 161 192 212 252
#     4   9  18  32  47  62  86 120 155 190 223 266
#
# _framework density 16.617598000000001
#
# number of rings (size 3 to 8) (size 9 to 14) (size 15 to 20)
#    0.000    2.000    2.500    1.500    3.500    0.000 
#    0.000    0.000    0.000    0.000    0.000    0.875 
#    0.000    0.000    0.000   45.625    0.000    0.000 
#
# Total GULP energy -178262.961906 kJ/mol
# GULP energy per Si atom -5570.717560 kJ/mol
# Density = 1.657978 g / cm^3
# Si number density = 16.617598 Si / 1000 Ang^3
#
#
#
# Elastic Constant Matrix: (Units=GPa)
#
#
# Indices 1 2 3 4 5 6 
#
# 1 83.0560 33.0016 0.2943 0.0000 0.0000 0.0000
# 2 33.0016 134.6491 18.4124 0.0000 0.0000 0.0000
# 3 0.2943 18.4124 104.9166 0.0000 0.0000 0.0000
# 4 0.0000 0.0000 0.0000 14.9120 0.0000 0.0000
# 5 0.0000 0.0000 0.0000 0.0000 16.1140 0.0000
# 6 0.0000 0.0000 0.0000 0.0000 0.0000 7.6280
#
#
#
# Elastic Compliance Matrix: (Units=1/GPa)
#
#
# Indices 1 2 3 4 5 6 
#
# 1 0.013370 -0.003352 0.000551 0.000000 0.000000 0.000000
# 2 -0.003352 0.008450 -0.001474 0.000000 0.000000 0.000000
# 3 0.000551 -0.001474 0.009788 0.000000 0.000000 0.000000
# 4 0.000000 0.000000 0.000000 0.067060 0.000000 0.000000
# 5 0.000000 0.000000 0.000000 0.000000 0.062058 0.000000
# 6 0.000000 0.000000 0.000000 0.000000 0.000000 0.131096
#
#
# Mechanical properties :
#
#
# Convention : Reuss Voigt Hill
#
# Bulk Modulus (GPa) = 43.36804 47.33760 45.35282
# Shear Modulus (GPa) = 16.23071 25.79169 21.01120
#
# Velocity S-wave (km/s) = 3.12864 3.94391 3.55969
# Velocity P-wave (km/s) = 6.26143 7.02050 6.65180
#
# Compressibility (1/GPa) = 0.02305845
#
# Stress axis : x y z
#
# Youngs Moduli (GPa) = 74.79376 118.34573 102.16141
#
# Poissons Ratio (x) = 0.39672 -0.05627
# Poissons Ratio (y) = 0.25073 0.15054
# Poissons Ratio (z) = -0.04120 0.17438
#
# Static dielectric constant tensor:
#      x y z
#    x 1.599820 0.000000 0.000000 
#    y 0.000000 1.598600 0.000000 
#    z 0.000000 0.000000 1.619540 
# 
# From -- ./inp_files/2855.got.cif
#   From: 2010.05.17/outbox.cif.g08.bks.cpg/sg64_2_cif.got.tgz:2855.got - 2010.06.03 16:29:19.
