data_PCOD9479159
_publ_section_title
;
Structure prediction by ZEFSAII (Michael W. Deem and Ramdas Pophale) SiO2 
 PCOD9479159
Probable space group: C M C A
;
_chemical_formula_sum "Si O2"
_cell_formula_units_Z 88
_cell_length_a 24.379843
_cell_length_b 13.385857
_cell_length_c 12.953862
_cell_angle_alpha 90.000000
_cell_angle_beta 90.000000
_cell_angle_gamma 90.000000
_cell_volume 4227.429287
_symmetry_space_group_name_H-M "C M C A"
_symmetry_group_IT_number 64
_symmetry_cell_setting 'orthorhombic'
loop_
_space_group_symop_operation_xyz
x,y,z
-x,1/2-y,1/2+z
x,-y,-z
-x,1/2+y,1/2-z
-x,-y,-z
x,1/2+y,1/2-z
-x,y,z
x,1/2-y,1/2+z
1/2+x,1/2+y,z
1/2-x,-y,1/2+z
1/2+x,1/2-y,-z
1/2-x,y,1/2-z
1/2-x,1/2-y,-z
1/2+x,y,1/2-z
1/2-x,1/2+y,z
1/2+x,-y,1/2+z
loop_
_atom_site_type_symbol
_atom_site_label
_atom_site_fract_x
_atom_site_fract_y
_atom_site_fract_z
Si Si1 0.439516 0.627065 0.277098
Si Si2 0.711089 0.855886 0.150594
Si Si3 0.847828 0.848913 0.894868
Si Si4 0.225197 0.500000 0.500000
Si Si5 0.561285 0.252233 0.014673
Si Si6 0.902422 0.059811 0.605835
O O1 0.500000 0.642936 0.230669
O O2 0.389499 0.641813 0.200093
O O3 0.433362 0.702530 0.373083
O O4 0.436706 0.516229 0.325458
O O5 0.750000 0.857124 0.250000
O O6 0.693485 0.743598 0.121039
O O7 0.652909 0.911279 0.165134
O O8 0.739818 0.914670 0.056758
O O9 0.888416 0.824889 0.990605
O O10 0.812832 0.946569 0.915834
O O11 0.500000 0.294942 0.006893
O O12 0.568169 0.160843 0.932448
O O13 0.888638 0.000000 0.500000
#
# Coordination Sequence:
#
# PCOD9479159 Si02
#       6
#    16  16  16   8  16  16
#     4  10  20  37  64  96 128 165 208 258 318 384
#     4  11  24  41  66  94 124 170 215 264 318 376
#     4  11  25  41  65  89 131 166 212 265 323 387
#     4  12  26  46  63  94 127 172 216 270 324 374
#     4   9  19  37  63  91 126 165 208 257 315 381
#     4   9  17  35  61  91 123 162 209 262 306 369
#
# _framework density 20.816433
#
# number of rings (size 3 to 8) (size 9 to 14) (size 15 to 20)
#    0.000    1.818    0.909    2.727    2.545    4.364 
#    0.000    1.818    0.000    0.000    0.000    0.000 
#    0.000    0.000    0.000    0.000    0.000    0.000 
#
# Total GULP energy -245820.259720 kJ/mol
# GULP energy per Si atom -5586.824085 kJ/mol
# Density = 2.076905 g / cm^3
# Si number density = 20.816433 Si / 1000 Ang^3
#
#
#
# Elastic Constant Matrix: (Units=GPa)
#
#
# Indices 1 2 3 4 5 6 
#
# 1 121.2658 30.9980 51.9027 0.0000 0.0000 0.0000
# 2 30.9980 61.6834 17.7983 0.0000 0.0000 0.0000
# 3 51.9027 17.7983 75.3796 0.0000 0.0000 0.0000
# 4 0.0000 0.0000 0.0000 13.9657 0.0000 0.0000
# 5 0.0000 0.0000 0.0000 0.0000 -8.5158 0.0000
# 6 0.0000 0.0000 0.0000 0.0000 0.0000 7.1580
#
#
#
# Elastic Compliance Matrix: (Units=1/GPa)
#
#
# Indices 1 2 3 4 5 6 
#
# 1 0.012592 -0.004106 -0.007701 0.000000 0.000000 0.000000
# 2 -0.004106 0.018736 -0.001597 0.000000 0.000000 0.000000
# 3 -0.007701 -0.001597 0.018945 0.000000 0.000000 0.000000
# 4 0.000000 0.000000 0.000000 0.071604 0.000000 0.000000
# 5 0.000000 0.000000 0.000000 0.000000 -0.117429 0.000000
# 6 0.000000 0.000000 0.000000 0.000000 0.000000 0.139703
#
#
# Mechanical properties :
#
#
# Convention : Reuss Voigt Hill
#
# Bulk Modulus (GPa) = 42.61361 51.08076 46.84718
# Shear Modulus (GPa) = 27.96723 13.03024 20.49873
#
# Velocity S-wave (km/s) = 3.66938 2.50463 3.14146
# Velocity P-wave (km/s) = 6.20226 5.74075 5.97596
#
# Compressibility (1/GPa) = 0.02346668
#
# Stress axis : x y z
#
# Youngs Moduli (GPa) = 79.41667 53.37355 52.78302
#
# Poissons Ratio (x) = 0.21914 0.40646
# Poissons Ratio (y) = 0.32607 0.08428
# Poissons Ratio (z) = 0.61156 0.08523
#
# Static dielectric constant tensor:
#      x y z
#    x 1.729210 0.000000 0.000000 
#    y 0.000000 1.735370 0.000000 
#    z 0.000000 0.000000 1.736920 
# 
# From -- ./inp_files/18224.got.cif
#   From: 2010.05.17/outbox.cif.g08.bks.cpg/sg64_10_cif.got.tgz:18224.got - 2010.06.03 16:29:19.
