data_PCOD9479385
_publ_section_title
;
Structure prediction by ZEFSAII (Michael W. Deem and Ramdas Pophale) SiO2 
 PCOD9479385
Probable space group: C M C A
;
_chemical_formula_sum "Si O2"
_cell_formula_units_Z 112
_cell_length_a 12.977626
_cell_length_b 12.781605
_cell_length_c 29.337421
_cell_angle_alpha 90.000000
_cell_angle_beta 90.000000
_cell_angle_gamma 90.000000
_cell_volume 4866.341463
_symmetry_space_group_name_H-M "C M C A"
_symmetry_group_IT_number 64
_symmetry_cell_setting 'orthorhombic'
loop_
_space_group_symop_operation_xyz
x,y,z
-x,1/2-y,1/2+z
x,-y,-z
-x,1/2+y,1/2-z
-x,-y,-z
x,1/2+y,1/2-z
-x,y,z
x,1/2-y,1/2+z
1/2+x,1/2+y,z
1/2-x,-y,1/2+z
1/2+x,1/2-y,-z
1/2-x,y,1/2-z
1/2-x,1/2-y,-z
1/2+x,y,1/2-z
1/2-x,1/2+y,z
1/2+x,-y,1/2+z
loop_
_atom_site_type_symbol
_atom_site_label
_atom_site_fract_x
_atom_site_fract_y
_atom_site_fract_z
Si Si1 0.882534 0.238999 0.205385
Si Si2 0.195033 0.740562 0.048641
Si Si3 0.888614 0.693668 0.896695
Si Si4 0.383661 0.932287 0.270636
Si Si5 0.781305 0.944648 0.690621
Si Si6 0.671517 0.036721 0.090401
Si Si7 0.612688 0.466890 0.053044
O O1 0.883383 0.303715 0.158048
O O2 0.869699 0.319679 0.247019
O O3 0.790925 0.155487 0.200611
O O4 0.000000 0.194019 0.209020
O O5 0.289828 0.747391 0.084171
O O6 0.139718 0.630697 0.057446
O O7 0.125079 0.841804 0.055226
O O8 0.250000 0.750000 0.000000
O O9 0.881457 0.575246 0.914845
O O10 0.000000 0.738888 0.910284
O O11 0.500000 0.940763 0.286378
O O12 0.301673 0.959621 0.309477
O O13 0.357888 0.017340 0.230641
O O14 0.838001 0.931399 0.643111
O O15 0.791972 0.015121 0.079821
O O16 0.500000 0.498949 0.069750
O O17 0.622263 0.500000 0.000000
#
# Coordination Sequence:
#
# PCOD9479385 Si02
#       7
#    16  16  16  16  16  16  16
#     4  10  20  39  63  89 120 157 204 250 299 368
#     4  11  22  39  61  90 123 161 208 254 298 362
#     4  10  22  39  63  90 122 164 205 248 305 365
#     4  10  23  41  61  88 124 159 199 251 307 364
#     4  11  22  38  64  92 119 160 203 249 307 364
#     4  11  22  39  63  88 123 158 204 253 301 366
#     4  10  22  39  59  87 123 160 199 253 310 356
#
# _framework density 23.015236999999999
#
# number of rings (size 3 to 8) (size 9 to 14) (size 15 to 20)
#    0.000    1.571    4.286    0.429    0.000    5.143 
#    0.000    0.714    0.000    0.857    0.000    0.000 
#    0.000    0.000    0.000    0.000    0.000    0.000 
#
# Total GULP energy -313009.498421 kJ/mol
# GULP energy per Si atom -5589.455329 kJ/mol
# Density = 2.296285 g / cm^3
# Si number density = 23.015237 Si / 1000 Ang^3
#
#
#
# Elastic Constant Matrix: (Units=GPa)
#
#
# Indices 1 2 3 4 5 6 
#
# 1 82.2185 -7.5523 -12.1036 0.0000 0.0000 0.0000
# 2 -7.5523 101.2709 -12.7292 0.0000 0.0000 0.0000
# 3 -12.1036 -12.7292 36.5706 0.0000 0.0000 0.0000
# 4 0.0000 0.0000 0.0000 34.5091 0.0000 0.0000
# 5 0.0000 0.0000 0.0000 0.0000 14.0681 0.0000
# 6 0.0000 0.0000 0.0000 0.0000 0.0000 -13.1696
#
#
#
# Elastic Compliance Matrix: (Units=1/GPa)
#
#
# Indices 1 2 3 4 5 6 
#
# 1 0.013024 0.001582 0.004861 0.000000 0.000000 0.000000
# 2 0.001582 0.010519 0.004185 0.000000 0.000000 0.000000
# 3 0.004861 0.004185 0.030410 0.000000 0.000000 0.000000
# 4 0.000000 0.000000 0.000000 0.028978 0.000000 0.000000
# 5 0.000000 0.000000 0.000000 0.000000 0.071083 0.000000
# 6 0.000000 0.000000 0.000000 0.000000 0.000000 -0.075933
#
#
# Mechanical properties :
#
#
# Convention : Reuss Voigt Hill
#
# Bulk Modulus (GPa) = 13.29636 17.25442 15.27539
# Shear Modulus (GPa) = 61.05525 23.91121 42.48323
#
# Velocity S-wave (km/s) = 5.15614 3.22674 4.30102
# Velocity P-wave (km/s) = 6.42164 4.62555 5.59612
#
# Compressibility (1/GPa) = 0.07520853
#
# Stress axis : x y z
#
# Youngs Moduli (GPa) = 76.78325 95.07042 32.88410
#
# Poissons Ratio (x) = -0.15043 -0.15985
# Poissons Ratio (y) = -0.12149 -0.13762
# Poissons Ratio (z) = -0.37325 -0.39786
#
# Static dielectric constant tensor:
#      x y z
#    x 1.855410 0.000000 0.000000 
#    y 0.000000 1.886120 0.000000 
#    z 0.000000 0.000000 1.862080 
# 
# From -- ./inp_files/53247.got.cif
#   From: 2010.05.17/outbox.cif.g08.bks.cpg/sg64_27_cif.got.tgz:53247.got - 2010.06.03 16:29:19.
