data_PCOD9479334
_publ_section_title
;
Structure prediction by ZEFSAII (Michael W. Deem and Ramdas Pophale) SiO2 
 PCOD9479334
Probable space group: C M C A
;
_chemical_formula_sum "Si O2"
_cell_formula_units_Z 64
_cell_length_a 22.384169
_cell_length_b 14.633811
_cell_length_c 7.931799
_cell_angle_alpha 90.000000
_cell_angle_beta 90.000000
_cell_angle_gamma 90.000000
_cell_volume 2598.185280
_symmetry_space_group_name_H-M "C M C A"
_symmetry_group_IT_number 64
_symmetry_cell_setting 'orthorhombic'
loop_
_space_group_symop_operation_xyz
x,y,z
-x,1/2-y,1/2+z
x,-y,-z
-x,1/2+y,1/2-z
-x,-y,-z
x,1/2+y,1/2-z
-x,y,z
x,1/2-y,1/2+z
1/2+x,1/2+y,z
1/2-x,-y,1/2+z
1/2+x,1/2-y,-z
1/2-x,y,1/2-z
1/2-x,1/2-y,-z
1/2+x,y,1/2-z
1/2-x,1/2+y,z
1/2+x,-y,1/2+z
loop_
_atom_site_type_symbol
_atom_site_label
_atom_site_fract_x
_atom_site_fract_y
_atom_site_fract_z
Si Si1 0.181332 0.275604 0.017687
Si Si2 0.500000 0.865801 0.824215
Si Si3 0.127889 0.558390 0.175253
Si Si4 0.368173 0.616682 0.838994
Si Si5 0.500000 0.845115 0.227522
O O1 0.163108 0.350661 0.876677
O O2 0.145316 0.180811 0.997126
O O3 0.250000 0.250000 0.000000
O O4 0.163945 0.325548 0.190189
O O5 0.560943 0.914266 0.773628
O O6 0.500000 0.763305 0.756488
O O7 0.500000 0.863505 0.028227
O O8 0.153245 0.487087 0.311836
O O9 0.124086 0.500000 0.000000
O O10 0.439037 0.617492 0.806109
#
# Coordination Sequence:
#
# PCOD9479334 Si02
#       5
#    16   8  16  16   8
#     4  11  23  42  64  92 131 174 221 271 320 388
#     4  12  20  37  68  98 137 167 216 271 335 404
#     4  10  20  38  66  95 121 174 217 261 329 399
#     4  11  22  41  68  96 128 169 218 271 334 394
#     4  12  19  36  69 101 129 169 212 274 340 394
#
# _framework density 24.632577999999999
#
# number of rings (size 3 to 8) (size 9 to 14) (size 15 to 20)
#    0.000    1.000    7.500    1.875    0.000    0.000 
#    0.000   16.250    0.000    3.000    0.000    0.000 
#    0.000    0.000    0.000    0.000    0.000    0.000 
#
# Total GULP energy -179310.434074 kJ/mol
# GULP energy per Si atom -5603.451065 kJ/mol
# Density = 2.457651 g / cm^3
# Si number density = 24.632578 Si / 1000 Ang^3
#
#
#
# Elastic Constant Matrix: (Units=GPa)
#
#
# Indices 1 2 3 4 5 6 
#
# 1 151.6726 45.1018 12.1137 0.0000 0.0000 0.0000
# 2 45.1018 186.5551 10.9619 0.0000 0.0000 0.0000
# 3 12.1137 10.9619 77.7952 0.0000 0.0000 0.0000
# 4 0.0000 0.0000 0.0000 36.3597 0.0000 0.0000
# 5 0.0000 0.0000 0.0000 0.0000 9.1346 0.0000
# 6 0.0000 0.0000 0.0000 0.0000 0.0000 -16.4304
#
#
#
# Elastic Compliance Matrix: (Units=1/GPa)
#
#
# Indices 1 2 3 4 5 6 
#
# 1 0.007163 -0.001680 -0.000879 0.000000 0.000000 0.000000
# 2 -0.001680 0.005799 -0.000556 0.000000 0.000000 0.000000
# 3 -0.000879 -0.000556 0.013069 0.000000 0.000000 0.000000
# 4 0.000000 0.000000 0.000000 0.027503 0.000000 0.000000
# 5 0.000000 0.000000 0.000000 0.000000 0.109474 0.000000
# 6 0.000000 0.000000 0.000000 0.000000 0.000000 -0.060863
#
#
# Mechanical properties :
#
#
# Convention : Reuss Voigt Hill
#
# Bulk Modulus (GPa) = 50.49749 61.37528 55.93639
# Shear Modulus (GPa) = 43.48772 29.00247 36.24509
#
# Velocity S-wave (km/s) = 4.20629 3.43505 3.84008
# Velocity P-wave (km/s) = 6.64344 6.37990 6.51301
#
# Compressibility (1/GPa) = 0.01980296
#
# Stress axis : x y z
#
# Youngs Moduli (GPa) = 139.60789 172.43846 76.51486
#
# Poissons Ratio (x) = 0.28971 0.06723
# Poissons Ratio (y) = 0.23455 0.04251
# Poissons Ratio (z) = 0.12266 0.09580
#
# Static dielectric constant tensor:
#      x y z
#    x 1.876020 0.000000 0.000000 
#    y 0.000000 1.951920 0.000000 
#    z 0.000000 0.000000 2.044560 
# 
# From -- ./inp_files/7810.got.cif
#   From: 2010.05.17/outbox.cif.g08.bks.cpg/sg64_4_cif.got.tgz:7810.got - 2010.06.03 16:29:19.
