data_PCOD9479174
_publ_section_title
;
Structure prediction by ZEFSAII (Michael W. Deem and Ramdas Pophale) SiO2 
 PCOD9479174
Probable space group: C M C A
;
_chemical_formula_sum "Si O2"
_cell_formula_units_Z 112
_cell_length_a 26.723060
_cell_length_b 16.609969
_cell_length_c 11.616707
_cell_angle_alpha 90.000000
_cell_angle_beta 90.000000
_cell_angle_gamma 90.000000
_cell_volume 5156.298422
_symmetry_space_group_name_H-M "C M C A"
_symmetry_group_IT_number 64
_symmetry_cell_setting 'orthorhombic'
loop_
_space_group_symop_operation_xyz
x,y,z
-x,1/2-y,1/2+z
x,-y,-z
-x,1/2+y,1/2-z
-x,-y,-z
x,1/2+y,1/2-z
-x,y,z
x,1/2-y,1/2+z
1/2+x,1/2+y,z
1/2-x,-y,1/2+z
1/2+x,1/2-y,-z
1/2-x,y,1/2-z
1/2-x,1/2-y,-z
1/2+x,y,1/2-z
1/2-x,1/2+y,z
1/2+x,-y,1/2+z
loop_
_atom_site_type_symbol
_atom_site_label
_atom_site_fract_x
_atom_site_fract_y
_atom_site_fract_z
Si Si1 0.302718 0.671737 0.066137
Si Si2 0.204892 0.927847 0.578807
Si Si3 0.056940 0.556417 0.110850
Si Si4 0.057791 0.757866 0.531050
Si Si5 0.146380 0.674231 0.899364
Si Si6 0.858641 0.038830 0.202924
Si Si7 0.634385 0.366382 0.139146
O O1 0.249327 0.634900 0.092827
O O2 0.308856 0.762058 0.107580
O O3 0.344411 0.616978 0.129487
O O4 0.319126 0.669665 0.932462
O O5 0.160844 0.885314 0.504037
O O6 0.184802 0.961965 0.698917
O O7 0.224728 0.000000 0.500000
O O8 0.056802 0.652667 0.087664
O O9 0.091951 0.543187 0.219664
O O10 0.000000 0.531840 0.136545
O O11 0.071247 0.500000 0.000000
O O12 0.095642 0.776614 0.426365
O O13 0.086484 0.687761 0.602227
O O14 0.000000 0.736805 0.504853
O O15 0.140340 0.636075 0.776051
O O16 0.864235 0.961995 0.121165
#
# Coordination Sequence:
#
# PCOD9479174 Si02
#       7
#    16  16  16  16  16  16  16
#     4  11  27  42  64  95 138 179 227 286 356 423
#     4  12  23  43  68  98 131 178 237 290 346 412
#     4  10  20  37  67 101 131 172 231 291 346 409
#     4  10  22  41  65  98 137 174 224 288 352 413
#     4  11  23  43  68  96 131 180 229 293 349 421
#     4  12  22  42  67  95 137 180 225 287 348 418
#     4  11  24  43  66  96 138 182 230 288 354 425
#
# _framework density 21.721007
#
# number of rings (size 3 to 8) (size 9 to 14) (size 15 to 20)
#    0.000    1.000    2.857    4.286    2.000    1.714 
#    2.571    4.286    0.000    4.286    0.000    0.000 
#    0.000    0.000    0.000    0.000    0.000    0.000 
#
# Total GULP energy -312716.037962 kJ/mol
# GULP energy per Si atom -5584.214964 kJ/mol
# Density = 2.167157 g / cm^3
# Si number density = 21.721007 Si / 1000 Ang^3
#
#
#
# Elastic Constant Matrix: (Units=GPa)
#
#
# Indices 1 2 3 4 5 6 
#
# 1 125.5601 18.1580 20.0198 0.0000 0.0000 0.0000
# 2 18.1580 85.9798 16.4574 0.0000 0.0000 0.0000
# 3 20.0198 16.4574 76.7385 0.0000 0.0000 0.0000
# 4 0.0000 0.0000 0.0000 33.2604 0.0000 0.0000
# 5 0.0000 0.0000 0.0000 0.0000 14.2214 0.0000
# 6 0.0000 0.0000 0.0000 0.0000 0.0000 28.4066
#
#
#
# Elastic Compliance Matrix: (Units=1/GPa)
#
#
# Indices 1 2 3 4 5 6 
#
# 1 0.008474 -0.001425 -0.001905 0.000000 0.000000 0.000000
# 2 -0.001425 0.012368 -0.002281 0.000000 0.000000 0.000000
# 3 -0.001905 -0.002281 0.014017 0.000000 0.000000 0.000000
# 4 0.000000 0.000000 0.000000 0.030066 0.000000 0.000000
# 5 0.000000 0.000000 0.000000 0.000000 0.070316 0.000000
# 6 0.000000 0.000000 0.000000 0.000000 0.000000 0.035203
#
#
# Mechanical properties :
#
#
# Convention : Reuss Voigt Hill
#
# Bulk Modulus (GPa) = 42.30481 44.17208 43.23844
# Shear Modulus (GPa) = 26.37882 30.75390 28.56636
#
# Velocity S-wave (km/s) = 3.48866 3.76687 3.63043
# Velocity P-wave (km/s) = 5.97883 6.26892 6.12559
#
# Compressibility (1/GPa) = 0.02363797
#
# Stress axis : x y z
#
# Youngs Moduli (GPa) = 118.00584 80.85297 71.33977
#
# Poissons Ratio (x) = 0.11521 0.13591
# Poissons Ratio (y) = 0.16816 0.16271
# Poissons Ratio (z) = 0.22482 0.18440
#
# Static dielectric constant tensor:
#      x y z
#    x 1.805140 0.000000 0.000000 
#    y 0.000000 1.825990 0.000000 
#    z 0.000000 0.000000 1.787920 
# 
# From -- ./inp_files/19847.got.cif
#   From: 2010.05.17/outbox.cif.g08.bks.cpg/sg64_10_cif.got.tgz:19847.got - 2010.06.03 16:29:19.
