data_PCOD9479227
_publ_section_title
;
Structure prediction by ZEFSAII (Michael W. Deem and Ramdas Pophale) SiO2 
 PCOD9479227
Probable space group: C M C A
;
_chemical_formula_sum "Si O2"
_cell_formula_units_Z 88
_cell_length_a 22.563247
_cell_length_b 9.150389
_cell_length_c 18.679603
_cell_angle_alpha 90.000000
_cell_angle_beta 90.000000
_cell_angle_gamma 90.000000
_cell_volume 3856.637294
_symmetry_space_group_name_H-M "C M C A"
_symmetry_group_IT_number 64
_symmetry_cell_setting 'orthorhombic'
loop_
_space_group_symop_operation_xyz
x,y,z
-x,1/2-y,1/2+z
x,-y,-z
-x,1/2+y,1/2-z
-x,-y,-z
x,1/2+y,1/2-z
-x,y,z
x,1/2-y,1/2+z
1/2+x,1/2+y,z
1/2-x,-y,1/2+z
1/2+x,1/2-y,-z
1/2-x,y,1/2-z
1/2-x,1/2-y,-z
1/2+x,y,1/2-z
1/2-x,1/2+y,z
1/2+x,-y,1/2+z
loop_
_atom_site_type_symbol
_atom_site_label
_atom_site_fract_x
_atom_site_fract_y
_atom_site_fract_z
Si Si1 0.621880 0.512875 0.285870
Si Si2 0.803524 0.000000 0.500000
Si Si3 0.284269 0.799283 0.875509
Si Si4 0.872469 0.956225 0.116776
Si Si5 0.000000 0.560375 0.646869
Si Si6 0.155191 0.776727 0.386823
Si Si7 0.500000 0.832757 0.760230
O O1 0.675738 0.606315 0.320888
O O2 0.633924 0.480841 0.202917
O O3 0.616889 0.358715 0.327002
O O4 0.560950 0.602155 0.292427
O O5 0.769168 0.096730 0.442611
O O6 0.840740 0.112426 0.547333
O O7 0.324547 0.665042 0.901992
O O8 0.220796 0.740408 0.851297
O O9 0.939973 0.908495 0.105029
O O10 0.864757 0.118717 0.087548
O O11 0.000000 0.395306 0.678916
O O12 0.000000 0.663611 0.717669
#
# Coordination Sequence:
#
# PCOD9479227 Si02
#       7
#    16   8  16  16   8  16   8
#     4  10  22  37  60  93 131 161 191 241 307 367
#     4  10  24  44  60  83 116 167 216 252 296 356
#     4  11  22  40  62  90 122 160 204 252 305 358
#     4  11  22  37  63  94 126 158 202 245 300 370
#     4  10  22  36  62  91 123 168 203 237 288 363
#     4  11  24  38  62  91 119 162 203 251 309 354
#     4  10  20  38  60  87 126 170 202 234 281 370
#
# _framework density 22.817806000000001
#
# number of rings (size 3 to 8) (size 9 to 14) (size 15 to 20)
#    0.000    1.455    1.818    3.818    7.636    5.091 
#    0.000    0.000    0.000   20.727    0.000    0.000 
#    0.000    0.000    0.000    0.000    0.000    0.000 
#
# Total GULP energy -246067.487464 kJ/mol
# GULP energy per Si atom -5592.442897 kJ/mol
# Density = 2.276587 g / cm^3
# Si number density = 22.817806 Si / 1000 Ang^3
#
#
#
# Elastic Constant Matrix: (Units=GPa)
#
#
# Indices 1 2 3 4 5 6 
#
# 1 102.7882 16.0783 6.1048 0.0000 0.0000 0.0000
# 2 16.0783 121.6583 9.0598 0.0000 0.0000 0.0000
# 3 6.1048 9.0598 48.5825 0.0000 0.0000 0.0000
# 4 0.0000 0.0000 0.0000 37.3400 0.0000 0.0000
# 5 0.0000 0.0000 0.0000 0.0000 -9.5294 0.0000
# 6 0.0000 0.0000 0.0000 0.0000 0.0000 36.6871
#
#
#
# Elastic Compliance Matrix: (Units=1/GPa)
#
#
# Indices 1 2 3 4 5 6 
#
# 1 0.009984 -0.001243 -0.001023 0.000000 0.000000 0.000000
# 2 -0.001243 0.008490 -0.001427 0.000000 0.000000 0.000000
# 3 -0.001023 -0.001427 0.020978 0.000000 0.000000 0.000000
# 4 0.000000 0.000000 0.000000 0.026781 0.000000 0.000000
# 5 0.000000 0.000000 0.000000 0.000000 -0.104938 0.000000
# 6 0.000000 0.000000 0.000000 0.000000 0.000000 0.027258
#
#
# Mechanical properties :
#
#
# Convention : Reuss Voigt Hill
#
# Bulk Modulus (GPa) = 31.18542 37.27943 34.23242
# Shear Modulus (GPa) = 754.37302 29.01861 391.69581
#
# Velocity S-wave (km/s) = 18.20233 3.57003 13.11621
# Velocity P-wave (km/s) = 21.34159 5.77640 15.63378
#
# Compressibility (1/GPa) = 0.03206627
#
# Stress axis : x y z
#
# Youngs Moduli (GPa) = 100.16062 117.78102 47.66861
#
# Poissons Ratio (x) = 0.14644 0.04875
# Poissons Ratio (y) = 0.12453 0.06803
# Poissons Ratio (z) = 0.10244 0.16808
#
# Static dielectric constant tensor:
#      x y z
#    x 1.834010 0.000000 0.000000 
#    y 0.000000 1.889110 0.000000 
#    z 0.000000 0.000000 1.869490 
# 
# From -- ./inp_files/46228.got.cif
#   From: 2010.05.17/outbox.cif.g08.bks.cpg/sg64_24_cif.got.tgz:46228.got - 2010.06.03 16:29:19.
