data_PCOD9479729
_publ_section_title
;
Structure prediction by ZEFSAII (Michael W. Deem and Ramdas Pophale) SiO2 
 PCOD9479729
Probable space group: C M C A
;
_chemical_formula_sum "Si O2"
_cell_formula_units_Z 96
_cell_length_a 20.561753
_cell_length_b 9.400930
_cell_length_c 23.980581
_cell_angle_alpha 90.000000
_cell_angle_beta 90.000000
_cell_angle_gamma 90.000000
_cell_volume 4635.436730
_symmetry_space_group_name_H-M "C M C A"
_symmetry_group_IT_number 64
_symmetry_cell_setting 'orthorhombic'
loop_
_space_group_symop_operation_xyz
x,y,z
-x,1/2-y,1/2+z
x,-y,-z
-x,1/2+y,1/2-z
-x,-y,-z
x,1/2+y,1/2-z
-x,y,z
x,1/2-y,1/2+z
1/2+x,1/2+y,z
1/2-x,-y,1/2+z
1/2+x,1/2-y,-z
1/2-x,y,1/2-z
1/2-x,1/2-y,-z
1/2+x,y,1/2-z
1/2-x,1/2+y,z
1/2+x,-y,1/2+z
loop_
_atom_site_type_symbol
_atom_site_label
_atom_site_fract_x
_atom_site_fract_y
_atom_site_fract_z
Si Si1 0.378153 0.989075 0.266909
Si Si2 0.287872 0.327869 0.905842
Si Si3 0.929784 0.454979 0.146220
Si Si4 0.429038 0.876785 0.625211
Si Si5 0.296163 0.768365 0.794695
Si Si6 0.826484 0.488027 0.059618
O O1 0.421173 0.075265 0.310786
O O2 0.326192 0.097964 0.238810
O O3 0.415645 0.940900 0.211590
O O4 0.350598 0.853347 0.301226
O O5 0.357529 0.407852 0.900747
O O6 0.249754 0.309329 0.846539
O O7 0.236403 0.412401 0.942359
O O8 0.302361 0.170902 0.928020
O O9 0.931186 0.294421 0.123418
O O10 0.873124 0.530474 0.111186
O O11 0.000000 0.523572 0.137816
O O12 0.500000 0.928728 0.603846
O O13 0.250000 0.692579 0.750000
O O14 0.861179 0.500000 0.000000
#
# Coordination Sequence:
#
# PCOD9479729 Si02
#       6
#    16  16  16  16  16  16
#     4  12  20  36  55  86 122 156 189 224 275 346
#     4  11  22  39  60  87 118 150 194 246 293 346
#     4  10  21  38  57  84 119 152 192 237 286 347
#     4  10  21  36  56  83 118 160 190 223 284 352
#     4  12  22  32  58  89 120 151 189 230 280 342
#     4  11  23  40  63  86 110 148 199 254 302 341
#
# _framework density 20.710024000000001
#
# number of rings (size 3 to 8) (size 9 to 14) (size 15 to 20)
#    0.000    1.000    5.000    3.500    0.000    0.333 
#    0.000    0.000    0.000    0.500    0.000    0.000 
#    0.000    0.000    0.000    0.000    0.000    0.000 
#
# Total GULP energy -267489.629205 kJ/mol
# GULP energy per Si atom -5572.700608 kJ/mol
# Density = 2.066289 g / cm^3
# Si number density = 20.710024 Si / 1000 Ang^3
#
#
#
# Elastic Constant Matrix: (Units=GPa)
#
#
# Indices 1 2 3 4 5 6 
#
# 1 121.5906 16.3990 5.2961 0.0000 0.0000 0.0000
# 2 16.3990 46.4526 -11.4193 0.0000 0.0000 0.0000
# 3 5.2961 -11.4193 32.2996 0.0000 0.0000 0.0000
# 4 0.0000 0.0000 0.0000 8.1616 0.0000 0.0000
# 5 0.0000 0.0000 0.0000 0.0000 -7.1370 0.0000
# 6 0.0000 0.0000 0.0000 0.0000 0.0000 12.6929
#
#
#
# Elastic Compliance Matrix: (Units=1/GPa)
#
#
# Indices 1 2 3 4 5 6 
#
# 1 0.008861 -0.003817 -0.002802 0.000000 0.000000 0.000000
# 2 -0.003817 0.025221 0.009543 0.000000 0.000000 0.000000
# 3 -0.002802 0.009543 0.034793 0.000000 0.000000 0.000000
# 4 0.000000 0.000000 0.000000 0.122525 0.000000 0.000000
# 5 0.000000 0.000000 0.000000 0.000000 -0.140114 0.000000
# 6 0.000000 0.000000 0.000000 0.000000 0.000000 0.078784
#
#
# Mechanical properties :
#
#
# Convention : Reuss Voigt Hill
#
# Bulk Modulus (GPa) = 13.38313 24.54381 18.96347
# Shear Modulus (GPa) = 33.52756 15.41464 24.47110
#
# Velocity S-wave (km/s) = 4.02793 2.73116 3.44118
# Velocity P-wave (km/s) = 5.30174 4.67146 4.99655
#
# Compressibility (1/GPa) = 0.07472095
#
# Stress axis : x y z
#
# Youngs Moduli (GPa) = 112.85142 39.64996 28.74113
#
# Poissons Ratio (x) = 0.15135 0.08055
# Poissons Ratio (y) = 0.43077 -0.27426
# Poissons Ratio (z) = 0.31626 -0.37836
#
# Static dielectric constant tensor:
#      x y z
#    x 1.843380 0.000000 0.000000 
#    y 0.000000 1.730310 0.000000 
#    z 0.000000 0.000000 1.729110 
# 
# From -- ./inp_files/50394.got.cif
#   From: 2010.05.17/outbox.cif.g08.bks.cpg/sg64_26_cif.got.tgz:50394.got - 2010.06.03 16:29:19.
