data_PCOD9479118
_publ_section_title
;
Structure prediction by ZEFSAII (Michael W. Deem and Ramdas Pophale) SiO2 
 PCOD9479118
Probable space group: C M C A
;
_chemical_formula_sum "Si O2"
_cell_formula_units_Z 120
_cell_length_a 19.803351
_cell_length_b 14.135104
_cell_length_c 19.088843
_cell_angle_alpha 90.000000
_cell_angle_beta 90.000000
_cell_angle_gamma 90.000000
_cell_volume 5343.395241
_symmetry_space_group_name_H-M "C M C A"
_symmetry_group_IT_number 64
_symmetry_cell_setting 'orthorhombic'
loop_
_space_group_symop_operation_xyz
x,y,z
-x,1/2-y,1/2+z
x,-y,-z
-x,1/2+y,1/2-z
-x,-y,-z
x,1/2+y,1/2-z
-x,y,z
x,1/2-y,1/2+z
1/2+x,1/2+y,z
1/2-x,-y,1/2+z
1/2+x,1/2-y,-z
1/2-x,y,1/2-z
1/2-x,1/2-y,-z
1/2+x,y,1/2-z
1/2-x,1/2+y,z
1/2+x,-y,1/2+z
loop_
_atom_site_type_symbol
_atom_site_label
_atom_site_fract_x
_atom_site_fract_y
_atom_site_fract_z
Si Si1 0.208515 0.249816 0.813431
Si Si2 0.610850 0.838352 0.403656
Si Si3 0.079411 0.361730 0.137861
Si Si4 0.421320 0.964799 0.272462
Si Si5 0.919853 0.678735 0.269935
Si Si6 0.724964 0.637574 0.076980
Si Si7 0.636654 0.000000 0.500000
Si Si8 0.354204 0.310560 0.499329
O O1 0.250000 0.204430 0.750000
O O2 0.188638 0.181238 0.877925
O O3 0.136582 0.290414 0.786742
O O4 0.256904 0.330647 0.844761
O O5 0.583163 0.886519 0.333277
O O6 0.596399 0.739168 0.443170
O O7 0.597194 0.916588 0.462592
O O8 0.109965 0.426430 0.200010
O O9 0.085820 0.254420 0.167524
O O10 0.112269 0.368552 0.062482
O O11 0.000000 0.380242 0.130200
O O12 0.500000 0.972218 0.256977
O O13 0.402179 0.071549 0.291910
O O14 0.000000 0.683611 0.247314
O O15 0.682903 0.544653 0.060793
O O16 0.683652 0.722273 0.039023
O O17 0.797350 0.631268 0.039433
#
# Coordination Sequence:
#
# PCOD9479118 Si02
#       8
#    16  16  16  16  16  16   8  16
#     4  11  22  38  61  93 122 162 214 259 310 370
#     4  10  22  38  59  89 124 164 198 258 322 370
#     4  10  20  37  62  88 119 164 205 255 312 368
#     4  10  22  39  60  89 123 163 215 259 308 374
#     4  10  22  39  59  87 126 167 205 255 313 369
#     4   9  20  36  55  80 118 161 193 251 309 355
#     4  10  22  38  55  82 125 158 202 248 318 384
#     4   9  19  37  58  80 119 157 198 244 305 376
#
# _framework density 22.457630999999999
#
# number of rings (size 3 to 8) (size 9 to 14) (size 15 to 20)
#    0.000    2.133    1.333    1.600    5.600    1.600 
#    2.400    2.333    0.000    0.000    0.000   12.133 
#    0.000    0.000    0.000    0.133    0.000    0.000 
#
# Total GULP energy -334329.365132 kJ/mol
# GULP energy per Si atom -5572.156086 kJ/mol
# Density = 2.240652 g / cm^3
# Si number density = 22.457631 Si / 1000 Ang^3
#
#
#
# Elastic Constant Matrix: (Units=GPa)
#
#
# Indices 1 2 3 4 5 6 
#
# 1 46.5532 3.3431 11.2546 0.0000 0.0000 0.0000
# 2 3.3431 26.7837 -16.9711 0.0000 0.0000 0.0000
# 3 11.2546 -16.9711 73.2839 0.0000 0.0000 0.0000
# 4 0.0000 0.0000 0.0000 22.1907 0.0000 0.0000
# 5 0.0000 0.0000 0.0000 0.0000 24.5280 0.0000
# 6 0.0000 0.0000 0.0000 0.0000 0.0000 9.9467
#
#
#
# Elastic Compliance Matrix: (Units=1/GPa)
#
#
# Indices 1 2 3 4 5 6 
#
# 1 0.023108 -0.006016 -0.004942 0.000000 0.000000 0.000000
# 2 -0.006016 0.045323 0.011420 0.000000 0.000000 0.000000
# 3 -0.004942 0.011420 0.017049 0.000000 0.000000 0.000000
# 4 0.000000 0.000000 0.000000 0.045064 0.000000 0.000000
# 5 0.000000 0.000000 0.000000 0.000000 0.040770 0.000000
# 6 0.000000 0.000000 0.000000 0.000000 0.000000 0.100535
#
#
# Mechanical properties :
#
#
# Convention : Reuss Voigt Hill
#
# Bulk Modulus (GPa) = 11.57352 15.76378 13.66865
# Shear Modulus (GPa) = 16.68194 21.26603 18.97398
#
# Velocity S-wave (km/s) = 2.72843 3.08058 2.90983
# Velocity P-wave (km/s) = 3.88464 4.43710 4.17003
#
# Compressibility (1/GPa) = 0.08640414
#
# Stress axis : x y z
#
# Youngs Moduli (GPa) = 43.27596 22.06393 58.65416
#
# Poissons Ratio (x) = 0.13273 0.28986
# Poissons Ratio (y) = 0.26033 -0.66981
# Poissons Ratio (z) = 0.21386 -0.25196
#
# Static dielectric constant tensor:
#      x y z
#    x 1.854500 0.000000 0.000000 
#    y 0.000000 1.904910 0.000000 
#    z 0.000000 0.000000 1.925820 
# 
# From -- ./inp_files/41063.got.cif
#   From: 2010.05.17/outbox.cif.g08.bks.cpg/sg64_21_cif.got.tgz:41063.got - 2010.06.03 16:29:19.
