data_PCOD9479619
_publ_section_title
;
Structure prediction by ZEFSAII (Michael W. Deem and Ramdas Pophale) SiO2 
 PCOD9479619
Probable space group: C M C A
;
_chemical_formula_sum "Si O2"
_cell_formula_units_Z 80
_cell_length_a 19.753701
_cell_length_b 8.916828
_cell_length_c 20.611145
_cell_angle_alpha 90.000000
_cell_angle_beta 90.000000
_cell_angle_gamma 90.000000
_cell_volume 3630.454380
_symmetry_space_group_name_H-M "C M C A"
_symmetry_group_IT_number 64
_symmetry_cell_setting 'orthorhombic'
loop_
_space_group_symop_operation_xyz
x,y,z
-x,1/2-y,1/2+z
x,-y,-z
-x,1/2+y,1/2-z
-x,-y,-z
x,1/2+y,1/2-z
-x,y,z
x,1/2-y,1/2+z
1/2+x,1/2+y,z
1/2-x,-y,1/2+z
1/2+x,1/2-y,-z
1/2-x,y,1/2-z
1/2-x,1/2-y,-z
1/2+x,y,1/2-z
1/2-x,1/2+y,z
1/2+x,-y,1/2+z
loop_
_atom_site_type_symbol
_atom_site_label
_atom_site_fract_x
_atom_site_fract_y
_atom_site_fract_z
Si Si1 0.923704 0.143213 0.044848
Si Si2 0.577167 0.929585 0.336931
Si Si3 0.316541 0.370757 0.417894
Si Si4 0.821353 0.531417 0.780696
Si Si5 0.319653 0.798579 0.888926
O O1 0.923235 0.074118 0.116891
O O2 0.000000 0.197320 0.029712
O O3 0.866547 0.268099 0.041321
O O4 0.909478 0.000000 0.000000
O O5 0.500000 0.889443 0.320846
O O6 0.621975 0.963314 0.273936
O O7 0.612961 0.797887 0.378828
O O8 0.339920 0.364789 0.341934
O O9 0.319220 0.548559 0.430665
O O10 0.240549 0.306624 0.414325
O O11 0.750000 0.574479 0.750000
O O12 0.809054 0.371460 0.816830
#
# Coordination Sequence:
#
# PCOD9479619 Si02
#       5
#    16  16  16  16  16
#     4  10  23  44  64  85 121 168 210 252 306 366
#     4  11  23  38  59  89 124 161 204 250 304 365
#     4  10  21  36  63  87 121 157 203 247 304 365
#     4  10  21  33  62  85 126 159 194 244 303 372
#     4  10  22  37  59  93 125 158 200 249 312 363
#
# _framework density 22.035809
#
# number of rings (size 3 to 8) (size 9 to 14) (size 15 to 20)
#    1.200    0.600    2.000    2.400    5.600    2.400 
#    0.000    5.000    0.000    3.600    0.000    0.000 
#    0.000    0.000    0.000    0.000    0.000    0.000 
#
# Total GULP energy -223314.052406 kJ/mol
# GULP energy per Si atom -5582.851310 kJ/mol
# Density = 2.198565 g / cm^3
# Si number density = 22.035809 Si / 1000 Ang^3
#
#
#
# Elastic Constant Matrix: (Units=GPa)
#
#
# Indices 1 2 3 4 5 6 
#
# 1 161.7343 82.9234 45.9146 0.0000 0.0000 0.0000
# 2 82.9234 101.8810 15.4731 0.0000 0.0000 0.0000
# 3 45.9146 15.4731 71.6480 0.0000 0.0000 0.0000
# 4 0.0000 0.0000 0.0000 30.5563 0.0000 0.0000
# 5 0.0000 0.0000 0.0000 0.0000 27.4271 0.0000
# 6 0.0000 0.0000 0.0000 0.0000 0.0000 27.4695
#
#
#
# Elastic Compliance Matrix: (Units=1/GPa)
#
#
# Indices 1 2 3 4 5 6 
#
# 1 0.012785 -0.009472 -0.006147 0.000000 0.000000 0.000000
# 2 -0.009472 0.017166 0.002363 0.000000 0.000000 0.000000
# 3 -0.006147 0.002363 0.017386 0.000000 0.000000 0.000000
# 4 0.000000 0.000000 0.000000 0.032726 0.000000 0.000000
# 5 0.000000 0.000000 0.000000 0.000000 0.036460 0.000000
# 6 0.000000 0.000000 0.000000 0.000000 0.000000 0.036404
#
#
# Mechanical properties :
#
#
# Convention : Reuss Voigt Hill
#
# Bulk Modulus (GPa) = 48.02160 69.32060 58.67110
# Shear Modulus (GPa) = 26.82666 29.82073 28.32369
#
# Velocity S-wave (km/s) = 3.49293 3.68269 3.58907
# Velocity P-wave (km/s) = 6.17311 7.04340 6.62256
#
# Compressibility (1/GPa) = 0.02082396
#
# Stress axis : x y z
#
# Youngs Moduli (GPa) = 78.21940 58.25453 57.51691
#
# Poissons Ratio (x) = 0.55179 0.35357
# Poissons Ratio (y) = 0.74090 -0.13590
# Poissons Ratio (z) = 0.48083 -0.13765
#
# Static dielectric constant tensor:
#      x y z
#    x 1.751270 0.000000 0.000000 
#    y 0.000000 1.831080 0.000000 
#    z 0.000000 0.000000 1.908330 
# 
# From -- ./inp_files/50293.got.cif
#   From: 2010.05.17/outbox.cif.g08.bks.cpg/sg64_26_cif.got.tgz:50293.got - 2010.06.03 16:29:19.
