data_PCOD9479271
_publ_section_title
;
Structure prediction by ZEFSAII (Michael W. Deem and Ramdas Pophale) SiO2 
 PCOD9479271
Probable space group: C M C A
;
_chemical_formula_sum "Si O2"
_cell_formula_units_Z 72
_cell_length_a 27.448043
_cell_length_b 22.495537
_cell_length_c 5.246565
_cell_angle_alpha 90.000000
_cell_angle_beta 90.000000
_cell_angle_gamma 90.000000
_cell_volume 3239.535981
_symmetry_space_group_name_H-M "C M C A"
_symmetry_group_IT_number 64
_symmetry_cell_setting 'orthorhombic'
loop_
_space_group_symop_operation_xyz
x,y,z
-x,1/2-y,1/2+z
x,-y,-z
-x,1/2+y,1/2-z
-x,-y,-z
x,1/2+y,1/2-z
-x,y,z
x,1/2-y,1/2+z
1/2+x,1/2+y,z
1/2-x,-y,1/2+z
1/2+x,1/2-y,-z
1/2-x,y,1/2-z
1/2-x,1/2-y,-z
1/2+x,y,1/2-z
1/2-x,1/2+y,z
1/2+x,-y,1/2+z
loop_
_atom_site_type_symbol
_atom_site_label
_atom_site_fract_x
_atom_site_fract_y
_atom_site_fract_z
Si Si1 0.558022 0.217861 0.289832
Si Si2 0.132297 0.624871 0.371865
Si Si3 0.891043 0.064134 0.637226
Si Si4 0.271399 0.317575 0.997446
Si Si5 0.000000 0.042130 0.743282
O O1 0.500000 0.215804 0.291882
O O2 0.574049 0.264870 0.505620
O O3 0.579980 0.156023 0.375261
O O4 0.133913 0.574013 0.587591
O O5 0.171321 0.674728 0.458903
O O6 0.134887 0.604554 0.078239
O O7 0.948586 0.076108 0.701792
O O8 0.889584 0.000000 0.500000
O O9 0.250000 0.345828 0.250000
O O10 0.250000 0.348615 0.750000
O O11 0.250000 0.250000 0.000000
O O12 0.000000 0.000000 0.500000
O O13 0.000000 0.000000 0.000000
#
# Coordination Sequence:
#
# PCOD9479271 Si02
#       5
#    16  16  16  16   8
#     4  10  23  39  58  89 135 173 214 262 325 410
#     4  12  24  39  71  94 128 181 220 271 346 392
#     4  11  24  41  64  97 138 177 228 271 319 395
#     4  10  23  41  66  94 126 158 214 289 339 404
#     4  10  20  38  62  92 134 182 228 278 314 358
#
# _framework density 22.225404000000001
#
# number of rings (size 3 to 8) (size 9 to 14) (size 15 to 20)
#    0.000    1.333    0.000    6.000    9.333    0.000 
#    0.000    0.000    0.000   13.333    0.000    0.000 
#    0.000    0.000    0.000    0.000    0.000    0.000 
#
# Total GULP energy -200538.229911 kJ/mol
# GULP energy per Si atom -5570.506386 kJ/mol
# Density = 2.217482 g / cm^3
# Si number density = 22.225404 Si / 1000 Ang^3
#
#
#
# Elastic Constant Matrix: (Units=GPa)
#
#
# Indices 1 2 3 4 5 6 
#
# 1 55.4078 5.6178 25.6280 0.0000 0.0000 0.0000
# 2 5.6178 26.3622 -5.0187 0.0000 0.0000 0.0000
# 3 25.6280 -5.0187 165.0377 0.0000 0.0000 0.0000
# 4 0.0000 0.0000 0.0000 13.7825 0.0000 0.0000
# 5 0.0000 0.0000 0.0000 0.0000 27.9427 0.0000
# 6 0.0000 0.0000 0.0000 0.0000 0.0000 23.9622
#
#
#
# Elastic Compliance Matrix: (Units=1/GPa)
#
#
# Indices 1 2 3 4 5 6 
#
# 1 0.020053 -0.004895 -0.003263 0.000000 0.000000 0.000000
# 2 -0.004895 0.039349 0.001957 0.000000 0.000000 0.000000
# 3 -0.003263 0.001957 0.006625 0.000000 0.000000 0.000000
# 4 0.000000 0.000000 0.000000 0.072556 0.000000 0.000000
# 5 0.000000 0.000000 0.000000 0.000000 0.035787 0.000000
# 6 0.000000 0.000000 0.000000 0.000000 0.000000 0.041732
#
#
# Mechanical properties :
#
#
# Convention : Reuss Voigt Hill
#
# Bulk Modulus (GPa) = 18.64772 33.25133 25.94953
# Shear Modulus (GPa) = 20.29385 27.84286 24.06835
#
# Velocity S-wave (km/s) = 3.02502 3.54326 3.29435
# Velocity P-wave (km/s) = 4.53977 5.63321 5.11578
#
# Compressibility (1/GPa) = 0.05362585
#
# Stress axis : x y z
#
# Youngs Moduli (GPa) = 49.86671 25.41389 150.93430
#
# Poissons Ratio (x) = 0.12439 0.49248
# Poissons Ratio (y) = 0.24407 -0.29532
# Poissons Ratio (z) = 0.16271 -0.04973
#
# Static dielectric constant tensor:
#      x y z
#    x 1.840450 0.000000 0.000000 
#    y 0.000000 1.865530 0.000000 
#    z 0.000000 0.000000 1.879490 
# 
# From -- ./inp_files/2822.got.cif
#   From: 2010.05.17/outbox.cif.g08.bks.cpg/sg64_2_cif.got.tgz:2822.got - 2010.06.03 16:29:19.
