data_PCOD9479066
_publ_section_title
;
Structure prediction by ZEFSAII (Michael W. Deem and Ramdas Pophale) SiO2 
 PCOD9479066
Probable space group: C M C A
;
_chemical_formula_sum "Si O2"
_cell_formula_units_Z 56
_cell_length_a 22.287691
_cell_length_b 19.301896
_cell_length_c 5.443652
_cell_angle_alpha 90.000000
_cell_angle_beta 90.000000
_cell_angle_gamma 90.000000
_cell_volume 2341.830205
_symmetry_space_group_name_H-M "C M C A"
_symmetry_group_IT_number 64
_symmetry_cell_setting 'orthorhombic'
loop_
_space_group_symop_operation_xyz
x,y,z
-x,1/2-y,1/2+z
x,-y,-z
-x,1/2+y,1/2-z
-x,-y,-z
x,1/2+y,1/2-z
-x,y,z
x,1/2-y,1/2+z
1/2+x,1/2+y,z
1/2-x,-y,1/2+z
1/2+x,1/2-y,-z
1/2-x,y,1/2-z
1/2-x,1/2-y,-z
1/2+x,y,1/2-z
1/2-x,1/2+y,z
1/2+x,-y,1/2+z
loop_
_atom_site_type_symbol
_atom_site_label
_atom_site_fract_x
_atom_site_fract_y
_atom_site_fract_z
Si Si1 0.500000 0.197696 0.329231
Si Si2 0.250000 0.544074 0.750000
Si Si3 0.123577 0.074767 0.872630
Si Si4 0.500000 0.611819 0.667537
Si Si5 0.367805 0.280956 0.859840
O O1 0.500000 0.153478 0.575637
O O2 0.561874 0.240136 0.330721
O O3 0.500000 0.148298 0.094659
O O4 0.246777 0.500000 0.500000
O O5 0.186805 0.583236 0.767088
O O6 0.065265 0.076421 0.697987
O O7 0.127380 0.138050 0.069229
O O8 0.121370 0.000000 0.000000
O O9 0.341442 0.259683 0.595705
#
# Coordination Sequence:
#
# PCOD9479066 Si02
#       5
#     8   8  16   8  16
#     4  10  20  37  59  90 131 175 211 254 329 407
#     4  10  24  44  68  94 132 182 228 272 338 418
#     4  10  23  44  68  99 135 177 226 279 338 404
#     4  10  21  37  64  98 128 161 214 282 328 373
#     4  11  22  38  61  93 130 172 216 268 328 393
#
# _framework density 23.912918999999999
#
# number of rings (size 3 to 8) (size 9 to 14) (size 15 to 20)
#    0.000    1.714    0.000    4.714    0.000   13.714 
#    0.000    7.857    0.000    0.000    0.000    0.000 
#    0.000    0.000    0.000    0.000    0.000    0.000 
#
# Total GULP energy -156213.895720 kJ/mol
# GULP energy per Si atom -5579.067704 kJ/mol
# Density = 2.385849 g / cm^3
# Si number density = 23.912919 Si / 1000 Ang^3
#
#
#
# Elastic Constant Matrix: (Units=GPa)
#
#
# Indices 1 2 3 4 5 6 
#
# 1 144.3061 10.0549 32.8414 0.0000 0.0000 0.0000
# 2 10.0549 124.9526 61.9784 0.0000 0.0000 0.0000
# 3 32.8414 61.9784 187.6194 0.0000 0.0000 0.0000
# 4 0.0000 0.0000 0.0000 40.9862 0.0000 0.0000
# 5 0.0000 0.0000 0.0000 0.0000 24.7579 0.0000
# 6 0.0000 0.0000 0.0000 0.0000 0.0000 136.8555
#
#
#
# Elastic Compliance Matrix: (Units=1/GPa)
#
#
# Indices 1 2 3 4 5 6 
#
# 1 0.007218 0.000055 -0.001281 0.000000 0.000000 0.000000
# 2 0.000055 0.009572 -0.003172 0.000000 0.000000 0.000000
# 3 -0.001281 -0.003172 0.006602 0.000000 0.000000 0.000000
# 4 0.000000 0.000000 0.000000 0.024398 0.000000 0.000000
# 5 0.000000 0.000000 0.000000 0.000000 0.040391 0.000000
# 6 0.000000 0.000000 0.000000 0.000000 0.000000 0.007307
#
#
# Mechanical properties :
#
#
# Convention : Reuss Voigt Hill
#
# Bulk Modulus (GPa) = 68.51731 74.06974 71.29352
# Shear Modulus (GPa) = 45.80891 63.98682 54.89786
#
# Velocity S-wave (km/s) = 4.38157 5.17845 4.79659
# Velocity P-wave (km/s) = 7.36971 8.17295 7.78170
#
# Compressibility (1/GPa) = 0.01459485
#
# Stress axis : x y z
#
# Youngs Moduli (GPa) = 138.55137 104.47405 151.47041
#
# Poissons Ratio (x) = -0.00573 0.19411
# Poissons Ratio (y) = -0.00760 0.48040
# Poissons Ratio (z) = 0.17755 0.33134
#
# Static dielectric constant tensor:
#      x y z
#    x 1.994040 0.000000 0.000000 
#    y 0.000000 1.991210 0.000000 
#    z 0.000000 0.000000 1.916430 
# 
# From -- ./inp_files/2117.got.cif
#   From: 2010.05.17/outbox.cif.g08.bks.cpg/sg64_2_cif.got.tgz:2117.got - 2010.06.03 16:29:19.
