data_PCOD9479426
_publ_section_title
;
Structure prediction by ZEFSAII (Michael W. Deem and Ramdas Pophale) SiO2 
 PCOD9479426
Probable space group: C M C A
;
_chemical_formula_sum "Si O2"
_cell_formula_units_Z 64
_cell_length_a 21.367886
_cell_length_b 9.196566
_cell_length_c 14.377431
_cell_angle_alpha 90.000000
_cell_angle_beta 90.000000
_cell_angle_gamma 90.000000
_cell_volume 2825.325843
_symmetry_space_group_name_H-M "C M C A"
_symmetry_group_IT_number 64
_symmetry_cell_setting 'orthorhombic'
loop_
_space_group_symop_operation_xyz
x,y,z
-x,1/2-y,1/2+z
x,-y,-z
-x,1/2+y,1/2-z
-x,-y,-z
x,1/2+y,1/2-z
-x,y,z
x,1/2-y,1/2+z
1/2+x,1/2+y,z
1/2-x,-y,1/2+z
1/2+x,1/2-y,-z
1/2-x,y,1/2-z
1/2-x,1/2-y,-z
1/2+x,y,1/2-z
1/2-x,1/2+y,z
1/2+x,-y,1/2+z
loop_
_atom_site_type_symbol
_atom_site_label
_atom_site_fract_x
_atom_site_fract_y
_atom_site_fract_z
Si Si1 0.134758 0.938770 0.757497
Si Si2 0.930786 0.368608 0.926103
Si Si3 0.793740 0.675945 0.834825
Si Si4 0.668914 0.629981 0.928633
O O1 0.079840 0.910791 0.683120
O O2 0.152212 0.796199 0.819229
O O3 0.184810 0.010703 0.684735
O O4 0.136628 0.067089 0.833879
O O5 0.874134 0.264415 0.954783
O O6 0.000000 0.300958 0.934276
O O7 0.928958 0.500000 0.000000
O O8 0.750000 0.722192 0.750000
O O9 0.741603 0.670846 0.914122
O O10 0.666042 0.500000 0.000000
#
# Coordination Sequence:
#
# PCOD9479426 Si02
#       4
#    16  16  16  16
#     4  11  22  45  69 100 142 184 229 281 354 421
#     4  11  27  49  70  98 139 188 243 295 345 416
#     4  10  20  39  68 100 141 173 220 281 346 425
#     4  11  26  42  71 108 140 184 231 293 356 422
#
# _framework density 22.652255
#
# number of rings (size 3 to 8) (size 9 to 14) (size 15 to 20)
#    0.000    1.250    5.000    2.250    3.500    3.500 
#    0.000    0.000    0.000    0.000    0.000    0.000 
#    0.000    0.000    0.000    0.000    0.000    0.000 
#
# Total GULP energy -178152.357659 kJ/mol
# GULP energy per Si atom -5567.261177 kJ/mol
# Density = 2.260070 g / cm^3
# Si number density = 22.652255 Si / 1000 Ang^3
#
#
#
# Elastic Constant Matrix: (Units=GPa)
#
#
# Indices 1 2 3 4 5 6 
#
# 1 105.3152 45.7767 31.1446 0.0000 0.0000 0.0000
# 2 45.7767 98.7521 27.5736 0.0000 0.0000 0.0000
# 3 31.1446 27.5736 101.5323 0.0000 0.0000 0.0000
# 4 0.0000 0.0000 0.0000 20.3944 0.0000 0.0000
# 5 0.0000 0.0000 0.0000 0.0000 10.7634 0.0000
# 6 0.0000 0.0000 0.0000 0.0000 0.0000 64.9260
#
#
#
# Elastic Compliance Matrix: (Units=1/GPa)
#
#
# Indices 1 2 3 4 5 6 
#
# 1 0.012422 -0.005080 -0.002431 0.000000 0.000000 0.000000
# 2 -0.005080 0.013034 -0.001982 0.000000 0.000000 0.000000
# 3 -0.002431 -0.001982 0.011133 0.000000 0.000000 0.000000
# 4 0.000000 0.000000 0.000000 0.049033 0.000000 0.000000
# 5 0.000000 0.000000 0.000000 0.000000 0.092907 0.000000
# 6 0.000000 0.000000 0.000000 0.000000 0.000000 0.015402
#
#
# Mechanical properties :
#
#
# Convention : Reuss Voigt Hill
#
# Bulk Modulus (GPa) = 56.80183 57.17659 56.98921
# Shear Modulus (GPa) = 22.85356 32.62376 27.73866
#
# Velocity S-wave (km/s) = 3.17974 3.79911 3.50314
# Velocity P-wave (km/s) = 6.21378 6.67384 6.44791
#
# Compressibility (1/GPa) = 0.01760507
#
# Stress axis : x y z
#
# Youngs Moduli (GPa) = 80.50181 76.72060 89.82355
#
# Poissons Ratio (x) = 0.38970 0.21836
# Poissons Ratio (y) = 0.40891 0.17800
# Poissons Ratio (z) = 0.19570 0.15204
#
# Static dielectric constant tensor:
#      x y z
#    x 2.000340 0.000000 0.000000 
#    y 0.000000 1.861470 0.000000 
#    z 0.000000 0.000000 1.942830 
# 
# From -- ./inp_files/26917.got.cif
#   From: 2010.05.17/outbox.cif.g08.bks.cpg/sg64_14_cif.got.tgz:26917.got - 2010.06.03 16:29:19.
