data_PCOD9479046
_publ_section_title
;
Structure prediction by ZEFSAII (Michael W. Deem and Ramdas Pophale) SiO2 
 PCOD9479046
Probable space group: C M C A
;
_chemical_formula_sum "Si O2"
_cell_formula_units_Z 104
_cell_length_a 20.892977
_cell_length_b 26.245987
_cell_length_c 9.335563
_cell_angle_alpha 90.000000
_cell_angle_beta 90.000000
_cell_angle_gamma 90.000000
_cell_volume 5119.219478
_symmetry_space_group_name_H-M "C M C A"
_symmetry_group_IT_number 64
_symmetry_cell_setting 'orthorhombic'
loop_
_space_group_symop_operation_xyz
x,y,z
-x,1/2-y,1/2+z
x,-y,-z
-x,1/2+y,1/2-z
-x,-y,-z
x,1/2+y,1/2-z
-x,y,z
x,1/2-y,1/2+z
1/2+x,1/2+y,z
1/2-x,-y,1/2+z
1/2+x,1/2-y,-z
1/2-x,y,1/2-z
1/2-x,1/2-y,-z
1/2+x,y,1/2-z
1/2-x,1/2+y,z
1/2+x,-y,1/2+z
loop_
_atom_site_type_symbol
_atom_site_label
_atom_site_fract_x
_atom_site_fract_y
_atom_site_fract_z
Si Si1 0.881042 0.372520 0.081522
Si Si2 0.676037 0.000000 0.500000
Si Si3 0.073855 0.050408 0.813851
Si Si4 0.423715 0.213262 0.704946
Si Si5 0.927584 0.670687 0.203185
Si Si6 0.747730 0.103913 0.423701
Si Si7 0.117471 0.359314 0.516119
O O1 0.907569 0.421746 0.165748
O O2 0.884196 0.325744 0.195169
O O3 0.924552 0.352752 0.952822
O O4 0.813785 0.384914 0.005473
O O5 0.627750 0.010994 0.633148
O O6 0.720434 0.047734 0.460734
O O7 0.000000 0.032758 0.813228
O O8 0.082864 0.095416 0.931409
O O9 0.500000 0.290627 0.238507
O O10 0.402010 0.271602 0.708918
O O11 0.412685 0.192138 0.544971
O O12 0.892797 0.635318 0.316044
O O13 0.000000 0.673961 0.252271
O O14 0.750000 0.110408 0.250000
O O15 0.693651 0.139235 0.498099
#
# Coordination Sequence:
#
# PCOD9479046 Si02
#       7
#    16   8  16  16  16  16  16
#     4  11  22  38  62  91 129 167 207 260 308 363
#     4  10  25  40  72  86 119 164 202 256 316 388
#     4  10  21  40  65  96 124 155 202 258 318 377
#     4  10  21  37  60  92 125 160 210 255 304 374
#     4  11  20  35  60  91 125 164 205 256 310 361
#     4  11  24  43  61  88 123 158 212 257 307 376
#     4  10  20  37  58  84 120 166 199 247 303 367
#
# _framework density 20.315598000000001
#
# number of rings (size 3 to 8) (size 9 to 14) (size 15 to 20)
#    0.000    1.538    1.538    4.846    2.154    7.385 
#    0.000    4.615    0.000    0.923    0.000    0.000 
#    0.000    0.000    0.000    0.000    0.000    0.000 
#
# Total GULP energy -290018.041440 kJ/mol
# GULP energy per Si atom -5577.270028 kJ/mol
# Density = 2.026936 g / cm^3
# Si number density = 20.315598 Si / 1000 Ang^3
#
#
#
# Elastic Constant Matrix: (Units=GPa)
#
#
# Indices 1 2 3 4 5 6 
#
# 1 114.1754 34.9670 27.3649 0.0000 0.0000 0.0000
# 2 34.9670 49.4243 19.5373 0.0000 0.0000 0.0000
# 3 27.3649 19.5373 101.1689 0.0000 0.0000 0.0000
# 4 0.0000 0.0000 0.0000 18.8814 0.0000 0.0000
# 5 0.0000 0.0000 0.0000 0.0000 33.7582 0.0000
# 6 0.0000 0.0000 0.0000 0.0000 0.0000 22.9164
#
#
#
# Elastic Compliance Matrix: (Units=1/GPa)
#
#
# Indices 1 2 3 4 5 6 
#
# 1 0.011432 -0.007433 -0.001657 0.000000 0.000000 0.000000
# 2 -0.007433 0.026738 -0.003153 0.000000 0.000000 0.000000
# 3 -0.001657 -0.003153 0.010941 0.000000 0.000000 0.000000
# 4 0.000000 0.000000 0.000000 0.052962 0.000000 0.000000
# 5 0.000000 0.000000 0.000000 0.000000 0.029622 0.000000
# 6 0.000000 0.000000 0.000000 0.000000 0.000000 0.043637
#
#
# Mechanical properties :
#
#
# Convention : Reuss Voigt Hill
#
# Bulk Modulus (GPa) = 40.60761 47.61190 44.10975
# Shear Modulus (GPa) = 24.03530 27.30448 25.66989
#
# Velocity S-wave (km/s) = 3.44335 3.67006 3.55851
# Velocity P-wave (km/s) = 5.98671 6.43787 6.21638
#
# Compressibility (1/GPa) = 0.02462593
#
# Stress axis : x y z
#
# Youngs Moduli (GPa) = 87.47414 37.39985 91.39525
#
# Poissons Ratio (x) = 0.27799 0.15142
# Poissons Ratio (y) = 0.65020 0.28817
# Poissons Ratio (z) = 0.14492 0.11792
#
# Static dielectric constant tensor:
#      x y z
#    x 1.714690 0.000000 0.000000 
#    y 0.000000 1.744130 0.000000 
#    z 0.000000 0.000000 1.741150 
# 
# From -- ./inp_files/8538.got.cif
#   From: 2010.05.17/outbox.cif.g08.bks.cpg/sg64_5_cif.got.tgz:8538.got - 2010.06.03 16:29:19.
