data_PCOD9479319
_publ_section_title
;
Structure prediction by ZEFSAII (Michael W. Deem and Ramdas Pophale) SiO2 
 PCOD9479319
Probable space group: C M C A
;
_chemical_formula_sum "Si O2"
_cell_formula_units_Z 96
_cell_length_a 22.931841
_cell_length_b 15.223403
_cell_length_c 13.455247
_cell_angle_alpha 90.000000
_cell_angle_beta 90.000000
_cell_angle_gamma 90.000000
_cell_volume 4697.235569
_symmetry_space_group_name_H-M "C M C A"
_symmetry_group_IT_number 64
_symmetry_cell_setting 'orthorhombic'
loop_
_space_group_symop_operation_xyz
x,y,z
-x,1/2-y,1/2+z
x,-y,-z
-x,1/2+y,1/2-z
-x,-y,-z
x,1/2+y,1/2-z
-x,y,z
x,1/2-y,1/2+z
1/2+x,1/2+y,z
1/2-x,-y,1/2+z
1/2+x,1/2-y,-z
1/2-x,y,1/2-z
1/2-x,1/2-y,-z
1/2+x,y,1/2-z
1/2-x,1/2+y,z
1/2+x,-y,1/2+z
loop_
_atom_site_type_symbol
_atom_site_label
_atom_site_fract_x
_atom_site_fract_y
_atom_site_fract_z
Si Si1 0.172897 0.875476 0.635831
Si Si2 0.612974 0.213317 0.523366
Si Si3 0.396297 0.500000 0.500000
Si Si4 0.188600 0.892107 0.864968
Si Si5 0.000000 0.075043 0.604480
Si Si6 0.600360 0.033804 0.608026
Si Si7 0.500000 0.556243 0.230502
Si Si8 0.000000 0.236267 0.117022
O O1 0.142836 0.795419 0.577150
O O2 0.167289 0.865345 0.754610
O O3 0.242451 0.883729 0.622372
O O4 0.142573 0.961377 0.588748
O O5 0.658149 0.167628 0.447457
O O6 0.599436 0.138087 0.604972
O O7 0.555740 0.228189 0.456066
O O8 0.440669 0.573022 0.541697
O O9 0.164133 0.991166 0.878029
O O10 0.000000 0.166068 0.664051
O O11 0.000000 0.980022 0.658230
O O12 0.579593 0.000000 0.500000
O O13 0.556868 0.989499 0.684482
O O14 0.500000 0.657709 0.197844
#
# Coordination Sequence:
#
# PCOD9479319 Si02
#       8
#    16  16   8  16   8  16   8   8
#     4  11  24  44  67  95 135 182 222 281 343 411
#     4  11  23  42  68  96 134 175 225 285 340 407
#     4  11  24  44  66  88 142 179 218 284 356 411
#     4  10  23  43  66  99 130 174 232 276 339 406
#     4  11  26  43  62 102 131 181 229 273 355 422
#     4  10  20  38  65  94 127 168 222 283 342 395
#     4  12  21  41  69  93 135 171 221 293 330 409
#     4  12  22  43  68  96 133 178 225 278 351 413
#
# _framework density 20.437553000000001
#
# number of rings (size 3 to 8) (size 9 to 14) (size 15 to 20)
#    0.000    1.167    5.000    2.250    3.500    1.333 
#    3.000    2.500    0.000    0.000    0.000    0.000 
#    0.000    0.000    0.000    0.000    0.000    0.000 
#
# Total GULP energy -267916.686452 kJ/mol
# GULP energy per Si atom -5581.597634 kJ/mol
# Density = 2.039104 g / cm^3
# Si number density = 20.437553 Si / 1000 Ang^3
#
#
#
# Elastic Constant Matrix: (Units=GPa)
#
#
# Indices 1 2 3 4 5 6 
#
# 1 102.5234 34.2206 28.2768 0.0000 0.0000 0.0000
# 2 34.2206 116.8152 21.5032 0.0000 0.0000 0.0000
# 3 28.2768 21.5032 67.6799 0.0000 0.0000 0.0000
# 4 0.0000 0.0000 0.0000 29.7075 0.0000 0.0000
# 5 0.0000 0.0000 0.0000 0.0000 15.6904 0.0000
# 6 0.0000 0.0000 0.0000 0.0000 0.0000 113.1070
#
#
#
# Elastic Compliance Matrix: (Units=1/GPa)
#
#
# Indices 1 2 3 4 5 6 
#
# 1 0.011776 -0.002702 -0.004062 0.000000 0.000000 0.000000
# 2 -0.002702 0.009712 -0.001957 0.000000 0.000000 0.000000
# 3 -0.004062 -0.001957 0.017094 0.000000 0.000000 0.000000
# 4 0.000000 0.000000 0.000000 0.033662 0.000000 0.000000
# 5 0.000000 0.000000 0.000000 0.000000 0.063733 0.000000
# 6 0.000000 0.000000 0.000000 0.000000 0.000000 0.008841
#
#
# Mechanical properties :
#
#
# Convention : Reuss Voigt Hill
#
# Bulk Modulus (GPa) = 47.30046 50.55774 48.92910
# Shear Modulus (GPa) = 29.53224 45.23550 37.38387
#
# Velocity S-wave (km/s) = 3.80544 4.70973 4.28153
# Velocity P-wave (km/s) = 6.51940 7.37338 6.95950
#
# Compressibility (1/GPa) = 0.02114144
#
# Stress axis : x y z
#
# Youngs Moduli (GPa) = 84.91853 102.96213 58.49978
#
# Poissons Ratio (x) = 0.27821 0.23760
# Poissons Ratio (y) = 0.22946 0.11448
# Poissons Ratio (z) = 0.34490 0.20148
#
# Static dielectric constant tensor:
#      x y z
#    x 1.722540 0.000000 0.000000 
#    y 0.000000 1.739290 0.000000 
#    z 0.000000 0.000000 1.762630 
# 
# From -- ./inp_files/26408.got.cif
#   From: 2010.05.17/outbox.cif.g08.bks.cpg/sg64_14_cif.got.tgz:26408.got - 2010.06.03 16:29:19.
