data_PCOD9479510
_publ_section_title
;
Structure prediction by ZEFSAII (Michael W. Deem and Ramdas Pophale) SiO2 
 PCOD9479510
Probable space group: C M C A
;
_chemical_formula_sum "Si O2"
_cell_formula_units_Z 104
_cell_length_a 16.982943
_cell_length_b 14.902666
_cell_length_c 21.015664
_cell_angle_alpha 90.000000
_cell_angle_beta 90.000000
_cell_angle_gamma 90.000000
_cell_volume 5318.878091
_symmetry_space_group_name_H-M "C M C A"
_symmetry_group_IT_number 64
_symmetry_cell_setting 'orthorhombic'
loop_
_space_group_symop_operation_xyz
x,y,z
-x,1/2-y,1/2+z
x,-y,-z
-x,1/2+y,1/2-z
-x,-y,-z
x,1/2+y,1/2-z
-x,y,z
x,1/2-y,1/2+z
1/2+x,1/2+y,z
1/2-x,-y,1/2+z
1/2+x,1/2-y,-z
1/2-x,y,1/2-z
1/2-x,1/2-y,-z
1/2+x,y,1/2-z
1/2-x,1/2+y,z
1/2+x,-y,1/2+z
loop_
_atom_site_type_symbol
_atom_site_label
_atom_site_fract_x
_atom_site_fract_y
_atom_site_fract_z
Si Si1 0.764653 0.087259 0.885227
Si Si2 0.677679 0.262721 0.202886
Si Si3 0.500000 0.625700 0.164033
Si Si4 0.115618 0.456370 0.563815
Si Si5 0.730799 0.647031 0.482932
Si Si6 0.500000 0.489037 0.704702
Si Si7 0.339333 0.926255 0.855408
Si Si8 0.500000 0.803099 0.243708
O O1 0.791068 0.181595 0.857373
O O2 0.846918 0.040351 0.900630
O O3 0.717405 0.012196 0.846028
O O4 0.713687 0.100996 0.949238
O O5 0.750000 0.284866 0.250000
O O6 0.679680 0.156998 0.190209
O O7 0.586295 0.287891 0.221268
O O8 0.429533 0.600320 0.116475
O O9 0.500000 0.564424 0.227664
O O10 0.500000 0.405096 0.280568
O O11 0.079113 0.500000 0.500000
O O12 0.187246 0.395898 0.539731
O O13 0.750000 0.750000 0.500000
O O14 0.672022 0.616944 0.426407
O O15 0.575075 0.459924 0.663729
O O16 0.500000 0.227523 0.311525
#
# Coordination Sequence:
#
# PCOD9479510 Si02
#       8
#    16  16   8  16  16   8  16   8
#     4  10  22  41  65  98 127 176 227 280 346 415
#     4  12  25  42  68  99 136 186 235 284 356 423
#     4  12  23  42  63  92 136 173 222 282 343 408
#     4   9  21  38  64  93 126 166 223 278 336 400
#     4  10  20  40  68  96 128 172 223 285 336 418
#     4  12  26  47  65  95 147 186 218 297 352 424
#     4  11  23  42  68  96 138 177 237 282 352 420
#     4  12  28  43  65 105 139 186 239 286 358 427
#
# _framework density 19.552994999999999
#
# number of rings (size 3 to 8) (size 9 to 14) (size 15 to 20)
#    0.000    1.231    3.077    3.462    4.308    3.077 
#    0.000    3.077    0.000    0.000    0.000    0.000 
#    0.000    0.000    0.000    0.000    0.000    0.000 
#
# Total GULP energy -289474.593087 kJ/mol
# GULP energy per Si atom -5566.819098 kJ/mol
# Density = 1.950849 g / cm^3
# Si number density = 19.552995 Si / 1000 Ang^3
#
#
#
# Elastic Constant Matrix: (Units=GPa)
#
#
# Indices 1 2 3 4 5 6 
#
# 1 101.5992 21.9437 58.7199 0.0000 0.0000 0.0000
# 2 21.9437 117.6063 32.8570 0.0000 0.0000 0.0000
# 3 58.7199 32.8570 86.3771 0.0000 0.0000 0.0000
# 4 0.0000 0.0000 0.0000 40.3598 0.0000 0.0000
# 5 0.0000 0.0000 0.0000 0.0000 30.0294 0.0000
# 6 0.0000 0.0000 0.0000 0.0000 0.0000 27.0347
#
#
#
# Elastic Compliance Matrix: (Units=1/GPa)
#
#
# Indices 1 2 3 4 5 6 
#
# 1 0.016213 0.000061 -0.011045 0.000000 0.000000 0.000000
# 2 0.000061 0.009514 -0.003660 0.000000 0.000000 0.000000
# 3 -0.011045 -0.003660 0.020478 0.000000 0.000000 0.000000
# 4 0.000000 0.000000 0.000000 0.024777 0.000000 0.000000
# 5 0.000000 0.000000 0.000000 0.000000 0.033301 0.000000
# 6 0.000000 0.000000 0.000000 0.000000 0.000000 0.036989
#
#
# Mechanical properties :
#
#
# Convention : Reuss Voigt Hill
#
# Bulk Modulus (GPa) = 59.11548 59.18044 59.14796
# Shear Modulus (GPa) = 28.37690 32.28893 30.33292
#
# Velocity S-wave (km/s) = 3.81370 4.06809 3.94295
# Velocity P-wave (km/s) = 7.04922 7.23866 7.14457
#
# Compressibility (1/GPa) = 0.01691604
#
# Stress axis : x y z
#
# Youngs Moduli (GPa) = 61.67942 105.10534 48.83347
#
# Poissons Ratio (x) = -0.00637 0.53935
# Poissons Ratio (y) = -0.00374 0.17875
# Poissons Ratio (z) = 0.68123 0.38472
#
# Static dielectric constant tensor:
#      x y z
#    x 1.720590 0.000000 0.000000 
#    y 0.000000 1.700660 0.000000 
#    z 0.000000 0.000000 1.930390 
# 
# From -- ./inp_files/40275.got.cif
#   From: 2010.05.17/outbox.cif.g08.bks.cpg/sg64_21_cif.got.tgz:40275.got - 2010.06.03 16:29:19.
