data_PCOD9479535
_publ_section_title
;
Structure prediction by ZEFSAII (Michael W. Deem and Ramdas Pophale) SiO2 
 PCOD9479535
Probable space group: C M C A
;
_chemical_formula_sum "Si O2"
_cell_formula_units_Z 104
_cell_length_a 20.366906
_cell_length_b 8.978345
_cell_length_c 27.069709
_cell_angle_alpha 90.000000
_cell_angle_beta 90.000000
_cell_angle_gamma 90.000000
_cell_volume 4949.996999
_symmetry_space_group_name_H-M "C M C A"
_symmetry_group_IT_number 64
_symmetry_cell_setting 'orthorhombic'
loop_
_space_group_symop_operation_xyz
x,y,z
-x,1/2-y,1/2+z
x,-y,-z
-x,1/2+y,1/2-z
-x,-y,-z
x,1/2+y,1/2-z
-x,y,z
x,1/2-y,1/2+z
1/2+x,1/2+y,z
1/2-x,-y,1/2+z
1/2+x,1/2-y,-z
1/2-x,y,1/2-z
1/2-x,1/2-y,-z
1/2+x,y,1/2-z
1/2-x,1/2+y,z
1/2+x,-y,1/2+z
loop_
_atom_site_type_symbol
_atom_site_label
_atom_site_fract_x
_atom_site_fract_y
_atom_site_fract_z
Si Si1 0.633511 0.975681 0.780672
Si Si2 0.500000 0.412807 0.310941
Si Si3 0.305434 0.780352 0.709583
Si Si4 0.346934 0.063268 0.385401
Si Si5 0.000000 0.762956 0.630920
Si Si6 0.500000 0.583384 0.138362
Si Si7 0.356225 0.272954 0.622221
Si Si8 0.760885 0.618170 0.037559
O O1 0.566177 0.066250 0.781150
O O2 0.686645 0.105107 0.785650
O O3 0.635279 0.877344 0.731994
O O4 0.641355 0.867580 0.827598
O O5 0.500000 0.572431 0.342263
O O6 0.500000 0.246365 0.334144
O O7 0.250000 0.822042 0.750000
O O8 0.308807 0.826469 0.652498
O O9 0.426115 0.090062 0.386806
O O10 0.308384 0.073134 0.437204
O O11 0.335490 0.895447 0.366020
O O12 0.000000 0.594750 0.657123
O O13 0.931075 0.763908 0.602808
O O14 0.309769 0.343963 0.581728
O O15 0.790425 0.500000 0.000000
O O16 0.750000 0.750000 0.000000
#
# Coordination Sequence:
#
# PCOD9479535 Si02
#       8
#    16   8  16  16   8   8  16  16
#     4  11  24  40  64  96 132 174 225 270 332 403
#     4  10  20  41  65  97 132 176 225 272 334 404
#     4  12  25  40  62  95 134 175 223 272 332 403
#     4  11  24  45  71  97 133 181 229 287 352 411
#     4   8  20  38  71 102 131 174 230 279 349 399
#     4  10  20  43  72  98 131 178 232 290 345 412
#     4  10  22  45  68  97 136 177 222 289 339 416
#     4  12  26  43  67 101 137 177 224 278 356 424
#
# _framework density 21.010114999999999
#
# number of rings (size 3 to 8) (size 9 to 14) (size 15 to 20)
#    0.000    1.231    3.077    2.308    2.154    3.692 
#    0.000    3.846    0.000    0.000    0.000    0.000 
#    0.000    0.000    0.000    0.000    0.000    0.000 
#
# Total GULP energy -289535.446692 kJ/mol
# GULP energy per Si atom -5567.989359 kJ/mol
# Density = 2.096229 g / cm^3
# Si number density = 21.010115 Si / 1000 Ang^3
#
#
#
# Elastic Constant Matrix: (Units=GPa)
#
#
# Indices 1 2 3 4 5 6 
#
# 1 97.2157 16.8502 23.6898 0.0000 0.0000 0.0000
# 2 16.8502 128.7552 13.1030 0.0000 0.0000 0.0000
# 3 23.6898 13.1030 67.8836 0.0000 0.0000 0.0000
# 4 0.0000 0.0000 0.0000 38.8732 0.0000 0.0000
# 5 0.0000 0.0000 0.0000 0.0000 16.9672 0.0000
# 6 0.0000 0.0000 0.0000 0.0000 0.0000 -11.9470
#
#
#
# Elastic Compliance Matrix: (Units=1/GPa)
#
#
# Indices 1 2 3 4 5 6 
#
# 1 0.011395 -0.001108 -0.003763 0.000000 0.000000 0.000000
# 2 -0.001108 0.008030 -0.001163 0.000000 0.000000 0.000000
# 3 -0.003763 -0.001163 0.016269 0.000000 0.000000 0.000000
# 4 0.000000 0.000000 0.000000 0.025725 0.000000 0.000000
# 5 0.000000 0.000000 0.000000 0.000000 0.058937 0.000000
# 6 0.000000 0.000000 0.000000 0.000000 0.000000 -0.083703
#
#
# Mechanical properties :
#
#
# Convention : Reuss Voigt Hill
#
# Bulk Modulus (GPa) = 42.32707 44.57117 43.44912
# Shear Modulus (GPa) = 88.34447 24.79280 56.56863
#
# Velocity S-wave (km/s) = 6.49152 3.43890 5.19451
# Velocity P-wave (km/s) = 8.73935 6.08508 7.53009
#
# Compressibility (1/GPa) = 0.02362554
#
# Stress axis : x y z
#
# Youngs Moduli (GPa) = 87.75434 124.53139 61.46759
#
# Poissons Ratio (x) = 0.13803 0.23129
# Poissons Ratio (y) = 0.09727 0.07150
# Poissons Ratio (z) = 0.33020 0.14485
#
# Static dielectric constant tensor:
#      x y z
#    x 1.888010 0.000000 0.000000 
#    y 0.000000 1.740590 0.000000 
#    z 0.000000 0.000000 1.675080 
# 
# From -- ./inp_files/50809.got.cif
#   From: 2010.05.17/outbox.cif.g08.bks.cpg/sg64_26_cif.got.tgz:50809.got - 2010.06.03 16:29:19.
