data_PCOD9479684
_publ_section_title
;
Structure prediction by ZEFSAII (Michael W. Deem and Ramdas Pophale) SiO2 
 PCOD9479684
Probable space group: C M C A
;
_chemical_formula_sum "Si O2"
_cell_formula_units_Z 88
_cell_length_a 14.326345
_cell_length_b 34.472601
_cell_length_c 7.464696
_cell_angle_alpha 90.000000
_cell_angle_beta 90.000000
_cell_angle_gamma 90.000000
_cell_volume 3686.562354
_symmetry_space_group_name_H-M "C M C A"
_symmetry_group_IT_number 64
_symmetry_cell_setting 'orthorhombic'
loop_
_space_group_symop_operation_xyz
x,y,z
-x,1/2-y,1/2+z
x,-y,-z
-x,1/2+y,1/2-z
-x,-y,-z
x,1/2+y,1/2-z
-x,y,z
x,1/2-y,1/2+z
1/2+x,1/2+y,z
1/2-x,-y,1/2+z
1/2+x,1/2-y,-z
1/2-x,y,1/2-z
1/2-x,1/2-y,-z
1/2+x,y,1/2-z
1/2-x,1/2+y,z
1/2+x,-y,1/2+z
loop_
_atom_site_type_symbol
_atom_site_label
_atom_site_fract_x
_atom_site_fract_y
_atom_site_fract_z
Si Si1 0.114201 0.696835 0.958140
Si Si2 0.390491 0.487863 0.711797
Si Si3 0.114195 0.717025 0.349701
Si Si4 0.888462 0.653727 0.630279
Si Si5 0.750000 0.550570 0.750000
Si Si6 0.699808 0.912780 0.590184
O O1 0.144788 0.698921 0.162319
O O2 0.140890 0.738240 0.872088
O O3 0.146087 0.661494 0.832429
O O4 0.000000 0.695848 0.963154
O O5 0.377207 0.500000 0.500000
O O6 0.500000 0.487490 0.744677
O O7 0.335879 0.523134 0.803482
O O8 0.347671 0.448454 0.797850
O O9 0.000000 0.717066 0.351750
O O10 0.145104 0.689988 0.511894
O O11 0.866440 0.614527 0.525784
O O12 0.000000 0.656152 0.638791
O O13 0.730444 0.573287 0.567569
O O14 0.750000 0.890050 0.750000
#
# Coordination Sequence:
#
# PCOD9479684 Si02
#       6
#    16  16  16  16   8  16
#     4   9  15  27  50  83 119 159 208 261 321 388
#     4  11  22  43  75 104 130 169 221 269 325 403
#     4   9  15  27  52  83 120 161 205 262 322 385
#     4  10  21  35  56  91 128 162 208 268 336 392
#     4  12  24  46  72  98 130 182 218 264 334 402
#     4  12  25  43  65  92 132 173 212 274 333 395
#
# _framework density 23.870477000000001
#
# number of rings (size 3 to 8) (size 9 to 14) (size 15 to 20)
#    0.000    1.636    4.545    1.091    0.000    3.636 
#    0.000    0.000    0.000    1.091    0.000    0.000 
#    0.000    0.000    0.000    0.000    0.000    0.000 
#
# Total GULP energy -245738.820327 kJ/mol
# GULP energy per Si atom -5584.973189 kJ/mol
# Density = 2.381615 g / cm^3
# Si number density = 23.870477 Si / 1000 Ang^3
#
#
#
# Elastic Constant Matrix: (Units=GPa)
#
#
# Indices 1 2 3 4 5 6 
#
# 1 56.5895 12.4310 16.0761 0.0000 0.0000 0.0000
# 2 12.4310 91.6997 45.5811 0.0000 0.0000 0.0000
# 3 16.0761 45.5811 157.0668 0.0000 0.0000 0.0000
# 4 0.0000 0.0000 0.0000 28.1406 0.0000 0.0000
# 5 0.0000 0.0000 0.0000 0.0000 24.3825 0.0000
# 6 0.0000 0.0000 0.0000 0.0000 0.0000 24.3955
#
#
#
# Elastic Compliance Matrix: (Units=1/GPa)
#
#
# Indices 1 2 3 4 5 6 
#
# 1 0.018459 -0.001827 -0.001359 0.000000 0.000000 0.000000
# 2 -0.001827 0.012924 -0.003564 0.000000 0.000000 0.000000
# 3 -0.001359 -0.003564 0.007540 0.000000 0.000000 0.000000
# 4 0.000000 0.000000 0.000000 0.035536 0.000000 0.000000
# 5 0.000000 0.000000 0.000000 0.000000 0.041013 0.000000
# 6 0.000000 0.000000 0.000000 0.000000 0.000000 0.040991
#
#
# Mechanical properties :
#
#
# Convention : Reuss Voigt Hill
#
# Bulk Modulus (GPa) = 39.33336 50.39248 44.86292
# Shear Modulus (GPa) = 28.02120 30.80157 29.41139
#
# Velocity S-wave (km/s) = 3.42992 3.59606 3.51397
# Velocity P-wave (km/s) = 5.67445 6.19668 5.94130
#
# Compressibility (1/GPa) = 0.02542371
#
# Stress axis : x y z
#
# Youngs Moduli (GPa) = 54.17555 77.37444 132.62586
#
# Poissons Ratio (x) = 0.14134 0.18026
# Poissons Ratio (y) = 0.09896 0.47263
# Poissons Ratio (z) = 0.07363 0.27574
#
# Static dielectric constant tensor:
#      x y z
#    x 1.942320 0.000000 0.000000 
#    y 0.000000 1.929140 0.000000 
#    z 0.000000 0.000000 1.932310 
# 
# From -- ./inp_files/7317.got.cif
#   From: 2010.05.17/outbox.cif.g08.bks.cpg/sg64_4_cif.got.tgz:7317.got - 2010.06.03 16:29:19.
