data_PCOD9479586
_publ_section_title
;
Structure prediction by ZEFSAII (Michael W. Deem and Ramdas Pophale) SiO2 
 PCOD9479586
Probable space group: C M C A
;
_chemical_formula_sum "Si O2"
_cell_formula_units_Z 72
_cell_length_a 13.882313
_cell_length_b 14.809408
_cell_length_c 15.914901
_cell_angle_alpha 90.000000
_cell_angle_beta 90.000000
_cell_angle_gamma 90.000000
_cell_volume 3271.925991
_symmetry_space_group_name_H-M "C M C A"
_symmetry_group_IT_number 64
_symmetry_cell_setting 'orthorhombic'
loop_
_space_group_symop_operation_xyz
x,y,z
-x,1/2-y,1/2+z
x,-y,-z
-x,1/2+y,1/2-z
-x,-y,-z
x,1/2+y,1/2-z
-x,y,z
x,1/2-y,1/2+z
1/2+x,1/2+y,z
1/2-x,-y,1/2+z
1/2+x,1/2-y,-z
1/2-x,y,1/2-z
1/2-x,1/2-y,-z
1/2+x,y,1/2-z
1/2-x,1/2+y,z
1/2+x,-y,1/2+z
loop_
_atom_site_type_symbol
_atom_site_label
_atom_site_fract_x
_atom_site_fract_y
_atom_site_fract_z
Si Si1 0.658557 0.777191 0.890883
Si Si2 0.000000 0.429978 0.599582
Si Si3 0.000000 0.640310 0.641283
Si Si4 0.670272 0.000000 0.500000
Si Si5 0.000000 0.878647 0.716591
Si Si6 0.000000 0.090606 0.672708
Si Si7 0.191083 0.858781 0.425337
O O1 0.589477 0.690960 0.898068
O O2 0.597598 0.836930 0.824678
O O3 0.760308 0.726636 0.877144
O O4 0.668446 0.828649 0.979025
O O5 0.900966 0.428893 0.546902
O O6 0.000000 0.369980 0.682494
O O7 0.000000 0.535110 0.625873
O O8 0.000000 0.648585 0.741791
O O9 0.738184 0.945135 0.435757
O O10 0.000000 0.984698 0.695037
O O11 0.905346 0.112899 0.620494
#
# Coordination Sequence:
#
# PCOD9479586 Si02
#       7
#    16   8   8   8   8   8  16
#     4  10  22  43  65  98 135 169 226 287 343 404
#     4  10  22  42  66 100 135 181 222 286 346 416
#     4  10  20  44  63  92 135 174 209 286 349 409
#     4  11  22  43  72 100 134 185 240 279 342 442
#     4  10  22  44  68  99 137 176 221 286 344 411
#     4  11  24  42  69  92 135 183 226 274 343 403
#     4  11  23  42  69 101 131 184 230 284 341 416
#
# _framework density 22.005386000000001
#
# number of rings (size 3 to 8) (size 9 to 14) (size 15 to 20)
#    0.000    1.556    2.222    2.667    0.000    2.222 
#   20.000    2.222    0.000    0.000    0.000    0.000 
#    0.000    0.000    0.000    0.000    0.000    0.000 
#
# Total GULP energy -200962.384748 kJ/mol
# GULP energy per Si atom -5582.288465 kJ/mol
# Density = 2.195530 g / cm^3
# Si number density = 22.005386 Si / 1000 Ang^3
#
#
#
# Elastic Constant Matrix: (Units=GPa)
#
#
# Indices 1 2 3 4 5 6 
#
# 1 146.9682 35.9420 60.0880 0.0000 0.0000 0.0000
# 2 35.9420 78.6141 32.9894 0.0000 0.0000 0.0000
# 3 60.0880 32.9894 83.5195 0.0000 0.0000 0.0000
# 4 0.0000 0.0000 0.0000 30.3923 0.0000 0.0000
# 5 0.0000 0.0000 0.0000 0.0000 -10.1511 0.0000
# 6 0.0000 0.0000 0.0000 0.0000 0.0000 42.7866
#
#
#
# Elastic Compliance Matrix: (Units=1/GPa)
#
#
# Indices 1 2 3 4 5 6 
#
# 1 0.009856 -0.001835 -0.006366 0.000000 0.000000 0.000000
# 2 -0.001835 0.015589 -0.004838 0.000000 0.000000 0.000000
# 3 -0.006366 -0.004838 0.018464 0.000000 0.000000 0.000000
# 4 0.000000 0.000000 0.000000 0.032903 0.000000 0.000000
# 5 0.000000 0.000000 0.000000 0.000000 -0.098512 0.000000
# 6 0.000000 0.000000 0.000000 0.000000 0.000000 0.023372
#
#
# Mechanical properties :
#
#
# Convention : Reuss Voigt Hill
#
# Bulk Modulus (GPa) = 56.07763 63.01561 59.54662
# Shear Modulus (GPa) = 148.40218 24.61107 86.50663
#
# Velocity S-wave (km/s) = 8.22104 3.34789 6.27670
# Velocity P-wave (km/s) = 10.75420 6.60630 8.92457
#
# Compressibility (1/GPa) = 0.01783242
#
# Stress axis : x y z
#
# Youngs Moduli (GPa) = 101.46560 64.14701 54.15929
#
# Poissons Ratio (x) = 0.11768 0.34477
# Poissons Ratio (y) = 0.18614 0.26201
# Poissons Ratio (z) = 0.64592 0.31033
#
# Static dielectric constant tensor:
#      x y z
#    x 1.845400 0.000000 0.000000 
#    y 0.000000 1.821970 0.000000 
#    z 0.000000 0.000000 1.817330 
# 
# From -- ./inp_files/30733.got.cif
#   From: 2010.05.17/outbox.cif.g08.bks.cpg/sg64_16_cif.got.tgz:30733.got - 2010.06.03 16:29:19.
