data_PCOD9479050
_publ_section_title
;
Structure prediction by ZEFSAII (Michael W. Deem and Ramdas Pophale) SiO2 
 PCOD9479050
Probable space group: C M C A
;
_chemical_formula_sum "Si O2"
_cell_formula_units_Z 112
_cell_length_a 14.188432
_cell_length_b 33.719209
_cell_length_c 10.321571
_cell_angle_alpha 90.000000
_cell_angle_beta 90.000000
_cell_angle_gamma 90.000000
_cell_volume 4938.073907
_symmetry_space_group_name_H-M "C M C A"
_symmetry_group_IT_number 64
_symmetry_cell_setting 'orthorhombic'
loop_
_space_group_symop_operation_xyz
x,y,z
-x,1/2-y,1/2+z
x,-y,-z
-x,1/2+y,1/2-z
-x,-y,-z
x,1/2+y,1/2-z
-x,y,z
x,1/2-y,1/2+z
1/2+x,1/2+y,z
1/2-x,-y,1/2+z
1/2+x,1/2-y,-z
1/2-x,y,1/2-z
1/2-x,1/2-y,-z
1/2+x,y,1/2-z
1/2-x,1/2+y,z
1/2+x,-y,1/2+z
loop_
_atom_site_type_symbol
_atom_site_label
_atom_site_fract_x
_atom_site_fract_y
_atom_site_fract_z
Si Si1 0.183699 0.056796 0.055054
Si Si2 0.102593 0.439179 0.038446
Si Si3 0.145334 0.017815 0.789376
Si Si4 0.768376 0.204423 0.116017
Si Si5 0.895690 0.360832 0.506182
Si Si6 0.640520 0.636991 0.714480
Si Si7 0.890308 0.278630 0.082042
O O1 0.154745 0.101935 0.072720
O O2 0.148066 0.027771 0.167564
O O3 0.297613 0.052778 0.034640
O O4 0.130962 0.041634 0.923400
O O5 0.094735 0.470065 0.158379
O O6 0.114898 0.396371 0.109347
O O7 0.000000 0.439610 0.969723
O O8 0.250000 0.030126 0.750000
O O9 0.750000 0.182407 0.250000
O O10 0.829780 0.177311 0.021625
O O11 0.831583 0.243035 0.147227
O O12 0.670001 0.215003 0.048755
O O13 0.904322 0.369852 0.354108
O O14 0.000000 0.353833 0.560299
O O15 0.750000 0.634092 0.750000
O O16 0.616439 0.680469 0.661345
O O17 0.000000 0.268685 0.062054
#
# Coordination Sequence:
#
# PCOD9479050 Si02
#       7
#    16  16  16  16  16  16  16
#     4  10  20  37  58  86 125 163 206 260 313 366
#     4  11  20  35  62  95 125 160 210 265 318 373
#     4   9  19  36  56  82 122 164 201 253 309 363
#     4  11  26  45  63  93 133 168 208 260 315 379
#     4  12  24  40  66  95 126 170 216 261 318 382
#     4  12  20  40  66  97 128 162 212 271 325 371
#     4  11  24  42  68  96 126 168 211 260 320 379
#
# _framework density 22.680909
#
# number of rings (size 3 to 8) (size 9 to 14) (size 15 to 20)
#    0.000    1.143    4.286    2.571    2.000    2.286 
#    0.000    7.143    0.000    4.286    0.000    0.000 
#    0.000    0.000    0.000    0.000    0.000    0.000 
#
# Total GULP energy -312819.295573 kJ/mol
# GULP energy per Si atom -5586.058850 kJ/mol
# Density = 2.262929 g / cm^3
# Si number density = 22.680909 Si / 1000 Ang^3
#
#
#
# Elastic Constant Matrix: (Units=GPa)
#
#
# Indices 1 2 3 4 5 6 
#
# 1 160.9448 9.9248 8.5797 0.0000 0.0000 0.0000
# 2 9.9248 113.7811 12.7919 0.0000 0.0000 0.0000
# 3 8.5797 12.7919 38.0069 0.0000 0.0000 0.0000
# 4 0.0000 0.0000 0.0000 18.1949 0.0000 0.0000
# 5 0.0000 0.0000 0.0000 0.0000 47.0659 0.0000
# 6 0.0000 0.0000 0.0000 0.0000 0.0000 16.1222
#
#
#
# Elastic Compliance Matrix: (Units=1/GPa)
#
#
# Indices 1 2 3 4 5 6 
#
# 1 0.006307 -0.000405 -0.001287 0.000000 0.000000 0.000000
# 2 -0.000405 0.009160 -0.002992 0.000000 0.000000 0.000000
# 3 -0.001287 -0.002992 0.027608 0.000000 0.000000 0.000000
# 4 0.000000 0.000000 0.000000 0.054960 0.000000 0.000000
# 5 0.000000 0.000000 0.000000 0.000000 0.021247 0.000000
# 6 0.000000 0.000000 0.000000 0.000000 0.000000 0.062026
#
#
# Mechanical properties :
#
#
# Convention : Reuss Voigt Hill
#
# Bulk Modulus (GPa) = 29.66717 41.70286 35.68501
# Shear Modulus (GPa) = 24.76304 35.03903 29.90104
#
# Velocity S-wave (km/s) = 3.30783 3.93475 3.63483
# Velocity P-wave (km/s) = 5.26285 6.25057 5.77786
#
# Compressibility (1/GPa) = 0.03370730
#
# Stress axis : x y z
#
# Youngs Moduli (GPa) = 158.55564 109.16436 36.22076
#
# Poissons Ratio (x) = 0.04426 0.04663
# Poissons Ratio (y) = 0.06428 0.10836
# Poissons Ratio (z) = 0.20411 0.32658
#
# Static dielectric constant tensor:
#      x y z
#    x 1.898040 0.000000 0.000000 
#    y 0.000000 1.843880 0.000000 
#    z 0.000000 0.000000 1.895900 
# 
# From -- ./inp_files/15019.got.cif
#   From: 2010.05.17/outbox.cif.g08.bks.cpg/sg64_8_cif.got.tgz:15019.got - 2010.06.03 16:29:19.
