data_PCOD9479659
_publ_section_title
;
Structure prediction by ZEFSAII (Michael W. Deem and Ramdas Pophale) SiO2 
 PCOD9479659
Probable space group: C M C A
;
_chemical_formula_sum "Si O2"
_cell_formula_units_Z 80
_cell_length_a 8.081275
_cell_length_b 26.640437
_cell_length_c 18.814342
_cell_angle_alpha 90.000000
_cell_angle_beta 90.000000
_cell_angle_gamma 90.000000
_cell_volume 4050.515184
_symmetry_space_group_name_H-M "C M C A"
_symmetry_group_IT_number 64
_symmetry_cell_setting 'orthorhombic'
loop_
_space_group_symop_operation_xyz
x,y,z
-x,1/2-y,1/2+z
x,-y,-z
-x,1/2+y,1/2-z
-x,-y,-z
x,1/2+y,1/2-z
-x,y,z
x,1/2-y,1/2+z
1/2+x,1/2+y,z
1/2-x,-y,1/2+z
1/2+x,1/2-y,-z
1/2-x,y,1/2-z
1/2-x,1/2-y,-z
1/2+x,y,1/2-z
1/2-x,1/2+y,z
1/2+x,-y,1/2+z
loop_
_atom_site_type_symbol
_atom_site_label
_atom_site_fract_x
_atom_site_fract_y
_atom_site_fract_z
Si Si1 0.798258 0.057047 0.081282
Si Si2 0.302755 0.348313 0.168761
Si Si3 0.697322 0.749435 0.581785
Si Si4 0.299846 0.153397 0.331786
Si Si5 0.298004 0.944280 0.416807
O O1 0.740451 0.101930 0.131393
O O2 0.000000 0.057112 0.082567
O O3 0.744598 0.000836 0.102390
O O4 0.750625 0.065457 0.998929
O O5 0.500000 0.350890 0.167074
O O6 0.250000 0.342218 0.250000
O O7 0.251082 0.301011 0.121491
O O8 0.237683 0.400076 0.134110
O O9 0.500000 0.751650 0.583758
O O10 0.750000 0.750000 0.500000
O O11 0.761092 0.798363 0.624046
O O12 0.500000 0.153224 0.335219
O O13 0.250000 0.156611 0.250000
O O14 0.500000 0.944239 0.415344
#
# Coordination Sequence:
#
# PCOD9479659 Si02
#       5
#    16  16  16  16  16
#     4   8  14  29  52  77 102 134 177 223 267 315
#     4  11  22  36  54  80 112 146 182 222 267 319
#     4  11  23  39  59  82 106 138 179 224 271 325
#     4  10  21  35  53  78 108 139 175 216 263 317
#     4   8  15  29  52  77 103 137 179 223 267 314
#
# _framework density 19.750572999999999
#
# number of rings (size 3 to 8) (size 9 to 14) (size 15 to 20)
#    0.000    2.400    0.000    4.200    0.000    7.200 
#    0.000    0.000    0.000    1.200    0.000    8.400 
#    0.000    0.000    0.000    0.000    0.000    0.000 
#
# Total GULP energy -223327.252455 kJ/mol
# GULP energy per Si atom -5583.181311 kJ/mol
# Density = 1.970562 g / cm^3
# Si number density = 19.750573 Si / 1000 Ang^3
#
#
#
# Elastic Constant Matrix: (Units=GPa)
#
#
# Indices 1 2 3 4 5 6 
#
# 1 20.7885 19.7932 13.9163 0.0000 0.0000 0.0000
# 2 19.7932 195.2697 131.1711 0.0000 0.0000 0.0000
# 3 13.9163 131.1711 173.0595 0.0000 0.0000 0.0000
# 4 0.0000 0.0000 0.0000 45.1695 0.0000 0.0000
# 5 0.0000 0.0000 0.0000 0.0000 25.5058 0.0000
# 6 0.0000 0.0000 0.0000 0.0000 0.0000 16.6225
#
#
#
# Elastic Compliance Matrix: (Units=1/GPa)
#
#
# Indices 1 2 3 4 5 6 
#
# 1 0.053255 -0.005137 -0.000389 0.000000 0.000000 0.000000
# 2 -0.005137 0.010929 -0.007870 0.000000 0.000000 0.000000
# 3 -0.000389 -0.007870 0.011775 0.000000 0.000000 0.000000
# 4 0.000000 0.000000 0.000000 0.022139 0.000000 0.000000
# 5 0.000000 0.000000 0.000000 0.000000 0.039207 0.000000
# 6 0.000000 0.000000 0.000000 0.000000 0.000000 0.060159
#
#
# Mechanical properties :
#
#
# Convention : Reuss Voigt Hill
#
# Bulk Modulus (GPa) = 20.33915 79.87545 50.10730
# Shear Modulus (GPa) = 20.77755 32.40870 26.59312
#
# Velocity S-wave (km/s) = 3.24697 4.05520 3.67338
# Velocity P-wave (km/s) = 4.93735 7.90291 6.58914
#
# Compressibility (1/GPa) = 0.04916626
#
# Stress axis : x y z
#
# Youngs Moduli (GPa) = 18.77765 91.50241 84.92568
#
# Poissons Ratio (x) = 0.47004 0.03303
# Poissons Ratio (y) = 0.09646 0.66840
# Poissons Ratio (z) = 0.00730 0.72016
#
# Static dielectric constant tensor:
#      x y z
#    x 1.718490 0.000000 0.000000 
#    y 0.000000 1.838740 0.000000 
#    z 0.000000 0.000000 1.644340 
# 
# From -- ./inp_files/29808.got.cif
#   From: 2010.05.17/outbox.cif.g08.bks.cpg/sg64_15_cif.got.tgz:29808.got - 2010.06.03 16:29:19.
