data_PCOD9479087
_publ_section_title
;
Structure prediction by ZEFSAII (Michael W. Deem and Ramdas Pophale) SiO2 
 PCOD9479087
Probable space group: C M C A
;
_chemical_formula_sum "Si O2"
_cell_formula_units_Z 72
_cell_length_a 25.597669
_cell_length_b 12.831436
_cell_length_c 9.656211
_cell_angle_alpha 90.000000
_cell_angle_beta 90.000000
_cell_angle_gamma 90.000000
_cell_volume 3171.629350
_symmetry_space_group_name_H-M "C M C A"
_symmetry_group_IT_number 64
_symmetry_cell_setting 'orthorhombic'
loop_
_space_group_symop_operation_xyz
x,y,z
-x,1/2-y,1/2+z
x,-y,-z
-x,1/2+y,1/2-z
-x,-y,-z
x,1/2+y,1/2-z
-x,y,z
x,1/2-y,1/2+z
1/2+x,1/2+y,z
1/2-x,-y,1/2+z
1/2+x,1/2-y,-z
1/2-x,y,1/2-z
1/2-x,1/2-y,-z
1/2+x,y,1/2-z
1/2-x,1/2+y,z
1/2+x,-y,1/2+z
loop_
_atom_site_type_symbol
_atom_site_label
_atom_site_fract_x
_atom_site_fract_y
_atom_site_fract_z
Si Si1 0.302896 0.371905 0.321791
Si Si2 0.058003 0.674474 0.010009
Si Si3 0.333903 0.780663 0.457168
Si Si4 0.406600 0.513797 0.700959
Si Si5 0.367055 0.500000 0.000000
O O1 0.250000 0.410123 0.250000
O O2 0.300489 0.305912 0.462633
O O3 0.323985 0.289324 0.206392
O O4 0.346118 0.461298 0.339199
O O5 0.062618 0.610539 0.865954
O O6 0.000000 0.716711 0.027327
O O7 0.105581 0.753366 0.015709
O O8 0.070995 0.588455 0.128069
O O9 0.330038 0.898875 0.510486
O O10 0.403060 0.508131 0.864842
#
# Coordination Sequence:
#
# PCOD9479087 Si02
#       5
#    16  16  16  16   8
#     4  10  20  37  60  89 119 154 191 235 291 347
#     4  10  20  40  62  82 112 159 198 234 291 358
#     4  10  21  38  59  83 118 155 197 242 286 350
#     4   9  19  36  59  84 115 146 190 240 285 347
#     4  10  20  38  53  80 120 148 184 254 293 316
#
# _framework density 22.701267000000001
#
# number of rings (size 3 to 8) (size 9 to 14) (size 15 to 20)
#    0.000    2.222    0.000    3.333    0.000    0.000 
#    0.000   53.889    0.000    0.000    0.000    0.000 
#    0.000    0.000    0.000    0.000    0.000    0.000 
#
# Total GULP energy -201049.120625 kJ/mol
# GULP energy per Si atom -5584.697795 kJ/mol
# Density = 2.264960 g / cm^3
# Si number density = 22.701267 Si / 1000 Ang^3
#
#
#
# Elastic Constant Matrix: (Units=GPa)
#
#
# Indices 1 2 3 4 5 6 
#
# 1 112.5493 -10.2550 -17.3345 0.0000 0.0000 0.0000
# 2 -10.2550 32.1932 -12.8324 0.0000 0.0000 0.0000
# 3 -17.3345 -12.8324 120.2485 0.0000 0.0000 0.0000
# 4 0.0000 0.0000 0.0000 12.8105 0.0000 0.0000
# 5 0.0000 0.0000 0.0000 0.0000 27.0485 0.0000
# 6 0.0000 0.0000 0.0000 0.0000 0.0000 22.8704
#
#
#
# Elastic Compliance Matrix: (Units=1/GPa)
#
#
# Indices 1 2 3 4 5 6 
#
# 1 0.009497 0.003730 0.001767 0.000000 0.000000 0.000000
# 2 0.003730 0.033907 0.004156 0.000000 0.000000 0.000000
# 3 0.001767 0.004156 0.009014 0.000000 0.000000 0.000000
# 4 0.000000 0.000000 0.000000 0.078061 0.000000 0.000000
# 5 0.000000 0.000000 0.000000 0.000000 0.036971 0.000000
# 6 0.000000 0.000000 0.000000 0.000000 0.000000 0.043725
#
#
# Mechanical properties :
#
#
# Convention : Reuss Voigt Hill
#
# Bulk Modulus (GPa) = 13.94237 20.46080 17.20159
# Shear Modulus (GPa) = 23.17202 32.90673 28.03938
#
# Velocity S-wave (km/s) = 3.19836 3.81143 3.51828
# Velocity P-wave (km/s) = 4.44909 5.32935 4.90899
#
# Compressibility (1/GPa) = 0.07172381
#
# Stress axis : x y z
#
# Youngs Moduli (GPa) = 105.29671 29.49233 110.93418
#
# Poissons Ratio (x) = -0.10999 -0.19603
# Poissons Ratio (y) = -0.39271 -0.46105
# Poissons Ratio (z) = -0.18606 -0.12257
#
# Static dielectric constant tensor:
#      x y z
#    x 1.861070 0.000000 0.000000 
#    y 0.000000 1.865790 0.000000 
#    z 0.000000 0.000000 1.853640 
# 
# From -- ./inp_files/10005.got.cif
#   From: 2010.05.17/outbox.cif.g08.bks.cpg/sg64_6_cif.got.tgz:10005.got - 2010.06.03 16:29:19.
