data_PCOD9479794
_publ_section_title
;
Structure prediction by ZEFSAII (Michael W. Deem and Ramdas Pophale) SiO2 
 PCOD9479794
Probable space group: C M C A
;
_chemical_formula_sum "Si O2"
_cell_formula_units_Z 96
_cell_length_a 15.661497
_cell_length_b 19.147421
_cell_length_c 14.346860
_cell_angle_alpha 90.000000
_cell_angle_beta 90.000000
_cell_angle_gamma 90.000000
_cell_volume 4302.297304
_symmetry_space_group_name_H-M "C M C A"
_symmetry_group_IT_number 64
_symmetry_cell_setting 'orthorhombic'
loop_
_space_group_symop_operation_xyz
x,y,z
-x,1/2-y,1/2+z
x,-y,-z
-x,1/2+y,1/2-z
-x,-y,-z
x,1/2+y,1/2-z
-x,y,z
x,1/2-y,1/2+z
1/2+x,1/2+y,z
1/2-x,-y,1/2+z
1/2+x,1/2-y,-z
1/2-x,y,1/2-z
1/2-x,1/2-y,-z
1/2+x,y,1/2-z
1/2-x,1/2+y,z
1/2+x,-y,1/2+z
loop_
_atom_site_type_symbol
_atom_site_label
_atom_site_fract_x
_atom_site_fract_y
_atom_site_fract_z
Si Si1 0.500000 0.394626 0.937059
Si Si2 0.827031 0.081643 0.521036
Si Si3 0.833064 0.821282 0.981627
Si Si4 0.151585 0.037883 0.721259
Si Si5 0.500000 0.546091 0.855322
Si Si6 0.902031 0.380264 0.833923
Si Si7 0.209995 0.252081 0.341403
O O1 0.414278 0.350866 0.928515
O O2 0.500000 0.419941 0.044112
O O3 0.500000 0.462896 0.873957
O O4 0.737166 0.119078 0.502402
O O5 0.892058 0.113418 0.446336
O O6 0.815411 0.000000 0.500000
O O7 0.857742 0.082556 0.626910
O O8 0.851879 0.790494 0.084605
O O9 0.787334 0.767561 0.911453
O O10 0.250000 0.040302 0.750000
O O11 0.128083 0.956279 0.701913
O O12 0.085077 0.063427 0.798150
O O13 0.838600 0.317690 0.806803
O O14 0.000000 0.367285 0.808241
O O15 0.250000 0.287978 0.250000
#
# Coordination Sequence:
#
# PCOD9479794 Si02
#       7
#     8  16  16  16   8  16  16
#     4  11  26  40  59  83 135 155 205 253 312 373
#     4   9  21  37  64  88 124 162 195 245 312 368
#     4  10  23  43  63  91 121 170 202 260 310 369
#     4  11  22  36  60  92 125 159 209 249 308 372
#     4  11  26  38  58  95 123 167 203 251 313 378
#     4  10  21  36  63  91 125 155 203 258 305 362
#     4  10  23  42  67  89 120 160 216 255 311 365
#
# _framework density 22.313659999999999
#
# number of rings (size 3 to 8) (size 9 to 14) (size 15 to 20)
#    0.000    1.833    0.833    1.500   14.000    3.000 
#    0.000    0.000    0.000    0.000    0.000    0.000 
#    0.000    0.000    0.000    0.000    0.000    0.000 
#
# Total GULP energy -268357.447848 kJ/mol
# GULP energy per Si atom -5590.780163 kJ/mol
# Density = 2.226287 g / cm^3
# Si number density = 22.313660 Si / 1000 Ang^3
#
#
#
# Elastic Constant Matrix: (Units=GPa)
#
#
# Indices 1 2 3 4 5 6 
#
# 1 100.0171 7.1973 19.0288 0.0000 0.0000 0.0000
# 2 7.1973 30.4343 -3.9716 0.0000 0.0000 0.0000
# 3 19.0288 -3.9716 106.6678 0.0000 0.0000 0.0000
# 4 0.0000 0.0000 0.0000 26.2771 0.0000 0.0000
# 5 0.0000 0.0000 0.0000 0.0000 19.6127 0.0000
# 6 0.0000 0.0000 0.0000 0.0000 0.0000 2.4395
#
#
#
# Elastic Compliance Matrix: (Units=1/GPa)
#
#
# Indices 1 2 3 4 5 6 
#
# 1 0.010575 -0.002761 -0.001989 0.000000 0.000000 0.000000
# 2 -0.002761 0.033739 0.001749 0.000000 0.000000 0.000000
# 3 -0.001989 0.001749 0.009795 0.000000 0.000000 0.000000
# 4 0.000000 0.000000 0.000000 0.038056 0.000000 0.000000
# 5 0.000000 0.000000 0.000000 0.000000 0.050987 0.000000
# 6 0.000000 0.000000 0.000000 0.000000 0.000000 0.409928
#
#
# Mechanical properties :
#
#
# Convention : Reuss Voigt Hill
#
# Bulk Modulus (GPa) = 20.78718 31.29202 26.03960
# Shear Modulus (GPa) = 8.69387 23.99016 16.34202
#
# Velocity S-wave (km/s) = 1.97602 3.28248 2.70918
# Velocity P-wave (km/s) = 3.81344 5.33108 4.63480
#
# Compressibility (1/GPa) = 0.04810657
#
# Stress axis : x y z
#
# Youngs Moduli (GPa) = 94.55886 29.63953 102.09401
#
# Poissons Ratio (x) = 0.08182 0.20310
# Poissons Ratio (y) = 0.26103 -0.17853
# Poissons Ratio (z) = 0.18811 -0.05183
#
# Static dielectric constant tensor:
#      x y z
#    x 1.799370 0.000000 0.000000 
#    y 0.000000 1.836540 0.000000 
#    z 0.000000 0.000000 1.859790 
# 
# From -- ./inp_files/24144.got.cif
#   From: 2010.05.17/outbox.cif.g08.bks.cpg/sg64_13_cif.got.tgz:24144.got - 2010.06.03 16:29:19.
