data_PCOD9479148
_publ_section_title
;
Structure prediction by ZEFSAII (Michael W. Deem and Ramdas Pophale) SiO2 
 PCOD9479148
Probable space group: C M C A
;
_chemical_formula_sum "Si O2"
_cell_formula_units_Z 96
_cell_length_a 29.358212
_cell_length_b 20.789932
_cell_length_c 7.883228
_cell_angle_alpha 90.000000
_cell_angle_beta 90.000000
_cell_angle_gamma 90.000000
_cell_volume 4811.569448
_symmetry_space_group_name_H-M "C M C A"
_symmetry_group_IT_number 64
_symmetry_cell_setting 'orthorhombic'
loop_
_space_group_symop_operation_xyz
x,y,z
-x,1/2-y,1/2+z
x,-y,-z
-x,1/2+y,1/2-z
-x,-y,-z
x,1/2+y,1/2-z
-x,y,z
x,1/2-y,1/2+z
1/2+x,1/2+y,z
1/2-x,-y,1/2+z
1/2+x,1/2-y,-z
1/2-x,y,1/2-z
1/2-x,1/2-y,-z
1/2+x,y,1/2-z
1/2-x,1/2+y,z
1/2+x,-y,1/2+z
loop_
_atom_site_type_symbol
_atom_site_label
_atom_site_fract_x
_atom_site_fract_y
_atom_site_fract_z
Si Si1 0.645792 0.570525 0.583360
Si Si2 0.549576 0.424042 0.540666
Si Si3 0.146345 0.384232 0.448666
Si Si4 0.697618 0.129772 0.218141
Si Si5 0.551738 0.425268 0.947260
Si Si6 0.213610 0.726413 0.638889
O O1 0.645647 0.500000 0.500000
O O2 0.595045 0.599608 0.551975
O O3 0.655888 0.572057 0.783152
O O4 0.680463 0.609856 0.466624
O O5 0.547480 0.500000 0.500000
O O6 0.500000 0.396444 0.491118
O O7 0.554626 0.418848 0.743619
O O8 0.167644 0.401740 0.632076
O O9 0.092125 0.384179 0.472383
O O10 0.171438 0.317292 0.408571
O O11 0.750000 0.112238 0.250000
O O12 0.695561 0.207690 0.222651
O O13 0.500000 0.409091 0.999697
O O14 0.559403 0.500000 0.000000
O O15 0.250000 0.686363 0.750000
O O16 0.250000 0.750000 0.500000
#
# Coordination Sequence:
#
# PCOD9479148 Si02
#       6
#    16  16  16  16  16  16
#     4  11  24  40  59  93 132 169 210 259 333 400
#     4   9  17  33  57  85 121 160 204 255 303 371
#     4  12  24  38  71  92 128 168 217 276 325 383
#     4  11  24  43  62  92 127 164 223 271 321 389
#     4  10  20  37  63  95 131 170 214 260 322 400
#     4  11  21  42  67  92 121 164 226 276 324 384
#
# _framework density 19.951909000000001
#
# number of rings (size 3 to 8) (size 9 to 14) (size 15 to 20)
#    0.000    1.333    5.000    3.000    0.000    2.000 
#    3.000    0.000    0.000    2.000    0.000    0.000 
#    0.000    0.000    0.000    0.000    0.000    0.000 
#
# Total GULP energy -267486.394826 kJ/mol
# GULP energy per Si atom -5572.633226 kJ/mol
# Density = 1.990650 g / cm^3
# Si number density = 19.951909 Si / 1000 Ang^3
#
#
#
# Elastic Constant Matrix: (Units=GPa)
#
#
# Indices 1 2 3 4 5 6 
#
# 1 161.4079 43.2369 33.6753 0.0000 0.0000 0.0000
# 2 43.2369 44.5249 22.5667 0.0000 0.0000 0.0000
# 3 33.6753 22.5667 99.1693 0.0000 0.0000 0.0000
# 4 0.0000 0.0000 0.0000 23.8817 0.0000 0.0000
# 5 0.0000 0.0000 0.0000 0.0000 178.1736 0.0000
# 6 0.0000 0.0000 0.0000 0.0000 0.0000 0.0253
#
#
#
# Elastic Compliance Matrix: (Units=1/GPa)
#
#
# Indices 1 2 3 4 5 6 
#
# 1 0.008486 -0.007664 -0.001138 0.000000 0.000000 0.000000
# 2 -0.007664 0.032309 -0.004750 0.000000 0.000000 0.000000
# 3 -0.001138 -0.004750 0.011551 0.000000 0.000000 0.000000
# 4 0.000000 0.000000 0.000000 0.041873 0.000000 0.000000
# 5 0.000000 0.000000 0.000000 0.000000 0.005613 0.000000
# 6 0.000000 0.000000 0.000000 0.000000 0.000000 39.458840
#
#
# Mechanical properties :
#
#
# Convention : Reuss Voigt Hill
#
# Bulk Modulus (GPa) = 39.61444 56.00666 47.81055
# Shear Modulus (GPa) = 0.12628 54.12434 27.12531
#
# Velocity S-wave (km/s) = 0.25185 5.21405 3.69119
# Velocity P-wave (km/s) = 4.47019 8.02372 6.49472
#
# Compressibility (1/GPa) = 0.02524332
#
# Stress axis : x y z
#
# Youngs Moduli (GPa) = 117.84491 30.95149 86.57343
#
# Poissons Ratio (x) = 0.23720 0.09849
# Poissons Ratio (y) = 0.90313 0.41119
# Poissons Ratio (z) = 0.13406 0.14701
#
# Static dielectric constant tensor:
#      x y z
#    x 1.732610 0.000000 0.000000 
#    y 0.000000 1.701180 0.000000 
#    z 0.000000 0.000000 1.806250 
# 
# From -- ./inp_files/10326.got.cif
#   From: 2010.05.17/outbox.cif.g08.bks.cpg/sg64_6_cif.got.tgz:10326.got - 2010.06.03 16:29:19.
