data_PCOD9479761
_publ_section_title
;
Structure prediction by ZEFSAII (Michael W. Deem and Ramdas Pophale) SiO2 
 PCOD9479761
Probable space group: C M C A
;
_chemical_formula_sum "Si O2"
_cell_formula_units_Z 80
_cell_length_a 19.283722
_cell_length_b 17.363796
_cell_length_c 12.708418
_cell_angle_alpha 90.000000
_cell_angle_beta 90.000000
_cell_angle_gamma 90.000000
_cell_volume 4255.269081
_symmetry_space_group_name_H-M "C M C A"
_symmetry_group_IT_number 64
_symmetry_cell_setting 'orthorhombic'
loop_
_space_group_symop_operation_xyz
x,y,z
-x,1/2-y,1/2+z
x,-y,-z
-x,1/2+y,1/2-z
-x,-y,-z
x,1/2+y,1/2-z
-x,y,z
x,1/2-y,1/2+z
1/2+x,1/2+y,z
1/2-x,-y,1/2+z
1/2+x,1/2-y,-z
1/2-x,y,1/2-z
1/2-x,1/2-y,-z
1/2+x,y,1/2-z
1/2-x,1/2+y,z
1/2+x,-y,1/2+z
loop_
_atom_site_type_symbol
_atom_site_label
_atom_site_fract_x
_atom_site_fract_y
_atom_site_fract_z
Si Si1 0.423800 0.648484 0.381972
Si Si2 0.327118 0.266600 0.461276
Si Si3 0.885482 0.000000 0.500000
Si Si4 0.916895 0.873249 0.864624
Si Si5 0.224171 0.420031 0.133218
Si Si6 0.340999 0.500000 0.000000
O O1 0.500000 0.685161 0.382055
O O2 0.368605 0.703335 0.436867
O O3 0.425259 0.573530 0.457131
O O4 0.407620 0.626262 0.261841
O O5 0.250000 0.250000 0.500000
O O6 0.371256 0.197875 0.409775
O O7 0.312572 0.337614 0.382306
O O8 0.834770 0.021328 0.596031
O O9 0.887408 0.950719 0.918995
O O10 0.000000 0.864744 0.885229
O O11 0.250000 0.431140 0.250000
O O12 0.289884 0.438947 0.058098
#
# Coordination Sequence:
#
# PCOD9479761 Si02
#       6
#    16  16   8  16  16   8
#     4  10  22  40  62  89 122 164 204 246 303 365
#     4  11  23  40  59  87 121 159 202 251 298 359
#     4   9  19  38  60  88 124 158 198 250 300 362
#     4  11  24  40  63  92 124 162 203 252 309 361
#     4  10  21  36  58  90 118 153 201 249 303 357
#     4  11  21  40  60  88 126 156 200 254 304 360
#
# _framework density 18.800221000000001
#
# number of rings (size 3 to 8) (size 9 to 14) (size 15 to 20)
#    0.000    1.600    2.000    2.400    2.800    0.000 
#    0.000    0.000    0.000    9.600    0.000    0.000 
#    0.000    0.000    0.000    0.000    0.000    0.000 
#
# Total GULP energy -222990.569002 kJ/mol
# GULP energy per Si atom -5574.764225 kJ/mol
# Density = 1.875743 g / cm^3
# Si number density = 18.800221 Si / 1000 Ang^3
#
#
#
# Elastic Constant Matrix: (Units=GPa)
#
#
# Indices 1 2 3 4 5 6 
#
# 1 142.9000 51.3239 64.4002 0.0000 0.0000 0.0000
# 2 51.3239 77.9186 32.2132 0.0000 0.0000 0.0000
# 3 64.4002 32.2132 120.8102 0.0000 0.0000 0.0000
# 4 0.0000 0.0000 0.0000 19.2598 0.0000 0.0000
# 5 0.0000 0.0000 0.0000 0.0000 89.7605 0.0000
# 6 0.0000 0.0000 0.0000 0.0000 0.0000 -27.7028
#
#
#
# Elastic Compliance Matrix: (Units=1/GPa)
#
#
# Indices 1 2 3 4 5 6 
#
# 1 0.010900 -0.005369 -0.004379 0.000000 0.000000 0.000000
# 2 -0.005369 0.017069 -0.001689 0.000000 0.000000 0.000000
# 3 -0.004379 -0.001689 0.011062 0.000000 0.000000 0.000000
# 4 0.000000 0.000000 0.000000 0.051922 0.000000 0.000000
# 5 0.000000 0.000000 0.000000 0.000000 0.011141 0.000000
# 6 0.000000 0.000000 0.000000 0.000000 0.000000 -0.036097
#
#
# Mechanical properties :
#
#
# Convention : Reuss Voigt Hill
#
# Bulk Modulus (GPa) = 61.89448 70.83373 66.36410
# Shear Modulus (GPa) = 53.04780 29.17627 41.11203
#
# Velocity S-wave (km/s) = 5.31769 3.94370 4.68138
# Velocity P-wave (km/s) = 8.40818 7.64826 8.03721
#
# Compressibility (1/GPa) = 0.01615653
#
# Stress axis : x y z
#
# Youngs Moduli (GPa) = 91.74667 58.58622 90.40028
#
# Poissons Ratio (x) = 0.31456 0.39582
# Poissons Ratio (y) = 0.49261 0.15270
# Poissons Ratio (z) = 0.40172 0.09896
#
# Static dielectric constant tensor:
#      x y z
#    x 1.645270 0.000000 0.000000 
#    y 0.000000 1.692770 0.000000 
#    z 0.000000 0.000000 1.628570 
# 
# From -- ./inp_files/17096.got.cif
#   From: 2010.05.17/outbox.cif.g08.bks.cpg/sg64_9_cif.got.tgz:17096.got - 2010.06.03 16:29:19.
