data_PCOD9479824
_publ_section_title
;
Structure prediction by ZEFSAII (Michael W. Deem and Ramdas Pophale) SiO2 
 PCOD9479824
Probable space group: C M C A
;
_chemical_formula_sum "Si O2"
_cell_formula_units_Z 116
_cell_length_a 8.985590
_cell_length_b 30.467225
_cell_length_c 23.642294
_cell_angle_alpha 90.000000
_cell_angle_beta 90.000000
_cell_angle_gamma 90.000000
_cell_volume 6472.456077
_symmetry_space_group_name_H-M "C M C A"
_symmetry_group_IT_number 64
_symmetry_cell_setting 'orthorhombic'
loop_
_space_group_symop_operation_xyz
x,y,z
-x,1/2-y,1/2+z
x,-y,-z
-x,1/2+y,1/2-z
-x,-y,-z
x,1/2+y,1/2-z
-x,y,z
x,1/2-y,1/2+z
1/2+x,1/2+y,z
1/2-x,-y,1/2+z
1/2+x,1/2-y,-z
1/2-x,y,1/2-z
1/2-x,1/2-y,-z
1/2+x,y,1/2-z
1/2-x,1/2+y,z
1/2+x,-y,1/2+z
loop_
_atom_site_type_symbol
_atom_site_label
_atom_site_fract_x
_atom_site_fract_y
_atom_site_fract_z
Si Si1 0.328795 0.309123 0.137581
Si Si2 0.820986 0.713517 0.188424
Si Si3 0.665110 0.455074 0.603363
Si Si4 0.820883 0.646227 0.090140
Si Si5 0.670313 0.703425 0.995835
Si Si6 0.177494 0.518943 0.687666
Si Si7 0.000000 0.000000 0.500000
Si Si8 0.323371 0.391682 0.311434
O O1 0.500000 0.318005 0.156657
O O2 0.285192 0.261439 0.162059
O O3 0.328495 0.308321 0.070050
O O4 0.220764 0.347536 0.156884
O O5 0.750000 0.708772 0.250000
O O6 0.774977 0.675462 0.144417
O O7 0.000000 0.649454 0.085781
O O8 0.500000 0.453120 0.631948
O O9 0.716199 0.405069 0.594625
O O10 0.773681 0.481471 0.644200
O O11 0.627989 0.479356 0.543978
O O12 0.500000 0.711633 0.306604
O O13 0.751221 0.668258 0.034947
O O14 0.500000 0.707719 0.014720
O O15 0.750000 0.750000 0.000000
O O16 0.250000 0.512131 0.750000
O O17 0.247695 0.564442 0.664237
O O18 0.000000 0.522542 0.693223
O O19 0.500000 0.397512 0.308263
O O20 0.250000 0.387271 0.250000
#
# Coordination Sequence:
#
# PCOD9479824 Si02
#       8
#    16  16  16  16  16  16   4  16
#     4  10  21  38  57  82 118 158 199 254 300 356
#     4  10  21  37  56  81 118 157 200 244 298 352
#     4   9  20  40  64  89 124 162 206 256 318 376
#     4  10  21  40  61  86 121 162 196 250 305 362
#     4  11  22  38  60  85 119 157 203 249 297 357
#     4  11  22  39  64  92 126 164 207 261 318 378
#     4   8  20  40  66  92 124 160 202 266 312 380
#     4  11  22  37  58  87 121 158 202 250 307 367
#
# _framework density 17.922098999999999
#
# number of rings (size 3 to 8) (size 9 to 14) (size 15 to 20)
#    0.414    1.379    1.379    4.138    0.000    5.517 
#    0.000    1.724    0.000    0.000    0.000    0.000 
#    0.000    0.000    0.000    0.000    0.000    0.000 
#
# Total GULP energy -323002.758797 kJ/mol
# GULP energy per Si atom -5569.013083 kJ/mol
# Density = 1.788131 g / cm^3
# Si number density = 17.922099 Si / 1000 Ang^3
#
#
#
# Elastic Constant Matrix: (Units=GPa)
#
#
# Indices 1 2 3 4 5 6 
#
# 1 96.8112 66.2877 36.1222 0.0000 0.0000 0.0000
# 2 66.2877 143.9774 64.6772 0.0000 0.0000 0.0000
# 3 36.1222 64.6772 83.3434 0.0000 0.0000 0.0000
# 4 0.0000 0.0000 0.0000 25.1609 0.0000 0.0000
# 5 0.0000 0.0000 0.0000 0.0000 33.4177 0.0000
# 6 0.0000 0.0000 0.0000 0.0000 0.0000 23.5357
#
#
#
# Elastic Compliance Matrix: (Units=1/GPa)
#
#
# Indices 1 2 3 4 5 6 
#
# 1 0.015255 -0.006223 -0.001783 0.000000 0.000000 0.000000
# 2 -0.006223 0.013201 -0.007547 0.000000 0.000000 0.000000
# 3 -0.001783 -0.007547 0.018628 0.000000 0.000000 0.000000
# 4 0.000000 0.000000 0.000000 0.039744 0.000000 0.000000
# 5 0.000000 0.000000 0.000000 0.000000 0.029924 0.000000
# 6 0.000000 0.000000 0.000000 0.000000 0.000000 0.042489
#
#
# Mechanical properties :
#
#
# Convention : Reuss Voigt Hill
#
# Bulk Modulus (GPa) = 62.58325 73.14513 67.86419
# Shear Modulus (GPa) = 25.55276 26.89253 26.22264
#
# Velocity S-wave (km/s) = 3.78003 3.87786 3.82926
# Velocity P-wave (km/s) = 7.35166 7.80717 7.58283
#
# Compressibility (1/GPa) = 0.01597872
#
# Stress axis : x y z
#
# Youngs Moduli (GPa) = 65.55069 75.75249 53.68201
#
# Poissons Ratio (x) = 0.47139 0.09571
# Poissons Ratio (y) = 0.40791 0.40515
# Poissons Ratio (z) = 0.11687 0.57173
#
# Static dielectric constant tensor:
#      x y z
#    x 1.643170 0.000000 0.000000 
#    y 0.000000 1.636490 0.000000 
#    z 0.000000 0.000000 1.107390 
# 
# From -- ./inp_files/43545.got.cif
#   From: 2010.05.17/outbox.cif.g08.bks.cpg/sg64_22_cif.got.tgz:43545.got - 2010.06.03 16:29:19.
