data_PCOD9479736
_publ_section_title
;
Structure prediction by ZEFSAII (Michael W. Deem and Ramdas Pophale) SiO2 
 PCOD9479736
Probable space group: C M C A
;
_chemical_formula_sum "Si O2"
_cell_formula_units_Z 56
_cell_length_a 13.308082
_cell_length_b 22.610844
_cell_length_c 8.524557
_cell_angle_alpha 90.000000
_cell_angle_beta 90.000000
_cell_angle_gamma 90.000000
_cell_volume 2565.098584
_symmetry_space_group_name_H-M "C M C A"
_symmetry_group_IT_number 64
_symmetry_cell_setting 'orthorhombic'
loop_
_space_group_symop_operation_xyz
x,y,z
-x,1/2-y,1/2+z
x,-y,-z
-x,1/2+y,1/2-z
-x,-y,-z
x,1/2+y,1/2-z
-x,y,z
x,1/2-y,1/2+z
1/2+x,1/2+y,z
1/2-x,-y,1/2+z
1/2+x,1/2-y,-z
1/2-x,y,1/2-z
1/2-x,1/2-y,-z
1/2+x,y,1/2-z
1/2-x,1/2+y,z
1/2+x,-y,1/2+z
loop_
_atom_site_type_symbol
_atom_site_label
_atom_site_fract_x
_atom_site_fract_y
_atom_site_fract_z
Si Si1 0.890784 0.435318 0.418149
Si Si2 0.250000 0.736300 0.750000
Si Si3 0.334480 0.567697 0.551395
Si Si4 0.113361 0.688415 0.017901
O O1 0.895107 0.500000 0.500000
O O2 0.782243 0.412234 0.470802
O O3 0.874817 0.435027 0.230087
O O4 0.000000 0.406657 0.451773
O O5 0.175373 0.697949 0.857082
O O6 0.177975 0.777078 0.645422
O O7 0.342834 0.500000 0.500000
O O8 0.391068 0.618048 0.455816
O O9 0.000000 0.711671 0.006519
#
# Coordination Sequence:
#
# PCOD9479736 Si02
#       4
#    16   8  16  16
#     4   9  18  33  52  76 114 160 195 228 282 356
#     4  10  24  44  64  90 118 160 220 264 302 366
#     4  10  21  36  56  88 123 151 190 244 304 371
#     4  11  23  42  66  90 123 164 207 261 316 368
#
# _framework density 21.831517999999999
#
# number of rings (size 3 to 8) (size 9 to 14) (size 15 to 20)
#    0.000    2.000    0.000    3.429    0.000    6.857 
#    0.000   10.000    0.000    0.000    0.000    0.000 
#    0.000    0.000    0.000    0.000    0.000    0.000 
#
# Total GULP energy -156070.070530 kJ/mol
# GULP energy per Si atom -5573.931090 kJ/mol
# Density = 2.178183 g / cm^3
# Si number density = 21.831518 Si / 1000 Ang^3
#
#
#
# Elastic Constant Matrix: (Units=GPa)
#
#
# Indices 1 2 3 4 5 6 
#
# 1 208.2836 35.8699 35.1371 0.0000 0.0000 0.0000
# 2 35.8699 89.5662 22.1059 0.0000 0.0000 0.0000
# 3 35.1371 22.1059 33.5611 0.0000 0.0000 0.0000
# 4 0.0000 0.0000 0.0000 21.1994 0.0000 0.0000
# 5 0.0000 0.0000 0.0000 0.0000 -44.2602 0.0000
# 6 0.0000 0.0000 0.0000 0.0000 0.0000 32.9311
#
#
#
# Elastic Compliance Matrix: (Units=1/GPa)
#
#
# Indices 1 2 3 4 5 6 
#
# 1 0.005905 -0.001002 -0.005523 0.000000 0.000000 0.000000
# 2 -0.001002 0.013502 -0.007845 0.000000 0.000000 0.000000
# 3 -0.005523 -0.007845 0.040746 0.000000 0.000000 0.000000
# 4 0.000000 0.000000 0.000000 0.047171 0.000000 0.000000
# 5 0.000000 0.000000 0.000000 0.000000 -0.022594 0.000000
# 6 0.000000 0.000000 0.000000 0.000000 0.000000 0.030366
#
#
# Mechanical properties :
#
#
# Convention : Reuss Voigt Hill
#
# Bulk Modulus (GPa) = 31.83234 57.51519 44.67376
# Shear Modulus (GPa) = 32.40284 17.86059 25.13171
#
# Velocity S-wave (km/s) = 3.85674 2.86337 3.39657
# Velocity P-wave (km/s) = 5.86900 6.11016 5.99079
#
# Compressibility (1/GPa) = 0.03141460
#
# Stress axis : x y z
#
# Youngs Moduli (GPa) = 169.33733 74.06122 24.54252
#
# Poissons Ratio (x) = 0.07420 0.13554
# Poissons Ratio (y) = 0.16967 0.19253
# Poissons Ratio (z) = 0.93520 0.58099
#
# Static dielectric constant tensor:
#      x y z
#    x 1.854150 0.000000 0.000000 
#    y 0.000000 1.779370 0.000000 
#    z 0.000000 0.000000 1.775770 
# 
# From -- ./inp_files/5490.got.cif
#   From: 2010.05.17/outbox.cif.g08.bks.cpg/sg64_3_cif.got.tgz:5490.got - 2010.06.03 16:29:19.
