data_PCOD9479897
_publ_section_title
;
Structure prediction by ZEFSAII (Michael W. Deem and Ramdas Pophale) SiO2 
 PCOD9479897
Probable space group: C M C A
;
_chemical_formula_sum "Si O2"
_cell_formula_units_Z 80
_cell_length_a 26.545048
_cell_length_b 13.232176
_cell_length_c 10.470917
_cell_angle_alpha 90.000000
_cell_angle_beta 90.000000
_cell_angle_gamma 90.000000
_cell_volume 3677.896477
_symmetry_space_group_name_H-M "C M C A"
_symmetry_group_IT_number 64
_symmetry_cell_setting 'orthorhombic'
loop_
_space_group_symop_operation_xyz
x,y,z
-x,1/2-y,1/2+z
x,-y,-z
-x,1/2+y,1/2-z
-x,-y,-z
x,1/2+y,1/2-z
-x,y,z
x,1/2-y,1/2+z
1/2+x,1/2+y,z
1/2-x,-y,1/2+z
1/2+x,1/2-y,-z
1/2-x,y,1/2-z
1/2-x,1/2-y,-z
1/2+x,y,1/2-z
1/2-x,1/2+y,z
1/2+x,-y,1/2+z
loop_
_atom_site_type_symbol
_atom_site_label
_atom_site_fract_x
_atom_site_fract_y
_atom_site_fract_z
Si Si1 0.559021 0.571920 0.113665
Si Si2 0.161034 0.173055 0.401691
Si Si3 0.115917 0.532620 0.837219
Si Si4 0.302311 0.310190 0.309910
Si Si5 0.941190 0.794818 0.490924
O O1 0.500000 0.551302 0.122736
O O2 0.584028 0.532416 0.240127
O O3 0.563896 0.691581 0.090105
O O4 0.578995 0.500000 0.000000
O O5 0.187403 0.210141 0.273369
O O6 0.190213 0.200439 0.535405
O O7 0.104099 0.217906 0.408140
O O8 0.151771 0.053758 0.397115
O O9 0.153566 0.612210 0.774576
O O10 0.077086 0.603339 0.917917
O O11 0.250000 0.348681 0.250000
O O12 0.000000 0.802522 0.531837
#
# Coordination Sequence:
#
# PCOD9479897 Si02
#       5
#    16  16  16  16  16
#     4  10  21  37  59  91 131 174 217 259 315 389
#     4  11  24  43  65  94 129 165 215 268 325 395
#     4  11  22  39  63  93 127 164 212 268 325 389
#     4  11  24  44  67  92 124 166 216 273 330 389
#     4  10  21  38  61  91 128 169 210 257 316 385
#
# _framework density 21.751564999999999
#
# number of rings (size 3 to 8) (size 9 to 14) (size 15 to 20)
#    0.000    1.400    0.000    7.200    0.000    3.200 
#    0.000   16.000    0.000    0.000    0.000    0.000 
#    0.000    0.000    0.000    0.000    0.000    0.000 
#
# Total GULP energy -222869.570326 kJ/mol
# GULP energy per Si atom -5571.739258 kJ/mol
# Density = 2.170206 g / cm^3
# Si number density = 21.751565 Si / 1000 Ang^3
#
#
#
# Elastic Constant Matrix: (Units=GPa)
#
#
# Indices 1 2 3 4 5 6 
#
# 1 66.4639 19.5065 7.6381 0.0000 0.0000 0.0000
# 2 19.5065 95.9999 48.4454 0.0000 0.0000 0.0000
# 3 7.6381 48.4454 102.4271 0.0000 0.0000 0.0000
# 4 0.0000 0.0000 0.0000 39.8244 0.0000 0.0000
# 5 0.0000 0.0000 0.0000 0.0000 18.4693 0.0000
# 6 0.0000 0.0000 0.0000 0.0000 0.0000 8.9398
#
#
#
# Elastic Compliance Matrix: (Units=1/GPa)
#
#
# Indices 1 2 3 4 5 6 
#
# 1 0.016016 -0.003483 0.000453 0.000000 0.000000 0.000000
# 2 -0.003483 0.014440 -0.006570 0.000000 0.000000 0.000000
# 3 0.000453 -0.006570 0.012837 0.000000 0.000000 0.000000
# 4 0.000000 0.000000 0.000000 0.025110 0.000000 0.000000
# 5 0.000000 0.000000 0.000000 0.000000 0.054144 0.000000
# 6 0.000000 0.000000 0.000000 0.000000 0.000000 0.111860
#
#
# Mechanical properties :
#
#
# Convention : Reuss Voigt Hill
#
# Bulk Modulus (GPa) = 41.50636 46.23011 43.86823
# Shear Modulus (GPa) = 19.11047 26.06675 22.58861
#
# Velocity S-wave (km/s) = 2.96730 3.46553 3.22604
# Velocity P-wave (km/s) = 5.55547 6.10844 5.83850
#
# Compressibility (1/GPa) = 0.02409269
#
# Stress axis : x y z
#
# Youngs Moduli (GPa) = 62.43788 69.25284 77.90183
#
# Poissons Ratio (x) = 0.24120 -0.03529
# Poissons Ratio (y) = 0.21747 0.51181
# Poissons Ratio (z) = -0.02828 0.45499
#
# Static dielectric constant tensor:
#      x y z
#    x 1.801470 0.000000 0.000000 
#    y 0.000000 1.798760 0.000000 
#    z 0.000000 0.000000 1.987670 
# 
# From -- ./inp_files/19580.got.cif
#   From: 2010.05.17/outbox.cif.g08.bks.cpg/sg64_10_cif.got.tgz:19580.got - 2010.06.03 16:29:19.
