data_PCOD9479818
_publ_section_title
;
Structure prediction by ZEFSAII (Michael W. Deem and Ramdas Pophale) SiO2 
 PCOD9479818
Probable space group: C M C A
;
_chemical_formula_sum "Si O2"
_cell_formula_units_Z 104
_cell_length_a 8.204707
_cell_length_b 28.120925
_cell_length_c 22.567935
_cell_angle_alpha 90.000000
_cell_angle_beta 90.000000
_cell_angle_gamma 90.000000
_cell_volume 5206.963111
_symmetry_space_group_name_H-M "C M C A"
_symmetry_group_IT_number 64
_symmetry_cell_setting 'orthorhombic'
loop_
_space_group_symop_operation_xyz
x,y,z
-x,1/2-y,1/2+z
x,-y,-z
-x,1/2+y,1/2-z
-x,-y,-z
x,1/2+y,1/2-z
-x,y,z
x,1/2-y,1/2+z
1/2+x,1/2+y,z
1/2-x,-y,1/2+z
1/2+x,1/2-y,-z
1/2-x,y,1/2-z
1/2-x,1/2-y,-z
1/2+x,y,1/2-z
1/2-x,1/2+y,z
1/2+x,-y,1/2+z
loop_
_atom_site_type_symbol
_atom_site_label
_atom_site_fract_x
_atom_site_fract_y
_atom_site_fract_z
Si Si1 0.307139 0.180347 0.965566
Si Si2 0.816996 0.919776 0.071248
Si Si3 0.748356 0.000000 0.000000
Si Si4 0.306482 0.646556 0.181364
Si Si5 0.309542 0.041581 0.816070
Si Si6 0.804701 0.274442 0.907410
Si Si7 0.691962 0.553348 0.388136
O O1 0.500000 0.170946 0.964726
O O2 0.212421 0.132605 0.950989
O O3 0.266531 0.222097 0.919036
O O4 0.261874 0.197826 0.031561
O O5 0.790610 0.924271 0.140783
O O6 0.000000 0.937138 0.055846
O O7 0.690756 0.957394 0.042733
O O8 0.796968 0.963957 0.945027
O O9 0.500000 0.641498 0.180667
O O10 0.250000 0.644682 0.250000
O O11 0.257663 0.695546 0.148393
O O12 0.233481 0.603569 0.141603
O O13 0.500000 0.052792 0.820799
O O14 0.250000 0.045560 0.750000
O O15 0.285545 0.987611 0.839085
O O16 0.000000 0.271191 0.904374
O O17 0.500000 0.553579 0.406675
#
# Coordination Sequence:
#
# PCOD9479818 Si02
#       7
#    16  16   8  16  16  16  16
#     4  10  21  38  61  89 119 151 189 235 290 349
#     4  11  22  36  56  83 116 152 191 235 283 336
#     4  10  22  36  58  88 122 158 200 246 294 348
#     4  12  25  40  60  87 121 160 202 248 301 361
#     4  10  21  37  56  78 107 145 188 232 279 333
#     4  10  21  39  63  88 116 150 190 237 289 347
#     4  10  21  37  58  84 116 154 195 240 292 349
#
# _framework density 19.973255000000002
#
# number of rings (size 3 to 8) (size 9 to 14) (size 15 to 20)
#    0.000    1.538    0.000    5.077    0.000   11.077 
#    0.000    0.769    0.000    0.000    0.000    0.000 
#    0.000    0.000    0.000    0.000    0.000    0.000 
#
# Total GULP energy -289875.975845 kJ/mol
# GULP energy per Si atom -5574.537997 kJ/mol
# Density = 1.992780 g / cm^3
# Si number density = 19.973255 Si / 1000 Ang^3
#
#
#
# Elastic Constant Matrix: (Units=GPa)
#
#
# Indices 1 2 3 4 5 6 
#
# 1 76.8438 19.5041 23.4016 0.0000 0.0000 0.0000
# 2 19.5041 84.1796 36.9404 0.0000 0.0000 0.0000
# 3 23.4016 36.9404 125.5103 0.0000 0.0000 0.0000
# 4 0.0000 0.0000 0.0000 27.4269 0.0000 0.0000
# 5 0.0000 0.0000 0.0000 0.0000 18.8002 0.0000
# 6 0.0000 0.0000 0.0000 0.0000 0.0000 15.2246
#
#
#
# Elastic Compliance Matrix: (Units=1/GPa)
#
#
# Indices 1 2 3 4 5 6 
#
# 1 0.014223 -0.002448 -0.001931 0.000000 0.000000 0.000000
# 2 -0.002448 0.014062 -0.003682 0.000000 0.000000 0.000000
# 3 -0.001931 -0.003682 0.009411 0.000000 0.000000 0.000000
# 4 0.000000 0.000000 0.000000 0.036461 0.000000 0.000000
# 5 0.000000 0.000000 0.000000 0.000000 0.053191 0.000000
# 6 0.000000 0.000000 0.000000 0.000000 0.000000 0.065683
#
#
# Mechanical properties :
#
#
# Convention : Reuss Voigt Hill
#
# Bulk Modulus (GPa) = 46.35357 49.58065 47.96711
# Shear Modulus (GPa) = 23.11111 26.06951 24.59031
#
# Velocity S-wave (km/s) = 3.40531 3.61670 3.51260
# Velocity P-wave (km/s) = 6.22252 6.50524 6.36545
#
# Compressibility (1/GPa) = 0.02157331
#
# Stress axis : x y z
#
# Youngs Moduli (GPa) = 70.30920 71.11118 106.25379
#
# Poissons Ratio (x) = 0.17407 0.20522
# Poissons Ratio (y) = 0.17210 0.39128
# Poissons Ratio (z) = 0.13580 0.26187
#
# Static dielectric constant tensor:
#      x y z
#    x 1.800840 0.000000 0.000000 
#    y 0.000000 1.679170 0.000000 
#    z 0.000000 0.000000 1.695490 
# 
# From -- ./inp_files/37271.got.cif
#   From: 2010.05.17/outbox.cif.g08.bks.cpg/sg64_19_cif.got.tgz:37271.got - 2010.06.03 16:29:19.
