data_PCOD9479439
_publ_section_title
;
Structure prediction by ZEFSAII (Michael W. Deem and Ramdas Pophale) SiO2 
 PCOD9479439
Probable space group: C M C A
;
_chemical_formula_sum "Si O2"
_cell_formula_units_Z 72
_cell_length_a 23.874343
_cell_length_b 9.722298
_cell_length_c 14.571621
_cell_angle_alpha 90.000000
_cell_angle_beta 90.000000
_cell_angle_gamma 90.000000
_cell_volume 3382.269619
_symmetry_space_group_name_H-M "C M C A"
_symmetry_group_IT_number 64
_symmetry_cell_setting 'orthorhombic'
loop_
_space_group_symop_operation_xyz
x,y,z
-x,1/2-y,1/2+z
x,-y,-z
-x,1/2+y,1/2-z
-x,-y,-z
x,1/2+y,1/2-z
-x,y,z
x,1/2-y,1/2+z
1/2+x,1/2+y,z
1/2-x,-y,1/2+z
1/2+x,1/2-y,-z
1/2-x,y,1/2-z
1/2-x,1/2-y,-z
1/2+x,y,1/2-z
1/2-x,1/2+y,z
1/2+x,-y,1/2+z
loop_
_atom_site_type_symbol
_atom_site_label
_atom_site_fract_x
_atom_site_fract_y
_atom_site_fract_z
Si Si1 0.914719 0.789163 0.493431
Si Si2 0.000000 0.696717 0.160520
Si Si3 0.750000 0.176586 0.250000
Si Si4 0.619912 0.500000 0.000000
Si Si5 0.500000 0.614381 0.659009
Si Si6 0.814841 0.500000 0.000000
Si Si7 0.714634 0.564093 0.862151
O O1 0.912678 0.630210 0.462542
O O2 0.855952 0.868650 0.505382
O O3 0.947747 0.787247 0.590066
O O4 0.948138 0.864581 0.411501
O O5 0.000000 0.540590 0.193434
O O6 0.000000 0.791377 0.250478
O O7 0.722291 0.286032 0.181227
O O8 0.707577 0.067374 0.295283
O O9 0.661326 0.564792 0.925893
O O10 0.771864 0.472948 0.083557
#
# Coordination Sequence:
#
# PCOD9479439 Si02
#       7
#    16   8   8   8   8   8  16
#     4  11  23  45  69  93 135 168 220 262 329 383
#     4  11  25  48  69  97 127 166 212 278 328 386
#     4  10  20  40  56  90 124 178 200 282 296 356
#     4  11  24  41  62 100 122 183 208 255 314 398
#     4  11  25  48  69  97 127 166 212 278 328 386
#     4  11  20  43  66  88 120 189 204 257 316 398
#     4  10  22  40  62  88 140 162 218 254 318 368
#
# _framework density 21.287479999999999
#
# number of rings (size 3 to 8) (size 9 to 14) (size 15 to 20)
#    0.000    1.333    2.222    3.333    3.111    4.444 
#   24.000    0.000    0.000    0.000    0.000    0.000 
#    0.000    0.000    0.000    0.000    0.000    0.000 
#
# Total GULP energy -200911.986382 kJ/mol
# GULP energy per Si atom -5580.888511 kJ/mol
# Density = 2.123903 g / cm^3
# Si number density = 21.287480 Si / 1000 Ang^3
#
#
#
# Elastic Constant Matrix: (Units=GPa)
#
#
# Indices 1 2 3 4 5 6 
#
# 1 55.3678 26.4264 20.6036 0.0000 0.0000 0.0000
# 2 26.4264 139.6725 21.9128 0.0000 0.0000 0.0000
# 3 20.6036 21.9128 99.9137 0.0000 0.0000 0.0000
# 4 0.0000 0.0000 0.0000 41.2847 0.0000 0.0000
# 5 0.0000 0.0000 0.0000 0.0000 -41.8096 0.0000
# 6 0.0000 0.0000 0.0000 0.0000 0.0000 65.5737
#
#
#
# Elastic Compliance Matrix: (Units=1/GPa)
#
#
# Indices 1 2 3 4 5 6 
#
# 1 0.021026 -0.003415 -0.003587 0.000000 0.000000 0.000000
# 2 -0.003415 0.007970 -0.001044 0.000000 0.000000 0.000000
# 3 -0.003587 -0.001044 0.010977 0.000000 0.000000 0.000000
# 4 0.000000 0.000000 0.000000 0.024222 0.000000 0.000000
# 5 0.000000 0.000000 0.000000 0.000000 -0.023918 0.000000
# 6 0.000000 0.000000 0.000000 0.000000 0.000000 0.015250
#
#
# Mechanical properties :
#
#
# Convention : Reuss Voigt Hill
#
# Bulk Modulus (GPa) = 41.87414 48.09329 44.98371
# Shear Modulus (GPa) = 62.83097 28.07718 45.45407
#
# Velocity S-wave (km/s) = 5.43871 3.63568 4.62589
# Velocity P-wave (km/s) = 7.69109 6.34551 7.05048
#
# Compressibility (1/GPa) = 0.02388109
#
# Stress axis : x y z
#
# Youngs Moduli (GPa) = 47.56034 125.47777 91.09839
#
# Poissons Ratio (x) = 0.42856 0.32675
# Poissons Ratio (y) = 0.16244 0.09507
# Poissons Ratio (z) = 0.17059 0.13094
#
# Static dielectric constant tensor:
#      x y z
#    x 1.780680 0.000000 0.000000 
#    y 0.000000 1.787760 0.000000 
#    z 0.000000 0.000000 1.857690 
# 
# From -- ./inp_files/28282.got.cif
#   From: 2010.05.17/outbox.cif.g08.bks.cpg/sg64_15_cif.got.tgz:28282.got - 2010.06.03 16:29:19.
