data_PCOD9479828
_publ_section_title
;
Structure prediction by ZEFSAII (Michael W. Deem and Ramdas Pophale) SiO2 
 PCOD9479828
Probable space group: C M C A
;
_chemical_formula_sum "Si O2"
_cell_formula_units_Z 80
_cell_length_a 11.568315
_cell_length_b 12.758500
_cell_length_c 24.898889
_cell_angle_alpha 90.000000
_cell_angle_beta 90.000000
_cell_angle_gamma 90.000000
_cell_volume 3674.935261
_symmetry_space_group_name_H-M "C M C A"
_symmetry_group_IT_number 64
_symmetry_cell_setting 'orthorhombic'
loop_
_space_group_symop_operation_xyz
x,y,z
-x,1/2-y,1/2+z
x,-y,-z
-x,1/2+y,1/2-z
-x,-y,-z
x,1/2+y,1/2-z
-x,y,z
x,1/2-y,1/2+z
1/2+x,1/2+y,z
1/2-x,-y,1/2+z
1/2+x,1/2-y,-z
1/2-x,y,1/2-z
1/2-x,1/2-y,-z
1/2+x,y,1/2-z
1/2-x,1/2+y,z
1/2+x,-y,1/2+z
loop_
_atom_site_type_symbol
_atom_site_label
_atom_site_fract_x
_atom_site_fract_y
_atom_site_fract_z
Si Si1 0.843535 0.599023 0.036683
Si Si2 0.872997 0.978955 0.654706
Si Si3 0.874554 0.662079 0.510390
Si Si4 0.371798 0.226676 0.220930
Si Si5 0.866327 0.403340 0.367931
O O1 0.879133 0.579921 0.097167
O O2 0.877190 0.711126 0.011454
O O3 0.875748 0.500000 0.000000
O O4 0.706411 0.612264 0.033784
O O5 0.868532 0.893308 0.701537
O O6 0.000000 0.035253 0.659670
O O7 0.748800 0.036780 0.652700
O O8 0.840453 0.628187 0.570480
O O9 0.000000 0.622477 0.499684
O O10 0.500000 0.243676 0.247546
O O11 0.250000 0.249822 0.250000
O O12 0.372518 0.299709 0.168398
O O13 0.000000 0.448338 0.365526
#
# Coordination Sequence:
#
# PCOD9479828 Si02
#       5
#    16  16  16  16  16
#     4  11  21  36  57  89 121 161 204 242 292 351
#     4  11  23  40  62  92 125 161 203 251 301 361
#     4  10  21  37  56  83 122 163 203 241 295 355
#     4  10  23  44  68  88 120 158 199 253 311 364
#     4  10  21  41  63  87 121 161 198 248 302 358
#
# _framework density 21.769092000000001
#
# number of rings (size 3 to 8) (size 9 to 14) (size 15 to 20)
#    0.000    1.600    4.000    0.600    0.000    5.200 
#    0.000    4.000    0.000    0.000    0.000    0.000 
#    0.000    0.000    0.000    0.000    0.000    0.000 
#
# Total GULP energy -222852.979035 kJ/mol
# GULP energy per Si atom -5571.324476 kJ/mol
# Density = 2.171954 g / cm^3
# Si number density = 21.769092 Si / 1000 Ang^3
#
#
#
# Elastic Constant Matrix: (Units=GPa)
#
#
# Indices 1 2 3 4 5 6 
#
# 1 172.0642 44.3279 23.9822 0.0000 0.0000 0.0000
# 2 44.3279 85.3937 -3.8631 0.0000 0.0000 0.0000
# 3 23.9822 -3.8631 27.7295 0.0000 0.0000 0.0000
# 4 0.0000 0.0000 0.0000 23.5985 0.0000 0.0000
# 5 0.0000 0.0000 0.0000 0.0000 13.4811 0.0000
# 6 0.0000 0.0000 0.0000 0.0000 0.0000 17.8411
#
#
#
# Elastic Compliance Matrix: (Units=1/GPa)
#
#
# Indices 1 2 3 4 5 6 
#
# 1 0.008029 -0.004511 -0.007573 0.000000 0.000000 0.000000
# 2 -0.004511 0.014319 0.005896 0.000000 0.000000 0.000000
# 3 -0.007573 0.005896 0.043433 0.000000 0.000000 0.000000
# 4 0.000000 0.000000 0.000000 0.042376 0.000000 0.000000
# 5 0.000000 0.000000 0.000000 0.000000 0.074178 0.000000
# 6 0.000000 0.000000 0.000000 0.000000 0.000000 0.056050
#
#
# Mechanical properties :
#
#
# Convention : Reuss Voigt Hill
#
# Bulk Modulus (GPa) = 18.72431 46.00904 32.36668
# Shear Modulus (GPa) = 18.61769 25.70018 22.15893
#
# Velocity S-wave (km/s) = 2.92761 3.43969 3.19393
# Velocity P-wave (km/s) = 4.47749 6.07916 5.33873
#
# Compressibility (1/GPa) = 0.05340649
#
# Stress axis : x y z
#
# Youngs Moduli (GPa) = 124.54416 69.83904 23.02381
#
# Poissons Ratio (x) = 0.31501 0.17435
# Poissons Ratio (y) = 0.56177 -0.13574
# Poissons Ratio (z) = 0.94312 -0.41176
#
# Static dielectric constant tensor:
#      x y z
#    x 1.933460 0.000000 0.000000 
#    y 0.000000 1.804290 0.000000 
#    z 0.000000 0.000000 1.740850 
# 
# From -- ./inp_files/43954.got.cif
#   From: 2010.05.17/outbox.cif.g08.bks.cpg/sg64_22_cif.got.tgz:43954.got - 2010.06.03 16:29:19.
