data_PCOD9479753
_publ_section_title
;
Structure prediction by ZEFSAII (Michael W. Deem and Ramdas Pophale) SiO2 
 PCOD9479753
Probable space group: C M C A
;
_chemical_formula_sum "Si O2"
_cell_formula_units_Z 104
_cell_length_a 9.929117
_cell_length_b 27.975374
_cell_length_c 19.092733
_cell_angle_alpha 90.000000
_cell_angle_beta 90.000000
_cell_angle_gamma 90.000000
_cell_volume 5303.402986
_symmetry_space_group_name_H-M "C M C A"
_symmetry_group_IT_number 64
_symmetry_cell_setting 'orthorhombic'
loop_
_space_group_symop_operation_xyz
x,y,z
-x,1/2-y,1/2+z
x,-y,-z
-x,1/2+y,1/2-z
-x,-y,-z
x,1/2+y,1/2-z
-x,y,z
x,1/2-y,1/2+z
1/2+x,1/2+y,z
1/2-x,-y,1/2+z
1/2+x,1/2-y,-z
1/2-x,y,1/2-z
1/2-x,1/2-y,-z
1/2+x,y,1/2-z
1/2-x,1/2+y,z
1/2+x,-y,1/2+z
loop_
_atom_site_type_symbol
_atom_site_label
_atom_site_fract_x
_atom_site_fract_y
_atom_site_fract_z
Si Si1 0.344327 0.993740 0.082812
Si Si2 0.341268 0.406212 0.115812
Si Si3 0.353370 0.766910 0.154984
Si Si4 0.343985 0.835784 0.027356
Si Si5 0.342847 0.578357 0.312021
Si Si6 0.250000 0.348878 0.250000
Si Si7 0.659018 0.183200 0.135647
O O1 0.500000 0.977669 0.094798
O O2 0.238116 0.956175 0.113235
O O3 0.328812 0.044561 0.120728
O O4 0.325155 0.000000 0.000000
O O5 0.500000 0.410495 0.100504
O O6 0.261732 0.373164 0.059552
O O7 0.322245 0.381150 0.191638
O O8 0.500000 0.744288 0.162029
O O9 0.338660 0.789686 0.077671
O O10 0.342656 0.812283 0.206314
O O11 0.239993 0.727693 0.165584
O O12 0.500000 0.854125 0.030549
O O13 0.315083 0.822373 0.947501
O O14 0.500000 0.577757 0.291699
O O15 0.250000 0.559873 0.250000
O O16 0.304461 0.632608 0.330230
O O17 0.500000 0.190923 0.144964
#
# Coordination Sequence:
#
# PCOD9479753 Si02
#       7
#    16  16  16  16  16   8  16
#     4  10  22  43  69  92 121 162 204 246 306 378
#     4  11  23  38  63  94 124 157 201 257 305 352
#     4  10  21  36  58  86 117 156 203 252 300 353
#     4   9  19  38  60  86 121 160 201 246 304 369
#     4  10  23  41  60  87 120 160 202 246 298 360
#     4  10  24  42  56  84 128 166 200 240 308 374
#     4  10  21  38  61  85 117 160 204 248 301 362
#
# _framework density 19.610049
#
# number of rings (size 3 to 8) (size 9 to 14) (size 15 to 20)
#    0.000    2.000    0.000    2.308    2.154    9.538 
#    0.000    1.538    0.000    0.000    0.000    0.000 
#    0.000    0.000    0.000    0.000    0.000    0.000 
#
# Total GULP energy -290452.443756 kJ/mol
# GULP energy per Si atom -5585.623918 kJ/mol
# Density = 1.956542 g / cm^3
# Si number density = 19.610049 Si / 1000 Ang^3
#
#
#
# Elastic Constant Matrix: (Units=GPa)
#
#
# Indices 1 2 3 4 5 6 
#
# 1 93.6672 55.8880 35.3249 0.0000 0.0000 0.0000
# 2 55.8880 90.9628 21.4305 0.0000 0.0000 0.0000
# 3 35.3249 21.4305 97.0972 0.0000 0.0000 0.0000
# 4 0.0000 0.0000 0.0000 9.8012 0.0000 0.0000
# 5 0.0000 0.0000 0.0000 0.0000 15.2841 0.0000
# 6 0.0000 0.0000 0.0000 0.0000 0.0000 17.6730
#
#
#
# Elastic Compliance Matrix: (Units=1/GPa)
#
#
# Indices 1 2 3 4 5 6 
#
# 1 0.018520 -0.010328 -0.004458 0.000000 0.000000 0.000000
# 2 -0.010328 0.017357 -0.000073 0.000000 0.000000 0.000000
# 3 -0.004458 -0.000073 0.011937 0.000000 0.000000 0.000000
# 4 0.000000 0.000000 0.000000 0.102028 0.000000 0.000000
# 5 0.000000 0.000000 0.000000 0.000000 0.065428 0.000000
# 6 0.000000 0.000000 0.000000 0.000000 0.000000 0.056584
#
#
# Mechanical properties :
#
#
# Convention : Reuss Voigt Hill
#
# Bulk Modulus (GPa) = 55.26691 56.33489 55.80090
# Shear Modulus (GPa) = 16.25465 19.82390 18.03927
#
# Velocity S-wave (km/s) = 2.88217 3.18292 3.03627
# Velocity P-wave (km/s) = 6.27057 6.50369 6.38819
#
# Compressibility (1/GPa) = 0.01809401
#
# Stress axis : x y z
#
# Youngs Moduli (GPa) = 53.99548 57.61489 83.77287
#
# Poissons Ratio (x) = 0.59508 0.37347
# Poissons Ratio (y) = 0.55769 0.00613
# Poissons Ratio (z) = 0.24072 0.00422
#
# Static dielectric constant tensor:
#      x y z
#    x 1.664620 0.000000 0.000000 
#    y 0.000000 1.670990 0.000000 
#    z 0.000000 0.000000 1.684250 
# 
# From -- ./inp_files/37255.got.cif
#   From: 2010.05.17/outbox.cif.g08.bks.cpg/sg64_19_cif.got.tgz:37255.got - 2010.06.03 16:29:19.
