data_PCOD9479956
_publ_section_title
;
Structure prediction by ZEFSAII (Michael W. Deem and Ramdas Pophale) SiO2 
 PCOD9479956
Probable space group: C M C A
;
_chemical_formula_sum "Si O2"
_cell_formula_units_Z 72
_cell_length_a 13.501601
_cell_length_b 27.880515
_cell_length_c 7.052519
_cell_angle_alpha 90.000000
_cell_angle_beta 90.000000
_cell_angle_gamma 90.000000
_cell_volume 2654.790935
_symmetry_space_group_name_H-M "C M C A"
_symmetry_group_IT_number 64
_symmetry_cell_setting 'orthorhombic'
loop_
_space_group_symop_operation_xyz
x,y,z
-x,1/2-y,1/2+z
x,-y,-z
-x,1/2+y,1/2-z
-x,-y,-z
x,1/2+y,1/2-z
-x,y,z
x,1/2-y,1/2+z
1/2+x,1/2+y,z
1/2-x,-y,1/2+z
1/2+x,1/2-y,-z
1/2-x,y,1/2-z
1/2-x,1/2-y,-z
1/2+x,y,1/2-z
1/2-x,1/2+y,z
1/2+x,-y,1/2+z
loop_
_atom_site_type_symbol
_atom_site_label
_atom_site_fract_x
_atom_site_fract_y
_atom_site_fract_z
Si Si1 0.889020 0.317527 0.417922
Si Si2 0.260452 0.500000 0.500000
Si Si3 0.725586 0.119149 0.026651
Si Si4 0.883619 0.449203 0.263415
Si Si5 0.888698 0.211820 0.354913
O O1 0.823157 0.364710 0.407054
O O2 0.851929 0.266382 0.342654
O O3 0.894367 0.307857 0.642819
O O4 0.000000 0.326933 0.346518
O O5 0.186166 0.544666 0.547732
O O6 0.340171 0.499191 0.327970
O O7 0.750000 0.108199 0.250000
O O8 0.673213 0.172317 0.035741
O O9 0.647677 0.085768 0.911707
O O10 0.000000 0.448296 0.301267
O O11 0.000000 0.215657 0.434211
#
# Coordination Sequence:
#
# PCOD9479956 Si02
#       5
#    16   8  16  16  16
#     4   9  18  34  55  89 139 195 248 299 353 417
#     4  10  26  50  76 110 142 182 236 300 392 466
#     4  10  21  37  65 103 144 190 247 309 370 439
#     4  11  24  49  81 108 144 186 238 305 379 465
#     4   9  17  33  56  87 136 194 248 297 356 419
#
# _framework density 27.120778000000001
#
# number of rings (size 3 to 8) (size 9 to 14) (size 15 to 20)
#    0.000    2.222    0.000    2.000    3.111    0.889 
#    8.000    6.667    0.000    0.000    0.000    0.000 
#    0.000    0.000    0.000    0.000    0.000    0.000 
#
# Total GULP energy -200839.481074 kJ/mol
# GULP energy per Si atom -5578.874474 kJ/mol
# Density = 2.705905 g / cm^3
# Si number density = 27.120778 Si / 1000 Ang^3
#
#
#
# Elastic Constant Matrix: (Units=GPa)
#
#
# Indices 1 2 3 4 5 6 
#
# 1 131.6493 -19.4366 15.8704 0.0000 0.0000 0.0000
# 2 -19.4366 112.7962 20.6916 0.0000 0.0000 0.0000
# 3 15.8704 20.6916 120.8624 0.0000 0.0000 0.0000
# 4 0.0000 0.0000 0.0000 36.9812 0.0000 0.0000
# 5 0.0000 0.0000 0.0000 0.0000 27.9366 0.0000
# 6 0.0000 0.0000 0.0000 0.0000 0.0000 7.7332
#
#
#
# Elastic Compliance Matrix: (Units=1/GPa)
#
#
# Indices 1 2 3 4 5 6 
#
# 1 0.007995 0.001621 -0.001327 0.000000 0.000000 0.000000
# 2 0.001621 0.009482 -0.001836 0.000000 0.000000 0.000000
# 3 -0.001327 -0.001836 0.008763 0.000000 0.000000 0.000000
# 4 0.000000 0.000000 0.000000 0.027041 0.000000 0.000000
# 5 0.000000 0.000000 0.000000 0.000000 0.035795 0.000000
# 6 0.000000 0.000000 0.000000 0.000000 0.000000 0.129312
#
#
# Mechanical properties :
#
#
# Convention : Reuss Voigt Hill
#
# Bulk Modulus (GPa) = 43.18743 44.39542 43.79142
# Shear Modulus (GPa) = 21.81590 37.74237 29.77913
#
# Velocity S-wave (km/s) = 2.83927 3.73452 3.31723
# Velocity P-wave (km/s) = 5.16791 5.91613 5.55463
#
# Compressibility (1/GPa) = 0.02315489
#
# Stress axis : x y z
#
# Youngs Moduli (GPa) = 125.07328 105.46584 114.12239
#
# Poissons Ratio (x) = -0.17098 0.15149
# Poissons Ratio (y) = -0.20277 0.20955
# Poissons Ratio (z) = 0.16602 0.19365
#
# Static dielectric constant tensor:
#      x y z
#    x 2.154360 0.000000 0.000000 
#    y 0.000000 2.603070 0.000000 
#    z 0.000000 0.000000 2.333260 
# 
# From -- ./inp_files/5979.got.cif
#   From: 2010.05.17/outbox.cif.g08.bks.cpg/sg64_3_cif.got.tgz:5979.got - 2010.06.03 16:29:19.
