data_PCOD9479248
_publ_section_title
;
Structure prediction by ZEFSAII (Michael W. Deem and Ramdas Pophale) SiO2 
 PCOD9479248
Probable space group: C M C A
;
_chemical_formula_sum "Si O2"
_cell_formula_units_Z 112
_cell_length_a 27.658894
_cell_length_b 14.857617
_cell_length_c 14.190885
_cell_angle_alpha 90.000000
_cell_angle_beta 90.000000
_cell_angle_gamma 90.000000
_cell_volume 5831.676836
_symmetry_space_group_name_H-M "C M C A"
_symmetry_group_IT_number 64
_symmetry_cell_setting 'orthorhombic'
loop_
_space_group_symop_operation_xyz
x,y,z
-x,1/2-y,1/2+z
x,-y,-z
-x,1/2+y,1/2-z
-x,-y,-z
x,1/2+y,1/2-z
-x,y,z
x,1/2-y,1/2+z
1/2+x,1/2+y,z
1/2-x,-y,1/2+z
1/2+x,1/2-y,-z
1/2-x,y,1/2-z
1/2-x,1/2-y,-z
1/2+x,y,1/2-z
1/2-x,1/2+y,z
1/2+x,-y,1/2+z
loop_
_atom_site_type_symbol
_atom_site_label
_atom_site_fract_x
_atom_site_fract_y
_atom_site_fract_z
Si Si1 0.894296 0.184237 0.283569
Si Si2 0.277575 0.447357 0.649781
Si Si3 0.557612 0.396329 0.528285
Si Si4 0.943380 0.346539 0.178756
Si Si5 0.629265 0.996723 0.248452
Si Si6 0.804705 0.934600 0.081396
Si Si7 0.212207 0.248981 0.337172
O O1 0.914630 0.147737 0.383781
O O2 0.927687 0.258869 0.236294
O O3 0.890715 0.093814 0.221416
O O4 0.840464 0.225791 0.293059
O O5 0.250000 0.440818 0.750000
O O6 0.332061 0.478728 0.666657
O O7 0.247803 0.522239 0.597314
O O8 0.273371 0.345478 0.613736
O O9 0.570623 0.500000 0.500000
O O10 0.500000 0.397601 0.549853
O O11 0.565814 0.339222 0.433204
O O12 0.912067 0.430292 0.215233
O O13 0.000000 0.365083 0.190798
O O14 0.660810 0.951895 0.329548
O O15 0.795651 0.828036 0.087239
O O16 0.825344 0.000000 0.000000
O O17 0.250000 0.270502 0.250000
#
# Coordination Sequence:
#
# PCOD9479248 Si02
#       7
#    16  16  16  16  16  16  16
#     4  11  22  39  67  93 128 170 210 263 333 392
#     4   8  18  36  56  82 112 157 207 247 310 368
#     4  10  21  40  65  95 127 161 216 277 321 381
#     4  11  23  39  66  97 122 166 216 268 333 384
#     4  10  20  40  61  85 126 167 208 263 321 386
#     4  11  22  37  59  88 126 166 207 261 319 387
#     4  10  20  38  62  84 122 168 207 257 315 379
#
# _framework density 19.205452999999999
#
# number of rings (size 3 to 8) (size 9 to 14) (size 15 to 20)
#    0.000    1.857    2.857    2.571    0.000    2.286 
#    5.143    0.000    0.000    0.429    0.000    0.000 
#    0.000    0.000    0.000    0.000    0.000    0.000 
#
# Total GULP energy -312052.995706 kJ/mol
# GULP energy per Si atom -5572.374923 kJ/mol
# Density = 1.916174 g / cm^3
# Si number density = 19.205453 Si / 1000 Ang^3
#
#
#
# Elastic Constant Matrix: (Units=GPa)
#
#
# Indices 1 2 3 4 5 6 
#
# 1 101.5555 41.1423 39.0126 0.0000 0.0000 0.0000
# 2 41.1423 120.6844 23.6428 0.0000 0.0000 0.0000
# 3 39.0126 23.6428 48.5674 0.0000 0.0000 0.0000
# 4 0.0000 0.0000 0.0000 21.2967 0.0000 0.0000
# 5 0.0000 0.0000 0.0000 0.0000 11.1705 0.0000
# 6 0.0000 0.0000 0.0000 0.0000 0.0000 16.5459
#
#
#
# Elastic Compliance Matrix: (Units=1/GPa)
#
#
# Indices 1 2 3 4 5 6 
#
# 1 0.015215 -0.003087 -0.010719 0.000000 0.000000 0.000000
# 2 -0.003087 0.009786 -0.002284 0.000000 0.000000 0.000000
# 3 -0.010719 -0.002284 0.030312 0.000000 0.000000 0.000000
# 4 0.000000 0.000000 0.000000 0.046956 0.000000 0.000000
# 5 0.000000 0.000000 0.000000 0.000000 0.089522 0.000000
# 6 0.000000 0.000000 0.000000 0.000000 0.000000 0.060438
#
#
# Mechanical properties :
#
#
# Convention : Reuss Voigt Hill
#
# Bulk Modulus (GPa) = 43.22866 53.15583 48.19225
# Shear Modulus (GPa) = 17.11627 20.93661 19.02644
#
# Velocity S-wave (km/s) = 2.98857 3.30531 3.15092
# Velocity P-wave (km/s) = 5.87079 6.50417 6.19558
#
# Compressibility (1/GPa) = 0.02313280
#
# Stress axis : x y z
#
# Youngs Moduli (GPa) = 65.72384 102.18739 32.99016
#
# Poissons Ratio (x) = 0.31546 0.35362
# Poissons Ratio (y) = 0.20289 0.07535
# Poissons Ratio (z) = 0.70450 0.23341
#
# Static dielectric constant tensor:
#      x y z
#    x 1.667240 0.000000 0.000000 
#    y 0.000000 1.693200 0.000000 
#    z 0.000000 0.000000 1.731090 
# 
# From -- ./inp_files/28077.got.cif
#   From: 2010.05.17/outbox.cif.g08.bks.cpg/sg64_15_cif.got.tgz:28077.got - 2010.06.03 16:29:19.
