data_PCOD9479270
_publ_section_title
;
Structure prediction by ZEFSAII (Michael W. Deem and Ramdas Pophale) SiO2 
 PCOD9479270
Probable space group: C M C A
;
_chemical_formula_sum "Si O2"
_cell_formula_units_Z 72
_cell_length_a 29.229118
_cell_length_b 5.151522
_cell_length_c 22.114078
_cell_angle_alpha 90.000000
_cell_angle_beta 90.000000
_cell_angle_gamma 90.000000
_cell_volume 3329.815009
_symmetry_space_group_name_H-M "C M C A"
_symmetry_group_IT_number 64
_symmetry_cell_setting 'orthorhombic'
loop_
_space_group_symop_operation_xyz
x,y,z
-x,1/2-y,1/2+z
x,-y,-z
-x,1/2+y,1/2-z
-x,-y,-z
x,1/2+y,1/2-z
-x,y,z
x,1/2-y,1/2+z
1/2+x,1/2+y,z
1/2-x,-y,1/2+z
1/2+x,1/2-y,-z
1/2-x,y,1/2-z
1/2-x,1/2-y,-z
1/2+x,y,1/2-z
1/2-x,1/2+y,z
1/2+x,-y,1/2+z
loop_
_atom_site_type_symbol
_atom_site_label
_atom_site_fract_x
_atom_site_fract_y
_atom_site_fract_z
Si Si1 0.451160 0.051780 0.210571
Si Si2 0.365911 0.604401 0.368973
Si Si3 0.897178 0.372615 0.566579
Si Si4 0.231103 0.730965 0.180968
Si Si5 0.000000 0.746810 0.456602
O O1 0.450734 0.343128 0.235782
O O2 0.500000 0.019166 0.177415
O O3 0.406034 0.004164 0.173761
O O4 0.366484 0.384288 0.421296
O O5 0.319688 0.629262 0.330116
O O6 0.381295 0.889295 0.391173
O O7 0.893675 0.500000 0.500000
O O8 0.950461 0.284480 0.575436
O O9 0.250000 0.766789 0.250000
O O10 0.263767 0.513877 0.152705
O O11 0.000000 0.500000 0.500000
O O12 0.000000 0.000000 0.500000
#
# Coordination Sequence:
#
# PCOD9479270 Si02
#       5
#    16  16  16  16   8
#     4  10  23  39  58  89 135 173 214 262 323 407
#     4  12  24  39  71  94 128 181 220 270 343 390
#     4  11  24  41  64  97 138 177 227 269 317 392
#     4  10  23  41  66  94 126 158 214 289 338 399
#     4  10  20  38  62  92 134 180 224 274 308 350
#
# _framework density 21.622824999999999
#
# number of rings (size 3 to 8) (size 9 to 14) (size 15 to 20)
#    0.000    1.333    0.000    6.000    9.333    0.000 
#    0.000    0.000    0.000   13.333    0.000    0.000 
#    0.000    0.000    0.000    0.000    0.000    0.000 
#
# Total GULP energy -200733.345517 kJ/mol
# GULP energy per Si atom -5575.926264 kJ/mol
# Density = 2.157361 g / cm^3
# Si number density = 21.622825 Si / 1000 Ang^3
#
#
#
# Elastic Constant Matrix: (Units=GPa)
#
#
# Indices 1 2 3 4 5 6 
#
# 1 106.0985 4.1607 47.6222 0.0000 0.0000 0.0000
# 2 4.1607 128.0607 9.7877 0.0000 0.0000 0.0000
# 3 47.6222 9.7877 45.6027 0.0000 0.0000 0.0000
# 4 0.0000 0.0000 0.0000 33.3798 0.0000 0.0000
# 5 0.0000 0.0000 0.0000 0.0000 39.0606 0.0000
# 6 0.0000 0.0000 0.0000 0.0000 0.0000 34.9161
#
#
#
# Elastic Compliance Matrix: (Units=1/GPa)
#
#
# Indices 1 2 3 4 5 6 
#
# 1 0.017833 0.000858 -0.018807 0.000000 0.000000 0.000000
# 2 0.000858 0.007980 -0.002609 0.000000 0.000000 0.000000
# 3 -0.018807 -0.002609 0.042128 0.000000 0.000000 0.000000
# 4 0.000000 0.000000 0.000000 0.029958 0.000000 0.000000
# 5 0.000000 0.000000 0.000000 0.000000 0.025601 0.000000
# 6 0.000000 0.000000 0.000000 0.000000 0.000000 0.028640
#
#
# Mechanical properties :
#
#
# Convention : Reuss Voigt Hill
#
# Bulk Modulus (GPa) = 37.27713 44.76702 41.02208
# Shear Modulus (GPa) = 24.72819 36.01738 30.37279
#
# Velocity S-wave (km/s) = 3.38541 4.08574 3.75195
# Velocity P-wave (km/s) = 5.70600 6.55791 6.14673
#
# Compressibility (1/GPa) = 0.02682610
#
# Stress axis : x y z
#
# Youngs Moduli (GPa) = 56.07587 125.30838 23.73712
#
# Poissons Ratio (x) = -0.10752 0.44642
# Poissons Ratio (y) = -0.04811 0.06193
# Poissons Ratio (z) = 1.05461 0.32691
#
# Static dielectric constant tensor:
#      x y z
#    x 1.788270 0.000000 0.000000 
#    y 0.000000 1.822230 0.000000 
#    z 0.000000 0.000000 1.769220 
# 
# From -- ./inp_files/46814.got.cif
#   From: 2010.05.17/outbox.cif.g08.bks.cpg/sg64_24_cif.got.tgz:46814.got - 2010.06.03 16:29:19.
