data_PCOD9479018
_publ_section_title
;
Structure prediction by ZEFSAII (Michael W. Deem and Ramdas Pophale) SiO2 
 PCOD9479018
Probable space group: C M C A
;
_chemical_formula_sum "Si O2"
_cell_formula_units_Z 104
_cell_length_a 7.826826
_cell_length_b 28.390415
_cell_length_c 26.250610
_cell_angle_alpha 90.000000
_cell_angle_beta 90.000000
_cell_angle_gamma 90.000000
_cell_volume 5833.065051
_symmetry_space_group_name_H-M "C M C A"
_symmetry_group_IT_number 64
_symmetry_cell_setting 'orthorhombic'
loop_
_space_group_symop_operation_xyz
x,y,z
-x,1/2-y,1/2+z
x,-y,-z
-x,1/2+y,1/2-z
-x,-y,-z
x,1/2+y,1/2-z
-x,y,z
x,1/2-y,1/2+z
1/2+x,1/2+y,z
1/2-x,-y,1/2+z
1/2+x,1/2-y,-z
1/2-x,y,1/2-z
1/2-x,1/2-y,-z
1/2+x,y,1/2-z
1/2-x,1/2+y,z
1/2+x,-y,1/2+z
loop_
_atom_site_type_symbol
_atom_site_label
_atom_site_fract_x
_atom_site_fract_y
_atom_site_fract_z
Si Si1 0.696805 0.059784 0.309541
Si Si2 0.500000 0.982756 0.875646
Si Si3 0.800571 0.833898 0.966630
Si Si4 0.700730 0.755841 0.610901
Si Si5 0.500000 0.905776 0.961948
Si Si6 0.000000 0.911862 0.415598
Si Si7 0.810727 0.156267 0.912490
Si Si8 0.703331 0.165423 0.191435
O O1 0.500000 0.045215 0.316071
O O2 0.750000 0.056031 0.250000
O O3 0.713820 0.115339 0.322757
O O4 0.832861 0.031577 0.343153
O O5 0.500000 0.951364 0.926818
O O6 0.500000 0.037278 0.890337
O O7 0.748839 0.785384 0.939410
O O8 0.667728 0.874225 0.950537
O O9 0.000000 0.843557 0.953068
O O10 0.790071 0.831127 0.027565
O O11 0.500000 0.745512 0.606965
O O12 0.791707 0.705958 0.615848
O O13 0.735344 0.792088 0.656360
O O14 0.500000 0.916460 0.022515
O O15 0.165081 0.881193 0.400451
O O16 0.000000 0.136596 0.904942
O O17 0.500000 0.159858 0.186514
O O18 0.750000 0.174828 0.250000
#
# Coordination Sequence:
#
# PCOD9479018 Si02
#       8
#    16   8  16  16   8   8  16  16
#     4  11  21  39  62  91 123 147 183 238 300 357
#     4  12  23  38  64  89 113 157 195 241 293 357
#     4   9  20  33  52  83 119 150 189 236 279 334
#     4  11  20  32  53  84 114 153 194 231 275 342
#     4  10  21  36  58  84 122 158 190 236 289 347
#     4  10  23  42  56  81 117 157 204 245 284 338
#     4  10  20  37  56  78 113 154 196 243 283 322
#     4  11  21  35  53  83 120 153 179 222 282 352
#
# _framework density 17.829391000000001
#
# number of rings (size 3 to 8) (size 9 to 14) (size 15 to 20)
#    0.000    1.538    2.308    4.385    2.154    2.462 
#    0.000    0.000    0.000    5.538    0.000    0.000 
#    0.000    0.000    0.000    0.000    0.000    0.000 
#
# Total GULP energy -290491.350392 kJ/mol
# GULP energy per Si atom -5586.372123 kJ/mol
# Density = 1.778881 g / cm^3
# Si number density = 17.829391 Si / 1000 Ang^3
#
#
#
# Elastic Constant Matrix: (Units=GPa)
#
#
# Indices 1 2 3 4 5 6 
#
# 1 114.0652 63.1894 27.3189 0.0000 0.0000 0.0000
# 2 63.1894 137.0161 46.5248 0.0000 0.0000 0.0000
# 3 27.3189 46.5248 43.7520 0.0000 0.0000 0.0000
# 4 0.0000 0.0000 0.0000 27.0708 0.0000 0.0000
# 5 0.0000 0.0000 0.0000 0.0000 18.9320 0.0000
# 6 0.0000 0.0000 0.0000 0.0000 0.0000 8.3693
#
#
#
# Elastic Compliance Matrix: (Units=1/GPa)
#
#
# Indices 1 2 3 4 5 6 
#
# 1 0.011948 -0.004659 -0.002506 0.000000 0.000000 0.000000
# 2 -0.004659 0.013240 -0.011170 0.000000 0.000000 0.000000
# 3 -0.002506 -0.011170 0.036298 0.000000 0.000000 0.000000
# 4 0.000000 0.000000 0.000000 0.036940 0.000000 0.000000
# 5 0.000000 0.000000 0.000000 0.000000 0.052821 0.000000
# 6 0.000000 0.000000 0.000000 0.000000 0.000000 0.119484
#
#
# Mechanical properties :
#
#
# Convention : Reuss Voigt Hill
#
# Bulk Modulus (GPa) = 40.29547 63.21107 51.75327
# Shear Modulus (GPa) = 15.83911 21.39443 18.61677
#
# Velocity S-wave (km/s) = 2.98379 3.46779 3.23486
# Velocity P-wave (km/s) = 5.87540 7.18083 6.56067
#
# Compressibility (1/GPa) = 0.02481668
#
# Stress axis : x y z
#
# Youngs Moduli (GPa) = 83.69394 75.52842 27.54943
#
# Poissons Ratio (x) = 0.35192 0.06903
# Poissons Ratio (y) = 0.38997 0.30772
# Poissons Ratio (z) = 0.20972 0.84363
#
# Static dielectric constant tensor:
#      x y z
#    x 1.630770 0.000000 0.000000 
#    y 0.000000 1.572910 0.000000 
#    z 0.000000 0.000000 1.610040 
# 
# From -- ./inp_files/48309.got.cif
#   From: 2010.05.17/outbox.cif.g08.bks.cpg/sg64_25_cif.got.tgz:48309.got - 2010.06.03 16:29:19.
