data_PCOD9479420
_publ_section_title
;
Structure prediction by ZEFSAII (Michael W. Deem and Ramdas Pophale) SiO2 
 PCOD9479420
Probable space group: C M C A
;
_chemical_formula_sum "Si O2"
_cell_formula_units_Z 64
_cell_length_a 14.643101
_cell_length_b 18.700589
_cell_length_c 10.370099
_cell_angle_alpha 90.000000
_cell_angle_beta 90.000000
_cell_angle_gamma 90.000000
_cell_volume 2839.692051
_symmetry_space_group_name_H-M "C M C A"
_symmetry_group_IT_number 64
_symmetry_cell_setting 'orthorhombic'
loop_
_space_group_symop_operation_xyz
x,y,z
-x,1/2-y,1/2+z
x,-y,-z
-x,1/2+y,1/2-z
-x,-y,-z
x,1/2+y,1/2-z
-x,y,z
x,1/2-y,1/2+z
1/2+x,1/2+y,z
1/2-x,-y,1/2+z
1/2+x,1/2-y,-z
1/2-x,y,1/2-z
1/2-x,1/2-y,-z
1/2+x,y,1/2-z
1/2-x,1/2+y,z
1/2+x,-y,1/2+z
loop_
_atom_site_type_symbol
_atom_site_label
_atom_site_fract_x
_atom_site_fract_y
_atom_site_fract_z
Si Si1 0.610075 0.560707 0.892453
Si Si2 0.151363 0.713167 0.515278
Si Si3 0.640944 0.683697 0.267573
Si Si4 0.890583 0.521591 0.140497
O O1 0.500000 0.574434 0.890319
O O2 0.659292 0.633539 0.929537
O O3 0.640019 0.530541 0.754610
O O4 0.625104 0.500000 0.000000
O O5 0.250000 0.750000 0.500000
O O6 0.105402 0.763091 0.622630
O O7 0.105811 0.703398 0.375106
O O8 0.750000 0.691781 0.250000
O O9 0.626319 0.602669 0.314041
O O10 0.000000 0.513805 0.134518
O O11 0.853203 0.500000 0.000000
#
# Coordination Sequence:
#
# PCOD9479420 Si02
#       4
#    16  16  16  16
#     4  10  20  39  67  92 120 164 212 260 316 375
#     4  10  22  40  61  87 128 165 209 260 312 379
#     4  10  22  41  58  90 125 167 210 257 316 375
#     4  10  22  41  64  93 127 161 211 267 313 372
#
# _framework density 22.537656999999999
#
# number of rings (size 3 to 8) (size 9 to 14) (size 15 to 20)
#    0.000    2.000    2.500    0.000    3.500    1.000 
#    9.000    0.000    0.000    0.000    0.000    0.000 
#    0.000    0.000    0.000    0.000    0.000    0.000 
#
# Total GULP energy -178859.455564 kJ/mol
# GULP energy per Si atom -5589.357986 kJ/mol
# Density = 2.248636 g / cm^3
# Si number density = 22.537657 Si / 1000 Ang^3
#
#
#
# Elastic Constant Matrix: (Units=GPa)
#
#
# Indices 1 2 3 4 5 6 
#
# 1 80.6423 29.6583 22.1263 0.0000 0.0000 0.0000
# 2 29.6583 204.4178 121.3164 0.0000 0.0000 0.0000
# 3 22.1263 121.3164 266.9074 0.0000 0.0000 0.0000
# 4 0.0000 0.0000 0.0000 49.0880 0.0000 0.0000
# 5 0.0000 0.0000 0.0000 0.0000 -3.8284 0.0000
# 6 0.0000 0.0000 0.0000 0.0000 0.0000 47.6708
#
#
#
# Elastic Compliance Matrix: (Units=1/GPa)
#
#
# Indices 1 2 3 4 5 6 
#
# 1 0.013117 -0.001722 -0.000305 0.000000 0.000000 0.000000
# 2 -0.001722 0.006925 -0.003005 0.000000 0.000000 0.000000
# 3 -0.000305 -0.003005 0.005138 0.000000 0.000000 0.000000
# 4 0.000000 0.000000 0.000000 0.020372 0.000000 0.000000
# 5 0.000000 0.000000 0.000000 0.000000 -0.261204 0.000000
# 6 0.000000 0.000000 0.000000 0.000000 0.000000 0.020977
#
#
# Mechanical properties :
#
#
# Convention : Reuss Voigt Hill
#
# Bulk Modulus (GPa) = 66.15250 99.79663 82.97456
# Shear Modulus (GPa) = -27.84399 43.84383 7.99992
#
# Velocity S-wave (km/s) = -3.51870 4.41541 1.88608
# Velocity P-wave (km/s) = 3.59268 8.38871 6.45282
#
# Compressibility (1/GPa) = 0.01511659
#
# Stress axis : x y z
#
# Youngs Moduli (GPa) = 76.23425 144.40098 194.64113
#
# Poissons Ratio (x) = 0.24872 0.05927
# Poissons Ratio (y) = 0.13131 0.58487
# Poissons Ratio (z) = 0.02322 0.43391
#
# Static dielectric constant tensor:
#      x y z
#    x 1.875750 0.000000 0.000000 
#    y 0.000000 1.681690 0.000000 
#    z 0.000000 0.000000 1.899570 
# 
# From -- ./inp_files/14039.got.cif
#   From: 2010.05.17/outbox.cif.g08.bks.cpg/sg64_8_cif.got.tgz:14039.got - 2010.06.03 16:29:19.
