data_PCOD9479295
_publ_section_title
;
Structure prediction by ZEFSAII (Michael W. Deem and Ramdas Pophale) SiO2 
 PCOD9479295
Probable space group: C M C A
;
_chemical_formula_sum "Si O2"
_cell_formula_units_Z 116
_cell_length_a 19.893888
_cell_length_b 27.991909
_cell_length_c 10.540364
_cell_angle_alpha 90.000000
_cell_angle_beta 90.000000
_cell_angle_gamma 90.000000
_cell_volume 5869.590393
_symmetry_space_group_name_H-M "C M C A"
_symmetry_group_IT_number 64
_symmetry_cell_setting 'orthorhombic'
loop_
_space_group_symop_operation_xyz
x,y,z
-x,1/2-y,1/2+z
x,-y,-z
-x,1/2+y,1/2-z
-x,-y,-z
x,1/2+y,1/2-z
-x,y,z
x,1/2-y,1/2+z
1/2+x,1/2+y,z
1/2-x,-y,1/2+z
1/2+x,1/2-y,-z
1/2-x,y,1/2-z
1/2-x,1/2-y,-z
1/2+x,y,1/2-z
1/2-x,1/2+y,z
1/2+x,-y,1/2+z
loop_
_atom_site_type_symbol
_atom_site_label
_atom_site_fract_x
_atom_site_fract_y
_atom_site_fract_z
Si Si1 0.427880 0.634554 0.636620
Si Si2 0.576826 0.309588 0.102232
Si Si3 0.893914 0.957147 0.205136
Si Si4 0.188289 0.139593 0.438139
Si Si5 0.328500 0.448180 0.744195
Si Si6 0.293730 0.256204 0.628081
Si Si7 0.335752 0.894303 0.495455
Si Si8 0.500000 0.500000 0.000000
O O1 0.500000 0.639127 0.569311
O O2 0.427017 0.670350 0.755058
O O3 0.422873 0.581935 0.698681
O O4 0.364958 0.645493 0.549367
O O5 0.500000 0.296536 0.063660
O O6 0.635153 0.269971 0.105294
O O7 0.606815 0.354191 0.022016
O O8 0.869216 0.003847 0.278197
O O9 0.836695 0.928457 0.127164
O O10 0.942763 0.975596 0.093984
O O11 0.165849 0.093657 0.357941
O O12 0.191439 0.187516 0.355458
O O13 0.263263 0.129989 0.489246
O O14 0.250000 0.460917 0.750000
O O15 0.348194 0.425459 0.879345
O O16 0.250000 0.239140 0.750000
O O17 0.250000 0.250000 0.500000
#
# Coordination Sequence:
#
# PCOD9479295 Si02
#       8
#    16  16  16  16  16  16  16   4
#     4  10  23  43  61  94 130 173 220 277 332 403
#     4  10  23  40  69  99 130 165 218 279 334 395
#     4  11  22  37  65  89 128 169 222 271 327 393
#     4  11  24  41  64  89 136 172 215 266 336 403
#     4  10  22  38  58  92 130 163 212 268 322 388
#     4  12  24  44  74 101 133 178 226 278 339 414
#     4  10  20  38  63  95 122 167 214 270 324 391
#     4  12  20  40  64  94 116 180 226 276 326 400
#
# _framework density 19.762877
#
# number of rings (size 3 to 8) (size 9 to 14) (size 15 to 20)
#    0.000    1.379    3.448    2.069    2.897    2.207 
#    1.241    1.379    0.000    0.000    0.000    0.000 
#    0.000    0.000    0.000    0.000    0.000    0.000 
#
# Total GULP energy -323224.383984 kJ/mol
# GULP energy per Si atom -5572.834207 kJ/mol
# Density = 1.971790 g / cm^3
# Si number density = 19.762877 Si / 1000 Ang^3
#
#
#
# Elastic Constant Matrix: (Units=GPa)
#
#
# Indices 1 2 3 4 5 6 
#
# 1 116.6991 49.0875 33.8893 0.0000 0.0000 0.0000
# 2 49.0875 89.7813 -0.8168 0.0000 0.0000 0.0000
# 3 33.8893 -0.8168 44.7052 0.0000 0.0000 0.0000
# 4 0.0000 0.0000 0.0000 18.1436 0.0000 0.0000
# 5 0.0000 0.0000 0.0000 0.0000 12.5173 0.0000
# 6 0.0000 0.0000 0.0000 0.0000 0.0000 -31.4700
#
#
#
# Elastic Compliance Matrix: (Units=1/GPa)
#
#
# Indices 1 2 3 4 5 6 
#
# 1 0.015752 -0.008722 -0.012100 0.000000 0.000000 0.000000
# 2 -0.008722 0.015970 0.006904 0.000000 0.000000 0.000000
# 3 -0.012100 0.006904 0.031668 0.000000 0.000000 0.000000
# 4 0.000000 0.000000 0.000000 0.055116 0.000000 0.000000
# 5 0.000000 0.000000 0.000000 0.000000 0.079890 0.000000
# 6 0.000000 0.000000 0.000000 0.000000 0.000000 -0.031776
#
#
# Mechanical properties :
#
#
# Convention : Reuss Voigt Hill
#
# Bulk Modulus (GPa) = 28.12789 46.16728 37.14759
# Shear Modulus (GPa) = 24.23579 11.10655 17.67117
#
# Velocity S-wave (km/s) = 3.50570 2.37321 2.99349
# Velocity P-wave (km/s) = 5.53626 5.56065 5.54847
#
# Compressibility (1/GPa) = 0.03555190
#
# Stress axis : x y z
#
# Youngs Moduli (GPa) = 63.48464 62.61781 31.57805
#
# Poissons Ratio (x) = 0.54617 0.38210
# Poissons Ratio (y) = 0.55373 -0.21801
# Poissons Ratio (z) = 0.76818 -0.43230
#
# Static dielectric constant tensor:
#      x y z
#    x 1.715060 0.000000 0.000000 
#    y 0.000000 1.713320 0.000000 
#    z 0.000000 0.000000 1.686540 
# 
# From -- ./inp_files/16482.got.cif
#   From: 2010.05.17/outbox.cif.g08.bks.cpg/sg64_9_cif.got.tgz:16482.got - 2010.06.03 16:29:19.
