data_PCOD9479583
_publ_section_title
;
Structure prediction by ZEFSAII (Michael W. Deem and Ramdas Pophale) SiO2 
 PCOD9479583
Probable space group: C M C A
;
_chemical_formula_sum "Si O2"
_cell_formula_units_Z 64
_cell_length_a 15.309373
_cell_length_b 12.831557
_cell_length_c 12.676501
_cell_angle_alpha 90.000000
_cell_angle_beta 90.000000
_cell_angle_gamma 90.000000
_cell_volume 2490.211056
_symmetry_space_group_name_H-M "C M C A"
_symmetry_group_IT_number 64
_symmetry_cell_setting 'orthorhombic'
loop_
_space_group_symop_operation_xyz
x,y,z
-x,1/2-y,1/2+z
x,-y,-z
-x,1/2+y,1/2-z
-x,-y,-z
x,1/2+y,1/2-z
-x,y,z
x,1/2-y,1/2+z
1/2+x,1/2+y,z
1/2-x,-y,1/2+z
1/2+x,1/2-y,-z
1/2-x,y,1/2-z
1/2-x,1/2-y,-z
1/2+x,y,1/2-z
1/2-x,1/2+y,z
1/2+x,-y,1/2+z
loop_
_atom_site_type_symbol
_atom_site_label
_atom_site_fract_x
_atom_site_fract_y
_atom_site_fract_z
Si Si1 0.280004 0.380968 0.898840
Si Si2 0.405391 0.975643 0.876501
Si Si3 0.309096 0.608000 0.857620
Si Si4 0.596522 0.213100 0.792571
O O1 0.182830 0.409949 0.856442
O O2 0.333758 0.486646 0.871165
O O3 0.331703 0.285317 0.848541
O O4 0.272569 0.368968 0.025517
O O5 0.500000 0.928454 0.848313
O O6 0.403422 0.907674 0.169676
O O7 0.404259 0.000000 0.000000
O O8 0.250000 0.615079 0.750000
O O9 0.382659 0.692524 0.830764
O O10 0.500000 0.254241 0.814173
#
# Coordination Sequence:
#
# PCOD9479583 Si02
#       4
#    16  16  16  16
#     4  11  24  48  79 112 154 215 257 325 398 473
#     4  10  20  43  75 111 152 196 256 321 386 465
#     4  11  23  47  75 114 154 202 263 323 390 471
#     4  11  26  48  76 113 155 205 267 328 396 471
#
# _framework density 25.700631999999999
#
# number of rings (size 3 to 8) (size 9 to 14) (size 15 to 20)
#    0.000    1.250    5.000    0.000    0.000    7.000 
#    9.000    2.500    0.000    4.500    0.000    0.000 
#    0.000    0.000    0.000    0.000    0.000    0.000 
#
# Total GULP energy -178699.782780 kJ/mol
# GULP energy per Si atom -5584.368212 kJ/mol
# Density = 2.564214 g / cm^3
# Si number density = 25.700632 Si / 1000 Ang^3
#
#
#
# Elastic Constant Matrix: (Units=GPa)
#
#
# Indices 1 2 3 4 5 6 
#
# 1 219.0544 81.5341 39.8460 0.0000 0.0000 0.0000
# 2 81.5341 168.1105 69.4577 0.0000 0.0000 0.0000
# 3 39.8460 69.4577 135.9463 0.0000 0.0000 0.0000
# 4 0.0000 0.0000 0.0000 39.9798 0.0000 0.0000
# 5 0.0000 0.0000 0.0000 0.0000 -8.8227 0.0000
# 6 0.0000 0.0000 0.0000 0.0000 0.0000 38.8412
#
#
#
# Elastic Compliance Matrix: (Units=1/GPa)
#
#
# Indices 1 2 3 4 5 6 
#
# 1 0.005582 -0.002575 -0.000321 0.000000 0.000000 0.000000
# 2 -0.002575 0.008728 -0.003705 0.000000 0.000000 0.000000
# 3 -0.000321 -0.003705 0.009343 0.000000 0.000000 0.000000
# 4 0.000000 0.000000 0.000000 0.025013 0.000000 0.000000
# 5 0.000000 0.000000 0.000000 0.000000 -0.113344 0.000000
# 6 0.000000 0.000000 0.000000 0.000000 0.000000 0.025746
#
#
# Mechanical properties :
#
#
# Convention : Reuss Voigt Hill
#
# Bulk Modulus (GPa) = 95.67148 100.53187 98.10167
# Shear Modulus (GPa) = -224.71966 36.15122 -94.28422
#
# Velocity S-wave (km/s) = -9.36094 3.75457 -6.06343
# Velocity P-wave (km/s) = 8.91797 7.61559 3.28123
#
# Compressibility (1/GPa) = 0.01045244
#
# Stress axis : x y z
#
# Youngs Moduli (GPa) = 179.15642 114.57619 107.03737
#
# Poissons Ratio (x) = 0.29500 0.03431
# Poissons Ratio (y) = 0.46128 0.39653
# Poissons Ratio (z) = 0.05742 0.42446
#
# Static dielectric constant tensor:
#      x y z
#    x 2.263780 0.000000 0.000000 
#    y 0.000000 2.103100 0.000000 
#    z 0.000000 0.000000 2.094860 
# 
# From -- ./inp_files/15459.got.cif
#   From: 2010.05.17/outbox.cif.g08.bks.cpg/sg64_8_cif.got.tgz:15459.got - 2010.06.03 16:29:19.
