data_PCOD9479504
_publ_section_title
;
Structure prediction by ZEFSAII (Michael W. Deem and Ramdas Pophale) SiO2 
 PCOD9479504
Probable space group: C M C A
;
_chemical_formula_sum "Si O2"
_cell_formula_units_Z 112
_cell_length_a 24.689041
_cell_length_b 15.079779
_cell_length_c 13.096455
_cell_angle_alpha 90.000000
_cell_angle_beta 90.000000
_cell_angle_gamma 90.000000
_cell_volume 4875.879372
_symmetry_space_group_name_H-M "C M C A"
_symmetry_group_IT_number 64
_symmetry_cell_setting 'orthorhombic'
loop_
_space_group_symop_operation_xyz
x,y,z
-x,1/2-y,1/2+z
x,-y,-z
-x,1/2+y,1/2-z
-x,-y,-z
x,1/2+y,1/2-z
-x,y,z
x,1/2-y,1/2+z
1/2+x,1/2+y,z
1/2-x,-y,1/2+z
1/2+x,1/2-y,-z
1/2-x,y,1/2-z
1/2-x,1/2-y,-z
1/2+x,y,1/2-z
1/2-x,1/2+y,z
1/2+x,-y,1/2+z
loop_
_atom_site_type_symbol
_atom_site_label
_atom_site_fract_x
_atom_site_fract_y
_atom_site_fract_z
Si Si1 0.786612 0.458049 0.651592
Si Si2 0.435483 0.274065 0.864296
Si Si3 0.565389 0.407124 0.276399
Si Si4 0.802826 0.166327 0.448580
Si Si5 0.384886 0.596715 0.288422
Si Si6 0.261497 0.849855 0.369682
Si Si7 0.933767 0.402798 0.458875
O O1 0.750000 0.478006 0.750000
O O2 0.750208 0.387849 0.591626
O O3 0.840627 0.418233 0.698612
O O4 0.791185 0.556763 0.606837
O O5 0.500000 0.268730 0.876790
O O6 0.415532 0.174800 0.844929
O O7 0.424086 0.331286 0.762325
O O8 0.414649 0.326609 0.963592
O O9 0.500000 0.409932 0.278412
O O10 0.587291 0.502708 0.307235
O O11 0.582095 0.390675 0.158507
O O12 0.854289 0.128280 0.389794
O O13 0.795522 0.152632 0.569007
O O14 0.794742 0.267138 0.413636
O O15 0.250000 0.835867 0.250000
O O16 0.917181 0.500000 0.500000
O O17 0.000000 0.402722 0.460997
#
# Coordination Sequence:
#
# PCOD9479504 Si02
#       7
#    16  16  16  16  16  16  16
#     4   9  20  38  60  88 123 164 206 265 325 397
#     4  10  21  38  64  97 140 183 230 296 350 411
#     4  10  21  38  65 100 138 182 228 288 356 411
#     4  10  22  40  61  96 128 168 213 277 341 403
#     4  11  21  37  64  96 136 169 230 281 341 415
#     4  10  20  40  68  85 123 174 211 257 333 408
#     4   9  16  34  61  90 126 174 230 286 346 405
#
# _framework density 22.970213999999999
#
# number of rings (size 3 to 8) (size 9 to 14) (size 15 to 20)
#    0.000    2.143    1.429    2.143    2.000    0.000 
#    7.714    1.429    9.429    0.000    0.000    5.000 
#    0.000    0.000    0.000    0.000    0.000    0.000 
#
# Total GULP energy -313079.942321 kJ/mol
# GULP energy per Si atom -5590.713256 kJ/mol
# Density = 2.291793 g / cm^3
# Si number density = 22.970214 Si / 1000 Ang^3
#
#
#
# Elastic Constant Matrix: (Units=GPa)
#
#
# Indices 1 2 3 4 5 6 
#
# 1 40.2576 24.5536 23.3188 0.0000 0.0000 0.0000
# 2 24.5536 143.2105 32.5361 0.0000 0.0000 0.0000
# 3 23.3188 32.5361 97.4070 0.0000 0.0000 0.0000
# 4 0.0000 0.0000 0.0000 29.1701 0.0000 0.0000
# 5 0.0000 0.0000 0.0000 0.0000 26.7983 0.0000
# 6 0.0000 0.0000 0.0000 0.0000 0.0000 -38.3137
#
#
#
# Elastic Compliance Matrix: (Units=1/GPa)
#
#
# Indices 1 2 3 4 5 6 
#
# 1 0.030721 -0.003892 -0.006055 0.000000 0.000000 0.000000
# 2 -0.003892 0.008049 -0.001757 0.000000 0.000000 0.000000
# 3 -0.006055 -0.001757 0.012302 0.000000 0.000000 0.000000
# 4 0.000000 0.000000 0.000000 0.034282 0.000000 0.000000
# 5 0.000000 0.000000 0.000000 0.000000 0.037316 0.000000
# 6 0.000000 0.000000 0.000000 0.000000 0.000000 -0.026100
#
#
# Mechanical properties :
#
#
# Convention : Reuss Voigt Hill
#
# Bulk Modulus (GPa) = 36.14530 49.07690 42.61110
# Shear Modulus (GPa) = 38.70046 16.89537 27.79791
#
# Velocity S-wave (km/s) = 4.10910 2.71501 3.48253
# Velocity P-wave (km/s) = 6.18731 5.58930 5.89589
#
# Compressibility (1/GPa) = 0.02766611
#
# Stress axis : x y z
#
# Youngs Moduli (GPa) = 32.55149 124.23739 81.28434
#
# Poissons Ratio (x) = 0.48348 0.49214
# Poissons Ratio (y) = 0.12668 0.14281
# Poissons Ratio (z) = 0.19708 0.21828
#
# Static dielectric constant tensor:
#      x y z
#    x 1.912290 0.000000 0.000000 
#    y 0.000000 1.869820 0.000000 
#    z 0.000000 0.000000 1.832500 
# 
# From -- ./inp_files/28058.got.cif
#   From: 2010.05.17/outbox.cif.g08.bks.cpg/sg64_15_cif.got.tgz:28058.got - 2010.06.03 16:29:19.
