data_PCOD9479036
_publ_section_title
;
Structure prediction by ZEFSAII (Michael W. Deem and Ramdas Pophale) SiO2 
 PCOD9479036
Probable space group: C M C A
;
_chemical_formula_sum "Si O2"
_cell_formula_units_Z 96
_cell_length_a 7.748311
_cell_length_b 31.480340
_cell_length_c 19.545734
_cell_angle_alpha 90.000000
_cell_angle_beta 90.000000
_cell_angle_gamma 90.000000
_cell_volume 4767.584975
_symmetry_space_group_name_H-M "C M C A"
_symmetry_group_IT_number 64
_symmetry_cell_setting 'orthorhombic'
loop_
_space_group_symop_operation_xyz
x,y,z
-x,1/2-y,1/2+z
x,-y,-z
-x,1/2+y,1/2-z
-x,-y,-z
x,1/2+y,1/2-z
-x,y,z
x,1/2-y,1/2+z
1/2+x,1/2+y,z
1/2-x,-y,1/2+z
1/2+x,1/2-y,-z
1/2-x,y,1/2-z
1/2-x,1/2-y,-z
1/2+x,y,1/2-z
1/2-x,1/2+y,z
1/2+x,-y,1/2+z
loop_
_atom_site_type_symbol
_atom_site_label
_atom_site_fract_x
_atom_site_fract_y
_atom_site_fract_z
Si Si1 0.794060 0.382773 0.569768
Si Si2 0.709328 0.865884 0.086945
Si Si3 0.291997 0.810474 0.671065
Si Si4 0.205108 0.522130 0.431047
Si Si5 0.207606 0.784960 0.329020
Si Si6 0.705521 0.448477 0.329709
O O1 0.764226 0.370219 0.491274
O O2 0.724165 0.346831 0.620754
O O3 0.723970 0.430518 0.580032
O O4 0.000000 0.384374 0.581937
O O5 0.500000 0.865894 0.088947
O O6 0.771427 0.822448 0.122205
O O7 0.771062 0.906761 0.130129
O O8 0.500000 0.809072 0.664809
O O9 0.250000 0.819730 0.750000
O O10 0.227303 0.762658 0.655445
O O11 0.276586 0.500000 0.500000
O O12 0.230168 0.490538 0.367968
O O13 0.000000 0.527142 0.442132
O O14 0.250000 0.794520 0.250000
O O15 0.000000 0.784065 0.334870
O O16 0.500000 0.448444 0.335867
O O17 0.750000 0.447127 0.250000
#
# Coordination Sequence:
#
# PCOD9479036 Si02
#       6
#    16  16  16  16  16  16
#     4  10  21  36  56  81 108 141 179 220 269 322
#     4  10  21  35  53  80 111 142 177 219 266 319
#     4   9  19  36  56  78 106 139 178 222 267 317
#     4  10  20  37  58  78 106 144 182 222 270 322
#     4   9  18  34  54  77 107 142 178 219 266 316
#     4  11  23  37  56  82 111 142 181 225 269 320
#
# _framework density 20.135981000000001
#
# number of rings (size 3 to 8) (size 9 to 14) (size 15 to 20)
#    0.000    2.167    1.667    1.000    0.000    4.333 
#    0.000    1.667    0.000    0.000    0.000    0.000 
#    0.000    0.000    0.000    0.000    0.000    0.000 
#
# Total GULP energy -268022.595409 kJ/mol
# GULP energy per Si atom -5583.804071 kJ/mol
# Density = 2.009015 g / cm^3
# Si number density = 20.135981 Si / 1000 Ang^3
#
#
#
# Elastic Constant Matrix: (Units=GPa)
#
#
# Indices 1 2 3 4 5 6 
#
# 1 21.6260 2.3702 -20.4246 0.0000 0.0000 0.0000
# 2 2.3702 216.7528 121.4730 0.0000 0.0000 0.0000
# 3 -20.4246 121.4730 126.4905 0.0000 0.0000 0.0000
# 4 0.0000 0.0000 0.0000 40.1177 0.0000 0.0000
# 5 0.0000 0.0000 0.0000 0.0000 23.5231 0.0000
# 6 0.0000 0.0000 0.0000 0.0000 0.0000 -15.6520
#
#
#
# Elastic Compliance Matrix: (Units=1/GPa)
#
#
# Indices 1 2 3 4 5 6 
#
# 1 0.074077 -0.016270 0.027586 0.000000 0.000000 0.000000
# 2 -0.016270 0.013564 -0.015653 0.000000 0.000000 0.000000
# 3 0.027586 -0.015653 0.027392 0.000000 0.000000 0.000000
# 4 0.000000 0.000000 0.000000 0.024927 0.000000 0.000000
# 5 0.000000 0.000000 0.000000 0.000000 0.042511 0.000000
# 6 0.000000 0.000000 0.000000 0.000000 0.000000 -0.063890
#
#
# Mechanical properties :
#
#
# Convention : Reuss Voigt Hill
#
# Bulk Modulus (GPa) = 9.40214 63.52295 36.46255
# Shear Modulus (GPa) = 30.73019 27.02782 28.87901
#
# Velocity S-wave (km/s) = 3.91081 3.66767 3.79119
# Velocity P-wave (km/s) = 5.00720 7.03926 6.10833
#
# Compressibility (1/GPa) = 0.10635878
#
# Stress axis : x y z
#
# Youngs Moduli (GPa) = 13.49950 73.72727 36.50741
#
# Poissons Ratio (x) = 1.19951 -1.00708
# Poissons Ratio (y) = 0.21963 0.57143
# Poissons Ratio (z) = -0.37239 1.15402
#
# Static dielectric constant tensor:
#      x y z
#    x 1.765900 0.000000 0.000000 
#    y 0.000000 1.736220 0.000000 
#    z 0.000000 0.000000 1.631150 
# 
# From -- ./inp_files/37025.got.cif
#   From: 2010.05.17/outbox.cif.g08.bks.cpg/sg64_19_cif.got.tgz:37025.got - 2010.06.03 16:29:19.
