data_PCOD9479150
_publ_section_title
;
Structure prediction by ZEFSAII (Michael W. Deem and Ramdas Pophale) SiO2 
 PCOD9479150
Probable space group: C M C A
;
_chemical_formula_sum "Si O2"
_cell_formula_units_Z 112
_cell_length_a 29.826039
_cell_length_b 12.165486
_cell_length_c 14.635463
_cell_angle_alpha 90.000000
_cell_angle_beta 90.000000
_cell_angle_gamma 90.000000
_cell_volume 5310.452282
_symmetry_space_group_name_H-M "C M C A"
_symmetry_group_IT_number 64
_symmetry_cell_setting 'orthorhombic'
loop_
_space_group_symop_operation_xyz
x,y,z
-x,1/2-y,1/2+z
x,-y,-z
-x,1/2+y,1/2-z
-x,-y,-z
x,1/2+y,1/2-z
-x,y,z
x,1/2-y,1/2+z
1/2+x,1/2+y,z
1/2-x,-y,1/2+z
1/2+x,1/2-y,-z
1/2-x,y,1/2-z
1/2-x,1/2-y,-z
1/2+x,y,1/2-z
1/2-x,1/2+y,z
1/2+x,-y,1/2+z
loop_
_atom_site_type_symbol
_atom_site_label
_atom_site_fract_x
_atom_site_fract_y
_atom_site_fract_z
Si Si1 0.089204 0.964969 0.601511
Si Si2 0.275751 0.730928 0.655349
Si Si3 0.120000 0.202052 0.653909
Si Si4 0.716715 0.877710 0.478918
Si Si5 0.374115 0.759033 0.443446
Si Si6 0.448488 0.564932 0.904211
Si Si7 0.549398 0.635614 0.234054
O O1 0.124936 0.865953 0.591989
O O2 0.051702 0.909275 0.663391
O O3 0.074845 0.000000 0.500000
O O4 0.107797 0.073788 0.649782
O O5 0.250000 0.748483 0.750000
O O6 0.328033 0.717214 0.677576
O O7 0.270372 0.824286 0.576746
O O8 0.255986 0.628535 0.596497
O O9 0.114619 0.248431 0.551018
O O10 0.086615 0.273212 0.714896
O O11 0.674956 0.810720 0.437687
O O12 0.701888 0.000000 0.500000
O O13 0.411649 0.839360 0.401684
O O14 0.500000 0.606833 0.896359
O O15 0.441704 0.471324 0.828369
O O16 0.444587 0.500000 0.000000
O O17 0.500000 0.678684 0.210936
#
# Coordination Sequence:
#
# PCOD9479150 Si02
#       7
#    16  16  16  16  16  16  16
#     4  10  25  45  68  96 136 187 221 278 344 413
#     4  10  24  43  65  98 135 178 227 275 340 405
#     4  10  23  45  67  97 132 173 227 278 333 406
#     4  10  23  42  67 101 138 180 227 287 333 404
#     4  10  21  41  69  96 134 177 224 274 341 402
#     4  10  20  37  63  97 136 176 223 280 339 399
#     4  11  25  42  66  99 134 175 229 285 335 405
#
# _framework density 21.090481
#
# number of rings (size 3 to 8) (size 9 to 14) (size 15 to 20)
#    0.000    1.857    1.429    0.429    6.000    6.000 
#    0.000    2.857    0.000    0.000    0.000    0.000 
#    0.000    0.000    0.000    0.000    0.000    0.000 
#
# Total GULP energy -312801.549084 kJ/mol
# GULP energy per Si atom -5585.741948 kJ/mol
# Density = 2.104248 g / cm^3
# Si number density = 21.090481 Si / 1000 Ang^3
#
#
#
# Elastic Constant Matrix: (Units=GPa)
#
#
# Indices 1 2 3 4 5 6 
#
# 1 150.3335 74.2115 58.8213 0.0000 0.0000 0.0000
# 2 74.2115 106.5391 43.4422 0.0000 0.0000 0.0000
# 3 58.8213 43.4422 104.0765 0.0000 0.0000 0.0000
# 4 0.0000 0.0000 0.0000 23.4655 0.0000 0.0000
# 5 0.0000 0.0000 0.0000 0.0000 10.0988 0.0000
# 6 0.0000 0.0000 0.0000 0.0000 0.0000 16.8861
#
#
#
# Elastic Compliance Matrix: (Units=1/GPa)
#
#
# Indices 1 2 3 4 5 6 
#
# 1 0.011211 -0.006298 -0.003708 0.000000 0.000000 0.000000
# 2 -0.006298 0.014849 -0.002639 0.000000 0.000000 0.000000
# 3 -0.003708 -0.002639 0.012805 0.000000 0.000000 0.000000
# 4 0.000000 0.000000 0.000000 0.042616 0.000000 0.000000
# 5 0.000000 0.000000 0.000000 0.000000 0.099022 0.000000
# 6 0.000000 0.000000 0.000000 0.000000 0.000000 0.059220
#
#
# Mechanical properties :
#
#
# Convention : Reuss Voigt Hill
#
# Bulk Modulus (GPa) = 73.65217 79.32213 76.48715
# Shear Modulus (GPa) = 18.55029 22.38835 20.46932
#
# Velocity S-wave (km/s) = 2.96895 3.26166 3.11874
# Velocity P-wave (km/s) = 6.83745 7.20254 7.02237
#
# Compressibility (1/GPa) = 0.01357733
#
# Stress axis : x y z
#
# Youngs Moduli (GPa) = 89.19500 67.34499 78.09278
#
# Poissons Ratio (x) = 0.42411 0.28955
# Poissons Ratio (y) = 0.56172 0.20607
# Poissons Ratio (z) = 0.33071 0.17771
#
# Static dielectric constant tensor:
#      x y z
#    x 1.748180 0.000000 0.000000 
#    y 0.000000 1.744900 0.000000 
#    z 0.000000 0.000000 1.776750 
# 
# From -- ./inp_files/28386.got.cif
#   From: 2010.05.17/outbox.cif.g08.bks.cpg/sg64_15_cif.got.tgz:28386.got - 2010.06.03 16:29:19.
