data_PCOD9479495
_publ_section_title
;
Structure prediction by ZEFSAII (Michael W. Deem and Ramdas Pophale) SiO2 
 PCOD9479495
Probable space group: C M C A
;
_chemical_formula_sum "Si O2"
_cell_formula_units_Z 88
_cell_length_a 30.388660
_cell_length_b 9.181739
_cell_length_c 15.613240
_cell_angle_alpha 90.000000
_cell_angle_beta 90.000000
_cell_angle_gamma 90.000000
_cell_volume 4356.417852
_symmetry_space_group_name_H-M "C M C A"
_symmetry_group_IT_number 64
_symmetry_cell_setting 'orthorhombic'
loop_
_space_group_symop_operation_xyz
x,y,z
-x,1/2-y,1/2+z
x,-y,-z
-x,1/2+y,1/2-z
-x,-y,-z
x,1/2+y,1/2-z
-x,y,z
x,1/2-y,1/2+z
1/2+x,1/2+y,z
1/2-x,-y,1/2+z
1/2+x,1/2-y,-z
1/2-x,y,1/2-z
1/2-x,1/2-y,-z
1/2+x,y,1/2-z
1/2-x,1/2+y,z
1/2+x,-y,1/2+z
loop_
_atom_site_type_symbol
_atom_site_label
_atom_site_fract_x
_atom_site_fract_y
_atom_site_fract_z
Si Si1 0.732296 0.515068 0.904020
Si Si2 0.655865 0.188032 0.345487
Si Si3 0.431698 0.439590 0.765713
Si Si4 0.619176 0.991102 0.095255
Si Si5 0.500000 0.684123 0.783576
Si Si6 0.803925 0.682285 0.160185
O O1 0.688853 0.415167 0.896973
O O2 0.768991 0.448764 0.841766
O O3 0.719122 0.678612 0.881517
O O4 0.750322 0.500000 0.000000
O O5 0.611122 0.103743 0.320237
O O6 0.644127 0.337885 0.391995
O O7 0.679851 0.221010 0.255109
O O8 0.415425 0.496036 0.672366
O O9 0.461341 0.564147 0.806990
O O10 0.461773 0.300539 0.747082
O O11 0.653839 0.121921 0.109390
O O12 0.599975 0.000000 0.000000
#
# Coordination Sequence:
#
# PCOD9479495 Si02
#       6
#    16  16  16  16   8  16
#     4  12  24  39  60  90 127 164 202 259 309 350
#     4  11  23  40  61  91 121 164 212 248 301 372
#     4  10  21  39  68  91 122 161 210 254 311 373
#     4  11  22  40  63  93 128 162 204 259 315 368
#     4  10  20  40  66  93 118 161 206 266 302 380
#     4  11  23  39  61  87 123 168 213 247 294 366
#
# _framework density 20.200082999999999
#
# number of rings (size 3 to 8) (size 9 to 14) (size 15 to 20)
#    0.000    1.091    1.818    6.000    2.545    1.455 
#    0.000    1.818    0.000    1.091    0.000    0.000 
#    0.000    0.000    0.000    0.000    0.000    0.000 
#
# Total GULP energy -245006.922545 kJ/mol
# GULP energy per Si atom -5568.339149 kJ/mol
# Density = 2.015411 g / cm^3
# Si number density = 20.200083 Si / 1000 Ang^3
#
#
#
# Elastic Constant Matrix: (Units=GPa)
#
#
# Indices 1 2 3 4 5 6 
#
# 1 76.2039 -8.0837 -1.6223 0.0000 0.0000 0.0000
# 2 -8.0837 49.4628 -21.4729 0.0000 0.0000 0.0000
# 3 -1.6223 -21.4729 53.8896 0.0000 0.0000 0.0000
# 4 0.0000 0.0000 0.0000 17.2829 0.0000 0.0000
# 5 0.0000 0.0000 0.0000 0.0000 4.6387 0.0000
# 6 0.0000 0.0000 0.0000 0.0000 0.0000 29.1042
#
#
#
# Elastic Compliance Matrix: (Units=1/GPa)
#
#
# Indices 1 2 3 4 5 6 
#
# 1 0.013460 0.002873 0.001550 0.000000 0.000000 0.000000
# 2 0.002873 0.025059 0.010072 0.000000 0.000000 0.000000
# 3 0.001550 0.010072 0.022616 0.000000 0.000000 0.000000
# 4 0.000000 0.000000 0.000000 0.057861 0.000000 0.000000
# 5 0.000000 0.000000 0.000000 0.000000 0.215579 0.000000
# 6 0.000000 0.000000 0.000000 0.000000 0.000000 0.034359
#
#
# Mechanical properties :
#
#
# Convention : Reuss Voigt Hill
#
# Bulk Modulus (GPa) = 11.09587 13.02205 12.05896
# Shear Modulus (GPa) = 13.51396 24.25417 18.88407
#
# Velocity S-wave (km/s) = 2.58932 3.46887 3.06085
# Velocity P-wave (km/s) = 3.80057 4.74390 4.29819
#
# Compressibility (1/GPa) = 0.09012366
#
# Stress axis : x y z
#
# Youngs Moduli (GPa) = 74.29197 39.90588 44.21602
#
# Poissons Ratio (x) = -0.11464 -0.06853
# Poissons Ratio (y) = -0.21342 -0.44532
# Poissons Ratio (z) = -0.11514 -0.40191
#
# Static dielectric constant tensor:
#      x y z
#    x 1.704680 0.000000 0.000000 
#    y 0.000000 1.710130 0.000000 
#    z 0.000000 0.000000 1.709720 
# 
# From -- ./inp_files/35690.got.cif
#   From: 2010.05.17/outbox.cif.g08.bks.cpg/sg64_18_cif.got.tgz:35690.got - 2010.06.03 16:29:19.
