data_PCOD9479970
_publ_section_title
;
Structure prediction by ZEFSAII (Michael W. Deem and Ramdas Pophale) SiO2 
 PCOD9479970
Probable space group: C M C A
;
_chemical_formula_sum "Si O2"
_cell_formula_units_Z 64
_cell_length_a 35.708668
_cell_length_b 5.382801
_cell_length_c 13.702132
_cell_angle_alpha 90.000000
_cell_angle_beta 90.000000
_cell_angle_gamma 90.000000
_cell_volume 2633.723155
_symmetry_space_group_name_H-M "C M C A"
_symmetry_group_IT_number 64
_symmetry_cell_setting 'orthorhombic'
loop_
_space_group_symop_operation_xyz
x,y,z
-x,1/2-y,1/2+z
x,-y,-z
-x,1/2+y,1/2-z
-x,-y,-z
x,1/2+y,1/2-z
-x,y,z
x,1/2-y,1/2+z
1/2+x,1/2+y,z
1/2-x,-y,1/2+z
1/2+x,1/2-y,-z
1/2-x,y,1/2-z
1/2-x,1/2-y,-z
1/2+x,y,1/2-z
1/2-x,1/2+y,z
1/2+x,-y,1/2+z
loop_
_atom_site_type_symbol
_atom_site_label
_atom_site_fract_x
_atom_site_fract_y
_atom_site_fract_z
Si Si1 0.734391 0.046281 0.385084
Si Si2 0.618784 0.865625 0.856585
Si Si3 0.149220 0.868901 0.864427
Si Si4 0.457968 0.748646 0.935059
O O1 0.762459 0.261686 0.347530
O O2 0.693501 0.162921 0.370288
O O3 0.741042 0.000000 0.500000
O O4 0.640552 0.639581 0.906874
O O5 0.635334 0.892507 0.747844
O O6 0.575492 0.786655 0.858852
O O7 0.626377 0.133505 0.902833
O O8 0.500000 0.725345 0.893205
O O9 0.451470 0.500000 0.000000
O O10 0.457407 0.000000 0.000000
#
# Coordination Sequence:
#
# PCOD9479970 Si02
#       4
#    16  16  16  16
#     4  10  21  38  59  84 115 152 195 244 296 350
#     4  10  21  38  56  85 120 154 196 242 296 356
#     4  10  21  38  58  85 120 155 198 243 296 358
#     4  10  21  38  61  88 118 154 196 243 295 352
#
# _framework density 24.3002
#
# number of rings (size 3 to 8) (size 9 to 14) (size 15 to 20)
#    0.000    2.000    0.000    3.000    0.000    3.000 
#    0.000   20.000    0.000    0.000    0.000    0.000 
#    0.000    0.000    0.000    0.000    0.000    0.000 
#
# Total GULP energy -178777.077597 kJ/mol
# GULP energy per Si atom -5586.783675 kJ/mol
# Density = 2.424489 g / cm^3
# Si number density = 24.300200 Si / 1000 Ang^3
#
#
#
# Elastic Constant Matrix: (Units=GPa)
#
#
# Indices 1 2 3 4 5 6 
#
# 1 88.8895 36.1249 -37.2286 0.0000 0.0000 0.0000
# 2 36.1249 198.3247 17.4248 0.0000 0.0000 0.0000
# 3 -37.2286 17.4248 56.9946 0.0000 0.0000 0.0000
# 4 0.0000 0.0000 0.0000 4.5618 0.0000 0.0000
# 5 0.0000 0.0000 0.0000 0.0000 34.7875 0.0000
# 6 0.0000 0.0000 0.0000 0.0000 0.0000 45.7707
#
#
#
# Elastic Compliance Matrix: (Units=1/GPa)
#
#
# Indices 1 2 3 4 5 6 
#
# 1 0.018911 -0.004655 0.013776 0.000000 0.000000 0.000000
# 2 -0.004655 0.006327 -0.004975 0.000000 0.000000 0.000000
# 3 0.013776 -0.004975 0.028065 0.000000 0.000000 0.000000
# 4 0.000000 0.000000 0.000000 0.219211 0.000000 0.000000
# 5 0.000000 0.000000 0.000000 0.000000 0.028746 0.000000
# 6 0.000000 0.000000 0.000000 0.000000 0.000000 0.021848
#
#
# Mechanical properties :
#
#
# Convention : Reuss Voigt Hill
#
# Bulk Modulus (GPa) = 16.23497 41.87232 29.05364
# Shear Modulus (GPa) = 14.90983 38.88319 26.89651
#
# Velocity S-wave (km/s) = 2.47972 4.00449 3.33053
# Velocity P-wave (km/s) = 3.85930 6.21690 5.17417
#
# Compressibility (1/GPa) = 0.06159543
#
# Stress axis : x y z
#
# Youngs Moduli (GPa) = 52.87809 158.04596 35.63157
#
# Poissons Ratio (x) = 0.73572 -0.49086
# Poissons Ratio (y) = 0.24615 0.17727
# Poissons Ratio (z) = -0.72845 0.78629
#
# Static dielectric constant tensor:
#      x y z
#    x 1.888670 0.000000 0.000000 
#    y 0.000000 2.025790 0.000000 
#    z 0.000000 0.000000 1.770190 
# 
# From -- ./inp_files/42003.got.cif
#   From: 2010.05.17/outbox.cif.g08.bks.cpg/sg64_22_cif.got.tgz:42003.got - 2010.06.03 16:29:19.
