data_PCOD9479914
_publ_section_title
;
Structure prediction by ZEFSAII (Michael W. Deem and Ramdas Pophale) SiO2 
 PCOD9479914
Probable space group: C M C A
;
_chemical_formula_sum "Si O2"
_cell_formula_units_Z 72
_cell_length_a 9.870508
_cell_length_b 24.126979
_cell_length_c 14.004201
_cell_angle_alpha 90.000000
_cell_angle_beta 90.000000
_cell_angle_gamma 90.000000
_cell_volume 3335.037999
_symmetry_space_group_name_H-M "C M C A"
_symmetry_group_IT_number 64
_symmetry_cell_setting 'orthorhombic'
loop_
_space_group_symop_operation_xyz
x,y,z
-x,1/2-y,1/2+z
x,-y,-z
-x,1/2+y,1/2-z
-x,-y,-z
x,1/2+y,1/2-z
-x,y,z
x,1/2-y,1/2+z
1/2+x,1/2+y,z
1/2-x,-y,1/2+z
1/2+x,1/2-y,-z
1/2-x,y,1/2-z
1/2-x,1/2-y,-z
1/2+x,y,1/2-z
1/2-x,1/2+y,z
1/2+x,-y,1/2+z
loop_
_atom_site_type_symbol
_atom_site_label
_atom_site_fract_x
_atom_site_fract_y
_atom_site_fract_z
Si Si1 0.250000 0.943111 0.750000
Si Si2 0.152666 0.370802 0.395859
Si Si3 0.648580 0.347028 0.876499
Si Si4 0.161454 0.747811 0.097067
Si Si5 0.345083 0.528284 0.598725
O O1 0.337813 0.902352 0.684547
O O2 0.334757 0.982295 0.819674
O O3 0.156092 0.363344 0.511479
O O4 0.179152 0.308702 0.357437
O O5 0.257546 0.418563 0.372685
O O6 0.000000 0.387178 0.368337
O O7 0.500000 0.320766 0.860867
O O8 0.771093 0.305151 0.853714
O O9 0.000000 0.740591 0.080722
O O10 0.250000 0.750000 0.000000
O O11 0.294653 0.500000 0.500000
O O12 0.500000 0.545373 0.582279
#
# Coordination Sequence:
#
# PCOD9479914 Si02
#       5
#     8  16  16  16  16
#     4  12  24  42  62  92 130 172 216 278 324 390
#     4   9  19  38  62  89 122 165 208 253 316 386
#     4  10  21  37  60  91 124 164 211 261 323 387
#     4   9  18  34  59  91 123 158 201 253 314 380
#     4  11  24  41  63  94 128 169 220 272 323 381
#
# _framework density 21.588958000000002
#
# number of rings (size 3 to 8) (size 9 to 14) (size 15 to 20)
#    0.000    2.000    2.222    2.667    0.000    8.444 
#    0.000    1.111    0.000    0.000    0.000    0.000 
#    0.000    0.000    0.000    0.000    0.000    0.000 
#
# Total GULP energy -201011.475705 kJ/mol
# GULP energy per Si atom -5583.652103 kJ/mol
# Density = 2.153982 g / cm^3
# Si number density = 21.588958 Si / 1000 Ang^3
#
#
#
# Elastic Constant Matrix: (Units=GPa)
#
#
# Indices 1 2 3 4 5 6 
#
# 1 137.0071 87.9473 10.7813 0.0000 0.0000 0.0000
# 2 87.9473 147.2267 11.2851 0.0000 0.0000 0.0000
# 3 10.7813 11.2851 55.5491 0.0000 0.0000 0.0000
# 4 0.0000 0.0000 0.0000 23.8824 0.0000 0.0000
# 5 0.0000 0.0000 0.0000 0.0000 1.9002 0.0000
# 6 0.0000 0.0000 0.0000 0.0000 0.0000 29.6685
#
#
#
# Elastic Compliance Matrix: (Units=1/GPa)
#
#
# Indices 1 2 3 4 5 6 
#
# 1 0.011880 -0.007030 -0.000878 0.000000 0.000000 0.000000
# 2 -0.007030 0.011059 -0.000882 0.000000 0.000000 0.000000
# 3 -0.000878 -0.000882 0.018352 0.000000 0.000000 0.000000
# 4 0.000000 0.000000 0.000000 0.041872 0.000000 0.000000
# 5 0.000000 0.000000 0.000000 0.000000 0.526248 0.000000
# 6 0.000000 0.000000 0.000000 0.000000 0.000000 0.033706
#
#
# Mechanical properties :
#
#
# Convention : Reuss Voigt Hill
#
# Bulk Modulus (GPa) = 42.17305 62.20114 52.18710
# Shear Modulus (GPa) = 7.47831 26.40817 16.94324
#
# Velocity S-wave (km/s) = 1.86319 3.50126 2.80449
# Velocity P-wave (km/s) = 4.91992 6.72452 5.89172
#
# Compressibility (1/GPa) = 0.02371183
#
# Stress axis : x y z
#
# Youngs Moduli (GPa) = 84.17243 90.42348 54.49085
#
# Poissons Ratio (x) = 0.63564 0.04783
# Poissons Ratio (y) = 0.59170 0.04808
# Poissons Ratio (z) = 0.07388 0.07979
#
# Static dielectric constant tensor:
#      x y z
#    x 1.765020 0.000000 0.000000 
#    y 0.000000 1.784510 0.000000 
#    z 0.000000 0.000000 1.848180 
# 
# From -- ./inp_files/21123.got.cif
#   From: 2010.05.17/outbox.cif.g08.bks.cpg/sg64_11_cif.got.tgz:21123.got - 2010.06.03 16:29:19.
