data_PCOD9479522
_publ_section_title
;
Structure prediction by ZEFSAII (Michael W. Deem and Ramdas Pophale) SiO2 
 PCOD9479522
Probable space group: C M C A
;
_chemical_formula_sum "Si O2"
_cell_formula_units_Z 88
_cell_length_a 28.948514
_cell_length_b 9.123259
_cell_length_c 13.515928
_cell_angle_alpha 90.000000
_cell_angle_beta 90.000000
_cell_angle_gamma 90.000000
_cell_volume 3569.621338
_symmetry_space_group_name_H-M "C M C A"
_symmetry_group_IT_number 64
_symmetry_cell_setting 'orthorhombic'
loop_
_space_group_symop_operation_xyz
x,y,z
-x,1/2-y,1/2+z
x,-y,-z
-x,1/2+y,1/2-z
-x,-y,-z
x,1/2+y,1/2-z
-x,y,z
x,1/2-y,1/2+z
1/2+x,1/2+y,z
1/2-x,-y,1/2+z
1/2+x,1/2-y,-z
1/2-x,y,1/2-z
1/2-x,1/2-y,-z
1/2+x,y,1/2-z
1/2-x,1/2+y,z
1/2+x,-y,1/2+z
loop_
_atom_site_type_symbol
_atom_site_label
_atom_site_fract_x
_atom_site_fract_y
_atom_site_fract_z
Si Si1 0.688177 0.831262 0.205771
Si Si2 0.098416 0.836074 0.806733
Si Si3 0.345219 0.086131 0.587288
Si Si4 0.750000 0.575909 0.250000
Si Si5 0.000000 0.636182 0.109852
Si Si6 0.000000 0.804560 0.304560
Si Si7 0.899471 0.130844 0.431956
O O1 0.635962 0.793440 0.178136
O O2 0.686129 0.855500 0.324786
O O3 0.717141 0.684532 0.188350
O O4 0.716484 0.977085 0.180488
O O5 0.101342 0.877773 0.688969
O O6 0.047771 0.777007 0.833528
O O7 0.116523 0.977809 0.864553
O O8 0.371689 0.224247 0.543680
O O9 0.320746 0.000000 0.500000
O O10 0.000000 0.476719 0.166400
O O11 0.953824 0.646181 0.047114
O O12 0.000000 0.772049 0.186323
O O13 0.881698 0.000000 0.500000
#
# Coordination Sequence:
#
# PCOD9479522 Si02
#       7
#    16  16  16   8   8   8  16
#     4  10  21  41  70 102 133 175 226 286 343 419
#     4  10  23  42  69  96 139 185 233 283 352 405
#     4  11  25  43  65  99 140 187 232 287 351 416
#     4  10  20  40  76 104 126 170 236 276 358 416
#     4  10  23  38  60  91 132 179 237 297 343 397
#     4  10  24  36  66  98 136 182 240 280 340 419
#     4  10  24  40  63  93 132 178 238 288 345 405
#
# _framework density 24.652474000000002
#
# number of rings (size 3 to 8) (size 9 to 14) (size 15 to 20)
#    0.000    1.818    1.818    0.273   17.818    0.000 
#    0.000    1.818    0.000    0.000    0.000    0.000 
#    0.000    0.000    0.000    0.000    0.000    0.000 
#
# Total GULP energy -245998.045976 kJ/mol
# GULP energy per Si atom -5590.864681 kJ/mol
# Density = 2.459636 g / cm^3
# Si number density = 24.652474 Si / 1000 Ang^3
#
#
#
# Elastic Constant Matrix: (Units=GPa)
#
#
# Indices 1 2 3 4 5 6 
#
# 1 121.1704 37.9784 6.2998 0.0000 0.0000 0.0000
# 2 37.9784 141.9269 43.8765 0.0000 0.0000 0.0000
# 3 6.2998 43.8765 115.4742 0.0000 0.0000 0.0000
# 4 0.0000 0.0000 0.0000 53.5749 0.0000 0.0000
# 5 0.0000 0.0000 0.0000 0.0000 -4.3780 0.0000
# 6 0.0000 0.0000 0.0000 0.0000 0.0000 175.2352
#
#
#
# Elastic Compliance Matrix: (Units=1/GPa)
#
#
# Indices 1 2 3 4 5 6 
#
# 1 0.009032 -0.002566 0.000482 0.000000 0.000000 0.000000
# 2 -0.002566 0.008713 -0.003171 0.000000 0.000000 0.000000
# 3 0.000482 -0.003171 0.009838 0.000000 0.000000 0.000000
# 4 0.000000 0.000000 0.000000 0.018665 0.000000 0.000000
# 5 0.000000 0.000000 0.000000 0.000000 -0.228415 0.000000
# 6 0.000000 0.000000 0.000000 0.000000 0.000000 0.005707
#
#
# Mechanical properties :
#
#
# Convention : Reuss Voigt Hill
#
# Bulk Modulus (GPa) = 58.56698 61.65344 60.11021
# Shear Modulus (GPa) = -31.19932 64.24755 16.52412
#
# Velocity S-wave (km/s) = -3.56134 5.11057 2.59179
# Velocity P-wave (km/s) = 2.62636 7.73868 5.77862
#
# Compressibility (1/GPa) = 0.01707447
#
# Stress axis : x y z
#
# Youngs Moduli (GPa) = 110.71717 114.77518 101.64318
#
# Poissons Ratio (x) = 0.29451 -0.04902
# Poissons Ratio (y) = 0.28410 0.32226
# Poissons Ratio (z) = -0.05339 0.36390
#
# Static dielectric constant tensor:
#      x y z
#    x 2.009240 0.000000 0.000000 
#    y 0.000000 1.968940 0.000000 
#    z 0.000000 0.000000 2.011370 
# 
# From -- ./inp_files/35751.got.cif
#   From: 2010.05.17/outbox.cif.g08.bks.cpg/sg64_18_cif.got.tgz:35751.got - 2010.06.03 16:29:19.
