data_PCOD9479058
_publ_section_title
;
Structure prediction by ZEFSAII (Michael W. Deem and Ramdas Pophale) SiO2 
 PCOD9479058
Probable space group: C M C A
;
_chemical_formula_sum "Si O2"
_cell_formula_units_Z 112
_cell_length_a 14.387867
_cell_length_b 28.886722
_cell_length_c 13.529578
_cell_angle_alpha 90.000000
_cell_angle_beta 90.000000
_cell_angle_gamma 90.000000
_cell_volume 5623.140400
_symmetry_space_group_name_H-M "C M C A"
_symmetry_group_IT_number 64
_symmetry_cell_setting 'orthorhombic'
loop_
_space_group_symop_operation_xyz
x,y,z
-x,1/2-y,1/2+z
x,-y,-z
-x,1/2+y,1/2-z
-x,-y,-z
x,1/2+y,1/2-z
-x,y,z
x,1/2-y,1/2+z
1/2+x,1/2+y,z
1/2-x,-y,1/2+z
1/2+x,1/2-y,-z
1/2-x,y,1/2-z
1/2-x,1/2-y,-z
1/2+x,y,1/2-z
1/2-x,1/2+y,z
1/2+x,-y,1/2+z
loop_
_atom_site_type_symbol
_atom_site_label
_atom_site_fract_x
_atom_site_fract_y
_atom_site_fract_z
Si Si1 0.686114 0.794284 0.504141
Si Si2 0.611994 0.825946 0.291903
Si Si3 0.254031 0.113855 0.085827
Si Si4 0.750791 0.459619 0.081726
Si Si5 0.605454 0.231012 0.298443
Si Si6 0.112070 0.433446 0.252232
Si Si7 0.110984 0.128834 0.251270
O O1 0.750000 0.750000 0.500000
O O2 0.645327 0.812618 0.401731
O O3 0.749254 0.833758 0.551088
O O4 0.609634 0.781113 0.586002
O O5 0.500000 0.827264 0.290516
O O6 0.645045 0.782030 0.224952
O O7 0.638359 0.878229 0.259342
O O8 0.164689 0.107328 0.157409
O O9 0.345011 0.105763 0.151937
O O10 0.248777 0.084892 0.987554
O O11 0.838757 0.455420 0.155704
O O12 0.660808 0.458098 0.153509
O O13 0.753663 0.500000 0.000000
O O14 0.500000 0.233951 0.263790
O O15 0.640479 0.183572 0.247597
O O16 0.000000 0.437606 0.251759
O O17 0.000000 0.125571 0.244161
#
# Coordination Sequence:
#
# PCOD9479058 Si02
#       7
#    16  16  16  16  16  16  16
#     4  11  21  31  55  86 118 165 208 252 304 370
#     4  10  20  37  59  84 122 169 214 263 306 363
#     4  10  21  38  57  89 121 159 210 254 314 380
#     4  11  25  45  68  94 128 161 203 273 330 383
#     4   9  19  34  51  80 120 162 208 253 299 352
#     4  10  24  45  69  96 126 167 216 263 324 394
#     4   9  19  36  58  86 126 166 206 256 308 371
#
# _framework density 19.917695999999999
#
# number of rings (size 3 to 8) (size 9 to 14) (size 15 to 20)
#    0.000    2.000    1.429    1.286    2.000    6.286 
#    0.000    2.143    0.000    0.000    0.000    0.000 
#    0.000    0.000    0.000    0.000    0.000    0.000 
#
# Total GULP energy -312097.590806 kJ/mol
# GULP energy per Si atom -5573.171264 kJ/mol
# Density = 1.987236 g / cm^3
# Si number density = 19.917696 Si / 1000 Ang^3
#
#
#
# Elastic Constant Matrix: (Units=GPa)
#
#
# Indices 1 2 3 4 5 6 
#
# 1 128.5810 38.3082 44.1187 0.0000 0.0000 0.0000
# 2 38.3082 38.1442 58.1130 0.0000 0.0000 0.0000
# 3 44.1187 58.1130 131.8222 0.0000 0.0000 0.0000
# 4 0.0000 0.0000 0.0000 40.8833 0.0000 0.0000
# 5 0.0000 0.0000 0.0000 0.0000 15.0547 0.0000
# 6 0.0000 0.0000 0.0000 0.0000 0.0000 13.8952
#
#
#
# Elastic Compliance Matrix: (Units=1/GPa)
#
#
# Indices 1 2 3 4 5 6 
#
# 1 0.011707 -0.017626 0.003852 0.000000 0.000000 0.000000
# 2 -0.017626 0.106376 -0.040996 0.000000 0.000000 0.000000
# 3 0.003852 -0.040996 0.024369 0.000000 0.000000 0.000000
# 4 0.000000 0.000000 0.000000 0.024460 0.000000 0.000000
# 5 0.000000 0.000000 0.000000 0.000000 0.066425 0.000000
# 6 0.000000 0.000000 0.000000 0.000000 0.000000 0.071967
#
#
# Mechanical properties :
#
#
# Convention : Reuss Voigt Hill
#
# Bulk Modulus (GPa) = 30.38349 64.40301 47.39325
# Shear Modulus (GPa) = 11.74221 24.50047 18.12134
#
# Velocity S-wave (km/s) = 2.43067 3.51106 3.01958
# Velocity P-wave (km/s) = 4.81302 6.98867 6.00028
#
# Compressibility (1/GPa) = 0.03291262
#
# Stress axis : x y z
#
# Youngs Moduli (GPa) = 85.42088 9.40063 41.03493
#
# Poissons Ratio (x) = 0.16570 -0.15808
# Poissons Ratio (y) = 1.50563 1.68227
# Poissons Ratio (z) = -0.32906 0.38539
#
# Static dielectric constant tensor:
#      x y z
#    x 1.759320 0.000000 0.000000 
#    y 0.000000 1.874540 0.000000 
#    z 0.000000 0.000000 1.689060 
# 
# From -- ./inp_files/14926.got.cif
#   From: 2010.05.17/outbox.cif.g08.bks.cpg/sg64_8_cif.got.tgz:14926.got - 2010.06.03 16:29:19.
