data_PCOD9479773
_publ_section_title
;
Structure prediction by ZEFSAII (Michael W. Deem and Ramdas Pophale) SiO2 
 PCOD9479773
Probable space group: C M C A
;
_chemical_formula_sum "Si O2"
_cell_formula_units_Z 96
_cell_length_a 22.722429
_cell_length_b 25.565712
_cell_length_c 8.620868
_cell_angle_alpha 90.000000
_cell_angle_beta 90.000000
_cell_angle_gamma 90.000000
_cell_volume 5007.992187
_symmetry_space_group_name_H-M "C M C A"
_symmetry_group_IT_number 64
_symmetry_cell_setting 'orthorhombic'
loop_
_space_group_symop_operation_xyz
x,y,z
-x,1/2-y,1/2+z
x,-y,-z
-x,1/2+y,1/2-z
-x,-y,-z
x,1/2+y,1/2-z
-x,y,z
x,1/2-y,1/2+z
1/2+x,1/2+y,z
1/2-x,-y,1/2+z
1/2+x,1/2-y,-z
1/2-x,y,1/2-z
1/2-x,1/2-y,-z
1/2+x,y,1/2-z
1/2-x,1/2+y,z
1/2+x,-y,1/2+z
loop_
_atom_site_type_symbol
_atom_site_label
_atom_site_fract_x
_atom_site_fract_y
_atom_site_fract_z
Si Si1 0.000000 0.754803 0.013554
Si Si2 0.071026 0.109353 0.319627
Si Si3 0.683199 0.200309 0.703148
Si Si4 0.000000 0.676207 0.782472
Si Si5 0.568978 0.495221 0.184797
Si Si6 0.377969 0.296106 0.877906
Si Si7 0.390731 0.390146 0.322071
O O1 0.000000 0.768845 0.193641
O O2 0.939876 0.779541 0.953144
O O3 0.000000 0.694928 0.960457
O O4 0.106832 0.153144 0.224505
O O5 0.091975 0.109609 0.497670
O O6 0.000000 0.116122 0.301809
O O7 0.083691 0.051371 0.255516
O O8 0.750000 0.211555 0.750000
O O9 0.667642 0.195853 0.520400
O O10 0.644825 0.248122 0.772851
O O11 0.664808 0.145820 0.784857
O O12 0.056170 0.642270 0.741869
O O13 0.500000 0.483460 0.222866
O O14 0.607482 0.448154 0.253550
O O15 0.574066 0.500000 0.000000
#
# Coordination Sequence:
#
# PCOD9479773 Si02
#       7
#     8  16  16   8  16  16  16
#     4  12  22  36  57  94 128 155 197 258 331 386
#     4  11  23  36  63  98 133 162 197 253 335 405
#     4  12  27  44  63  87 124 175 223 266 307 369
#     4  12  24  34  59  91 131 166 200 255 333 379
#     4  10  21  36  59  94 134 166 199 252 327 403
#     4  12  23  40  63  91 128 163 208 260 325 386
#     4  12  22  39  62  89 129 168 211 263 318 388
#
# _framework density 19.169357999999999
#
# number of rings (size 3 to 8) (size 9 to 14) (size 15 to 20)
#    0.000    0.500    5.833    3.000    2.333    1.333 
#    0.000    0.000    0.000    7.000    0.000    0.000 
#    0.000    0.000    0.000    0.000    0.000    0.000 
#
# Total GULP energy -268253.237208 kJ/mol
# GULP energy per Si atom -5588.609108 kJ/mol
# Density = 1.912573 g / cm^3
# Si number density = 19.169358 Si / 1000 Ang^3
#
#
#
# Elastic Constant Matrix: (Units=GPa)
#
#
# Indices 1 2 3 4 5 6 
#
# 1 68.9203 33.4976 27.4411 0.0000 0.0000 0.0000
# 2 33.4976 163.0208 66.0532 0.0000 0.0000 0.0000
# 3 27.4411 66.0532 103.0669 0.0000 0.0000 0.0000
# 4 0.0000 0.0000 0.0000 40.9704 0.0000 0.0000
# 5 0.0000 0.0000 0.0000 0.0000 18.4646 0.0000
# 6 0.0000 0.0000 0.0000 0.0000 0.0000 13.5669
#
#
#
# Elastic Compliance Matrix: (Units=1/GPa)
#
#
# Indices 1 2 3 4 5 6 
#
# 1 0.016802 -0.002215 -0.003054 0.000000 0.000000 0.000000
# 2 -0.002215 0.008578 -0.004908 0.000000 0.000000 0.000000
# 3 -0.003054 -0.004908 0.013661 0.000000 0.000000 0.000000
# 4 0.000000 0.000000 0.000000 0.024408 0.000000 0.000000
# 5 0.000000 0.000000 0.000000 0.000000 0.054158 0.000000
# 6 0.000000 0.000000 0.000000 0.000000 0.000000 0.073709
#
#
# Mechanical properties :
#
#
# Convention : Reuss Voigt Hill
#
# Bulk Modulus (GPa) = 53.51186 65.44354 59.47770
# Shear Modulus (GPa) = 22.94660 28.46811 25.70736
#
# Velocity S-wave (km/s) = 3.46359 3.85786 3.66603
# Velocity P-wave (km/s) = 6.63108 7.35241 7.00104
#
# Compressibility (1/GPa) = 0.01868745
#
# Stress axis : x y z
#
# Youngs Moduli (GPa) = 59.51657 116.57984 73.20294
#
# Poissons Ratio (x) = 0.25824 0.22355
# Poissons Ratio (y) = 0.13184 0.35925
# Poissons Ratio (z) = 0.18175 0.57212
#
# Static dielectric constant tensor:
#      x y z
#    x 1.662000 0.000000 0.000000 
#    y 0.000000 1.655440 0.000000 
#    z 0.000000 0.000000 1.711640 
# 
# From -- ./inp_files/9514.got.cif
#   From: 2010.05.17/outbox.cif.g08.bks.cpg/sg64_5_cif.got.tgz:9514.got - 2010.06.03 16:29:19.
