data_PCOD9479968
_publ_section_title
;
Structure prediction by ZEFSAII (Michael W. Deem and Ramdas Pophale) SiO2 
 PCOD9479968
Probable space group: C M C A
;
_chemical_formula_sum "Si O2"
_cell_formula_units_Z 72
_cell_length_a 23.239535
_cell_length_b 33.244699
_cell_length_c 4.900318
_cell_angle_alpha 90.000000
_cell_angle_beta 90.000000
_cell_angle_gamma 90.000000
_cell_volume 3785.943279
_symmetry_space_group_name_H-M "C M C A"
_symmetry_group_IT_number 64
_symmetry_cell_setting 'orthorhombic'
loop_
_space_group_symop_operation_xyz
x,y,z
-x,1/2-y,1/2+z
x,-y,-z
-x,1/2+y,1/2-z
-x,-y,-z
x,1/2+y,1/2-z
-x,y,z
x,1/2-y,1/2+z
1/2+x,1/2+y,z
1/2-x,-y,1/2+z
1/2+x,1/2-y,-z
1/2-x,y,1/2-z
1/2-x,1/2-y,-z
1/2+x,y,1/2-z
1/2-x,1/2+y,z
1/2+x,-y,1/2+z
loop_
_atom_site_type_symbol
_atom_site_label
_atom_site_fract_x
_atom_site_fract_y
_atom_site_fract_z
Si Si1 0.500000 0.722719 0.395307
Si Si2 0.565493 0.972179 0.236394
Si Si3 0.401748 0.337844 0.527084
Si Si4 0.433116 0.111079 0.517768
Si Si5 0.681101 0.275542 0.270450
O O1 0.500000 0.761085 0.201952
O O2 0.444476 0.695437 0.349964
O O3 0.500000 0.962152 0.139336
O O4 0.589963 0.930111 0.345920
O O5 0.561823 0.000000 0.500000
O O6 0.592472 0.000000 0.000000
O O7 0.397298 0.371577 0.762463
O O8 0.346734 0.314872 0.403458
O O9 0.431699 0.357349 0.263662
O O10 0.500000 0.104737 0.428774
O O11 0.663864 0.238377 0.468569
O O12 0.750000 0.279570 0.250000
#
# Coordination Sequence:
#
# PCOD9479968 Si02
#       5
#     8  16  16  16  16
#     4  12  22  32  46  66  96 132 168 206 260 328
#     4   9  17  29  46  67  95 136 176 204 236 299
#     4  12  21  34  50  73 102 134 172 220 271 323
#     4  11  20  33  48  73 107 138 169 211 267 314
#     4  10  21  38  56  72  94 131 179 229 273 316
#
# _framework density 19.017717000000001
#
# number of rings (size 3 to 8) (size 9 to 14) (size 15 to 20)
#    0.000    1.333    2.222    5.333    0.000    3.556 
#    0.000    0.000    0.000    0.000    0.000    0.000 
#    0.000    5.333    0.000    0.444    0.000    0.222 
#
# Total GULP energy -200829.195412 kJ/mol
# GULP energy per Si atom -5578.588761 kJ/mol
# Density = 1.897443 g / cm^3
# Si number density = 19.017717 Si / 1000 Ang^3
#
#
#
# Elastic Constant Matrix: (Units=GPa)
#
#
# Indices 1 2 3 4 5 6 
#
# 1 43.4294 36.2769 30.5292 0.0000 0.0000 0.0000
# 2 36.2769 103.7368 42.0807 0.0000 0.0000 0.0000
# 3 30.5292 42.0807 111.7762 0.0000 0.0000 0.0000
# 4 0.0000 0.0000 0.0000 53.7765 0.0000 0.0000
# 5 0.0000 0.0000 0.0000 0.0000 18.9898 0.0000
# 6 0.0000 0.0000 0.0000 0.0000 0.0000 -30.5357
#
#
#
# Elastic Compliance Matrix: (Units=1/GPa)
#
#
# Indices 1 2 3 4 5 6 
#
# 1 0.035584 -0.010033 -0.005942 0.000000 0.000000 0.000000
# 2 -0.010033 0.014206 -0.002608 0.000000 0.000000 0.000000
# 3 -0.005942 -0.002608 0.011551 0.000000 0.000000 0.000000
# 4 0.000000 0.000000 0.000000 0.018595 0.000000 0.000000
# 5 0.000000 0.000000 0.000000 0.000000 0.052660 0.000000
# 6 0.000000 0.000000 0.000000 0.000000 0.000000 -0.032749
#
#
# Mechanical properties :
#
#
# Convention : Reuss Voigt Hill
#
# Bulk Modulus (GPa) = 41.36464 52.96845 47.16655
# Shear Modulus (GPa) = 34.46565 18.44982 26.45774
#
# Velocity S-wave (km/s) = 4.26172 3.11808 3.73395
# Velocity P-wave (km/s) = 6.78337 6.39343 6.59128
#
# Compressibility (1/GPa) = 0.02417524
#
# Stress axis : x y z
#
# Youngs Moduli (GPa) = 28.10282 70.39087 86.57217
#
# Poissons Ratio (x) = 0.70626 0.51437
# Poissons Ratio (y) = 0.28197 0.22577
# Poissons Ratio (z) = 0.16697 0.18357
#
# Static dielectric constant tensor:
#      x y z
#    x 1.653030 0.000000 0.000000 
#    y 0.000000 1.713800 0.000000 
#    z 0.000000 0.000000 1.678090 
# 
# From -- ./inp_files/2268.got.cif
#   From: 2010.05.17/outbox.cif.g08.bks.cpg/sg64_2_cif.got.tgz:2268.got - 2010.06.03 16:29:19.
