data_PCOD9479373
_publ_section_title
;
Structure prediction by ZEFSAII (Michael W. Deem and Ramdas Pophale) SiO2 
 PCOD9479373
Probable space group: C M C A
;
_chemical_formula_sum "Si O2"
_cell_formula_units_Z 80
_cell_length_a 18.338206
_cell_length_b 13.256320
_cell_length_c 17.359069
_cell_angle_alpha 90.000000
_cell_angle_beta 90.000000
_cell_angle_gamma 90.000000
_cell_volume 4219.939801
_symmetry_space_group_name_H-M "C M C A"
_symmetry_group_IT_number 64
_symmetry_cell_setting 'orthorhombic'
loop_
_space_group_symop_operation_xyz
x,y,z
-x,1/2-y,1/2+z
x,-y,-z
-x,1/2+y,1/2-z
-x,-y,-z
x,1/2+y,1/2-z
-x,y,z
x,1/2-y,1/2+z
1/2+x,1/2+y,z
1/2-x,-y,1/2+z
1/2+x,1/2-y,-z
1/2-x,y,1/2-z
1/2-x,1/2-y,-z
1/2+x,y,1/2-z
1/2-x,1/2+y,z
1/2+x,-y,1/2+z
loop_
_atom_site_type_symbol
_atom_site_label
_atom_site_fract_x
_atom_site_fract_y
_atom_site_fract_z
Si Si1 0.500000 0.432977 0.617261
Si Si2 0.345871 0.115441 0.192391
Si Si3 0.000000 0.657322 0.945327
Si Si4 0.803760 0.539142 0.360949
Si Si5 0.701420 0.695335 0.884665
Si Si6 0.148827 0.229249 0.053896
O O1 0.573451 0.404938 0.662506
O O2 0.500000 0.375179 0.535348
O O3 0.500000 0.552398 0.600502
O O4 0.283267 0.061757 0.140386
O O5 0.333384 0.074930 0.278074
O O6 0.326143 0.233637 0.184120
O O7 0.928505 0.722624 0.928171
O O8 0.815412 0.421371 0.372992
O O9 0.841145 0.612440 0.422678
O O10 0.787239 0.712671 0.900113
O O11 0.664057 0.736176 0.962837
#
# Coordination Sequence:
#
# PCOD9479373 Si02
#       6
#     8  16   8  16  16  16
#     4  11  22  39  60  87 119 161 195 243 301 358
#     4  10  22  39  59  87 120 158 200 244 298 356
#     4  11  22  37  61  88 121 152 198 251 299 353
#     4  10  22  38  62  89 118 158 203 246 300 358
#     4  10  20  39  62  86 121 156 200 250 295 355
#     4  10  21  38  61  91 117 156 201 249 298 358
#
# _framework density 18.957616999999999
#
# number of rings (size 3 to 8) (size 9 to 14) (size 15 to 20)
#    0.000    1.800    2.000    1.800    0.000    8.800 
#    0.000    5.000    0.000    0.000    0.000    0.000 
#    0.000    0.000    0.000    0.000    0.000    0.000 
#
# Total GULP energy -223439.372513 kJ/mol
# GULP energy per Si atom -5585.984313 kJ/mol
# Density = 1.891447 g / cm^3
# Si number density = 18.957617 Si / 1000 Ang^3
#
#
#
# Elastic Constant Matrix: (Units=GPa)
#
#
# Indices 1 2 3 4 5 6 
#
# 1 158.7673 54.8309 34.5171 0.0000 0.0000 0.0000
# 2 54.8309 130.0945 32.0127 0.0000 0.0000 0.0000
# 3 34.5171 32.0127 55.1716 0.0000 0.0000 0.0000
# 4 0.0000 0.0000 0.0000 23.6602 0.0000 0.0000
# 5 0.0000 0.0000 0.0000 0.0000 16.6697 0.0000
# 6 0.0000 0.0000 0.0000 0.0000 0.0000 12.6727
#
#
#
# Elastic Compliance Matrix: (Units=1/GPa)
#
#
# Indices 1 2 3 4 5 6 
#
# 1 0.007917 -0.002471 -0.003520 0.000000 0.000000 0.000000
# 2 -0.002471 0.009738 -0.004105 0.000000 0.000000 0.000000
# 3 -0.003520 -0.004105 0.022709 0.000000 0.000000 0.000000
# 4 0.000000 0.000000 0.000000 0.042265 0.000000 0.000000
# 5 0.000000 0.000000 0.000000 0.000000 0.059989 0.000000
# 6 0.000000 0.000000 0.000000 0.000000 0.000000 0.078910
#
#
# Mechanical properties :
#
#
# Convention : Reuss Voigt Hill
#
# Bulk Modulus (GPa) = 49.56834 65.19499 57.38166
# Shear Modulus (GPa) = 20.12540 25.44536 22.78538
#
# Velocity S-wave (km/s) = 3.26175 3.66761 3.47062
# Velocity P-wave (km/s) = 6.35524 7.23876 6.81134
#
# Compressibility (1/GPa) = 0.02017417
#
# Stress axis : x y z
#
# Youngs Moduli (GPa) = 126.31113 102.68943 44.03563
#
# Poissons Ratio (x) = 0.25372 0.15498
# Poissons Ratio (y) = 0.31208 0.18075
# Poissons Ratio (z) = 0.44455 0.42151
#
# Static dielectric constant tensor:
#      x y z
#    x 1.629910 0.000000 0.000000 
#    y 0.000000 1.645960 0.000000 
#    z 0.000000 0.000000 1.668390 
# 
# From -- ./inp_files/39979.got.cif
#   From: 2010.05.17/outbox.cif.g08.bks.cpg/sg64_20_cif.got.tgz:39979.got - 2010.06.03 16:29:19.
