data_PCOD9479523
_publ_section_title
;
Structure prediction by ZEFSAII (Michael W. Deem and Ramdas Pophale) SiO2 
 PCOD9479523
Probable space group: C M C A
;
_chemical_formula_sum "Si O2"
_cell_formula_units_Z 88
_cell_length_a 28.658425
_cell_length_b 11.312590
_cell_length_c 12.850557
_cell_angle_alpha 90.000000
_cell_angle_beta 90.000000
_cell_angle_gamma 90.000000
_cell_volume 4166.163585
_symmetry_space_group_name_H-M "C M C A"
_symmetry_group_IT_number 64
_symmetry_cell_setting 'orthorhombic'
loop_
_space_group_symop_operation_xyz
x,y,z
-x,1/2-y,1/2+z
x,-y,-z
-x,1/2+y,1/2-z
-x,-y,-z
x,1/2+y,1/2-z
-x,y,z
x,1/2-y,1/2+z
1/2+x,1/2+y,z
1/2-x,-y,1/2+z
1/2+x,1/2-y,-z
1/2-x,y,1/2-z
1/2-x,1/2-y,-z
1/2+x,y,1/2-z
1/2-x,1/2+y,z
1/2+x,-y,1/2+z
loop_
_atom_site_type_symbol
_atom_site_label
_atom_site_fract_x
_atom_site_fract_y
_atom_site_fract_z
Si Si1 0.819761 0.397854 0.582274
Si Si2 0.500000 0.054411 0.665769
Si Si3 0.000000 0.820052 0.692964
Si Si4 0.250000 0.677347 0.250000
Si Si5 0.090438 0.938113 0.610479
Si Si6 0.399625 0.540564 0.833338
Si Si7 0.830794 0.751154 0.604056
O O1 0.807634 0.500000 0.500000
O O2 0.783588 0.396852 0.675340
O O3 0.871301 0.426821 0.625341
O O4 0.819093 0.278346 0.515588
O O5 0.500000 0.182374 0.726597
O O6 0.550448 0.056863 0.612502
O O7 0.500000 0.925755 0.722025
O O8 0.047305 0.848227 0.629417
O O9 0.215005 0.748034 0.174959
O O10 0.139717 0.870554 0.611652
O O11 0.083871 0.000000 0.500000
O O12 0.090925 0.024995 0.710327
O O13 0.365494 0.648702 0.856371
#
# Coordination Sequence:
#
# PCOD9479523 Si02
#       7
#    16   8   8   8  16  16  16
#     4  10  24  44  66  98 134 173 232 285 350 422
#     4  10  20  40  76  99 144 189 240 285 365 428
#     4  10  21  42  67 108 139 189 237 293 351 442
#     4  12  24  44  70  96 132 186 232 294 360 418
#     4  11  23  39  68 100 139 178 229 286 358 417
#     4  10  22  44  67  97 137 182 225 289 348 433
#     4  11  24  43  67  96 135 176 233 291 346 426
#
# _framework density 21.122551000000001
#
# number of rings (size 3 to 8) (size 9 to 14) (size 15 to 20)
#    0.000    1.455    3.636    0.818    2.545    3.636 
#    3.273    5.000    0.000    0.000    0.000    0.000 
#    0.000    0.000    0.000    0.000    0.000    0.000 
#
# Total GULP energy -245465.968955 kJ/mol
# GULP energy per Si atom -5578.772022 kJ/mol
# Density = 2.107448 g / cm^3
# Si number density = 21.122551 Si / 1000 Ang^3
#
#
#
# Elastic Constant Matrix: (Units=GPa)
#
#
# Indices 1 2 3 4 5 6 
#
# 1 158.6007 21.1129 25.1864 0.0000 0.0000 0.0000
# 2 21.1129 60.1197 16.7122 0.0000 0.0000 0.0000
# 3 25.1864 16.7122 89.3088 0.0000 0.0000 0.0000
# 4 0.0000 0.0000 0.0000 30.9911 0.0000 0.0000
# 5 0.0000 0.0000 0.0000 0.0000 -4.5700 0.0000
# 6 0.0000 0.0000 0.0000 0.0000 0.0000 30.1005
#
#
#
# Elastic Compliance Matrix: (Units=1/GPa)
#
#
# Indices 1 2 3 4 5 6 
#
# 1 0.006813 -0.001960 -0.001555 0.000000 0.000000 0.000000
# 2 -0.001960 0.018110 -0.002836 0.000000 0.000000 0.000000
# 3 -0.001555 -0.002836 0.012166 0.000000 0.000000 0.000000
# 4 0.000000 0.000000 0.000000 0.032267 0.000000 0.000000
# 5 0.000000 0.000000 0.000000 0.000000 -0.218818 0.000000
# 6 0.000000 0.000000 0.000000 0.000000 0.000000 0.033222
#
#
# Mechanical properties :
#
#
# Convention : Reuss Voigt Hill
#
# Bulk Modulus (GPa) = 41.00471 48.22802 44.61636
# Shear Modulus (GPa) = -52.40676 27.63883 -12.38396
#
# Velocity S-wave (km/s) = -4.98645 3.62124 -2.42397
# Velocity P-wave (km/s) = 3.70108 6.35347 3.65161
#
# Compressibility (1/GPa) = 0.02438745
#
# Stress axis : x y z
#
# Youngs Moduli (GPa) = 146.77860 55.21709 82.19487
#
# Poissons Ratio (x) = 0.10825 0.12777
# Poissons Ratio (y) = 0.28775 0.23311
# Poissons Ratio (z) = 0.22817 0.15660
#
# Static dielectric constant tensor:
#      x y z
#    x 1.777310 0.000000 0.000000 
#    y 0.000000 1.784570 0.000000 
#    z 0.000000 0.000000 1.770520 
# 
# From -- ./inp_files/19733.got.cif
#   From: 2010.05.17/outbox.cif.g08.bks.cpg/sg64_10_cif.got.tgz:19733.got - 2010.06.03 16:29:19.
