data_PCOD9479708
_publ_section_title
;
Structure prediction by ZEFSAII (Michael W. Deem and Ramdas Pophale) SiO2 
 PCOD9479708
Probable space group: C M C A
;
_chemical_formula_sum "Si O2"
_cell_formula_units_Z 80
_cell_length_a 9.466337
_cell_length_b 14.930973
_cell_length_c 30.897381
_cell_angle_alpha 90.000000
_cell_angle_beta 90.000000
_cell_angle_gamma 90.000000
_cell_volume 4367.085951
_symmetry_space_group_name_H-M "C M C A"
_symmetry_group_IT_number 64
_symmetry_cell_setting 'orthorhombic'
loop_
_space_group_symop_operation_xyz
x,y,z
-x,1/2-y,1/2+z
x,-y,-z
-x,1/2+y,1/2-z
-x,-y,-z
x,1/2+y,1/2-z
-x,y,z
x,1/2-y,1/2+z
1/2+x,1/2+y,z
1/2-x,-y,1/2+z
1/2+x,1/2-y,-z
1/2-x,y,1/2-z
1/2-x,1/2-y,-z
1/2+x,y,1/2-z
1/2-x,1/2+y,z
1/2+x,-y,1/2+z
loop_
_atom_site_type_symbol
_atom_site_label
_atom_site_fract_x
_atom_site_fract_y
_atom_site_fract_z
Si Si1 0.828646 0.860352 0.888236
Si Si2 0.828901 0.153365 0.614112
Si Si3 0.161667 0.363696 0.708641
Si Si4 0.330131 0.995939 0.949303
Si Si5 0.162169 0.855219 0.291318
O O1 0.787274 0.756061 0.893105
O O2 0.786970 0.889489 0.839323
O O3 0.752532 0.918686 0.924192
O O4 0.000000 0.866480 0.890905
O O5 0.778477 0.120294 0.661361
O O6 0.000000 0.154345 0.617522
O O7 0.790955 0.087616 0.575462
O O8 0.250000 0.393415 0.750000
O O9 0.161656 0.254216 0.708549
O O10 0.000000 0.392713 0.713326
O O11 0.500000 0.983382 0.945117
O O12 0.296455 0.000000 0.000000
O O13 0.250000 0.885192 0.250000
O O14 0.000000 0.884879 0.287436
#
# Coordination Sequence:
#
# PCOD9479708 Si02
#       5
#    16  16  16  16  16
#     4   9  18  34  54  74  99 133 168 200 243 300
#     4   8  16  33  53  71  99 136 163 193 249 306
#     4   8  14  25  44  70  97 126 160 195 233 283
#     4  10  21  36  53  74  99 128 167 214 259 302
#     4   8  13  24  44  68  94 126 160 192 232 284
#
# _framework density 18.318852
#
# number of rings (size 3 to 8) (size 9 to 14) (size 15 to 20)
#    0.000    3.400    0.000    2.400    0.000    2.000 
#    0.000    6.000    0.000    4.800    0.000    0.000 
#    0.000    0.000    0.000    0.000    0.000    0.000 
#
# Total GULP energy -222894.335832 kJ/mol
# GULP energy per Si atom -5572.358396 kJ/mol
# Density = 1.827716 g / cm^3
# Si number density = 18.318852 Si / 1000 Ang^3
#
#
#
# Elastic Constant Matrix: (Units=GPa)
#
#
# Indices 1 2 3 4 5 6 
#
# 1 31.0192 26.0922 66.3746 0.0000 0.0000 0.0000
# 2 26.0922 80.9244 77.9261 0.0000 0.0000 0.0000
# 3 66.3746 77.9261 221.1663 0.0000 0.0000 0.0000
# 4 0.0000 0.0000 0.0000 37.4532 0.0000 0.0000
# 5 0.0000 0.0000 0.0000 0.0000 30.6507 0.0000
# 6 0.0000 0.0000 0.0000 0.0000 0.0000 16.9043
#
#
#
# Elastic Compliance Matrix: (Units=1/GPa)
#
#
# Indices 1 2 3 4 5 6 
#
# 1 0.091220 -0.004616 -0.025750 0.000000 0.000000 0.000000
# 2 -0.004616 0.018936 -0.005287 0.000000 0.000000 0.000000
# 3 -0.025750 -0.005287 0.014112 0.000000 0.000000 0.000000
# 4 0.000000 0.000000 0.000000 0.026700 0.000000 0.000000
# 5 0.000000 0.000000 0.000000 0.000000 0.032626 0.000000
# 6 0.000000 0.000000 0.000000 0.000000 0.000000 0.059157
#
#
# Mechanical properties :
#
#
# Convention : Reuss Voigt Hill
#
# Bulk Modulus (GPa) = 18.88097 74.87730 46.87914
# Shear Modulus (GPa) = 15.07340 27.84944 21.46142
#
# Velocity S-wave (km/s) = 2.87162 3.90328 3.42650
# Velocity P-wave (km/s) = 4.61781 7.82798 6.42657
#
# Compressibility (1/GPa) = 0.05296337
#
# Stress axis : x y z
#
# Youngs Moduli (GPa) = 10.96251 52.80827 70.86148
#
# Poissons Ratio (x) = 0.24376 1.82467
# Poissons Ratio (y) = 0.05060 0.37463
# Poissons Ratio (z) = 0.28228 0.27919
#
# Static dielectric constant tensor:
#      x y z
#    x 1.616070 0.000000 0.000000 
#    y 0.000000 1.659920 0.000000 
#    z 0.000000 0.000000 1.631040 
# 
# From -- ./inp_files/43905.got.cif
#   From: 2010.05.17/outbox.cif.g08.bks.cpg/sg64_22_cif.got.tgz:43905.got - 2010.06.03 16:29:19.
