data_PCOD9479182
_publ_section_title
;
Structure prediction by ZEFSAII (Michael W. Deem and Ramdas Pophale) SiO2 
 PCOD9479182
Probable space group: C M C A
;
_chemical_formula_sum "Si O2"
_cell_formula_units_Z 112
_cell_length_a 31.028451
_cell_length_b 14.046199
_cell_length_c 12.384861
_cell_angle_alpha 90.000000
_cell_angle_beta 90.000000
_cell_angle_gamma 90.000000
_cell_volume 5397.716230
_symmetry_space_group_name_H-M "C M C A"
_symmetry_group_IT_number 64
_symmetry_cell_setting 'orthorhombic'
loop_
_space_group_symop_operation_xyz
x,y,z
-x,1/2-y,1/2+z
x,-y,-z
-x,1/2+y,1/2-z
-x,-y,-z
x,1/2+y,1/2-z
-x,y,z
x,1/2-y,1/2+z
1/2+x,1/2+y,z
1/2-x,-y,1/2+z
1/2+x,1/2-y,-z
1/2-x,y,1/2-z
1/2-x,1/2-y,-z
1/2+x,y,1/2-z
1/2-x,1/2+y,z
1/2+x,-y,1/2+z
loop_
_atom_site_type_symbol
_atom_site_label
_atom_site_fract_x
_atom_site_fract_y
_atom_site_fract_z
Si Si1 0.231086 0.842179 0.633296
Si Si2 0.087706 0.552518 0.150282
Si Si3 0.100548 0.725918 0.298469
Si Si4 0.549527 0.629266 0.565335
Si Si5 0.322744 0.135059 0.422826
Si Si6 0.663545 0.321310 0.150806
Si Si7 0.681211 0.493484 0.280594
O O1 0.250000 0.814508 0.750000
O O2 0.272888 0.834851 0.559102
O O3 0.189926 0.774289 0.620191
O O4 0.215558 0.951879 0.645015
O O5 0.084161 0.626824 0.248277
O O6 0.055634 0.463451 0.141517
O O7 0.135264 0.507367 0.161691
O O8 0.079286 0.609062 0.039001
O O9 0.066071 0.780046 0.369869
O O10 0.144009 0.708555 0.368385
O O11 0.117997 0.790192 0.199907
O O12 0.500000 0.637151 0.531531
O O13 0.340809 0.117898 0.541750
O O14 0.320078 0.054479 0.330774
O O15 0.687166 0.385894 0.241368
#
# Coordination Sequence:
#
# PCOD9479182 Si02
#       7
#    16  16  16  16  16  16  16
#     4  10  20  38  55  84 128 156 209 256 289 357
#     4  10  20  41  64  90 126 161 196 259 313 374
#     4  11  22  39  66  92 123 162 207 257 310 376
#     4  11  24  41  67  97 121 158 208 255 323 392
#     4  10  22  39  58  89 127 160 210 253 304 364
#     4  12  20  37  63  85 118 170 203 253 311 349
#     4  10  21  37  59  87 121 159 212 251 299 369
#
# _framework density 20.749516
#
# number of rings (size 3 to 8) (size 9 to 14) (size 15 to 20)
#    0.000    1.429    5.714    2.571    0.000    2.857 
#    0.000    0.000   12.571    0.000    0.000    4.000 
#    0.000    0.000    0.000    0.000    0.000    0.000 
#
# Total GULP energy -312327.394870 kJ/mol
# GULP energy per Si atom -5577.274908 kJ/mol
# Density = 2.070229 g / cm^3
# Si number density = 20.749516 Si / 1000 Ang^3
#
#
#
# Elastic Constant Matrix: (Units=GPa)
#
#
# Indices 1 2 3 4 5 6 
#
# 1 61.5775 14.0388 27.6494 0.0000 0.0000 0.0000
# 2 14.0388 74.2535 17.4804 0.0000 0.0000 0.0000
# 3 27.6494 17.4804 57.4321 0.0000 0.0000 0.0000
# 4 0.0000 0.0000 0.0000 15.6493 0.0000 0.0000
# 5 0.0000 0.0000 0.0000 0.0000 17.0303 0.0000
# 6 0.0000 0.0000 0.0000 0.0000 0.0000 24.0682
#
#
#
# Elastic Compliance Matrix: (Units=1/GPa)
#
#
# Indices 1 2 3 4 5 6 
#
# 1 0.020917 -0.001706 -0.009551 0.000000 0.000000 0.000000
# 2 -0.001706 0.014646 -0.003636 0.000000 0.000000 0.000000
# 3 -0.009551 -0.003636 0.023117 0.000000 0.000000 0.000000
# 4 0.000000 0.000000 0.000000 0.063901 0.000000 0.000000
# 5 0.000000 0.000000 0.000000 0.000000 0.058719 0.000000
# 6 0.000000 0.000000 0.000000 0.000000 0.000000 0.041549
#
#
# Mechanical properties :
#
#
# Convention : Reuss Voigt Hill
#
# Bulk Modulus (GPa) = 34.61036 34.62226 34.61631
# Shear Modulus (GPa) = 19.06463 20.28919 19.67691
#
# Velocity S-wave (km/s) = 3.03446 3.13040 3.08280
# Velocity P-wave (km/s) = 5.38456 5.45783 5.42132
#
# Compressibility (1/GPa) = 0.02889309
#
# Stress axis : x y z
#
# Youngs Moduli (GPa) = 47.80761 68.27789 43.25894
#
# Poissons Ratio (x) = 0.11650 0.41315
# Poissons Ratio (y) = 0.08158 0.15730
# Poissons Ratio (z) = 0.45660 0.24828
#
# Static dielectric constant tensor:
#      x y z
#    x 1.749890 0.000000 0.000000 
#    y 0.000000 1.807550 0.000000 
#    z 0.000000 0.000000 1.759480 
# 
# From -- ./inp_files/19876.got.cif
#   From: 2010.05.17/outbox.cif.g08.bks.cpg/sg64_10_cif.got.tgz:19876.got - 2010.06.03 16:29:19.
