data_PCOD9479973
_publ_section_title
;
Structure prediction by ZEFSAII (Michael W. Deem and Ramdas Pophale) SiO2 
 PCOD9479973
Probable space group: C M C A
;
_chemical_formula_sum "Si O2"
_cell_formula_units_Z 72
_cell_length_a 33.980085
_cell_length_b 24.594198
_cell_length_c 5.045432
_cell_angle_alpha 90.000000
_cell_angle_beta 90.000000
_cell_angle_gamma 90.000000
_cell_volume 4216.532803
_symmetry_space_group_name_H-M "C M C A"
_symmetry_group_IT_number 64
_symmetry_cell_setting 'orthorhombic'
loop_
_space_group_symop_operation_xyz
x,y,z
-x,1/2-y,1/2+z
x,-y,-z
-x,1/2+y,1/2-z
-x,-y,-z
x,1/2+y,1/2-z
-x,y,z
x,1/2-y,1/2+z
1/2+x,1/2+y,z
1/2-x,-y,1/2+z
1/2+x,1/2-y,-z
1/2-x,y,1/2-z
1/2-x,1/2-y,-z
1/2+x,y,1/2-z
1/2-x,1/2+y,z
1/2+x,-y,1/2+z
loop_
_atom_site_type_symbol
_atom_site_label
_atom_site_fract_x
_atom_site_fract_y
_atom_site_fract_z
Si Si1 0.792605 0.460030 0.749157
Si Si2 0.546701 0.214950 0.070157
Si Si3 0.622780 0.438369 0.885759
Si Si4 0.500000 0.960538 0.249464
Si Si5 0.420819 0.397817 0.376125
O O1 0.789921 0.500000 0.500000
O O2 0.750000 0.430993 0.750000
O O3 0.832605 0.426995 0.708716
O O4 0.797533 0.500000 0.000000
O O5 0.500000 0.202087 0.050142
O O6 0.554482 0.264067 0.865559
O O7 0.570504 0.162329 0.982028
O O8 0.595269 0.431339 0.629160
O O9 0.620746 0.500000 0.000000
O O10 0.609098 0.401340 0.130381
O O11 0.538809 0.923708 0.233418
O O12 0.500000 0.000000 0.500000
O O13 0.500000 0.000000 0.000000
#
# Coordination Sequence:
#
# PCOD9479973 Si02
#       5
#    16  16  16   8  16
#     4   9  17  30  48  70  99 137 174 203 239 287
#     4  10  21  38  57  72  92 124 172 227 272 297
#     4  11  21  33  51  74 109 140 168 202 246 297
#     4  12  24  34  46  68 102 140 170 194 227 294
#     4  12  22  36  51  74 101 135 175 209 252 301
#
# _framework density 17.075638999999999
#
# number of rings (size 3 to 8) (size 9 to 14) (size 15 to 20)
#    0.000    1.333    1.111    8.000    0.000    0.000 
#    0.000    0.000    0.000    0.000    0.000    0.000 
#    0.000   17.778    0.000    0.000    0.000    0.000 
#
# Total GULP energy -200997.189176 kJ/mol
# GULP energy per Si atom -5583.255255 kJ/mol
# Density = 1.703677 g / cm^3
# Si number density = 17.075639 Si / 1000 Ang^3
#
#
#
# Elastic Constant Matrix: (Units=GPa)
#
#
# Indices 1 2 3 4 5 6 
#
# 1 109.1045 24.3071 24.0522 0.0000 0.0000 0.0000
# 2 24.3071 32.9665 -3.7709 0.0000 0.0000 0.0000
# 3 24.0522 -3.7709 101.1480 0.0000 0.0000 0.0000
# 4 0.0000 0.0000 0.0000 16.0769 0.0000 0.0000
# 5 0.0000 0.0000 0.0000 0.0000 24.9666 0.0000
# 6 0.0000 0.0000 0.0000 0.0000 0.0000 2.8019
#
#
#
# Elastic Compliance Matrix: (Units=1/GPa)
#
#
# Indices 1 2 3 4 5 6 
#
# 1 0.011900 -0.009137 -0.003170 0.000000 0.000000 0.000000
# 2 -0.009137 0.037479 0.003570 0.000000 0.000000 0.000000
# 3 -0.003170 0.003570 0.010773 0.000000 0.000000 0.000000
# 4 0.000000 0.000000 0.000000 0.062201 0.000000 0.000000
# 5 0.000000 0.000000 0.000000 0.000000 0.040054 0.000000
# 6 0.000000 0.000000 0.000000 0.000000 0.000000 0.356897
#
#
# Mechanical properties :
#
#
# Convention : Reuss Voigt Hill
#
# Bulk Modulus (GPa) = 23.43132 36.93288 30.18210
# Shear Modulus (GPa) = 9.07434 22.01112 15.54273
#
# Velocity S-wave (km/s) = 2.30776 3.59421 3.02027
# Velocity P-wave (km/s) = 4.56649 6.23702 5.46595
#
# Compressibility (1/GPa) = 0.04267792
#
# Stress axis : x y z
#
# Youngs Moduli (GPa) = 84.03355 26.68160 92.82055
#
# Poissons Ratio (x) = 0.24379 0.29427
# Poissons Ratio (y) = 0.76780 -0.33136
# Poissons Ratio (z) = 0.26642 -0.09525
#
# Static dielectric constant tensor:
#      x y z
#    x 1.640840 0.000000 0.000000 
#    y 0.000000 1.550570 0.000000 
#    z 0.000000 0.000000 1.579800 
# 
# From -- ./inp_files/3252.got.cif
#   From: 2010.05.17/outbox.cif.g08.bks.cpg/sg64_2_cif.got.tgz:3252.got - 2010.06.03 16:29:19.
