data_PCOD9479936
_publ_section_title
;
Structure prediction by ZEFSAII (Michael W. Deem and Ramdas Pophale) SiO2 
 PCOD9479936
Probable space group: C M C A
;
_chemical_formula_sum "Si O2"
_cell_formula_units_Z 88
_cell_length_a 16.314479
_cell_length_b 32.834028
_cell_length_c 8.173700
_cell_angle_alpha 90.000000
_cell_angle_beta 90.000000
_cell_angle_gamma 90.000000
_cell_volume 4378.406372
_symmetry_space_group_name_H-M "C M C A"
_symmetry_group_IT_number 64
_symmetry_cell_setting 'orthorhombic'
loop_
_space_group_symop_operation_xyz
x,y,z
-x,1/2-y,1/2+z
x,-y,-z
-x,1/2+y,1/2-z
-x,-y,-z
x,1/2+y,1/2-z
-x,y,z
x,1/2-y,1/2+z
1/2+x,1/2+y,z
1/2-x,-y,1/2+z
1/2+x,1/2-y,-z
1/2-x,y,1/2-z
1/2-x,1/2-y,-z
1/2+x,y,1/2-z
1/2-x,1/2+y,z
1/2+x,-y,1/2+z
loop_
_atom_site_type_symbol
_atom_site_label
_atom_site_fract_x
_atom_site_fract_y
_atom_site_fract_z
Si Si1 0.591060 0.191596 0.460085
Si Si2 0.408569 0.218674 0.084281
Si Si3 0.735418 0.835875 0.062235
Si Si4 0.591779 0.982359 0.815287
Si Si5 0.800605 0.500000 0.500000
Si Si6 0.297568 0.418138 0.587965
O O1 0.500000 0.173623 0.496103
O O2 0.600341 0.232846 0.565708
O O3 0.590341 0.206152 0.272949
O O4 0.673588 0.165984 0.484067
O O5 0.500000 0.208406 0.014465
O O6 0.331227 0.195830 0.006070
O O7 0.750000 0.826988 0.250000
O O8 0.699433 0.880981 0.034577
O O9 0.500000 0.987257 0.756445
O O10 0.617154 0.935607 0.844790
O O11 0.649264 0.000423 0.671677
O O12 0.596435 0.000000 0.000000
O O13 0.748906 0.541869 0.483493
O O14 0.250000 0.404175 0.750000
#
# Coordination Sequence:
#
# PCOD9479936 Si02
#       6
#    16  16  16  16   8  16
#     4  10  21  40  63  88 119 158 204 252 305 365
#     4  10  21  39  64  87 119 159 201 254 305 362
#     4  12  25  37  59  90 124 161 204 249 307 367
#     4  10  21  37  62  91 118 152 201 252 300 363
#     4  10  21  40  65  84 118 162 202 246 305 372
#     4  10  22  39  61  85 117 158 199 246 301 359
#
# _framework density 20.098637
#
# number of rings (size 3 to 8) (size 9 to 14) (size 15 to 20)
#    0.000    1.636    0.909    3.545    2.545    2.909 
#    0.000    6.364    0.000    0.000    0.000    0.000 
#    0.000    0.000    0.000    0.000    0.000    0.000 
#
# Total GULP energy -245341.587099 kJ/mol
# GULP energy per Si atom -5575.945161 kJ/mol
# Density = 2.005289 g / cm^3
# Si number density = 20.098637 Si / 1000 Ang^3
#
#
#
# Elastic Constant Matrix: (Units=GPa)
#
#
# Indices 1 2 3 4 5 6 
#
# 1 86.0771 16.4344 14.9398 0.0000 0.0000 0.0000
# 2 16.4344 35.7552 -2.2074 0.0000 0.0000 0.0000
# 3 14.9398 -2.2074 66.1495 0.0000 0.0000 0.0000
# 4 0.0000 0.0000 0.0000 1.7835 0.0000 0.0000
# 5 0.0000 0.0000 0.0000 0.0000 18.6977 0.0000
# 6 0.0000 0.0000 0.0000 0.0000 0.0000 7.4684
#
#
#
# Elastic Compliance Matrix: (Units=1/GPa)
#
#
# Indices 1 2 3 4 5 6 
#
# 1 0.013393 -0.006356 -0.003237 0.000000 0.000000 0.000000
# 2 -0.006356 0.031042 0.002471 0.000000 0.000000 0.000000
# 3 -0.003237 0.002471 0.015931 0.000000 0.000000 0.000000
# 4 0.000000 0.000000 0.000000 0.560687 0.000000 0.000000
# 5 0.000000 0.000000 0.000000 0.000000 0.053482 0.000000
# 6 0.000000 0.000000 0.000000 0.000000 0.000000 0.133898
#
#
# Mechanical properties :
#
#
# Convention : Reuss Voigt Hill
#
# Bulk Modulus (GPa) = 21.68118 27.36837 24.52477
# Shear Modulus (GPa) = 5.96624 16.17760 11.07192
#
# Velocity S-wave (km/s) = 1.72480 2.84017 2.34963
# Velocity P-wave (km/s) = 3.84413 4.93984 4.42602
#
# Compressibility (1/GPa) = 0.04612296
#
# Stress axis : x y z
#
# Youngs Moduli (GPa) = 74.66730 32.21465 62.77163
#
# Poissons Ratio (x) = 0.20474 0.20318
# Poissons Ratio (y) = 0.47456 -0.15513
# Poissons Ratio (z) = 0.24168 -0.07961
#
# Static dielectric constant tensor:
#      x y z
#    x 1.780540 0.000000 0.000000 
#    y 0.000000 1.694400 0.000000 
#    z 0.000000 0.000000 1.732080 
# 
# From -- ./inp_files/7337.got.cif
#   From: 2010.05.17/outbox.cif.g08.bks.cpg/sg64_4_cif.got.tgz:7337.got - 2010.06.03 16:29:19.
