data_PCOD9479254
_publ_section_title
;
Structure prediction by ZEFSAII (Michael W. Deem and Ramdas Pophale) SiO2 
 PCOD9479254
Probable space group: C M C A
;
_chemical_formula_sum "Si O2"
_cell_formula_units_Z 104
_cell_length_a 24.445949
_cell_length_b 23.908740
_cell_length_c 8.679548
_cell_angle_alpha 90.000000
_cell_angle_beta 90.000000
_cell_angle_gamma 90.000000
_cell_volume 5072.951379
_symmetry_space_group_name_H-M "C M C A"
_symmetry_group_IT_number 64
_symmetry_cell_setting 'orthorhombic'
loop_
_space_group_symop_operation_xyz
x,y,z
-x,1/2-y,1/2+z
x,-y,-z
-x,1/2+y,1/2-z
-x,-y,-z
x,1/2+y,1/2-z
-x,y,z
x,1/2-y,1/2+z
1/2+x,1/2+y,z
1/2-x,-y,1/2+z
1/2+x,1/2-y,-z
1/2-x,y,1/2-z
1/2-x,1/2-y,-z
1/2+x,y,1/2-z
1/2-x,1/2+y,z
1/2+x,-y,1/2+z
loop_
_atom_site_type_symbol
_atom_site_label
_atom_site_fract_x
_atom_site_fract_y
_atom_site_fract_z
Si Si1 0.829999 0.085745 0.913164
Si Si2 0.938370 0.696159 0.989152
Si Si3 0.114920 0.000000 0.500000
Si Si4 0.061548 0.412058 0.223892
Si Si5 0.704554 0.702330 0.961924
Si Si6 0.811966 0.533544 0.265878
Si Si7 0.369427 0.226167 0.266308
O O1 0.890023 0.099768 0.845157
O O2 0.810456 0.032135 0.814817
O O3 0.788097 0.138191 0.908316
O O4 0.837155 0.064777 0.087946
O O5 0.939366 0.639689 0.892788
O O6 0.911533 0.742068 0.877542
O O7 0.000000 0.712487 0.032072
O O8 0.901605 0.690733 0.140582
O O9 0.078836 0.965113 0.379633
O O10 0.154362 0.962293 0.607897
O O11 0.000000 0.418788 0.288628
O O12 0.671412 0.694898 0.120541
O O13 0.750000 0.750000 0.000000
O O14 0.666554 0.729856 0.831090
O O15 0.750000 0.553645 0.250000
#
# Coordination Sequence:
#
# PCOD9479254 Si02
#       7
#    16  16   8  16  16  16  16
#     4  10  22  42  62  90 129 161 214 257 310 388
#     4  10  20  38  62  87 118 163 206 257 313 363
#     4  10  21  38  64  94 130 154 219 266 314 372
#     4  10  21  40  64  92 125 167 205 261 323 372
#     4  11  23  40  59  88 126 168 200 254 312 372
#     4  10  22  41  64  93 120 171 209 262 321 370
#     4  10  22  38  57  87 124 154 215 249 307 365
#
# _framework density 20.500886999999999
#
# number of rings (size 3 to 8) (size 9 to 14) (size 15 to 20)
#    0.000    1.846    1.538    2.077    2.154    2.462 
#    5.538    7.692    0.000    0.000    0.000    0.000 
#    0.000    0.000    0.000    0.000    0.000    0.000 
#
# Total GULP energy -290133.873975 kJ/mol
# GULP energy per Si atom -5579.497576 kJ/mol
# Density = 2.045423 g / cm^3
# Si number density = 20.500887 Si / 1000 Ang^3
#
#
#
# Elastic Constant Matrix: (Units=GPa)
#
#
# Indices 1 2 3 4 5 6 
#
# 1 92.1234 27.1969 37.6738 0.0000 0.0000 0.0000
# 2 27.1969 75.9755 6.1721 0.0000 0.0000 0.0000
# 3 37.6738 6.1721 98.3419 0.0000 0.0000 0.0000
# 4 0.0000 0.0000 0.0000 10.5444 0.0000 0.0000
# 5 0.0000 0.0000 0.0000 0.0000 30.5646 0.0000
# 6 0.0000 0.0000 0.0000 0.0000 0.0000 17.7545
#
#
#
# Elastic Compliance Matrix: (Units=1/GPa)
#
#
# Indices 1 2 3 4 5 6 
#
# 1 0.014382 -0.004725 -0.005213 0.000000 0.000000 0.000000
# 2 -0.004725 0.014782 0.000882 0.000000 0.000000 0.000000
# 3 -0.005213 0.000882 0.012110 0.000000 0.000000 0.000000
# 4 0.000000 0.000000 0.000000 0.094837 0.000000 0.000000
# 5 0.000000 0.000000 0.000000 0.000000 0.032718 0.000000
# 6 0.000000 0.000000 0.000000 0.000000 0.000000 0.056324
#
#
# Mechanical properties :
#
#
# Convention : Reuss Voigt Hill
#
# Bulk Modulus (GPa) = 43.17246 45.39182 44.28214
# Shear Modulus (GPa) = 19.92161 24.79924 22.36043
#
# Velocity S-wave (km/s) = 3.12066 3.48180 3.30617
# Velocity P-wave (km/s) = 5.83860 6.19301 6.01841
#
# Compressibility (1/GPa) = 0.02316291
#
# Stress axis : x y z
#
# Youngs Moduli (GPa) = 69.53290 67.65094 82.57466
#
# Poissons Ratio (x) = 0.31963 0.43046
# Poissons Ratio (y) = 0.32852 -0.07285
# Poissons Ratio (z) = 0.36247 -0.05969
#
# Static dielectric constant tensor:
#      x y z
#    x 1.749520 0.000000 0.000000 
#    y 0.000000 1.768110 0.000000 
#    z 0.000000 0.000000 1.706370 
# 
# From -- ./inp_files/10422.got.cif
#   From: 2010.05.17/outbox.cif.g08.bks.cpg/sg64_6_cif.got.tgz:10422.got - 2010.06.03 16:29:19.
