data_PCOD9479744
_publ_section_title
;
Structure prediction by ZEFSAII (Michael W. Deem and Ramdas Pophale) SiO2 
 PCOD9479744
Probable space group: C M C A
;
_chemical_formula_sum "Si O2"
_cell_formula_units_Z 64
_cell_length_a 10.729399
_cell_length_b 17.098386
_cell_length_c 16.384741
_cell_angle_alpha 90.000000
_cell_angle_beta 90.000000
_cell_angle_gamma 90.000000
_cell_volume 3005.869307
_symmetry_space_group_name_H-M "C M C A"
_symmetry_group_IT_number 64
_symmetry_cell_setting 'orthorhombic'
loop_
_space_group_symop_operation_xyz
x,y,z
-x,1/2-y,1/2+z
x,-y,-z
-x,1/2+y,1/2-z
-x,-y,-z
x,1/2+y,1/2-z
-x,y,z
x,1/2-y,1/2+z
1/2+x,1/2+y,z
1/2-x,-y,1/2+z
1/2+x,1/2-y,-z
1/2-x,y,1/2-z
1/2-x,1/2-y,-z
1/2+x,y,1/2-z
1/2-x,1/2+y,z
1/2+x,-y,1/2+z
loop_
_atom_site_type_symbol
_atom_site_label
_atom_site_fract_x
_atom_site_fract_y
_atom_site_fract_z
Si Si1 0.244113 0.329207 0.447052
Si Si2 0.360221 0.575490 0.683889
Si Si3 0.857327 0.084529 0.414951
Si Si4 0.365888 0.742161 0.309806
O O1 0.250000 0.250000 0.500000
O O2 0.350462 0.355186 0.382847
O O3 0.255959 0.396786 0.515143
O O4 0.138191 0.307193 0.381677
O O5 0.500000 0.572909 0.719046
O O6 0.250000 0.580962 0.750000
O O7 0.339173 0.495169 0.633775
O O8 0.854077 0.157852 0.353274
O O9 0.000000 0.083484 0.449265
O O10 0.500000 0.745681 0.267732
O O11 0.250000 0.750209 0.250000
#
# Coordination Sequence:
#
# PCOD9479744 Si02
#       4
#    16  16  16  16
#     4  10  21  36  57  87 120 154 196 246 298 351
#     4  11  23  40  64  92 122 158 201 249 302 360
#     4   9  19  38  62  88 118 157 205 252 300 357
#     4  10  21  37  58  86 121 160 203 250 301 358
#
# _framework density 21.291678000000001
#
# number of rings (size 3 to 8) (size 9 to 14) (size 15 to 20)
#    0.000    2.000    0.000    3.000    0.000    8.000 
#    0.000    5.000    0.000    3.000    0.000    0.000 
#    0.000    0.000    0.000    0.000    0.000    0.000 
#
# Total GULP energy -178135.916200 kJ/mol
# GULP energy per Si atom -5566.747381 kJ/mol
# Density = 2.124322 g / cm^3
# Si number density = 21.291678 Si / 1000 Ang^3
#
#
#
# Elastic Constant Matrix: (Units=GPa)
#
#
# Indices 1 2 3 4 5 6 
#
# 1 153.7878 38.5617 77.8570 0.0000 0.0000 0.0000
# 2 38.5617 114.6109 52.7855 0.0000 0.0000 0.0000
# 3 77.8570 52.7855 107.4364 0.0000 0.0000 0.0000
# 4 0.0000 0.0000 0.0000 48.3621 0.0000 0.0000
# 5 0.0000 0.0000 0.0000 0.0000 33.5737 0.0000
# 6 0.0000 0.0000 0.0000 0.0000 0.0000 15.9308
#
#
#
# Elastic Compliance Matrix: (Units=1/GPa)
#
#
# Indices 1 2 3 4 5 6 
#
# 1 0.010271 -0.000036 -0.007425 0.000000 0.000000 0.000000
# 2 -0.000036 0.011277 -0.005515 0.000000 0.000000 0.000000
# 3 -0.007425 -0.005515 0.017398 0.000000 0.000000 0.000000
# 4 0.000000 0.000000 0.000000 0.020677 0.000000 0.000000
# 5 0.000000 0.000000 0.000000 0.000000 0.029785 0.000000
# 6 0.000000 0.000000 0.000000 0.000000 0.000000 0.062771
#
#
# Mechanical properties :
#
#
# Convention : Reuss Voigt Hill
#
# Bulk Modulus (GPa) = 76.95650 79.36037 78.15844
# Shear Modulus (GPa) = 27.40283 33.34873 30.37578
#
# Velocity S-wave (km/s) = 3.59140 3.96192 3.78120
# Velocity P-wave (km/s) = 7.30889 7.63433 7.47338
#
# Compressibility (1/GPa) = 0.01299435
#
# Stress axis : x y z
#
# Youngs Moduli (GPa) = 97.36532 88.67542 57.47698
#
# Poissons Ratio (x) = 0.00318 0.42678
# Poissons Ratio (y) = 0.00349 0.31697
# Poissons Ratio (z) = 0.72297 0.48902
#
# Static dielectric constant tensor:
#      x y z
#    x 1.756370 0.000000 0.000000 
#    y 0.000000 1.803580 0.000000 
#    z 0.000000 0.000000 1.797760 
# 
# From -- ./inp_files/21954.got.cif
#   From: 2010.05.17/outbox.cif.g08.bks.cpg/sg64_11_cif.got.tgz:21954.got - 2010.06.03 16:29:19.
