data_PCOD9479235
_publ_section_title
;
Structure prediction by ZEFSAII (Michael W. Deem and Ramdas Pophale) SiO2 
 PCOD9479235
Probable space group: C M C A
;
_chemical_formula_sum "Si O2"
_cell_formula_units_Z 128
_cell_length_a 13.038412
_cell_length_b 21.090850
_cell_length_c 20.993115
_cell_angle_alpha 90.000000
_cell_angle_beta 90.000000
_cell_angle_gamma 90.000000
_cell_volume 5772.921712
_symmetry_space_group_name_H-M "C M C A"
_symmetry_group_IT_number 64
_symmetry_cell_setting 'orthorhombic'
loop_
_space_group_symop_operation_xyz
x,y,z
-x,1/2-y,1/2+z
x,-y,-z
-x,1/2+y,1/2-z
-x,-y,-z
x,1/2+y,1/2-z
-x,y,z
x,1/2-y,1/2+z
1/2+x,1/2+y,z
1/2-x,-y,1/2+z
1/2+x,1/2-y,-z
1/2-x,y,1/2-z
1/2-x,1/2-y,-z
1/2+x,y,1/2-z
1/2-x,1/2+y,z
1/2+x,-y,1/2+z
loop_
_atom_site_type_symbol
_atom_site_label
_atom_site_fract_x
_atom_site_fract_y
_atom_site_fract_z
Si Si1 0.618591 0.860303 0.296448
Si Si2 0.886240 0.948122 0.445210
Si Si3 0.625698 0.724035 0.263287
Si Si4 0.112432 0.834810 0.599954
Si Si5 0.116941 0.503950 0.281587
Si Si6 0.692156 0.543588 0.348842
Si Si7 0.764311 0.165890 0.926850
Si Si8 0.114893 0.757292 0.978707
O O1 0.500000 0.859876 0.317388
O O2 0.630931 0.799494 0.251076
O O3 0.636099 0.929494 0.265951
O O4 0.685642 0.849531 0.359368
O O5 0.804052 0.893453 0.446120
O O6 0.000000 0.920417 0.449856
O O7 0.872632 0.000000 0.500000
O O8 0.872530 0.988692 0.381695
O O9 0.500000 0.705818 0.242493
O O10 0.750000 0.701539 0.250000
O O11 0.618509 0.710404 0.338789
O O12 0.188827 0.892195 0.611501
O O13 0.117574 0.794993 0.535772
O O14 0.000000 0.866454 0.601360
O O15 0.192622 0.521069 0.338267
O O16 0.144313 0.548758 0.221841
O O17 0.000000 0.511928 0.298743
O O18 0.844050 0.181759 0.983452
O O19 0.690962 0.228445 0.926263
O O20 0.000000 0.764975 0.955312
#
# Coordination Sequence:
#
# PCOD9479235 Si02
#       8
#    16  16  16  16  16  16  16  16
#     4  10  20  39  62  86 120 162 202 250 314 388
#     4  11  23  39  60  91 126 159 200 257 317 369
#     4  10  22  38  61  88 119 160 209 258 316 379
#     4  10  20  38  61  85 116 161 208 249 310 385
#     4  10  22  38  60  87 119 162 204 249 308 374
#     4  11  22  37  60  87 120 158 206 254 304 375
#     4  11  20  35  62  90 115 156 204 253 302 371
#     4  10  21  38  62  89 118 158 204 254 312 374
#
# _framework density 22.172481999999999
#
# number of rings (size 3 to 8) (size 9 to 14) (size 15 to 20)
#    0.000    1.625    2.500    2.625    3.500    2.000 
#    0.000    1.250    0.000   12.375    0.000    0.000 
#    0.000    0.000    0.000    0.000    0.000    0.000 
#
# Total GULP energy -356781.590184 kJ/mol
# GULP energy per Si atom -5574.712347 kJ/mol
# Density = 2.212202 g / cm^3
# Si number density = 22.172482 Si / 1000 Ang^3
#
#
#
# Elastic Constant Matrix: (Units=GPa)
#
#
# Indices 1 2 3 4 5 6 
#
# 1 148.6009 13.0992 20.7242 0.0000 0.0000 0.0000
# 2 13.0992 58.3022 0.7633 0.0000 0.0000 0.0000
# 3 20.7242 0.7633 44.5392 0.0000 0.0000 0.0000
# 4 0.0000 0.0000 0.0000 23.7882 0.0000 0.0000
# 5 0.0000 0.0000 0.0000 0.0000 24.5704 0.0000
# 6 0.0000 0.0000 0.0000 0.0000 0.0000 31.8263
#
#
#
# Elastic Compliance Matrix: (Units=1/GPa)
#
#
# Indices 1 2 3 4 5 6 
#
# 1 0.007344 -0.001606 -0.003390 0.000000 0.000000 0.000000
# 2 -0.001606 0.017507 0.000447 0.000000 0.000000 0.000000
# 3 -0.003390 0.000447 0.024022 0.000000 0.000000 0.000000
# 4 0.000000 0.000000 0.000000 0.042038 0.000000 0.000000
# 5 0.000000 0.000000 0.000000 0.000000 0.040699 0.000000
# 6 0.000000 0.000000 0.000000 0.000000 0.000000 0.031421
#
#
# Mechanical properties :
#
#
# Convention : Reuss Voigt Hill
#
# Bulk Modulus (GPa) = 25.14072 35.62397 30.38235
# Shear Modulus (GPa) = 26.97095 30.49401 28.73248
#
# Velocity S-wave (km/s) = 3.49150 3.71254 3.60371
# Velocity P-wave (km/s) = 5.25523 5.87187 5.57209
#
# Compressibility (1/GPa) = 0.03977610
#
# Stress axis : x y z
#
# Youngs Moduli (GPa) = 136.17162 57.12035 41.62917
#
# Poissons Ratio (x) = 0.09171 0.14110
# Poissons Ratio (y) = 0.21864 -0.01861
# Poissons Ratio (z) = 0.46156 -0.02554
#
# Static dielectric constant tensor:
#      x y z
#    x 1.921650 0.000000 0.000000 
#    y 0.000000 1.838100 0.000000 
#    z 0.000000 0.000000 1.817830 
# 
# From -- ./inp_files/44583.got.cif
#   From: 2010.05.17/outbox.cif.g08.bks.cpg/sg64_23_cif.got.tgz:44583.got - 2010.06.03 16:29:19.
