data_PCOD9479076
_publ_section_title
;
Structure prediction by ZEFSAII (Michael W. Deem and Ramdas Pophale) SiO2 
 PCOD9479076
Probable space group: C M C A
;
_chemical_formula_sum "Si O2"
_cell_formula_units_Z 80
_cell_length_a 23.459222
_cell_length_b 12.341739
_cell_length_c 13.644328
_cell_angle_alpha 90.000000
_cell_angle_beta 90.000000
_cell_angle_gamma 90.000000
_cell_volume 3950.409472
_symmetry_space_group_name_H-M "C M C A"
_symmetry_group_IT_number 64
_symmetry_cell_setting 'orthorhombic'
loop_
_space_group_symop_operation_xyz
x,y,z
-x,1/2-y,1/2+z
x,-y,-z
-x,1/2+y,1/2-z
-x,-y,-z
x,1/2+y,1/2-z
-x,y,z
x,1/2-y,1/2+z
1/2+x,1/2+y,z
1/2-x,-y,1/2+z
1/2+x,1/2-y,-z
1/2-x,y,1/2-z
1/2-x,1/2-y,-z
1/2+x,y,1/2-z
1/2-x,1/2+y,z
1/2+x,-y,1/2+z
loop_
_atom_site_type_symbol
_atom_site_label
_atom_site_fract_x
_atom_site_fract_y
_atom_site_fract_z
Si Si1 0.377901 0.764053 0.932334
Si Si2 0.377221 0.036255 0.218615
Si Si3 0.307635 0.101115 0.924614
Si Si4 0.181776 0.551132 0.607358
Si Si5 0.000000 0.991615 0.328147
Si Si6 0.500000 0.826954 0.001448
O O1 0.374113 0.856567 0.848542
O O2 0.362783 0.648799 0.888417
O O3 0.440470 0.766930 0.981041
O O4 0.330738 0.797203 0.014376
O O5 0.353188 0.935631 0.155387
O O6 0.337242 0.037575 0.313352
O O7 0.443521 0.011413 0.234393
O O8 0.244721 0.102134 0.879228
O O9 0.306920 0.000000 0.000000
O O10 0.180179 0.500000 0.500000
O O11 0.000000 0.880144 0.390371
O O12 0.000000 0.078954 0.417632
#
# Coordination Sequence:
#
# PCOD9479076 Si02
#       6
#    16  16  16  16   8   8
#     4  10  20  37  62  87 114 151 200 245 293 343
#     4  10  20  37  60  86 112 149 198 241 287 346
#     4   9  18  36  61  86 111 149 196 241 285 342
#     4  11  24  38  54  85 128 158 187 237 296 353
#     4   9  16  33  62  87 109 137 194 254 280 332
#     4   9  16  33  62  91 105 143 199 247 290 339
#
# _framework density 20.251066000000002
#
# number of rings (size 3 to 8) (size 9 to 14) (size 15 to 20)
#    0.000    2.200    2.000    1.200    0.000    2.400 
#    0.000    8.000    0.000    0.000    0.000    0.000 
#    0.000    0.000    0.000    0.000    0.000    0.000 
#
# Total GULP energy -223131.264392 kJ/mol
# GULP energy per Si atom -5578.281610 kJ/mol
# Density = 2.020497 g / cm^3
# Si number density = 20.251066 Si / 1000 Ang^3
#
#
#
# Elastic Constant Matrix: (Units=GPa)
#
#
# Indices 1 2 3 4 5 6 
#
# 1 145.6858 15.2400 23.4067 0.0000 0.0000 0.0000
# 2 15.2400 41.1799 -4.7109 0.0000 0.0000 0.0000
# 3 23.4067 -4.7109 59.1584 0.0000 0.0000 0.0000
# 4 0.0000 0.0000 0.0000 15.4628 0.0000 0.0000
# 5 0.0000 0.0000 0.0000 0.0000 14.9910 0.0000
# 6 0.0000 0.0000 0.0000 0.0000 0.0000 18.9383
#
#
#
# Elastic Compliance Matrix: (Units=1/GPa)
#
#
# Indices 1 2 3 4 5 6 
#
# 1 0.007737 -0.003243 -0.003319 0.000000 0.000000 0.000000
# 2 -0.003243 0.025866 0.003343 0.000000 0.000000 0.000000
# 3 -0.003319 0.003343 0.018483 0.000000 0.000000 0.000000
# 4 0.000000 0.000000 0.000000 0.064671 0.000000 0.000000
# 5 0.000000 0.000000 0.000000 0.000000 0.066707 0.000000
# 6 0.000000 0.000000 0.000000 0.000000 0.000000 0.052803
#
#
# Mechanical properties :
#
#
# Convention : Reuss Voigt Hill
#
# Bulk Modulus (GPa) = 21.90701 34.87729 28.39215
# Shear Modulus (GPa) = 19.38571 24.01764 21.70167
#
# Velocity S-wave (km/s) = 3.09733 3.44756 3.27713
# Velocity P-wave (km/s) = 4.86133 5.75390 5.32634
#
# Compressibility (1/GPa) = 0.04564750
#
# Stress axis : x y z
#
# Youngs Moduli (GPa) = 129.25532 38.66037 54.10286
#
# Poissons Ratio (x) = 0.12537 0.17959
# Poissons Ratio (y) = 0.41916 -0.18086
# Poissons Ratio (z) = 0.42904 -0.12924
#
# Static dielectric constant tensor:
#      x y z
#    x 1.746490 0.000000 0.000000 
#    y 0.000000 1.719310 0.000000 
#    z 0.000000 0.000000 1.756960 
# 
# From -- ./inp_files/18118.got.cif
#   From: 2010.05.17/outbox.cif.g08.bks.cpg/sg64_10_cif.got.tgz:18118.got - 2010.06.03 16:29:19.
