data_PCOD9479414
_publ_section_title
;
Structure prediction by ZEFSAII (Michael W. Deem and Ramdas Pophale) SiO2 
 PCOD9479414
Probable space group: C M C A
;
_chemical_formula_sum "Si O2"
_cell_formula_units_Z 80
_cell_length_a 24.756791
_cell_length_b 13.985766
_cell_length_c 11.392459
_cell_angle_alpha 90.000000
_cell_angle_beta 90.000000
_cell_angle_gamma 90.000000
_cell_volume 3944.555602
_symmetry_space_group_name_H-M "C M C A"
_symmetry_group_IT_number 64
_symmetry_cell_setting 'orthorhombic'
loop_
_space_group_symop_operation_xyz
x,y,z
-x,1/2-y,1/2+z
x,-y,-z
-x,1/2+y,1/2-z
-x,-y,-z
x,1/2+y,1/2-z
-x,y,z
x,1/2-y,1/2+z
1/2+x,1/2+y,z
1/2-x,-y,1/2+z
1/2+x,1/2-y,-z
1/2-x,y,1/2-z
1/2-x,1/2-y,-z
1/2+x,y,1/2-z
1/2-x,1/2+y,z
1/2+x,-y,1/2+z
loop_
_atom_site_type_symbol
_atom_site_label
_atom_site_fract_x
_atom_site_fract_y
_atom_site_fract_z
Si Si1 0.125997 0.802781 0.557260
Si Si2 0.562788 0.101454 0.254940
Si Si3 0.257350 0.315631 0.616920
Si Si4 0.352365 0.394397 0.954533
Si Si5 0.939004 0.922178 0.393972
O O1 0.079034 0.829604 0.647462
O O2 0.181368 0.852247 0.602165
O O3 0.139461 0.690955 0.548154
O O4 0.105668 0.845917 0.433062
O O5 0.500000 0.111414 0.282745
O O6 0.602290 0.125868 0.358863
O O7 0.572457 0.990894 0.215756
O O8 0.250000 0.274209 0.750000
O O9 0.250000 0.250000 0.500000
O O10 0.207415 0.387565 0.601564
O O11 0.360676 0.500000 0.000000
O O12 0.000000 0.881765 0.383773
O O13 0.940311 0.000000 0.500000
#
# Coordination Sequence:
#
# PCOD9479414 Si02
#       5
#    16  16  16  16  16
#     4  10  20  39  66  88 121 164 215 261 315 383
#     4  10  21  39  63  90 124 163 211 268 321 381
#     4  10  21  43  68  94 127 166 213 266 321 384
#     4  11  25  41  57  92 132 166 206 265 326 389
#     4   8  16  33  59  91 117 150 207 261 306 367
#
# _framework density 20.281119
#
# number of rings (size 3 to 8) (size 9 to 14) (size 15 to 20)
#    0.000    2.200    2.000    1.800    0.000    6.000 
#    3.600    3.000    0.000    0.000    0.000    0.000 
#    0.000    0.000    0.000    0.000    0.000    0.000 
#
# Total GULP energy -222789.989556 kJ/mol
# GULP energy per Si atom -5569.749739 kJ/mol
# Density = 2.023496 g / cm^3
# Si number density = 20.281119 Si / 1000 Ang^3
#
#
#
# Elastic Constant Matrix: (Units=GPa)
#
#
# Indices 1 2 3 4 5 6 
#
# 1 109.6916 26.7784 11.4941 0.0000 0.0000 0.0000
# 2 26.7784 83.1093 11.0274 0.0000 0.0000 0.0000
# 3 11.4941 11.0274 59.3270 0.0000 0.0000 0.0000
# 4 0.0000 0.0000 0.0000 21.1478 0.0000 0.0000
# 5 0.0000 0.0000 0.0000 0.0000 17.1034 0.0000
# 6 0.0000 0.0000 0.0000 0.0000 0.0000 18.7735
#
#
#
# Elastic Compliance Matrix: (Units=1/GPa)
#
#
# Indices 1 2 3 4 5 6 
#
# 1 0.010003 -0.003041 -0.001373 0.000000 0.000000 0.000000
# 2 -0.003041 0.013261 -0.001876 0.000000 0.000000 0.000000
# 3 -0.001373 -0.001876 0.017470 0.000000 0.000000 0.000000
# 4 0.000000 0.000000 0.000000 0.047286 0.000000 0.000000
# 5 0.000000 0.000000 0.000000 0.000000 0.058468 0.000000
# 6 0.000000 0.000000 0.000000 0.000000 0.000000 0.053266
#
#
# Mechanical properties :
#
#
# Convention : Reuss Voigt Hill
#
# Bulk Modulus (GPa) = 35.51711 38.96975 37.24343
# Shear Modulus (GPa) = 22.55115 24.92682 23.73899
#
# Velocity S-wave (km/s) = 3.33818 3.50961 3.42496
# Velocity P-wave (km/s) = 5.69283 5.97324 5.83472
#
# Compressibility (1/GPa) = 0.02815544
#
# Stress axis : x y z
#
# Youngs Moduli (GPa) = 99.97366 75.40916 57.23987
#
# Poissons Ratio (x) = 0.22930 0.07857
# Poissons Ratio (y) = 0.30400 0.10737
# Poissons Ratio (z) = 0.13724 0.14145
#
# Static dielectric constant tensor:
#      x y z
#    x 1.757130 0.000000 0.000000 
#    y 0.000000 1.745800 0.000000 
#    z 0.000000 0.000000 1.799960 
# 
# From -- ./inp_files/18095.got.cif
#   From: 2010.05.17/outbox.cif.g08.bks.cpg/sg64_10_cif.got.tgz:18095.got - 2010.06.03 16:29:19.
