data_PCOD9479903
_publ_section_title
;
Structure prediction by ZEFSAII (Michael W. Deem and Ramdas Pophale) SiO2 
 PCOD9479903
Probable space group: C M C A
;
_chemical_formula_sum "Si O2"
_cell_formula_units_Z 96
_cell_length_a 18.323070
_cell_length_b 23.352987
_cell_length_c 11.839230
_cell_angle_alpha 90.000000
_cell_angle_beta 90.000000
_cell_angle_gamma 90.000000
_cell_volume 5065.987758
_symmetry_space_group_name_H-M "C M C A"
_symmetry_group_IT_number 64
_symmetry_cell_setting 'orthorhombic'
loop_
_space_group_symop_operation_xyz
x,y,z
-x,1/2-y,1/2+z
x,-y,-z
-x,1/2+y,1/2-z
-x,-y,-z
x,1/2+y,1/2-z
-x,y,z
x,1/2-y,1/2+z
1/2+x,1/2+y,z
1/2-x,-y,1/2+z
1/2+x,1/2-y,-z
1/2-x,y,1/2-z
1/2-x,1/2-y,-z
1/2+x,y,1/2-z
1/2-x,1/2+y,z
1/2+x,-y,1/2+z
loop_
_atom_site_type_symbol
_atom_site_label
_atom_site_fract_x
_atom_site_fract_y
_atom_site_fract_z
Si Si1 0.416568 0.279221 0.083005
Si Si2 0.135610 0.436136 0.035477
Si Si3 0.849340 0.663124 0.144690
Si Si4 0.806286 0.442231 0.438536
Si Si5 0.415796 0.389703 0.231982
Si Si6 0.816620 0.666712 0.402620
O O1 0.500000 0.289107 0.049315
O O2 0.404356 0.214474 0.120849
O O3 0.400664 0.325068 0.184519
O O4 0.364495 0.290282 0.976286
O O5 0.219100 0.443970 0.080466
O O6 0.093858 0.403103 0.135727
O O7 0.109541 0.500000 0.000000
O O8 0.136309 0.394115 0.927129
O O9 0.846530 0.654091 0.278465
O O10 0.767865 0.684368 0.109957
O O11 0.828279 0.500000 0.500000
O O12 0.856923 0.428974 0.332206
O O13 0.818169 0.390982 0.525619
O O14 0.500000 0.402386 0.201002
#
# Coordination Sequence:
#
# PCOD9479903 Si02
#       6
#    16  16  16  16  16  16
#     4  10  22  39  59  83 114 155 197 235 283 343
#     4  10  22  38  61  90 119 151 191 239 294 349
#     4  10  21  37  60  87 117 150 186 241 295 338
#     4   9  19  37  64  87 111 150 195 239 283 337
#     4  10  22  39  57  84 120 153 192 237 285 347
#     4   9  20  38  57  88 115 144 193 243 284 341
#
# _framework density 18.949908000000001
#
# number of rings (size 3 to 8) (size 9 to 14) (size 15 to 20)
#    0.000    2.333    0.000    1.000    4.667    2.000 
#    6.000    0.000    0.000    0.000    0.000    0.000 
#    0.000    0.000    0.000    0.000    0.000    0.000 
#
# Total GULP energy -267631.360178 kJ/mol
# GULP energy per Si atom -5575.653337 kJ/mol
# Density = 1.890678 g / cm^3
# Si number density = 18.949908 Si / 1000 Ang^3
#
#
#
# Elastic Constant Matrix: (Units=GPa)
#
#
# Indices 1 2 3 4 5 6 
#
# 1 30.0691 15.1571 27.4951 0.0000 0.0000 0.0000
# 2 15.1571 59.6397 19.3557 0.0000 0.0000 0.0000
# 3 27.4951 19.3557 104.1941 0.0000 0.0000 0.0000
# 4 0.0000 0.0000 0.0000 4.3142 0.0000 0.0000
# 5 0.0000 0.0000 0.0000 0.0000 14.8353 0.0000
# 6 0.0000 0.0000 0.0000 0.0000 0.0000 20.0634
#
#
#
# Elastic Compliance Matrix: (Units=1/GPa)
#
#
# Indices 1 2 3 4 5 6 
#
# 1 0.047593 -0.008534 -0.010974 0.000000 0.000000 0.000000
# 2 -0.008534 0.019373 -0.001347 0.000000 0.000000 0.000000
# 3 -0.010974 -0.001347 0.012743 0.000000 0.000000 0.000000
# 4 0.000000 0.000000 0.000000 0.231792 0.000000 0.000000
# 5 0.000000 0.000000 0.000000 0.000000 0.067407 0.000000
# 6 0.000000 0.000000 0.000000 0.000000 0.000000 0.049842
#
#
# Mechanical properties :
#
#
# Convention : Reuss Voigt Hill
#
# Bulk Modulus (GPa) = 26.31545 35.32430 30.81988
# Shear Modulus (GPa) = 10.34926 16.63559 13.49243
#
# Velocity S-wave (km/s) = 2.33949 2.96610 2.67124
# Velocity P-wave (km/s) = 4.60594 5.51468 5.08067
#
# Compressibility (1/GPa) = 0.03800049
#
# Stress axis : x y z
#
# Youngs Moduli (GPa) = 21.01155 51.61726 78.47177
#
# Poissons Ratio (x) = 0.44050 0.86112
# Poissons Ratio (y) = 0.17931 0.10570
# Poissons Ratio (z) = 0.23057 0.06952
#
# Static dielectric constant tensor:
#      x y z
#    x 1.677490 0.000000 0.000000 
#    y 0.000000 1.645820 0.000000 
#    z 0.000000 0.000000 1.665920 
# 
# From -- ./inp_files/16217.got.cif
#   From: 2010.05.17/outbox.cif.g08.bks.cpg/sg64_9_cif.got.tgz:16217.got - 2010.06.03 16:29:19.
