data_PCOD9479647
_publ_section_title
;
Structure prediction by ZEFSAII (Michael W. Deem and Ramdas Pophale) SiO2 
 PCOD9479647
Probable space group: C M C A
;
_chemical_formula_sum "Si O2"
_cell_formula_units_Z 56
_cell_length_a 20.036301
_cell_length_b 25.616531
_cell_length_c 5.301486
_cell_angle_alpha 90.000000
_cell_angle_beta 90.000000
_cell_angle_gamma 90.000000
_cell_volume 2721.043491
_symmetry_space_group_name_H-M "C M C A"
_symmetry_group_IT_number 64
_symmetry_cell_setting 'orthorhombic'
loop_
_space_group_symop_operation_xyz
x,y,z
-x,1/2-y,1/2+z
x,-y,-z
-x,1/2+y,1/2-z
-x,-y,-z
x,1/2+y,1/2-z
-x,y,z
x,1/2-y,1/2+z
1/2+x,1/2+y,z
1/2-x,-y,1/2+z
1/2+x,1/2-y,-z
1/2-x,y,1/2-z
1/2-x,1/2-y,-z
1/2+x,y,1/2-z
1/2-x,1/2+y,z
1/2+x,-y,1/2+z
loop_
_atom_site_type_symbol
_atom_site_label
_atom_site_fract_x
_atom_site_fract_y
_atom_site_fract_z
Si Si1 0.250000 0.592982 0.250000
Si Si2 0.500000 0.784951 0.762035
Si Si3 0.074381 0.444491 0.251047
Si Si4 0.397032 0.377356 0.742408
Si Si5 0.684702 0.500000 0.000000
O O1 0.316871 0.625793 0.285290
O O2 0.270440 0.550836 0.036452
O O3 0.500000 0.751185 0.015896
O O4 0.564018 0.823117 0.757584
O O5 0.085197 0.407464 0.497138
O O6 0.132584 0.487296 0.276724
O O7 0.000000 0.467270 0.261215
O O8 0.080172 0.410589 0.999662
#
# Coordination Sequence:
#
# PCOD9479647 Si02
#       5
#     8   8  16  16   8
#     4  10  22  40  60  92 134 172 208 240 306 364
#     4  12  24  44  70  95 114 151 212 266 326 384
#     4  11  20  37  60  92 133 166 216 247 296 351
#     4  11  23  41  65  90 126 165 200 263 317 365
#     4  10  21  34  60  93 130 182 212 244 276 365
#
# _framework density 20.580338999999999
#
# number of rings (size 3 to 8) (size 9 to 14) (size 15 to 20)
#    0.000    1.143    2.857    3.857    0.000    6.857 
#    0.000    8.571    0.000    0.000    0.000    0.000 
#    0.000    0.000    0.000    0.000    0.000    0.000 
#
# Total GULP energy -156516.334326 kJ/mol
# GULP energy per Si atom -5589.869083 kJ/mol
# Density = 2.053350 g / cm^3
# Si number density = 20.580339 Si / 1000 Ang^3
#
#
#
# Elastic Constant Matrix: (Units=GPa)
#
#
# Indices 1 2 3 4 5 6 
#
# 1 204.5499 52.6780 24.9108 0.0000 0.0000 0.0000
# 2 52.6780 100.2819 41.1210 0.0000 0.0000 0.0000
# 3 24.9108 41.1210 150.5549 0.0000 0.0000 0.0000
# 4 0.0000 0.0000 0.0000 43.0309 0.0000 0.0000
# 5 0.0000 0.0000 0.0000 0.0000 16.0351 0.0000
# 6 0.0000 0.0000 0.0000 0.0000 0.0000 59.0593
#
#
#
# Elastic Compliance Matrix: (Units=1/GPa)
#
#
# Indices 1 2 3 4 5 6 
#
# 1 0.005656 -0.002914 -0.000140 0.000000 0.000000 0.000000
# 2 -0.002914 0.012731 -0.002995 0.000000 0.000000 0.000000
# 3 -0.000140 -0.002995 0.007483 0.000000 0.000000 0.000000
# 4 0.000000 0.000000 0.000000 0.023239 0.000000 0.000000
# 5 0.000000 0.000000 0.000000 0.000000 0.062363 0.000000
# 6 0.000000 0.000000 0.000000 0.000000 0.000000 0.016932
#
#
# Mechanical properties :
#
#
# Convention : Reuss Voigt Hill
#
# Bulk Modulus (GPa) = 72.60850 76.97848 74.79349
# Shear Modulus (GPa) = 34.46062 46.07018 40.26540
#
# Velocity S-wave (km/s) = 4.09644 4.73647 4.42803
# Velocity P-wave (km/s) = 7.59812 8.20958 7.90976
#
# Compressibility (1/GPa) = 0.01377249
#
# Stress axis : x y z
#
# Youngs Moduli (GPa) = 176.79631 78.55086 133.63118
#
# Poissons Ratio (x) = 0.22888 0.01871
# Poissons Ratio (y) = 0.51515 0.40022
# Poissons Ratio (z) = 0.02476 0.23526
#
# Static dielectric constant tensor:
#      x y z
#    x 1.784370 0.000000 0.000000 
#    y 0.000000 1.705220 0.000000 
#    z 0.000000 0.000000 1.817310 
# 
# From -- ./inp_files/1234.got.cif
#   From: 2010.05.17/outbox.cif.g08.bks.cpg/sg64_1_cif.got.tgz:1234.got - 2010.06.03 16:29:19.
