data_PCOD9479158
_publ_section_title
;
Structure prediction by ZEFSAII (Michael W. Deem and Ramdas Pophale) SiO2 
 PCOD9479158
Probable space group: C M C A
;
_chemical_formula_sum "Si O2"
_cell_formula_units_Z 112
_cell_length_a 15.625888
_cell_length_b 25.366177
_cell_length_c 11.963144
_cell_angle_alpha 90.000000
_cell_angle_beta 90.000000
_cell_angle_gamma 90.000000
_cell_volume 4741.819912
_symmetry_space_group_name_H-M "C M C A"
_symmetry_group_IT_number 64
_symmetry_cell_setting 'orthorhombic'
loop_
_space_group_symop_operation_xyz
x,y,z
-x,1/2-y,1/2+z
x,-y,-z
-x,1/2+y,1/2-z
-x,-y,-z
x,1/2+y,1/2-z
-x,y,z
x,1/2-y,1/2+z
1/2+x,1/2+y,z
1/2-x,-y,1/2+z
1/2+x,1/2-y,-z
1/2-x,y,1/2-z
1/2-x,1/2-y,-z
1/2+x,y,1/2-z
1/2-x,1/2+y,z
1/2+x,-y,1/2+z
loop_
_atom_site_type_symbol
_atom_site_label
_atom_site_fract_x
_atom_site_fract_y
_atom_site_fract_z
Si Si1 0.896897 0.890292 0.704390
Si Si2 0.604066 0.509442 0.713683
Si Si3 0.671179 0.711500 0.168310
Si Si4 0.905206 0.586339 0.961413
Si Si5 0.629937 0.177214 0.803685
Si Si6 0.897959 0.942991 0.055588
Si Si7 0.309818 0.661476 0.933213
O O1 0.861771 0.842160 0.775303
O O2 0.868310 0.888484 0.574076
O O3 0.000000 0.886917 0.712799
O O4 0.869891 0.949554 0.737677
O O5 0.500000 0.508985 0.708656
O O6 0.637638 0.536958 0.601049
O O7 0.625875 0.546948 0.815740
O O8 0.750000 0.727497 0.250000
O O9 0.609297 0.762051 0.170497
O O10 0.691966 0.699679 0.039407
O O11 0.916741 0.630858 0.868426
O O12 0.000000 0.567465 0.997497
O O13 0.624867 0.171859 0.669718
O O14 0.722242 0.166582 0.864149
O O15 0.000000 0.930255 0.042817
O O16 0.837931 0.895355 0.018510
O O17 0.885940 0.000000 0.000000
#
# Coordination Sequence:
#
# PCOD9479158 Si02
#       7
#    16  16  16  16  16  16  16
#     4  10  22  39  62  94 126 159 203 259 311 367
#     4   9  17  34  59  89 124 161 198 240 306 376
#     4  12  25  42  65  87 121 164 210 255 317 370
#     4  10  20  38  64  92 126 163 205 254 310 378
#     4  11  24  41  65  88 121 164 212 258 306 367
#     4  10  20  37  64  95 129 164 200 251 316 382
#     4  11  23  41  64  91 121 165 207 259 307 374
#
# _framework density 23.619624000000002
#
# number of rings (size 3 to 8) (size 9 to 14) (size 15 to 20)
#    0.000    1.571    2.857    2.571    2.000    4.000 
#    0.000    4.286    0.000    0.000    0.000    0.000 
#    0.000    0.000    0.000    0.000    0.000    0.000 
#
# Total GULP energy -312522.881571 kJ/mol
# GULP energy per Si atom -5580.765742 kJ/mol
# Density = 2.356586 g / cm^3
# Si number density = 23.619624 Si / 1000 Ang^3
#
#
#
# Elastic Constant Matrix: (Units=GPa)
#
#
# Indices 1 2 3 4 5 6 
#
# 1 33.7038 23.8610 11.1799 0.0000 0.0000 0.0000
# 2 23.8610 151.3214 27.2695 0.0000 0.0000 0.0000
# 3 11.1799 27.2695 108.3843 0.0000 0.0000 0.0000
# 4 0.0000 0.0000 0.0000 37.4571 0.0000 0.0000
# 5 0.0000 0.0000 0.0000 0.0000 17.3361 0.0000
# 6 0.0000 0.0000 0.0000 0.0000 0.0000 28.9371
#
#
#
# Elastic Compliance Matrix: (Units=1/GPa)
#
#
# Indices 1 2 3 4 5 6 
#
# 1 0.033917 -0.004942 -0.002255 0.000000 0.000000 0.000000
# 2 -0.004942 0.007642 -0.001413 0.000000 0.000000 0.000000
# 3 -0.002255 -0.001413 0.009815 0.000000 0.000000 0.000000
# 4 0.000000 0.000000 0.000000 0.026697 0.000000 0.000000
# 5 0.000000 0.000000 0.000000 0.000000 0.057683 0.000000
# 6 0.000000 0.000000 0.000000 0.000000 0.000000 0.034558
#
#
# Mechanical properties :
#
#
# Convention : Reuss Voigt Hill
#
# Bulk Modulus (GPa) = 29.27933 46.44779 37.86356
# Shear Modulus (GPa) = 25.13619 32.15267 28.64443
#
# Velocity S-wave (km/s) = 3.26576 3.69354 3.48622
# Velocity P-wave (km/s) = 5.16172 6.15608 5.68070
#
# Compressibility (1/GPa) = 0.03415378
#
# Stress axis : x y z
#
# Youngs Moduli (GPa) = 29.48385 130.85009 101.88921
#
# Poissons Ratio (x) = 0.64663 0.22978
# Poissons Ratio (y) = 0.14570 0.14398
# Poissons Ratio (z) = 0.06649 0.18490
#
# Static dielectric constant tensor:
#      x y z
#    x 1.983050 0.000000 0.000000 
#    y 0.000000 1.882940 0.000000 
#    z 0.000000 0.000000 1.920550 
# 
# From -- ./inp_files/17534.got.cif
#   From: 2010.05.17/outbox.cif.g08.bks.cpg/sg64_9_cif.got.tgz:17534.got - 2010.06.03 16:29:19.
