data_PCOD9479054
_publ_section_title
;
Structure prediction by ZEFSAII (Michael W. Deem and Ramdas Pophale) SiO2 
 PCOD9479054
Probable space group: C M C A
;
_chemical_formula_sum "Si O2"
_cell_formula_units_Z 112
_cell_length_a 30.623279
_cell_length_b 15.295949
_cell_length_c 11.429055
_cell_angle_alpha 90.000000
_cell_angle_beta 90.000000
_cell_angle_gamma 90.000000
_cell_volume 5353.507811
_symmetry_space_group_name_H-M "C M C A"
_symmetry_group_IT_number 64
_symmetry_cell_setting 'orthorhombic'
loop_
_space_group_symop_operation_xyz
x,y,z
-x,1/2-y,1/2+z
x,-y,-z
-x,1/2+y,1/2-z
-x,-y,-z
x,1/2+y,1/2-z
-x,y,z
x,1/2-y,1/2+z
1/2+x,1/2+y,z
1/2-x,-y,1/2+z
1/2+x,1/2-y,-z
1/2-x,y,1/2-z
1/2-x,1/2-y,-z
1/2+x,y,1/2-z
1/2-x,1/2+y,z
1/2+x,-y,1/2+z
loop_
_atom_site_type_symbol
_atom_site_label
_atom_site_fract_x
_atom_site_fract_y
_atom_site_fract_z
Si Si1 0.118679 0.715669 0.437167
Si Si2 0.177755 0.594310 0.563634
Si Si3 0.767232 0.453873 0.126843
Si Si4 0.451193 0.729831 0.378210
Si Si5 0.138596 0.617041 0.807712
Si Si6 0.952183 0.089834 0.728747
Si Si7 0.547905 0.404003 0.831141
O O1 0.162444 0.672832 0.483875
O O2 0.088825 0.766385 0.531900
O O3 0.132455 0.780905 0.334636
O O4 0.087405 0.635739 0.402473
O O5 0.176406 0.500000 0.500000
O O6 0.226431 0.611764 0.611587
O O7 0.144254 0.595151 0.671443
O O8 0.750000 0.500171 0.250000
O O9 0.816116 0.418188 0.140633
O O10 0.767660 0.500000 0.000000
O O11 0.500000 0.728806 0.432739
O O12 0.449442 0.817833 0.297603
O O13 0.448859 0.646058 0.293372
O O14 0.091715 0.579064 0.846885
O O15 0.000000 0.087507 0.669701
O O16 0.951021 0.007407 0.815603
O O17 0.500000 0.380716 0.880628
#
# Coordination Sequence:
#
# PCOD9479054 Si02
#       7
#    16  16  16  16  16  16  16
#     4  12  21  33  60  88 123 164 208 265 330 382
#     4  10  21  41  64  90 124 165 215 270 333 397
#     4   9  21  42  68  95 128 171 219 278 338 403
#     4  10  21  37  54  83 126 164 210 264 323 387
#     4  11  22  39  61  92 129 163 214 270 326 399
#     4  10  20  37  59  83 121 164 212 267 316 384
#     4  10  21  36  56  84 119 165 215 261 315 382
#
# _framework density 20.920862
#
# number of rings (size 3 to 8) (size 9 to 14) (size 15 to 20)
#    0.000    1.714    2.857    1.286    0.000    2.286 
#    0.000    6.429    0.000   10.714    0.000    0.000 
#    0.000    0.000    0.000    0.000    0.000    0.000 
#
# Total GULP energy -311883.460025 kJ/mol
# GULP energy per Si atom -5569.347500 kJ/mol
# Density = 2.087325 g / cm^3
# Si number density = 20.920862 Si / 1000 Ang^3
#
#
#
# Elastic Constant Matrix: (Units=GPa)
#
#
# Indices 1 2 3 4 5 6 
#
# 1 157.9137 11.8756 30.8475 0.0000 0.0000 0.0000
# 2 11.8756 24.6842 23.1367 0.0000 0.0000 0.0000
# 3 30.8475 23.1367 54.5896 0.0000 0.0000 0.0000
# 4 0.0000 0.0000 0.0000 21.3799 0.0000 0.0000
# 5 0.0000 0.0000 0.0000 0.0000 193.1004 0.0000
# 6 0.0000 0.0000 0.0000 0.0000 0.0000 22.3396
#
#
#
# Elastic Compliance Matrix: (Units=1/GPa)
#
#
# Indices 1 2 3 4 5 6 
#
# 1 0.007123 0.000574 -0.004268 0.000000 0.000000 0.000000
# 2 0.000574 0.067258 -0.028830 0.000000 0.000000 0.000000
# 3 -0.004268 -0.028830 0.032950 0.000000 0.000000 0.000000
# 4 0.000000 0.000000 0.000000 0.046773 0.000000 0.000000
# 5 0.000000 0.000000 0.000000 0.000000 0.005179 0.000000
# 6 0.000000 0.000000 0.000000 0.000000 0.000000 0.044763
#
#
# Mechanical properties :
#
#
# Convention : Reuss Voigt Hill
#
# Bulk Modulus (GPa) = 23.65103 40.98968 32.32035
# Shear Modulus (GPa) = 17.65600 58.78583 38.22092
#
# Velocity S-wave (km/s) = 2.90822 5.30661 4.27890
# Velocity P-wave (km/s) = 4.75463 7.56189 6.31620
#
# Compressibility (1/GPa) = 0.04228146
#
# Stress axis : x y z
#
# Youngs Moduli (GPa) = 140.38581 14.86803 30.34939
#
# Poissons Ratio (x) = -0.00853 0.12954
# Poissons Ratio (y) = -0.08055 0.87498
# Poissons Ratio (z) = 0.59922 0.42865
#
# Static dielectric constant tensor:
#      x y z
#    x 1.800270 0.000000 0.000000 
#    y 0.000000 1.722790 0.000000 
#    z 0.000000 0.000000 1.841390 
# 
# From -- ./inp_files/19838.got.cif
#   From: 2010.05.17/outbox.cif.g08.bks.cpg/sg64_10_cif.got.tgz:19838.got - 2010.06.03 16:29:19.
