data_PCOD9479825
_publ_section_title
;
Structure prediction by ZEFSAII (Michael W. Deem and Ramdas Pophale) SiO2 
 PCOD9479825
Probable space group: C M C A
;
_chemical_formula_sum "Si O2"
_cell_formula_units_Z 104
_cell_length_a 28.797195
_cell_length_b 23.277120
_cell_length_c 8.284192
_cell_angle_alpha 90.000000
_cell_angle_beta 90.000000
_cell_angle_gamma 90.000000
_cell_volume 5553.024487
_symmetry_space_group_name_H-M "C M C A"
_symmetry_group_IT_number 64
_symmetry_cell_setting 'orthorhombic'
loop_
_space_group_symop_operation_xyz
x,y,z
-x,1/2-y,1/2+z
x,-y,-z
-x,1/2+y,1/2-z
-x,-y,-z
x,1/2+y,1/2-z
-x,y,z
x,1/2-y,1/2+z
1/2+x,1/2+y,z
1/2-x,-y,1/2+z
1/2+x,1/2-y,-z
1/2-x,y,1/2-z
1/2-x,1/2-y,-z
1/2+x,y,1/2-z
1/2-x,1/2+y,z
1/2+x,-y,1/2+z
loop_
_atom_site_type_symbol
_atom_site_label
_atom_site_fract_x
_atom_site_fract_y
_atom_site_fract_z
Si Si1 0.554434 0.965189 0.666132
Si Si2 0.448185 0.180063 0.680675
Si Si3 0.899188 0.735776 0.390838
Si Si4 0.188295 0.305341 0.970909
Si Si5 0.250000 0.722345 0.750000
Si Si6 0.946862 0.073040 0.613803
Si Si7 0.886887 0.626887 0.173428
O O1 0.500000 0.944704 0.669468
O O2 0.593242 0.916283 0.690412
O O3 0.559956 0.000000 0.500000
O O4 0.560956 0.009573 0.816101
O O5 0.500000 0.191409 0.622096
O O6 0.412676 0.199423 0.546287
O O7 0.437392 0.217643 0.839297
O O8 0.444111 0.114332 0.730371
O O9 0.852797 0.770458 0.436730
O O10 0.897529 0.690434 0.243632
O O11 0.225735 0.315133 0.111583
O O12 0.213158 0.264009 0.840613
O O13 0.165838 0.361234 0.886121
O O14 0.913808 0.101893 0.482003
O O15 0.000000 0.076376 0.554076
#
# Coordination Sequence:
#
# PCOD9479825 Si02
#       7
#    16  16  16  16   8  16  16
#     4  10  22  41  60  85 122 169 221 259 287 333
#     4  11  21  32  49  77 121 169 203 236 288 342
#     4  12  21  36  52  83 126 155 200 248 291 364
#     4  11  21  39  60  90 118 153 190 248 306 384
#     4  10  22  40  64  84 126 148 188 242 320 394
#     4  10  21  37  56  82 118 164 213 250 284 332
#     4  12  22  35  61  87 120 156 203 257 299 355
#
# _framework density 18.728534
#
# number of rings (size 3 to 8) (size 9 to 14) (size 15 to 20)
#    0.000    1.077    4.615    2.308    0.000    6.154 
#    0.000    0.000    0.000    0.000    0.000    6.462 
#    0.000    0.000    0.000    0.000    0.000    0.000 
#
# Total GULP energy -289874.382664 kJ/mol
# GULP energy per Si atom -5574.507359 kJ/mol
# Density = 1.868591 g / cm^3
# Si number density = 18.728534 Si / 1000 Ang^3
#
#
#
# Elastic Constant Matrix: (Units=GPa)
#
#
# Indices 1 2 3 4 5 6 
#
# 1 67.5640 30.1343 20.4235 0.0000 0.0000 0.0000
# 2 30.1343 76.2301 17.3142 0.0000 0.0000 0.0000
# 3 20.4235 17.3142 72.1365 0.0000 0.0000 0.0000
# 4 0.0000 0.0000 0.0000 37.5255 0.0000 0.0000
# 5 0.0000 0.0000 0.0000 0.0000 37.7860 0.0000
# 6 0.0000 0.0000 0.0000 0.0000 0.0000 26.8947
#
#
#
# Elastic Compliance Matrix: (Units=1/GPa)
#
#
# Indices 1 2 3 4 5 6 
#
# 1 0.018886 -0.006612 -0.003760 0.000000 0.000000 0.000000
# 2 -0.006612 0.016189 -0.002014 0.000000 0.000000 0.000000
# 3 -0.003760 -0.002014 0.015411 0.000000 0.000000 0.000000
# 4 0.000000 0.000000 0.000000 0.026649 0.000000 0.000000
# 5 0.000000 0.000000 0.000000 0.000000 0.026465 0.000000
# 6 0.000000 0.000000 0.000000 0.000000 0.000000 0.037182
#
#
# Mechanical properties :
#
#
# Convention : Reuss Voigt Hill
#
# Bulk Modulus (GPa) = 38.88850 39.07496 38.98173
# Shear Modulus (GPa) = 28.71502 30.31182 29.51342
#
# Velocity S-wave (km/s) = 3.91989 4.02740 3.97401
# Velocity P-wave (km/s) = 6.42625 6.52195 6.47428
#
# Compressibility (1/GPa) = 0.02571455
#
# Stress axis : x y z
#
# Youngs Moduli (GPa) = 52.94811 61.76927 64.89056
#
# Poissons Ratio (x) = 0.40841 0.24400
# Poissons Ratio (y) = 0.35009 0.13067
# Poissons Ratio (z) = 0.19910 0.12439
#
# Static dielectric constant tensor:
#      x y z
#    x 1.647410 0.000000 0.000000 
#    y 0.000000 1.653520 0.000000 
#    z 0.000000 0.000000 1.724450 
# 
# From -- ./inp_files/10588.got.cif
#   From: 2010.05.17/outbox.cif.g08.bks.cpg/sg64_6_cif.got.tgz:10588.got - 2010.06.03 16:29:19.
