data_PCOD9479689
_publ_section_title
;
Structure prediction by ZEFSAII (Michael W. Deem and Ramdas Pophale) SiO2 
 PCOD9479689
Probable space group: C M C A
;
_chemical_formula_sum "Si O2"
_cell_formula_units_Z 128
_cell_length_a 23.816876
_cell_length_b 22.593516
_cell_length_c 12.625369
_cell_angle_alpha 90.000000
_cell_angle_beta 90.000000
_cell_angle_gamma 90.000000
_cell_volume 6793.799045
_symmetry_space_group_name_H-M "C M C A"
_symmetry_group_IT_number 64
_symmetry_cell_setting 'orthorhombic'
loop_
_space_group_symop_operation_xyz
x,y,z
-x,1/2-y,1/2+z
x,-y,-z
-x,1/2+y,1/2-z
-x,-y,-z
x,1/2+y,1/2-z
-x,y,z
x,1/2-y,1/2+z
1/2+x,1/2+y,z
1/2-x,-y,1/2+z
1/2+x,1/2-y,-z
1/2-x,y,1/2-z
1/2-x,1/2-y,-z
1/2+x,y,1/2-z
1/2-x,1/2+y,z
1/2+x,-y,1/2+z
loop_
_atom_site_type_symbol
_atom_site_label
_atom_site_fract_x
_atom_site_fract_y
_atom_site_fract_z
Si Si1 0.064734 0.768566 0.101272
Si Si2 0.837482 0.565483 0.544544
Si Si3 0.563945 0.133415 0.425958
Si Si4 0.063903 0.580821 0.199979
Si Si5 0.878032 0.456006 0.220731
Si Si6 0.436735 0.341556 0.316295
Si Si7 0.709760 0.068609 0.961540
Si Si8 0.379741 0.656955 0.466734
O O1 0.074671 0.810855 0.202947
O O2 0.000000 0.745573 0.112001
O O3 0.066067 0.805156 0.990811
O O4 0.111379 0.717578 0.097055
O O5 0.832454 0.500000 0.500000
O O6 0.884285 0.597951 0.475359
O O7 0.860302 0.559580 0.661833
O O8 0.773982 0.589463 0.546968
O O9 0.500000 0.110085 0.448408
O O10 0.570690 0.126647 0.298963
O O11 0.104407 0.524249 0.211022
O O12 0.000000 0.559649 0.204258
O O13 0.076109 0.612907 0.089447
O O14 0.929219 0.412169 0.194154
O O15 0.826394 0.437560 0.145609
O O16 0.500000 0.325425 0.346249
O O17 0.396169 0.326229 0.413282
O O18 0.676485 0.117497 0.031044
O O19 0.708901 0.000000 0.000000
#
# Coordination Sequence:
#
# PCOD9479689 Si02
#       8
#    16  16  16  16  16  16  16  16
#     4  10  21  38  60  85 119 160 205 251 299 360
#     4  11  21  37  61  88 118 160 199 249 306 362
#     4  10  22  38  58  90 123 153 198 251 304 366
#     4  11  22  35  57  89 125 159 195 248 311 369
#     4  11  20  36  57  88 120 157 195 250 309 367
#     4  10  21  35  58  88 120 159 200 245 302 367
#     4  10  22  40  59  84 117 158 207 250 299 357
#     4  11  23  40  59  86 124 164 206 250 298 360
#
# _framework density 18.840709
#
# number of rings (size 3 to 8) (size 9 to 14) (size 15 to 20)
#    0.000    1.500    3.750    1.875    1.750    0.750 
#    0.000    3.125    0.000    0.000    3.250    0.000 
#    0.000    0.000    0.000    0.000    0.000    0.000 
#
# Total GULP energy -356460.041737 kJ/mol
# GULP energy per Si atom -5569.688152 kJ/mol
# Density = 1.879783 g / cm^3
# Si number density = 18.840709 Si / 1000 Ang^3
#
#
#
# Elastic Constant Matrix: (Units=GPa)
#
#
# Indices 1 2 3 4 5 6 
#
# 1 91.0864 20.3648 12.8425 0.0000 0.0000 0.0000
# 2 20.3648 54.5857 6.7103 0.0000 0.0000 0.0000
# 3 12.8425 6.7103 56.0823 0.0000 0.0000 0.0000
# 4 0.0000 0.0000 0.0000 22.3314 0.0000 0.0000
# 5 0.0000 0.0000 0.0000 0.0000 12.0450 0.0000
# 6 0.0000 0.0000 0.0000 0.0000 0.0000 19.6634
#
#
#
# Elastic Compliance Matrix: (Units=1/GPa)
#
#
# Indices 1 2 3 4 5 6 
#
# 1 0.012262 -0.004293 -0.002294 0.000000 0.000000 0.000000
# 2 -0.004293 0.020096 -0.001422 0.000000 0.000000 0.000000
# 3 -0.002294 -0.001422 0.018526 0.000000 0.000000 0.000000
# 4 0.000000 0.000000 0.000000 0.044780 0.000000 0.000000
# 5 0.000000 0.000000 0.000000 0.000000 0.083022 0.000000
# 6 0.000000 0.000000 0.000000 0.000000 0.000000 0.050856
#
#
# Mechanical properties :
#
#
# Convention : Reuss Voigt Hill
#
# Bulk Modulus (GPa) = 28.68002 31.28772 29.98387
# Shear Modulus (GPa) = 19.44152 21.59707 20.51930
#
# Velocity S-wave (km/s) = 3.21579 3.38938 3.30372
# Velocity P-wave (km/s) = 5.38923 5.65329 5.52284
#
# Compressibility (1/GPa) = 0.03486748
#
# Stress axis : x y z
#
# Youngs Moduli (GPa) = 81.55427 49.76101 53.97706
#
# Poissons Ratio (x) = 0.21360 0.12384
# Poissons Ratio (y) = 0.35008 0.07673
# Poissons Ratio (z) = 0.18711 0.07074
#
# Static dielectric constant tensor:
#      x y z
#    x 1.649190 0.000000 0.000000 
#    y 0.000000 1.674530 0.000000 
#    z 0.000000 0.000000 1.658100 
# 
# From -- ./inp_files/18668.got.cif
#   From: 2010.05.17/outbox.cif.g08.bks.cpg/sg64_10_cif.got.tgz:18668.got - 2010.06.03 16:29:19.
