data_PCOD9479536
_publ_section_title
;
Structure prediction by ZEFSAII (Michael W. Deem and Ramdas Pophale) SiO2 
 PCOD9479536
Probable space group: C M C A
;
_chemical_formula_sum "Si O2"
_cell_formula_units_Z 104
_cell_length_a 15.551695
_cell_length_b 20.314274
_cell_length_c 15.799544
_cell_angle_alpha 90.000000
_cell_angle_beta 90.000000
_cell_angle_gamma 90.000000
_cell_volume 4991.413955
_symmetry_space_group_name_H-M "C M C A"
_symmetry_group_IT_number 64
_symmetry_cell_setting 'orthorhombic'
loop_
_space_group_symop_operation_xyz
x,y,z
-x,1/2-y,1/2+z
x,-y,-z
-x,1/2+y,1/2-z
-x,-y,-z
x,1/2+y,1/2-z
-x,y,z
x,1/2-y,1/2+z
1/2+x,1/2+y,z
1/2-x,-y,1/2+z
1/2+x,1/2-y,-z
1/2-x,y,1/2-z
1/2-x,1/2-y,-z
1/2+x,y,1/2-z
1/2-x,1/2+y,z
1/2+x,-y,1/2+z
loop_
_atom_site_type_symbol
_atom_site_label
_atom_site_fract_x
_atom_site_fract_y
_atom_site_fract_z
Si Si1 0.500000 0.811779 0.668955
Si Si2 0.843441 0.450562 0.075024
Si Si3 0.864201 0.449588 0.425261
Si Si4 0.162720 0.829056 0.533534
Si Si5 0.903130 0.986777 0.749719
Si Si6 0.131194 0.184340 0.011693
Si Si7 0.157003 0.347856 0.774005
O O1 0.425030 0.821064 0.595451
O O2 0.577093 0.807093 0.739828
O O3 0.739712 0.453153 0.079683
O O4 0.878609 0.473030 0.165732
O O5 0.870991 0.500000 0.000000
O O6 0.866426 0.377735 0.041508
O O7 0.890852 0.500000 0.500000
O O8 0.897885 0.470507 0.334134
O O9 0.890564 0.376207 0.450709
O O10 0.121355 0.757399 0.525182
O O11 0.266542 0.822851 0.529274
O O12 0.146026 0.858008 0.625803
O O13 0.000000 0.960644 0.740387
O O14 0.847051 0.921614 0.764131
O O15 0.250000 0.318676 0.750000
#
# Coordination Sequence:
#
# PCOD9479536 Si02
#       7
#     8  16  16  16  16  16  16
#     4  12  24  42  69 105 131 176 236 284 330 426
#     4  10  20  41  66  92 127 178 227 271 340 413
#     4  10  22  40  69  93 130 173 219 288 345 404
#     4  10  22  45  70  93 138 187 220 286 350 418
#     4  12  25  39  62 102 138 172 227 286 349 411
#     4  10  23  44  67 100 133 178 234 276 352 412
#     4  12  23  42  69 102 138 177 231 283 345 417
#
# _framework density 20.835778999999999
#
# number of rings (size 3 to 8) (size 9 to 14) (size 15 to 20)
#    0.000    1.231    3.846    2.308    3.231    1.231 
#    5.538    0.000    0.000    0.000    0.000    0.000 
#    0.000    0.000    0.000    0.000    0.000    0.000 
#
# Total GULP energy -289549.843107 kJ/mol
# GULP energy per Si atom -5568.266214 kJ/mol
# Density = 2.078836 g / cm^3
# Si number density = 20.835779 Si / 1000 Ang^3
#
#
#
# Elastic Constant Matrix: (Units=GPa)
#
#
# Indices 1 2 3 4 5 6 
#
# 1 87.9211 12.8753 20.2396 0.0000 0.0000 0.0000
# 2 12.8753 93.8367 20.4971 0.0000 0.0000 0.0000
# 3 20.2396 20.4971 108.0938 0.0000 0.0000 0.0000
# 4 0.0000 0.0000 0.0000 5.1457 0.0000 0.0000
# 5 0.0000 0.0000 0.0000 0.0000 19.9150 0.0000
# 6 0.0000 0.0000 0.0000 0.0000 0.0000 0.1379
#
#
#
# Elastic Compliance Matrix: (Units=1/GPa)
#
#
# Indices 1 2 3 4 5 6 
#
# 1 0.012016 -0.001207 -0.002021 0.000000 0.000000 0.000000
# 2 -0.001207 0.011239 -0.001905 0.000000 0.000000 0.000000
# 3 -0.002021 -0.001905 0.009991 0.000000 0.000000 0.000000
# 4 0.000000 0.000000 0.000000 0.194337 0.000000 0.000000
# 5 0.000000 0.000000 0.000000 0.000000 0.050213 0.000000
# 6 0.000000 0.000000 0.000000 0.000000 0.000000 7.253478
#
#
# Mechanical properties :
#
#
# Convention : Reuss Voigt Hill
#
# Bulk Modulus (GPa) = 43.51833 44.11952 43.81893
# Shear Modulus (GPa) = 0.66232 20.78903 10.72567
#
# Velocity S-wave (km/s) = 0.56442 3.16215 2.27132
# Velocity P-wave (km/s) = 4.62130 5.87819 5.28723
#
# Compressibility (1/GPa) = 0.02297882
#
# Stress axis : x y z
#
# Youngs Moduli (GPa) = 83.22343 88.97922 100.09139
#
# Poissons Ratio (x) = 0.10742 0.20228
# Poissons Ratio (y) = 0.10047 0.19068
# Poissons Ratio (z) = 0.16819 0.16951
#
# Static dielectric constant tensor:
#      x y z
#    x 1.770710 0.000000 0.000000 
#    y 0.000000 1.754300 0.000000 
#    z 0.000000 0.000000 1.740580 
# 
# From -- ./inp_files/25598.got.cif
#   From: 2010.05.17/outbox.cif.g08.bks.cpg/sg64_13_cif.got.tgz:25598.got - 2010.06.03 16:29:19.
