data_PCOD9479165
_publ_section_title
;
Structure prediction by ZEFSAII (Michael W. Deem and Ramdas Pophale) SiO2 
 PCOD9479165
Probable space group: C M C A
;
_chemical_formula_sum "Si O2"
_cell_formula_units_Z 72
_cell_length_a 20.042954
_cell_length_b 8.009001
_cell_length_c 17.840957
_cell_angle_alpha 90.000000
_cell_angle_beta 90.000000
_cell_angle_gamma 90.000000
_cell_volume 2863.902471
_symmetry_space_group_name_H-M "C M C A"
_symmetry_group_IT_number 64
_symmetry_cell_setting 'orthorhombic'
loop_
_space_group_symop_operation_xyz
x,y,z
-x,1/2-y,1/2+z
x,-y,-z
-x,1/2+y,1/2-z
-x,-y,-z
x,1/2+y,1/2-z
-x,y,z
x,1/2-y,1/2+z
1/2+x,1/2+y,z
1/2-x,-y,1/2+z
1/2+x,1/2-y,-z
1/2-x,y,1/2-z
1/2-x,1/2-y,-z
1/2+x,y,1/2-z
1/2-x,1/2+y,z
1/2+x,-y,1/2+z
loop_
_atom_site_type_symbol
_atom_site_label
_atom_site_fract_x
_atom_site_fract_y
_atom_site_fract_z
Si Si1 0.000000 0.532385 0.689619
Si Si2 0.650961 0.390513 0.648760
Si Si3 0.651552 0.000000 0.000000
Si Si4 0.683950 0.325601 0.961006
Si Si5 0.000000 0.918237 0.646673
Si Si6 0.648594 0.995083 0.680551
O O1 0.000000 0.723547 0.667076
O O2 0.070063 0.454966 0.666564
O O3 0.000000 0.529207 0.779170
O O4 0.690008 0.476142 0.580680
O O5 0.575517 0.437506 0.618099
O O6 0.661695 0.467423 0.731091
O O7 0.658876 0.190369 0.658829
O O8 0.627819 0.189406 0.984548
O O9 0.685561 0.364042 0.872623
O O10 0.667301 0.500000 0.000000
O O11 0.750000 0.250000 0.000000
#
# Coordination Sequence:
#
# PCOD9479165 Si02
#       6
#     8  16   8  16   8  16
#     4   8  16  32  60  94 133 180 226 280 340 400
#     4  10  20  37  65 100 141 185 233 284 343 416
#     4  12  24  41  68  98 134 181 224 290 350 400
#     4  12  25  46  71  94 132 177 225 289 352 408
#     4   8  16  31  55  94 139 183 226 276 337 405
#     4  10  20  40  67  98 138 184 234 284 342 422
#
# _framework density 25.140521
#
# number of rings (size 3 to 8) (size 9 to 14) (size 15 to 20)
#    0.000    1.778    3.333    1.333    0.000    2.222 
#    0.000    2.778    0.000    0.000    0.000    0.000 
#    0.000    0.000    0.000    0.000    0.000    0.000 
#
# Total GULP energy -200497.047707 kJ/mol
# GULP energy per Si atom -5569.362436 kJ/mol
# Density = 2.508330 g / cm^3
# Si number density = 25.140521 Si / 1000 Ang^3
#
#
#
# Elastic Constant Matrix: (Units=GPa)
#
#
# Indices 1 2 3 4 5 6 
#
# 1 74.9409 21.8061 30.4252 0.0000 0.0000 0.0000
# 2 21.8061 153.4933 67.5770 0.0000 0.0000 0.0000
# 3 30.4252 67.5770 178.8465 0.0000 0.0000 0.0000
# 4 0.0000 0.0000 0.0000 63.4343 0.0000 0.0000
# 5 0.0000 0.0000 0.0000 0.0000 17.3754 0.0000
# 6 0.0000 0.0000 0.0000 0.0000 0.0000 26.8238
#
#
#
# Elastic Compliance Matrix: (Units=1/GPa)
#
#
# Indices 1 2 3 4 5 6 
#
# 1 0.014507 -0.001169 -0.002026 0.000000 0.000000 0.000000
# 2 -0.001169 0.007909 -0.002790 0.000000 0.000000 0.000000
# 3 -0.002026 -0.002790 0.006990 0.000000 0.000000 0.000000
# 4 0.000000 0.000000 0.000000 0.015764 0.000000 0.000000
# 5 0.000000 0.000000 0.000000 0.000000 0.057553 0.000000
# 6 0.000000 0.000000 0.000000 0.000000 0.000000 0.037280
#
#
# Mechanical properties :
#
#
# Convention : Reuss Voigt Hill
#
# Bulk Modulus (GPa) = 57.35081 71.87750 64.61416
# Shear Modulus (GPa) = 31.68877 40.69153 36.19015
#
# Velocity S-wave (km/s) = 3.55416 4.02750 3.79821
# Velocity P-wave (km/s) = 6.30114 7.09084 6.70762
#
# Compressibility (1/GPa) = 0.01743654
#
# Stress axis : x y z
#
# Youngs Moduli (GPa) = 68.93428 126.43574 143.05857
#
# Poissons Ratio (x) = 0.14778 0.28987
# Poissons Ratio (y) = 0.08057 0.39908
# Poissons Ratio (z) = 0.13968 0.35271
#
# Static dielectric constant tensor:
#      x y z
#    x 2.452490 0.000000 0.000000 
#    y 0.000000 2.021810 0.000000 
#    z 0.000000 0.000000 1.984920 
# 
# From -- ./inp_files/35322.got.cif
#   From: 2010.05.17/outbox.cif.g08.bks.cpg/sg64_18_cif.got.tgz:35322.got - 2010.06.03 16:29:19.
