data_PCOD9479044
_publ_section_title
;
Structure prediction by ZEFSAII (Michael W. Deem and Ramdas Pophale) SiO2 
 PCOD9479044
Probable space group: C M C A
;
_chemical_formula_sum "Si O2"
_cell_formula_units_Z 64
_cell_length_a 8.470875
_cell_length_b 14.893234
_cell_length_c 25.435091
_cell_angle_alpha 90.000000
_cell_angle_beta 90.000000
_cell_angle_gamma 90.000000
_cell_volume 3208.858614
_symmetry_space_group_name_H-M "C M C A"
_symmetry_group_IT_number 64
_symmetry_cell_setting 'orthorhombic'
loop_
_space_group_symop_operation_xyz
x,y,z
-x,1/2-y,1/2+z
x,-y,-z
-x,1/2+y,1/2-z
-x,-y,-z
x,1/2+y,1/2-z
-x,y,z
x,1/2-y,1/2+z
1/2+x,1/2+y,z
1/2-x,-y,1/2+z
1/2+x,1/2-y,-z
1/2-x,y,1/2-z
1/2-x,1/2-y,-z
1/2+x,y,1/2-z
1/2-x,1/2+y,z
1/2+x,-y,1/2+z
loop_
_atom_site_type_symbol
_atom_site_label
_atom_site_fract_x
_atom_site_fract_y
_atom_site_fract_z
Si Si1 0.188811 0.017687 0.191684
Si Si2 0.189094 0.878925 0.394396
Si Si3 0.189410 0.352536 0.504757
Si Si4 0.808113 0.827540 0.880864
O O1 0.250000 0.001060 0.250000
O O2 0.245196 0.113567 0.168272
O O3 0.000000 0.018195 0.192814
O O4 0.244140 0.943825 0.149858
O O5 0.243841 0.901871 0.453716
O O6 0.243464 0.776063 0.382626
O O7 0.000000 0.880410 0.393172
O O8 0.250000 0.250000 0.500000
O O9 0.237731 0.376342 0.564313
O O10 0.000000 0.355376 0.501883
O O11 0.000000 0.825488 0.880476
#
# Coordination Sequence:
#
# PCOD9479044 Si02
#       4
#    16  16  16  16
#     4  11  23  40  57  78 106 143 187 231 272 322
#     4  10  20  37  58  84 114 146 180 223 274 330
#     4   9  16  31  55  84 113 145 181 223 273 331
#     4   8  18  36  58  80 110 146 181 220 272 328
#
# _framework density 19.944786000000001
#
# number of rings (size 3 to 8) (size 9 to 14) (size 15 to 20)
#    0.000    2.500    0.000    3.750    0.000    2.000 
#    0.000   22.500    0.000    0.000    0.000    0.000 
#    0.000    0.000    0.000    0.000    0.000    0.000 
#
# Total GULP energy -178522.283576 kJ/mol
# GULP energy per Si atom -5578.821362 kJ/mol
# Density = 1.989939 g / cm^3
# Si number density = 19.944786 Si / 1000 Ang^3
#
#
#
# Elastic Constant Matrix: (Units=GPa)
#
#
# Indices 1 2 3 4 5 6 
#
# 1 50.4575 1.4457 17.5873 0.0000 0.0000 0.0000
# 2 1.4457 42.2951 2.1625 0.0000 0.0000 0.0000
# 3 17.5873 2.1625 95.7177 0.0000 0.0000 0.0000
# 4 0.0000 0.0000 0.0000 31.6011 0.0000 0.0000
# 5 0.0000 0.0000 0.0000 0.0000 33.7942 0.0000
# 6 0.0000 0.0000 0.0000 0.0000 0.0000 14.8897
#
#
#
# Elastic Compliance Matrix: (Units=1/GPa)
#
#
# Indices 1 2 3 4 5 6 
#
# 1 0.021186 -0.000526 -0.003881 0.000000 0.000000 0.000000
# 2 -0.000526 0.023684 -0.000438 0.000000 0.000000 0.000000
# 3 -0.003881 -0.000438 0.011170 0.000000 0.000000 0.000000
# 4 0.000000 0.000000 0.000000 0.031644 0.000000 0.000000
# 5 0.000000 0.000000 0.000000 0.000000 0.029591 0.000000
# 6 0.000000 0.000000 0.000000 0.000000 0.000000 0.067161
#
#
# Mechanical properties :
#
#
# Convention : Reuss Voigt Hill
#
# Bulk Modulus (GPa) = 21.57487 25.65128 23.61308
# Shear Modulus (GPa) = 23.85759 27.20866 25.53313
#
# Velocity S-wave (km/s) = 3.46234 3.69751 3.58186
# Velocity P-wave (km/s) = 5.17924 5.57834 5.38249
#
# Compressibility (1/GPa) = 0.04635022
#
# Stress axis : x y z
#
# Youngs Moduli (GPa) = 47.20001 42.22296 89.52248
#
# Poissons Ratio (x) = 0.02220 0.34743
# Poissons Ratio (y) = 0.02482 0.03925
# Poissons Ratio (z) = 0.18318 0.01851
#
# Static dielectric constant tensor:
#      x y z
#    x 1.678530 0.000000 0.000000 
#    y 0.000000 1.725180 0.000000 
#    z 0.000000 0.000000 1.704370 
# 
# From -- ./inp_files/36290.got.cif
#   From: 2010.05.17/outbox.cif.g08.bks.cpg/sg64_19_cif.got.tgz:36290.got - 2010.06.03 16:29:19.
