data_PCOD9479359
_publ_section_title
;
Structure prediction by ZEFSAII (Michael W. Deem and Ramdas Pophale) SiO2 
 PCOD9479359
Probable space group: C M C A
;
_chemical_formula_sum "Si O2"
_cell_formula_units_Z 96
_cell_length_a 24.678572
_cell_length_b 16.625947
_cell_length_c 12.852163
_cell_angle_alpha 90.000000
_cell_angle_beta 90.000000
_cell_angle_gamma 90.000000
_cell_volume 5273.301986
_symmetry_space_group_name_H-M "C M C A"
_symmetry_group_IT_number 64
_symmetry_cell_setting 'orthorhombic'
loop_
_space_group_symop_operation_xyz
x,y,z
-x,1/2-y,1/2+z
x,-y,-z
-x,1/2+y,1/2-z
-x,-y,-z
x,1/2+y,1/2-z
-x,y,z
x,1/2-y,1/2+z
1/2+x,1/2+y,z
1/2-x,-y,1/2+z
1/2+x,1/2-y,-z
1/2-x,y,1/2-z
1/2-x,1/2-y,-z
1/2+x,y,1/2-z
1/2-x,1/2+y,z
1/2+x,-y,1/2+z
loop_
_atom_site_type_symbol
_atom_site_label
_atom_site_fract_x
_atom_site_fract_y
_atom_site_fract_z
Si Si1 0.891141 0.700343 0.368185
Si Si2 0.311497 0.612792 0.287294
Si Si3 0.304434 0.302205 0.494650
Si Si4 0.063654 0.085522 0.963658
Si Si5 0.564698 0.142418 0.764867
Si Si6 0.152998 0.046436 0.606991
O O1 0.854012 0.643438 0.297267
O O2 0.851123 0.748269 0.444998
O O3 0.928619 0.647498 0.442482
O O4 0.921638 0.766015 0.297409
O O5 0.250000 0.623060 0.250000
O O6 0.318400 0.666469 0.390675
O O7 0.322399 0.520567 0.317526
O O8 0.250000 0.250000 0.500000
O O9 0.304612 0.382842 0.423266
O O10 0.083074 0.120882 0.853040
O O11 0.000000 0.072340 0.946449
O O12 0.088267 0.000000 0.000000
O O13 0.500000 0.129497 0.775272
O O14 0.600340 0.086834 0.841479
O O15 0.138956 0.000000 0.500000
#
# Coordination Sequence:
#
# PCOD9479359 Si02
#       6
#    16  16  16  16  16  16
#     4  11  21  37  60  84 116 154 199 236 290 349
#     4  11  21  38  56  83 116 154 197 233 288 351
#     4  10  20  39  56  81 115 151 187 242 288 335
#     4  10  21  38  58  86 121 152 191 245 297 349
#     4  10  21  39  61  88 116 153 199 246 302 356
#     4   9  21  39  58  84 119 148 194 247 290 357
#
# _framework density 18.204913000000001
#
# number of rings (size 3 to 8) (size 9 to 14) (size 15 to 20)
#    0.000    1.833    1.667    2.500    0.000    0.333 
#   12.000    0.833    0.000    1.000    0.000    0.000 
#    0.000    0.000    0.000    0.000    0.000    0.000 
#
# Total GULP energy -267714.689050 kJ/mol
# GULP energy per Si atom -5577.389355 kJ/mol
# Density = 1.816348 g / cm^3
# Si number density = 18.204913 Si / 1000 Ang^3
#
#
#
# Elastic Constant Matrix: (Units=GPa)
#
#
# Indices 1 2 3 4 5 6 
#
# 1 55.6298 22.4368 33.3384 0.0000 0.0000 0.0000
# 2 22.4368 110.8816 58.5562 0.0000 0.0000 0.0000
# 3 33.3384 58.5562 100.9395 0.0000 0.0000 0.0000
# 4 0.0000 0.0000 0.0000 30.0852 0.0000 0.0000
# 5 0.0000 0.0000 0.0000 0.0000 22.2734 0.0000
# 6 0.0000 0.0000 0.0000 0.0000 0.0000 4.7403
#
#
#
# Elastic Compliance Matrix: (Units=1/GPa)
#
#
# Indices 1 2 3 4 5 6 
#
# 1 0.022475 -0.000905 -0.006898 0.000000 0.000000 0.000000
# 2 -0.000905 0.013038 -0.007265 0.000000 0.000000 0.000000
# 3 -0.006898 -0.007265 0.016400 0.000000 0.000000 0.000000
# 4 0.000000 0.000000 0.000000 0.033239 0.000000 0.000000
# 5 0.000000 0.000000 0.000000 0.000000 0.044897 0.000000
# 6 0.000000 0.000000 0.000000 0.000000 0.000000 0.210956
#
#
# Mechanical properties :
#
#
# Convention : Reuss Voigt Hill
#
# Bulk Modulus (GPa) = 45.91950 55.12372 50.52161
# Shear Modulus (GPa) = 13.21356 21.62774 17.42065
#
# Velocity S-wave (km/s) = 2.69703 3.45050 3.09677
# Velocity P-wave (km/s) = 5.91414 6.79852 6.37170
#
# Compressibility (1/GPa) = 0.02177724
#
# Stress axis : x y z
#
# Youngs Moduli (GPa) = 44.49404 76.69752 60.97707
#
# Poissons Ratio (x) = 0.06941 0.42062
# Poissons Ratio (y) = 0.04026 0.44298
# Poissons Ratio (z) = 0.30692 0.55719
#
# Static dielectric constant tensor:
#      x y z
#    x 1.588820 0.000000 0.000000 
#    y 0.000000 1.641280 0.000000 
#    z 0.000000 0.000000 1.644540 
# 
# From -- ./inp_files/18339.got.cif
#   From: 2010.05.17/outbox.cif.g08.bks.cpg/sg64_10_cif.got.tgz:18339.got - 2010.06.03 16:29:19.
