data_PCOD9479374
_publ_section_title
;
Structure prediction by ZEFSAII (Michael W. Deem and Ramdas Pophale) SiO2 
 PCOD9479374
Probable space group: C M C A
;
_chemical_formula_sum "Si O2"
_cell_formula_units_Z 96
_cell_length_a 18.251150
_cell_length_b 9.137737
_cell_length_c 28.714975
_cell_angle_alpha 90.000000
_cell_angle_beta 90.000000
_cell_angle_gamma 90.000000
_cell_volume 4788.917232
_symmetry_space_group_name_H-M "C M C A"
_symmetry_group_IT_number 64
_symmetry_cell_setting 'orthorhombic'
loop_
_space_group_symop_operation_xyz
x,y,z
-x,1/2-y,1/2+z
x,-y,-z
-x,1/2+y,1/2-z
-x,-y,-z
x,1/2+y,1/2-z
-x,y,z
x,1/2-y,1/2+z
1/2+x,1/2+y,z
1/2-x,-y,1/2+z
1/2+x,1/2-y,-z
1/2-x,y,1/2-z
1/2-x,1/2-y,-z
1/2+x,y,1/2-z
1/2-x,1/2+y,z
1/2+x,-y,1/2+z
loop_
_atom_site_type_symbol
_atom_site_label
_atom_site_fract_x
_atom_site_fract_y
_atom_site_fract_z
Si Si1 0.179880 0.451745 0.196522
Si Si2 0.085058 0.043317 0.871168
Si Si3 0.585377 0.207609 0.877140
Si Si4 0.350878 0.133351 0.974161
Si Si5 0.164128 0.199144 0.792360
Si Si6 0.684719 0.391290 0.040858
O O1 0.134319 0.406721 0.151213
O O2 0.177869 0.626217 0.205870
O O3 0.148193 0.361953 0.240795
O O4 0.262281 0.388764 0.192389
O O5 0.102064 0.148197 0.827979
O O6 0.138796 0.086262 0.913005
O O7 0.000000 0.053112 0.885280
O O8 0.100150 0.872831 0.859511
O O9 0.500000 0.175285 0.870507
O O10 0.604681 0.202547 0.931957
O O11 0.271791 0.087220 0.952506
O O12 0.329693 0.236756 0.017049
O O13 0.389863 0.000000 0.000000
O O14 0.660531 0.500000 0.000000
#
# Coordination Sequence:
#
# PCOD9479374 Si02
#       6
#    16  16  16  16  16  16
#     4  11  23  42  69  95 124 158 203 256 307 366
#     4  11  24  40  62  90 126 169 210 253 307 369
#     4  11  24  41  60  89 130 170 206 253 310 368
#     4  10  22  37  61  90 121 162 207 264 312 360
#     4  11  23  42  69  96 123 158 203 256 307 368
#     4  10  20  39  62  87 120 161 211 258 309 363
#
# _framework density 20.046285999999998
#
# number of rings (size 3 to 8) (size 9 to 14) (size 15 to 20)
#    0.000    1.333    1.667    5.000    2.333    2.667 
#    0.000    0.000    0.000    0.000    0.000    0.000 
#    0.000    0.000    0.000    0.000    0.000    0.000 
#
# Total GULP energy -268041.961004 kJ/mol
# GULP energy per Si atom -5584.207521 kJ/mol
# Density = 2.000066 g / cm^3
# Si number density = 20.046286 Si / 1000 Ang^3
#
#
#
# Elastic Constant Matrix: (Units=GPa)
#
#
# Indices 1 2 3 4 5 6 
#
# 1 30.2591 14.5656 16.8094 0.0000 0.0000 0.0000
# 2 14.5656 126.8357 14.5257 0.0000 0.0000 0.0000
# 3 16.8094 14.5257 47.1874 0.0000 0.0000 0.0000
# 4 0.0000 0.0000 0.0000 33.7533 0.0000 0.0000
# 5 0.0000 0.0000 0.0000 0.0000 -4.2868 0.0000
# 6 0.0000 0.0000 0.0000 0.0000 0.0000 17.9341
#
#
#
# Elastic Compliance Matrix: (Units=1/GPa)
#
#
# Indices 1 2 3 4 5 6 
#
# 1 0.042462 -0.003259 -0.014123 0.000000 0.000000 0.000000
# 2 -0.003259 0.008422 -0.001432 0.000000 0.000000 0.000000
# 3 -0.014123 -0.001432 0.026664 0.000000 0.000000 0.000000
# 4 0.000000 0.000000 0.000000 0.029627 0.000000 0.000000
# 5 0.000000 0.000000 0.000000 0.000000 -0.233274 0.000000
# 6 0.000000 0.000000 0.000000 0.000000 0.000000 0.055760
#
#
# Mechanical properties :
#
#
# Convention : Reuss Voigt Hill
#
# Bulk Modulus (GPa) = 25.04938 32.89818 28.97378
# Shear Modulus (GPa) = -257.66821 20.03889 -118.81466
#
# Velocity S-wave (km/s) = -11.34970 3.16512 -7.70706
# Velocity P-wave (km/s) = 12.61869 5.45931 8.04448
#
# Compressibility (1/GPa) = 0.03992115
#
# Stress axis : x y z
#
# Youngs Moduli (GPa) = 23.55041 118.73058 37.50400
#
# Poissons Ratio (x) = 0.38692 0.52967
# Poissons Ratio (y) = 0.07675 0.05370
# Poissons Ratio (z) = 0.33260 0.17000
#
# Static dielectric constant tensor:
#      x y z
#    x 1.698190 0.000000 0.000000 
#    y 0.000000 1.841590 0.000000 
#    z 0.000000 0.000000 1.712330 
# 
# From -- ./inp_files/50647.got.cif
#   From: 2010.05.17/outbox.cif.g08.bks.cpg/sg64_26_cif.got.tgz:50647.got - 2010.06.03 16:29:19.
