data_PCOD9479324
_publ_section_title
;
Structure prediction by ZEFSAII (Michael W. Deem and Ramdas Pophale) SiO2 
 PCOD9479324
Probable space group: C M C A
;
_chemical_formula_sum "Si O2"
_cell_formula_units_Z 88
_cell_length_a 14.761008
_cell_length_b 28.314535
_cell_length_c 10.669808
_cell_angle_alpha 90.000000
_cell_angle_beta 90.000000
_cell_angle_gamma 90.000000
_cell_volume 4459.457752
_symmetry_space_group_name_H-M "C M C A"
_symmetry_group_IT_number 64
_symmetry_cell_setting 'orthorhombic'
loop_
_space_group_symop_operation_xyz
x,y,z
-x,1/2-y,1/2+z
x,-y,-z
-x,1/2+y,1/2-z
-x,-y,-z
x,1/2+y,1/2-z
-x,y,z
x,1/2-y,1/2+z
1/2+x,1/2+y,z
1/2-x,-y,1/2+z
1/2+x,1/2-y,-z
1/2-x,y,1/2-z
1/2-x,1/2-y,-z
1/2+x,y,1/2-z
1/2-x,1/2+y,z
1/2+x,-y,1/2+z
loop_
_atom_site_type_symbol
_atom_site_label
_atom_site_fract_x
_atom_site_fract_y
_atom_site_fract_z
Si Si1 0.500000 0.792876 0.199600
Si Si2 0.750000 0.356963 0.750000
Si Si3 0.153687 0.638232 0.857837
Si Si4 0.703279 0.301772 0.001276
Si Si5 0.103297 0.587814 0.107897
Si Si6 0.500000 0.771046 0.461065
Si Si7 0.750000 0.052398 0.750000
Si Si8 0.785663 0.500000 0.000000
O O1 0.587468 0.825730 0.209098
O O2 0.500000 0.756323 0.314765
O O3 0.500000 0.769479 0.064251
O O4 0.724830 0.325204 0.868111
O O5 0.835157 0.389581 0.784813
O O6 0.170471 0.589508 0.784292
O O7 0.246271 0.665216 0.896475
O O8 0.108548 0.623439 0.989912
O O9 0.750000 0.250000 0.000000
O O10 0.595368 0.297632 0.018179
O O11 0.000000 0.579797 0.144498
O O12 0.151818 0.540580 0.059428
O O13 0.765198 0.022480 0.878053
#
# Coordination Sequence:
#
# PCOD9479324 Si02
#       8
#     8   8  16  16  16   8   8   8
#     4  12  24  42  62  96 126 178 222 272 320 372
#     4  10  25  39  66  90 134 170 216 271 335 364
#     4  10  21  41  64  91 128 171 220 258 319 387
#     4  11  24  42  61  96 127 178 218 275 318 383
#     4  10  20  38  65  96 126 165 211 265 317 398
#     4  12  28  38  66  88 132 167 230 271 322 374
#     4  10  21  39  68  92 132 164 214 265 319 400
#     4  10  21  38  66 101 124 166 209 264 336 385
#
# _framework density 19.733339999999998
#
# number of rings (size 3 to 8) (size 9 to 14) (size 15 to 20)
#    0.000    1.455    2.727    1.909    3.818    0.727 
#    0.000    0.000    0.000    0.545    0.000    0.000 
#    0.000    0.000    0.000    0.000    0.000    0.000 
#
# Total GULP energy -245582.967754 kJ/mol
# GULP energy per Si atom -5581.431085 kJ/mol
# Density = 1.968843 g / cm^3
# Si number density = 19.733340 Si / 1000 Ang^3
#
#
#
# Elastic Constant Matrix: (Units=GPa)
#
#
# Indices 1 2 3 4 5 6 
#
# 1 137.7005 41.6795 48.5977 0.0000 0.0000 0.0000
# 2 41.6795 101.7812 67.5480 0.0000 0.0000 0.0000
# 3 48.5977 67.5480 138.6661 0.0000 0.0000 0.0000
# 4 0.0000 0.0000 0.0000 48.4459 0.0000 0.0000
# 5 0.0000 0.0000 0.0000 0.0000 17.4084 0.0000
# 6 0.0000 0.0000 0.0000 0.0000 0.0000 30.7309
#
#
#
# Elastic Compliance Matrix: (Units=1/GPa)
#
#
# Indices 1 2 3 4 5 6 
#
# 1 0.008624 -0.002254 -0.001924 0.000000 0.000000 0.000000
# 2 -0.002254 0.015108 -0.006569 0.000000 0.000000 0.000000
# 3 -0.001924 -0.006569 0.011086 0.000000 0.000000 0.000000
# 4 0.000000 0.000000 0.000000 0.020642 0.000000 0.000000
# 5 0.000000 0.000000 0.000000 0.000000 0.057444 0.000000
# 6 0.000000 0.000000 0.000000 0.000000 0.000000 0.032541
#
#
# Mechanical properties :
#
#
# Convention : Reuss Voigt Hill
#
# Bulk Modulus (GPa) = 75.06508 77.08870 76.07689
# Shear Modulus (GPa) = 29.17494 34.00519 31.59007
#
# Velocity S-wave (km/s) = 3.84925 4.15569 4.00540
# Velocity P-wave (km/s) = 7.60775 7.88520 7.74772
#
# Compressibility (1/GPa) = 0.01332177
#
# Stress axis : x y z
#
# Youngs Moduli (GPa) = 115.96130 66.18985 90.20350
#
# Poissons Ratio (x) = 0.14922 0.17356
# Poissons Ratio (y) = 0.26143 0.59259
# Poissons Ratio (z) = 0.22312 0.43483
#
# Static dielectric constant tensor:
#      x y z
#    x 1.699090 0.000000 0.000000 
#    y 0.000000 1.695430 0.000000 
#    z 0.000000 0.000000 1.700150 
# 
# From -- ./inp_files/14817.got.cif
#   From: 2010.05.17/outbox.cif.g08.bks.cpg/sg64_8_cif.got.tgz:14817.got - 2010.06.03 16:29:19.
