data_PCOD9479621
_publ_section_title
;
Structure prediction by ZEFSAII (Michael W. Deem and Ramdas Pophale) SiO2 
 PCOD9479621
Probable space group: C M C A
;
_chemical_formula_sum "Si O2"
_cell_formula_units_Z 128
_cell_length_a 19.734992
_cell_length_b 17.986559
_cell_length_c 20.442910
_cell_angle_alpha 90.000000
_cell_angle_beta 90.000000
_cell_angle_gamma 90.000000
_cell_volume 7256.509330
_symmetry_space_group_name_H-M "C M C A"
_symmetry_group_IT_number 64
_symmetry_cell_setting 'orthorhombic'
loop_
_space_group_symop_operation_xyz
x,y,z
-x,1/2-y,1/2+z
x,-y,-z
-x,1/2+y,1/2-z
-x,-y,-z
x,1/2+y,1/2-z
-x,y,z
x,1/2-y,1/2+z
1/2+x,1/2+y,z
1/2-x,-y,1/2+z
1/2+x,1/2-y,-z
1/2-x,y,1/2-z
1/2-x,1/2-y,-z
1/2+x,y,1/2-z
1/2-x,1/2+y,z
1/2+x,-y,1/2+z
loop_
_atom_site_type_symbol
_atom_site_label
_atom_site_fract_x
_atom_site_fract_y
_atom_site_fract_z
Si Si1 0.576088 0.096132 0.301135
Si Si2 0.923954 0.658343 0.757478
Si Si3 0.703839 0.324807 0.579623
Si Si4 0.920909 0.300055 0.827846
Si Si5 0.704418 0.314922 0.434449
Si Si6 0.726467 0.427680 0.817564
Si Si7 0.426786 0.740275 0.111628
Si Si8 0.201530 0.084664 0.693774
O O1 0.500000 0.061830 0.301744
O O2 0.582832 0.141650 0.232759
O O3 0.646745 0.053599 0.312233
O O4 0.577102 0.158043 0.358655
O O5 0.903532 0.718365 0.702057
O O6 0.925829 0.707481 0.823900
O O7 0.872443 0.592906 0.774228
O O8 0.000000 0.632521 0.743398
O O9 0.631801 0.322653 0.616311
O O10 0.703344 0.353122 0.505127
O O11 0.733009 0.241254 0.573993
O O12 0.754286 0.373937 0.623518
O O13 0.000000 0.298209 0.848306
O O14 0.636792 0.264321 0.430632
O O15 0.703812 0.370298 0.373437
O O16 0.750000 0.388419 0.750000
O O17 0.771317 0.502214 0.819694
O O18 0.500000 0.750187 0.078741
O O19 0.250000 0.118299 0.750000
#
# Coordination Sequence:
#
# PCOD9479621 Si02
#       8
#    16  16  16  16  16  16  16  16
#     4   9  16  30  53  80 106 133 174 225 273 316
#     4   8  15  30  52  76 102 133 172 217 264 315
#     4  11  21  33  52  78 109 141 181 225 277 328
#     4   9  17  30  53  83 109 138 174 222 277 319
#     4  10  21  34  51  78 109 143 179 221 277 330
#     4  11  21  34  53  80 107 140 183 227 273 325
#     4   8  14  27  50  76  98 128 171 216 263 316
#     4  10  21  35  52  77 105 141 186 223 269 329
#
# _framework density 17.639334999999999
#
# number of rings (size 3 to 8) (size 9 to 14) (size 15 to 20)
#    0.000    2.500    2.500    2.250    0.000    1.500 
#    0.000    3.125    0.000    0.750    0.000    5.250 
#    0.000    0.000    0.000    0.000    0.000    0.000 
#
# Total GULP energy -356391.471517 kJ/mol
# GULP energy per Si atom -5568.616742 kJ/mol
# Density = 1.759919 g / cm^3
# Si number density = 17.639335 Si / 1000 Ang^3
#
#
#
# Elastic Constant Matrix: (Units=GPa)
#
#
# Indices 1 2 3 4 5 6 
#
# 1 103.6814 23.6998 30.6251 0.0000 0.0000 0.0000
# 2 23.6998 44.2934 19.8853 0.0000 0.0000 0.0000
# 3 30.6251 19.8853 105.7041 0.0000 0.0000 0.0000
# 4 0.0000 0.0000 0.0000 14.8538 0.0000 0.0000
# 5 0.0000 0.0000 0.0000 0.0000 18.3028 0.0000
# 6 0.0000 0.0000 0.0000 0.0000 0.0000 24.8681
#
#
#
# Elastic Compliance Matrix: (Units=1/GPa)
#
#
# Indices 1 2 3 4 5 6 
#
# 1 0.011511 -0.005092 -0.002377 0.000000 0.000000 0.000000
# 2 -0.005092 0.026912 -0.003587 0.000000 0.000000 0.000000
# 3 -0.002377 -0.003587 0.010824 0.000000 0.000000 0.000000
# 4 0.000000 0.000000 0.000000 0.067323 0.000000 0.000000
# 5 0.000000 0.000000 0.000000 0.000000 0.054637 0.000000
# 6 0.000000 0.000000 0.000000 0.000000 0.000000 0.040212
#
#
# Mechanical properties :
#
#
# Convention : Reuss Voigt Hill
#
# Bulk Modulus (GPa) = 36.85445 44.67770 40.76607
# Shear Modulus (GPa) = 20.61212 23.56952 22.09082
#
# Velocity S-wave (km/s) = 3.42209 3.65936 3.54271
# Velocity P-wave (km/s) = 6.04590 6.57556 6.31629
#
# Compressibility (1/GPa) = 0.02713376
#
# Stress axis : x y z
#
# Youngs Moduli (GPa) = 86.87345 37.15846 92.38762
#
# Poissons Ratio (x) = 0.18921 0.21962
# Poissons Ratio (y) = 0.44235 0.33144
# Poissons Ratio (z) = 0.20651 0.13330
#
# Static dielectric constant tensor:
#      x y z
#    x 1.653730 0.000000 0.000000 
#    y 0.000000 1.606060 0.000000 
#    z 0.000000 0.000000 1.596580 
# 
# From -- ./inp_files/40539.got.cif
#   From: 2010.05.17/outbox.cif.g08.bks.cpg/sg64_21_cif.got.tgz:40539.got - 2010.06.03 16:29:19.
