data_PCOD9479262
_publ_section_title
;
Structure prediction by ZEFSAII (Michael W. Deem and Ramdas Pophale) SiO2 
 PCOD9479262
Probable space group: C M C A
;
_chemical_formula_sum "Si O2"
_cell_formula_units_Z 96
_cell_length_a 8.605637
_cell_length_b 23.960466
_cell_length_c 25.964100
_cell_angle_alpha 90.000000
_cell_angle_beta 90.000000
_cell_angle_gamma 90.000000
_cell_volume 5353.669488
_symmetry_space_group_name_H-M "C M C A"
_symmetry_group_IT_number 64
_symmetry_cell_setting 'orthorhombic'
loop_
_space_group_symop_operation_xyz
x,y,z
-x,1/2-y,1/2+z
x,-y,-z
-x,1/2+y,1/2-z
-x,-y,-z
x,1/2+y,1/2-z
-x,y,z
x,1/2-y,1/2+z
1/2+x,1/2+y,z
1/2-x,-y,1/2+z
1/2+x,1/2-y,-z
1/2-x,y,1/2-z
1/2-x,1/2-y,-z
1/2+x,y,1/2-z
1/2-x,1/2+y,z
1/2+x,-y,1/2+z
loop_
_atom_site_type_symbol
_atom_site_label
_atom_site_fract_x
_atom_site_fract_y
_atom_site_fract_z
Si Si1 0.686164 0.497645 0.939145
Si Si2 0.314448 0.812518 0.499208
Si Si3 0.187046 0.115493 0.595669
Si Si4 0.686890 0.812682 0.193543
Si Si5 0.813031 0.683723 0.306979
Si Si6 0.315136 0.380294 0.595881
O O1 0.500000 0.492454 0.935900
O O2 0.741443 0.554605 0.912761
O O3 0.764250 0.443884 0.913630
O O4 0.727793 0.500000 0.000000
O O5 0.500000 0.812251 0.494765
O O6 0.250000 0.750000 0.500000
O O7 0.241961 0.846110 0.451567
O O8 0.265227 0.843776 0.551307
O O9 0.237277 0.145495 0.648608
O O10 0.000000 0.111726 0.595132
O O11 0.500000 0.813814 0.195470
O O12 0.750000 0.826868 0.250000
O O13 0.731919 0.748417 0.181553
O O14 0.750000 0.671078 0.250000
O O15 0.741585 0.643495 0.349635
O O16 0.000000 0.680026 0.307779
O O17 0.500000 0.375185 0.591421
#
# Coordination Sequence:
#
# PCOD9479262 Si02
#       6
#    16  16  16  16  16  16
#     4  11  23  40  61  85 116 158 203 247 299 356
#     4  12  24  38  57  86 120 155 193 241 299 358
#     4  11  22  38  60  88 119 154 198 245 296 355
#     4   9  20  37  60  88 119 155 193 237 290 349
#     4  10  20  38  62  89 123 159 198 244 296 356
#     4  12  24  39  61  88 118 156 200 247 300 357
#
# _framework density 17.931626000000001
#
# number of rings (size 3 to 8) (size 9 to 14) (size 15 to 20)
#    0.000    1.167    1.667    5.500    0.000    4.000 
#    0.000    0.833    0.000    2.000    0.000    0.000 
#    0.000    0.000    0.000    0.000    0.000    0.000 
#
# Total GULP energy -268415.326467 kJ/mol
# GULP energy per Si atom -5591.985968 kJ/mol
# Density = 1.789081 g / cm^3
# Si number density = 17.931626 Si / 1000 Ang^3
#
#
#
# Elastic Constant Matrix: (Units=GPa)
#
#
# Indices 1 2 3 4 5 6 
#
# 1 34.8721 -6.1037 2.2474 0.0000 0.0000 0.0000
# 2 -6.1037 106.3105 53.0759 0.0000 0.0000 0.0000
# 3 2.2474 53.0759 109.0853 0.0000 0.0000 0.0000
# 4 0.0000 0.0000 0.0000 -152.0316 0.0000 0.0000
# 5 0.0000 0.0000 0.0000 0.0000 33.1359 0.0000
# 6 0.0000 0.0000 0.0000 0.0000 0.0000 61.7156
#
#
#
# Elastic Compliance Matrix: (Units=1/GPa)
#
#
# Indices 1 2 3 4 5 6 
#
# 1 0.029255 0.002616 -0.001876 0.000000 0.000000 0.000000
# 2 0.002616 0.012658 -0.006213 0.000000 0.000000 0.000000
# 3 -0.001876 -0.006213 0.012229 0.000000 0.000000 0.000000
# 4 0.000000 0.000000 0.000000 -0.006578 0.000000 0.000000
# 5 0.000000 0.000000 0.000000 0.000000 0.030179 0.000000
# 6 0.000000 0.000000 0.000000 0.000000 0.000000 0.016203
#
#
# Mechanical properties :
#
#
# Convention : Reuss Voigt Hill
#
# Bulk Modulus (GPa) = 23.14963 38.74523 30.94743
# Shear Modulus (GPa) = 41.91446 1.96720 21.94083
#
# Velocity S-wave (km/s) = 4.83997 1.04854 3.50177
# Velocity P-wave (km/s) = 6.64618 4.80833 5.80051
#
# Compressibility (1/GPa) = 0.04319724
#
# Stress axis : x y z
#
# Youngs Moduli (GPa) = 34.18221 78.99878 81.77485
#
# Poissons Ratio (x) = -0.20666 0.15337
# Poissons Ratio (y) = -0.08942 0.50806
# Poissons Ratio (z) = 0.06411 0.49081
#
# Static dielectric constant tensor:
#      x y z
#    x 1.602950 0.000000 0.000000 
#    y 0.000000 1.585660 0.000000 
#    z 0.000000 0.000000 1.588400 
# 
# From -- ./inp_files/43026.got.cif
#   From: 2010.05.17/outbox.cif.g08.bks.cpg/sg64_22_cif.got.tgz:43026.got - 2010.06.03 16:29:19.
