data_PCOD9479477
_publ_section_title
;
Structure prediction by ZEFSAII (Michael W. Deem and Ramdas Pophale) SiO2 
 PCOD9479477
Probable space group: C M C A
;
_chemical_formula_sum "Si O2"
_cell_formula_units_Z 64
_cell_length_a 16.207055
_cell_length_b 15.658522
_cell_length_c 10.002760
_cell_angle_alpha 90.000000
_cell_angle_beta 90.000000
_cell_angle_gamma 90.000000
_cell_volume 2538.485701
_symmetry_space_group_name_H-M "C M C A"
_symmetry_group_IT_number 64
_symmetry_cell_setting 'orthorhombic'
loop_
_space_group_symop_operation_xyz
x,y,z
-x,1/2-y,1/2+z
x,-y,-z
-x,1/2+y,1/2-z
-x,-y,-z
x,1/2+y,1/2-z
-x,y,z
x,1/2-y,1/2+z
1/2+x,1/2+y,z
1/2-x,-y,1/2+z
1/2+x,1/2-y,-z
1/2-x,y,1/2-z
1/2-x,1/2-y,-z
1/2+x,y,1/2-z
1/2-x,1/2+y,z
1/2+x,-y,1/2+z
loop_
_atom_site_type_symbol
_atom_site_label
_atom_site_fract_x
_atom_site_fract_y
_atom_site_fract_z
Si Si1 0.250000 0.769200 0.750000
Si Si2 0.589708 0.320940 0.606194
Si Si3 0.775317 0.000000 0.000000
Si Si4 0.909229 0.877837 0.053021
Si Si5 0.153825 0.890413 0.351066
O O1 0.325463 0.823006 0.810536
O O2 0.206283 0.698795 0.847367
O O3 0.500000 0.331945 0.675748
O O4 0.590966 0.223999 0.550588
O O5 0.595614 0.381897 0.478849
O O6 0.837433 0.077706 0.030504
O O7 0.716589 0.034268 0.884383
O O8 0.890647 0.899220 0.209347
O O9 0.000000 0.906531 0.013708
#
# Coordination Sequence:
#
# PCOD9479477 Si02
#       5
#     8  16   8  16  16
#     4  10  20  40  64  94 126 166 204 268 322 374
#     4  10  21  40  69  96 123 165 214 268 325 380
#     4  12  21  38  63  92 126 178 212 246 318 384
#     4  10  22  42  65  93 128 164 213 268 318 377
#     4  11  21  41  62  92 128 168 209 259 325 377
#
# _framework density 25.211883
#
# number of rings (size 3 to 8) (size 9 to 14) (size 15 to 20)
#    0.000    1.500    5.000    1.875    0.000    1.000 
#    4.500    2.500    0.000    0.000    0.000    0.000 
#    0.000    0.000    0.000    0.000    0.000    0.000 
#
# Total GULP energy -178921.219969 kJ/mol
# GULP energy per Si atom -5591.288124 kJ/mol
# Density = 2.515450 g / cm^3
# Si number density = 25.211883 Si / 1000 Ang^3
#
#
#
# Elastic Constant Matrix: (Units=GPa)
#
#
# Indices 1 2 3 4 5 6 
#
# 1 187.4642 38.8543 42.7112 0.0000 0.0000 0.0000
# 2 38.8543 46.3622 42.7983 0.0000 0.0000 0.0000
# 3 42.7112 42.7983 76.6817 0.0000 0.0000 0.0000
# 4 0.0000 0.0000 0.0000 23.9411 0.0000 0.0000
# 5 0.0000 0.0000 0.0000 0.0000 26.7447 0.0000
# 6 0.0000 0.0000 0.0000 0.0000 0.0000 17.1947
#
#
#
# Elastic Compliance Matrix: (Units=1/GPa)
#
#
# Indices 1 2 3 4 5 6 
#
# 1 0.006509 -0.004348 -0.001198 0.000000 0.000000 0.000000
# 2 -0.004348 0.047399 -0.024033 0.000000 0.000000 0.000000
# 3 -0.001198 -0.024033 0.027122 0.000000 0.000000 0.000000
# 4 0.000000 0.000000 0.000000 0.041769 0.000000 0.000000
# 5 0.000000 0.000000 0.000000 0.000000 0.037391 0.000000
# 6 0.000000 0.000000 0.000000 0.000000 0.000000 0.058158
#
#
# Mechanical properties :
#
#
# Convention : Reuss Voigt Hill
#
# Bulk Modulus (GPa) = 45.72385 62.13729 53.93057
# Shear Modulus (GPa) = 17.55646 25.98572 21.77109
#
# Velocity S-wave (km/s) = 2.64172 3.21392 2.94177
# Velocity P-wave (km/s) = 5.24215 6.20258 5.74248
#
# Compressibility (1/GPa) = 0.02187043
#
# Stress axis : x y z
#
# Youngs Moduli (GPa) = 153.64214 21.09754 36.87086
#
# Poissons Ratio (x) = 0.09174 0.04418
# Poissons Ratio (y) = 0.66811 0.88611
# Poissons Ratio (z) = 0.18410 0.50703
#
# Static dielectric constant tensor:
#      x y z
#    x 2.027420 0.000000 0.000000 
#    y 0.000000 1.990320 0.000000 
#    z 0.000000 0.000000 1.989820 
# 
# From -- ./inp_files/15668.got.cif
#   From: 2010.05.17/outbox.cif.g08.bks.cpg/sg64_8_cif.got.tgz:15668.got - 2010.06.03 16:29:19.
