data_PCOD9479343
_publ_section_title
;
Structure prediction by ZEFSAII (Michael W. Deem and Ramdas Pophale) SiO2 
 PCOD9479343
Probable space group: C M C A
;
_chemical_formula_sum "Si O2"
_cell_formula_units_Z 48
_cell_length_a 18.816763
_cell_length_b 9.340631
_cell_length_c 10.145622
_cell_angle_alpha 90.000000
_cell_angle_beta 90.000000
_cell_angle_gamma 90.000000
_cell_volume 1783.198985
_symmetry_space_group_name_H-M "C M C A"
_symmetry_group_IT_number 64
_symmetry_cell_setting 'orthorhombic'
loop_
_space_group_symop_operation_xyz
x,y,z
-x,1/2-y,1/2+z
x,-y,-z
-x,1/2+y,1/2-z
-x,-y,-z
x,1/2+y,1/2-z
-x,y,z
x,1/2-y,1/2+z
1/2+x,1/2+y,z
1/2-x,-y,1/2+z
1/2+x,1/2-y,-z
1/2-x,y,1/2-z
1/2-x,1/2-y,-z
1/2+x,y,1/2-z
1/2-x,1/2+y,z
1/2+x,-y,1/2+z
loop_
_atom_site_type_symbol
_atom_site_label
_atom_site_fract_x
_atom_site_fract_y
_atom_site_fract_z
Si Si1 0.000000 0.282620 0.080325
Si Si2 0.250000 0.216556 0.750000
Si Si3 0.000000 0.067711 0.849563
Si Si4 0.878999 0.500000 0.000000
Si Si5 0.156956 0.033346 0.208575
O O1 0.000000 0.142232 0.990925
O O2 0.069082 0.369012 0.033019
O O3 0.000000 0.303519 0.238610
O O4 0.199140 0.109481 0.832549
O O5 0.196214 0.320439 0.670323
O O6 0.074119 0.985178 0.821978
O O7 0.837333 0.534000 0.132131
#
# Coordination Sequence:
#
# PCOD9479343 Si02
#       5
#     8   8   8   8  16
#     4   9  18  34  61  95 123 155 206 262 310 356
#     4  10  22  38  56  88 126 160 200 258 314 366
#     4  10  20  38  67  92 121 166 212 256 304 370
#     4   9  18  34  60  86 118 167 206 250 310 371
#     4  10  21  37  61  87 121 160 206 253 309 368
#
# _framework density 26.917915000000001
#
# number of rings (size 3 to 8) (size 9 to 14) (size 15 to 20)
#    0.000    2.333    0.000    3.000    0.000    2.667 
#    0.000    3.333    0.000   60.000    0.000    0.000 
#    0.000    1.333    0.000    0.000    0.000    0.000 
#
# Total GULP energy -134386.767672 kJ/mol
# GULP energy per Si atom -5599.448653 kJ/mol
# Density = 2.685665 g / cm^3
# Si number density = 26.917915 Si / 1000 Ang^3
#
#
#
# Elastic Constant Matrix: (Units=GPa)
#
#
# Indices 1 2 3 4 5 6 
#
# 1 220.2883 92.1619 41.6666 0.0000 0.0000 0.0000
# 2 92.1619 166.4342 10.2284 0.0000 0.0000 0.0000
# 3 41.6666 10.2284 130.1473 0.0000 0.0000 0.0000
# 4 0.0000 0.0000 0.0000 27.0172 0.0000 0.0000
# 5 0.0000 0.0000 0.0000 0.0000 -7.4716 0.0000
# 6 0.0000 0.0000 0.0000 0.0000 0.0000 38.1889
#
#
#
# Elastic Compliance Matrix: (Units=1/GPa)
#
#
# Indices 1 2 3 4 5 6 
#
# 1 0.006280 -0.003370 -0.001746 0.000000 0.000000 0.000000
# 2 -0.003370 0.007846 0.000462 0.000000 0.000000 0.000000
# 3 -0.001746 0.000462 0.008206 0.000000 0.000000 0.000000
# 4 0.000000 0.000000 0.000000 0.037013 0.000000 0.000000
# 5 0.000000 0.000000 0.000000 0.000000 -0.133841 0.000000
# 6 0.000000 0.000000 0.000000 0.000000 0.000000 0.026186
#
#
# Mechanical properties :
#
#
# Convention : Reuss Voigt Hill
#
# Bulk Modulus (GPa) = 76.77417 89.44262 83.10840
# Shear Modulus (GPa) = -144.25070 36.40112 -53.92479
#
# Velocity S-wave (km/s) = -7.32840 3.68135 -4.48069
# Velocity P-wave (km/s) = 6.55925 7.16728 2.04281
#
# Compressibility (1/GPa) = 0.01302521
#
# Stress axis : x y z
#
# Youngs Moduli (GPa) = 159.24649 127.45209 121.86045
#
# Poissons Ratio (x) = 0.42951 0.21271
# Poissons Ratio (y) = 0.53666 -0.05633
# Poissons Ratio (z) = 0.27797 -0.05892
#
# Static dielectric constant tensor:
#      x y z
#    x 2.046040 0.000000 0.000000 
#    y 0.000000 2.282530 0.000000 
#    z 0.000000 0.000000 2.061670 
# 
# From -- ./inp_files/15262.got.cif
#   From: 2010.05.17/outbox.cif.g08.bks.cpg/sg64_8_cif.got.tgz:15262.got - 2010.06.03 16:29:19.
