data_PCOD9479555
_publ_section_title
;
Structure prediction by ZEFSAII (Michael W. Deem and Ramdas Pophale) SiO2 
 PCOD9479555
Probable space group: C M C A
;
_chemical_formula_sum "Si O2"
_cell_formula_units_Z 104
_cell_length_a 20.390550
_cell_length_b 26.164773
_cell_length_c 9.824636
_cell_angle_alpha 90.000000
_cell_angle_beta 90.000000
_cell_angle_gamma 90.000000
_cell_volume 5241.581952
_symmetry_space_group_name_H-M "C M C A"
_symmetry_group_IT_number 64
_symmetry_cell_setting 'orthorhombic'
loop_
_space_group_symop_operation_xyz
x,y,z
-x,1/2-y,1/2+z
x,-y,-z
-x,1/2+y,1/2-z
-x,-y,-z
x,1/2+y,1/2-z
-x,y,z
x,1/2-y,1/2+z
1/2+x,1/2+y,z
1/2-x,-y,1/2+z
1/2+x,1/2-y,-z
1/2-x,y,1/2-z
1/2-x,1/2-y,-z
1/2+x,y,1/2-z
1/2-x,1/2+y,z
1/2+x,-y,1/2+z
loop_
_atom_site_type_symbol
_atom_site_label
_atom_site_fract_x
_atom_site_fract_y
_atom_site_fract_z
Si Si1 0.376320 0.050494 0.788260
Si Si2 0.500000 0.618493 0.624712
Si Si3 0.385416 0.794723 0.125427
Si Si4 0.709154 0.123525 0.962395
Si Si5 0.139522 0.599615 0.507741
Si Si6 0.422869 0.794974 0.426587
Si Si7 0.173850 0.558504 0.218380
O O1 0.442246 0.075797 0.844094
O O2 0.317232 0.084389 0.848975
O O3 0.374235 0.058040 0.624747
O O4 0.363678 0.992154 0.827973
O O5 0.557629 0.662815 0.604227
O O6 0.319224 0.821370 0.073850
O O7 0.384733 0.784772 0.286470
O O8 0.401665 0.744040 0.042596
O O9 0.786991 0.121099 0.971469
O O10 0.678803 0.101874 0.103472
O O11 0.090618 0.646667 0.531095
O O12 0.139775 0.578086 0.355721
O O13 0.500000 0.788993 0.397633
O O14 0.250000 0.544344 0.250000
#
# Coordination Sequence:
#
# PCOD9479555 Si02
#       7
#    16   8  16  16  16  16  16
#     4  11  20  38  66  87 124 168 209 244 307 365
#     4  10  20  42  60  90 124 160 201 258 292 363
#     4  11  23  41  65  86 122 158 210 252 314 368
#     4  10  22  40  61  90 124 160 202 259 308 366
#     4  11  22  38  63  92 125 159 204 256 309 362
#     4  12  23  42  65  89 119 165 205 254 314 375
#     4  10  22  39  60  92 128 162 205 252 306 370
#
# _framework density 19.841338
#
# number of rings (size 3 to 8) (size 9 to 14) (size 15 to 20)
#    0.000    1.231    4.615    2.308    2.154    3.077 
#    1.385    6.923    0.000    0.000    0.000    0.000 
#    0.000    0.000    0.000    0.000    0.000    0.000 
#
# Total GULP energy -289539.955544 kJ/mol
# GULP energy per Si atom -5568.076068 kJ/mol
# Density = 1.979618 g / cm^3
# Si number density = 19.841338 Si / 1000 Ang^3
#
#
#
# Elastic Constant Matrix: (Units=GPa)
#
#
# Indices 1 2 3 4 5 6 
#
# 1 18.8081 -2.6208 -7.4182 0.0000 0.0000 0.0000
# 2 -2.6208 42.9203 20.1382 0.0000 0.0000 0.0000
# 3 -7.4182 20.1382 61.9694 0.0000 0.0000 0.0000
# 4 0.0000 0.0000 0.0000 29.6553 0.0000 0.0000
# 5 0.0000 0.0000 0.0000 0.0000 10.0368 0.0000
# 6 0.0000 0.0000 0.0000 0.0000 0.0000 22.5850
#
#
#
# Elastic Compliance Matrix: (Units=1/GPa)
#
#
# Indices 1 2 3 4 5 6 
#
# 1 0.055807 0.000322 0.006576 0.000000 0.000000 0.000000
# 2 0.000322 0.027493 -0.008896 0.000000 0.000000 0.000000
# 3 0.006576 -0.008896 0.019815 0.000000 0.000000 0.000000
# 4 0.000000 0.000000 0.000000 0.033721 0.000000 0.000000
# 5 0.000000 0.000000 0.000000 0.000000 0.099633 0.000000
# 6 0.000000 0.000000 0.000000 0.000000 0.000000 0.044277
#
#
# Mechanical properties :
#
#
# Convention : Reuss Voigt Hill
#
# Bulk Modulus (GPa) = 10.08883 15.98846 13.03864
# Shear Modulus (GPa) = 15.73413 20.02866 17.88139
#
# Velocity S-wave (km/s) = 2.81908 3.18062 3.00529
# Velocity P-wave (km/s) = 3.96132 4.64371 4.31602
#
# Compressibility (1/GPa) = 0.09911954
#
# Stress axis : x y z
#
# Youngs Moduli (GPa) = 17.91886 36.37349 50.46685
#
# Poissons Ratio (x) = -0.01173 -0.33186
# Poissons Ratio (y) = -0.00578 0.44894
# Poissons Ratio (z) = -0.11783 0.32357
#
# Static dielectric constant tensor:
#      x y z
#    x 1.679680 0.000000 0.000000 
#    y 0.000000 1.658750 0.000000 
#    z 0.000000 0.000000 1.728410 
# 
# From -- ./inp_files/8496.got.cif
#   From: 2010.05.17/outbox.cif.g08.bks.cpg/sg64_5_cif.got.tgz:8496.got - 2010.06.03 16:29:19.
