data_PCOD9479963
_publ_section_title
;
Structure prediction by ZEFSAII (Michael W. Deem and Ramdas Pophale) SiO2 
 PCOD9479963
Probable space group: C M C A
;
_chemical_formula_sum "Si O2"
_cell_formula_units_Z 116
_cell_length_a 16.760300
_cell_length_b 25.429019
_cell_length_c 11.700113
_cell_angle_alpha 90.000000
_cell_angle_beta 90.000000
_cell_angle_gamma 90.000000
_cell_volume 4986.564610
_symmetry_space_group_name_H-M "C M C A"
_symmetry_group_IT_number 64
_symmetry_cell_setting 'orthorhombic'
loop_
_space_group_symop_operation_xyz
x,y,z
-x,1/2-y,1/2+z
x,-y,-z
-x,1/2+y,1/2-z
-x,-y,-z
x,1/2+y,1/2-z
-x,y,z
x,1/2-y,1/2+z
1/2+x,1/2+y,z
1/2-x,-y,1/2+z
1/2+x,1/2-y,-z
1/2-x,y,1/2-z
1/2-x,1/2-y,-z
1/2+x,y,1/2-z
1/2-x,1/2+y,z
1/2+x,-y,1/2+z
loop_
_atom_site_type_symbol
_atom_site_label
_atom_site_fract_x
_atom_site_fract_y
_atom_site_fract_z
Si Si1 0.911632 0.832175 0.727841
Si Si2 0.624461 0.083841 0.416155
Si Si3 0.661825 0.262883 0.549458
Si Si4 0.656526 0.147219 0.881049
Si Si5 0.000000 0.000000 0.000000
Si Si6 0.150447 0.848405 0.123483
Si Si7 0.589445 0.570371 0.446029
Si Si8 0.235524 0.484774 0.870347
O O1 0.899232 0.863817 0.845281
O O2 0.846755 0.792275 0.672956
O O3 0.913122 0.880314 0.638957
O O4 0.000000 0.806897 0.728307
O O5 0.625735 0.103014 0.546811
O O6 0.709220 0.067251 0.362601
O O7 0.568510 0.032756 0.423757
O O8 0.750000 0.250000 0.500000
O O9 0.626452 0.303421 0.456805
O O10 0.622843 0.206335 0.567763
O O11 0.752596 0.151399 0.877767
O O12 0.624134 0.148645 0.753735
O O13 0.634086 0.093273 0.943555
O O14 0.500000 0.555052 0.472263
O O15 0.642387 0.527501 0.382654
O O16 0.250000 0.514748 0.750000
O O17 0.258884 0.500000 0.000000
#
# Coordination Sequence:
#
# PCOD9479963 Si02
#       8
#    16  16  16  16   4  16  16  16
#     4  10  21  41  70  97 139 190 241 301 372 456
#     4  12  24  45  73 100 140 201 248 322 387 467
#     4   9  20  38  64 105 141 188 235 298 356 455
#     4   9  19  39  59  99 142 183 237 299 359 451
#     4  12  28  52  68 104 148 184 272 324 402 466
#     4  10  21  37  67  99 142 187 243 298 381 443
#     4  10  21  42  69  94 133 185 243 303 380 463
#     4  12  26  45  70 105 138 186 250 323 399 469
#
# _framework density 23.262509000000001
#
# number of rings (size 3 to 8) (size 9 to 14) (size 15 to 20)
#    0.000    1.655    4.138    0.000    1.931    1.379 
#    4.966    0.000    0.000    0.000    0.000    0.000 
#    0.000    0.000    0.000    0.000    0.000    0.000 
#
# Total GULP energy -322951.877170 kJ/mol
# GULP energy per Si atom -5568.135813 kJ/mol
# Density = 2.320956 g / cm^3
# Si number density = 23.262509 Si / 1000 Ang^3
#
#
#
# Elastic Constant Matrix: (Units=GPa)
#
#
# Indices 1 2 3 4 5 6 
#
# 1 67.2581 17.3398 26.4591 0.0000 0.0000 0.0000
# 2 17.3398 70.5629 31.0426 0.0000 0.0000 0.0000
# 3 26.4591 31.0426 158.0166 0.0000 0.0000 0.0000
# 4 0.0000 0.0000 0.0000 36.9166 0.0000 0.0000
# 5 0.0000 0.0000 0.0000 0.0000 11.8126 0.0000
# 6 0.0000 0.0000 0.0000 0.0000 0.0000 8.1594
#
#
#
# Elastic Compliance Matrix: (Units=1/GPa)
#
#
# Indices 1 2 3 4 5 6 
#
# 1 0.016518 -0.003111 -0.002155 0.000000 0.000000 0.000000
# 2 -0.003111 0.016098 -0.002642 0.000000 0.000000 0.000000
# 3 -0.002155 -0.002642 0.007208 0.000000 0.000000 0.000000
# 4 0.000000 0.000000 0.000000 0.027088 0.000000 0.000000
# 5 0.000000 0.000000 0.000000 0.000000 0.084655 0.000000
# 6 0.000000 0.000000 0.000000 0.000000 0.000000 0.122558
#
#
# Mechanical properties :
#
#
# Convention : Reuss Voigt Hill
#
# Bulk Modulus (GPa) = 41.64996 49.50229 45.57612
# Shear Modulus (GPa) = 16.78168 26.11079 21.44623
#
# Velocity S-wave (km/s) = 2.68881 3.35392 3.03961
# Velocity P-wave (km/s) = 5.25193 6.02697 5.65275
#
# Compressibility (1/GPa) = 0.02400963
#
# Stress axis : x y z
#
# Youngs Moduli (GPa) = 60.54072 62.11809 138.73120
#
# Poissons Ratio (x) = 0.19326 0.29892
# Poissons Ratio (y) = 0.18835 0.36647
# Poissons Ratio (z) = 0.13044 0.16409
#
# Static dielectric constant tensor:
#      x y z
#    x 1.891080 0.000000 0.000000 
#    y 0.000000 1.960390 0.000000 
#    z 0.000000 0.000000 1.799330 
# 
# From -- ./inp_files/16459.got.cif
#   From: 2010.05.17/outbox.cif.g08.bks.cpg/sg64_9_cif.got.tgz:16459.got - 2010.06.03 16:29:19.
