data_PCOD9479735
_publ_section_title
;
Structure prediction by ZEFSAII (Michael W. Deem and Ramdas Pophale) SiO2 
 PCOD9479735
Probable space group: C M C A
;
_chemical_formula_sum "Si O2"
_cell_formula_units_Z 64
_cell_length_a 9.115321
_cell_length_b 10.834987
_cell_length_c 28.666125
_cell_angle_alpha 90.000000
_cell_angle_beta 90.000000
_cell_angle_gamma 90.000000
_cell_volume 2831.192193
_symmetry_space_group_name_H-M "C M C A"
_symmetry_group_IT_number 64
_symmetry_cell_setting 'orthorhombic'
loop_
_space_group_symop_operation_xyz
x,y,z
-x,1/2-y,1/2+z
x,-y,-z
-x,1/2+y,1/2-z
-x,-y,-z
x,1/2+y,1/2-z
-x,y,z
x,1/2-y,1/2+z
1/2+x,1/2+y,z
1/2-x,-y,1/2+z
1/2+x,1/2-y,-z
1/2-x,y,1/2-z
1/2-x,1/2-y,-z
1/2+x,y,1/2-z
1/2-x,1/2+y,z
1/2+x,-y,1/2+z
loop_
_atom_site_type_symbol
_atom_site_label
_atom_site_fract_x
_atom_site_fract_y
_atom_site_fract_z
Si Si1 0.160143 0.289063 0.072400
Si Si2 0.324035 0.585185 0.851634
Si Si3 0.823379 0.822473 0.800565
Si Si4 0.663542 0.895600 0.971961
O O1 0.244994 0.397696 0.098336
O O2 0.261831 0.169575 0.071101
O O3 0.000000 0.268969 0.093582
O O4 0.139991 0.308884 0.017181
O O5 0.500000 0.601624 0.855442
O O6 0.251581 0.701213 0.823769
O O7 0.297779 0.451923 0.828103
O O8 0.750000 0.836483 0.750000
O O9 0.000000 0.805211 0.796785
O O10 0.500000 0.940605 0.957770
O O11 0.752021 0.000000 0.000000
#
# Coordination Sequence:
#
# PCOD9479735 Si02
#       4
#    16  16  16  16
#     4  10  21  36  56  87 122 161 210 262 313 371
#     4  11  25  43  67  97 132 171 213 264 317 380
#     4  11  25  45  69  99 130 167 212 260 321 385
#     4   9  19  36  57  82 117 163 208 255 315 375
#
# _framework density 22.605318
#
# number of rings (size 3 to 8) (size 9 to 14) (size 15 to 20)
#    0.000    1.750    0.000    3.000    3.500    7.500 
#    0.000    0.000    0.000    0.000    0.000    0.000 
#    0.000    0.000    0.000    0.000    0.000    0.000 
#
# Total GULP energy -178295.171086 kJ/mol
# GULP energy per Si atom -5571.724096 kJ/mol
# Density = 2.255387 g / cm^3
# Si number density = 22.605318 Si / 1000 Ang^3
#
#
#
# Elastic Constant Matrix: (Units=GPa)
#
#
# Indices 1 2 3 4 5 6 
#
# 1 126.8394 49.0793 43.3090 0.0000 0.0000 0.0000
# 2 49.0793 110.4492 25.9370 0.0000 0.0000 0.0000
# 3 43.3090 25.9370 86.4129 0.0000 0.0000 0.0000
# 4 0.0000 0.0000 0.0000 46.7587 0.0000 0.0000
# 5 0.0000 0.0000 0.0000 0.0000 -550.2947 0.0000
# 6 0.0000 0.0000 0.0000 0.0000 0.0000 35.0861
#
#
#
# Elastic Compliance Matrix: (Units=1/GPa)
#
#
# Indices 1 2 3 4 5 6 
#
# 1 0.010816 -0.003801 -0.004280 0.000000 0.000000 0.000000
# 2 -0.003801 0.011076 -0.001419 0.000000 0.000000 0.000000
# 3 -0.004280 -0.001419 0.014143 0.000000 0.000000 0.000000
# 4 0.000000 0.000000 0.000000 0.021386 0.000000 0.000000
# 5 0.000000 0.000000 0.000000 0.000000 -0.001817 0.000000
# 6 0.000000 0.000000 0.000000 0.000000 0.000000 0.028501
#
#
# Mechanical properties :
#
#
# Convention : Reuss Voigt Hill
#
# Bulk Modulus (GPa) = 58.70372 62.26133 60.48253
# Shear Modulus (GPa) = 45.96171 -79.99822 -17.01825
#
# Velocity S-wave (km/s) = 4.51402 -5.95533 -2.74677
# Velocity P-wave (km/s) = 7.29341 4.43682 4.09320
#
# Compressibility (1/GPa) = 0.01703469
#
# Stress axis : x y z
#
# Youngs Moduli (GPa) = 92.45368 90.28216 70.70393
#
# Poissons Ratio (x) = 0.34318 0.30261
# Poissons Ratio (y) = 0.35144 0.10036
# Poissons Ratio (z) = 0.39570 0.12815
#
# Static dielectric constant tensor:
#      x y z
#    x 1.928320 0.000000 0.000000 
#    y 0.000000 1.930430 0.000000 
#    z 0.000000 0.000000 1.908860 
# 
# From -- ./inp_files/51541.got.cif
#   From: 2010.05.17/outbox.cif.g08.bks.cpg/sg64_26_cif.got.tgz:51541.got - 2010.06.03 16:29:19.
