data_PCOD9479360
_publ_section_title
;
Structure prediction by ZEFSAII (Michael W. Deem and Ramdas Pophale) SiO2 
 PCOD9479360
Probable space group: C M C A
;
_chemical_formula_sum "Si O2"
_cell_formula_units_Z 112
_cell_length_a 28.161380
_cell_length_b 14.712765
_cell_length_c 14.943190
_cell_angle_alpha 90.000000
_cell_angle_beta 90.000000
_cell_angle_gamma 90.000000
_cell_volume 6191.438303
_symmetry_space_group_name_H-M "C M C A"
_symmetry_group_IT_number 64
_symmetry_cell_setting 'orthorhombic'
loop_
_space_group_symop_operation_xyz
x,y,z
-x,1/2-y,1/2+z
x,-y,-z
-x,1/2+y,1/2-z
-x,-y,-z
x,1/2+y,1/2-z
-x,y,z
x,1/2-y,1/2+z
1/2+x,1/2+y,z
1/2-x,-y,1/2+z
1/2+x,1/2-y,-z
1/2-x,y,1/2-z
1/2-x,1/2-y,-z
1/2+x,y,1/2-z
1/2-x,1/2+y,z
1/2+x,-y,1/2+z
loop_
_atom_site_type_symbol
_atom_site_label
_atom_site_fract_x
_atom_site_fract_y
_atom_site_fract_z
Si Si1 0.443033 0.978224 0.604960
Si Si2 0.125125 0.750689 0.998939
Si Si3 0.803079 0.634741 0.253979
Si Si4 0.444371 0.320594 0.151519
Si Si5 0.308341 0.410407 0.556390
Si Si6 0.200369 0.906101 0.952344
Si Si7 0.401207 0.708739 0.189128
O O1 0.500000 0.962066 0.604656
O O2 0.418918 0.890527 0.652259
O O3 0.429848 0.000000 0.500000
O O4 0.432758 0.071656 0.658462
O O5 0.163792 0.830143 0.983192
O O6 0.103002 0.733692 0.901595
O O7 0.086192 0.782410 0.069435
O O8 0.153288 0.664753 0.034300
O O9 0.750000 0.678876 0.250000
O O10 0.808402 0.577626 0.163561
O O11 0.803536 0.579184 0.345932
O O12 0.848836 0.698837 0.266020
O O13 0.500000 0.315535 0.130047
O O14 0.433223 0.259882 0.238442
O O15 0.317779 0.500000 0.500000
O O16 0.255016 0.378777 0.530401
O O17 0.190450 0.000000 0.000000
#
# Coordination Sequence:
#
# PCOD9479360 Si02
#       7
#    16  16  16  16  16  16  16
#     4  10  21  39  64  89 116 153 200 255 305 358
#     4  11  22  37  61  89 115 158 202 253 297 363
#     4   9  19  35  56  85 117 154 196 239 288 349
#     4  11  24  40  62  91 120 155 200 253 310 358
#     4  10  20  39  57  83 124 165 195 236 303 369
#     4   9  20  36  61  88 118 153 199 252 297 354
#     4  11  22  38  64  89 121 157 199 252 304 360
#
# _framework density 18.089496
#
# number of rings (size 3 to 8) (size 9 to 14) (size 15 to 20)
#    0.000    1.857    2.857    0.857    4.000    1.714 
#    0.000    0.000    0.000    1.286    0.000    0.000 
#    0.000    0.000    0.000    0.000    0.000    0.000 
#
# Total GULP energy -312206.642844 kJ/mol
# GULP energy per Si atom -5575.118622 kJ/mol
# Density = 1.804832 g / cm^3
# Si number density = 18.089496 Si / 1000 Ang^3
#
#
#
# Elastic Constant Matrix: (Units=GPa)
#
#
# Indices 1 2 3 4 5 6 
#
# 1 91.7067 47.8099 45.9493 0.0000 0.0000 0.0000
# 2 47.8099 75.9023 58.1052 0.0000 0.0000 0.0000
# 3 45.9493 58.1052 104.6847 0.0000 0.0000 0.0000
# 4 0.0000 0.0000 0.0000 23.4714 0.0000 0.0000
# 5 0.0000 0.0000 0.0000 0.0000 28.2284 0.0000
# 6 0.0000 0.0000 0.0000 0.0000 0.0000 -26.9618
#
#
#
# Elastic Compliance Matrix: (Units=1/GPa)
#
#
# Indices 1 2 3 4 5 6 
#
# 1 0.016628 -0.008497 -0.002582 0.000000 0.000000 0.000000
# 2 -0.008497 0.027251 -0.011396 0.000000 0.000000 0.000000
# 3 -0.002582 -0.011396 0.017011 0.000000 0.000000 0.000000
# 4 0.000000 0.000000 0.000000 0.042605 0.000000 0.000000
# 5 0.000000 0.000000 0.000000 0.000000 0.035425 0.000000
# 6 0.000000 0.000000 0.000000 0.000000 0.000000 -0.037090
#
#
# Mechanical properties :
#
#
# Convention : Reuss Voigt Hill
#
# Bulk Modulus (GPa) = 62.73669 64.00249 63.36959
# Shear Modulus (GPa) = 32.87424 12.97621 22.92522
#
# Velocity S-wave (km/s) = 4.26762 2.68121 3.56381
# Velocity P-wave (km/s) = 7.68375 6.71141 7.21398
#
# Compressibility (1/GPa) = 0.01593964
#
# Stress axis : x y z
#
# Youngs Moduli (GPa) = 60.13986 36.69604 58.78431
#
# Poissons Ratio (x) = 0.31180 0.15180
# Poissons Ratio (y) = 0.51100 0.66991
# Poissons Ratio (z) = 0.15530 0.41819
#
# Static dielectric constant tensor:
#      x y z
#    x 1.656970 0.000000 0.000000 
#    y 0.000000 1.590850 0.000000 
#    z 0.000000 0.000000 1.627020 
# 
# From -- ./inp_files/28044.got.cif
#   From: 2010.05.17/outbox.cif.g08.bks.cpg/sg64_15_cif.got.tgz:28044.got - 2010.06.03 16:29:19.
