data_PCOD9479299
_publ_section_title
;
Structure prediction by ZEFSAII (Michael W. Deem and Ramdas Pophale) SiO2 
 PCOD9479299
Probable space group: C M C A
;
_chemical_formula_sum "Si O2"
_cell_formula_units_Z 108
_cell_length_a 14.090129
_cell_length_b 15.229054
_cell_length_c 25.371688
_cell_angle_alpha 90.000000
_cell_angle_beta 90.000000
_cell_angle_gamma 90.000000
_cell_volume 5444.239949
_symmetry_space_group_name_H-M "C M C A"
_symmetry_group_IT_number 64
_symmetry_cell_setting 'orthorhombic'
loop_
_space_group_symop_operation_xyz
x,y,z
-x,1/2-y,1/2+z
x,-y,-z
-x,1/2+y,1/2-z
-x,-y,-z
x,1/2+y,1/2-z
-x,y,z
x,1/2-y,1/2+z
1/2+x,1/2+y,z
1/2-x,-y,1/2+z
1/2+x,1/2-y,-z
1/2-x,y,1/2-z
1/2-x,1/2-y,-z
1/2+x,y,1/2-z
1/2-x,1/2+y,z
1/2+x,-y,1/2+z
loop_
_atom_site_type_symbol
_atom_site_label
_atom_site_fract_x
_atom_site_fract_y
_atom_site_fract_z
Si Si1 0.702902 0.909473 0.139331
Si Si2 0.317842 0.380965 0.035579
Si Si3 0.715950 0.821206 0.943812
Si Si4 0.000000 0.500000 0.500000
Si Si5 0.611316 0.719176 0.124450
Si Si6 0.250000 0.652046 0.750000
Si Si7 0.611950 0.406521 0.654154
Si Si8 0.113325 0.188284 0.240284
O O1 0.777974 0.914106 0.091807
O O2 0.641966 0.820382 0.132289
O O3 0.751375 0.901625 0.196397
O O4 0.637102 0.993554 0.142490
O O5 0.325200 0.274209 0.040591
O O6 0.231167 0.386591 0.992816
O O7 0.413874 0.430613 0.019478
O O8 0.823962 0.813080 0.922725
O O9 0.658893 0.852506 0.893046
O O10 0.500000 0.710210 0.114372
O O11 0.636115 0.668547 0.179051
O O12 0.160760 0.717950 0.748898
O O13 0.500000 0.392751 0.652767
O O14 0.644381 0.375818 0.712662
O O15 0.000000 0.195559 0.241873
#
# Coordination Sequence:
#
# PCOD9479299 Si02
#       8
#    16  16  16   4  16   8  16  16
#     4  10  21  39  58  87 121 161 200 252 315 365
#     4  10  23  42  62  89 123 161 202 262 309 379
#     4  10  22  40  61  88 123 160 211 251 309 383
#     4  12  24  40  68  88 130 162 208 264 328 354
#     4   9  18  35  61  86 119 159 205 253 307 374
#     4  10  20  38  64  82 120 166 192 250 316 364
#     4  11  22  36  60  86 120 158 204 256 302 367
#     4   9  18  33  55  87 115 155 203 251 298 373
#
# _framework density 19.837479999999999
#
# number of rings (size 3 to 8) (size 9 to 14) (size 15 to 20)
#    0.000    2.074    0.000    4.000    2.074    2.370 
#    1.333    2.222    0.000    0.000    0.000    0.000 
#    0.000    0.000    0.000    0.000    0.000    0.000 
#
# Total GULP energy -300635.001176 kJ/mol
# GULP energy per Si atom -5567.314837 kJ/mol
# Density = 1.979233 g / cm^3
# Si number density = 19.837480 Si / 1000 Ang^3
#
#
#
# Elastic Constant Matrix: (Units=GPa)
#
#
# Indices 1 2 3 4 5 6 
#
# 1 86.7756 20.5735 45.4548 0.0000 0.0000 0.0000
# 2 20.5735 34.4887 45.5552 0.0000 0.0000 0.0000
# 3 45.4548 45.5552 136.3395 0.0000 0.0000 0.0000
# 4 0.0000 0.0000 0.0000 5.0272 0.0000 0.0000
# 5 0.0000 0.0000 0.0000 0.0000 25.7343 0.0000
# 6 0.0000 0.0000 0.0000 0.0000 0.0000 16.2340
#
#
#
# Elastic Compliance Matrix: (Units=1/GPa)
#
#
# Indices 1 2 3 4 5 6 
#
# 1 0.014262 -0.003987 -0.003423 0.000000 0.000000 0.000000
# 2 -0.003987 0.053016 -0.016385 0.000000 0.000000 0.000000
# 3 -0.003423 -0.016385 0.013951 0.000000 0.000000 0.000000
# 4 0.000000 0.000000 0.000000 0.198919 0.000000 0.000000
# 5 0.000000 0.000000 0.000000 0.000000 0.038859 0.000000
# 6 0.000000 0.000000 0.000000 0.000000 0.000000 0.061599
#
#
# Mechanical properties :
#
#
# Convention : Reuss Voigt Hill
#
# Bulk Modulus (GPa) = 29.72713 53.41901 41.57307
# Shear Modulus (GPa) = 11.37895 19.13377 15.25636
#
# Velocity S-wave (km/s) = 2.39761 3.10905 2.77621
# Velocity P-wave (km/s) = 4.76262 6.31467 5.59275
#
# Compressibility (1/GPa) = 0.03363930
#
# Stress axis : x y z
#
# Youngs Moduli (GPa) = 70.11581 18.86234 71.68171
#
# Poissons Ratio (x) = 0.07520 0.24536
# Poissons Ratio (y) = 0.27952 1.17451
# Poissons Ratio (z) = 0.24000 0.30906
#
# Static dielectric constant tensor:
#      x y z
#    x 1.669320 0.000000 0.000000 
#    y 0.000000 1.699010 0.000000 
#    z 0.000000 0.000000 1.788060 
# 
# From -- ./inp_files/45311.got.cif
#   From: 2010.05.17/outbox.cif.g08.bks.cpg/sg64_23_cif.got.tgz:45311.got - 2010.06.03 16:29:19.
