data_PCOD9479526
_publ_section_title
;
Structure prediction by ZEFSAII (Michael W. Deem and Ramdas Pophale) SiO2 
 PCOD9479526
Probable space group: C M C A
;
_chemical_formula_sum "Si O2"
_cell_formula_units_Z 88
_cell_length_a 22.183723
_cell_length_b 17.142464
_cell_length_c 9.897974
_cell_angle_alpha 90.000000
_cell_angle_beta 90.000000
_cell_angle_gamma 90.000000
_cell_volume 3764.037907
_symmetry_space_group_name_H-M "C M C A"
_symmetry_group_IT_number 64
_symmetry_cell_setting 'orthorhombic'
loop_
_space_group_symop_operation_xyz
x,y,z
-x,1/2-y,1/2+z
x,-y,-z
-x,1/2+y,1/2-z
-x,-y,-z
x,1/2+y,1/2-z
-x,y,z
x,1/2-y,1/2+z
1/2+x,1/2+y,z
1/2-x,-y,1/2+z
1/2+x,1/2-y,-z
1/2-x,y,1/2-z
1/2-x,1/2-y,-z
1/2+x,y,1/2-z
1/2-x,1/2+y,z
1/2+x,-y,1/2+z
loop_
_atom_site_type_symbol
_atom_site_label
_atom_site_fract_x
_atom_site_fract_y
_atom_site_fract_z
Si Si1 0.856451 0.495838 0.714413
Si Si2 0.704421 0.624284 0.370174
Si Si3 0.316714 0.879049 0.475764
Si Si4 0.500000 0.846328 0.295366
Si Si5 0.398387 0.258512 0.588810
Si Si6 0.500000 0.994511 0.243014
Si Si7 0.500000 0.372738 0.500024
O O1 0.821666 0.462230 0.844949
O O2 0.836147 0.438226 0.593932
O O3 0.833779 0.580263 0.665819
O O4 0.927628 0.491198 0.731669
O O5 0.750000 0.642944 0.250000
O O6 0.745377 0.634286 0.503004
O O7 0.649158 0.682194 0.350478
O O8 0.357731 0.802868 0.490957
O O9 0.442628 0.791707 0.314474
O O10 0.500000 0.923132 0.382175
O O11 0.500000 0.903370 0.156533
O O12 0.443377 0.315049 0.507831
O O13 0.500000 0.060500 0.110076
#
# Coordination Sequence:
#
# PCOD9479526 Si02
#       7
#    16  16  16   8  16   8   8
#     4  10  22  41  63  93 128 166 219 260 313 382
#     4  10  24  42  61  97 128 166 216 258 318 386
#     4  10  21  42  65  94 126 170 216 256 316 382
#     4   9  21  38  63  96 125 156 213 263 311 380
#     4  11  21  42  67  95 127 166 211 266 322 374
#     4  10  20  41  61  92 125 170 211 261 326 369
#     4   9  23  38  63  99 128 159 212 265 321 377
#
# _framework density 23.379149000000002
#
# number of rings (size 3 to 8) (size 9 to 14) (size 15 to 20)
#    0.545    1.455    1.818    0.545    5.091    4.364 
#   16.364    5.455    0.000    0.000    0.000    0.000 
#    0.000    0.000    0.000    0.000    0.000    0.000 
#
# Total GULP energy -245023.920476 kJ/mol
# GULP energy per Si atom -5568.725465 kJ/mol
# Density = 2.332594 g / cm^3
# Si number density = 23.379149 Si / 1000 Ang^3
#
#
#
# Elastic Constant Matrix: (Units=GPa)
#
#
# Indices 1 2 3 4 5 6 
#
# 1 174.0646 46.7233 31.9515 0.0000 0.0000 0.0000
# 2 46.7233 112.2954 29.0542 0.0000 0.0000 0.0000
# 3 31.9515 29.0542 42.2223 0.0000 0.0000 0.0000
# 4 0.0000 0.0000 0.0000 63.5295 0.0000 0.0000
# 5 0.0000 0.0000 0.0000 0.0000 12.0913 0.0000
# 6 0.0000 0.0000 0.0000 0.0000 0.0000 198.4157
#
#
#
# Elastic Compliance Matrix: (Units=1/GPa)
#
#
# Indices 1 2 3 4 5 6 
#
# 1 0.006981 -0.001871 -0.003995 0.000000 0.000000 0.000000
# 2 -0.001871 0.011335 -0.006384 0.000000 0.000000 0.000000
# 3 -0.003995 -0.006384 0.031101 0.000000 0.000000 0.000000
# 4 0.000000 0.000000 0.000000 0.015741 0.000000 0.000000
# 5 0.000000 0.000000 0.000000 0.000000 0.082704 0.000000
# 6 0.000000 0.000000 0.000000 0.000000 0.000000 0.005040
#
#
# Mechanical properties :
#
#
# Convention : Reuss Voigt Hill
#
# Bulk Modulus (GPa) = 40.13499 60.44893 50.29196
# Shear Modulus (GPa) = 26.92411 69.53086 48.22749
#
# Velocity S-wave (km/s) = 3.39725 5.45941 4.54678
# Velocity P-wave (km/s) = 5.70900 8.10260 7.00874
#
# Compressibility (1/GPa) = 0.02491592
#
# Stress axis : x y z
#
# Youngs Moduli (GPa) = 143.25617 88.22006 32.15356
#
# Poissons Ratio (x) = 0.16504 0.12846
# Poissons Ratio (y) = 0.26800 0.20528
# Poissons Ratio (z) = 0.57233 0.56323
#
# Static dielectric constant tensor:
#      x y z
#    x 2.092530 0.000000 0.000000 
#    y 0.000000 1.931670 0.000000 
#    z 0.000000 0.000000 2.068590 
# 
# From -- ./inp_files/17220.got.cif
#   From: 2010.05.17/outbox.cif.g08.bks.cpg/sg64_9_cif.got.tgz:17220.got - 2010.06.03 16:29:19.
