data_PCOD9479268
_publ_section_title
;
Structure prediction by ZEFSAII (Michael W. Deem and Ramdas Pophale) SiO2 
 PCOD9479268
Probable space group: C M C A
;
_chemical_formula_sum "Si O2"
_cell_formula_units_Z 112
_cell_length_a 23.120501
_cell_length_b 14.538408
_cell_length_c 17.094494
_cell_angle_alpha 90.000000
_cell_angle_beta 90.000000
_cell_angle_gamma 90.000000
_cell_volume 5746.062471
_symmetry_space_group_name_H-M "C M C A"
_symmetry_group_IT_number 64
_symmetry_cell_setting 'orthorhombic'
loop_
_space_group_symop_operation_xyz
x,y,z
-x,1/2-y,1/2+z
x,-y,-z
-x,1/2+y,1/2-z
-x,-y,-z
x,1/2+y,1/2-z
-x,y,z
x,1/2-y,1/2+z
1/2+x,1/2+y,z
1/2-x,-y,1/2+z
1/2+x,1/2-y,-z
1/2-x,y,1/2-z
1/2-x,1/2-y,-z
1/2+x,y,1/2-z
1/2-x,1/2+y,z
1/2+x,-y,1/2+z
loop_
_atom_site_type_symbol
_atom_site_label
_atom_site_fract_x
_atom_site_fract_y
_atom_site_fract_z
Si Si1 0.170215 0.385344 0.934179
Si Si2 0.865780 0.635657 0.778786
Si Si3 0.932171 0.545271 0.166778
Si Si4 0.662646 0.323733 0.100647
Si Si5 0.433255 0.391849 0.985127
Si Si6 0.219621 0.925544 0.402061
Si Si7 0.932815 0.318083 0.686980
O O1 0.107565 0.418613 0.904057
O O2 0.181049 0.283197 0.902801
O O3 0.214011 0.463925 0.902407
O O4 0.178167 0.390509 0.027493
O O5 0.907805 0.552430 0.803942
O O6 0.858774 0.646275 0.686162
O O7 0.805385 0.613504 0.821446
O O8 0.891779 0.730826 0.809047
O O9 0.923784 0.616040 0.238728
O O10 0.000000 0.540577 0.147907
O O11 0.611384 0.337432 0.038788
O O12 0.717133 0.387738 0.080701
O O13 0.500000 0.367508 0.004082
O O14 0.425883 0.500000 0.000000
O O15 0.423662 0.371323 0.893982
O O16 0.000000 0.287862 0.689238
#
# Coordination Sequence:
#
# PCOD9479268 Si02
#       7
#    16  16  16  16  16  16  16
#     4  10  22  43  64  93 124 167 222 265 319 390
#     4  11  22  40  61  94 127 166 219 260 321 390
#     4  10  21  40  65  94 131 167 207 268 323 385
#     4  12  23  41  67  93 125 175 216 268 329 379
#     4  10  23  40  63  97 131 163 210 265 328 396
#     4  10  24  43  62  89 131 167 220 275 317 379
#     4  10  20  38  62  91 127 165 204 259 326 388
#
# _framework density 19.491609
#
# number of rings (size 3 to 8) (size 9 to 14) (size 15 to 20)
#    0.000    1.571    1.429    3.000    2.000    2.857 
#    2.571    7.857    0.000    0.000    0.000    0.000 
#    0.000    0.000    0.000    0.000    0.000    0.000 
#
# Total GULP energy -312911.302904 kJ/mol
# GULP energy per Si atom -5587.701838 kJ/mol
# Density = 1.944724 g / cm^3
# Si number density = 19.491609 Si / 1000 Ang^3
#
#
#
# Elastic Constant Matrix: (Units=GPa)
#
#
# Indices 1 2 3 4 5 6 
#
# 1 88.9213 53.8122 34.4790 0.0000 0.0000 0.0000
# 2 53.8122 93.3977 2.5585 0.0000 0.0000 0.0000
# 3 34.4790 2.5585 66.3183 0.0000 0.0000 0.0000
# 4 0.0000 0.0000 0.0000 25.1330 0.0000 0.0000
# 5 0.0000 0.0000 0.0000 0.0000 12.0045 0.0000
# 6 0.0000 0.0000 0.0000 0.0000 0.0000 17.8368
#
#
#
# Elastic Compliance Matrix: (Units=1/GPa)
#
#
# Indices 1 2 3 4 5 6 
#
# 1 0.024112 -0.013563 -0.012012 0.000000 0.000000 0.000000
# 2 -0.013563 0.018348 0.006344 0.000000 0.000000 0.000000
# 3 -0.012012 0.006344 0.021079 0.000000 0.000000 0.000000
# 4 0.000000 0.000000 0.000000 0.039788 0.000000 0.000000
# 5 0.000000 0.000000 0.000000 0.000000 0.083302 0.000000
# 6 0.000000 0.000000 0.000000 0.000000 0.000000 0.056064
#
#
# Mechanical properties :
#
#
# Convention : Reuss Voigt Hill
#
# Bulk Modulus (GPa) = 39.88062 47.81520 43.84791
# Shear Modulus (GPa) = 17.27028 21.51404 19.39216
#
# Velocity S-wave (km/s) = 2.97987 3.32589 3.15762
# Velocity P-wave (km/s) = 5.68720 6.27162 5.98655
#
# Compressibility (1/GPa) = 0.02507484
#
# Stress axis : x y z
#
# Youngs Moduli (GPa) = 41.47376 54.50278 47.43989
#
# Poissons Ratio (x) = 0.73923 0.56987
# Poissons Ratio (y) = 0.56251 -0.30094
# Poissons Ratio (z) = 0.49820 -0.34575
#
# Static dielectric constant tensor:
#      x y z
#    x 1.668750 0.000000 0.000000 
#    y 0.000000 1.665130 0.000000 
#    z 0.000000 0.000000 1.666890 
# 
# From -- ./inp_files/27432.got.cif
#   From: 2010.05.17/outbox.cif.g08.bks.cpg/sg64_14_cif.got.tgz:27432.got - 2010.06.03 16:29:19.
