data_PCOD9479032
_publ_section_title
;
Structure prediction by ZEFSAII (Michael W. Deem and Ramdas Pophale) SiO2 
 PCOD9479032
Probable space group: C M C A
;
_chemical_formula_sum "Si O2"
_cell_formula_units_Z 112
_cell_length_a 20.161435
_cell_length_b 15.640473
_cell_length_c 16.776500
_cell_angle_alpha 90.000000
_cell_angle_beta 90.000000
_cell_angle_gamma 90.000000
_cell_volume 5290.207222
_symmetry_space_group_name_H-M "C M C A"
_symmetry_group_IT_number 64
_symmetry_cell_setting 'orthorhombic'
loop_
_space_group_symop_operation_xyz
x,y,z
-x,1/2-y,1/2+z
x,-y,-z
-x,1/2+y,1/2-z
-x,-y,-z
x,1/2+y,1/2-z
-x,y,z
x,1/2-y,1/2+z
1/2+x,1/2+y,z
1/2-x,-y,1/2+z
1/2+x,1/2-y,-z
1/2-x,y,1/2-z
1/2-x,1/2-y,-z
1/2+x,y,1/2-z
1/2-x,1/2+y,z
1/2+x,-y,1/2+z
loop_
_atom_site_type_symbol
_atom_site_label
_atom_site_fract_x
_atom_site_fract_y
_atom_site_fract_z
Si Si1 0.264848 0.318602 0.618883
Si Si2 0.578599 0.615214 0.834971
Si Si3 0.156221 0.377749 0.747013
Si Si4 0.693131 0.157488 0.954868
Si Si5 0.423409 0.571441 0.114762
Si Si6 0.578566 0.784448 0.493887
Si Si7 0.819636 0.073968 0.709112
O O1 0.207580 0.354172 0.676446
O O2 0.328056 0.319252 0.677587
O O3 0.276790 0.372877 0.538790
O O4 0.242885 0.226647 0.585760
O O5 0.500000 0.606629 0.816014
O O6 0.603099 0.524607 0.874120
O O7 0.622374 0.624266 0.755884
O O8 0.585017 0.686406 0.902627
O O9 0.087430 0.381143 0.699573
O O10 0.169984 0.473516 0.776786
O O11 0.626204 0.207737 0.980337
O O12 0.680040 0.092103 0.884432
O O13 0.500000 0.559488 0.095633
O O14 0.398222 0.633746 0.046187
O O15 0.500000 0.768457 0.509700
O O16 0.750000 0.098744 0.750000
#
# Coordination Sequence:
#
# PCOD9479032 Si02
#       7
#    16  16  16  16  16  16  16
#     4  10  22  40  58  80 120 155 192 236 300 357
#     4   9  20  36  58  84 118 156 198 245 291 349
#     4  10  20  41  59  83 117 154 198 241 288 359
#     4  11  25  37  57  87 119 156 188 247 306 355
#     4   9  17  33  59  87 112 148 195 246 292 337
#     4  10  20  37  57  85 118 154 196 237 293 360
#     4  11  24  37  59  91 118 151 199 248 296 355
#
# _framework density 21.171194
#
# number of rings (size 3 to 8) (size 9 to 14) (size 15 to 20)
#    0.000    2.000    2.857    0.429    6.000    2.857 
#    0.000    0.714    0.000    0.000    0.000    5.000 
#    0.000    0.000    0.000    0.000    0.000    0.000 
#
# Total GULP energy -312474.532597 kJ/mol
# GULP energy per Si atom -5579.902368 kJ/mol
# Density = 2.112301 g / cm^3
# Si number density = 21.171194 Si / 1000 Ang^3
#
#
#
# Elastic Constant Matrix: (Units=GPa)
#
#
# Indices 1 2 3 4 5 6 
#
# 1 55.6339 13.8806 30.1455 0.0000 0.0000 0.0000
# 2 13.8806 32.1197 32.4993 0.0000 0.0000 0.0000
# 3 30.1455 32.4993 152.5164 0.0000 0.0000 0.0000
# 4 0.0000 0.0000 0.0000 35.4043 0.0000 0.0000
# 5 0.0000 0.0000 0.0000 0.0000 38.2223 0.0000
# 6 0.0000 0.0000 0.0000 0.0000 0.0000 14.2204
#
#
#
# Elastic Compliance Matrix: (Units=1/GPa)
#
#
# Indices 1 2 3 4 5 6 
#
# 1 0.021067 -0.006235 -0.002835 0.000000 0.000000 0.000000
# 2 -0.006235 0.041537 -0.007619 0.000000 0.000000 0.000000
# 3 -0.002835 -0.007619 0.008740 0.000000 0.000000 0.000000
# 4 0.000000 0.000000 0.000000 0.028245 0.000000 0.000000
# 5 0.000000 0.000000 0.000000 0.000000 0.026163 0.000000
# 6 0.000000 0.000000 0.000000 0.000000 0.000000 0.070321
#
#
# Mechanical properties :
#
#
# Convention : Reuss Voigt Hill
#
# Bulk Modulus (GPa) = 26.33955 43.70233 35.02094
# Shear Modulus (GPa) = 20.65208 28.48571 24.56889
#
# Velocity S-wave (km/s) = 3.12666 3.67208 3.41029
# Velocity P-wave (km/s) = 5.05004 6.21820 5.66431
#
# Compressibility (1/GPa) = 0.03796572
#
# Stress axis : x y z
#
# Youngs Moduli (GPa) = 47.46846 24.07513 114.41017
#
# Poissons Ratio (x) = 0.15011 0.32438
# Poissons Ratio (y) = 0.29598 0.87164
# Poissons Ratio (z) = 0.13459 0.18342
#
# Static dielectric constant tensor:
#      x y z
#    x 1.818920 0.000000 0.000000 
#    y 0.000000 1.801230 0.000000 
#    z 0.000000 0.000000 1.776790 
# 
# From -- ./inp_files/27429.got.cif
#   From: 2010.05.17/outbox.cif.g08.bks.cpg/sg64_14_cif.got.tgz:27429.got - 2010.06.03 16:29:19.
