data_PCOD9479146
_publ_section_title
;
Structure prediction by ZEFSAII (Michael W. Deem and Ramdas Pophale) SiO2 
 PCOD9479146
Probable space group: C M C A
;
_chemical_formula_sum "Si O2"
_cell_formula_units_Z 96
_cell_length_a 23.720019
_cell_length_b 11.310775
_cell_length_c 16.271200
_cell_angle_alpha 90.000000
_cell_angle_beta 90.000000
_cell_angle_gamma 90.000000
_cell_volume 4365.429502
_symmetry_space_group_name_H-M "C M C A"
_symmetry_group_IT_number 64
_symmetry_cell_setting 'orthorhombic'
loop_
_space_group_symop_operation_xyz
x,y,z
-x,1/2-y,1/2+z
x,-y,-z
-x,1/2+y,1/2-z
-x,-y,-z
x,1/2+y,1/2-z
-x,y,z
x,1/2-y,1/2+z
1/2+x,1/2+y,z
1/2-x,-y,1/2+z
1/2+x,1/2-y,-z
1/2-x,y,1/2-z
1/2-x,1/2-y,-z
1/2+x,y,1/2-z
1/2-x,1/2+y,z
1/2+x,-y,1/2+z
loop_
_atom_site_type_symbol
_atom_site_label
_atom_site_fract_x
_atom_site_fract_y
_atom_site_fract_z
Si Si1 0.161999 0.569912 0.083257
Si Si2 0.566497 0.299167 0.865058
Si Si3 0.376322 0.033684 0.592261
Si Si4 0.435736 0.266961 0.559295
Si Si5 0.666904 0.852822 0.191687
Si Si6 0.718308 0.189162 0.627981
O O1 0.097979 0.614539 0.076803
O O2 0.167939 0.489781 0.164433
O O3 0.196510 0.691107 0.087814
O O4 0.175596 0.500000 0.000000
O O5 0.500000 0.306088 0.842487
O O6 0.599378 0.424931 0.855591
O O7 0.605783 0.203625 0.819926
O O8 0.568496 0.262124 0.961757
O O9 0.408294 0.156935 0.607818
O O10 0.310384 0.070355 0.591621
O O11 0.391941 0.000000 0.500000
O O12 0.500000 0.277480 0.582176
O O13 0.692489 0.822815 0.280048
O O14 0.714505 0.802401 0.129955
#
# Coordination Sequence:
#
# PCOD9479146 Si02
#       6
#    16  16  16  16  16  16
#     4  11  23  42  63  97 125 163 220 270 320 381
#     4  10  20  37  63  94 128 168 214 261 314 379
#     4   9  19  38  64  95 122 166 214 265 313 374
#     4   9  18  37  62  93 129 166 210 260 319 378
#     4  11  25  42  64  93 129 172 212 256 330 396
#     4  10  26  43  64  90 131 173 210 264 328 392
#
# _framework density 21.990963000000001
#
# number of rings (size 3 to 8) (size 9 to 14) (size 15 to 20)
#    0.000    2.000    1.667    0.500    4.667    5.667 
#    0.000    4.167    0.000    0.000    0.000    0.000 
#    0.000    0.000    0.000    0.000    0.000    0.000 
#
# Total GULP energy -267780.767487 kJ/mol
# GULP energy per Si atom -5578.765989 kJ/mol
# Density = 2.194091 g / cm^3
# Si number density = 21.990963 Si / 1000 Ang^3
#
#
#
# Elastic Constant Matrix: (Units=GPa)
#
#
# Indices 1 2 3 4 5 6 
#
# 1 90.1342 27.8172 11.7423 0.0000 0.0000 0.0000
# 2 27.8172 70.5917 10.1010 0.0000 0.0000 0.0000
# 3 11.7423 10.1010 27.0216 0.0000 0.0000 0.0000
# 4 0.0000 0.0000 0.0000 -0.5156 0.0000 0.0000
# 5 0.0000 0.0000 0.0000 0.0000 23.9639 0.0000
# 6 0.0000 0.0000 0.0000 0.0000 0.0000 21.5439
#
#
#
# Elastic Compliance Matrix: (Units=1/GPa)
#
#
# Indices 1 2 3 4 5 6 
#
# 1 0.013018 -0.004565 -0.003951 0.000000 0.000000 0.000000
# 2 -0.004565 0.016567 -0.004209 0.000000 0.000000 0.000000
# 3 -0.003951 -0.004209 0.040298 0.000000 0.000000 0.000000
# 4 0.000000 0.000000 0.000000 -1.939482 0.000000 0.000000
# 5 0.000000 0.000000 0.000000 0.000000 0.041729 0.000000
# 6 0.000000 0.000000 0.000000 0.000000 0.000000 0.046417
#
#
# Mechanical properties :
#
#
# Convention : Reuss Voigt Hill
#
# Bulk Modulus (GPa) = 22.50562 31.89651 27.20106
# Shear Modulus (GPa) = -2.87160 18.20424 7.66632
#
# Velocity S-wave (km/s) = -1.14396 2.88028 1.86914
# Velocity P-wave (km/s) = 2.91743 5.05937 4.12969
#
# Compressibility (1/GPa) = 0.04443335
#
# Stress axis : x y z
#
# Youngs Moduli (GPa) = 76.81700 60.36095 24.81530
#
# Poissons Ratio (x) = 0.27552 0.09804
# Poissons Ratio (y) = 0.35063 0.10446
# Poissons Ratio (z) = 0.30348 0.25409
#
# Static dielectric constant tensor:
#      x y z
#    x 1.842060 0.000000 0.000000 
#    y 0.000000 1.796840 0.000000 
#    z 0.000000 0.000000 1.851310 
# 
# From -- ./inp_files/34959.got.cif
#   From: 2010.05.17/outbox.cif.g08.bks.cpg/sg64_18_cif.got.tgz:34959.got - 2010.06.03 16:29:19.
