data_PCOD9479475
_publ_section_title
;
Structure prediction by ZEFSAII (Michael W. Deem and Ramdas Pophale) SiO2 
 PCOD9479475
Probable space group: C M C A
;
_chemical_formula_sum "Si O2"
_cell_formula_units_Z 112
_cell_length_a 22.820004
_cell_length_b 14.027058
_cell_length_c 15.634388
_cell_angle_alpha 90.000000
_cell_angle_beta 90.000000
_cell_angle_gamma 90.000000
_cell_volume 5004.528820
_symmetry_space_group_name_H-M "C M C A"
_symmetry_group_IT_number 64
_symmetry_cell_setting 'orthorhombic'
loop_
_space_group_symop_operation_xyz
x,y,z
-x,1/2-y,1/2+z
x,-y,-z
-x,1/2+y,1/2-z
-x,-y,-z
x,1/2+y,1/2-z
-x,y,z
x,1/2-y,1/2+z
1/2+x,1/2+y,z
1/2-x,-y,1/2+z
1/2+x,1/2-y,-z
1/2-x,y,1/2-z
1/2-x,1/2-y,-z
1/2+x,y,1/2-z
1/2-x,1/2+y,z
1/2+x,-y,1/2+z
loop_
_atom_site_type_symbol
_atom_site_label
_atom_site_fract_x
_atom_site_fract_y
_atom_site_fract_z
Si Si1 0.067775 0.777944 0.465139
Si Si2 0.119026 0.034379 0.595874
Si Si3 0.754226 0.697932 0.406517
Si Si4 0.621225 0.332658 0.644608
Si Si5 0.242020 0.101796 0.654631
Si Si6 0.569550 0.366718 0.814132
Si Si7 0.156448 0.981538 0.906616
O O1 0.087264 0.865167 0.403995
O O2 0.099080 0.781890 0.557616
O O3 0.076336 0.686432 0.405964
O O4 0.000000 0.789571 0.484713
O O5 0.187349 0.051642 0.611318
O O6 0.111479 0.000000 0.500000
O O7 0.098157 0.942405 0.646743
O O8 0.750000 0.750000 0.500000
O O9 0.690986 0.666631 0.370335
O O10 0.772605 0.786466 0.347488
O O11 0.798333 0.608949 0.407288
O O12 0.598097 0.302744 0.737808
O O13 0.250000 0.065933 0.750000
O O14 0.302763 0.073656 0.610474
O O15 0.500000 0.380555 0.799053
O O16 0.608797 0.460324 0.833856
O O17 0.129987 0.000000 0.000000
#
# Coordination Sequence:
#
# PCOD9479475 Si02
#       7
#    16  16  16  16  16  16  16
#     4  10  23  42  68  97 131 180 232 291 350 411
#     4  10  20  40  64  93 130 168 220 282 340 406
#     4  12  24  41  65 101 138 179 224 281 353 423
#     4  11  23  41  70  97 138 180 229 293 351 415
#     4  12  25  38  63 101 135 171 218 279 343 416
#     4  11  26  47  68  98 139 184 241 292 343 417
#     4  12  25  44  69  98 137 184 226 278 356 426
#
# _framework density 22.379731
#
# number of rings (size 3 to 8) (size 9 to 14) (size 15 to 20)
#    0.000    0.857    2.857    5.143    4.000    3.429 
#    0.000    0.000    0.000    0.000    0.000    0.000 
#    0.000    0.000    0.000    0.000    0.000    0.000 
#
# Total GULP energy -312616.183069 kJ/mol
# GULP energy per Si atom -5582.431841 kJ/mol
# Density = 2.232879 g / cm^3
# Si number density = 22.379731 Si / 1000 Ang^3
#
#
#
# Elastic Constant Matrix: (Units=GPa)
#
#
# Indices 1 2 3 4 5 6 
#
# 1 102.4349 10.4048 22.5381 0.0000 0.0000 0.0000
# 2 10.4048 57.9323 -4.6237 0.0000 0.0000 0.0000
# 3 22.5381 -4.6237 85.0503 0.0000 0.0000 0.0000
# 4 0.0000 0.0000 0.0000 35.9566 0.0000 0.0000
# 5 0.0000 0.0000 0.0000 0.0000 56.4884 0.0000
# 6 0.0000 0.0000 0.0000 0.0000 0.0000 -37.2192
#
#
#
# Elastic Compliance Matrix: (Units=1/GPa)
#
#
# Indices 1 2 3 4 5 6 
#
# 1 0.010625 -0.002142 -0.002932 0.000000 0.000000 0.000000
# 2 -0.002142 0.017769 0.001534 0.000000 0.000000 0.000000
# 3 -0.002932 0.001534 0.012618 0.000000 0.000000 0.000000
# 4 0.000000 0.000000 0.000000 0.027811 0.000000 0.000000
# 5 0.000000 0.000000 0.000000 0.000000 0.017703 0.000000
# 6 0.000000 0.000000 0.000000 0.000000 0.000000 -0.026868
#
#
# Mechanical properties :
#
#
# Convention : Reuss Voigt Hill
#
# Bulk Modulus (GPa) = 29.47203 33.56177 31.51690
# Shear Modulus (GPa) = 64.06186 25.51838 44.79012
#
# Velocity S-wave (km/s) = 5.35603 3.38041 4.47852
# Velocity P-wave (km/s) = 7.17266 5.50139 6.39189
#
# Compressibility (1/GPa) = 0.03393048
#
# Stress axis : x y z
#
# Youngs Moduli (GPa) = 94.11742 56.27873 79.25116
#
# Poissons Ratio (x) = 0.12057 0.23237
# Poissons Ratio (y) = 0.20163 -0.12155
# Poissons Ratio (z) = 0.27596 -0.08631
#
# Static dielectric constant tensor:
#      x y z
#    x 1.806480 0.000000 0.000000 
#    y 0.000000 1.969630 0.000000 
#    z 0.000000 0.000000 1.904800 
# 
# From -- ./inp_files/27451.got.cif
#   From: 2010.05.17/outbox.cif.g08.bks.cpg/sg64_14_cif.got.tgz:27451.got - 2010.06.03 16:29:19.
