data_PCOD9479695
_publ_section_title
;
Structure prediction by ZEFSAII (Michael W. Deem and Ramdas Pophale) SiO2 
 PCOD9479695
Probable space group: C M C A
;
_chemical_formula_sum "Si O2"
_cell_formula_units_Z 104
_cell_length_a 9.235036
_cell_length_b 24.835910
_cell_length_c 19.964746
_cell_angle_alpha 90.000000
_cell_angle_beta 90.000000
_cell_angle_gamma 90.000000
_cell_volume 4579.124583
_symmetry_space_group_name_H-M "C M C A"
_symmetry_group_IT_number 64
_symmetry_cell_setting 'orthorhombic'
loop_
_space_group_symop_operation_xyz
x,y,z
-x,1/2-y,1/2+z
x,-y,-z
-x,1/2+y,1/2-z
-x,-y,-z
x,1/2+y,1/2-z
-x,y,z
x,1/2-y,1/2+z
1/2+x,1/2+y,z
1/2-x,-y,1/2+z
1/2+x,1/2-y,-z
1/2-x,y,1/2-z
1/2-x,1/2-y,-z
1/2+x,y,1/2-z
1/2-x,1/2+y,z
1/2+x,-y,1/2+z
loop_
_atom_site_type_symbol
_atom_site_label
_atom_site_fract_x
_atom_site_fract_y
_atom_site_fract_z
Si Si1 0.337411 0.653827 0.494967
Si Si2 0.175435 0.981198 0.678013
Si Si3 0.334213 0.295855 0.103871
Si Si4 0.671501 0.052905 0.454367
Si Si5 0.716099 0.684913 0.343928
Si Si6 0.500000 0.341904 0.774876
Si Si7 0.169336 0.906538 0.182856
O O1 0.500000 0.637658 0.514607
O O2 0.278029 0.699997 0.543427
O O3 0.227631 0.603720 0.495995
O O4 0.336992 0.672491 0.418355
O O5 0.250000 0.966604 0.750000
O O6 0.236833 0.948657 0.614682
O O7 0.000000 0.978527 0.683137
O O8 0.237211 0.041256 0.662622
O O9 0.500000 0.285705 0.082107
O O10 0.292032 0.250190 0.157482
O O11 0.329907 0.355146 0.135873
O O12 0.500000 0.055230 0.439769
O O13 0.696619 0.000000 0.500000
O O14 0.620276 0.660569 0.285578
O O15 0.874706 0.663450 0.331768
O O16 0.250000 0.888577 0.250000
O O17 0.000000 0.922838 0.193270
#
# Coordination Sequence:
#
# PCOD9479695 Si02
#       7
#    16  16  16  16  16   8  16
#     4  12  26  44  65  99 130 172 219 268 324 390
#     4  11  22  41  64  94 128 166 213 273 329 393
#     4  11  24  40  64  93 134 174 220 265 321 384
#     4  11  25  46  71  94 129 170 218 271 335 397
#     4  11  24  45  67  98 133 175 219 269 317 382
#     4  10  24  44  70  94 132 174 222 268 320 376
#     4  10  21  35  59  91 128 168 215 267 327 387
#
# _framework density 22.711763999999999
#
# number of rings (size 3 to 8) (size 9 to 14) (size 15 to 20)
#    0.000    1.077    1.538    5.077    5.385    6.154 
#    2.769    0.000    0.000    0.000    0.000    0.000 
#    0.000    0.000    0.000    0.000    0.000    0.000 
#
# Total GULP energy -289784.362748 kJ/mol
# GULP energy per Si atom -5572.776207 kJ/mol
# Density = 2.266007 g / cm^3
# Si number density = 22.711764 Si / 1000 Ang^3
#
#
#
# Elastic Constant Matrix: (Units=GPa)
#
#
# Indices 1 2 3 4 5 6 
#
# 1 196.9097 20.2423 35.6110 0.0000 0.0000 0.0000
# 2 20.2423 61.1726 9.0508 0.0000 0.0000 0.0000
# 3 35.6110 9.0508 53.9907 0.0000 0.0000 0.0000
# 4 0.0000 0.0000 0.0000 -36.8271 0.0000 0.0000
# 5 0.0000 0.0000 0.0000 0.0000 39.9677 0.0000
# 6 0.0000 0.0000 0.0000 0.0000 0.0000 72.0118
#
#
#
# Elastic Compliance Matrix: (Units=1/GPa)
#
#
# Indices 1 2 3 4 5 6 
#
# 1 0.005882 -0.001407 -0.003644 0.000000 0.000000 0.000000
# 2 -0.001407 0.017100 -0.001938 0.000000 0.000000 0.000000
# 3 -0.003644 -0.001938 0.021250 0.000000 0.000000 0.000000
# 4 0.000000 0.000000 0.000000 -0.027154 0.000000 0.000000
# 5 0.000000 0.000000 0.000000 0.000000 0.025020 0.000000
# 6 0.000000 0.000000 0.000000 0.000000 0.000000 0.013887
#
#
# Mechanical properties :
#
#
# Convention : Reuss Voigt Hill
#
# Bulk Modulus (GPa) = 33.05459 49.09793 41.07626
# Shear Modulus (GPa) = 62.46270 31.50841 46.98555
#
# Velocity S-wave (km/s) = 5.24996 3.72871 4.55331
# Velocity P-wave (km/s) = 7.16484 6.34054 6.76526
#
# Compressibility (1/GPa) = 0.03025298
#
# Stress axis : x y z
#
# Youngs Moduli (GPa) = 170.00672 58.48075 47.05885
#
# Poissons Ratio (x) = 0.08230 0.17147
# Poissons Ratio (y) = 0.23925 0.09121
# Poissons Ratio (z) = 0.61947 0.11335
#
# Static dielectric constant tensor:
#      x y z
#    x 1.985090 0.000000 0.000000 
#    y 0.000000 1.961240 0.000000 
#    z 0.000000 0.000000 1.874710 
# 
# From -- ./inp_files/37195.got.cif
#   From: 2010.05.17/outbox.cif.g08.bks.cpg/sg64_19_cif.got.tgz:37195.got - 2010.06.03 16:29:19.
