data_PCOD9479009
_publ_section_title
;
Structure prediction by ZEFSAII (Michael W. Deem and Ramdas Pophale) SiO2 
 PCOD9479009
Probable space group: C M C A
;
_chemical_formula_sum "Si O2"
_cell_formula_units_Z 112
_cell_length_a 27.901628
_cell_length_b 15.869176
_cell_length_c 11.714258
_cell_angle_alpha 90.000000
_cell_angle_beta 90.000000
_cell_angle_gamma 90.000000
_cell_volume 5186.790489
_symmetry_space_group_name_H-M "C M C A"
_symmetry_group_IT_number 64
_symmetry_cell_setting 'orthorhombic'
loop_
_space_group_symop_operation_xyz
x,y,z
-x,1/2-y,1/2+z
x,-y,-z
-x,1/2+y,1/2-z
-x,-y,-z
x,1/2+y,1/2-z
-x,y,z
x,1/2-y,1/2+z
1/2+x,1/2+y,z
1/2-x,-y,1/2+z
1/2+x,1/2-y,-z
1/2-x,y,1/2-z
1/2-x,1/2-y,-z
1/2+x,y,1/2-z
1/2-x,1/2+y,z
1/2+x,-y,1/2+z
loop_
_atom_site_type_symbol
_atom_site_label
_atom_site_fract_x
_atom_site_fract_y
_atom_site_fract_z
Si Si1 0.093055 0.603304 0.644012
Si Si2 0.554060 0.575024 0.197171
Si Si3 0.182938 0.402422 0.521220
Si Si4 0.947815 0.727514 0.486687
Si Si5 0.631870 0.820637 0.147559
Si Si6 0.352612 0.147154 0.229894
Si Si7 0.709688 0.602323 0.489746
O O1 0.069971 0.511025 0.633689
O O2 0.139804 0.619152 0.564606
O O3 0.058877 0.679810 0.606605
O O4 0.107103 0.609201 0.775698
O O5 0.500000 0.565450 0.242285
O O6 0.553341 0.650347 0.104304
O O7 0.595130 0.604399 0.285460
O O8 0.190122 0.500000 0.500000
O O9 0.166980 0.390287 0.650984
O O10 0.235642 0.364583 0.504670
O O11 0.904297 0.786772 0.449295
O O12 0.000000 0.768738 0.480576
O O13 0.641812 0.744972 0.236773
O O14 0.679364 0.855575 0.090397
O O15 0.316578 0.128467 0.127663
O O16 0.707965 0.500000 0.500000
#
# Coordination Sequence:
#
# PCOD9479009 Si02
#       7
#    16  16  16  16  16  16  16
#     4  12  20  39  63  93 128 159 215 268 321 384
#     4  10  20  36  67  98 120 157 208 268 330 379
#     4  11  22  41  69  95 122 167 217 273 325 383
#     4  10  21  39  61  91 127 162 206 264 330 384
#     4  11  25  41  62  91 130 174 210 269 326 393
#     4  11  22  44  64  92 133 165 216 273 329 397
#     4  11  26  45  64  92 132 176 222 263 337 398
#
# _framework density 21.593312999999998
#
# number of rings (size 3 to 8) (size 9 to 14) (size 15 to 20)
#    0.000    1.143    4.286    3.000    0.000    3.429 
#    2.571    3.571    0.000    1.714    0.000    0.000 
#    0.000    0.000    0.000    0.000    0.000    0.000 
#
# Total GULP energy -312878.495104 kJ/mol
# GULP energy per Si atom -5587.115984 kJ/mol
# Density = 2.154417 g / cm^3
# Si number density = 21.593313 Si / 1000 Ang^3
#
#
#
# Elastic Constant Matrix: (Units=GPa)
#
#
# Indices 1 2 3 4 5 6 
#
# 1 151.9017 28.7222 8.2467 0.0000 0.0000 0.0000
# 2 28.7222 53.5370 12.2503 0.0000 0.0000 0.0000
# 3 8.2467 12.2503 28.1079 0.0000 0.0000 0.0000
# 4 0.0000 0.0000 0.0000 21.6328 0.0000 0.0000
# 5 0.0000 0.0000 0.0000 0.0000 23.2043 0.0000
# 6 0.0000 0.0000 0.0000 0.0000 0.0000 21.2128
#
#
#
# Elastic Compliance Matrix: (Units=1/GPa)
#
#
# Indices 1 2 3 4 5 6 
#
# 1 0.007332 -0.003823 -0.000485 0.000000 0.000000 0.000000
# 2 -0.003823 0.022741 -0.008790 0.000000 0.000000 0.000000
# 3 -0.000485 -0.008790 0.039550 0.000000 0.000000 0.000000
# 4 0.000000 0.000000 0.000000 0.046226 0.000000 0.000000
# 5 0.000000 0.000000 0.000000 0.000000 0.043096 0.000000
# 6 0.000000 0.000000 0.000000 0.000000 0.000000 0.047141
#
#
# Mechanical properties :
#
#
# Convention : Reuss Voigt Hill
#
# Bulk Modulus (GPa) = 23.02637 36.88722 29.95680
# Shear Modulus (GPa) = 20.26282 25.49849 22.88066
#
# Velocity S-wave (km/s) = 3.06663 3.44008 3.25871
# Velocity P-wave (km/s) = 4.81931 5.73573 5.29738
#
# Compressibility (1/GPa) = 0.04342846
#
# Stress axis : x y z
#
# Youngs Moduli (GPa) = 136.38169 43.97392 25.28425
#
# Poissons Ratio (x) = 0.16810 0.01227
# Poissons Ratio (y) = 0.52135 0.22224
# Poissons Ratio (z) = 0.06617 0.38651
#
# Static dielectric constant tensor:
#      x y z
#    x 1.841890 0.000000 0.000000 
#    y 0.000000 2.330290 0.000000 
#    z 0.000000 0.000000 1.752030 
# 
# From -- ./inp_files/19852.got.cif
#   From: 2010.05.17/outbox.cif.g08.bks.cpg/sg64_10_cif.got.tgz:19852.got - 2010.06.03 16:29:19.
