data_PCOD9479108
_publ_section_title
;
Structure prediction by ZEFSAII (Michael W. Deem and Ramdas Pophale) SiO2 
 PCOD9479108
Probable space group: C M C A
;
_chemical_formula_sum "Si O2"
_cell_formula_units_Z 112
_cell_length_a 27.504447
_cell_length_b 13.890831
_cell_length_c 14.469996
_cell_angle_alpha 90.000000
_cell_angle_beta 90.000000
_cell_angle_gamma 90.000000
_cell_volume 5528.401246
_symmetry_space_group_name_H-M "C M C A"
_symmetry_group_IT_number 64
_symmetry_cell_setting 'orthorhombic'
loop_
_space_group_symop_operation_xyz
x,y,z
-x,1/2-y,1/2+z
x,-y,-z
-x,1/2+y,1/2-z
-x,-y,-z
x,1/2+y,1/2-z
-x,y,z
x,1/2-y,1/2+z
1/2+x,1/2+y,z
1/2-x,-y,1/2+z
1/2+x,1/2-y,-z
1/2-x,y,1/2-z
1/2-x,1/2-y,-z
1/2+x,y,1/2-z
1/2-x,1/2+y,z
1/2+x,-y,1/2+z
loop_
_atom_site_type_symbol
_atom_site_label
_atom_site_fract_x
_atom_site_fract_y
_atom_site_fract_z
Si Si1 0.708307 0.830625 0.822341
Si Si2 0.128464 0.657127 0.333605
Si Si3 0.339190 0.213062 0.527024
Si Si4 0.295655 0.052826 0.810828
Si Si5 0.883307 0.560321 0.663421
Si Si6 0.557214 0.834382 0.191688
Si Si7 0.370371 0.101271 0.952016
O O1 0.750000 0.804086 0.750000
O O2 0.659063 0.831763 0.760781
O O3 0.703277 0.757634 0.908195
O O4 0.715727 0.944022 0.846633
O O5 0.164401 0.679916 0.420308
O O6 0.106822 0.551739 0.353354
O O7 0.085538 0.734324 0.324620
O O8 0.362905 0.123433 0.579747
O O9 0.373545 0.307670 0.519073
O O10 0.250000 0.085447 0.750000
O O11 0.339521 0.053321 0.737649
O O12 0.319652 0.111859 0.894368
O O13 0.926826 0.618271 0.711502
O O14 0.500000 0.826468 0.182217
O O15 0.583347 0.900248 0.114691
O O16 0.366993 0.000000 0.000000
#
# Coordination Sequence:
#
# PCOD9479108 Si02
#       7
#    16  16  16  16  16  16  16
#     4  10  20  37  61  90 123 165 211 255 312 380
#     4  10  22  41  61  86 128 168 200 263 328 382
#     4  11  21  38  60  90 125 166 213 255 315 383
#     4   9  19  38  58  85 124 167 205 251 310 380
#     4  10  21  39  61  87 125 165 203 260 320 376
#     4  10  22  40  64  92 120 162 216 264 324 396
#     4  10  20  38  63  90 128 167 209 273 323 365
#
# _framework density 20.25902
#
# number of rings (size 3 to 8) (size 9 to 14) (size 15 to 20)
#    0.000    2.000    2.857    0.429    0.000    2.000 
#    2.571    2.857    0.000    4.286    0.000    1.000 
#    0.000    0.000    0.000    0.000    0.000    0.000 
#
# Total GULP energy -312176.283068 kJ/mol
# GULP energy per Si atom -5574.576483 kJ/mol
# Density = 2.021291 g / cm^3
# Si number density = 20.259020 Si / 1000 Ang^3
#
#
#
# Elastic Constant Matrix: (Units=GPa)
#
#
# Indices 1 2 3 4 5 6 
#
# 1 100.2092 17.1797 11.1600 0.0000 0.0000 0.0000
# 2 17.1797 122.2230 39.1314 0.0000 0.0000 0.0000
# 3 11.1600 39.1314 59.5159 0.0000 0.0000 0.0000
# 4 0.0000 0.0000 0.0000 29.4643 0.0000 0.0000
# 5 0.0000 0.0000 0.0000 0.0000 17.5954 0.0000
# 6 0.0000 0.0000 0.0000 0.0000 0.0000 12.9515
#
#
#
# Elastic Compliance Matrix: (Units=1/GPa)
#
#
# Indices 1 2 3 4 5 6 
#
# 1 0.010297 -0.001050 -0.001240 0.000000 0.000000 0.000000
# 2 -0.001050 0.010470 -0.006687 0.000000 0.000000 0.000000
# 3 -0.001240 -0.006687 0.021432 0.000000 0.000000 0.000000
# 4 0.000000 0.000000 0.000000 0.033939 0.000000 0.000000
# 5 0.000000 0.000000 0.000000 0.000000 0.056833 0.000000
# 6 0.000000 0.000000 0.000000 0.000000 0.000000 0.077211
#
#
# Mechanical properties :
#
#
# Convention : Reuss Voigt Hill
#
# Bulk Modulus (GPa) = 41.24803 46.32116 43.78460
# Shear Modulus (GPa) = 21.16672 26.30071 23.73372
#
# Velocity S-wave (km/s) = 3.23585 3.60699 3.42645
# Velocity P-wave (km/s) = 5.86221 6.34518 6.10847
#
# Compressibility (1/GPa) = 0.02424358
#
# Stress axis : x y z
#
# Youngs Moduli (GPa) = 97.11265 95.50702 46.65989
#
# Poissons Ratio (x) = 0.10031 0.05787
# Poissons Ratio (y) = 0.10200 0.31203
# Poissons Ratio (z) = 0.12045 0.63869
#
# Static dielectric constant tensor:
#      x y z
#    x 1.688910 0.000000 0.000000 
#    y 0.000000 1.767750 0.000000 
#    z 0.000000 0.000000 1.784960 
# 
# From -- ./inp_files/27398.got.cif
#   From: 2010.05.17/outbox.cif.g08.bks.cpg/sg64_14_cif.got.tgz:27398.got - 2010.06.03 16:29:19.
