data_PCOD9479438
_publ_section_title
;
Structure prediction by ZEFSAII (Michael W. Deem and Ramdas Pophale) SiO2 
 PCOD9479438
Probable space group: C M C A
;
_chemical_formula_sum "Si O2"
_cell_formula_units_Z 72
_cell_length_a 28.183696
_cell_length_b 8.543177
_cell_length_c 14.790674
_cell_angle_alpha 90.000000
_cell_angle_beta 90.000000
_cell_angle_gamma 90.000000
_cell_volume 3561.273392
_symmetry_space_group_name_H-M "C M C A"
_symmetry_group_IT_number 64
_symmetry_cell_setting 'orthorhombic'
loop_
_space_group_symop_operation_xyz
x,y,z
-x,1/2-y,1/2+z
x,-y,-z
-x,1/2+y,1/2-z
-x,-y,-z
x,1/2+y,1/2-z
-x,y,z
x,1/2-y,1/2+z
1/2+x,1/2+y,z
1/2-x,-y,1/2+z
1/2+x,1/2-y,-z
1/2-x,y,1/2-z
1/2-x,1/2-y,-z
1/2+x,y,1/2-z
1/2-x,1/2+y,z
1/2+x,-y,1/2+z
loop_
_atom_site_type_symbol
_atom_site_label
_atom_site_fract_x
_atom_site_fract_y
_atom_site_fract_z
Si Si1 0.500000 0.804168 0.170526
Si Si2 0.928185 0.185426 0.024319
Si Si3 0.250000 0.082833 0.250000
Si Si4 0.272358 0.170446 0.625927
Si Si5 0.500000 0.322438 0.624340
Si Si6 0.176246 0.820714 0.464870
O O1 0.456551 0.723510 0.116469
O O2 0.500000 0.766922 0.278135
O O3 0.500000 0.991167 0.147386
O O4 0.876268 0.255622 0.042070
O O5 0.955455 0.272206 0.940351
O O6 0.927567 0.000000 0.000000
O O7 0.284344 0.186566 0.189942
O O8 0.281341 0.984320 0.319257
O O9 0.215125 0.172832 0.614562
O O10 0.298065 0.199693 0.533450
O O11 0.174958 0.000000 0.500000
#
# Coordination Sequence:
#
# PCOD9479438 Si02
#       6
#     8  16   8  16   8  16
#     4  11  22  45  70  94 126 161 202 255 314 370
#     4  11  24  41  66  95 129 161 208 254 309 371
#     4  10  20  40  56  90 112 166 200 266 296 356
#     4  10  22  38  62  80 128 158 208 248 310 350
#     4  11  22  45  70  94 126 161 202 255 314 370
#     4  11  22  40  59  88 120 171 202 246 305 371
#
# _framework density 20.217489
#
# number of rings (size 3 to 8) (size 9 to 14) (size 15 to 20)
#    0.000    1.333    2.222    5.333    3.111    0.000 
#    8.000    0.000    0.000    0.000    0.000    0.000 
#    0.000    0.000    0.000    0.000    0.000    0.000 
#
# Total GULP energy -200622.974334 kJ/mol
# GULP energy per Si atom -5572.860398 kJ/mol
# Density = 2.017147 g / cm^3
# Si number density = 20.217489 Si / 1000 Ang^3
#
#
#
# Elastic Constant Matrix: (Units=GPa)
#
#
# Indices 1 2 3 4 5 6 
#
# 1 143.5342 18.4360 34.2382 0.0000 0.0000 0.0000
# 2 18.4360 115.6488 5.5021 0.0000 0.0000 0.0000
# 3 34.2382 5.5021 95.2208 0.0000 0.0000 0.0000
# 4 0.0000 0.0000 0.0000 37.3734 0.0000 0.0000
# 5 0.0000 0.0000 0.0000 0.0000 1.6601 0.0000
# 6 0.0000 0.0000 0.0000 0.0000 0.0000 49.4232
#
#
#
# Elastic Compliance Matrix: (Units=1/GPa)
#
#
# Indices 1 2 3 4 5 6 
#
# 1 0.007759 -0.001107 -0.002726 0.000000 0.000000 0.000000
# 2 -0.001107 0.008829 -0.000112 0.000000 0.000000 0.000000
# 3 -0.002726 -0.000112 0.011489 0.000000 0.000000 0.000000
# 4 0.000000 0.000000 0.000000 0.026757 0.000000 0.000000
# 5 0.000000 0.000000 0.000000 0.000000 0.602359 0.000000
# 6 0.000000 0.000000 0.000000 0.000000 0.000000 0.020233
#
#
# Mechanical properties :
#
#
# Convention : Reuss Voigt Hill
#
# Bulk Modulus (GPa) = 49.53912 52.30629 50.92271
# Shear Modulus (GPa) = 7.22496 37.43985 22.33241
#
# Velocity S-wave (km/s) = 1.89245 4.30799 3.32717
# Velocity P-wave (km/s) = 5.41585 7.11849 6.32473
#
# Compressibility (1/GPa) = 0.02018607
#
# Stress axis : x y z
#
# Youngs Moduli (GPa) = 128.87478 113.26682 87.04297
#
# Poissons Ratio (x) = 0.12542 0.23728
# Poissons Ratio (y) = 0.14270 0.00975
# Poissons Ratio (z) = 0.35132 0.01269
#
# Static dielectric constant tensor:
#      x y z
#    x 1.716230 0.000000 0.000000 
#    y 0.000000 1.792420 0.000000 
#    z 0.000000 0.000000 1.725990 
# 
# From -- ./inp_files/27859.got.cif
#   From: 2010.05.17/outbox.cif.g08.bks.cpg/sg64_14_cif.got.tgz:27859.got - 2010.06.03 16:29:19.
