data_PCOD9479368
_publ_section_title
;
Structure prediction by ZEFSAII (Michael W. Deem and Ramdas Pophale) SiO2 
 PCOD9479368
Probable space group: C M C A
;
_chemical_formula_sum "Si O2"
_cell_formula_units_Z 96
_cell_length_a 8.781878
_cell_length_b 24.137821
_cell_length_c 25.741163
_cell_angle_alpha 90.000000
_cell_angle_beta 90.000000
_cell_angle_gamma 90.000000
_cell_volume 5456.493303
_symmetry_space_group_name_H-M "C M C A"
_symmetry_group_IT_number 64
_symmetry_cell_setting 'orthorhombic'
loop_
_space_group_symop_operation_xyz
x,y,z
-x,1/2-y,1/2+z
x,-y,-z
-x,1/2+y,1/2-z
-x,-y,-z
x,1/2+y,1/2-z
-x,y,z
x,1/2-y,1/2+z
1/2+x,1/2+y,z
1/2-x,-y,1/2+z
1/2+x,1/2-y,-z
1/2-x,y,1/2-z
1/2-x,1/2-y,-z
1/2+x,y,1/2-z
1/2-x,1/2+y,z
1/2+x,-y,1/2+z
loop_
_atom_site_type_symbol
_atom_site_label
_atom_site_fract_x
_atom_site_fract_y
_atom_site_fract_z
Si Si1 0.317097 0.690915 0.193301
Si Si2 0.182835 0.381165 0.101994
Si Si3 0.317803 0.116979 0.404621
Si Si4 0.683624 0.497926 0.560834
Si Si5 0.818369 0.310737 0.306836
Si Si6 0.817807 0.811279 0.501576
O O1 0.500000 0.695700 0.196616
O O2 0.250000 0.677866 0.250000
O O3 0.277633 0.645322 0.150249
O O4 0.249471 0.750704 0.177511
O O5 0.224167 0.444278 0.088205
O O6 0.266387 0.355855 0.151452
O O7 0.218114 0.343812 0.051586
O O8 0.000000 0.378726 0.110185
O O9 0.500000 0.116936 0.409051
O O10 0.255453 0.055238 0.411936
O O11 0.249095 0.154448 0.450445
O O12 0.729160 0.500000 0.500000
O O13 0.500000 0.492543 0.561740
O O14 0.750000 0.323000 0.250000
O O15 0.000000 0.307049 0.303688
O O16 0.750000 0.750000 0.500000
O O17 0.000000 0.808740 0.506395
#
# Coordination Sequence:
#
# PCOD9479368 Si02
#       6
#    16  16  16  16  16  16
#     4  10  21  38  59  84 115 150 189 232 285 339
#     4  10  21  38  58  81 114 150 190 235 281 337
#     4  11  23  37  56  85 117 149 189 237 286 339
#     4  10  20  39  61  82 110 154 196 231 285 339
#     4  11  22  37  60  87 115 149 190 233 286 340
#     4  11  22  36  55  82 116 150 187 232 286 344
#
# _framework density 17.593717999999999
#
# number of rings (size 3 to 8) (size 9 to 14) (size 15 to 20)
#    0.000    1.500    1.667    5.000    0.000    9.000 
#    0.000    0.833    0.000    2.000    0.000    0.000 
#    0.000    0.000    0.000    0.000    0.000    0.000 
#
# Total GULP energy -268269.428755 kJ/mol
# GULP energy per Si atom -5588.946432 kJ/mol
# Density = 1.755367 g / cm^3
# Si number density = 17.593718 Si / 1000 Ang^3
#
#
#
# Elastic Constant Matrix: (Units=GPa)
#
#
# Indices 1 2 3 4 5 6 
#
# 1 67.5856 68.3213 60.7318 0.0000 0.0000 0.0000
# 2 68.3213 181.8408 101.3120 0.0000 0.0000 0.0000
# 3 60.7318 101.3120 116.5476 0.0000 0.0000 0.0000
# 4 0.0000 0.0000 0.0000 14.2040 0.0000 0.0000
# 5 0.0000 0.0000 0.0000 0.0000 32.5490 0.0000
# 6 0.0000 0.0000 0.0000 0.0000 0.0000 34.0853
#
#
#
# Elastic Compliance Matrix: (Units=1/GPa)
#
#
# Indices 1 2 3 4 5 6 
#
# 1 0.029969 -0.004963 -0.011303 0.000000 0.000000 0.000000
# 2 -0.004963 0.011486 -0.007398 0.000000 0.000000 0.000000
# 3 -0.011303 -0.007398 0.020901 0.000000 0.000000 0.000000
# 4 0.000000 0.000000 0.000000 0.070403 0.000000 0.000000
# 5 0.000000 0.000000 0.000000 0.000000 0.030723 0.000000
# 6 0.000000 0.000000 0.000000 0.000000 0.000000 0.029338
#
#
# Mechanical properties :
#
#
# Convention : Reuss Voigt Hill
#
# Bulk Modulus (GPa) = 66.53939 91.85602 79.19771
# Shear Modulus (GPa) = 20.39506 25.20825 22.80165
#
# Velocity S-wave (km/s) = 3.40843 3.78934 3.60392
# Velocity P-wave (km/s) = 7.30698 8.45390 7.90128
#
# Compressibility (1/GPa) = 0.01502869
#
# Stress axis : x y z
#
# Youngs Moduli (GPa) = 33.36735 87.06295 47.84447
#
# Poissons Ratio (x) = 0.43209 0.54077
# Poissons Ratio (y) = 0.16560 0.35397
# Poissons Ratio (z) = 0.37714 0.64412
#
# Static dielectric constant tensor:
#      x y z
#    x 1.589760 0.000000 0.000000 
#    y 0.000000 1.574230 0.000000 
#    z 0.000000 0.000000 1.579230 
# 
# From -- ./inp_files/43013.got.cif
#   From: 2010.05.17/outbox.cif.g08.bks.cpg/sg64_22_cif.got.tgz:43013.got - 2010.06.03 16:29:19.
