data_PCOD9479322
_publ_section_title
;
Structure prediction by ZEFSAII (Michael W. Deem and Ramdas Pophale) SiO2 
 PCOD9479322
Probable space group: C M C A
;
_chemical_formula_sum "Si O2"
_cell_formula_units_Z 88
_cell_length_a 14.276870
_cell_length_b 19.682150
_cell_length_c 15.293804
_cell_angle_alpha 90.000000
_cell_angle_beta 90.000000
_cell_angle_gamma 90.000000
_cell_volume 4297.551229
_symmetry_space_group_name_H-M "C M C A"
_symmetry_group_IT_number 64
_symmetry_cell_setting 'orthorhombic'
loop_
_space_group_symop_operation_xyz
x,y,z
-x,1/2-y,1/2+z
x,-y,-z
-x,1/2+y,1/2-z
-x,-y,-z
x,1/2+y,1/2-z
-x,y,z
x,1/2-y,1/2+z
1/2+x,1/2+y,z
1/2-x,-y,1/2+z
1/2+x,1/2-y,-z
1/2-x,y,1/2-z
1/2-x,1/2-y,-z
1/2+x,y,1/2-z
1/2-x,1/2+y,z
1/2+x,-y,1/2+z
loop_
_atom_site_type_symbol
_atom_site_label
_atom_site_fract_x
_atom_site_fract_y
_atom_site_fract_z
Si Si1 0.000000 0.180234 0.308237
Si Si2 0.167316 0.428741 0.816865
Si Si3 0.892268 0.579326 0.843790
Si Si4 0.781428 0.135552 0.494784
Si Si5 0.358515 0.221620 0.770412
Si Si6 0.390744 0.730132 0.029630
O O1 0.081382 0.121603 0.305065
O O2 0.080667 0.239494 0.299487
O O3 0.250000 0.413359 0.750000
O O4 0.133333 0.506124 0.806942
O O5 0.206466 0.414155 0.913715
O O6 0.884258 0.642372 0.777770
O O7 0.000000 0.578636 0.878149
O O8 0.817866 0.597950 0.919133
O O9 0.678700 0.169410 0.497178
O O10 0.851818 0.200416 0.486804
O O11 0.250000 0.228578 0.750000
O O12 0.381119 0.255563 0.865528
O O13 0.500000 0.719956 0.010237
#
# Coordination Sequence:
#
# PCOD9479322 Si02
#       6
#     8  16  16  16  16  16
#     4  12  22  36  61  92 126 166 209 268 328 382
#     4  12  26  41  64  97 136 170 221 273 335 402
#     4  11  23  45  68  92 132 180 219 274 333 404
#     4  10  22  39  65  95 128 171 222 278 325 388
#     4  11  21  39  64  94 132 173 218 273 335 385
#     4  10  20  38  65  95 134 172 218 279 334 391
#
# _framework density 20.476777999999999
#
# number of rings (size 3 to 8) (size 9 to 14) (size 15 to 20)
#    0.000    1.091    2.727    5.455    2.545    0.727 
#    0.000    0.000    2.000    1.091    0.000    0.000 
#    0.000    0.000    0.000    0.000    0.000    0.000 
#
# Total GULP energy -245069.227795 kJ/mol
# GULP energy per Si atom -5569.755177 kJ/mol
# Density = 2.043017 g / cm^3
# Si number density = 20.476778 Si / 1000 Ang^3
#
#
#
# Elastic Constant Matrix: (Units=GPa)
#
#
# Indices 1 2 3 4 5 6 
#
# 1 160.8204 35.8892 8.4731 0.0000 0.0000 0.0000
# 2 35.8892 116.4772 9.3987 0.0000 0.0000 0.0000
# 3 8.4731 9.3987 32.9020 0.0000 0.0000 0.0000
# 4 0.0000 0.0000 0.0000 -0.9701 0.0000 0.0000
# 5 0.0000 0.0000 0.0000 0.0000 -7.1152 0.0000
# 6 0.0000 0.0000 0.0000 0.0000 0.0000 8.7488
#
#
#
# Elastic Compliance Matrix: (Units=1/GPa)
#
#
# Indices 1 2 3 4 5 6 
#
# 1 0.006721 -0.001977 -0.001166 0.000000 0.000000 0.000000
# 2 -0.001977 0.009369 -0.002167 0.000000 0.000000 0.000000
# 3 -0.001166 -0.002167 0.031313 0.000000 0.000000 0.000000
# 4 0.000000 0.000000 0.000000 -1.030832 0.000000 0.000000
# 5 0.000000 0.000000 0.000000 0.000000 -0.140544 0.000000
# 6 0.000000 0.000000 0.000000 0.000000 0.000000 0.114301
#
#
# Mechanical properties :
#
#
# Convention : Reuss Voigt Hill
#
# Bulk Modulus (GPa) = 27.18693 46.41352 36.80023
# Shear Modulus (GPa) = -5.06693 17.22861 6.08084
#
# Velocity S-wave (km/s) = -1.57475 2.90379 1.72513
# Velocity P-wave (km/s) = 3.16217 5.82737 4.68816
#
# Compressibility (1/GPa) = 0.03678239
#
# Stress axis : x y z
#
# Youngs Moduli (GPa) = 148.79449 106.73129 31.93594
#
# Poissons Ratio (x) = 0.21098 0.03724
# Poissons Ratio (y) = 0.29412 0.06922
# Poissons Ratio (z) = 0.17351 0.23133
#
# Static dielectric constant tensor:
#      x y z
#    x 1.713690 0.000000 0.000000 
#    y 0.000000 1.700360 0.000000 
#    z 0.000000 0.000000 1.801530 
# 
# From -- ./inp_files/32167.got.cif
#   From: 2010.05.17/outbox.cif.g08.bks.cpg/sg64_17_cif.got.tgz:32167.got - 2010.06.03 16:29:19.
