data_PCOD9479234
_publ_section_title
;
Structure prediction by ZEFSAII (Michael W. Deem and Ramdas Pophale) SiO2 
 PCOD9479234
Probable space group: C M C A
;
_chemical_formula_sum "Si O2"
_cell_formula_units_Z 64
_cell_length_a 14.568142
_cell_length_b 22.691728
_cell_length_c 8.150231
_cell_angle_alpha 90.000000
_cell_angle_beta 90.000000
_cell_angle_gamma 90.000000
_cell_volume 2694.273336
_symmetry_space_group_name_H-M "C M C A"
_symmetry_group_IT_number 64
_symmetry_cell_setting 'orthorhombic'
loop_
_space_group_symop_operation_xyz
x,y,z
-x,1/2-y,1/2+z
x,-y,-z
-x,1/2+y,1/2-z
-x,-y,-z
x,1/2+y,1/2-z
-x,y,z
x,1/2-y,1/2+z
1/2+x,1/2+y,z
1/2-x,-y,1/2+z
1/2+x,1/2-y,-z
1/2-x,y,1/2-z
1/2-x,1/2-y,-z
1/2+x,y,1/2-z
1/2-x,1/2+y,z
1/2+x,-y,1/2+z
loop_
_atom_site_type_symbol
_atom_site_label
_atom_site_fract_x
_atom_site_fract_y
_atom_site_fract_z
Si Si1 0.896721 0.111354 0.328840
Si Si2 0.351720 0.771193 0.677415
Si Si3 0.716493 0.930231 0.508256
Si Si4 0.105861 0.839255 0.154857
O O1 0.902339 0.180777 0.289935
O O2 0.817235 0.096598 0.458632
O O3 0.851210 0.084503 0.162250
O O4 0.000000 0.089552 0.362803
O O5 0.250000 0.772352 0.750000
O O6 0.360020 0.797614 0.495829
O O7 0.385965 0.704539 0.691914
O O8 0.666908 0.897358 0.357945
O O9 0.724141 0.000000 0.500000
O O10 0.000000 0.854534 0.128779
#
# Coordination Sequence:
#
# PCOD9479234 Si02
#       4
#    16  16  16  16
#     4  10  20  38  61  85 115 155 199 249 310 363
#     4  11  20  38  62  89 122 160 195 252 309 361
#     4  10  21  39  60  83 117 162 201 247 295 359
#     4  11  22  38  62  92 123 160 202 249 305 367
#
# _framework density 23.754085
#
# number of rings (size 3 to 8) (size 9 to 14) (size 15 to 20)
#    0.000    1.500    5.000    5.250    0.000    2.500 
#    4.500    0.000    0.000    0.000    0.000    0.000 
#    0.000    0.000    0.000    0.000    0.000    0.000 
#
# Total GULP energy -178991.973601 kJ/mol
# GULP energy per Si atom -5593.499175 kJ/mol
# Density = 2.370002 g / cm^3
# Si number density = 23.754085 Si / 1000 Ang^3
#
#
#
# Elastic Constant Matrix: (Units=GPa)
#
#
# Indices 1 2 3 4 5 6 
#
# 1 221.4359 36.8170 10.6668 0.0000 0.0000 0.0000
# 2 36.8170 159.9186 15.9354 0.0000 0.0000 0.0000
# 3 10.6668 15.9354 54.2899 0.0000 0.0000 0.0000
# 4 0.0000 0.0000 0.0000 34.3525 0.0000 0.0000
# 5 0.0000 0.0000 0.0000 0.0000 3.7549 0.0000
# 6 0.0000 0.0000 0.0000 0.0000 0.0000 -2.4878
#
#
#
# Elastic Compliance Matrix: (Units=1/GPa)
#
#
# Indices 1 2 3 4 5 6 
#
# 1 0.004716 -0.001023 -0.000626 0.000000 0.000000 0.000000
# 2 -0.001023 0.006664 -0.001755 0.000000 0.000000 0.000000
# 3 -0.000626 -0.001755 0.019058 0.000000 0.000000 0.000000
# 4 0.000000 0.000000 0.000000 0.029110 0.000000 0.000000
# 5 0.000000 0.000000 0.000000 0.000000 0.266321 0.000000
# 6 0.000000 0.000000 0.000000 0.000000 0.000000 -0.401968
#
#
# Mechanical properties :
#
#
# Convention : Reuss Voigt Hill
#
# Bulk Modulus (GPa) = 42.32143 62.49807 52.40975
# Shear Modulus (GPa) = -81.41493 31.93894 -24.73799
#
# Velocity S-wave (km/s) = -5.86076 3.67081 -3.23061
# Velocity P-wave (km/s) = 5.28610 6.65838 2.86280
#
# Compressibility (1/GPa) = 0.02362869
#
# Stress axis : x y z
#
# Youngs Moduli (GPa) = 212.03055 150.06767 52.47202
#
# Poissons Ratio (x) = 0.15358 0.03286
# Poissons Ratio (y) = 0.21699 0.09208
# Poissons Ratio (z) = 0.13279 0.26335
#
# Static dielectric constant tensor:
#      x y z
#    x 1.877830 0.000000 0.000000 
#    y 0.000000 1.887100 0.000000 
#    z 0.000000 0.000000 2.039410 
# 
# From -- ./inp_files/5587.got.cif
#   From: 2010.05.17/outbox.cif.g08.bks.cpg/sg64_3_cif.got.tgz:5587.got - 2010.06.03 16:29:19.
