data_PCOD9479885
_publ_section_title
;
Structure prediction by ZEFSAII (Michael W. Deem and Ramdas Pophale) SiO2 
 PCOD9479885
Probable space group: C M C A
;
_chemical_formula_sum "Si O2"
_cell_formula_units_Z 96
_cell_length_a 8.785301
_cell_length_b 21.097882
_cell_length_c 27.375104
_cell_angle_alpha 90.000000
_cell_angle_beta 90.000000
_cell_angle_gamma 90.000000
_cell_volume 5074.009576
_symmetry_space_group_name_H-M "C M C A"
_symmetry_group_IT_number 64
_symmetry_cell_setting 'orthorhombic'
loop_
_space_group_symop_operation_xyz
x,y,z
-x,1/2-y,1/2+z
x,-y,-z
-x,1/2+y,1/2-z
-x,-y,-z
x,1/2+y,1/2-z
-x,y,z
x,1/2-y,1/2+z
1/2+x,1/2+y,z
1/2-x,-y,1/2+z
1/2+x,1/2-y,-z
1/2-x,y,1/2-z
1/2-x,1/2-y,-z
1/2+x,y,1/2-z
1/2-x,1/2+y,z
1/2+x,-y,1/2+z
loop_
_atom_site_type_symbol
_atom_site_label
_atom_site_fract_x
_atom_site_fract_y
_atom_site_fract_z
Si Si1 0.316424 0.061151 0.804183
Si Si2 0.683687 0.813924 0.135421
Si Si3 0.182141 0.687754 0.304180
Si Si4 0.818545 0.688960 0.527182
Si Si5 0.816465 0.433722 0.974257
Si Si6 0.316408 0.932799 0.859829
O O1 0.500000 0.061292 0.801039
O O2 0.250000 0.062644 0.750000
O O3 0.271389 0.123099 0.834960
O O4 0.269984 0.997316 0.832457
O O5 0.500000 0.815158 0.128915
O O6 0.723102 0.751812 0.166792
O O7 0.760611 0.811793 0.082777
O O8 0.250000 0.688635 0.250000
O O9 0.243760 0.627427 0.333585
O O10 0.000000 0.684397 0.301031
O O11 0.750000 0.750000 0.500000
O O12 0.760755 0.625530 0.500521
O O13 0.000000 0.692214 0.525625
O O14 0.776329 0.435345 0.917009
O O15 0.000000 0.426680 0.978207
O O16 0.775410 0.500000 0.000000
O O17 0.500000 0.927923 0.856639
#
# Coordination Sequence:
#
# PCOD9479885 Si02
#       6
#    16  16  16  16  16  16
#     4  10  21  38  60  86 116 151 192 237 287 344
#     4  10  22  41  62  85 115 152 195 241 292 349
#     4  11  23  38  59  85 115 151 191 239 290 345
#     4  12  25  40  61  89 121 157 199 246 296 352
#     4  10  21  40  65  90 120 158 198 243 297 354
#     4  10  21  37  59  86 116 152 192 235 285 344
#
# _framework density 18.919948000000002
#
# number of rings (size 3 to 8) (size 9 to 14) (size 15 to 20)
#    0.000    1.500    0.000    5.000    0.000   10.333 
#    0.000    1.667    0.000    0.000    0.000    0.000 
#    0.000    0.000    0.000    0.000    0.000    0.000 
#
# Total GULP energy -268473.190645 kJ/mol
# GULP energy per Si atom -5593.191472 kJ/mol
# Density = 1.887689 g / cm^3
# Si number density = 18.919948 Si / 1000 Ang^3
#
#
#
# Elastic Constant Matrix: (Units=GPa)
#
#
# Indices 1 2 3 4 5 6 
#
# 1 45.1253 73.1165 75.0201 0.0000 0.0000 0.0000
# 2 73.1165 227.3765 137.3663 0.0000 0.0000 0.0000
# 3 75.0201 137.3663 224.2164 0.0000 0.0000 0.0000
# 4 0.0000 0.0000 0.0000 43.6239 0.0000 0.0000
# 5 0.0000 0.0000 0.0000 0.0000 28.6685 0.0000
# 6 0.0000 0.0000 0.0000 0.0000 0.0000 23.0246
#
#
#
# Elastic Compliance Matrix: (Units=1/GPa)
#
#
# Indices 1 2 3 4 5 6 
#
# 1 0.067224 -0.012746 -0.014683 0.000000 0.000000 0.000000
# 2 -0.012746 0.009399 -0.001494 0.000000 0.000000 0.000000
# 3 -0.014683 -0.001494 0.010288 0.000000 0.000000 0.000000
# 4 0.000000 0.000000 0.000000 0.022923 0.000000 0.000000
# 5 0.000000 0.000000 0.000000 0.000000 0.034881 0.000000
# 6 0.000000 0.000000 0.000000 0.000000 0.000000 0.043432
#
#
# Mechanical properties :
#
#
# Convention : Reuss Voigt Hill
#
# Bulk Modulus (GPa) = 34.40615 118.63598 76.52106
# Shear Modulus (GPa) = 19.55555 33.14442 26.34998
#
# Velocity S-wave (km/s) = 3.21844 4.19002 3.73595
# Velocity P-wave (km/s) = 5.66002 9.28702 7.69040
#
# Compressibility (1/GPa) = 0.02906457
#
# Stress axis : x y z
#
# Youngs Moduli (GPa) = 14.87568 106.39342 97.20124
#
# Poissons Ratio (x) = 1.35610 1.42724
# Poissons Ratio (y) = 0.18961 0.14518
# Poissons Ratio (z) = 0.21842 0.15891
#
# Static dielectric constant tensor:
#      x y z
#    x 1.641620 0.000000 0.000000 
#    y 0.000000 1.626840 0.000000 
#    z 0.000000 0.000000 1.612110 
# 
# From -- ./inp_files/48149.got.cif
#   From: 2010.05.17/outbox.cif.g08.bks.cpg/sg64_25_cif.got.tgz:48149.got - 2010.06.03 16:29:19.
