data_PCOD9479714
_publ_section_title
;
Structure prediction by ZEFSAII (Michael W. Deem and Ramdas Pophale) SiO2 
 PCOD9479714
Probable space group: C M C A
;
_chemical_formula_sum "Si O2"
_cell_formula_units_Z 112
_cell_length_a 16.937980
_cell_length_b 14.206639
_cell_length_c 24.719508
_cell_angle_alpha 90.000000
_cell_angle_beta 90.000000
_cell_angle_gamma 90.000000
_cell_volume 5948.298896
_symmetry_space_group_name_H-M "C M C A"
_symmetry_group_IT_number 64
_symmetry_cell_setting 'orthorhombic'
loop_
_space_group_symop_operation_xyz
x,y,z
-x,1/2-y,1/2+z
x,-y,-z
-x,1/2+y,1/2-z
-x,-y,-z
x,1/2+y,1/2-z
-x,y,z
x,1/2-y,1/2+z
1/2+x,1/2+y,z
1/2-x,-y,1/2+z
1/2+x,1/2-y,-z
1/2-x,y,1/2-z
1/2-x,1/2-y,-z
1/2+x,y,1/2-z
1/2-x,1/2+y,z
1/2+x,-y,1/2+z
loop_
_atom_site_type_symbol
_atom_site_label
_atom_site_fract_x
_atom_site_fract_y
_atom_site_fract_z
Si Si1 0.589415 0.504300 0.065546
Si Si2 0.404729 0.291037 0.944069
Si Si3 0.327399 0.262592 0.672059
Si Si4 0.095960 0.204157 0.931929
Si Si5 0.410297 0.616884 0.241644
Si Si6 0.141933 0.722171 0.836122
Si Si7 0.655690 0.084285 0.744198
O O1 0.500000 0.506231 0.087802
O O2 0.626956 0.606072 0.075404
O O3 0.624156 0.403348 0.080723
O O4 0.583355 0.500000 0.000000
O O5 0.500000 0.298466 0.944959
O O6 0.379981 0.217363 0.898820
O O7 0.381066 0.273329 0.006115
O O8 0.365700 0.269231 0.613189
O O9 0.352234 0.346918 0.711238
O O10 0.233965 0.248698 0.669254
O O11 0.359032 0.168390 0.701874
O O12 0.000000 0.205284 0.928960
O O13 0.500000 0.618437 0.261499
O O14 0.403047 0.691425 0.192855
O O15 0.385664 0.511450 0.226868
O O16 0.127272 0.628049 0.801446
O O17 0.750000 0.069457 0.750000
#
# Coordination Sequence:
#
# PCOD9479714 Si02
#       7
#    16  16  16  16  16  16  16
#     4   7  12  24  42  69 102 130 161 206 255 295
#     4   9  17  30  50  78 109 141 175 216 261 306
#     4  10  21  36  54  79 109 142 175 213 264 320
#     4   9  17  30  50  77 110 141 175 217 259 307
#     4  11  22  36  57  80 103 135 177 222 267 311
#     4  10  21  36  54  79 109 141 175 214 262 323
#     4   9  20  38  55  74 105 140 173 215 265 316
#
# _framework density 18.828913
#
# number of rings (size 3 to 8) (size 9 to 14) (size 15 to 20)
#    0.000    2.714    0.000    4.714    2.000    4.000 
#    0.000    0.000    0.000    0.857    0.000    3.000 
#    0.000    0.000    0.000    0.000    0.000    0.000 
#
# Total GULP energy -312112.916498 kJ/mol
# GULP energy per Si atom -5573.444937 kJ/mol
# Density = 1.878606 g / cm^3
# Si number density = 18.828913 Si / 1000 Ang^3
#
#
#
# Elastic Constant Matrix: (Units=GPa)
#
#
# Indices 1 2 3 4 5 6 
#
# 1 24.4579 0.8943 3.6117 0.0000 0.0000 0.0000
# 2 0.8943 45.2682 0.1341 0.0000 0.0000 0.0000
# 3 3.6117 0.1341 75.6552 0.0000 0.0000 0.0000
# 4 0.0000 0.0000 0.0000 20.3610 0.0000 0.0000
# 5 0.0000 0.0000 0.0000 0.0000 13.0871 0.0000
# 6 0.0000 0.0000 0.0000 0.0000 0.0000 13.9310
#
#
#
# Elastic Compliance Matrix: (Units=1/GPa)
#
#
# Indices 1 2 3 4 5 6 
#
# 1 0.041206 -0.000808 -0.001966 0.000000 0.000000 0.000000
# 2 -0.000808 0.022107 -0.000001 0.000000 0.000000 0.000000
# 3 -0.001966 -0.000001 0.013312 0.000000 0.000000 0.000000
# 4 0.000000 0.000000 0.000000 0.049113 0.000000 0.000000
# 5 0.000000 0.000000 0.000000 0.000000 0.076411 0.000000
# 6 0.000000 0.000000 0.000000 0.000000 0.000000 0.071782
#
#
# Mechanical properties :
#
#
# Convention : Reuss Voigt Hill
#
# Bulk Modulus (GPa) = 14.06956 17.18463 15.62710
# Shear Modulus (GPa) = 16.49227 18.85858 17.67542
#
# Velocity S-wave (km/s) = 2.96277 3.16820 3.06721
# Velocity P-wave (km/s) = 4.38093 4.74656 4.56741
#
# Compressibility (1/GPa) = 0.07107541
#
# Stress axis : x y z
#
# Youngs Moduli (GPa) = 24.26812 45.23553 75.12191
#
# Poissons Ratio (x) = 0.03656 0.14767
# Poissons Ratio (y) = 0.01962 0.00005
# Poissons Ratio (z) = 0.04770 0.00003
#
# Static dielectric constant tensor:
#      x y z
#    x 1.647060 0.000000 0.000000 
#    y 0.000000 1.664460 0.000000 
#    z 0.000000 0.000000 1.663560 
# 
# From -- ./inp_files/50067.got.cif
#   From: 2010.05.17/outbox.cif.g08.bks.cpg/sg64_26_cif.got.tgz:50067.got - 2010.06.03 16:29:19.
