data_PCOD9479752
_publ_section_title
;
Structure prediction by ZEFSAII (Michael W. Deem and Ramdas Pophale) SiO2 
 PCOD9479752
Probable space group: C M C A
;
_chemical_formula_sum "Si O2"
_cell_formula_units_Z 96
_cell_length_a 24.736179
_cell_length_b 9.040570
_cell_length_c 17.873708
_cell_angle_alpha 90.000000
_cell_angle_beta 90.000000
_cell_angle_gamma 90.000000
_cell_volume 3997.082266
_symmetry_space_group_name_H-M "C M C A"
_symmetry_group_IT_number 64
_symmetry_cell_setting 'orthorhombic'
loop_
_space_group_symop_operation_xyz
x,y,z
-x,1/2-y,1/2+z
x,-y,-z
-x,1/2+y,1/2-z
-x,-y,-z
x,1/2+y,1/2-z
-x,y,z
x,1/2-y,1/2+z
1/2+x,1/2+y,z
1/2-x,-y,1/2+z
1/2+x,1/2-y,-z
1/2-x,y,1/2-z
1/2-x,1/2-y,-z
1/2+x,y,1/2-z
1/2-x,1/2+y,z
1/2+x,-y,1/2+z
loop_
_atom_site_type_symbol
_atom_site_label
_atom_site_fract_x
_atom_site_fract_y
_atom_site_fract_z
Si Si1 0.854909 0.546467 0.397027
Si Si2 0.563495 0.110871 0.143089
Si Si3 0.215661 0.106052 0.683307
Si Si4 0.890818 0.124466 0.754487
Si Si5 0.131559 0.242032 0.486104
Si Si6 0.767349 0.145168 0.412859
O O1 0.871015 0.501396 0.313678
O O2 0.881402 0.696449 0.431244
O O3 0.870163 0.396743 0.440854
O O4 0.791377 0.570289 0.416181
O O5 0.500000 0.117360 0.128316
O O6 0.577147 0.962221 0.189733
O O7 0.579619 0.248256 0.198265
O O8 0.594518 0.134717 0.063530
O O9 0.250000 0.036904 0.750000
O O10 0.164475 0.186288 0.718184
O O11 0.196804 0.972482 0.632215
O O12 0.254842 0.214608 0.638595
O O13 0.194349 0.185784 0.482255
#
# Coordination Sequence:
#
# PCOD9479752 Si02
#       6
#    16  16  16  16  16  16
#     4  10  21  36  58  85 123 154 191 234 289 361
#     4  11  23  41  64  86 112 152 202 252 299 340
#     4  12  22  32  58  89 124 154 191 234 290 354
#     4  11  22  39  60  89 118 151 195 250 297 346
#     4  10  21  39  56  85 121 156 195 242 286 346
#     4  12  20  36  56  88 119 162 192 224 289 358
#
# _framework density 24.017519
#
# number of rings (size 3 to 8) (size 9 to 14) (size 15 to 20)
#    0.000    1.000    5.000    3.500    0.000    0.000 
#    0.000    7.500    0.000    0.000    0.000    3.500 
#    0.000    0.000    0.000    0.000    0.000    0.000 
#
# Total GULP energy -268242.415498 kJ/mol
# GULP energy per Si atom -5588.383656 kJ/mol
# Density = 2.396285 g / cm^3
# Si number density = 24.017519 Si / 1000 Ang^3
#
#
#
# Elastic Constant Matrix: (Units=GPa)
#
#
# Indices 1 2 3 4 5 6 
#
# 1 102.1601 2.5623 14.8603 0.0000 0.0000 0.0000
# 2 2.5623 74.2782 27.9915 0.0000 0.0000 0.0000
# 3 14.8603 27.9915 81.1608 0.0000 0.0000 0.0000
# 4 0.0000 0.0000 0.0000 47.2123 0.0000 0.0000
# 5 0.0000 0.0000 0.0000 0.0000 21.7802 0.0000
# 6 0.0000 0.0000 0.0000 0.0000 0.0000 25.7333
#
#
#
# Elastic Compliance Matrix: (Units=1/GPa)
#
#
# Indices 1 2 3 4 5 6 
#
# 1 0.010067 0.000399 -0.001981 0.000000 0.000000 0.000000
# 2 0.000399 0.015490 -0.005415 0.000000 0.000000 0.000000
# 3 -0.001981 -0.005415 0.014552 0.000000 0.000000 0.000000
# 4 0.000000 0.000000 0.000000 0.021181 0.000000 0.000000
# 5 0.000000 0.000000 0.000000 0.000000 0.045913 0.000000
# 6 0.000000 0.000000 0.000000 0.000000 0.000000 0.038860
#
#
# Mechanical properties :
#
#
# Convention : Reuss Voigt Hill
#
# Bulk Modulus (GPa) = 38.29345 38.71414 38.50380
# Shear Modulus (GPa) = 29.62763 33.09082 31.35923
#
# Velocity S-wave (km/s) = 3.51605 3.71587 3.61734
# Velocity P-wave (km/s) = 5.69755 5.87915 5.78906
#
# Compressibility (1/GPa) = 0.02611412
#
# Stress axis : x y z
#
# Youngs Moduli (GPa) = 99.33754 64.55819 68.72089
#
# Poissons Ratio (x) = -0.02577 0.13613
# Poissons Ratio (y) = -0.03966 0.37215
# Poissons Ratio (z) = 0.19678 0.34961
#
# Static dielectric constant tensor:
#      x y z
#    x 1.891660 0.000000 0.000000 
#    y 0.000000 1.963410 0.000000 
#    z 0.000000 0.000000 1.975950 
# 
# From -- ./inp_files/41829.got.cif
#   From: 2010.05.17/outbox.cif.g08.bks.cpg/sg64_21_cif.got.tgz:41829.got - 2010.06.03 16:29:19.
