data_PCOD9479496
_publ_section_title
;
Structure prediction by ZEFSAII (Michael W. Deem and Ramdas Pophale) SiO2 
 PCOD9479496
Probable space group: C M C A
;
_chemical_formula_sum "Si O2"
_cell_formula_units_Z 104
_cell_length_a 9.492582
_cell_length_b 19.723503
_cell_length_c 28.404854
_cell_angle_alpha 90.000000
_cell_angle_beta 90.000000
_cell_angle_gamma 90.000000
_cell_volume 5318.154735
_symmetry_space_group_name_H-M "C M C A"
_symmetry_group_IT_number 64
_symmetry_cell_setting 'orthorhombic'
loop_
_space_group_symop_operation_xyz
x,y,z
-x,1/2-y,1/2+z
x,-y,-z
-x,1/2+y,1/2-z
-x,-y,-z
x,1/2+y,1/2-z
-x,y,z
x,1/2-y,1/2+z
1/2+x,1/2+y,z
1/2-x,-y,1/2+z
1/2+x,1/2-y,-z
1/2-x,y,1/2-z
1/2-x,1/2-y,-z
1/2+x,y,1/2-z
1/2-x,1/2+y,z
1/2+x,-y,1/2+z
loop_
_atom_site_type_symbol
_atom_site_label
_atom_site_fract_x
_atom_site_fract_y
_atom_site_fract_z
Si Si1 0.833298 0.412176 0.701491
Si Si2 0.163455 0.046974 0.046417
Si Si3 0.833387 0.181265 0.990052
Si Si4 0.335116 0.994301 0.134739
Si Si5 0.660667 0.654883 0.600822
Si Si6 0.719154 0.764866 0.678411
Si Si7 0.500000 0.253605 0.236019
O O1 0.750000 0.399015 0.750000
O O2 0.759801 0.474880 0.676055
O O3 0.810916 0.344669 0.670587
O O4 0.000000 0.420874 0.710230
O O5 0.000000 0.040258 0.062819
O O6 0.270601 0.023458 0.086389
O O7 0.187681 0.123954 0.029775
O O8 0.177786 0.000000 0.000000
O O9 0.770736 0.152494 0.941477
O O10 0.000000 0.193482 0.986137
O O11 0.750000 0.250000 0.000000
O O12 0.500000 0.012755 0.140482
O O13 0.325357 0.913139 0.131709
O O14 0.500000 0.656094 0.582100
O O15 0.685487 0.719921 0.633190
O O16 0.619189 0.744306 0.721691
O O17 0.876727 0.753971 0.695999
#
# Coordination Sequence:
#
# PCOD9479496 Si02
#       7
#    16  16  16  16  16  16   8
#     4  12  23  43  67  93 128 169 212 265 312 374
#     4  10  21  44  70  90 125 171 211 255 312 380
#     4  11  25  43  67  96 129 165 209 262 319 373
#     4  11  26  42  64  96 130 168 213 259 316 378
#     4  11  24  44  63  94 132 165 209 264 314 379
#     4  11  21  41  67  94 122 166 210 265 312 373
#     4  10  20  40  66  94 122 162 216 256 320 370
#
# _framework density 19.555655999999999
#
# number of rings (size 3 to 8) (size 9 to 14) (size 15 to 20)
#    0.000    1.077    4.615    1.385    4.308    2.154 
#    2.769    0.000    0.000    0.000    0.000    0.000 
#    0.000    0.000    0.000    0.000    0.000    0.000 
#
# Total GULP energy -289536.043670 kJ/mol
# GULP energy per Si atom -5568.000840 kJ/mol
# Density = 1.951115 g / cm^3
# Si number density = 19.555656 Si / 1000 Ang^3
#
#
#
# Elastic Constant Matrix: (Units=GPa)
#
#
# Indices 1 2 3 4 5 6 
#
# 1 163.0698 41.1391 18.0200 0.0000 0.0000 0.0000
# 2 41.1391 83.9542 14.2041 0.0000 0.0000 0.0000
# 3 18.0200 14.2041 23.9879 0.0000 0.0000 0.0000
# 4 0.0000 0.0000 0.0000 0.9027 0.0000 0.0000
# 5 0.0000 0.0000 0.0000 0.0000 37.0640 0.0000
# 6 0.0000 0.0000 0.0000 0.0000 0.0000 -25.1559
#
#
#
# Elastic Compliance Matrix: (Units=1/GPa)
#
#
# Indices 1 2 3 4 5 6 
#
# 1 0.007286 -0.002939 -0.003733 0.000000 0.000000 0.000000
# 2 -0.002939 0.014423 -0.006333 0.000000 0.000000 0.000000
# 3 -0.003733 -0.006333 0.048242 0.000000 0.000000 0.000000
# 4 0.000000 0.000000 0.000000 1.107758 0.000000 0.000000
# 5 0.000000 0.000000 0.000000 0.000000 0.026980 0.000000
# 6 0.000000 0.000000 0.000000 0.000000 0.000000 -0.039752
#
#
# Mechanical properties :
#
#
# Convention : Reuss Voigt Hill
#
# Bulk Modulus (GPa) = 22.75754 46.41538 34.58646
# Shear Modulus (GPa) = 4.14734 15.73875 9.94304
#
# Velocity S-wave (km/s) = 1.45787 2.84001 2.25733
# Velocity P-wave (km/s) = 3.80742 5.87714 4.95162
#
# Compressibility (1/GPa) = 0.04394149
#
# Stress axis : x y z
#
# Youngs Moduli (GPa) = 137.24403 69.33515 20.72885
#
# Poissons Ratio (x) = 0.20376 0.07739
# Poissons Ratio (y) = 0.40333 0.13127
# Poissons Ratio (z) = 0.51239 0.43907
#
# Static dielectric constant tensor:
#      x y z
#    x 1.663400 0.000000 0.000000 
#    y 0.000000 1.706420 0.000000 
#    z 0.000000 0.000000 1.670330 
# 
# From -- ./inp_files/48254.got.cif
#   From: 2010.05.17/outbox.cif.g08.bks.cpg/sg64_25_cif.got.tgz:48254.got - 2010.06.03 16:29:19.
