data_PCOD9479942
_publ_section_title
;
Structure prediction by ZEFSAII (Michael W. Deem and Ramdas Pophale) SiO2 
 PCOD9479942
Probable space group: C M C A
;
_chemical_formula_sum "Si O2"
_cell_formula_units_Z 96
_cell_length_a 15.354767
_cell_length_b 18.878998
_cell_length_c 16.107229
_cell_angle_alpha 90.000000
_cell_angle_beta 90.000000
_cell_angle_gamma 90.000000
_cell_volume 4669.205671
_symmetry_space_group_name_H-M "C M C A"
_symmetry_group_IT_number 64
_symmetry_cell_setting 'orthorhombic'
loop_
_space_group_symop_operation_xyz
x,y,z
-x,1/2-y,1/2+z
x,-y,-z
-x,1/2+y,1/2-z
-x,-y,-z
x,1/2+y,1/2-z
-x,y,z
x,1/2-y,1/2+z
1/2+x,1/2+y,z
1/2-x,-y,1/2+z
1/2+x,1/2-y,-z
1/2-x,y,1/2-z
1/2-x,1/2-y,-z
1/2+x,y,1/2-z
1/2-x,1/2+y,z
1/2+x,-y,1/2+z
loop_
_atom_site_type_symbol
_atom_site_label
_atom_site_fract_x
_atom_site_fract_y
_atom_site_fract_z
Si Si1 0.905287 0.915398 0.572311
Si Si2 0.674827 0.357294 0.841458
Si Si3 0.632875 0.709778 0.314354
Si Si4 0.830768 0.366484 0.310301
Si Si5 0.218344 0.081564 0.991559
Si Si6 0.100762 0.513191 0.247080
O O1 0.911386 0.839780 0.618332
O O2 0.821182 0.916069 0.514276
O O3 0.000000 0.929279 0.534110
O O4 0.887915 0.969026 0.649600
O O5 0.612295 0.312955 0.780561
O O6 0.766830 0.316395 0.830839
O O7 0.667919 0.371680 0.939104
O O8 0.664654 0.435328 0.799453
O O9 0.619897 0.792645 0.322610
O O10 0.750000 0.349907 0.250000
O O11 0.797830 0.391371 0.399840
O O12 0.880808 0.432268 0.269384
O O13 0.189979 0.000000 0.000000
O O14 0.000000 0.530429 0.267500
#
# Coordination Sequence:
#
# PCOD9479942 Si02
#       6
#    16  16  16  16  16  16
#     4   9  20  38  62  89 122 163 202 249 314 371
#     4   9  17  37  56  83 118 153 208 236 297 360
#     4   9  19  36  60  86 116 165 199 247 298 369
#     4  12  23  37  59  94 125 158 209 254 306 363
#     4  11  21  35  62  95 114 158 202 265 301 353
#     4  10  21  37  63  91 123 163 203 253 308 367
#
# _framework density 20.560241999999999
#
# number of rings (size 3 to 8) (size 9 to 14) (size 15 to 20)
#    0.000    2.000    3.333    2.000    4.667    3.667 
#    0.000    2.500    0.000    3.000    0.000    0.000 
#    0.000    0.000    0.000    0.000    0.000    0.000 
#
# Total GULP energy -267563.945354 kJ/mol
# GULP energy per Si atom -5574.248862 kJ/mol
# Density = 2.051345 g / cm^3
# Si number density = 20.560242 Si / 1000 Ang^3
#
#
#
# Elastic Constant Matrix: (Units=GPa)
#
#
# Indices 1 2 3 4 5 6 
#
# 1 46.4595 23.3320 3.1481 0.0000 0.0000 0.0000
# 2 23.3320 163.8764 43.2839 0.0000 0.0000 0.0000
# 3 3.1481 43.2839 88.3341 0.0000 0.0000 0.0000
# 4 0.0000 0.0000 0.0000 20.2197 0.0000 0.0000
# 5 0.0000 0.0000 0.0000 0.0000 -1.7784 0.0000
# 6 0.0000 0.0000 0.0000 0.0000 0.0000 25.6749
#
#
#
# Elastic Compliance Matrix: (Units=1/GPa)
#
#
# Indices 1 2 3 4 5 6 
#
# 1 0.023245 -0.003550 0.000911 0.000000 0.000000 0.000000
# 2 -0.003550 0.007552 -0.003574 0.000000 0.000000 0.000000
# 3 0.000911 -0.003574 0.013039 0.000000 0.000000 0.000000
# 4 0.000000 0.000000 0.000000 0.049457 0.000000 0.000000
# 5 0.000000 0.000000 0.000000 0.000000 -0.562311 0.000000
# 6 0.000000 0.000000 0.000000 0.000000 0.000000 0.038949
#
#
# Mechanical properties :
#
#
# Convention : Reuss Voigt Hill
#
# Bulk Modulus (GPa) = 31.83638 48.68867 40.26252
# Shear Modulus (GPa) = -12.27977 24.08363 5.90193
#
# Velocity S-wave (km/s) = -2.44654 3.42624 1.69611
# Velocity P-wave (km/s) = 2.74542 6.27571 4.84365
#
# Compressibility (1/GPa) = 0.03141061
#
# Stress axis : x y z
#
# Youngs Moduli (GPa) = 43.01944 132.42315 76.69101
#
# Poissons Ratio (x) = 0.47013 -0.06988
# Poissons Ratio (y) = 0.15273 0.27407
# Poissons Ratio (z) = -0.03920 0.47325
#
# Static dielectric constant tensor:
#      x y z
#    x 1.764410 0.000000 0.000000 
#    y 0.000000 1.745360 0.000000 
#    z 0.000000 0.000000 1.723110 
# 
# From -- ./inp_files/33327.got.cif
#   From: 2010.05.17/outbox.cif.g08.bks.cpg/sg64_17_cif.got.tgz:33327.got - 2010.06.03 16:29:19.
