data_PCOD9479768
_publ_section_title
;
Structure prediction by ZEFSAII (Michael W. Deem and Ramdas Pophale) SiO2 
 PCOD9479768
Probable space group: C M C A
;
_chemical_formula_sum "Si O2"
_cell_formula_units_Z 96
_cell_length_a 15.558144
_cell_length_b 24.505957
_cell_length_c 11.281867
_cell_angle_alpha 90.000000
_cell_angle_beta 90.000000
_cell_angle_gamma 90.000000
_cell_volume 4301.405931
_symmetry_space_group_name_H-M "C M C A"
_symmetry_group_IT_number 64
_symmetry_cell_setting 'orthorhombic'
loop_
_space_group_symop_operation_xyz
x,y,z
-x,1/2-y,1/2+z
x,-y,-z
-x,1/2+y,1/2-z
-x,-y,-z
x,1/2+y,1/2-z
-x,y,z
x,1/2-y,1/2+z
1/2+x,1/2+y,z
1/2-x,-y,1/2+z
1/2+x,1/2-y,-z
1/2-x,y,1/2-z
1/2-x,1/2-y,-z
1/2+x,y,1/2-z
1/2-x,1/2+y,z
1/2+x,-y,1/2+z
loop_
_atom_site_type_symbol
_atom_site_label
_atom_site_fract_x
_atom_site_fract_y
_atom_site_fract_z
Si Si1 0.600389 0.315682 0.840393
Si Si2 0.394859 0.305885 0.303452
Si Si3 0.100044 0.593615 0.952555
Si Si4 0.654181 0.912627 0.795119
Si Si5 0.104176 0.375387 0.425340
Si Si6 0.851227 0.974237 0.223085
O O1 0.500000 0.306823 0.867333
O O2 0.637225 0.255609 0.818980
O O3 0.607431 0.355713 0.728912
O O4 0.635906 0.349711 0.952006
O O5 0.500000 0.305588 0.300558
O O6 0.370426 0.346515 0.409763
O O7 0.368115 0.334998 0.181336
O O8 0.151017 0.573256 0.066354
O O9 0.000000 0.595400 0.986751
O O10 0.107937 0.556399 0.836083
O O11 0.750000 0.904228 0.750000
O O12 0.615775 0.963775 0.722286
O O13 0.134481 0.435838 0.389884
O O14 0.000000 0.377441 0.426207
O O15 0.750000 0.977423 0.250000
#
# Coordination Sequence:
#
# PCOD9479768 Si02
#       6
#    16  16  16  16  16  16
#     4  10  21  36  59  87 116 154 190 234 292 350
#     4   8  17  35  60  87 114 147 191 240 289 340
#     4  10  21  40  66  90 113 154 207 249 284 344
#     4  11  25  39  55  86 122 154 194 241 295 351
#     4   9  19  36  59  86 114 147 194 238 282 351
#     4  10  22  39  61  83 116 157 191 240 301 349
#
# _framework density 22.318283000000001
#
# number of rings (size 3 to 8) (size 9 to 14) (size 15 to 20)
#    0.000    2.333    0.000    2.500    4.667    4.000 
#    0.000    5.833    0.000    0.000    0.000    0.000 
#    0.000    0.000    0.000    0.000    0.000    0.000 
#
# Total GULP energy -268104.057049 kJ/mol
# GULP energy per Si atom -5585.501189 kJ/mol
# Density = 2.226749 g / cm^3
# Si number density = 22.318283 Si / 1000 Ang^3
#
#
#
# Elastic Constant Matrix: (Units=GPa)
#
#
# Indices 1 2 3 4 5 6 
#
# 1 32.1308 -1.6326 -0.6245 0.0000 0.0000 0.0000
# 2 -1.6326 139.2657 -4.7442 0.0000 0.0000 0.0000
# 3 -0.6245 -4.7442 45.9147 0.0000 0.0000 0.0000
# 4 0.0000 0.0000 0.0000 15.8807 0.0000 0.0000
# 5 0.0000 0.0000 0.0000 0.0000 20.5301 0.0000
# 6 0.0000 0.0000 0.0000 0.0000 0.0000 20.0475
#
#
#
# Elastic Compliance Matrix: (Units=1/GPa)
#
#
# Indices 1 2 3 4 5 6 
#
# 1 0.031151 0.000381 0.000463 0.000000 0.000000 0.000000
# 2 0.000381 0.007211 0.000750 0.000000 0.000000 0.000000
# 3 0.000463 0.000750 0.021863 0.000000 0.000000 0.000000
# 4 0.000000 0.000000 0.000000 0.062970 0.000000 0.000000
# 5 0.000000 0.000000 0.000000 0.000000 0.048709 0.000000
# 6 0.000000 0.000000 0.000000 0.000000 0.000000 0.049882
#
#
# Mechanical properties :
#
#
# Convention : Reuss Voigt Hill
#
# Bulk Modulus (GPa) = 15.76953 22.58985 19.17969
# Shear Modulus (GPa) = 20.85641 26.24583 23.55112
#
# Velocity S-wave (km/s) = 3.06027 3.43298 3.25197
# Velocity P-wave (km/s) = 4.42359 5.08502 4.76579
#
# Compressibility (1/GPa) = 0.06341344
#
# Stress axis : x y z
#
# Youngs Moduli (GPa) = 32.10156 138.68582 45.73872
#
# Poissons Ratio (x) = -0.05283 -0.02118
# Poissons Ratio (y) = -0.01223 -0.03431
# Poissons Ratio (z) = -0.01486 -0.10404
#
# Static dielectric constant tensor:
#      x y z
#    x 1.834210 0.000000 0.000000 
#    y 0.000000 1.846640 0.000000 
#    z 0.000000 0.000000 1.811160 
# 
# From -- ./inp_files/16182.got.cif
#   From: 2010.05.17/outbox.cif.g08.bks.cpg/sg64_9_cif.got.tgz:16182.got - 2010.06.03 16:29:19.
