data_PCOD9479918
_publ_section_title
;
Structure prediction by ZEFSAII (Michael W. Deem and Ramdas Pophale) SiO2 
 PCOD9479918
Probable space group: C M C A
;
_chemical_formula_sum "Si O2"
_cell_formula_units_Z 116
_cell_length_a 24.768547
_cell_length_b 11.032853
_cell_length_c 21.388432
_cell_angle_alpha 90.000000
_cell_angle_beta 90.000000
_cell_angle_gamma 90.000000
_cell_volume 5844.768434
_symmetry_space_group_name_H-M "C M C A"
_symmetry_group_IT_number 64
_symmetry_cell_setting 'orthorhombic'
loop_
_space_group_symop_operation_xyz
x,y,z
-x,1/2-y,1/2+z
x,-y,-z
-x,1/2+y,1/2-z
-x,-y,-z
x,1/2+y,1/2-z
-x,y,z
x,1/2-y,1/2+z
1/2+x,1/2+y,z
1/2-x,-y,1/2+z
1/2+x,1/2-y,-z
1/2-x,y,1/2-z
1/2-x,1/2-y,-z
1/2+x,y,1/2-z
1/2-x,1/2+y,z
1/2+x,-y,1/2+z
loop_
_atom_site_type_symbol
_atom_site_label
_atom_site_fract_x
_atom_site_fract_y
_atom_site_fract_z
Si Si1 0.937536 0.251706 0.206402
Si Si2 0.279106 0.613497 0.315501
Si Si3 0.000000 0.500000 0.500000
Si Si4 0.880129 0.502917 0.247818
Si Si5 0.824114 0.993366 0.880291
Si Si6 0.088724 0.818298 0.935415
Si Si7 0.728668 0.791375 0.415779
Si Si8 0.829604 0.861706 0.483485
O O1 0.909795 0.380140 0.225130
O O2 0.912619 0.129859 0.239106
O O3 0.933520 0.231303 0.131289
O O4 0.000000 0.259168 0.224575
O O5 0.250000 0.630381 0.250000
O O6 0.333321 0.539850 0.301459
O O7 0.234983 0.549333 0.358974
O O8 0.285393 0.743850 0.347006
O O9 0.047143 0.406756 0.529290
O O10 0.854773 0.474658 0.316000
O O11 0.812545 0.100442 0.927867
O O12 0.859093 0.894338 0.914417
O O13 0.114373 0.709620 0.975920
O O14 0.790103 0.834297 0.424473
O O15 0.709664 0.686935 0.462034
O O16 0.839796 0.000000 0.500000
#
# Coordination Sequence:
#
# PCOD9479918 Si02
#       8
#    16  16   4  16  16  16  16  16
#     4  11  23  44  67  97 132 178 232 287 351 410
#     4  10  21  37  61 101 140 178 213 274 336 428
#     4  12  24  48  78  92 116 172 248 298 354 406
#     4  10  23  38  67  99 139 176 222 279 346 427
#     4  10  21  38  62  98 133 172 216 267 339 420
#     4  11  24  44  68  95 125 174 234 300 340 411
#     4  11  22  37  61  93 135 183 219 262 338 424
#     4  11  25  40  61  92 136 179 227 282 346 411
#
# _framework density 19.846809
#
# number of rings (size 3 to 8) (size 9 to 14) (size 15 to 20)
#    0.000    1.379    2.069    2.897    5.793    1.655 
#    0.000    0.345    0.000    0.000    0.000    0.000 
#    0.000    0.000    0.000    0.000    0.000    0.000 
#
# Total GULP energy -322881.741273 kJ/mol
# GULP energy per Si atom -5566.926574 kJ/mol
# Density = 1.980164 g / cm^3
# Si number density = 19.846809 Si / 1000 Ang^3
#
#
#
# Elastic Constant Matrix: (Units=GPa)
#
#
# Indices 1 2 3 4 5 6 
#
# 1 140.4767 88.2122 44.3652 0.0000 0.0000 0.0000
# 2 88.2122 154.6208 58.1641 0.0000 0.0000 0.0000
# 3 44.3652 58.1641 52.7496 0.0000 0.0000 0.0000
# 4 0.0000 0.0000 0.0000 28.1496 0.0000 0.0000
# 5 0.0000 0.0000 0.0000 0.0000 17.5434 0.0000
# 6 0.0000 0.0000 0.0000 0.0000 0.0000 32.4313
#
#
#
# Elastic Compliance Matrix: (Units=1/GPa)
#
#
# Indices 1 2 3 4 5 6 
#
# 1 0.011614 -0.005043 -0.004207 0.000000 0.000000 0.000000
# 2 -0.005043 0.013241 -0.010359 0.000000 0.000000 0.000000
# 3 -0.004207 -0.010359 0.033918 0.000000 0.000000 0.000000
# 4 0.000000 0.000000 0.000000 0.035524 0.000000 0.000000
# 5 0.000000 0.000000 0.000000 0.000000 0.057001 0.000000
# 6 0.000000 0.000000 0.000000 0.000000 0.000000 0.030834
#
#
# Mechanical properties :
#
#
# Convention : Reuss Voigt Hill
#
# Bulk Modulus (GPa) = 51.13779 81.03670 66.08724
# Shear Modulus (GPa) = 21.94219 26.09857 24.02038
#
# Velocity S-wave (km/s) = 3.32863 3.63023 3.48270
# Velocity P-wave (km/s) = 6.37144 7.64795 7.03869
#
# Compressibility (1/GPa) = 0.01955501
#
# Stress axis : x y z
#
# Youngs Moduli (GPa) = 86.10045 75.52030 29.48279
#
# Poissons Ratio (x) = 0.38088 0.12404
# Poissons Ratio (y) = 0.43424 0.30541
# Poissons Ratio (z) = 0.36224 0.78230
#
# Static dielectric constant tensor:
#      x y z
#    x 1.697240 0.000000 0.000000 
#    y 0.000000 1.801970 0.000000 
#    z 0.000000 0.000000 1.771340 
# 
# From -- ./inp_files/46958.got.cif
#   From: 2010.05.17/outbox.cif.g08.bks.cpg/sg64_24_cif.got.tgz:46958.got - 2010.06.03 16:29:19.
