data_PCOD9479539
_publ_section_title
;
Structure prediction by ZEFSAII (Michael W. Deem and Ramdas Pophale) SiO2 
 PCOD9479539
Probable space group: C M C A
;
_chemical_formula_sum "Si O2"
_cell_formula_units_Z 80
_cell_length_a 16.483745
_cell_length_b 28.961975
_cell_length_c 7.855323
_cell_angle_alpha 90.000000
_cell_angle_beta 90.000000
_cell_angle_gamma 90.000000
_cell_volume 3750.145423
_symmetry_space_group_name_H-M "C M C A"
_symmetry_group_IT_number 64
_symmetry_cell_setting 'orthorhombic'
loop_
_space_group_symop_operation_xyz
x,y,z
-x,1/2-y,1/2+z
x,-y,-z
-x,1/2+y,1/2-z
-x,-y,-z
x,1/2+y,1/2-z
-x,y,z
x,1/2-y,1/2+z
1/2+x,1/2+y,z
1/2-x,-y,1/2+z
1/2+x,1/2-y,-z
1/2-x,y,1/2-z
1/2-x,1/2-y,-z
1/2+x,y,1/2-z
1/2-x,1/2+y,z
1/2+x,-y,1/2+z
loop_
_atom_site_type_symbol
_atom_site_label
_atom_site_fract_x
_atom_site_fract_y
_atom_site_fract_z
Si Si1 0.175768 0.545142 0.614103
Si Si2 0.000000 0.190915 0.020160
Si Si3 0.500000 0.297575 0.570586
Si Si4 0.166155 0.855633 0.957167
Si Si5 0.092348 0.450245 0.061173
Si Si6 0.842410 0.851682 0.548954
O O1 0.179436 0.500000 0.500000
O O2 0.250000 0.546435 0.750000
O O3 0.172221 0.590432 0.499597
O O4 0.097845 0.546903 0.736003
O O5 0.000000 0.192342 0.226874
O O6 0.083844 0.165850 0.967715
O O7 0.000000 0.243168 0.956549
O O8 0.418871 0.320841 0.494758
O O9 0.161721 0.849660 0.753875
O O10 0.253822 0.836412 0.017237
O O11 0.000000 0.445869 0.999433
O O12 0.124730 0.500000 0.000000
O O13 0.139354 0.404759 0.000765
#
# Coordination Sequence:
#
# PCOD9479539 Si02
#       6
#    16   8   8  16  16  16
#     4  12  25  39  61  93 131 171 218 262 316 379
#     4  10  24  44  63  96 123 168 207 274 326 386
#     4  10  22  42  67  94 129 158 215 268 332 382
#     4  10  23  40  65  90 130 164 219 258 323 375
#     4  11  23  39  60  91 130 171 217 257 319 387
#     4  10  20  41  67  92 122 176 210 266 318 383
#
# _framework density 21.332507
#
# number of rings (size 3 to 8) (size 9 to 14) (size 15 to 20)
#    0.000    1.400    3.000    1.800    4.200    2.800 
#    0.000    0.000    0.000    0.000    0.000    0.000 
#    0.000    0.000    0.000    0.000    0.000    0.000 
#
# Total GULP energy -223366.700576 kJ/mol
# GULP energy per Si atom -5584.167514 kJ/mol
# Density = 2.128395 g / cm^3
# Si number density = 21.332507 Si / 1000 Ang^3
#
#
#
# Elastic Constant Matrix: (Units=GPa)
#
#
# Indices 1 2 3 4 5 6 
#
# 1 203.0136 94.5146 16.7258 0.0000 0.0000 0.0000
# 2 94.5146 129.0554 -4.8300 0.0000 0.0000 0.0000
# 3 16.7258 -4.8300 14.2185 0.0000 0.0000 0.0000
# 4 0.0000 0.0000 0.0000 34.2283 0.0000 0.0000
# 5 0.0000 0.0000 0.0000 0.0000 24.9697 0.0000
# 6 0.0000 0.0000 0.0000 0.0000 0.0000 24.6318
#
#
#
# Elastic Compliance Matrix: (Units=1/GPa)
#
#
# Indices 1 2 3 4 5 6 
#
# 1 0.009565 -0.007522 -0.013807 0.000000 0.000000 0.000000
# 2 -0.007522 0.013763 0.013524 0.000000 0.000000 0.000000
# 3 -0.013807 0.013524 0.091167 0.000000 0.000000 0.000000
# 4 0.000000 0.000000 0.000000 0.029216 0.000000 0.000000
# 5 0.000000 0.000000 0.000000 0.000000 0.040049 0.000000
# 6 0.000000 0.000000 0.000000 0.000000 0.000000 0.040598
#
#
# Mechanical properties :
#
#
# Convention : Reuss Voigt Hill
#
# Bulk Modulus (GPa) = 10.11271 62.12313 36.11792
# Shear Modulus (GPa) = 18.31969 32.75775 25.53872
#
# Velocity S-wave (km/s) = 2.93365 3.92290 3.46377
# Velocity P-wave (km/s) = 4.02814 7.05006 5.74149
#
# Compressibility (1/GPa) = 0.09888544
#
# Stress axis : x y z
#
# Youngs Moduli (GPa) = 104.54565 72.65610 10.96885
#
# Poissons Ratio (x) = 0.54651 0.15145
# Poissons Ratio (y) = 0.78638 -0.14834
# Poissons Ratio (z) = 1.44348 -0.98259
#
# Static dielectric constant tensor:
#      x y z
#    x 1.880670 0.000000 0.000000 
#    y 0.000000 1.724540 0.000000 
#    z 0.000000 0.000000 1.762200 
# 
# From -- ./inp_files/7166.got.cif
#   From: 2010.05.17/outbox.cif.g08.bks.cpg/sg64_4_cif.got.tgz:7166.got - 2010.06.03 16:29:19.
