data_PCOD9479796
_publ_section_title
;
Structure prediction by ZEFSAII (Michael W. Deem and Ramdas Pophale) SiO2 
 PCOD9479796
Probable space group: C M C A
;
_chemical_formula_sum "Si O2"
_cell_formula_units_Z 48
_cell_length_a 12.651281
_cell_length_b 12.018920
_cell_length_c 11.931825
_cell_angle_alpha 90.000000
_cell_angle_beta 90.000000
_cell_angle_gamma 90.000000
_cell_volume 1814.290479
_symmetry_space_group_name_H-M "C M C A"
_symmetry_group_IT_number 64
_symmetry_cell_setting 'orthorhombic'
loop_
_space_group_symop_operation_xyz
x,y,z
-x,1/2-y,1/2+z
x,-y,-z
-x,1/2+y,1/2-z
-x,-y,-z
x,1/2+y,1/2-z
-x,y,z
x,1/2-y,1/2+z
1/2+x,1/2+y,z
1/2-x,-y,1/2+z
1/2+x,1/2-y,-z
1/2-x,y,1/2-z
1/2-x,1/2-y,-z
1/2+x,y,1/2-z
1/2-x,1/2+y,z
1/2+x,-y,1/2+z
loop_
_atom_site_type_symbol
_atom_site_label
_atom_site_fract_x
_atom_site_fract_y
_atom_site_fract_z
Si Si1 0.619422 0.206606 0.118050
Si Si2 0.385271 0.980400 0.699843
Si Si3 0.294388 0.897921 0.099663
O O1 0.500000 0.253633 0.108579
O O2 0.714557 0.294105 0.113813
O O3 0.622840 0.134049 0.231230
O O4 0.637379 0.126995 0.009897
O O5 0.500000 0.984945 0.646896
O O6 0.371043 0.075512 0.795696
O O7 0.289781 0.000430 0.615645
#
# Coordination Sequence:
#
# PCOD9479796 Si02
#       3
#    16  16  16
#     4  10  21  40  65  91 124 167 209 256 315 372
#     4  10  21  38  62  90 122 161 206 257 313 370
#     4  10  21  36  63  94 123 159 210 257 305 371
#
# _framework density 26.456624999999999
#
# number of rings (size 3 to 8) (size 9 to 14) (size 15 to 20)
#    0.000    2.000    0.000    3.000    0.000    8.000 
#    0.000    0.000    0.000  104.000    0.000    0.000 
#    0.000    0.000    0.000    0.000    0.000    0.000 
#
# Total GULP energy -134298.039623 kJ/mol
# GULP energy per Si atom -5595.751651 kJ/mol
# Density = 2.639641 g / cm^3
# Si number density = 26.456625 Si / 1000 Ang^3
#
#
#
# Elastic Constant Matrix: (Units=GPa)
#
#
# Indices 1 2 3 4 5 6 
#
# 1 155.3356 17.3871 12.1013 0.0000 0.0000 0.0000
# 2 17.3871 71.3013 0.6926 0.0000 0.0000 0.0000
# 3 12.1013 0.6926 89.0021 0.0000 0.0000 0.0000
# 4 0.0000 0.0000 0.0000 35.1192 0.0000 0.0000
# 5 0.0000 0.0000 0.0000 0.0000 30.3500 0.0000
# 6 0.0000 0.0000 0.0000 0.0000 0.0000 29.2536
#
#
#
# Elastic Compliance Matrix: (Units=1/GPa)
#
#
# Indices 1 2 3 4 5 6 
#
# 1 0.006689 -0.001622 -0.000897 0.000000 0.000000 0.000000
# 2 -0.001622 0.014420 0.000108 0.000000 0.000000 0.000000
# 3 -0.000897 0.000108 0.011357 0.000000 0.000000 0.000000
# 4 0.000000 0.000000 0.000000 0.028474 0.000000 0.000000
# 5 0.000000 0.000000 0.000000 0.000000 0.032949 0.000000
# 6 0.000000 0.000000 0.000000 0.000000 0.000000 0.034184
#
#
# Mechanical properties :
#
#
# Convention : Reuss Voigt Hill
#
# Bulk Modulus (GPa) = 36.17472 41.77789 38.97630
# Shear Modulus (GPa) = 35.18421 37.97509 36.57965
#
# Velocity S-wave (km/s) = 3.65071 3.79274 3.72240
# Velocity P-wave (km/s) = 5.61009 5.91652 5.76534
#
# Compressibility (1/GPa) = 0.02764362
#
# Stress axis : x y z
#
# Youngs Moduli (GPa) = 149.49579 69.35020 88.05302
#
# Poissons Ratio (x) = 0.11252 0.07897
# Poissons Ratio (y) = 0.24255 -0.00954
# Poissons Ratio (z) = 0.13408 -0.00752
#
# Static dielectric constant tensor:
#      x y z
#    x 1.975840 0.000000 0.000000 
#    y 0.000000 2.232880 0.000000 
#    z 0.000000 0.000000 2.070080 
# 
# From -- ./inp_files/22958.got.cif
#   From: 2010.05.17/outbox.cif.g08.bks.cpg/sg64_12_cif.got.tgz:22958.got - 2010.06.03 16:29:19.
