data_PCOD9479024
_publ_section_title
;
Structure prediction by ZEFSAII (Michael W. Deem and Ramdas Pophale) SiO2 
 PCOD9479024
Probable space group: C M C A
;
_chemical_formula_sum "Si O2"
_cell_formula_units_Z 80
_cell_length_a 16.040714
_cell_length_b 15.412878
_cell_length_c 13.117383
_cell_angle_alpha 90.000000
_cell_angle_beta 90.000000
_cell_angle_gamma 90.000000
_cell_volume 3243.057401
_symmetry_space_group_name_H-M "C M C A"
_symmetry_group_IT_number 64
_symmetry_cell_setting 'orthorhombic'
loop_
_space_group_symop_operation_xyz
x,y,z
-x,1/2-y,1/2+z
x,-y,-z
-x,1/2+y,1/2-z
-x,-y,-z
x,1/2+y,1/2-z
-x,y,z
x,1/2-y,1/2+z
1/2+x,1/2+y,z
1/2-x,-y,1/2+z
1/2+x,1/2-y,-z
1/2-x,y,1/2-z
1/2-x,1/2-y,-z
1/2+x,y,1/2-z
1/2-x,1/2+y,z
1/2+x,-y,1/2+z
loop_
_atom_site_type_symbol
_atom_site_label
_atom_site_fract_x
_atom_site_fract_y
_atom_site_fract_z
Si Si1 0.099682 0.214649 0.307703
Si Si2 0.153412 0.593932 0.777133
Si Si3 0.183363 0.147878 0.511719
Si Si4 0.173280 0.823654 0.892038
Si Si5 0.000000 0.028220 0.833007
Si Si6 0.500000 0.638422 0.024982
O O1 0.126573 0.312484 0.273243
O O2 0.125667 0.180204 0.418832
O O3 0.153717 0.160583 0.224886
O O4 0.000000 0.205504 0.292961
O O5 0.250000 0.576761 0.750000
O O6 0.143687 0.590328 0.900105
O O7 0.084376 0.530736 0.730555
O O8 0.212271 0.228690 0.585738
O O9 0.266470 0.113565 0.454952
O O10 0.083766 0.814654 0.944613
O O11 0.000000 0.946817 0.906341
O O12 0.000000 0.110956 0.908619
#
# Coordination Sequence:
#
# PCOD9479024 Si02
#       6
#    16  16  16  16   8   8
#     4  11  20  32  57  92 125 157 196 250 327 397
#     4  11  22  39  58  88 123 159 205 264 312 374
#     4  10  21  33  60  90 124 159 193 251 326 378
#     4  10  20  37  56  88 122 159 200 249 308 390
#     4  11  24  39  61  87 113 159 219 256 300 363
#     4  11  22  39  63  83 117 161 207 254 300 361
#
# _framework density 24.66808
#
# number of rings (size 3 to 8) (size 9 to 14) (size 15 to 20)
#    0.000    1.400    2.000    6.600    2.800    0.000 
#    0.000    2.000    0.000    4.800    0.000    0.000 
#    0.000    0.000    0.000    0.000    0.000    0.000 
#
# Total GULP energy -223398.629566 kJ/mol
# GULP energy per Si atom -5584.965739 kJ/mol
# Density = 2.461193 g / cm^3
# Si number density = 24.668080 Si / 1000 Ang^3
#
#
#
# Elastic Constant Matrix: (Units=GPa)
#
#
# Indices 1 2 3 4 5 6 
#
# 1 186.1478 16.0668 85.2573 0.0000 0.0000 0.0000
# 2 16.0668 21.9326 28.2445 0.0000 0.0000 0.0000
# 3 85.2573 28.2445 235.9967 0.0000 0.0000 0.0000
# 4 0.0000 0.0000 0.0000 23.0201 0.0000 0.0000
# 5 0.0000 0.0000 0.0000 0.0000 41.9002 0.0000
# 6 0.0000 0.0000 0.0000 0.0000 0.0000 -26.1306
#
#
#
# Elastic Compliance Matrix: (Units=1/GPa)
#
#
# Indices 1 2 3 4 5 6 
#
# 1 0.006515 -0.002059 -0.002107 0.000000 0.000000 0.000000
# 2 -0.002059 0.054553 -0.005785 0.000000 0.000000 0.000000
# 3 -0.002107 -0.005785 0.005691 0.000000 0.000000 0.000000
# 4 0.000000 0.000000 0.000000 0.043440 0.000000 0.000000
# 5 0.000000 0.000000 0.000000 0.000000 0.023866 0.000000
# 6 0.000000 0.000000 0.000000 0.000000 0.000000 -0.038269
#
#
# Mechanical properties :
#
#
# Convention : Reuss Voigt Hill
#
# Bulk Modulus (GPa) = 21.34201 78.13494 49.73848
# Shear Modulus (GPa) = 38.07590 28.72518 33.40054
#
# Velocity S-wave (km/s) = 3.93304 3.41613 3.68366
# Velocity P-wave (km/s) = 5.41253 6.87773 6.18865
#
# Compressibility (1/GPa) = 0.04685593
#
# Stress axis : x y z
#
# Youngs Moduli (GPa) = 153.49443 18.33097 175.71672
#
# Poissons Ratio (x) = 0.03774 0.37027
# Poissons Ratio (y) = 0.31603 1.01655
# Poissons Ratio (z) = 0.32344 0.10605
#
# Static dielectric constant tensor:
#      x y z
#    x 1.959170 0.000000 0.000000 
#    y 0.000000 2.072200 0.000000 
#    z 0.000000 0.000000 1.994510 
# 
# From -- ./inp_files/15956.got.cif
#   From: 2010.05.17/outbox.cif.g08.bks.cpg/sg64_8_cif.got.tgz:15956.got - 2010.06.03 16:29:19.
