data_PCOD9479312
_publ_section_title
;
Structure prediction by ZEFSAII (Michael W. Deem and Ramdas Pophale) SiO2 
 PCOD9479312
Probable space group: C M C A
;
_chemical_formula_sum "Si O2"
_cell_formula_units_Z 88
_cell_length_a 25.959231
_cell_length_b 16.531756
_cell_length_c 9.486833
_cell_angle_alpha 90.000000
_cell_angle_beta 90.000000
_cell_angle_gamma 90.000000
_cell_volume 4071.290252
_symmetry_space_group_name_H-M "C M C A"
_symmetry_group_IT_number 64
_symmetry_cell_setting 'orthorhombic'
loop_
_space_group_symop_operation_xyz
x,y,z
-x,1/2-y,1/2+z
x,-y,-z
-x,1/2+y,1/2-z
-x,-y,-z
x,1/2+y,1/2-z
-x,y,z
x,1/2-y,1/2+z
1/2+x,1/2+y,z
1/2-x,-y,1/2+z
1/2+x,1/2-y,-z
1/2-x,y,1/2-z
1/2-x,1/2-y,-z
1/2+x,y,1/2-z
1/2-x,1/2+y,z
1/2+x,-y,1/2+z
loop_
_atom_site_type_symbol
_atom_site_label
_atom_site_fract_x
_atom_site_fract_y
_atom_site_fract_z
Si Si1 0.685597 0.857214 0.500416
Si Si2 0.587260 0.952982 0.627854
Si Si3 0.166683 0.555751 0.785126
Si Si4 0.250000 0.423237 0.750000
Si Si5 0.558251 0.292781 0.724679
Si Si6 0.873767 0.800945 0.450508
O O1 0.636843 0.908769 0.557905
O O2 0.692118 0.892675 0.344054
O O3 0.668404 0.764755 0.502106
O O4 0.728926 0.873247 0.617120
O O5 0.557596 0.880111 0.699821
O O6 0.560572 0.000000 0.500000
O O7 0.612307 0.017231 0.734612
O O8 0.204982 0.481557 0.807626
O O9 0.153895 0.616211 0.910414
O O10 0.500000 0.261158 0.713440
O O11 0.595466 0.234135 0.814875
O O12 0.584768 0.306084 0.574476
#
# Coordination Sequence:
#
# PCOD9479312 Si02
#       6
#    16  16  16   8  16  16
#     4   9  19  40  61  89 130 168 213 259 326 398
#     4   8  18  38  64  88 129 174 208 265 333 389
#     4  10  20  41  62  91 129 170 217 261 330 390
#     4  10  20  38  64  94 118 168 220 272 308 398
#     4  11  23  41  66  97 128 171 230 273 323 391
#     4  11  22  42  65  93 133 179 208 275 338 379
#
# _framework density 21.614768999999999
#
# number of rings (size 3 to 8) (size 9 to 14) (size 15 to 20)
#    0.000    2.182    1.818    2.182    0.000    1.818 
#   19.636    4.545    0.000    0.000    0.000    0.000 
#    0.000    0.000    0.000    0.000    0.000    0.000 
#
# Total GULP energy -245936.800631 kJ/mol
# GULP energy per Si atom -5589.472742 kJ/mol
# Density = 2.156557 g / cm^3
# Si number density = 21.614769 Si / 1000 Ang^3
#
#
#
# Elastic Constant Matrix: (Units=GPa)
#
#
# Indices 1 2 3 4 5 6 
#
# 1 78.6366 12.0286 27.9790 0.0000 0.0000 0.0000
# 2 12.0286 63.7890 -3.9203 0.0000 0.0000 0.0000
# 3 27.9790 -3.9203 67.6242 0.0000 0.0000 0.0000
# 4 0.0000 0.0000 0.0000 26.3193 0.0000 0.0000
# 5 0.0000 0.0000 0.0000 0.0000 141.1797 0.0000
# 6 0.0000 0.0000 0.0000 0.0000 0.0000 13.1830
#
#
#
# Elastic Compliance Matrix: (Units=1/GPa)
#
#
# Indices 1 2 3 4 5 6 
#
# 1 0.015594 -0.003349 -0.006646 0.000000 0.000000 0.000000
# 2 -0.003349 0.016452 0.002339 0.000000 0.000000 0.000000
# 3 -0.006646 0.002339 0.017673 0.000000 0.000000 0.000000
# 4 0.000000 0.000000 0.000000 0.037995 0.000000 0.000000
# 5 0.000000 0.000000 0.000000 0.000000 0.007083 0.000000
# 6 0.000000 0.000000 0.000000 0.000000 0.000000 0.075855
#
#
# Mechanical properties :
#
#
# Convention : Reuss Voigt Hill
#
# Bulk Modulus (GPa) = 29.06336 31.35824 30.21080
# Shear Modulus (GPa) = 25.32517 47.73391 36.52954
#
# Velocity S-wave (km/s) = 3.42667 4.70445 4.11545
# Velocity P-wave (km/s) = 5.39734 6.63690 6.04896
#
# Compressibility (1/GPa) = 0.03440759
#
# Stress axis : x y z
#
# Youngs Moduli (GPa) = 64.12894 60.78307 56.58380
#
# Poissons Ratio (x) = 0.20356 0.37605
# Poissons Ratio (y) = 0.21476 -0.13237
# Poissons Ratio (z) = 0.42619 -0.14219
#
# Static dielectric constant tensor:
#      x y z
#    x 1.780900 0.000000 0.000000 
#    y 0.000000 1.783010 0.000000 
#    z 0.000000 0.000000 1.800510 
# 
# From -- ./inp_files/11063.got.cif
#   From: 2010.05.17/outbox.cif.g08.bks.cpg/sg64_6_cif.got.tgz:11063.got - 2010.06.03 16:29:19.
