data_PCOD9479672
_publ_section_title
;
Structure prediction by ZEFSAII (Michael W. Deem and Ramdas Pophale) SiO2 
 PCOD9479672
Probable space group: C M C A
;
_chemical_formula_sum "Si O2"
_cell_formula_units_Z 64
_cell_length_a 25.561388
_cell_length_b 11.566979
_cell_length_c 8.862247
_cell_angle_alpha 90.000000
_cell_angle_beta 90.000000
_cell_angle_gamma 90.000000
_cell_volume 2620.283185
_symmetry_space_group_name_H-M "C M C A"
_symmetry_group_IT_number 64
_symmetry_cell_setting 'orthorhombic'
loop_
_space_group_symop_operation_xyz
x,y,z
-x,1/2-y,1/2+z
x,-y,-z
-x,1/2+y,1/2-z
-x,-y,-z
x,1/2+y,1/2-z
-x,y,z
x,1/2-y,1/2+z
1/2+x,1/2+y,z
1/2-x,-y,1/2+z
1/2+x,1/2-y,-z
1/2-x,y,1/2-z
1/2-x,1/2-y,-z
1/2+x,y,1/2-z
1/2-x,1/2+y,z
1/2+x,-y,1/2+z
loop_
_atom_site_type_symbol
_atom_site_label
_atom_site_fract_x
_atom_site_fract_y
_atom_site_fract_z
Si Si1 0.643588 0.815504 0.130384
Si Si2 0.556595 0.983253 0.176350
Si Si3 0.058834 0.132121 0.063885
Si Si4 0.785401 0.683207 0.126035
O O1 0.604241 0.901061 0.213823
O O2 0.606987 0.718440 0.049508
O O3 0.682534 0.764757 0.257364
O O4 0.673852 0.873219 0.989274
O O5 0.500000 0.931443 0.217967
O O6 0.559751 0.105332 0.257359
O O7 0.557421 0.000000 0.000000
O O8 0.000000 0.174531 0.025522
O O9 0.064400 0.000000 0.000000
O O10 0.750000 0.614501 0.250000
O O11 0.750000 0.750000 0.000000
#
# Coordination Sequence:
#
# PCOD9479672 Si02
#       4
#    16  16  16  16
#     4  11  19  36  63  78 107 154 181 215 282 332
#     4  10  21  35  54  86 119 143 178 221 262 327
#     4  10  21  35  54  86 119 143 178 221 262 327
#     4   9  20  36  58  82 104 140 188 237 278 312
#
# _framework density 24.42484
#
# number of rings (size 3 to 8) (size 9 to 14) (size 15 to 20)
#    0.000    2.000    0.000    3.750    0.000    0.000 
#    0.000   10.000    0.000  105.000    0.000    0.000 
#    0.000    0.000    0.000    0.000    0.000    0.000 
#
# Total GULP energy -178380.822682 kJ/mol
# GULP energy per Si atom -5574.400709 kJ/mol
# Density = 2.436925 g / cm^3
# Si number density = 24.424840 Si / 1000 Ang^3
#
#
#
# Elastic Constant Matrix: (Units=GPa)
#
#
# Indices 1 2 3 4 5 6 
#
# 1 134.7407 43.4793 47.7098 0.0000 0.0000 0.0000
# 2 43.4793 52.5500 17.6001 0.0000 0.0000 0.0000
# 3 47.7098 17.6001 138.7719 0.0000 0.0000 0.0000
# 4 0.0000 0.0000 0.0000 21.2001 0.0000 0.0000
# 5 0.0000 0.0000 0.0000 0.0000 25.8422 0.0000
# 6 0.0000 0.0000 0.0000 0.0000 0.0000 -67.1319
#
#
#
# Elastic Compliance Matrix: (Units=1/GPa)
#
#
# Indices 1 2 3 4 5 6 
#
# 1 0.011050 -0.008219 -0.002757 0.000000 0.000000 0.000000
# 2 -0.008219 0.025988 -0.000470 0.000000 0.000000 0.000000
# 3 -0.002757 -0.000470 0.008213 0.000000 0.000000 0.000000
# 4 0.000000 0.000000 0.000000 0.047170 0.000000 0.000000
# 5 0.000000 0.000000 0.000000 0.000000 0.038696 0.000000
# 6 0.000000 0.000000 0.000000 0.000000 0.000000 -0.014896
#
#
# Mechanical properties :
#
#
# Convention : Reuss Voigt Hill
#
# Bulk Modulus (GPa) = 44.72500 60.40455 52.56478
# Shear Modulus (GPa) = 34.11427 10.46698 22.29062
#
# Velocity S-wave (km/s) = 3.74130 2.07236 3.02424
# Velocity P-wave (km/s) = 6.08393 5.52365 5.81055
#
# Compressibility (1/GPa) = 0.02235886
#
# Stress axis : x y z
#
# Youngs Moduli (GPa) = 90.49728 38.47978 121.75239
#
# Poissons Ratio (x) = 0.31628 0.33562
# Poissons Ratio (y) = 0.74384 0.05724
# Poissons Ratio (z) = 0.24946 0.01809
#
# Static dielectric constant tensor:
#      x y z
#    x 2.066500 0.000000 0.000000 
#    y 0.000000 1.962060 0.000000 
#    z 0.000000 0.000000 2.036930 
# 
# From -- ./inp_files/8933.got.cif
#   From: 2010.05.17/outbox.cif.g08.bks.cpg/sg64_5_cif.got.tgz:8933.got - 2010.06.03 16:29:19.
