data_PCOD9479399
_publ_section_title
;
Structure prediction by ZEFSAII (Michael W. Deem and Ramdas Pophale) SiO2 
 PCOD9479399
Probable space group: C M C A
;
_chemical_formula_sum "Si O2"
_cell_formula_units_Z 72
_cell_length_a 11.332360
_cell_length_b 13.953702
_cell_length_c 20.349066
_cell_angle_alpha 90.000000
_cell_angle_beta 90.000000
_cell_angle_gamma 90.000000
_cell_volume 3217.764727
_symmetry_space_group_name_H-M "C M C A"
_symmetry_group_IT_number 64
_symmetry_cell_setting 'orthorhombic'
loop_
_space_group_symop_operation_xyz
x,y,z
-x,1/2-y,1/2+z
x,-y,-z
-x,1/2+y,1/2-z
-x,-y,-z
x,1/2+y,1/2-z
-x,y,z
x,1/2-y,1/2+z
1/2+x,1/2+y,z
1/2-x,-y,1/2+z
1/2+x,1/2-y,-z
1/2-x,y,1/2-z
1/2-x,1/2-y,-z
1/2+x,y,1/2-z
1/2-x,1/2+y,z
1/2+x,-y,1/2+z
loop_
_atom_site_type_symbol
_atom_site_label
_atom_site_fract_x
_atom_site_fract_y
_atom_site_fract_z
Si Si1 0.000000 0.839809 0.865163
Si Si2 0.000000 0.470708 0.309571
Si Si3 0.134446 0.733358 0.084700
Si Si4 0.500000 0.884809 0.164129
Si Si5 0.811004 0.107392 0.025541
Si Si6 0.759153 0.877985 0.171074
O O1 0.000000 0.730270 0.843395
O O2 0.891933 0.867075 0.912518
O O3 0.000000 0.914888 0.805606
O O4 0.121492 0.437384 0.344274
O O5 0.000000 0.420686 0.239028
O O6 0.181489 0.638373 0.049581
O O7 0.212554 0.771655 0.145053
O O8 0.000000 0.724658 0.105075
O O9 0.150473 0.818139 0.031103
O O10 0.633473 0.912736 0.140727
O O11 0.822069 0.000000 0.000000
O O12 0.750000 0.878978 0.250000
#
# Coordination Sequence:
#
# PCOD9479399 Si02
#       6
#     8   8  16   8  16  16
#     4  12  21  42  70  98 130 180 231 272 342 431
#     4  10  22  39  71  94 128 179 233 278 332 414
#     4  11  22  40  67  97 136 177 225 289 345 399
#     4  10  22  41  65  96 135 175 223 286 338 394
#     4  11  24  39  65 102 132 177 225 279 342 416
#     4  10  20  39  64  93 129 176 221 277 336 398
#
# _framework density 22.375779999999999
#
# number of rings (size 3 to 8) (size 9 to 14) (size 15 to 20)
#    0.000    1.333    4.444    1.667    0.000    0.444 
#    0.000   10.000    7.333    0.000    0.000    0.000 
#    0.000    0.000    0.000    0.000    0.000    0.000 
#
# Total GULP energy -200861.822964 kJ/mol
# GULP energy per Si atom -5579.495082 kJ/mol
# Density = 2.232485 g / cm^3
# Si number density = 22.375780 Si / 1000 Ang^3
#
#
#
# Elastic Constant Matrix: (Units=GPa)
#
#
# Indices 1 2 3 4 5 6 
#
# 1 174.3277 4.0440 3.6712 0.0000 0.0000 0.0000
# 2 4.0440 98.7369 23.9676 0.0000 0.0000 0.0000
# 3 3.6712 23.9676 51.9359 0.0000 0.0000 0.0000
# 4 0.0000 0.0000 0.0000 23.6679 0.0000 0.0000
# 5 0.0000 0.0000 0.0000 0.0000 16.4581 0.0000
# 6 0.0000 0.0000 0.0000 0.0000 0.0000 -42.9308
#
#
#
# Elastic Compliance Matrix: (Units=1/GPa)
#
#
# Indices 1 2 3 4 5 6 
#
# 1 0.005747 -0.000154 -0.000335 0.000000 0.000000 0.000000
# 2 -0.000154 0.011410 -0.005255 0.000000 0.000000 0.000000
# 3 -0.000335 -0.005255 0.021703 0.000000 0.000000 0.000000
# 4 0.000000 0.000000 0.000000 0.042251 0.000000 0.000000
# 5 0.000000 0.000000 0.000000 0.000000 0.060760 0.000000
# 6 0.000000 0.000000 0.000000 0.000000 0.000000 -0.023293
#
#
# Mechanical properties :
#
#
# Convention : Reuss Voigt Hill
#
# Bulk Modulus (GPa) = 36.53322 43.15179 39.84250
# Shear Modulus (GPa) = 35.92219 18.99356 27.45787
#
# Velocity S-wave (km/s) = 4.01110 2.91665 3.50683
# Velocity P-wave (km/s) = 6.14934 5.53800 5.85166
#
# Compressibility (1/GPa) = 0.02737235
#
# Stress axis : x y z
#
# Youngs Moduli (GPa) = 174.00524 87.64448 46.07642
#
# Poissons Ratio (x) = 0.01350 0.01544
# Poissons Ratio (y) = 0.02680 0.24211
# Poissons Ratio (z) = 0.05832 0.46053
#
# Static dielectric constant tensor:
#      x y z
#    x 1.940430 0.000000 0.000000 
#    y 0.000000 1.798830 0.000000 
#    z 0.000000 0.000000 1.815420 
# 
# From -- ./inp_files/43875.got.cif
#   From: 2010.05.17/outbox.cif.g08.bks.cpg/sg64_22_cif.got.tgz:43875.got - 2010.06.03 16:29:19.
