data_PCOD9479197
_publ_section_title
;
Structure prediction by ZEFSAII (Michael W. Deem and Ramdas Pophale) SiO2 
 PCOD9479197
Probable space group: C M C A
;
_chemical_formula_sum "Si O2"
_cell_formula_units_Z 112
_cell_length_a 21.870926
_cell_length_b 10.451167
_cell_length_c 23.824078
_cell_angle_alpha 90.000000
_cell_angle_beta 90.000000
_cell_angle_gamma 90.000000
_cell_volume 5445.629131
_symmetry_space_group_name_H-M "C M C A"
_symmetry_group_IT_number 64
_symmetry_cell_setting 'orthorhombic'
loop_
_space_group_symop_operation_xyz
x,y,z
-x,1/2-y,1/2+z
x,-y,-z
-x,1/2+y,1/2-z
-x,-y,-z
x,1/2+y,1/2-z
-x,y,z
x,1/2-y,1/2+z
1/2+x,1/2+y,z
1/2-x,-y,1/2+z
1/2+x,1/2-y,-z
1/2-x,y,1/2-z
1/2-x,1/2-y,-z
1/2+x,y,1/2-z
1/2-x,1/2+y,z
1/2+x,-y,1/2+z
loop_
_atom_site_type_symbol
_atom_site_label
_atom_site_fract_x
_atom_site_fract_y
_atom_site_fract_z
Si Si1 0.195041 0.335426 0.386174
Si Si2 0.068657 0.405298 0.719222
Si Si3 0.833973 0.916150 0.950929
Si Si4 0.069533 0.254550 0.606491
Si Si5 0.858641 0.162311 0.763866
Si Si6 0.193271 0.100509 0.451819
Si Si7 0.323401 0.405313 0.354859
O O1 0.177618 0.481493 0.400941
O O2 0.172346 0.313211 0.323427
O O3 0.169846 0.241680 0.434934
O O4 0.268929 0.319964 0.381815
O O5 0.066641 0.364519 0.653959
O O6 0.092759 0.547938 0.727635
O O7 0.111799 0.297076 0.745953
O O8 0.000000 0.393150 0.742046
O O9 0.881446 0.805412 0.937904
O O10 0.764594 0.880775 0.967630
O O11 0.862061 0.000000 0.000000
O O12 0.106820 0.137763 0.634003
O O13 0.000000 0.225943 0.588987
O O14 0.817229 0.108874 0.712192
O O15 0.169390 0.000000 0.500000
O O16 0.186331 0.032859 0.390813
#
# Coordination Sequence:
#
# PCOD9479197 Si02
#       7
#    16  16  16  16  16  16  16
#     4  11  21  37  58  89 122 150 194 251 307 359
#     4  10  21  37  57  82 118 160 204 243 289 362
#     4  10  21  35  59  86 114 149 200 248 299 350
#     4  10  20  38  58  81 114 154 200 243 290 352
#     4  11  21  36  59  88 120 158 198 247 307 356
#     4  10  22  37  61  88 120 160 197 246 303 369
#     4  10  22  36  57  87 120 158 194 241 305 360
#
# _framework density 20.566953000000002
#
# number of rings (size 3 to 8) (size 9 to 14) (size 15 to 20)
#    0.000    1.714    2.857    1.714    2.000    2.571 
#    0.000    2.857    0.000    1.286    0.000    0.000 
#    0.000    0.000    0.000    0.000    0.000    0.000 
#
# Total GULP energy -311773.011046 kJ/mol
# GULP energy per Si atom -5567.375197 kJ/mol
# Density = 2.052014 g / cm^3
# Si number density = 20.566953 Si / 1000 Ang^3
#
#
#
# Elastic Constant Matrix: (Units=GPa)
#
#
# Indices 1 2 3 4 5 6 
#
# 1 82.5814 12.6940 11.5317 0.0000 0.0000 0.0000
# 2 12.6940 63.0599 9.6801 0.0000 0.0000 0.0000
# 3 11.5317 9.6801 73.4027 0.0000 0.0000 0.0000
# 4 0.0000 0.0000 0.0000 34.1724 0.0000 0.0000
# 5 0.0000 0.0000 0.0000 0.0000 14.3310 0.0000
# 6 0.0000 0.0000 0.0000 0.0000 0.0000 21.3599
#
#
#
# Elastic Compliance Matrix: (Units=1/GPa)
#
#
# Indices 1 2 3 4 5 6 
#
# 1 0.012699 -0.002296 -0.001692 0.000000 0.000000 0.000000
# 2 -0.002296 0.016601 -0.001828 0.000000 0.000000 0.000000
# 3 -0.001692 -0.001828 0.014130 0.000000 0.000000 0.000000
# 4 0.000000 0.000000 0.000000 0.029263 0.000000 0.000000
# 5 0.000000 0.000000 0.000000 0.000000 0.069779 0.000000
# 6 0.000000 0.000000 0.000000 0.000000 0.000000 0.046817
#
#
# Mechanical properties :
#
#
# Convention : Reuss Voigt Hill
#
# Bulk Modulus (GPa) = 31.45074 31.87284 31.66179
# Shear Modulus (GPa) = 23.63824 26.31521 24.97673
#
# Velocity S-wave (km/s) = 3.39386 3.58088 3.48862
# Velocity P-wave (km/s) = 5.53920 5.71206 5.62630
#
# Compressibility (1/GPa) = 0.03179575
#
# Stress axis : x y z
#
# Youngs Moduli (GPa) = 78.74917 60.23764 70.76922
#
# Poissons Ratio (x) = 0.13833 0.11975
# Poissons Ratio (y) = 0.18085 0.12940
# Poissons Ratio (z) = 0.13325 0.11014
#
# Static dielectric constant tensor:
#      x y z
#    x 1.728650 0.000000 0.000000 
#    y 0.000000 1.790850 0.000000 
#    z 0.000000 0.000000 1.804620 
# 
# From -- ./inp_files/46361.got.cif
#   From: 2010.05.17/outbox.cif.g08.bks.cpg/sg64_24_cif.got.tgz:46361.got - 2010.06.03 16:29:19.
