data_PCOD9479202
_publ_section_title
;
Structure prediction by ZEFSAII (Michael W. Deem and Ramdas Pophale) SiO2 
 PCOD9479202
Probable space group: C M C A
;
_chemical_formula_sum "Si O2"
_cell_formula_units_Z 96
_cell_length_a 8.781715
_cell_length_b 21.056334
_cell_length_c 29.144616
_cell_angle_alpha 90.000000
_cell_angle_beta 90.000000
_cell_angle_gamma 90.000000
_cell_volume 5389.152049
_symmetry_space_group_name_H-M "C M C A"
_symmetry_group_IT_number 64
_symmetry_cell_setting 'orthorhombic'
loop_
_space_group_symop_operation_xyz
x,y,z
-x,1/2-y,1/2+z
x,-y,-z
-x,1/2+y,1/2-z
-x,-y,-z
x,1/2+y,1/2-z
-x,y,z
x,1/2-y,1/2+z
1/2+x,1/2+y,z
1/2-x,-y,1/2+z
1/2+x,1/2-y,-z
1/2-x,y,1/2-z
1/2-x,1/2-y,-z
1/2+x,y,1/2-z
1/2-x,1/2+y,z
1/2+x,-y,1/2+z
loop_
_atom_site_type_symbol
_atom_site_label
_atom_site_fract_x
_atom_site_fract_y
_atom_site_fract_z
Si Si1 0.317079 0.497981 0.896518
Si Si2 0.315792 0.243191 0.397230
Si Si3 0.682884 0.198880 0.298208
Si Si4 0.682715 0.377667 0.549851
Si Si5 0.316468 0.623049 0.557644
Si Si6 0.682968 0.949527 0.701767
O O1 0.500000 0.495451 0.898388
O O2 0.251234 0.439519 0.925764
O O3 0.257805 0.563603 0.917014
O O4 0.269561 0.487448 0.843511
O O5 0.500000 0.237545 0.399386
O O6 0.270384 0.236166 0.343892
O O7 0.245387 0.184997 0.425347
O O8 0.272037 0.310389 0.419071
O O9 0.500000 0.200643 0.295261
O O10 0.750000 0.221744 0.250000
O O11 0.728428 0.124682 0.304172
O O12 0.500000 0.379316 0.553288
O O13 0.724536 0.376876 0.496107
O O14 0.500000 0.617295 0.560676
O O15 0.500000 0.951093 0.704515
O O16 0.750000 0.972292 0.750000
#
# Coordination Sequence:
#
# PCOD9479202 Si02
#       6
#    16  16  16  16  16  16
#     4  11  22  38  58  82 112 147 186 228 275 328
#     4  10  20  38  59  80 112 148 182 224 277 328
#     4   9  17  32  54  80 107 137 177 223 270 324
#     4  11  22  36  57  84 111 143 190 234 270 323
#     4  10  23  39  55  80 115 151 184 226 278 328
#     4   9  18  33  54  81 107 136 179 225 271 324
#
# _framework density 17.813562999999998
#
# number of rings (size 3 to 8) (size 9 to 14) (size 15 to 20)
#    0.000    2.000    1.667    2.000    0.000    6.000 
#    0.000    0.833    0.000    4.000    0.000    0.000 
#    0.000    0.000    0.000    0.000    0.000    0.000 
#
# Total GULP energy -268004.306743 kJ/mol
# GULP energy per Si atom -5583.423057 kJ/mol
# Density = 1.777302 g / cm^3
# Si number density = 17.813563 Si / 1000 Ang^3
#
#
#
# Elastic Constant Matrix: (Units=GPa)
#
#
# Indices 1 2 3 4 5 6 
#
# 1 18.7903 35.9952 44.6971 0.0000 0.0000 0.0000
# 2 35.9952 132.7818 90.6641 0.0000 0.0000 0.0000
# 3 44.6971 90.6641 198.4035 0.0000 0.0000 0.0000
# 4 0.0000 0.0000 0.0000 -3.3107 0.0000 0.0000
# 5 0.0000 0.0000 0.0000 0.0000 30.6696 0.0000
# 6 0.0000 0.0000 0.0000 0.0000 0.0000 26.8701
#
#
#
# Elastic Compliance Matrix: (Units=1/GPa)
#
#
# Indices 1 2 3 4 5 6 
#
# 1 0.164825 -0.028093 -0.024295 0.000000 0.000000 0.000000
# 2 -0.028093 0.015735 -0.000861 0.000000 0.000000 0.000000
# 3 -0.024295 -0.000861 0.010907 0.000000 0.000000 0.000000
# 4 0.000000 0.000000 0.000000 -0.302050 0.000000 0.000000
# 5 0.000000 0.000000 0.000000 0.000000 0.032606 0.000000
# 6 0.000000 0.000000 0.000000 0.000000 0.000000 0.037216
#
#
# Mechanical properties :
#
#
# Convention : Reuss Voigt Hill
#
# Bulk Modulus (GPa) = 11.76903 76.96538 44.36721
# Shear Modulus (GPa) = 53.15723 22.75375 37.95549
#
# Velocity S-wave (km/s) = 5.46861 3.57785 4.62097
# Velocity P-wave (km/s) = 6.81875 7.76968 7.30969
#
# Compressibility (1/GPa) = 0.08496875
#
# Stress axis : x y z
#
# Youngs Moduli (GPa) = 6.06702 63.55272 91.68291
#
# Poissons Ratio (x) = 1.78539 2.22743
# Poissons Ratio (y) = 0.17044 0.07898
# Poissons Ratio (z) = 0.14740 0.05475
#
# Static dielectric constant tensor:
#      x y z
#    x 1.602210 0.000000 0.000000 
#    y 0.000000 1.570910 0.000000 
#    z 0.000000 0.000000 1.607370 
# 
# From -- ./inp_files/48024.got.cif
#   From: 2010.05.17/outbox.cif.g08.bks.cpg/sg64_25_cif.got.tgz:48024.got - 2010.06.03 16:29:19.
