data_PCOD9479379
_publ_section_title
;
Structure prediction by ZEFSAII (Michael W. Deem and Ramdas Pophale) SiO2 
 PCOD9479379
Probable space group: C M C A
;
_chemical_formula_sum "Si O2"
_cell_formula_units_Z 112
_cell_length_a 14.272414
_cell_length_b 13.352740
_cell_length_c 27.909039
_cell_angle_alpha 90.000000
_cell_angle_beta 90.000000
_cell_angle_gamma 90.000000
_cell_volume 5318.788364
_symmetry_space_group_name_H-M "C M C A"
_symmetry_group_IT_number 64
_symmetry_cell_setting 'orthorhombic'
loop_
_space_group_symop_operation_xyz
x,y,z
-x,1/2-y,1/2+z
x,-y,-z
-x,1/2+y,1/2-z
-x,-y,-z
x,1/2+y,1/2-z
-x,y,z
x,1/2-y,1/2+z
1/2+x,1/2+y,z
1/2-x,-y,1/2+z
1/2+x,1/2-y,-z
1/2-x,y,1/2-z
1/2-x,1/2-y,-z
1/2+x,y,1/2-z
1/2-x,1/2+y,z
1/2+x,-y,1/2+z
loop_
_atom_site_type_symbol
_atom_site_label
_atom_site_fract_x
_atom_site_fract_y
_atom_site_fract_z
Si Si1 0.807636 0.459777 0.929385
Si Si2 0.893646 0.012759 0.241807
Si Si3 0.394854 0.861669 0.562623
Si Si4 0.888216 0.647905 0.977999
Si Si5 0.867533 0.308029 0.668412
Si Si6 0.359670 0.790884 0.259932
Si Si7 0.662992 0.872893 0.828254
O O1 0.695080 0.436210 0.933549
O O2 0.832470 0.574968 0.941439
O O3 0.852589 0.427494 0.878459
O O4 0.856207 0.392284 0.970297
O O5 0.873087 0.902567 0.223458
O O6 0.000000 0.014566 0.260525
O O7 0.887027 0.091189 0.198738
O O8 0.828456 0.043701 0.286497
O O9 0.500000 0.901621 0.549846
O O10 0.370661 0.766076 0.529361
O O11 0.405262 0.814062 0.615573
O O12 0.000000 0.632218 0.971923
O O13 0.898570 0.224118 0.706100
O O14 0.756402 0.310275 0.660807
O O15 0.250000 0.769992 0.250000
O O16 0.395559 0.710494 0.298575
#
# Coordination Sequence:
#
# PCOD9479379 Si02
#       7
#    16  16  16  16  16  16  16
#     4  10  20  39  62  91 119 151 196 251 302 352
#     4  11  21  31  50  79 115 150 184 233 287 338
#     4  10  21  38  62  89 119 156 198 242 297 360
#     4  10  22  40  65  92 118 153 198 249 299 354
#     4   9  19  37  55  75 108 149 192 234 277 340
#     4   9  18  34  53  76 108 146 190 229 276 336
#     4   9  20  36  55  80 105 148 193 234 280 342
#
# _framework density 21.057428000000002
#
# number of rings (size 3 to 8) (size 9 to 14) (size 15 to 20)
#    0.000    2.286    0.000    3.857    2.000    4.000 
#    7.714    1.429    0.000    1.714    0.000    0.000 
#    0.000    0.000    0.000    0.000    0.000    0.000 
#
# Total GULP energy -311780.662418 kJ/mol
# GULP energy per Si atom -5567.511829 kJ/mol
# Density = 2.100950 g / cm^3
# Si number density = 21.057428 Si / 1000 Ang^3
#
#
#
# Elastic Constant Matrix: (Units=GPa)
#
#
# Indices 1 2 3 4 5 6 
#
# 1 101.7152 -10.7793 -16.0068 0.0000 0.0000 0.0000
# 2 -10.7793 49.6841 0.4590 0.0000 0.0000 0.0000
# 3 -16.0068 0.4590 72.6387 0.0000 0.0000 0.0000
# 4 0.0000 0.0000 0.0000 11.2488 0.0000 0.0000
# 5 0.0000 0.0000 0.0000 0.0000 -2.6719 0.0000
# 6 0.0000 0.0000 0.0000 0.0000 0.0000 -22.6385
#
#
#
# Elastic Compliance Matrix: (Units=1/GPa)
#
#
# Indices 1 2 3 4 5 6 
#
# 1 0.010428 0.002241 0.002284 0.000000 0.000000 0.000000
# 2 0.002241 0.020610 0.000364 0.000000 0.000000 0.000000
# 3 0.002284 0.000364 0.014268 0.000000 0.000000 0.000000
# 4 0.000000 0.000000 0.000000 0.088898 0.000000 0.000000
# 5 0.000000 0.000000 0.000000 0.000000 -0.374264 0.000000
# 6 0.000000 0.000000 0.000000 0.000000 0.000000 -0.044173
#
#
# Mechanical properties :
#
#
# Convention : Reuss Voigt Hill
#
# Bulk Modulus (GPa) = 18.15409 19.04264 18.59837
# Shear Modulus (GPa) = -18.13903 13.87869 -2.13017
#
# Velocity S-wave (km/s) = -2.93816 2.57006 -1.00687
# Velocity P-wave (km/s) = 1.69423 4.22726 2.73855
#
# Compressibility (1/GPa) = 0.05508399
#
# Stress axis : x y z
#
# Youngs Moduli (GPa) = 95.89285 48.51989 70.08816
#
# Poissons Ratio (x) = -0.10875 -0.16007
# Poissons Ratio (y) = -0.21493 -0.02549
# Poissons Ratio (z) = -0.21900 -0.01765
#
# Static dielectric constant tensor:
#      x y z
#    x 1.900010 0.000000 0.000000 
#    y 0.000000 1.741310 0.000000 
#    z 0.000000 0.000000 1.767310 
# 
# From -- ./inp_files/53381.got.cif
#   From: 2010.05.17/outbox.cif.g08.bks.cpg/sg64_27_cif.got.tgz:53381.got - 2010.06.03 16:29:19.
