data_PCOD9479635
_publ_section_title
;
Structure prediction by ZEFSAII (Michael W. Deem and Ramdas Pophale) SiO2 
 PCOD9479635
Probable space group: C M C A
;
_chemical_formula_sum "Si O2"
_cell_formula_units_Z 64
_cell_length_a 20.101580
_cell_length_b 15.259667
_cell_length_c 9.931287
_cell_angle_alpha 90.000000
_cell_angle_beta 90.000000
_cell_angle_gamma 90.000000
_cell_volume 3046.356909
_symmetry_space_group_name_H-M "C M C A"
_symmetry_group_IT_number 64
_symmetry_cell_setting 'orthorhombic'
loop_
_space_group_symop_operation_xyz
x,y,z
-x,1/2-y,1/2+z
x,-y,-z
-x,1/2+y,1/2-z
-x,-y,-z
x,1/2+y,1/2-z
-x,y,z
x,1/2-y,1/2+z
1/2+x,1/2+y,z
1/2-x,-y,1/2+z
1/2+x,1/2-y,-z
1/2-x,y,1/2-z
1/2-x,1/2-y,-z
1/2+x,y,1/2-z
1/2-x,1/2+y,z
1/2+x,-y,1/2+z
loop_
_atom_site_type_symbol
_atom_site_label
_atom_site_fract_x
_atom_site_fract_y
_atom_site_fract_z
Si Si1 0.786166 0.837020 0.951521
Si Si2 0.671486 0.080135 0.716757
Si Si3 0.423745 0.603443 0.543352
Si Si4 0.159431 0.885942 0.693690
O O1 0.824697 0.819553 0.812973
O O2 0.724525 0.898323 0.901895
O O3 0.750000 0.750000 0.000000
O O4 0.830725 0.879180 0.067904
O O5 0.750000 0.087912 0.750000
O O6 0.624978 0.121281 0.832201
O O7 0.650241 0.978011 0.729078
O O8 0.418516 0.500000 0.500000
O O9 0.500000 0.622750 0.574518
O O10 0.397407 0.646432 0.405913
#
# Coordination Sequence:
#
# PCOD9479635 Si02
#       4
#    16  16  16  16
#     4  11  23  34  53  89 121 143 185 245 297 330
#     4  11  19  34  60  88 112 146 194 241 285 340
#     4   9  19  35  57  86 118 152 191 239 292 344
#     4  10  21  34  56  83 115 150 192 234 287 347
#
# _framework density 21.008700999999999
#
# number of rings (size 3 to 8) (size 9 to 14) (size 15 to 20)
#    0.000    1.750    5.000    0.750    3.500    0.000 
#    0.000    1.250    0.000   12.000    0.000    0.000 
#    0.000    0.000    0.000    0.000    0.000    0.750 
#
# Total GULP energy -178528.874960 kJ/mol
# GULP energy per Si atom -5579.027343 kJ/mol
# Density = 2.096088 g / cm^3
# Si number density = 21.008701 Si / 1000 Ang^3
#
#
#
# Elastic Constant Matrix: (Units=GPa)
#
#
# Indices 1 2 3 4 5 6 
#
# 1 112.1849 15.0164 78.1687 0.0000 0.0000 0.0000
# 2 15.0164 63.8177 44.1796 0.0000 0.0000 0.0000
# 3 78.1687 44.1796 191.7044 0.0000 0.0000 0.0000
# 4 0.0000 0.0000 0.0000 13.8691 0.0000 0.0000
# 5 0.0000 0.0000 0.0000 0.0000 34.0748 0.0000
# 6 0.0000 0.0000 0.0000 0.0000 0.0000 7.5150
#
#
#
# Elastic Compliance Matrix: (Units=1/GPa)
#
#
# Indices 1 2 3 4 5 6 
#
# 1 0.012478 0.000697 -0.005249 0.000000 0.000000 0.000000
# 2 0.000697 0.018683 -0.004590 0.000000 0.000000 0.000000
# 3 -0.005249 -0.004590 0.008414 0.000000 0.000000 0.000000
# 4 0.000000 0.000000 0.000000 0.072103 0.000000 0.000000
# 5 0.000000 0.000000 0.000000 0.000000 0.029347 0.000000
# 6 0.000000 0.000000 0.000000 0.000000 0.000000 0.133067
#
#
# Mechanical properties :
#
#
# Convention : Reuss Voigt Hill
#
# Bulk Modulus (GPa) = 46.96436 71.38182 59.17309
# Shear Modulus (GPa) = 16.69608 26.44794 21.57201
#
# Velocity S-wave (km/s) = 2.82214 3.55195 3.20787
# Velocity P-wave (km/s) = 5.74652 7.13252 6.47670
#
# Compressibility (1/GPa) = 0.02129274
#
# Stress axis : x y z
#
# Youngs Moduli (GPa) = 80.14350 53.52427 118.84523
#
# Poissons Ratio (x) = -0.03733 0.62377
# Poissons Ratio (y) = -0.05590 0.54550
# Poissons Ratio (z) = 0.42064 0.24568
#
# Static dielectric constant tensor:
#      x y z
#    x 1.772430 0.000000 0.000000 
#    y 0.000000 1.847230 0.000000 
#    z 0.000000 0.000000 1.803710 
# 
# From -- ./inp_files/7775.got.cif
#   From: 2010.05.17/outbox.cif.g08.bks.cpg/sg64_4_cif.got.tgz:7775.got - 2010.06.03 16:29:19.
