data_PCOD9479822
_publ_section_title
;
Structure prediction by ZEFSAII (Michael W. Deem and Ramdas Pophale) SiO2 
 PCOD9479822
Probable space group: C M C A
;
_chemical_formula_sum "Si O2"
_cell_formula_units_Z 64
_cell_length_a 14.894248
_cell_length_b 34.412162
_cell_length_c 5.087996
_cell_angle_alpha 90.000000
_cell_angle_beta 90.000000
_cell_angle_gamma 90.000000
_cell_volume 2607.818133
_symmetry_space_group_name_H-M "C M C A"
_symmetry_group_IT_number 64
_symmetry_cell_setting 'orthorhombic'
loop_
_space_group_symop_operation_xyz
x,y,z
-x,1/2-y,1/2+z
x,-y,-z
-x,1/2+y,1/2-z
-x,-y,-z
x,1/2+y,1/2-z
-x,y,z
x,1/2-y,1/2+z
1/2+x,1/2+y,z
1/2-x,-y,1/2+z
1/2+x,1/2-y,-z
1/2-x,y,1/2-z
1/2-x,1/2-y,-z
1/2+x,y,1/2-z
1/2-x,1/2+y,z
1/2+x,-y,1/2+z
loop_
_atom_site_type_symbol
_atom_site_label
_atom_site_fract_x
_atom_site_fract_y
_atom_site_fract_z
Si Si1 0.606707 0.114168 0.215885
Si Si2 0.148000 0.265705 0.641363
Si Si3 0.608673 0.159533 0.711644
Si Si4 0.857849 0.476632 0.755326
O O1 0.500000 0.119870 0.200333
O O2 0.634688 0.125761 0.507629
O O3 0.623322 0.068605 0.195117
O O4 0.643063 0.144061 0.993614
O O5 0.105610 0.234155 0.435429
O O6 0.250000 0.260273 0.750000
O O7 0.142927 0.302787 0.449611
O O8 0.500000 0.163275 0.719615
O O9 0.890638 0.500000 0.500000
O O10 0.750000 0.479454 0.750000
O O11 0.894018 0.500000 0.000000
#
# Coordination Sequence:
#
# PCOD9479822 Si02
#       4
#    16  16  16  16
#     4  10  21  37  57  83 114 147 188 236 285 343
#     4  10  21  37  56  81 113 148 190 236 282 339
#     4  10  21  37  57  83 114 147 188 237 286 341
#     4  10  21  37  56  81 113 147 187 234 283 342
#
# _framework density 24.541589999999999
#
# number of rings (size 3 to 8) (size 9 to 14) (size 15 to 20)
#    0.000    2.000    0.000    3.000    0.000    3.000 
#    0.000    2.500    0.000    0.000    0.000    0.000 
#    0.000    0.000    0.000    0.000    0.000    0.000 
#
# Total GULP energy -178356.139457 kJ/mol
# GULP energy per Si atom -5573.629358 kJ/mol
# Density = 2.448573 g / cm^3
# Si number density = 24.541590 Si / 1000 Ang^3
#
#
#
# Elastic Constant Matrix: (Units=GPa)
#
#
# Indices 1 2 3 4 5 6 
#
# 1 68.6826 -13.9178 15.2255 0.0000 0.0000 0.0000
# 2 -13.9178 89.5079 -4.3161 0.0000 0.0000 0.0000
# 3 15.2255 -4.3161 155.6254 0.0000 0.0000 0.0000
# 4 0.0000 0.0000 0.0000 48.5345 0.0000 0.0000
# 5 0.0000 0.0000 0.0000 0.0000 -53.5674 0.0000
# 6 0.0000 0.0000 0.0000 0.0000 0.0000 36.9789
#
#
#
# Elastic Compliance Matrix: (Units=1/GPa)
#
#
# Indices 1 2 3 4 5 6 
#
# 1 0.015348 0.002317 -0.001437 0.000000 0.000000 0.000000
# 2 0.002317 0.011537 0.000093 0.000000 0.000000 0.000000
# 3 -0.001437 0.000093 0.006569 0.000000 0.000000 0.000000
# 4 0.000000 0.000000 0.000000 0.020604 0.000000 0.000000
# 5 0.000000 0.000000 0.000000 0.000000 -0.018668 0.000000
# 6 0.000000 0.000000 0.000000 0.000000 0.000000 0.027042
#
#
# Mechanical properties :
#
#
# Convention : Reuss Voigt Hill
#
# Bulk Modulus (GPa) = 28.24853 34.19992 31.22423
# Shear Modulus (GPa) = 69.16991 27.51083 48.34037
#
# Velocity S-wave (km/s) = 5.31469 3.35175 4.44298
# Velocity P-wave (km/s) = 7.01404 5.38003 6.25066
#
# Compressibility (1/GPa) = 0.03540007
#
# Stress axis : x y z
#
# Youngs Moduli (GPa) = 65.15555 86.67769 152.23275
#
# Poissons Ratio (x) = -0.20085 0.21880
# Poissons Ratio (y) = -0.15098 -0.01420
# Poissons Ratio (z) = 0.09365 -0.00808
#
# Static dielectric constant tensor:
#      x y z
#    x 2.035630 0.000000 0.000000 
#    y 0.000000 2.107260 0.000000 
#    z 0.000000 0.000000 2.043410 
# 
# From -- ./inp_files/1320.got.cif
#   From: 2010.05.17/outbox.cif.g08.bks.cpg/sg64_1_cif.got.tgz:1320.got - 2010.06.03 16:29:19.
