data_PCOD9479014
_publ_section_title
;
Structure prediction by ZEFSAII (Michael W. Deem and Ramdas Pophale) SiO2 
 PCOD9479014
Probable space group: C M C A
;
_chemical_formula_sum "Si O2"
_cell_formula_units_Z 116
_cell_length_a 15.861141
_cell_length_b 14.466965
_cell_length_c 23.332570
_cell_angle_alpha 90.000000
_cell_angle_beta 90.000000
_cell_angle_gamma 90.000000
_cell_volume 5353.951517
_symmetry_space_group_name_H-M "C M C A"
_symmetry_group_IT_number 64
_symmetry_cell_setting 'orthorhombic'
loop_
_space_group_symop_operation_xyz
x,y,z
-x,1/2-y,1/2+z
x,-y,-z
-x,1/2+y,1/2-z
-x,-y,-z
x,1/2+y,1/2-z
-x,y,z
x,1/2-y,1/2+z
1/2+x,1/2+y,z
1/2-x,-y,1/2+z
1/2+x,1/2-y,-z
1/2-x,y,1/2-z
1/2-x,1/2-y,-z
1/2+x,y,1/2-z
1/2-x,1/2+y,z
1/2+x,-y,1/2+z
loop_
_atom_site_type_symbol
_atom_site_label
_atom_site_fract_x
_atom_site_fract_y
_atom_site_fract_z
Si Si1 0.637408 0.017254 0.869461
Si Si2 0.595060 0.862352 0.233977
Si Si3 0.663908 0.512252 0.834826
Si Si4 0.151401 0.184828 0.401523
Si Si5 0.381678 0.126933 0.563862
Si Si6 0.799804 0.814267 0.807848
Si Si7 0.799529 0.898593 0.477637
Si Si8 0.000000 0.000000 0.000000
O O1 0.591248 0.065879 0.818102
O O2 0.737238 0.015343 0.852263
O O3 0.633574 0.078135 0.927638
O O4 0.611986 0.911064 0.878632
O O5 0.500000 0.838040 0.252578
O O6 0.645070 0.916066 0.284003
O O7 0.645692 0.774666 0.209260
O O8 0.610825 0.547553 0.888504
O O9 0.646099 0.405435 0.821838
O O10 0.095099 0.276057 0.406918
O O11 0.232307 0.202480 0.359383
O O12 0.173673 0.158296 0.467167
O O13 0.283859 0.143171 0.549629
O O14 0.428170 0.081858 0.510573
O O15 0.750000 0.839820 0.750000
O O16 0.774535 0.000000 0.500000
#
# Coordination Sequence:
#
# PCOD9479014 Si02
#       8
#    16  16  16  16  16  16  16   4
#     4   9  19  39  64  95 119 156 211 269 306 364
#     4  12  25  40  59  91 132 166 195 249 321 389
#     4  10  22  41  67  87 118 159 215 262 308 361
#     4  10  20  36  70  93 114 155 218 264 312 357
#     4  11  22  40  57  91 124 165 202 250 307 372
#     4  11  22  40  66  94 118 158 213 264 311 369
#     4   9  17  35  64  89 117 148 206 265 304 354
#     4  12  28  40  56  84 142 172 198 240 314 384
#
# _framework density 21.666239000000001
#
# number of rings (size 3 to 8) (size 9 to 14) (size 15 to 20)
#    0.000    1.655    0.690    6.621    0.966    0.552 
#    1.241    0.000    0.000    1.241    0.000    0.000 
#    0.000    0.000    0.000    0.000    0.000    0.000 
#
# Total GULP energy -323184.151485 kJ/mol
# GULP energy per Si atom -5572.140543 kJ/mol
# Density = 2.161693 g / cm^3
# Si number density = 21.666239 Si / 1000 Ang^3
#
#
#
# Elastic Constant Matrix: (Units=GPa)
#
#
# Indices 1 2 3 4 5 6 
#
# 1 30.5314 19.5048 0.7214 0.0000 0.0000 0.0000
# 2 19.5048 149.8230 33.4456 0.0000 0.0000 0.0000
# 3 0.7214 33.4456 91.4135 0.0000 0.0000 0.0000
# 4 0.0000 0.0000 0.0000 45.8087 0.0000 0.0000
# 5 0.0000 0.0000 0.0000 0.0000 143.5742 0.0000
# 6 0.0000 0.0000 0.0000 0.0000 0.0000 19.9101
#
#
#
# Elastic Compliance Matrix: (Units=1/GPa)
#
#
# Indices 1 2 3 4 5 6 
#
# 1 0.035926 -0.005024 0.001555 0.000000 0.000000 0.000000
# 2 -0.005024 0.007971 -0.002877 0.000000 0.000000 0.000000
# 3 0.001555 -0.002877 0.011980 0.000000 0.000000 0.000000
# 4 0.000000 0.000000 0.000000 0.021830 0.000000 0.000000
# 5 0.000000 0.000000 0.000000 0.000000 0.006965 0.000000
# 6 0.000000 0.000000 0.000000 0.000000 0.000000 0.050226
#
#
# Mechanical properties :
#
#
# Convention : Reuss Voigt Hill
#
# Bulk Modulus (GPa) = 23.15664 42.12351 32.64008
# Shear Modulus (GPa) = 30.86724 56.39832 43.63278
#
# Velocity S-wave (km/s) = 3.77857 5.10755 4.49247
# Velocity P-wave (km/s) = 5.45417 7.36661 6.48131
#
# Compressibility (1/GPa) = 0.04318415
#
# Stress axis : x y z
#
# Youngs Moduli (GPa) = 27.83497 125.45842 83.47589
#
# Poissons Ratio (x) = 0.63032 -0.12978
# Poissons Ratio (y) = 0.13985 0.24013
# Poissons Ratio (z) = -0.04327 0.36090
#
# Static dielectric constant tensor:
#      x y z
#    x 1.778710 0.000000 0.000000 
#    y 0.000000 1.821400 0.000000 
#    z 0.000000 0.000000 1.820440 
# 
# From -- ./inp_files/45911.got.cif
#   From: 2010.05.17/outbox.cif.g08.bks.cpg/sg64_23_cif.got.tgz:45911.got - 2010.06.03 16:29:19.
