data_PCOD9479665
_publ_section_title
;
Structure prediction by ZEFSAII (Michael W. Deem and Ramdas Pophale) SiO2 
 PCOD9479665
Probable space group: C M C A
;
_chemical_formula_sum "Si O2"
_cell_formula_units_Z 80
_cell_length_a 26.504325
_cell_length_b 16.093378
_cell_length_c 8.547623
_cell_angle_alpha 90.000000
_cell_angle_beta 90.000000
_cell_angle_gamma 90.000000
_cell_volume 3645.938338
_symmetry_space_group_name_H-M "C M C A"
_symmetry_group_IT_number 64
_symmetry_cell_setting 'orthorhombic'
loop_
_space_group_symop_operation_xyz
x,y,z
-x,1/2-y,1/2+z
x,-y,-z
-x,1/2+y,1/2-z
-x,-y,-z
x,1/2+y,1/2-z
-x,y,z
x,1/2-y,1/2+z
1/2+x,1/2+y,z
1/2-x,-y,1/2+z
1/2+x,1/2-y,-z
1/2-x,y,1/2-z
1/2-x,1/2-y,-z
1/2+x,y,1/2-z
1/2-x,1/2+y,z
1/2+x,-y,1/2+z
loop_
_atom_site_type_symbol
_atom_site_label
_atom_site_fract_x
_atom_site_fract_y
_atom_site_fract_z
Si Si1 0.443387 0.447300 0.359749
Si Si2 0.059805 0.302643 0.367419
Si Si3 0.850655 0.676605 0.158404
Si Si4 0.904707 0.433875 0.617753
Si Si5 0.214734 0.699765 0.877245
O O1 0.418614 0.500000 0.500000
O O2 0.500000 0.426476 0.414041
O O3 0.424818 0.362206 0.279463
O O4 0.444227 0.512610 0.216846
O O5 0.096345 0.223911 0.372250
O O6 0.071001 0.358515 0.520882
O O7 0.000000 0.284261 0.357637
O O8 0.863263 0.599008 0.264608
O O9 0.817217 0.737430 0.267992
O O10 0.823238 0.655337 0.996273
O O11 0.881149 0.500000 0.500000
O O12 0.250000 0.653327 0.750000
O O13 0.250000 0.750000 0.000000
#
# Coordination Sequence:
#
# PCOD9479665 Si02
#       5
#    16  16  16  16  16
#     4   9  19  34  52  77 116 170 213 250 308 372
#     4  10  21  35  53  85 127 166 210 259 306 372
#     4  11  20  37  61  94 120 160 213 260 315 377
#     4  10  21  37  56  85 128 172 209 246 314 382
#     4   9  20  38  62  92 115 148 202 269 325 377
#
# _framework density 21.942225000000001
#
# number of rings (size 3 to 8) (size 9 to 14) (size 15 to 20)
#    0.000    2.200    2.000    0.600    2.800    4.000 
#    0.000    0.000    0.000    0.000   31.200    0.000 
#    0.000    0.000    0.000    0.000    0.000    0.400 
#
# Total GULP energy -223047.094104 kJ/mol
# GULP energy per Si atom -5576.177353 kJ/mol
# Density = 2.189228 g / cm^3
# Si number density = 21.942225 Si / 1000 Ang^3
#
#
#
# Elastic Constant Matrix: (Units=GPa)
#
#
# Indices 1 2 3 4 5 6 
#
# 1 92.7025 25.5201 58.6593 0.0000 0.0000 0.0000
# 2 25.5201 41.7894 40.1893 0.0000 0.0000 0.0000
# 3 58.6593 40.1893 157.3187 0.0000 0.0000 0.0000
# 4 0.0000 0.0000 0.0000 39.9588 0.0000 0.0000
# 5 0.0000 0.0000 0.0000 0.0000 34.0950 0.0000
# 6 0.0000 0.0000 0.0000 0.0000 0.0000 4.2704
#
#
#
# Elastic Compliance Matrix: (Units=1/GPa)
#
#
# Indices 1 2 3 4 5 6 
#
# 1 0.014857 -0.004965 -0.004271 0.000000 0.000000 0.000000
# 2 -0.004965 0.033383 -0.006677 0.000000 0.000000 0.000000
# 3 -0.004271 -0.006677 0.009655 0.000000 0.000000 0.000000
# 4 0.000000 0.000000 0.000000 0.025026 0.000000 0.000000
# 5 0.000000 0.000000 0.000000 0.000000 0.029330 0.000000
# 6 0.000000 0.000000 0.000000 0.000000 0.000000 0.234169
#
#
# Mechanical properties :
#
#
# Convention : Reuss Voigt Hill
#
# Bulk Modulus (GPa) = 38.36101 60.06089 49.21095
# Shear Modulus (GPa) = 12.92208 26.82763 19.87486
#
# Velocity S-wave (km/s) = 2.42939 3.50043 3.01289
# Velocity P-wave (km/s) = 5.03884 6.61582 5.88043
#
# Compressibility (1/GPa) = 0.02606813
#
# Stress axis : x y z
#
# Youngs Moduli (GPa) = 67.30953 29.95560 103.57543
#
# Poissons Ratio (x) = 0.14873 0.44239
# Poissons Ratio (y) = 0.33420 0.69155
# Poissons Ratio (z) = 0.28749 0.20001
#
# Static dielectric constant tensor:
#      x y z
#    x 1.849200 0.000000 0.000000 
#    y 0.000000 1.812670 0.000000 
#    z 0.000000 0.000000 1.846760 
# 
# From -- ./inp_files/10179.got.cif
#   From: 2010.05.17/outbox.cif.g08.bks.cpg/sg64_6_cif.got.tgz:10179.got - 2010.06.03 16:29:19.
