data_PCOD9479873
_publ_section_title
;
Structure prediction by ZEFSAII (Michael W. Deem and Ramdas Pophale) SiO2 
 PCOD9479873
Probable space group: C M C A
;
_chemical_formula_sum "Si O2"
_cell_formula_units_Z 80
_cell_length_a 8.539933
_cell_length_b 15.357183
_cell_length_c 30.635084
_cell_angle_alpha 90.000000
_cell_angle_beta 90.000000
_cell_angle_gamma 90.000000
_cell_volume 4017.770248
_symmetry_space_group_name_H-M "C M C A"
_symmetry_group_IT_number 64
_symmetry_cell_setting 'orthorhombic'
loop_
_space_group_symop_operation_xyz
x,y,z
-x,1/2-y,1/2+z
x,-y,-z
-x,1/2+y,1/2-z
-x,-y,-z
x,1/2+y,1/2-z
-x,y,z
x,1/2-y,1/2+z
1/2+x,1/2+y,z
1/2-x,-y,1/2+z
1/2+x,1/2-y,-z
1/2-x,y,1/2-z
1/2-x,1/2-y,-z
1/2+x,y,1/2-z
1/2-x,1/2+y,z
1/2+x,-y,1/2+z
loop_
_atom_site_type_symbol
_atom_site_label
_atom_site_fract_x
_atom_site_fract_y
_atom_site_fract_z
Si Si1 0.812918 0.473579 0.139730
Si Si2 0.312467 0.125129 0.299201
Si Si3 0.687334 0.225508 0.638092
Si Si4 0.186924 0.721941 0.953043
Si Si5 0.812164 0.972450 0.048657
O O1 0.746926 0.538322 0.176154
O O2 0.749419 0.374031 0.144324
O O3 0.760159 0.512246 0.092470
O O4 0.000000 0.470308 0.141218
O O5 0.500000 0.127035 0.299845
O O6 0.250000 0.125354 0.250000
O O7 0.247252 0.209543 0.324728
O O8 0.500000 0.222465 0.637100
O O9 0.748576 0.263423 0.591533
O O10 0.251870 0.625202 0.948579
O O11 0.000000 0.726950 0.952949
O O12 0.250000 0.750000 0.000000
O O13 0.000000 0.979032 0.051258
O O14 0.763943 0.000000 0.000000
#
# Coordination Sequence:
#
# PCOD9479873 Si02
#       5
#    16  16  16  16  16
#     4  11  23  42  66  95 131 171 215 265 323 384
#     4  12  26  46  70  99 130 167 217 270 327 387
#     4  11  23  43  67  95 130 170 215 267 324 385
#     4  11  22  37  58  87 124 166 212 260 313 376
#     4  10  21  37  58  87 124 165 211 259 313 374
#
# _framework density 19.911543000000002
#
# number of rings (size 3 to 8) (size 9 to 14) (size 15 to 20)
#    0.000    1.000    0.000   10.200    2.800    2.400 
#    0.000    4.000    0.000    0.000    0.000    0.000 
#    0.000    0.000    0.000    0.000    0.000    0.000 
#
# Total GULP energy -223434.062290 kJ/mol
# GULP energy per Si atom -5585.851557 kJ/mol
# Density = 1.986622 g / cm^3
# Si number density = 19.911543 Si / 1000 Ang^3
#
#
#
# Elastic Constant Matrix: (Units=GPa)
#
#
# Indices 1 2 3 4 5 6 
#
# 1 228.1511 54.2659 96.8185 0.0000 0.0000 0.0000
# 2 54.2659 104.2468 84.9034 0.0000 0.0000 0.0000
# 3 96.8185 84.9034 226.8175 0.0000 0.0000 0.0000
# 4 0.0000 0.0000 0.0000 42.6696 0.0000 0.0000
# 5 0.0000 0.0000 0.0000 0.0000 40.6389 0.0000
# 6 0.0000 0.0000 0.0000 0.0000 0.0000 32.6933
#
#
#
# Elastic Compliance Matrix: (Units=1/GPa)
#
#
# Indices 1 2 3 4 5 6 
#
# 1 0.005484 -0.001364 -0.001830 0.000000 0.000000 0.000000
# 2 -0.001364 0.014139 -0.004710 0.000000 0.000000 0.000000
# 3 -0.001830 -0.004710 0.006953 0.000000 0.000000 0.000000
# 4 0.000000 0.000000 0.000000 0.023436 0.000000 0.000000
# 5 0.000000 0.000000 0.000000 0.000000 0.024607 0.000000
# 6 0.000000 0.000000 0.000000 0.000000 0.000000 0.030587
#
#
# Mechanical properties :
#
#
# Convention : Reuss Voigt Hill
#
# Bulk Modulus (GPa) = 92.87620 114.57679 103.72650
# Shear Modulus (GPa) = 40.12671 44.74887 42.43779
#
# Velocity S-wave (km/s) = 4.49402 4.74580 4.62163
# Velocity P-wave (km/s) = 8.58335 9.36472 8.98254
#
# Compressibility (1/GPa) = 0.01076702
#
# Stress axis : x y z
#
# Youngs Moduli (GPa) = 182.34031 70.72636 143.81623
#
# Poissons Ratio (x) = 0.09648 0.26324
# Poissons Ratio (y) = 0.24873 0.67742
# Poissons Ratio (z) = 0.33375 0.33314
#
# Static dielectric constant tensor:
#      x y z
#    x 1.783130 0.000000 0.000000 
#    y 0.000000 1.687120 0.000000 
#    z 0.000000 0.000000 1.786290 
# 
# From -- ./inp_files/51747.got.cif
#   From: 2010.05.17/outbox.cif.g08.bks.cpg/sg64_26_cif.got.tgz:51747.got - 2010.06.03 16:29:19.
