data_PCOD9479800
_publ_section_title
;
Structure prediction by ZEFSAII (Michael W. Deem and Ramdas Pophale) SiO2 
 PCOD9479800
Probable space group: C M C A
;
_chemical_formula_sum "Si O2"
_cell_formula_units_Z 120
_cell_length_a 21.177235
_cell_length_b 12.624076
_cell_length_c 19.982427
_cell_angle_alpha 90.000000
_cell_angle_beta 90.000000
_cell_angle_gamma 90.000000
_cell_volume 5342.162463
_symmetry_space_group_name_H-M "C M C A"
_symmetry_group_IT_number 64
_symmetry_cell_setting 'orthorhombic'
loop_
_space_group_symop_operation_xyz
x,y,z
-x,1/2-y,1/2+z
x,-y,-z
-x,1/2+y,1/2-z
-x,-y,-z
x,1/2+y,1/2-z
-x,y,z
x,1/2-y,1/2+z
1/2+x,1/2+y,z
1/2-x,-y,1/2+z
1/2+x,1/2-y,-z
1/2-x,y,1/2-z
1/2-x,1/2-y,-z
1/2+x,y,1/2-z
1/2-x,1/2+y,z
1/2+x,-y,1/2+z
loop_
_atom_site_type_symbol
_atom_site_label
_atom_site_fract_x
_atom_site_fract_y
_atom_site_fract_z
Si Si1 0.221184 0.000000 0.000000
Si Si2 0.572283 0.884426 0.031276
Si Si3 0.929864 0.117682 0.150366
Si Si4 0.749596 0.376220 0.381038
Si Si5 0.376876 0.562382 0.674224
Si Si6 0.667137 0.213295 0.452127
Si Si7 0.108634 0.615505 0.674320
Si Si8 0.429547 0.152564 0.190657
O O1 0.258299 0.025031 0.932502
O O2 0.181694 0.892907 0.992041
O O3 0.500000 0.853863 0.016921
O O4 0.584181 0.894731 0.111119
O O5 0.624502 0.799024 0.008979
O O6 0.583145 0.000000 0.000000
O O7 0.875234 0.174168 0.109736
O O8 0.925588 0.150804 0.228283
O O9 0.000000 0.146109 0.126269
O O10 0.920296 0.990853 0.142623
O O11 0.693677 0.392927 0.328718
O O12 0.729143 0.271817 0.423033
O O13 0.817989 0.378599 0.347800
O O14 0.402152 0.594681 0.746553
O O15 0.379994 0.435430 0.668168
O O16 0.080153 0.730936 0.661696
O O17 0.500000 0.113983 0.172760
#
# Coordination Sequence:
#
# PCOD9479800 Si02
#       8
#     8  16  16  16  16  16  16  16
#     4  12  26  46  65  96 127 172 226 270 336 406
#     4  10  22  42  68  98 136 179 229 276 325 390
#     4  10  21  41  64  93 134 174 212 260 331 399
#     4  11  25  42  67  92 129 172 217 270 330 390
#     4  10  23  39  64  96 131 170 218 272 326 388
#     4  11  24  43  68  96 129 176 223 277 334 399
#     4  11  22  40  63  99 133 168 215 271 328 399
#     4  10  21  36  64  97 130 171 211 263 322 387
#
# _framework density 22.462814999999999
#
# number of rings (size 3 to 8) (size 9 to 14) (size 15 to 20)
#    0.000    1.467    1.333    3.600    5.600    3.733 
#    0.000    2.667    0.000    0.000    0.000    0.000 
#    0.000    0.000    0.000    0.000    0.000    0.000 
#
# Total GULP energy -335350.868514 kJ/mol
# GULP energy per Si atom -5589.181142 kJ/mol
# Density = 2.241169 g / cm^3
# Si number density = 22.462815 Si / 1000 Ang^3
#
#
#
# Elastic Constant Matrix: (Units=GPa)
#
#
# Indices 1 2 3 4 5 6 
#
# 1 79.3119 23.9984 8.0026 0.0000 0.0000 0.0000
# 2 23.9984 147.3747 10.9598 0.0000 0.0000 0.0000
# 3 8.0026 10.9598 42.3865 0.0000 0.0000 0.0000
# 4 0.0000 0.0000 0.0000 33.7703 0.0000 0.0000
# 5 0.0000 0.0000 0.0000 0.0000 16.7391 0.0000
# 6 0.0000 0.0000 0.0000 0.0000 0.0000 27.5818
#
#
#
# Elastic Compliance Matrix: (Units=1/GPa)
#
#
# Indices 1 2 3 4 5 6 
#
# 1 0.013428 -0.002037 -0.002008 0.000000 0.000000 0.000000
# 2 -0.002037 0.007228 -0.001484 0.000000 0.000000 0.000000
# 3 -0.002008 -0.001484 0.024355 0.000000 0.000000 0.000000
# 4 0.000000 0.000000 0.000000 0.029612 0.000000 0.000000
# 5 0.000000 0.000000 0.000000 0.000000 0.059740 0.000000
# 6 0.000000 0.000000 0.000000 0.000000 0.000000 0.036256
#
#
# Mechanical properties :
#
#
# Convention : Reuss Voigt Hill
#
# Bulk Modulus (GPa) = 29.45427 39.44385 34.44906
# Shear Modulus (GPa) = 25.90744 30.69240 28.29992
#
# Velocity S-wave (km/s) = 3.39978 3.70045 3.55330
# Velocity P-wave (km/s) = 5.34343 5.98795 5.67485
#
# Compressibility (1/GPa) = 0.03395093
#
# Stress axis : x y z
#
# Youngs Moduli (GPa) = 74.47401 138.35990 41.05868
#
# Poissons Ratio (x) = 0.28186 0.08246
# Poissons Ratio (y) = 0.15172 0.06094
# Poissons Ratio (z) = 0.14957 0.20535
#
# Static dielectric constant tensor:
#      x y z
#    x 1.804320 0.000000 0.000000 
#    y 0.000000 1.855140 0.000000 
#    z 0.000000 0.000000 1.873340 
# 
# From -- ./inp_files/41594.got.cif
#   From: 2010.05.17/outbox.cif.g08.bks.cpg/sg64_21_cif.got.tgz:41594.got - 2010.06.03 16:29:19.
