data_PCOD9479728
_publ_section_title
;
Structure prediction by ZEFSAII (Michael W. Deem and Ramdas Pophale) SiO2 
 PCOD9479728
Probable space group: C M C A
;
_chemical_formula_sum "Si O2"
_cell_formula_units_Z 96
_cell_length_a 22.879825
_cell_length_b 8.905920
_cell_length_c 23.659353
_cell_angle_alpha 90.000000
_cell_angle_beta 90.000000
_cell_angle_gamma 90.000000
_cell_volume 4820.969146
_symmetry_space_group_name_H-M "C M C A"
_symmetry_group_IT_number 64
_symmetry_cell_setting 'orthorhombic'
loop_
_space_group_symop_operation_xyz
x,y,z
-x,1/2-y,1/2+z
x,-y,-z
-x,1/2+y,1/2-z
-x,-y,-z
x,1/2+y,1/2-z
-x,y,z
x,1/2-y,1/2+z
1/2+x,1/2+y,z
1/2-x,-y,1/2+z
1/2+x,1/2-y,-z
1/2-x,y,1/2-z
1/2-x,1/2-y,-z
1/2+x,y,1/2-z
1/2-x,1/2+y,z
1/2+x,-y,1/2+z
loop_
_atom_site_type_symbol
_atom_site_label
_atom_site_fract_x
_atom_site_fract_y
_atom_site_fract_z
Si Si1 0.168506 0.173260 0.143659
Si Si2 0.430251 0.341174 0.633210
Si Si3 0.070639 0.343245 0.472673
Si Si4 0.068794 0.171845 0.582134
Si Si5 0.753817 0.422380 0.337752
Si Si6 0.671082 0.830524 0.779381
O O1 0.106326 0.211091 0.118316
O O2 0.202251 0.023674 0.126032
O O3 0.211254 0.311448 0.129008
O O4 0.164995 0.165505 0.212080
O O5 0.500000 0.328118 0.644082
O O6 0.410839 0.211273 0.589311
O O7 0.420345 0.502584 0.602985
O O8 0.390842 0.335146 0.688945
O O9 0.091887 0.500000 0.500000
O O10 0.082994 0.209703 0.517187
O O11 0.000000 0.355886 0.468850
O O12 0.000000 0.200340 0.589501
O O13 0.711183 0.534788 0.303556
O O14 0.794208 0.317984 0.298488
#
# Coordination Sequence:
#
# PCOD9479728 Si02
#       6
#    16  16  16  16  16  16
#     4  11  20  35  58  84 114 147 186 230 274 326
#     4  10  21  37  58  84 114 148 183 226 283 337
#     4   9  19  37  59  82 107 142 190 232 271 331
#     4  10  21  37  58  84 114 148 183 226 283 337
#     4  10  21  36  56  81 110 151 196 228 263 322
#     4  11  20  35  58  84 114 147 186 230 274 326
#
# _framework density 19.913008999999999
#
# number of rings (size 3 to 8) (size 9 to 14) (size 15 to 20)
#    0.000    1.833    1.667    4.500    2.333    2.667 
#    0.000    0.000    0.000    6.000    0.000    0.000 
#    0.000    0.000    0.000    0.000    0.000    0.000 
#
# Total GULP energy -267933.707361 kJ/mol
# GULP energy per Si atom -5581.952237 kJ/mol
# Density = 1.986769 g / cm^3
# Si number density = 19.913009 Si / 1000 Ang^3
#
#
#
# Elastic Constant Matrix: (Units=GPa)
#
#
# Indices 1 2 3 4 5 6 
#
# 1 70.2161 28.2344 30.2853 0.0000 0.0000 0.0000
# 2 28.2344 90.3369 5.0540 0.0000 0.0000 0.0000
# 3 30.2853 5.0540 36.6213 0.0000 0.0000 0.0000
# 4 0.0000 0.0000 0.0000 20.8638 0.0000 0.0000
# 5 0.0000 0.0000 0.0000 0.0000 4.3862 0.0000
# 6 0.0000 0.0000 0.0000 0.0000 0.0000 29.0007
#
#
#
# Elastic Compliance Matrix: (Units=1/GPa)
#
#
# Indices 1 2 3 4 5 6 
#
# 1 0.025829 -0.006931 -0.020404 0.000000 0.000000 0.000000
# 2 -0.006931 0.013016 0.003936 0.000000 0.000000 0.000000
# 3 -0.020404 0.003936 0.043637 0.000000 0.000000 0.000000
# 4 0.000000 0.000000 0.000000 0.047930 0.000000 0.000000
# 5 0.000000 0.000000 0.000000 0.000000 0.227988 0.000000
# 6 0.000000 0.000000 0.000000 0.000000 0.000000 0.034482
#
#
# Mechanical properties :
#
#
# Convention : Reuss Voigt Hill
#
# Bulk Modulus (GPa) = 28.02422 36.03576 32.02999
# Shear Modulus (GPa) = 11.07234 19.75685 15.41459
#
# Velocity S-wave (km/s) = 2.36060 3.15327 2.78528
# Velocity P-wave (km/s) = 4.64045 5.60298 5.14428
#
# Compressibility (1/GPa) = 0.03568342
#
# Stress axis : x y z
#
# Youngs Moduli (GPa) = 38.71545 76.82941 22.91624
#
# Poissons Ratio (x) = 0.53253 0.46758
# Poissons Ratio (y) = 0.26835 -0.09020
# Poissons Ratio (z) = 0.78995 -0.30239
#
# Static dielectric constant tensor:
#      x y z
#    x 1.693290 0.000000 0.000000 
#    y 0.000000 1.762610 0.000000 
#    z 0.000000 0.000000 1.691990 
# 
# From -- ./inp_files/46583.got.cif
#   From: 2010.05.17/outbox.cif.g08.bks.cpg/sg64_24_cif.got.tgz:46583.got - 2010.06.03 16:29:19.
