data_PCOD9479731
_publ_section_title
;
Structure prediction by ZEFSAII (Michael W. Deem and Ramdas Pophale) SiO2 
 PCOD9479731
Probable space group: C M C A
;
_chemical_formula_sum "Si O2"
_cell_formula_units_Z 56
_cell_length_a 29.542544
_cell_length_b 18.940485
_cell_length_c 4.994304
_cell_angle_alpha 90.000000
_cell_angle_beta 90.000000
_cell_angle_gamma 90.000000
_cell_volume 2794.563360
_symmetry_space_group_name_H-M "C M C A"
_symmetry_group_IT_number 64
_symmetry_cell_setting 'orthorhombic'
loop_
_space_group_symop_operation_xyz
x,y,z
-x,1/2-y,1/2+z
x,-y,-z
-x,1/2+y,1/2-z
-x,-y,-z
x,1/2+y,1/2-z
-x,y,z
x,1/2-y,1/2+z
1/2+x,1/2+y,z
1/2-x,-y,1/2+z
1/2+x,1/2-y,-z
1/2-x,y,1/2-z
1/2-x,1/2-y,-z
1/2+x,y,1/2-z
1/2-x,1/2+y,z
1/2+x,-y,1/2+z
loop_
_atom_site_type_symbol
_atom_site_label
_atom_site_fract_x
_atom_site_fract_y
_atom_site_fract_z
Si Si1 0.250000 0.195924 0.250000
Si Si2 0.384535 0.427177 0.417505
Si Si3 0.180221 0.925619 0.911610
Si Si4 0.446708 0.296166 0.563616
O O1 0.250000 0.250000 0.500000
O O2 0.212548 0.140676 0.133353
O O3 0.409853 0.500000 0.500000
O O4 0.343325 0.430660 0.625292
O O5 0.416038 0.361170 0.479598
O O6 0.360878 0.419367 0.127924
O O7 0.203182 0.000000 0.000000
O O8 0.500000 0.313469 0.538378
O O9 0.437679 0.231161 0.362099
#
# Coordination Sequence:
#
# PCOD9479731 Si02
#       4
#     8  16  16  16
#     4  12  26  40  60  92 120 148 198 250 294 350
#     4  10  21  38  60  85 112 150 198 240 284 345
#     4  10  23  41  60  83 116 156 193 235 296 357
#     4  10  21  36  56  84 117 153 190 233 292 351
#
# _framework density 20.038906999999998
#
# number of rings (size 3 to 8) (size 9 to 14) (size 15 to 20)
#    0.000    1.714    0.000    3.429    0.000   12.000 
#    0.000    0.000    0.000   10.286    0.000    0.000 
#    0.000    0.000    0.000    0.000    0.000    0.000 
#
# Total GULP energy -155872.043918 kJ/mol
# GULP energy per Si atom -5566.858711 kJ/mol
# Density = 1.999330 g / cm^3
# Si number density = 20.038907 Si / 1000 Ang^3
#
#
#
# Elastic Constant Matrix: (Units=GPa)
#
#
# Indices 1 2 3 4 5 6 
#
# 1 35.8249 60.1097 8.7305 0.0000 0.0000 0.0000
# 2 60.1097 154.8018 20.2065 0.0000 0.0000 0.0000
# 3 8.7305 20.2065 94.9811 0.0000 0.0000 0.0000
# 4 0.0000 0.0000 0.0000 29.3476 0.0000 0.0000
# 5 0.0000 0.0000 0.0000 0.0000 15.2435 0.0000
# 6 0.0000 0.0000 0.0000 0.0000 0.0000 20.0794
#
#
#
# Elastic Compliance Matrix: (Units=1/GPa)
#
#
# Indices 1 2 3 4 5 6 
#
# 1 0.080155 -0.031024 -0.000768 0.000000 0.000000 0.000000
# 2 -0.031024 0.018652 -0.001116 0.000000 0.000000 0.000000
# 3 -0.000768 -0.001116 0.010836 0.000000 0.000000 0.000000
# 4 0.000000 0.000000 0.000000 0.034074 0.000000 0.000000
# 5 0.000000 0.000000 0.000000 0.000000 0.065602 0.000000
# 6 0.000000 0.000000 0.000000 0.000000 0.000000 0.049802
#
#
# Mechanical properties :
#
#
# Convention : Reuss Voigt Hill
#
# Bulk Modulus (GPa) = 22.81665 51.52238 37.16952
# Shear Modulus (GPa) = 14.72546 26.03818 20.38182
#
# Velocity S-wave (km/s) = 2.71374 3.60860 3.19268
# Velocity P-wave (km/s) = 4.60761 6.56732 5.67273
#
# Compressibility (1/GPa) = 0.04382764
#
# Stress axis : x y z
#
# Youngs Moduli (GPa) = 12.47579 53.61261 92.28085
#
# Poissons Ratio (x) = 1.66329 0.07083
# Poissons Ratio (y) = 0.38705 0.10303
# Poissons Ratio (z) = 0.00958 0.05986
#
# Static dielectric constant tensor:
#      x y z
#    x 1.685430 0.000000 0.000000 
#    y 0.000000 1.931510 0.000000 
#    z 0.000000 0.000000 1.681320 
# 
# From -- ./inp_files/2604.got.cif
#   From: 2010.05.17/outbox.cif.g08.bks.cpg/sg64_2_cif.got.tgz:2604.got - 2010.06.03 16:29:19.
