data_PCOD9479594
_publ_section_title
;
Structure prediction by ZEFSAII (Michael W. Deem and Ramdas Pophale) SiO2 
 PCOD9479594
Probable space group: C M C A
;
_chemical_formula_sum "Si O2"
_cell_formula_units_Z 88
_cell_length_a 14.281330
_cell_length_b 13.553749
_cell_length_c 21.887623
_cell_angle_alpha 90.000000
_cell_angle_beta 90.000000
_cell_angle_gamma 90.000000
_cell_volume 4236.690051
_symmetry_space_group_name_H-M "C M C A"
_symmetry_group_IT_number 64
_symmetry_cell_setting 'orthorhombic'
loop_
_space_group_symop_operation_xyz
x,y,z
-x,1/2-y,1/2+z
x,-y,-z
-x,1/2+y,1/2-z
-x,-y,-z
x,1/2+y,1/2-z
-x,y,z
x,1/2-y,1/2+z
1/2+x,1/2+y,z
1/2-x,-y,1/2+z
1/2+x,1/2-y,-z
1/2-x,y,1/2-z
1/2-x,1/2-y,-z
1/2+x,y,1/2-z
1/2-x,1/2+y,z
1/2+x,-y,1/2+z
loop_
_atom_site_type_symbol
_atom_site_label
_atom_site_fract_x
_atom_site_fract_y
_atom_site_fract_z
Si Si1 0.821979 0.240685 0.112975
Si Si2 0.000000 0.254338 0.526406
Si Si3 0.500000 0.368474 0.091615
Si Si4 0.185994 0.916805 0.653021
Si Si5 0.611944 0.758238 0.752899
Si Si6 0.688013 0.101027 0.652653
Si Si7 0.000000 0.865896 0.589399
O O1 0.907379 0.244429 0.067073
O O2 0.758568 0.143769 0.111099
O O3 0.859502 0.245024 0.182514
O O4 0.748373 0.329465 0.107716
O O5 0.000000 0.348282 0.480541
O O6 0.000000 0.157992 0.482383
O O7 0.408293 0.421957 0.117305
O O8 0.500000 0.250583 0.113521
O O9 0.155473 0.852311 0.711871
O O10 0.090531 0.922377 0.614297
O O11 0.242219 0.014047 0.670185
O O12 0.500000 0.760719 0.755427
O O13 0.653620 0.665039 0.789464
#
# Coordination Sequence:
#
# PCOD9479594 Si02
#       7
#    16   8   8  16  16  16   8
#     4  11  23  39  64  98 131 176 225 265 323 400
#     4  10  22  42  68  94 130 178 222 274 318 386
#     4  10  20  44  72  86 130 179 214 270 331 379
#     4  11  22  40  69  97 128 172 222 272 334 393
#     4  11  20  43  67  91 136 178 210 268 337 395
#     4  11  22  40  69  97 128 172 222 272 334 393
#     4  10  20  44  72  86 130 179 214 270 331 379
#
# _framework density 20.770931000000001
#
# number of rings (size 3 to 8) (size 9 to 14) (size 15 to 20)
#    0.545    0.727    6.364    2.182    0.000    7.273 
#    0.000    7.273    0.000    0.000    0.000    0.000 
#    0.000    0.000    0.000    0.000    0.000    0.000 
#
# Total GULP energy -245686.101789 kJ/mol
# GULP energy per Si atom -5583.775041 kJ/mol
# Density = 2.072366 g / cm^3
# Si number density = 20.770931 Si / 1000 Ang^3
#
#
#
# Elastic Constant Matrix: (Units=GPa)
#
#
# Indices 1 2 3 4 5 6 
#
# 1 143.0324 12.6147 50.7780 0.0000 0.0000 0.0000
# 2 12.6147 56.4691 -5.0492 0.0000 0.0000 0.0000
# 3 50.7780 -5.0492 112.6355 0.0000 0.0000 0.0000
# 4 0.0000 0.0000 0.0000 -2.8313 0.0000 0.0000
# 5 0.0000 0.0000 0.0000 0.0000 10.7237 0.0000
# 6 0.0000 0.0000 0.0000 0.0000 0.0000 25.6540
#
#
#
# Elastic Compliance Matrix: (Units=1/GPa)
#
#
# Indices 1 2 3 4 5 6 
#
# 1 0.008606 -0.002279 -0.003982 0.000000 0.000000 0.000000
# 2 -0.002279 0.018383 0.001851 0.000000 0.000000 0.000000
# 3 -0.003982 0.001851 0.010756 0.000000 0.000000 0.000000
# 4 0.000000 0.000000 0.000000 -0.353189 0.000000 0.000000
# 5 0.000000 0.000000 0.000000 0.000000 0.093252 0.000000
# 6 0.000000 0.000000 0.000000 0.000000 0.000000 0.038980
#
#
# Mechanical properties :
#
#
# Convention : Reuss Voigt Hill
#
# Bulk Modulus (GPa) = 34.56936 47.64710 41.10823
# Shear Modulus (GPa) = -30.34886 23.62883 -3.36001
#
# Velocity S-wave (km/s) = -3.82661 3.37648 -1.27325
# Velocity P-wave (km/s) = 1.68661 6.17980 4.20388
#
# Compressibility (1/GPa) = 0.02892735
#
# Stress axis : x y z
#
# Youngs Moduli (GPa) = 116.19828 54.39715 92.96896
#
# Poissons Ratio (x) = 0.12395 0.37019
# Poissons Ratio (y) = 0.26476 -0.17211
# Poissons Ratio (z) = 0.46269 -0.10070
#
# Static dielectric constant tensor:
#      x y z
#    x 1.731640 0.000000 0.000000 
#    y 0.000000 1.827450 0.000000 
#    z 0.000000 0.000000 1.751690 
# 
# From -- ./inp_files/45113.got.cif
#   From: 2010.05.17/outbox.cif.g08.bks.cpg/sg64_23_cif.got.tgz:45113.got - 2010.06.03 16:29:19.
