data_PCOD9479637
_publ_section_title
;
Structure prediction by ZEFSAII (Michael W. Deem and Ramdas Pophale) SiO2 
 PCOD9479637
Probable space group: C M C A
;
_chemical_formula_sum "Si O2"
_cell_formula_units_Z 116
_cell_length_a 27.869167
_cell_length_b 23.478005
_cell_length_c 9.272758
_cell_angle_alpha 90.000000
_cell_angle_beta 90.000000
_cell_angle_gamma 90.000000
_cell_volume 6067.280933
_symmetry_space_group_name_H-M "C M C A"
_symmetry_group_IT_number 64
_symmetry_cell_setting 'orthorhombic'
loop_
_space_group_symop_operation_xyz
x,y,z
-x,1/2-y,1/2+z
x,-y,-z
-x,1/2+y,1/2-z
-x,-y,-z
x,1/2+y,1/2-z
-x,y,z
x,1/2-y,1/2+z
1/2+x,1/2+y,z
1/2-x,-y,1/2+z
1/2+x,1/2-y,-z
1/2-x,y,1/2-z
1/2-x,1/2-y,-z
1/2+x,y,1/2-z
1/2-x,1/2+y,z
1/2+x,-y,1/2+z
loop_
_atom_site_type_symbol
_atom_site_label
_atom_site_fract_x
_atom_site_fract_y
_atom_site_fract_z
Si Si1 0.552688 0.200275 0.334012
Si Si2 0.000000 0.500000 0.000000
Si Si3 0.652509 0.251465 0.956438
Si Si4 0.398999 0.851091 0.929556
Si Si5 0.114126 0.908421 0.283944
Si Si6 0.195455 0.180406 0.787170
Si Si7 0.408968 0.031393 0.204037
Si Si8 0.945849 0.079126 0.005771
O O1 0.500000 0.228172 0.347659
O O2 0.599156 0.232019 0.398548
O O3 0.562640 0.182486 0.167917
O O4 0.551487 0.140787 0.418392
O O5 0.957780 0.522167 0.113285
O O6 0.682561 0.232692 0.818803
O O7 0.643538 0.193811 0.047901
O O8 0.679009 0.298148 0.054301
O O9 0.385954 0.909041 0.845720
O O10 0.413200 0.874643 0.087607
O O11 0.161522 0.872512 0.253322
O O12 0.121517 0.974482 0.323581
O O13 0.082851 0.911548 0.140336
O O14 0.250000 0.166116 0.750000
O O15 0.422205 0.039214 0.372434
O O16 0.000000 0.061427 0.971953
#
# Coordination Sequence:
#
# PCOD9479637 Si02
#       8
#    16   4  16  16  16  16  16  16
#     4  10  21  37  55  85 130 168 199 243 308 387
#     4  12  20  36  58  84 132 176 222 248 288 372
#     4  11  21  43  63  93 120 161 206 266 319 384
#     4  10  22  37  59  83 121 165 210 247 308 376
#     4  11  22  37  61  88 123 160 209 269 319 372
#     4  11  24  43  68  91 116 158 215 276 334 383
#     4  11  22  37  55  89 128 174 213 251 300 375
#     4  10  21  34  56  87 127 166 207 251 302 374
#
# _framework density 19.118942000000001
#
# number of rings (size 3 to 8) (size 9 to 14) (size 15 to 20)
#    0.000    1.379    4.828    0.828    1.931    1.655 
#    0.000    2.069    0.000    7.448    0.000    0.000 
#    0.000    0.000    0.000    0.000    0.000    0.000 
#
# Total GULP energy -322895.458374 kJ/mol
# GULP energy per Si atom -5567.163075 kJ/mol
# Density = 1.907543 g / cm^3
# Si number density = 19.118942 Si / 1000 Ang^3
#
#
#
# Elastic Constant Matrix: (Units=GPa)
#
#
# Indices 1 2 3 4 5 6 
#
# 1 89.5101 39.6818 51.0781 0.0000 0.0000 0.0000
# 2 39.6818 81.2736 27.1315 0.0000 0.0000 0.0000
# 3 51.0781 27.1315 116.1167 0.0000 0.0000 0.0000
# 4 0.0000 0.0000 0.0000 31.2280 0.0000 0.0000
# 5 0.0000 0.0000 0.0000 0.0000 12.8369 0.0000
# 6 0.0000 0.0000 0.0000 0.0000 0.0000 8.2371
#
#
#
# Elastic Compliance Matrix: (Units=1/GPa)
#
#
# Indices 1 2 3 4 5 6 
#
# 1 0.017616 -0.006523 -0.006225 0.000000 0.000000 0.000000
# 2 -0.006523 0.015760 -0.000813 0.000000 0.000000 0.000000
# 3 -0.006225 -0.000813 0.011540 0.000000 0.000000 0.000000
# 4 0.000000 0.000000 0.000000 0.032023 0.000000 0.000000
# 5 0.000000 0.000000 0.000000 0.000000 0.077900 0.000000
# 6 0.000000 0.000000 0.000000 0.000000 0.000000 0.121403
#
#
# Mechanical properties :
#
#
# Convention : Reuss Voigt Hill
#
# Bulk Modulus (GPa) = 56.19680 58.07594 57.13637
# Shear Modulus (GPa) = 16.16579 21.72767 18.94673
#
# Velocity S-wave (km/s) = 2.91097 3.37478 3.15142
# Velocity P-wave (km/s) = 6.38399 6.75482 6.57202
#
# Compressibility (1/GPa) = 0.01779461
#
# Stress axis : x y z
#
# Youngs Moduli (GPa) = 56.76717 63.45021 86.65321
#
# Poissons Ratio (x) = 0.41388 0.53940
# Poissons Ratio (y) = 0.37029 0.07047
# Poissons Ratio (z) = 0.35337 0.05160
#
# Static dielectric constant tensor:
#      x y z
#    x 1.644200 0.000000 0.000000 
#    y 0.000000 1.713920 0.000000 
#    z 0.000000 0.000000 1.741640 
# 
# From -- ./inp_files/10659.got.cif
#   From: 2010.05.17/outbox.cif.g08.bks.cpg/sg64_6_cif.got.tgz:10659.got - 2010.06.03 16:29:19.
