data_PCOD9479866
_publ_section_title
;
Structure prediction by ZEFSAII (Michael W. Deem and Ramdas Pophale) SiO2 
 PCOD9479866
Probable space group: C M C A
;
_chemical_formula_sum "Si O2"
_cell_formula_units_Z 56
_cell_length_a 9.210074
_cell_length_b 24.270714
_cell_length_c 8.988051
_cell_angle_alpha 90.000000
_cell_angle_beta 90.000000
_cell_angle_gamma 90.000000
_cell_volume 2009.144627
_symmetry_space_group_name_H-M "C M C A"
_symmetry_group_IT_number 64
_symmetry_cell_setting 'orthorhombic'
loop_
_space_group_symop_operation_xyz
x,y,z
-x,1/2-y,1/2+z
x,-y,-z
-x,1/2+y,1/2-z
-x,-y,-z
x,1/2+y,1/2-z
-x,y,z
x,1/2-y,1/2+z
1/2+x,1/2+y,z
1/2-x,-y,1/2+z
1/2+x,1/2-y,-z
1/2-x,y,1/2-z
1/2-x,1/2-y,-z
1/2+x,y,1/2-z
1/2-x,1/2+y,z
1/2+x,-y,1/2+z
loop_
_atom_site_type_symbol
_atom_site_label
_atom_site_fract_x
_atom_site_fract_y
_atom_site_fract_z
Si Si1 0.751240 0.500000 0.000000
Si Si2 0.000000 0.641218 0.417638
Si Si3 0.500000 0.856472 0.085649
Si Si4 0.500000 0.279885 0.176670
Si Si5 0.750000 0.705484 0.250000
Si Si6 0.000000 0.432473 0.830487
Si Si7 0.750000 0.077396 0.750000
O O1 0.861074 0.535801 0.104679
O O2 0.677677 0.460417 0.121069
O O3 0.000000 0.663275 0.585488
O O4 0.853645 0.668501 0.351744
O O5 0.000000 0.580400 0.344259
O O6 0.500000 0.795146 0.147246
O O7 0.638849 0.886037 0.158005
O O8 0.500000 0.872931 0.913868
O O9 0.356194 0.244487 0.154709
#
# Coordination Sequence:
#
# PCOD9479866 Si02
#       7
#     8   8   8   8   8   8   8
#     4   9  20  39  60  86 126 166 198 262 330 374
#     4  11  24  41  67  96 121 166 223 262 308 391
#     4  10  22  38  59  87 121 162 204 257 316 377
#     4  11  23  43  67  91 128 173 214 261 324 384
#     4  10  25  43  62  94 136 166 206 275 333 372
#     4   9  21  41  61  86 126 167 205 255 324 384
#     4  10  21  37  58  86 118 158 208 255 319 380
#
# _framework density 27.872558000000001
#
# number of rings (size 3 to 8) (size 9 to 14) (size 15 to 20)
#    0.000    2.000    0.000    2.571    0.000   15.429 
#    0.000    0.000    0.000    0.000    0.000    0.000 
#    0.000    0.000    0.000    0.000    0.000    0.000 
#
# Total GULP energy -156977.213475 kJ/mol
# GULP energy per Si atom -5606.329053 kJ/mol
# Density = 2.780912 g / cm^3
# Si number density = 27.872558 Si / 1000 Ang^3
#
#
#
# Elastic Constant Matrix: (Units=GPa)
#
#
# Indices 1 2 3 4 5 6 
#
# 1 115.4027 18.8545 27.0234 0.0000 0.0000 0.0000
# 2 18.8545 74.5750 20.6821 0.0000 0.0000 0.0000
# 3 27.0234 20.6821 144.6598 0.0000 0.0000 0.0000
# 4 0.0000 0.0000 0.0000 51.2365 0.0000 0.0000
# 5 0.0000 0.0000 0.0000 0.0000 36.3275 0.0000
# 6 0.0000 0.0000 0.0000 0.0000 0.0000 22.9250
#
#
#
# Elastic Compliance Matrix: (Units=1/GPa)
#
#
# Indices 1 2 3 4 5 6 
#
# 1 0.009327 -0.001952 -0.001463 0.000000 0.000000 0.000000
# 2 -0.001952 0.014372 -0.001690 0.000000 0.000000 0.000000
# 3 -0.001463 -0.001690 0.007428 0.000000 0.000000 0.000000
# 4 0.000000 0.000000 0.000000 0.019517 0.000000 0.000000
# 5 0.000000 0.000000 0.000000 0.000000 0.027527 0.000000
# 6 0.000000 0.000000 0.000000 0.000000 0.000000 0.043621
#
#
# Mechanical properties :
#
#
# Convention : Reuss Voigt Hill
#
# Bulk Modulus (GPa) = 47.81209 51.97307 49.89258
# Shear Modulus (GPa) = 35.97789 39.96962 37.97375
#
# Velocity S-wave (km/s) = 3.59667 3.79094 3.69508
# Velocity P-wave (km/s) = 5.86848 6.15214 6.01199
#
# Compressibility (1/GPa) = 0.02091521
#
# Stress axis : x y z
#
# Youngs Moduli (GPa) = 107.21666 69.58167 134.63062
#
# Poissons Ratio (x) = 0.13584 0.19699
# Poissons Ratio (y) = 0.20932 0.22753
# Poissons Ratio (z) = 0.15688 0.11759
#
# Static dielectric constant tensor:
#      x y z
#    x 2.124570 0.000000 0.000000 
#    y 0.000000 2.202070 0.000000 
#    z 0.000000 0.000000 2.145320 
# 
# From -- ./inp_files/4536.got.cif
#   From: 2010.05.17/outbox.cif.g08.bks.cpg/sg64_3_cif.got.tgz:4536.got - 2010.06.03 16:29:19.
