data_PCOD9479261
_publ_section_title
;
Structure prediction by ZEFSAII (Michael W. Deem and Ramdas Pophale) SiO2 
 PCOD9479261
Probable space group: C M C A
;
_chemical_formula_sum "Si O2"
_cell_formula_units_Z 88
_cell_length_a 22.594863
_cell_length_b 8.859263
_cell_length_c 22.950200
_cell_angle_alpha 90.000000
_cell_angle_beta 90.000000
_cell_angle_gamma 90.000000
_cell_volume 4594.029520
_symmetry_space_group_name_H-M "C M C A"
_symmetry_group_IT_number 64
_symmetry_cell_setting 'orthorhombic'
loop_
_space_group_symop_operation_xyz
x,y,z
-x,1/2-y,1/2+z
x,-y,-z
-x,1/2+y,1/2-z
-x,-y,-z
x,1/2+y,1/2-z
-x,y,z
x,1/2-y,1/2+z
1/2+x,1/2+y,z
1/2-x,-y,1/2+z
1/2+x,1/2-y,-z
1/2-x,y,1/2-z
1/2-x,1/2-y,-z
1/2+x,y,1/2-z
1/2-x,1/2+y,z
1/2+x,-y,1/2+z
loop_
_atom_site_type_symbol
_atom_site_label
_atom_site_fract_x
_atom_site_fract_y
_atom_site_fract_z
Si Si1 0.429975 0.945141 0.933048
Si Si2 0.188200 0.229833 0.426802
Si Si3 0.375416 0.439893 0.765467
Si Si4 0.735087 0.000000 0.500000
Si Si5 0.297497 0.209336 0.699924
Si Si6 0.068251 0.345832 0.174449
O O1 0.500000 0.904068 0.923682
O O2 0.380739 0.817218 0.920511
O O3 0.415442 0.079157 0.887254
O O4 0.424356 0.000000 0.000000
O O5 0.222166 0.091422 0.456729
O O6 0.196163 0.376622 0.466598
O O7 0.221078 0.262354 0.365795
O O8 0.330188 0.360049 0.721247
O O9 0.342469 0.569561 0.800965
O O10 0.421923 0.527071 0.724417
O O11 0.397498 0.303837 0.805810
O O12 0.250000 0.176069 0.750000
O O13 0.000000 0.304777 0.171636
#
# Coordination Sequence:
#
# PCOD9479261 Si02
#       6
#    16  16  16   8  16  16
#     4  10  21  40  67  92 125 169 214 261 314 381
#     4  11  23  45  62  96 127 166 218 263 318 390
#     4  10  22  37  57  91 119 162 202 252 314 375
#     4  10  26  40  68  90 126 176 208 266 322 370
#     4  11  24  38  60  90 125 162 202 259 314 380
#     4  10  20  38  62  89 121 161 207 259 312 370
#
# _framework density 19.155297000000001
#
# number of rings (size 3 to 8) (size 9 to 14) (size 15 to 20)
#    0.000    1.636    2.727    1.091    5.091    1.455 
#    0.000    1.364    0.000    0.000    0.000    0.000 
#    0.000    0.000    0.000    0.000    0.000    0.000 
#
# Total GULP energy -245523.799659 kJ/mol
# GULP energy per Si atom -5580.086356 kJ/mol
# Density = 1.911170 g / cm^3
# Si number density = 19.155297 Si / 1000 Ang^3
#
#
#
# Elastic Constant Matrix: (Units=GPa)
#
#
# Indices 1 2 3 4 5 6 
#
# 1 44.9147 15.6011 32.4076 0.0000 0.0000 0.0000
# 2 15.6011 86.3497 42.7815 0.0000 0.0000 0.0000
# 3 32.4076 42.7815 131.3330 0.0000 0.0000 0.0000
# 4 0.0000 0.0000 0.0000 12.3849 0.0000 0.0000
# 5 0.0000 0.0000 0.0000 0.0000 20.6511 0.0000
# 6 0.0000 0.0000 0.0000 0.0000 0.0000 -6.4046
#
#
#
# Elastic Compliance Matrix: (Units=1/GPa)
#
#
# Indices 1 2 3 4 5 6 
#
# 1 0.027347 -0.001905 -0.006128 0.000000 0.000000 0.000000
# 2 -0.001905 0.013942 -0.004072 0.000000 0.000000 0.000000
# 3 -0.006128 -0.004072 0.010453 0.000000 0.000000 0.000000
# 4 0.000000 0.000000 0.000000 0.080743 0.000000 0.000000
# 5 0.000000 0.000000 0.000000 0.000000 0.048424 0.000000
# 6 0.000000 0.000000 0.000000 0.000000 0.000000 -0.156139
#
#
# Mechanical properties :
#
#
# Convention : Reuss Voigt Hill
#
# Bulk Modulus (GPa) = 36.31908 49.35309 42.83608
# Shear Modulus (GPa) = 85.97410 16.78010 51.37710
#
# Velocity S-wave (km/s) = 6.70672 2.96295 5.18455
# Velocity P-wave (km/s) = 8.88679 6.12585 7.63220
#
# Compressibility (1/GPa) = 0.02753374
#
# Stress axis : x y z
#
# Youngs Moduli (GPa) = 36.56644 71.72442 95.67009
#
# Poissons Ratio (x) = 0.13664 0.58623
# Poissons Ratio (y) = 0.06966 0.38953
# Poissons Ratio (z) = 0.22407 0.29203
#
# Static dielectric constant tensor:
#      x y z
#    x 1.693390 0.000000 0.000000 
#    y 0.000000 1.628040 0.000000 
#    z 0.000000 0.000000 1.714180 
# 
# From -- ./inp_files/41349.got.cif
#   From: 2010.05.17/outbox.cif.g08.bks.cpg/sg64_21_cif.got.tgz:41349.got - 2010.06.03 16:29:19.
