data_PCOD9479375
_publ_section_title
;
Structure prediction by ZEFSAII (Michael W. Deem and Ramdas Pophale) SiO2 
 PCOD9479375
Probable space group: C M C A
;
_chemical_formula_sum "Si O2"
_cell_formula_units_Z 64
_cell_length_a 11.064085
_cell_length_b 13.281146
_cell_length_c 19.079357
_cell_angle_alpha 90.000000
_cell_angle_beta 90.000000
_cell_angle_gamma 90.000000
_cell_volume 2803.591850
_symmetry_space_group_name_H-M "C M C A"
_symmetry_group_IT_number 64
_symmetry_cell_setting 'orthorhombic'
loop_
_space_group_symop_operation_xyz
x,y,z
-x,1/2-y,1/2+z
x,-y,-z
-x,1/2+y,1/2-z
-x,-y,-z
x,1/2+y,1/2-z
-x,y,z
x,1/2-y,1/2+z
1/2+x,1/2+y,z
1/2-x,-y,1/2+z
1/2+x,1/2-y,-z
1/2-x,y,1/2-z
1/2-x,1/2-y,-z
1/2+x,y,1/2-z
1/2-x,1/2+y,z
1/2+x,-y,1/2+z
loop_
_atom_site_type_symbol
_atom_site_label
_atom_site_fract_x
_atom_site_fract_y
_atom_site_fract_z
Si Si1 0.635836 0.127986 0.440898
Si Si2 0.291396 0.906086 0.409818
Si Si3 0.633478 0.000329 0.800910
Si Si4 0.203879 0.276429 0.827020
O O1 0.500000 0.154298 0.461373
O O2 0.718596 0.130203 0.510149
O O3 0.685232 0.195677 0.378563
O O4 0.639577 0.012399 0.414318
O O5 0.354099 0.819457 0.364251
O O6 0.168191 0.935171 0.369446
O O7 0.500000 0.026746 0.773549
O O8 0.750000 0.011963 0.750000
O O9 0.633683 0.881535 0.820199
O O10 0.250000 0.249358 0.750000
#
# Coordination Sequence:
#
# PCOD9479375 Si02
#       4
#    16  16  16  16
#     4  10  22  40  61  88 124 164 209 260 312 374
#     4  10  20  39  62  89 121 163 212 259 313 371
#     4  10  23  41  62  93 131 169 212 265 318 375
#     4  10  22  39  60  90 124 162 208 261 317 377
#
# _framework density 22.827860000000001
#
# number of rings (size 3 to 8) (size 9 to 14) (size 15 to 20)
#    0.000    2.000    0.000    3.000    0.000   14.000 
#    0.000   15.000    0.000    0.000    0.000    0.000 
#    0.000    0.000    0.000    0.000    0.000    0.000 
#
# Total GULP energy -178663.280277 kJ/mol
# GULP energy per Si atom -5583.227509 kJ/mol
# Density = 2.277590 g / cm^3
# Si number density = 22.827860 Si / 1000 Ang^3
#
#
#
# Elastic Constant Matrix: (Units=GPa)
#
#
# Indices 1 2 3 4 5 6 
#
# 1 122.2622 24.3800 49.1193 0.0000 0.0000 0.0000
# 2 24.3800 111.7944 63.4229 0.0000 0.0000 0.0000
# 3 49.1193 63.4229 172.2035 0.0000 0.0000 0.0000
# 4 0.0000 0.0000 0.0000 37.3835 0.0000 0.0000
# 5 0.0000 0.0000 0.0000 0.0000 13.8390 0.0000
# 6 0.0000 0.0000 0.0000 0.0000 0.0000 26.1111
#
#
#
# Elastic Compliance Matrix: (Units=1/GPa)
#
#
# Indices 1 2 3 4 5 6 
#
# 1 0.009276 -0.000660 -0.002403 0.000000 0.000000 0.000000
# 2 -0.000660 0.011355 -0.003994 0.000000 0.000000 0.000000
# 3 -0.002403 -0.003994 0.007963 0.000000 0.000000 0.000000
# 4 0.000000 0.000000 0.000000 0.026750 0.000000 0.000000
# 5 0.000000 0.000000 0.000000 0.000000 0.072260 0.000000
# 6 0.000000 0.000000 0.000000 0.000000 0.000000 0.038298
#
#
# Mechanical properties :
#
#
# Convention : Reuss Voigt Hill
#
# Bulk Modulus (GPa) = 69.05454 75.56717 72.31085
# Shear Modulus (GPa) = 27.05026 33.42258 30.23642
#
# Velocity S-wave (km/s) = 3.44607 3.83052 3.64337
# Velocity P-wave (km/s) = 6.79335 7.26215 7.03166
#
# Compressibility (1/GPa) = 0.01448131
#
# Stress axis : x y z
#
# Youngs Moduli (GPa) = 107.80418 88.07018 125.57441
#
# Poissons Ratio (x) = 0.05810 0.30175
# Poissons Ratio (y) = 0.07112 0.50151
# Poissons Ratio (z) = 0.25905 0.35173
#
# Static dielectric constant tensor:
#      x y z
#    x 1.824230 0.000000 0.000000 
#    y 0.000000 1.881320 0.000000 
#    z 0.000000 0.000000 1.859330 
# 
# From -- ./inp_files/30445.got.cif
#   From: 2010.05.17/outbox.cif.g08.bks.cpg/sg64_16_cif.got.tgz:30445.got - 2010.06.03 16:29:19.
