data_PCOD9479563
_publ_section_title
;
Structure prediction by ZEFSAII (Michael W. Deem and Ramdas Pophale) SiO2 
 PCOD9479563
Probable space group: C M C A
;
_chemical_formula_sum "Si O2"
_cell_formula_units_Z 56
_cell_length_a 15.810650
_cell_length_b 30.831594
_cell_length_c 5.204082
_cell_angle_alpha 90.000000
_cell_angle_beta 90.000000
_cell_angle_gamma 90.000000
_cell_volume 2536.821059
_symmetry_space_group_name_H-M "C M C A"
_symmetry_group_IT_number 64
_symmetry_cell_setting 'orthorhombic'
loop_
_space_group_symop_operation_xyz
x,y,z
-x,1/2-y,1/2+z
x,-y,-z
-x,1/2+y,1/2-z
-x,-y,-z
x,1/2+y,1/2-z
-x,y,z
x,1/2-y,1/2+z
1/2+x,1/2+y,z
1/2-x,-y,1/2+z
1/2+x,1/2-y,-z
1/2-x,y,1/2-z
1/2-x,1/2-y,-z
1/2+x,y,1/2-z
1/2-x,1/2+y,z
1/2+x,-y,1/2+z
loop_
_atom_site_type_symbol
_atom_site_label
_atom_site_fract_x
_atom_site_fract_y
_atom_site_fract_z
Si Si1 0.808094 0.000000 0.500000
Si Si2 0.597125 0.360015 0.823722
Si Si3 0.845622 0.231576 0.022031
Si Si4 0.349329 0.909136 0.186721
O O1 0.860929 0.958522 0.407715
O O2 0.750000 0.987905 0.750000
O O3 0.500000 0.345997 0.804283
O O4 0.651870 0.318528 0.906396
O O5 0.626366 0.378788 0.551484
O O6 0.605123 0.395264 0.051510
O O7 0.887010 0.259060 0.249351
O O8 0.750000 0.250000 0.000000
O O9 0.250000 0.905210 0.250000
#
# Coordination Sequence:
#
# PCOD9479563 Si02
#       4
#     8  16  16  16
#     4  10  20  42  65 106 133 168 232 286 320 388
#     4  12  26  43  65 102 141 176 223 285 345 400
#     4  10  23  40  63  92 128 168 231 271 329 396
#     4  11  24  42  73  97 134 180 228 276 333 400
#
# _framework density 22.074873
#
# number of rings (size 3 to 8) (size 9 to 14) (size 15 to 20)
#    0.000    1.143    0.000    6.857   12.000    1.143 
#    0.000    4.286    0.000    0.000    0.000    0.000 
#    0.000    0.000    0.000    0.000    0.000    0.000 
#
# Total GULP energy -156544.043017 kJ/mol
# GULP energy per Si atom -5590.858679 kJ/mol
# Density = 2.202463 g / cm^3
# Si number density = 22.074873 Si / 1000 Ang^3
#
#
#
# Elastic Constant Matrix: (Units=GPa)
#
#
# Indices 1 2 3 4 5 6 
#
# 1 76.3244 35.2355 14.9582 0.0000 0.0000 0.0000
# 2 35.2355 79.6145 5.5562 0.0000 0.0000 0.0000
# 3 14.9582 5.5562 157.2041 0.0000 0.0000 0.0000
# 4 0.0000 0.0000 0.0000 40.3706 0.0000 0.0000
# 5 0.0000 0.0000 0.0000 0.0000 -139.1660 0.0000
# 6 0.0000 0.0000 0.0000 0.0000 0.0000 -17.5307
#
#
#
# Elastic Compliance Matrix: (Units=1/GPa)
#
#
# Indices 1 2 3 4 5 6 
#
# 1 0.016741 -0.007316 -0.001334 0.000000 0.000000 0.000000
# 2 -0.007316 0.015789 0.000138 0.000000 0.000000 0.000000
# 3 -0.001334 0.000138 0.006483 0.000000 0.000000 0.000000
# 4 0.000000 0.000000 0.000000 0.024771 0.000000 0.000000
# 5 0.000000 0.000000 0.000000 0.000000 -0.007186 0.000000
# 6 0.000000 0.000000 0.000000 0.000000 0.000000 -0.057043
#
#
# Mechanical properties :
#
#
# Convention : Reuss Voigt Hill
#
# Bulk Modulus (GPa) = 45.47849 47.18253 46.33051
# Shear Modulus (GPa) = 209.12691 -6.10568 101.51062
#
# Velocity S-wave (km/s) = 9.74376 -1.66490 6.78856
# Velocity P-wave (km/s) = 12.13403 4.21004 9.08182
#
# Compressibility (1/GPa) = 0.02198842
#
# Stress axis : x y z
#
# Youngs Moduli (GPa) = 59.73379 63.33611 154.24383
#
# Poissons Ratio (x) = 0.46337 0.20582
# Poissons Ratio (y) = 0.43701 -0.02130
# Poissons Ratio (z) = 0.07971 -0.00875
#
# Static dielectric constant tensor:
#      x y z
#    x 1.860650 0.000000 0.000000 
#    y 0.000000 1.824570 0.000000 
#    z 0.000000 0.000000 1.849700 
# 
# From -- ./inp_files/859.got.cif
#   From: 2010.05.17/outbox.cif.g08.bks.cpg/sg64_1_cif.got.tgz:859.got - 2010.06.03 16:29:19.
