data_PCOD9479240
_publ_section_title
;
Structure prediction by ZEFSAII (Michael W. Deem and Ramdas Pophale) SiO2 
 PCOD9479240
Probable space group: C M C A
;
_chemical_formula_sum "Si O2"
_cell_formula_units_Z 112
_cell_length_a 11.381624
_cell_length_b 33.015869
_cell_length_c 13.273527
_cell_angle_alpha 90.000000
_cell_angle_beta 90.000000
_cell_angle_gamma 90.000000
_cell_volume 4987.849082
_symmetry_space_group_name_H-M "C M C A"
_symmetry_group_IT_number 64
_symmetry_cell_setting 'orthorhombic'
loop_
_space_group_symop_operation_xyz
x,y,z
-x,1/2-y,1/2+z
x,-y,-z
-x,1/2+y,1/2-z
-x,-y,-z
x,1/2+y,1/2-z
-x,y,z
x,1/2-y,1/2+z
1/2+x,1/2+y,z
1/2-x,-y,1/2+z
1/2+x,1/2-y,-z
1/2-x,y,1/2-z
1/2-x,1/2-y,-z
1/2+x,y,1/2-z
1/2-x,1/2+y,z
1/2+x,-y,1/2+z
loop_
_atom_site_type_symbol
_atom_site_label
_atom_site_fract_x
_atom_site_fract_y
_atom_site_fract_z
Si Si1 0.371380 0.731157 0.361463
Si Si2 0.803418 0.044301 0.497668
Si Si3 0.866276 0.826878 0.183564
Si Si4 0.623398 0.454816 0.724160
Si Si5 0.131492 0.303998 0.635051
Si Si6 0.868210 0.381016 0.516616
Si Si7 0.624289 0.049253 0.778377
O O1 0.500000 0.722175 0.409356
O O2 0.364424 0.778973 0.341131
O O3 0.248067 0.717188 0.409817
O O4 0.372903 0.708714 0.252134
O O5 0.877947 0.044581 0.396447
O O6 0.716435 0.081432 0.489882
O O7 0.873464 0.048409 0.600998
O O8 0.743318 0.000000 0.500000
O O9 0.750000 0.835129 0.250000
O O10 0.855261 0.852337 0.081095
O O11 0.000000 0.834541 0.225794
O O12 0.500000 0.436869 0.761361
O O13 0.750000 0.436520 0.750000
O O14 0.626481 0.502217 0.757610
O O15 0.148368 0.351340 0.611905
O O16 0.000000 0.293646 0.593231
O O17 0.000000 0.396607 0.517119
O O18 0.500000 0.067210 0.742418
O O19 0.750000 0.067941 0.750000
#
# Coordination Sequence:
#
# PCOD9479240 Si02
#       7
#    16  16  16  16  16  16  16
#     4   9  17  33  59  89 118 152 191 227 281 361
#     4  10  21  39  61  83 116 167 220 262 309 369
#     4  10  20  38  61  89 123 158 196 241 298 360
#     4   9  18  35  59  87 115 148 197 257 315 370
#     4   9  17  34  58  84 117 153 189 233 290 350
#     4  10  23  39  56  85 124 159 198 257 311 352
#     4   9  18  34  59  88 115 148 197 257 316 370
#
# _framework density 22.454568999999999
#
# number of rings (size 3 to 8) (size 9 to 14) (size 15 to 20)
#    0.000    2.571    1.429    0.429    0.000    4.286 
#    2.571    7.857    0.000    0.000    0.000    0.000 
#    0.000    0.000    0.000    0.000    0.000    0.000 
#
# Total GULP energy -312211.196885 kJ/mol
# GULP energy per Si atom -5575.199944 kJ/mol
# Density = 2.240346 g / cm^3
# Si number density = 22.454569 Si / 1000 Ang^3
#
#
#
# Elastic Constant Matrix: (Units=GPa)
#
#
# Indices 1 2 3 4 5 6 
#
# 1 241.5132 68.9789 27.0976 0.0000 0.0000 0.0000
# 2 68.9789 104.2826 18.9862 0.0000 0.0000 0.0000
# 3 27.0976 18.9862 56.8644 0.0000 0.0000 0.0000
# 4 0.0000 0.0000 0.0000 25.9405 0.0000 0.0000
# 5 0.0000 0.0000 0.0000 0.0000 -10.0979 0.0000
# 6 0.0000 0.0000 0.0000 0.0000 0.0000 8.5847
#
#
#
# Elastic Compliance Matrix: (Units=1/GPa)
#
#
# Indices 1 2 3 4 5 6 
#
# 1 0.005210 -0.003188 -0.001418 0.000000 0.000000 0.000000
# 2 -0.003188 0.012161 -0.002541 0.000000 0.000000 0.000000
# 3 -0.001418 -0.002541 0.019110 0.000000 0.000000 0.000000
# 4 0.000000 0.000000 0.000000 0.038550 0.000000 0.000000
# 5 0.000000 0.000000 0.000000 0.000000 -0.099031 0.000000
# 6 0.000000 0.000000 0.000000 0.000000 0.000000 0.116487
#
#
# Mechanical properties :
#
#
# Convention : Reuss Voigt Hill
#
# Bulk Modulus (GPa) = 45.07366 70.30951 57.69159
# Shear Modulus (GPa) = 43.79143 24.05861 33.92502
#
# Velocity S-wave (km/s) = 4.42092 3.27683 3.89116
# Velocity P-wave (km/s) = 6.79531 6.75993 6.77765
#
# Compressibility (1/GPa) = 0.02218591
#
# Stress axis : x y z
#
# Youngs Moduli (GPa) = 191.92839 82.23131 52.32855
#
# Poissons Ratio (x) = 0.26217 0.07422
# Poissons Ratio (y) = 0.61190 0.13297
# Poissons Ratio (z) = 0.27223 0.20896
#
# Static dielectric constant tensor:
#      x y z
#    x 1.926080 0.000000 0.000000 
#    y 0.000000 1.779510 0.000000 
#    z 0.000000 0.000000 1.847930 
# 
# From -- ./inp_files/22734.got.cif
#   From: 2010.05.17/outbox.cif.g08.bks.cpg/sg64_12_cif.got.tgz:22734.got - 2010.06.03 16:29:19.
