data_PCOD9479649
_publ_section_title
;
Structure prediction by ZEFSAII (Michael W. Deem and Ramdas Pophale) SiO2 
 PCOD9479649
Probable space group: C M C A
;
_chemical_formula_sum "Si O2"
_cell_formula_units_Z 64
_cell_length_a 12.129573
_cell_length_b 16.977461
_cell_length_c 17.056288
_cell_angle_alpha 90.000000
_cell_angle_beta 90.000000
_cell_angle_gamma 90.000000
_cell_volume 3512.390345
_symmetry_space_group_name_H-M "C M C A"
_symmetry_group_IT_number 64
_symmetry_cell_setting 'orthorhombic'
loop_
_space_group_symop_operation_xyz
x,y,z
-x,1/2-y,1/2+z
x,-y,-z
-x,1/2+y,1/2-z
-x,-y,-z
x,1/2+y,1/2-z
-x,y,z
x,1/2-y,1/2+z
1/2+x,1/2+y,z
1/2-x,-y,1/2+z
1/2+x,1/2-y,-z
1/2-x,y,1/2-z
1/2-x,1/2-y,-z
1/2+x,y,1/2-z
1/2-x,1/2+y,z
1/2+x,-y,1/2+z
loop_
_atom_site_type_symbol
_atom_site_label
_atom_site_fract_x
_atom_site_fract_y
_atom_site_fract_z
Si Si1 0.000000 0.065981 0.106448
Si Si2 0.124153 0.592431 0.014343
Si Si3 0.266560 0.700216 0.919354
Si Si4 0.225713 0.855966 0.839674
Si Si5 0.500000 0.885179 0.423558
O O1 0.891439 0.106234 0.140475
O O2 0.000000 0.971146 0.117950
O O3 0.000000 0.089274 0.014706
O O4 0.188833 0.610941 0.094991
O O5 0.000000 0.624707 0.019951
O O6 0.120847 0.500000 0.000000
O O7 0.186154 0.628420 0.939048
O O8 0.230482 0.761490 0.853139
O O9 0.389694 0.666165 0.909020
O O10 0.250000 0.750000 0.000000
O O11 0.250000 0.874788 0.750000
#
# Coordination Sequence:
#
# PCOD9479649 Si02
#       5
#     8  16  16  16   8
#     4  11  22  39  66  88 117 163 209 248 291 370
#     4  10  21  38  62  88 118 158 203 249 296 355
#     4  10  21  34  62  88 118 155 198 255 289 359
#     4  11  25  38  61  89 126 157 197 246 313 362
#     4  11  20  39  64  92 114 157 219 252 290 344
#
# _framework density 18.221209000000002
#
# number of rings (size 3 to 8) (size 9 to 14) (size 15 to 20)
#    0.000    1.500    5.000    1.500   10.500    0.000 
#    0.000    5.000    0.000    0.000    0.000    0.000 
#    0.000    0.000    0.000    0.000    0.000    0.000 
#
# Total GULP energy -178382.015803 kJ/mol
# GULP energy per Si atom -5574.437994 kJ/mol
# Density = 1.817974 g / cm^3
# Si number density = 18.221209 Si / 1000 Ang^3
#
#
#
# Elastic Constant Matrix: (Units=GPa)
#
#
# Indices 1 2 3 4 5 6 
#
# 1 195.6530 70.1775 50.4618 0.0000 0.0000 0.0000
# 2 70.1775 112.1391 21.9228 0.0000 0.0000 0.0000
# 3 50.4618 21.9228 80.7562 0.0000 0.0000 0.0000
# 4 0.0000 0.0000 0.0000 15.9344 0.0000 0.0000
# 5 0.0000 0.0000 0.0000 0.0000 5.5544 0.0000
# 6 0.0000 0.0000 0.0000 0.0000 0.0000 106.1987
#
#
#
# Elastic Compliance Matrix: (Units=1/GPa)
#
#
# Indices 1 2 3 4 5 6 
#
# 1 0.007458 -0.003967 -0.003583 0.000000 0.000000 0.000000
# 2 -0.003967 0.011527 -0.000651 0.000000 0.000000 0.000000
# 3 -0.003583 -0.000651 0.014799 0.000000 0.000000 0.000000
# 4 0.000000 0.000000 0.000000 0.062757 0.000000 0.000000
# 5 0.000000 0.000000 0.000000 0.000000 0.180037 0.000000
# 6 0.000000 0.000000 0.000000 0.000000 0.000000 0.009416
#
#
# Mechanical properties :
#
#
# Convention : Reuss Voigt Hill
#
# Bulk Modulus (GPa) = 57.52952 74.85249 66.19101
# Shear Modulus (GPa) = 16.22374 41.93657 29.08016
#
# Velocity S-wave (km/s) = 2.98716 4.80263 3.99927
# Velocity P-wave (km/s) = 6.59840 8.48072 7.59808
#
# Compressibility (1/GPa) = 0.01738238
#
# Stress axis : x y z
#
# Youngs Moduli (GPa) = 134.08153 86.75181 67.57335
#
# Poissons Ratio (x) = 0.34413 0.24215
# Poissons Ratio (y) = 0.53188 0.04396
# Poissons Ratio (z) = 0.48048 0.05644
#
# Static dielectric constant tensor:
#      x y z
#    x 1.653510 0.000000 0.000000 
#    y 0.000000 1.766110 0.000000 
#    z 0.000000 0.000000 1.602810 
# 
# From -- ./inp_files/21994.got.cif
#   From: 2010.05.17/outbox.cif.g08.bks.cpg/sg64_11_cif.got.tgz:21994.got - 2010.06.03 16:29:19.
