data_PCOD9479251
_publ_section_title
;
Structure prediction by ZEFSAII (Michael W. Deem and Ramdas Pophale) SiO2 
 PCOD9479251
Probable space group: C M C A
;
_chemical_formula_sum "Si O2"
_cell_formula_units_Z 88
_cell_length_a 10.740812
_cell_length_b 14.075331
_cell_length_c 32.451648
_cell_angle_alpha 90.000000
_cell_angle_beta 90.000000
_cell_angle_gamma 90.000000
_cell_volume 4906.055855
_symmetry_space_group_name_H-M "C M C A"
_symmetry_group_IT_number 64
_symmetry_cell_setting 'orthorhombic'
loop_
_space_group_symop_operation_xyz
x,y,z
-x,1/2-y,1/2+z
x,-y,-z
-x,1/2+y,1/2-z
-x,-y,-z
x,1/2+y,1/2-z
-x,y,z
x,1/2-y,1/2+z
1/2+x,1/2+y,z
1/2-x,-y,1/2+z
1/2+x,1/2-y,-z
1/2-x,y,1/2-z
1/2-x,1/2-y,-z
1/2+x,y,1/2-z
1/2-x,1/2+y,z
1/2+x,-y,1/2+z
loop_
_atom_site_type_symbol
_atom_site_label
_atom_site_fract_x
_atom_site_fract_y
_atom_site_fract_z
Si Si1 0.210821 0.805754 0.854683
Si Si2 0.000000 0.540854 0.954181
Si Si3 0.500000 0.549492 0.044460
Si Si4 0.000000 0.248934 0.580619
Si Si5 0.853417 0.619914 0.662315
Si Si6 0.361848 0.558612 0.219211
Si Si7 0.254830 0.015524 0.094306
O O1 0.115624 0.759746 0.887678
O O2 0.295809 0.724552 0.834573
O O3 0.144722 0.867700 0.818994
O O4 0.279414 0.886496 0.881343
O O5 0.873921 0.505660 0.932782
O O6 0.000000 0.653624 0.945769
O O7 0.000000 0.500000 0.000000
O O8 0.500000 0.663725 0.048435
O O9 0.626807 0.522194 0.068325
O O10 0.500000 0.500000 0.000000
O O11 0.845783 0.548217 0.701106
O O12 0.774696 0.566066 0.627324
O O13 0.000000 0.624732 0.651351
O O14 0.500000 0.565357 0.238031
O O15 0.250000 0.579383 0.250000
#
# Coordination Sequence:
#
# PCOD9479251 Si02
#       7
#    16   8   8   8  16  16  16
#     4  10  20  39  65  86 115 165 206 243 294 364
#     4  12  24  40  56  93 131 152 190 268 324 355
#     4  10  20  40  60  82 109 161 205 240 295 365
#     4  10  20  40  64  83 116 167 203 238 309 370
#     4  10  20  38  62  86 116 157 206 244 289 361
#     4  10  22  41  61  90 127 159 197 249 301 354
#     4  10  21  38  60  84 119 156 200 247 298 363
#
# _framework density 17.937016
#
# number of rings (size 3 to 8) (size 9 to 14) (size 15 to 20)
#    0.000    1.818    3.636    0.545    1.273    1.455 
#    9.818    4.545    0.000    0.000    0.000    0.000 
#    0.000    0.000    0.000    0.000    0.000    0.000 
#
# Total GULP energy -245220.409065 kJ/mol
# GULP energy per Si atom -5573.191115 kJ/mol
# Density = 1.789619 g / cm^3
# Si number density = 17.937016 Si / 1000 Ang^3
#
#
#
# Elastic Constant Matrix: (Units=GPa)
#
#
# Indices 1 2 3 4 5 6 
#
# 1 112.8524 41.9779 40.2749 0.0000 0.0000 0.0000
# 2 41.9779 113.5957 29.9057 0.0000 0.0000 0.0000
# 3 40.2749 29.9057 67.4615 0.0000 0.0000 0.0000
# 4 0.0000 0.0000 0.0000 17.9073 0.0000 0.0000
# 5 0.0000 0.0000 0.0000 0.0000 -19.3947 0.0000
# 6 0.0000 0.0000 0.0000 0.0000 0.0000 0.2180
#
#
#
# Elastic Compliance Matrix: (Units=1/GPa)
#
#
# Indices 1 2 3 4 5 6 
#
# 1 0.012047 -0.002896 -0.005908 0.000000 0.000000 0.000000
# 2 -0.002896 0.010663 -0.002998 0.000000 0.000000 0.000000
# 3 -0.005908 -0.002998 0.019679 0.000000 0.000000 0.000000
# 4 0.000000 0.000000 0.000000 0.055843 0.000000 0.000000
# 5 0.000000 0.000000 0.000000 0.000000 -0.051561 0.000000
# 6 0.000000 0.000000 0.000000 0.000000 0.000000 4.588010
#
#
# Mechanical properties :
#
#
# Convention : Reuss Voigt Hill
#
# Bulk Modulus (GPa) = 53.23492 57.58073 55.40783
# Shear Modulus (GPa) = 1.07192 11.86285 6.46738
#
# Velocity S-wave (km/s) = 0.77388 2.57449 1.90090
# Velocity P-wave (km/s) = 5.52646 6.40380 5.98124
#
# Compressibility (1/GPa) = 0.01878466
#
# Stress axis : x y z
#
# Youngs Moduli (GPa) = 83.00795 93.78536 50.81481
#
# Poissons Ratio (x) = 0.27164 0.30022
# Poissons Ratio (y) = 0.24043 0.15232
# Poissons Ratio (z) = 0.49042 0.28113
#
# Static dielectric constant tensor:
#      x y z
#    x 1.638320 0.000000 0.000000 
#    y 0.000000 1.617970 0.000000 
#    z 0.000000 0.000000 1.598000 
# 
# From -- ./inp_files/49253.got.cif
#   From: 2010.05.17/outbox.cif.g08.bks.cpg/sg64_25_cif.got.tgz:49253.got - 2010.06.03 16:29:19.
