data_PCOD9479431
_publ_section_title
;
Structure prediction by ZEFSAII (Michael W. Deem and Ramdas Pophale) SiO2 
 PCOD9479431
Probable space group: C M C A
;
_chemical_formula_sum "Si O2"
_cell_formula_units_Z 56
_cell_length_a 19.890090
_cell_length_b 13.352247
_cell_length_c 8.579277
_cell_angle_alpha 90.000000
_cell_angle_beta 90.000000
_cell_angle_gamma 90.000000
_cell_volume 2278.462033
_symmetry_space_group_name_H-M "C M C A"
_symmetry_group_IT_number 64
_symmetry_cell_setting 'orthorhombic'
loop_
_space_group_symop_operation_xyz
x,y,z
-x,1/2-y,1/2+z
x,-y,-z
-x,1/2+y,1/2-z
-x,-y,-z
x,1/2+y,1/2-z
-x,y,z
x,1/2-y,1/2+z
1/2+x,1/2+y,z
1/2-x,-y,1/2+z
1/2+x,1/2-y,-z
1/2-x,y,1/2-z
1/2-x,1/2-y,-z
1/2+x,y,1/2-z
1/2-x,1/2+y,z
1/2+x,-y,1/2+z
loop_
_atom_site_type_symbol
_atom_site_label
_atom_site_fract_x
_atom_site_fract_y
_atom_site_fract_z
Si Si1 0.500000 0.358430 0.051452
Si Si2 0.243275 0.000000 0.000000
Si Si3 0.000000 0.369131 0.819722
Si Si4 0.358988 0.137480 0.057109
Si Si5 0.139787 0.636663 0.684041
O O1 0.500000 0.242692 0.106234
O O2 0.432138 0.402155 0.122251
O O3 0.500000 0.362234 0.865978
O O4 0.294192 0.928451 0.905210
O O5 0.197009 0.069190 0.892300
O O6 0.928283 0.409728 0.877645
O O7 0.351809 0.249297 0.123351
O O8 0.361428 0.141633 0.869978
#
# Coordination Sequence:
#
# PCOD9479431 Si02
#       5
#     8   8   8  16  16
#     4  10  20  39  68  97 129 169 217 272 328 389
#     4  12  28  42  62  96 136 178 216 264 328 394
#     4  10  20  39  68  97 129 169 217 272 328 389
#     4  11  24  44  70  98 132 173 220 274 329 390
#     4  11  24  44  70  98 132 173 220 274 329 390
#
# _framework density 24.577984000000001
#
# number of rings (size 3 to 8) (size 9 to 14) (size 15 to 20)
#    0.000    1.143    0.000    9.429    0.000   10.286 
#    0.000    0.000    0.000    0.000    0.000    0.000 
#    0.000    0.000    0.000    0.000    0.000    0.000 
#
# Total GULP energy -157100.699447 kJ/mol
# GULP energy per Si atom -5610.739266 kJ/mol
# Density = 2.452204 g / cm^3
# Si number density = 24.577984 Si / 1000 Ang^3
#
#
#
# Elastic Constant Matrix: (Units=GPa)
#
#
# Indices 1 2 3 4 5 6 
#
# 1 240.1594 68.7230 70.8872 0.0000 0.0000 0.0000
# 2 68.7230 124.8770 61.5373 0.0000 0.0000 0.0000
# 3 70.8872 61.5373 169.4052 0.0000 0.0000 0.0000
# 4 0.0000 0.0000 0.0000 36.5602 0.0000 0.0000
# 5 0.0000 0.0000 0.0000 0.0000 32.9516 0.0000
# 6 0.0000 0.0000 0.0000 0.0000 0.0000 113.8314
#
#
#
# Elastic Compliance Matrix: (Units=1/GPa)
#
#
# Indices 1 2 3 4 5 6 
#
# 1 0.005195 -0.002178 -0.001383 0.000000 0.000000 0.000000
# 2 -0.002178 0.010667 -0.002963 0.000000 0.000000 0.000000
# 3 -0.001383 -0.002963 0.007558 0.000000 0.000000 0.000000
# 4 0.000000 0.000000 0.000000 0.027352 0.000000 0.000000
# 5 0.000000 0.000000 0.000000 0.000000 0.030348 0.000000
# 6 0.000000 0.000000 0.000000 0.000000 0.000000 0.008785
#
#
# Mechanical properties :
#
#
# Convention : Reuss Voigt Hill
#
# Bulk Modulus (GPa) = 96.41301 104.08183 100.24742
# Shear Modulus (GPa) = 46.98809 58.88826 52.93817
#
# Velocity S-wave (km/s) = 4.37715 4.90018 4.64603
# Velocity P-wave (km/s) = 8.05348 8.62874 8.34607
#
# Compressibility (1/GPa) = 0.01037204
#
# Stress axis : x y z
#
# Youngs Moduli (GPa) = 192.48460 93.75034 132.30682
#
# Poissons Ratio (x) = 0.20415 0.18297
# Poissons Ratio (y) = 0.41915 0.39209
# Poissons Ratio (z) = 0.26619 0.27783
#
# Static dielectric constant tensor:
#      x y z
#    x 1.978620 0.000000 0.000000 
#    y 0.000000 1.973430 0.000000 
#    z 0.000000 0.000000 1.881950 
# 
# From -- ./inp_files/7660.got.cif
#   From: 2010.05.17/outbox.cif.g08.bks.cpg/sg64_4_cif.got.tgz:7660.got - 2010.06.03 16:29:19.
