data_PCOD9479285
_publ_section_title
;
Structure prediction by ZEFSAII (Michael W. Deem and Ramdas Pophale) SiO2 
 PCOD9479285
Probable space group: C M C A
;
_chemical_formula_sum "Si O2"
_cell_formula_units_Z 96
_cell_length_a 11.528114
_cell_length_b 23.677214
_cell_length_c 17.307640
_cell_angle_alpha 90.000000
_cell_angle_beta 90.000000
_cell_angle_gamma 90.000000
_cell_volume 4724.183030
_symmetry_space_group_name_H-M "C M C A"
_symmetry_group_IT_number 64
_symmetry_cell_setting 'orthorhombic'
loop_
_space_group_symop_operation_xyz
x,y,z
-x,1/2-y,1/2+z
x,-y,-z
-x,1/2+y,1/2-z
-x,-y,-z
x,1/2+y,1/2-z
-x,y,z
x,1/2-y,1/2+z
1/2+x,1/2+y,z
1/2-x,-y,1/2+z
1/2+x,1/2-y,-z
1/2-x,y,1/2-z
1/2-x,1/2-y,-z
1/2+x,y,1/2-z
1/2-x,1/2+y,z
1/2+x,-y,1/2+z
loop_
_atom_site_type_symbol
_atom_site_label
_atom_site_fract_x
_atom_site_fract_y
_atom_site_fract_z
Si Si1 0.760362 0.440717 0.666012
Si Si2 0.000000 0.491014 0.620409
Si Si3 0.362250 0.969558 0.077134
Si Si4 0.862662 0.159995 0.578964
Si Si5 0.361762 0.741832 0.193210
Si Si6 0.500000 0.096484 0.522559
Si Si7 0.704040 0.339384 0.946938
O O1 0.750000 0.414308 0.750000
O O2 0.884252 0.471450 0.662288
O O3 0.670378 0.490171 0.647494
O O4 0.748436 0.393000 0.601190
O O5 0.000000 0.557013 0.597905
O O6 0.000000 0.450698 0.544892
O O7 0.500000 0.967739 0.068839
O O8 0.322837 0.905218 0.085948
O O9 0.311704 0.000000 0.000000
O O10 0.842909 0.196302 0.655692
O O11 0.802113 0.185288 0.502706
O O12 0.000000 0.160000 0.565643
O O13 0.500000 0.737397 0.220329
O O14 0.250000 0.731154 0.250000
O O15 0.349030 0.700538 0.118870
O O16 0.391629 0.136411 0.505697
#
# Coordination Sequence:
#
# PCOD9479285 Si02
#       7
#    16   8  16  16  16   8  16
#     4  11  23  35  58  90 130 165 208 261 328 389
#     4   9  20  34  52  84 121 164 208 254 317 383
#     4  10  20  38  63  90 123 166 213 262 312 376
#     4  10  22  40  66  96 126 166 222 271 320 391
#     4  11  25  46  67  95 135 175 218 273 333 397
#     4   9  18  34  62  84 116 160 209 266 313 373
#     4  11  20  40  64  94 124 164 215 272 323 383
#
# _framework density 20.320975000000001
#
# number of rings (size 3 to 8) (size 9 to 14) (size 15 to 20)
#    0.000    1.667    2.500    2.000    3.500    1.333 
#    1.500    0.000    0.000    0.000    0.000    0.000 
#    0.000    0.000    0.000    0.000    0.000    0.000 
#
# Total GULP energy -267556.749394 kJ/mol
# GULP energy per Si atom -5574.098946 kJ/mol
# Density = 2.027472 g / cm^3
# Si number density = 20.320975 Si / 1000 Ang^3
#
#
#
# Elastic Constant Matrix: (Units=GPa)
#
#
# Indices 1 2 3 4 5 6 
#
# 1 72.4935 21.0480 32.1447 0.0000 0.0000 0.0000
# 2 21.0480 79.3094 -0.5449 0.0000 0.0000 0.0000
# 3 32.1447 -0.5449 49.0769 0.0000 0.0000 0.0000
# 4 0.0000 0.0000 0.0000 25.3328 0.0000 0.0000
# 5 0.0000 0.0000 0.0000 0.0000 53.9038 0.0000
# 6 0.0000 0.0000 0.0000 0.0000 0.0000 20.1293
#
#
#
# Elastic Compliance Matrix: (Units=1/GPa)
#
#
# Indices 1 2 3 4 5 6 
#
# 1 0.021900 -0.005911 -0.014410 0.000000 0.000000 0.000000
# 2 -0.005911 0.014205 0.004029 0.000000 0.000000 0.000000
# 3 -0.014410 0.004029 0.029859 0.000000 0.000000 0.000000
# 4 0.000000 0.000000 0.000000 0.039474 0.000000 0.000000
# 5 0.000000 0.000000 0.000000 0.000000 0.018552 0.000000
# 6 0.000000 0.000000 0.000000 0.000000 0.000000 0.049679
#
#
# Mechanical properties :
#
#
# Convention : Reuss Voigt Hill
#
# Bulk Modulus (GPa) = 29.95676 34.01947 31.98811
# Shear Modulus (GPa) = 23.00121 29.75533 26.37827
#
# Velocity S-wave (km/s) = 3.36801 3.83073 3.60680
# Velocity P-wave (km/s) = 5.46795 6.02854 5.75508
#
# Compressibility (1/GPa) = 0.03338145
#
# Stress axis : x y z
#
# Youngs Moduli (GPa) = 45.66175 70.39629 33.49045
#
# Poissons Ratio (x) = 0.41612 0.48260
# Poissons Ratio (y) = 0.26991 -0.13495
# Poissons Ratio (z) = 0.65798 -0.28366
#
# Static dielectric constant tensor:
#      x y z
#    x 1.787500 0.000000 0.000000 
#    y 0.000000 1.760650 0.000000 
#    z 0.000000 0.000000 1.735620 
# 
# From -- ./inp_files/31132.got.cif
#   From: 2010.05.17/outbox.cif.g08.bks.cpg/sg64_16_cif.got.tgz:31132.got - 2010.06.03 16:29:19.
