data_PCOD9479169
_publ_section_title
;
Structure prediction by ZEFSAII (Michael W. Deem and Ramdas Pophale) SiO2 
 PCOD9479169
Probable space group: C M C A
;
_chemical_formula_sum "Si O2"
_cell_formula_units_Z 64
_cell_length_a 13.628855
_cell_length_b 19.157666
_cell_length_c 9.894522
_cell_angle_alpha 90.000000
_cell_angle_beta 90.000000
_cell_angle_gamma 90.000000
_cell_volume 2583.430526
_symmetry_space_group_name_H-M "C M C A"
_symmetry_group_IT_number 64
_symmetry_cell_setting 'orthorhombic'
loop_
_space_group_symop_operation_xyz
x,y,z
-x,1/2-y,1/2+z
x,-y,-z
-x,1/2+y,1/2-z
-x,-y,-z
x,1/2+y,1/2-z
-x,y,z
x,1/2-y,1/2+z
1/2+x,1/2+y,z
1/2-x,-y,1/2+z
1/2+x,1/2-y,-z
1/2-x,y,1/2-z
1/2-x,1/2-y,-z
1/2+x,y,1/2-z
1/2-x,1/2+y,z
1/2+x,-y,1/2+z
loop_
_atom_site_type_symbol
_atom_site_label
_atom_site_fract_x
_atom_site_fract_y
_atom_site_fract_z
Si Si1 0.385609 0.104419 0.348730
Si Si2 0.754978 0.351866 0.082907
Si Si3 0.115925 0.228175 0.366420
Si Si4 0.389070 0.026125 0.845079
O O1 0.500000 0.101521 0.390485
O O2 0.312942 0.107910 0.473558
O O3 0.372820 0.174102 0.257642
O O4 0.365913 0.038068 0.253439
O O5 0.678872 0.297964 0.150977
O O6 0.818341 0.408935 0.159949
O O7 0.835674 0.307934 0.997387
O O8 0.000000 0.241022 0.385347
O O9 0.500000 0.048481 0.813292
O O10 0.387741 0.000000 0.000000
#
# Coordination Sequence:
#
# PCOD9479169 Si02
#       4
#    16  16  16  16
#     4  10  21  40  67  97 131 174 219 270 332 389
#     4  11  21  37  67  98 124 177 218 265 327 397
#     4  10  21  37  61  95 129 162 213 273 325 382
#     4  10  20  37  65  97 130 169 220 275 324 389
#
# _framework density 24.773261999999999
#
# number of rings (size 3 to 8) (size 9 to 14) (size 15 to 20)
#    0.000    1.750    2.500    2.250    0.000    0.000 
#    0.000    2.500   11.000   15.000    0.000    0.000 
#    0.000    0.000    0.000    0.000    0.000    0.000 
#
# Total GULP energy -179549.759922 kJ/mol
# GULP energy per Si atom -5610.929998 kJ/mol
# Density = 2.471688 g / cm^3
# Si number density = 24.773262 Si / 1000 Ang^3
#
#
#
# Elastic Constant Matrix: (Units=GPa)
#
#
# Indices 1 2 3 4 5 6 
#
# 1 227.6432 117.0147 61.3548 0.0000 0.0000 0.0000
# 2 117.0147 197.8788 69.9796 0.0000 0.0000 0.0000
# 3 61.3548 69.9796 59.7595 0.0000 0.0000 0.0000
# 4 0.0000 0.0000 0.0000 9.7647 0.0000 0.0000
# 5 0.0000 0.0000 0.0000 0.0000 20.0259 0.0000
# 6 0.0000 0.0000 0.0000 0.0000 0.0000 52.3421
#
#
#
# Elastic Compliance Matrix: (Units=1/GPa)
#
#
# Indices 1 2 3 4 5 6 
#
# 1 0.006800 -0.002649 -0.003879 0.000000 0.000000 0.000000
# 2 -0.002649 0.009658 -0.008590 0.000000 0.000000 0.000000
# 3 -0.003879 -0.008590 0.030775 0.000000 0.000000 0.000000
# 4 0.000000 0.000000 0.000000 0.102410 0.000000 0.000000
# 5 0.000000 0.000000 0.000000 0.000000 0.049935 0.000000
# 6 0.000000 0.000000 0.000000 0.000000 0.000000 0.019105
#
#
# Mechanical properties :
#
#
# Convention : Reuss Voigt Hill
#
# Bulk Modulus (GPa) = 58.83431 109.10884 83.97157
# Shear Modulus (GPa) = 19.63975 32.22204 25.93089
#
# Velocity S-wave (km/s) = 2.81869 3.61040 3.23883
# Velocity P-wave (km/s) = 5.86464 7.84338 6.92505
#
# Compressibility (1/GPa) = 0.01699688
#
# Stress axis : x y z
#
# Youngs Moduli (GPa) = 147.05340 103.54110 32.49367
#
# Poissons Ratio (x) = 0.27432 0.12605
# Poissons Ratio (y) = 0.38960 0.27911
# Poissons Ratio (z) = 0.57046 0.88938
#
# Static dielectric constant tensor:
#      x y z
#    x 1.911180 0.000000 0.000000 
#    y 0.000000 1.919540 0.000000 
#    z 0.000000 0.000000 2.131260 
# 
# From -- ./inp_files/14002.got.cif
#   From: 2010.05.17/outbox.cif.g08.bks.cpg/sg64_8_cif.got.tgz:14002.got - 2010.06.03 16:29:19.
