data_PCOD9479990
_publ_section_title
;
Structure prediction by ZEFSAII (Michael W. Deem and Ramdas Pophale) SiO2 
 PCOD9479990
Probable space group: C M C A
;
_chemical_formula_sum "Si O2"
_cell_formula_units_Z 96
_cell_length_a 22.251607
_cell_length_b 8.829444
_cell_length_c 23.397455
_cell_angle_alpha 90.000000
_cell_angle_beta 90.000000
_cell_angle_gamma 90.000000
_cell_volume 4596.882025
_symmetry_space_group_name_H-M "C M C A"
_symmetry_group_IT_number 64
_symmetry_cell_setting 'orthorhombic'
loop_
_space_group_symop_operation_xyz
x,y,z
-x,1/2-y,1/2+z
x,-y,-z
-x,1/2+y,1/2-z
-x,-y,-z
x,1/2+y,1/2-z
-x,y,z
x,1/2-y,1/2+z
1/2+x,1/2+y,z
1/2-x,-y,1/2+z
1/2+x,1/2-y,-z
1/2-x,y,1/2-z
1/2-x,1/2-y,-z
1/2+x,y,1/2-z
1/2-x,1/2+y,z
1/2+x,-y,1/2+z
loop_
_atom_site_type_symbol
_atom_site_label
_atom_site_fract_x
_atom_site_fract_y
_atom_site_fract_z
Si Si1 0.567411 0.164212 0.174695
Si Si2 0.072319 0.337488 0.430177
Si Si3 0.767735 0.530881 0.313236
Si Si4 0.331100 0.199919 0.854669
Si Si5 0.927816 0.311287 0.564140
Si Si6 0.118294 0.099702 0.753619
O O1 0.500000 0.107155 0.165726
O O2 0.596318 0.212675 0.114181
O O3 0.567688 0.324437 0.208065
O O4 0.599807 0.042290 0.214593
O O5 0.087429 0.514006 0.418478
O O6 0.084343 0.302341 0.496369
O O7 0.000000 0.332277 0.424078
O O8 0.750000 0.096067 0.250000
O O9 0.713169 0.438996 0.341262
O O10 0.788384 0.655296 0.358218
O O11 0.824504 0.428226 0.294435
O O12 0.382972 0.201259 0.901841
O O13 0.364821 0.222287 0.794432
O O14 0.000000 0.286877 0.573667
#
# Coordination Sequence:
#
# PCOD9479990 Si02
#       6
#    16  16  16  16  16  16
#     4  11  22  36  57  93 132 163 198 253 321 379
#     4   8  17  35  62  90 127 172 209 248 313 399
#     4  10  21  38  58  87 118 163 215 242 305 371
#     4  11  22  37  63  90 117 161 206 265 298 371
#     4   9  18  37  64  96 124 164 212 258 321 378
#     4  11  22  37  57  89 124 166 200 255 309 373
#
# _framework density 20.883721000000001
#
# number of rings (size 3 to 8) (size 9 to 14) (size 15 to 20)
#    0.000    2.000    1.667    4.000    2.333    1.333 
#    0.000    0.833    0.000   12.000    0.000    0.000 
#    0.000    0.000    0.000    0.000    0.000    0.000 
#
# Total GULP energy -267408.831500 kJ/mol
# GULP energy per Si atom -5571.017323 kJ/mol
# Density = 2.083619 g / cm^3
# Si number density = 20.883721 Si / 1000 Ang^3
#
#
#
# Elastic Constant Matrix: (Units=GPa)
#
#
# Indices 1 2 3 4 5 6 
#
# 1 86.3652 36.0095 44.2696 0.0000 0.0000 0.0000
# 2 36.0095 51.2129 44.8557 0.0000 0.0000 0.0000
# 3 44.2696 44.8557 63.8442 0.0000 0.0000 0.0000
# 4 0.0000 0.0000 0.0000 27.3712 0.0000 0.0000
# 5 0.0000 0.0000 0.0000 0.0000 24.8388 0.0000
# 6 0.0000 0.0000 0.0000 0.0000 0.0000 24.0295
#
#
#
# Elastic Compliance Matrix: (Units=1/GPa)
#
#
# Indices 1 2 3 4 5 6 
#
# 1 0.018367 -0.004575 -0.009521 0.000000 0.000000 0.000000
# 2 -0.004575 0.051906 -0.033296 0.000000 0.000000 0.000000
# 3 -0.009521 -0.033296 0.045658 0.000000 0.000000 0.000000
# 4 0.000000 0.000000 0.000000 0.036535 0.000000 0.000000
# 5 0.000000 0.000000 0.000000 0.000000 0.040260 0.000000
# 6 0.000000 0.000000 0.000000 0.000000 0.000000 0.041616
#
#
# Mechanical properties :
#
#
# Convention : Reuss Voigt Hill
#
# Bulk Modulus (GPa) = 47.28851 50.18799 48.73825
# Shear Modulus (GPa) = 14.87329 20.33374 17.60351
#
# Velocity S-wave (km/s) = 2.67159 3.12375 2.90648
# Velocity P-wave (km/s) = 5.67534 6.09054 5.88660
#
# Compressibility (1/GPa) = 0.02114678
#
# Stress axis : x y z
#
# Youngs Moduli (GPa) = 54.44654 19.26568 21.90187
#
# Poissons Ratio (x) = 0.08814 0.20853
# Poissons Ratio (y) = 0.24908 0.72924
# Poissons Ratio (z) = 0.51840 0.64147
#
# Static dielectric constant tensor:
#      x y z
#    x 1.774940 0.000000 0.000000 
#    y 0.000000 1.839190 0.000000 
#    z 0.000000 0.000000 1.755380 
# 
# From -- ./inp_files/46608.got.cif
#   From: 2010.05.17/outbox.cif.g08.bks.cpg/sg64_24_cif.got.tgz:46608.got - 2010.06.03 16:29:19.
