data_PCOD9479222
_publ_section_title
;
Structure prediction by ZEFSAII (Michael W. Deem and Ramdas Pophale) SiO2 
 PCOD9479222
Probable space group: C M C A
;
_chemical_formula_sum "Si O2"
_cell_formula_units_Z 64
_cell_length_a 10.626098
_cell_length_b 35.456063
_cell_length_c 9.013779
_cell_angle_alpha 90.000000
_cell_angle_beta 90.000000
_cell_angle_gamma 90.000000
_cell_volume 3396.027772
_symmetry_space_group_name_H-M "C M C A"
_symmetry_group_IT_number 64
_symmetry_cell_setting 'orthorhombic'
loop_
_space_group_symop_operation_xyz
x,y,z
-x,1/2-y,1/2+z
x,-y,-z
-x,1/2+y,1/2-z
-x,-y,-z
x,1/2+y,1/2-z
-x,y,z
x,1/2-y,1/2+z
1/2+x,1/2+y,z
1/2-x,-y,1/2+z
1/2+x,1/2-y,-z
1/2-x,y,1/2-z
1/2-x,1/2-y,-z
1/2+x,y,1/2-z
1/2-x,1/2+y,z
1/2+x,-y,1/2+z
loop_
_atom_site_type_symbol
_atom_site_label
_atom_site_fract_x
_atom_site_fract_y
_atom_site_fract_z
Si Si1 0.250000 0.833052 0.250000
Si Si2 0.358527 0.781291 0.005664
Si Si3 0.250000 0.667056 0.250000
Si Si4 0.149711 0.966632 0.880404
Si Si5 0.856069 0.885627 0.992194
O O1 0.341791 0.805546 0.156615
O O2 0.302410 0.860976 0.374507
O O3 0.500000 0.765741 0.998258
O O4 0.250000 0.750000 0.000000
O O5 0.330131 0.807792 0.864071
O O6 0.162155 0.640102 0.347403
O O7 0.250000 0.974325 0.750000
O O8 0.193963 0.927226 0.955712
O O9 0.000000 0.962735 0.833805
O O10 0.153632 0.000000 0.000000
O O11 0.000000 0.891735 0.028189
#
# Coordination Sequence:
#
# PCOD9479222 Si02
#       5
#     8  16   8  16  16
#     4  10  23  38  59  88 118 156 200 250 299 356
#     4  11  24  40  60  87 118 154 199 246 302 361
#     4  10  21  38  61  84 112 156 196 246 293 356
#     4  10  22  40  63  92 126 162 202 245 295 353
#     4  10  20  38  60  85 119 157 197 246 297 349
#
# _framework density 18.845545999999999
#
# number of rings (size 3 to 8) (size 9 to 14) (size 15 to 20)
#    0.000    1.750    1.250    2.250    1.750    8.500 
#    0.000    1.250    0.000    0.000    0.000    0.000 
#    0.000    0.000    0.000    0.000    0.000    0.000 
#
# Total GULP energy -178419.404018 kJ/mol
# GULP energy per Si atom -5575.606376 kJ/mol
# Density = 1.880265 g / cm^3
# Si number density = 18.845546 Si / 1000 Ang^3
#
#
#
# Elastic Constant Matrix: (Units=GPa)
#
#
# Indices 1 2 3 4 5 6 
#
# 1 103.1704 43.3126 35.4218 0.0000 0.0000 0.0000
# 2 43.3126 119.5867 50.2385 0.0000 0.0000 0.0000
# 3 35.4218 50.2385 105.0614 0.0000 0.0000 0.0000
# 4 0.0000 0.0000 0.0000 10.2204 0.0000 0.0000
# 5 0.0000 0.0000 0.0000 0.0000 11.0370 0.0000
# 6 0.0000 0.0000 0.0000 0.0000 0.0000 27.8553
#
#
#
# Elastic Compliance Matrix: (Units=1/GPa)
#
#
# Indices 1 2 3 4 5 6 
#
# 1 0.011912 -0.003288 -0.002444 0.000000 0.000000 0.000000
# 2 -0.003288 0.011372 -0.004329 0.000000 0.000000 0.000000
# 3 -0.002444 -0.004329 0.012412 0.000000 0.000000 0.000000
# 4 0.000000 0.000000 0.000000 0.097844 0.000000 0.000000
# 5 0.000000 0.000000 0.000000 0.000000 0.090605 0.000000
# 6 0.000000 0.000000 0.000000 0.000000 0.000000 0.035900
#
#
# Mechanical properties :
#
#
# Convention : Reuss Voigt Hill
#
# Bulk Modulus (GPa) = 64.20902 65.08491 64.64696
# Shear Modulus (GPa) = 17.52189 23.07891 20.30040
#
# Velocity S-wave (km/s) = 3.05251 3.50327 3.28563
# Velocity P-wave (km/s) = 6.82414 7.13967 6.98369
#
# Compressibility (1/GPa) = 0.01557414
#
# Stress axis : x y z
#
# Youngs Moduli (GPa) = 83.94878 87.93859 80.56426
#
# Poissons Ratio (x) = 0.28911 0.19691
# Poissons Ratio (y) = 0.27599 0.34878
# Poissons Ratio (z) = 0.20518 0.38071
#
# Static dielectric constant tensor:
#      x y z
#    x 1.659880 0.000000 0.000000 
#    y 0.000000 1.681130 0.000000 
#    z 0.000000 0.000000 1.642870 
# 
# From -- ./inp_files/4655.got.cif
#   From: 2010.05.17/outbox.cif.g08.bks.cpg/sg64_3_cif.got.tgz:4655.got - 2010.06.03 16:29:19.
