data_PCOD9479411
_publ_section_title
;
Structure prediction by ZEFSAII (Michael W. Deem and Ramdas Pophale) SiO2 
 PCOD9479411
Probable space group: C M C A
;
_chemical_formula_sum "Si O2"
_cell_formula_units_Z 104
_cell_length_a 22.682743
_cell_length_b 28.651264
_cell_length_c 8.230543
_cell_angle_alpha 90.000000
_cell_angle_beta 90.000000
_cell_angle_gamma 90.000000
_cell_volume 5348.941483
_symmetry_space_group_name_H-M "C M C A"
_symmetry_group_IT_number 64
_symmetry_cell_setting 'orthorhombic'
loop_
_space_group_symop_operation_xyz
x,y,z
-x,1/2-y,1/2+z
x,-y,-z
-x,1/2+y,1/2-z
-x,-y,-z
x,1/2+y,1/2-z
-x,y,z
x,1/2-y,1/2+z
1/2+x,1/2+y,z
1/2-x,-y,1/2+z
1/2+x,1/2-y,-z
1/2-x,y,1/2-z
1/2-x,1/2-y,-z
1/2+x,y,1/2-z
1/2-x,1/2+y,z
1/2+x,-y,1/2+z
loop_
_atom_site_type_symbol
_atom_site_label
_atom_site_fract_x
_atom_site_fract_y
_atom_site_fract_z
Si Si1 0.692855 0.965418 0.353636
Si Si2 0.399883 0.823567 0.365857
Si Si3 0.263437 0.894376 0.932790
Si Si4 0.771850 0.201390 0.934586
Si Si5 0.500000 0.627762 0.468468
Si Si6 0.000000 0.224587 0.672113
Si Si7 0.380699 0.092473 0.879674
Si Si8 0.000000 0.664388 0.393766
O O1 0.750000 0.982911 0.250000
O O2 0.719035 0.919437 0.442051
O O3 0.639004 0.950622 0.236521
O O4 0.677294 0.000000 0.500000
O O5 0.342359 0.800878 0.440732
O O6 0.441516 0.785950 0.276997
O O7 0.378807 0.862031 0.236595
O O8 0.442188 0.846942 0.499887
O O9 0.250000 0.908208 0.750000
O O10 0.254128 0.839725 0.956919
O O11 0.329292 0.906415 0.987022
O O12 0.750000 0.194437 0.750000
O O13 0.750000 0.250000 0.000000
O O14 0.500000 0.680895 0.544792
O O15 0.556546 0.598992 0.533246
O O16 0.500000 0.637858 0.276739
O O17 0.000000 0.278766 0.624152
#
# Coordination Sequence:
#
# PCOD9479411 Si02
#       8
#    16  16  16  16   8   8  16   8
#     4  10  20  39  65  95 123 157 200 255 312 378
#     4  10  21  39  56  77 116 160 203 252 312 360
#     4  11  22  38  61  90 121 159 204 254 310 372
#     4  12  24  38  54  84 122 165 202 250 316 377
#     4  10  22  36  59  85 116 163 206 258 324 354
#     4   9  21  39  55  76 110 157 215 272 293 350
#     4  10  21  41  61  84 126 159 199 253 314 366
#     4  11  23  35  59  87 109 160 226 266 290 366
#
# _framework density 19.443100000000001
#
# number of rings (size 3 to 8) (size 9 to 14) (size 15 to 20)
#    0.000    1.538    3.077    2.769    4.308    1.231 
#    0.000    0.385    0.000    0.000    0.000   19.385 
#    0.000    0.000    0.000    0.000    0.000    0.000 
#
# Total GULP energy -290279.224609 kJ/mol
# GULP energy per Si atom -5582.292781 kJ/mol
# Density = 1.939885 g / cm^3
# Si number density = 19.443100 Si / 1000 Ang^3
#
#
#
# Elastic Constant Matrix: (Units=GPa)
#
#
# Indices 1 2 3 4 5 6 
#
# 1 129.6579 16.4441 60.3323 0.0000 0.0000 0.0000
# 2 16.4441 64.9750 25.1028 0.0000 0.0000 0.0000
# 3 60.3323 25.1028 128.1344 0.0000 0.0000 0.0000
# 4 0.0000 0.0000 0.0000 26.7731 0.0000 0.0000
# 5 0.0000 0.0000 0.0000 0.0000 28.5634 0.0000
# 6 0.0000 0.0000 0.0000 0.0000 0.0000 -2.9790
#
#
#
# Elastic Compliance Matrix: (Units=1/GPa)
#
#
# Indices 1 2 3 4 5 6 
#
# 1 0.009911 -0.000763 -0.004517 0.000000 0.000000 0.000000
# 2 -0.000763 0.016710 -0.002914 0.000000 0.000000 0.000000
# 3 -0.004517 -0.002914 0.010502 0.000000 0.000000 0.000000
# 4 0.000000 0.000000 0.000000 0.037351 0.000000 0.000000
# 5 0.000000 0.000000 0.000000 0.000000 0.035010 0.000000
# 6 0.000000 0.000000 0.000000 0.000000 0.000000 -0.335678
#
#
# Mechanical properties :
#
#
# Convention : Reuss Voigt Hill
#
# Bulk Modulus (GPa) = 48.23043 58.50287 53.36665
# Shear Modulus (GPa) = -24.64350 25.19736 0.27693
#
# Velocity S-wave (km/s) = -3.56401 3.60384 0.37781
# Velocity P-wave (km/s) = 2.81488 6.88996 5.26284
#
# Compressibility (1/GPa) = 0.02073380
#
# Stress axis : x y z
#
# Youngs Moduli (GPa) = 100.89424 59.84584 95.21816
#
# Poissons Ratio (x) = 0.04567 0.43013
# Poissons Ratio (y) = 0.07700 0.27749
# Poissons Ratio (z) = 0.45577 0.17441
#
# Static dielectric constant tensor:
#      x y z
#    x 1.665810 0.000000 0.000000 
#    y 0.000000 1.670530 0.000000 
#    z 0.000000 0.000000 1.710350 
# 
# From -- ./inp_files/9706.got.cif
#   From: 2010.05.17/outbox.cif.g08.bks.cpg/sg64_5_cif.got.tgz:9706.got - 2010.06.03 16:29:19.
