data_PCOD9479472
_publ_section_title
;
Structure prediction by ZEFSAII (Michael W. Deem and Ramdas Pophale) SiO2 
 PCOD9479472
Probable space group: C M C A
;
_chemical_formula_sum "Si O2"
_cell_formula_units_Z 104
_cell_length_a 24.080413
_cell_length_b 16.311846
_cell_length_c 13.570463
_cell_angle_alpha 90.000000
_cell_angle_beta 90.000000
_cell_angle_gamma 90.000000
_cell_volume 5330.423428
_symmetry_space_group_name_H-M "C M C A"
_symmetry_group_IT_number 64
_symmetry_cell_setting 'orthorhombic'
loop_
_space_group_symop_operation_xyz
x,y,z
-x,1/2-y,1/2+z
x,-y,-z
-x,1/2+y,1/2-z
-x,-y,-z
x,1/2+y,1/2-z
-x,y,z
x,1/2-y,1/2+z
1/2+x,1/2+y,z
1/2-x,-y,1/2+z
1/2+x,1/2-y,-z
1/2-x,y,1/2-z
1/2-x,1/2-y,-z
1/2+x,y,1/2-z
1/2-x,1/2+y,z
1/2+x,-y,1/2+z
loop_
_atom_site_type_symbol
_atom_site_label
_atom_site_fract_x
_atom_site_fract_y
_atom_site_fract_z
Si Si1 0.894815 0.465607 0.664037
Si Si2 0.725669 0.157430 0.999256
Si Si3 0.063102 0.183713 0.037277
Si Si4 0.437952 0.361514 0.191206
Si Si5 0.694262 0.000000 0.500000
Si Si6 0.649654 0.785933 0.160107
Si Si7 0.809697 0.366994 0.782709
O O1 0.928032 0.399636 0.599158
O O2 0.932729 0.540612 0.694668
O O3 0.845774 0.499330 0.594158
O O4 0.862387 0.421231 0.752340
O O5 0.689188 0.153444 0.900192
O O6 0.750000 0.250000 0.000000
O O7 0.692178 0.148934 0.101288
O O8 0.769958 0.083503 0.999957
O O9 0.110124 0.243204 0.079025
O O10 0.000000 0.213525 0.052079
O O11 0.070728 0.165794 0.921879
O O12 0.500000 0.334991 0.220836
O O13 0.390554 0.326040 0.260383
O O14 0.683986 0.715503 0.217135
O O15 0.750000 0.403969 0.750000
#
# Coordination Sequence:
#
# PCOD9479472 Si02
#       7
#    16  16  16  16   8  16  16
#     4  11  22  38  61  91 126 156 205 269 320 371
#     4  12  25  43  62  92 133 170 211 256 316 385
#     4  10  20  40  64  89 120 159 210 273 325 369
#     4  11  23  38  63  93 118 160 216 260 317 383
#     4  12  24  38  63  94 127 164 210 256 316 380
#     4  11  24  38  63  88 125 166 204 261 318 381
#     4  11  22  40  60  91 126 163 205 259 310 382
#
# _framework density 19.510645
#
# number of rings (size 3 to 8) (size 9 to 14) (size 15 to 20)
#    0.000    0.923    4.615    2.769    4.308    1.231 
#    0.000    0.000    0.000    3.692    0.000    0.000 
#    0.000    0.000    0.000    0.000    0.000    0.000 
#
# Total GULP energy -290633.323927 kJ/mol
# GULP energy per Si atom -5589.102383 kJ/mol
# Density = 1.946624 g / cm^3
# Si number density = 19.510645 Si / 1000 Ang^3
#
#
#
# Elastic Constant Matrix: (Units=GPa)
#
#
# Indices 1 2 3 4 5 6 
#
# 1 72.6654 7.4962 12.9171 0.0000 0.0000 0.0000
# 2 7.4962 46.6325 -2.5318 0.0000 0.0000 0.0000
# 3 12.9171 -2.5318 56.9027 0.0000 0.0000 0.0000
# 4 0.0000 0.0000 0.0000 17.6468 0.0000 0.0000
# 5 0.0000 0.0000 0.0000 0.0000 23.5542 0.0000
# 6 0.0000 0.0000 0.0000 0.0000 0.0000 18.9731
#
#
#
# Elastic Compliance Matrix: (Units=1/GPa)
#
#
# Indices 1 2 3 4 5 6 
#
# 1 0.014634 -0.002539 -0.003435 0.000000 0.000000 0.000000
# 2 -0.002539 0.021937 0.001552 0.000000 0.000000 0.000000
# 3 -0.003435 0.001552 0.018423 0.000000 0.000000 0.000000
# 4 0.000000 0.000000 0.000000 0.056668 0.000000 0.000000
# 5 0.000000 0.000000 0.000000 0.000000 0.042455 0.000000
# 6 0.000000 0.000000 0.000000 0.000000 0.000000 0.052706
#
#
# Mechanical properties :
#
#
# Convention : Reuss Voigt Hill
#
# Bulk Modulus (GPa) = 21.66823 23.55151 22.60987
# Shear Modulus (GPa) = 21.64040 22.58942 22.11491
#
# Velocity S-wave (km/s) = 3.33402 3.40634 3.37037
# Velocity P-wave (km/s) = 5.09420 5.25054 5.17296
#
# Compressibility (1/GPa) = 0.04615052
#
# Stress axis : x y z
#
# Youngs Moduli (GPa) = 68.33297 45.58576 54.28088
#
# Poissons Ratio (x) = 0.11574 0.18645
# Poissons Ratio (y) = 0.17349 -0.08427
# Poissons Ratio (z) = 0.23472 -0.07077
#
# Static dielectric constant tensor:
#      x y z
#    x 1.713270 0.000000 0.000000 
#    y 0.000000 1.694960 0.000000 
#    z 0.000000 0.000000 1.671490 
# 
# From -- ./inp_files/19213.got.cif
#   From: 2010.05.17/outbox.cif.g08.bks.cpg/sg64_10_cif.got.tgz:19213.got - 2010.06.03 16:29:19.
