data_PCOD9479872
_publ_section_title
;
Structure prediction by ZEFSAII (Michael W. Deem and Ramdas Pophale) SiO2 
 PCOD9479872
Probable space group: C M C A
;
_chemical_formula_sum "Si O2"
_cell_formula_units_Z 112
_cell_length_a 14.360688
_cell_length_b 11.600886
_cell_length_c 31.296515
_cell_angle_alpha 90.000000
_cell_angle_beta 90.000000
_cell_angle_gamma 90.000000
_cell_volume 5213.896257
_symmetry_space_group_name_H-M "C M C A"
_symmetry_group_IT_number 64
_symmetry_cell_setting 'orthorhombic'
loop_
_space_group_symop_operation_xyz
x,y,z
-x,1/2-y,1/2+z
x,-y,-z
-x,1/2+y,1/2-z
-x,-y,-z
x,1/2+y,1/2-z
-x,y,z
x,1/2-y,1/2+z
1/2+x,1/2+y,z
1/2-x,-y,1/2+z
1/2+x,1/2-y,-z
1/2-x,y,1/2-z
1/2-x,1/2-y,-z
1/2+x,y,1/2-z
1/2-x,1/2+y,z
1/2+x,-y,1/2+z
loop_
_atom_site_type_symbol
_atom_site_label
_atom_site_fract_x
_atom_site_fract_y
_atom_site_fract_z
Si Si1 0.607026 0.320461 0.396732
Si Si2 0.106772 0.931092 0.633559
Si Si3 0.387711 0.080696 0.563480
Si Si4 0.855899 0.295128 0.266542
Si Si5 0.204545 0.292158 0.363112
Si Si6 0.611680 0.828320 0.524746
Si Si7 0.144480 0.537875 0.232366
O O1 0.500000 0.283070 0.387864
O O2 0.607800 0.458050 0.396172
O O3 0.683835 0.285768 0.361657
O O4 0.639477 0.269631 0.441968
O O5 0.000000 0.892070 0.638236
O O6 0.168220 0.827106 0.617335
O O7 0.141854 0.966051 0.680875
O O8 0.500000 0.094044 0.570534
O O9 0.330363 0.108157 0.605698
O O10 0.356289 0.162806 0.524115
O O11 0.371198 0.951081 0.547342
O O12 0.750000 0.291975 0.250000
O O13 0.844991 0.303742 0.317622
O O14 0.894686 0.166319 0.256362
O O15 0.896459 0.416007 0.249055
O O16 0.500000 0.818237 0.520940
O O17 0.250000 0.539027 0.250000
#
# Coordination Sequence:
#
# PCOD9479872 Si02
#       7
#    16  16  16  16  16  16  16
#     4  10  21  37  58  87 122 159 201 245 302 365
#     4  10  22  40  59  87 127 160 190 250 321 362
#     4   9  18  36  60  88 121 157 199 255 310 355
#     4   9  18  34  54  83 111 154 200 245 299 358
#     4  11  22  35  63  90 117 160 207 251 301 368
#     4   8  17  36  59  83 121 161 196 251 309 358
#     4   9  17  34  57  78 111 159 197 241 300 365
#
# _framework density 21.481057
#
# number of rings (size 3 to 8) (size 9 to 14) (size 15 to 20)
#    0.000    2.571    0.000    3.000    2.000    0.571 
#    2.571    4.286    0.000   18.000    0.000    0.000 
#    0.000    0.000    0.000    0.000    0.000    0.000 
#
# Total GULP energy -312172.750048 kJ/mol
# GULP energy per Si atom -5574.513394 kJ/mol
# Density = 2.143216 g / cm^3
# Si number density = 21.481057 Si / 1000 Ang^3
#
#
#
# Elastic Constant Matrix: (Units=GPa)
#
#
# Indices 1 2 3 4 5 6 
#
# 1 91.9047 23.8306 2.9455 0.0000 0.0000 0.0000
# 2 23.8306 101.2526 31.5416 0.0000 0.0000 0.0000
# 3 2.9455 31.5416 53.0200 0.0000 0.0000 0.0000
# 4 0.0000 0.0000 0.0000 41.6994 0.0000 0.0000
# 5 0.0000 0.0000 0.0000 0.0000 -20.4145 0.0000
# 6 0.0000 0.0000 0.0000 0.0000 0.0000 11.7358
#
#
#
# Elastic Compliance Matrix: (Units=1/GPa)
#
#
# Indices 1 2 3 4 5 6 
#
# 1 0.011651 -0.003118 0.001208 0.000000 0.000000 0.000000
# 2 -0.003118 0.012958 -0.007535 0.000000 0.000000 0.000000
# 3 0.001208 -0.007535 0.023276 0.000000 0.000000 0.000000
# 4 0.000000 0.000000 0.000000 0.023981 0.000000 0.000000
# 5 0.000000 0.000000 0.000000 0.000000 -0.048985 0.000000
# 6 0.000000 0.000000 0.000000 0.000000 0.000000 0.085210
#
#
# Mechanical properties :
#
#
# Convention : Reuss Voigt Hill
#
# Bulk Modulus (GPa) = 34.49077 40.31251 37.40164
# Shear Modulus (GPa) = 36.59082 19.12811 27.85946
#
# Velocity S-wave (km/s) = 4.13170 2.98730 3.60520
# Velocity P-wave (km/s) = 6.23318 5.54129 5.89739
#
# Compressibility (1/GPa) = 0.02899327
#
# Stress axis : x y z
#
# Youngs Moduli (GPa) = 85.83171 77.17518 42.96196
#
# Poissons Ratio (x) = 0.24066 -0.05189
# Poissons Ratio (y) = 0.26765 0.32373
# Poissons Ratio (z) = -0.10367 0.58153
#
# Static dielectric constant tensor:
#      x y z
#    x 1.804900 0.000000 0.000000 
#    y 0.000000 1.825020 0.000000 
#    z 0.000000 0.000000 1.774890 
# 
# From -- ./inp_files/53245.got.cif
#   From: 2010.05.17/outbox.cif.g08.bks.cpg/sg64_27_cif.got.tgz:53245.got - 2010.06.03 16:29:19.
