data_PCOD9479892
_publ_section_title
;
Structure prediction by ZEFSAII (Michael W. Deem and Ramdas Pophale) SiO2 
 PCOD9479892
Probable space group: C M C A
;
_chemical_formula_sum "Si O2"
_cell_formula_units_Z 96
_cell_length_a 15.135158
_cell_length_b 15.051255
_cell_length_c 19.416899
_cell_angle_alpha 90.000000
_cell_angle_beta 90.000000
_cell_angle_gamma 90.000000
_cell_volume 4423.230222
_symmetry_space_group_name_H-M "C M C A"
_symmetry_group_IT_number 64
_symmetry_cell_setting 'orthorhombic'
loop_
_space_group_symop_operation_xyz
x,y,z
-x,1/2-y,1/2+z
x,-y,-z
-x,1/2+y,1/2-z
-x,-y,-z
x,1/2+y,1/2-z
-x,y,z
x,1/2-y,1/2+z
1/2+x,1/2+y,z
1/2-x,-y,1/2+z
1/2+x,1/2-y,-z
1/2-x,y,1/2-z
1/2-x,1/2-y,-z
1/2+x,y,1/2-z
1/2-x,1/2+y,z
1/2+x,-y,1/2+z
loop_
_atom_site_type_symbol
_atom_site_label
_atom_site_fract_x
_atom_site_fract_y
_atom_site_fract_z
Si Si1 0.900317 0.007198 0.749994
Si Si2 0.158535 0.194382 0.136614
Si Si3 0.397995 0.712880 0.775721
Si Si4 0.729886 0.657107 0.903296
Si Si5 0.764503 0.534206 0.147462
Si Si6 0.404742 0.106069 0.490389
O O1 0.899704 0.113854 0.742765
O O2 0.860866 0.967863 0.680584
O O3 0.821701 0.981536 0.802503
O O4 0.000000 0.980127 0.768308
O O5 0.133491 0.218432 0.215741
O O6 0.181161 0.287217 0.101019
O O7 0.093753 0.136987 0.088811
O O8 0.245935 0.134084 0.126255
O O9 0.500000 0.733487 0.795840
O O10 0.329818 0.693750 0.838581
O O11 0.754730 0.553114 0.897923
O O12 0.669712 0.660642 0.970300
O O13 0.500000 0.124081 0.523194
O O14 0.390719 0.000000 0.500000
#
# Coordination Sequence:
#
# PCOD9479892 Si02
#       6
#    16  16  16  16  16  16
#     4   9  19  36  57  85 127 171 207 260 319 371
#     4  12  23  39  64  94 124 169 215 261 324 387
#     4  10  21  37  61  93 128 163 208 266 322 377
#     4  11  22  42  62  91 130 168 208 265 327 381
#     4  10  21  37  59  89 131 166 212 263 317 387
#     4  11  24  43  66  92 126 169 215 266 322 387
#
# _framework density 21.703596000000001
#
# number of rings (size 3 to 8) (size 9 to 14) (size 15 to 20)
#    0.000    1.500    3.333    2.000    4.667    2.000 
#    0.000    0.833    0.000    0.000    0.000    2.333 
#    0.000    0.000    0.000    0.000    0.000    0.000 
#
# Total GULP energy -267274.488389 kJ/mol
# GULP energy per Si atom -5568.218508 kJ/mol
# Density = 2.165420 g / cm^3
# Si number density = 21.703596 Si / 1000 Ang^3
#
#
#
# Elastic Constant Matrix: (Units=GPa)
#
#
# Indices 1 2 3 4 5 6 
#
# 1 57.2071 2.1929 1.3047 0.0000 0.0000 0.0000
# 2 2.1929 65.1926 6.1859 0.0000 0.0000 0.0000
# 3 1.3047 6.1859 61.8756 0.0000 0.0000 0.0000
# 4 0.0000 0.0000 0.0000 23.7074 0.0000 0.0000
# 5 0.0000 0.0000 0.0000 0.0000 372.8568 0.0000
# 6 0.0000 0.0000 0.0000 0.0000 0.0000 -103.5890
#
#
#
# Elastic Compliance Matrix: (Units=1/GPa)
#
#
# Indices 1 2 3 4 5 6 
#
# 1 0.017509 -0.000559 -0.000313 0.000000 0.000000 0.000000
# 2 -0.000559 0.015504 -0.001538 0.000000 0.000000 0.000000
# 3 -0.000313 -0.001538 0.016322 0.000000 0.000000 0.000000
# 4 0.000000 0.000000 0.000000 0.042181 0.000000 0.000000
# 5 0.000000 0.000000 0.000000 0.000000 0.002682 0.000000
# 6 0.000000 0.000000 0.000000 0.000000 0.000000 -0.009654
#
#
# Mechanical properties :
#
#
# Convention : Reuss Voigt Hill
#
# Bulk Modulus (GPa) = 22.46521 22.62694 22.54608
# Shear Modulus (GPa) = 47.98316 70.23449 59.10882
#
# Velocity S-wave (km/s) = 4.70706 5.69482 5.22434
# Velocity P-wave (km/s) = 6.31785 7.32731 6.84122
#
# Compressibility (1/GPa) = 0.04451327
#
# Stress axis : x y z
#
# Youngs Moduli (GPa) = 57.11373 64.49982 61.26758
#
# Poissons Ratio (x) = 0.03607 0.01919
# Poissons Ratio (y) = 0.03194 0.09424
# Poissons Ratio (z) = 0.01789 0.09921
#
# Static dielectric constant tensor:
#      x y z
#    x 1.828110 0.000000 0.000000 
#    y 0.000000 1.825000 0.000000 
#    z 0.000000 0.000000 1.855990 
# 
# From -- ./inp_files/39252.got.cif
#   From: 2010.05.17/outbox.cif.g08.bks.cpg/sg64_20_cif.got.tgz:39252.got - 2010.06.03 16:29:19.
