data_PCOD9479890
_publ_section_title
;
Structure prediction by ZEFSAII (Michael W. Deem and Ramdas Pophale) SiO2 
 PCOD9479890
Probable space group: C M C A
;
_chemical_formula_sum "Si O2"
_cell_formula_units_Z 116
_cell_length_a 8.003642
_cell_length_b 23.876640
_cell_length_c 27.199690
_cell_angle_alpha 90.000000
_cell_angle_beta 90.000000
_cell_angle_gamma 90.000000
_cell_volume 5197.862900
_symmetry_space_group_name_H-M "C M C A"
_symmetry_group_IT_number 64
_symmetry_cell_setting 'orthorhombic'
loop_
_space_group_symop_operation_xyz
x,y,z
-x,1/2-y,1/2+z
x,-y,-z
-x,1/2+y,1/2-z
-x,-y,-z
x,1/2+y,1/2-z
-x,y,z
x,1/2-y,1/2+z
1/2+x,1/2+y,z
1/2-x,-y,1/2+z
1/2+x,1/2-y,-z
1/2-x,y,1/2-z
1/2-x,1/2-y,-z
1/2+x,y,1/2-z
1/2-x,1/2+y,z
1/2+x,-y,1/2+z
loop_
_atom_site_type_symbol
_atom_site_label
_atom_site_fract_x
_atom_site_fract_y
_atom_site_fract_z
Si Si1 0.201154 0.280634 0.399207
Si Si2 0.199184 0.110574 0.354785
Si Si3 0.300515 0.781518 0.802734
Si Si4 0.702629 0.088764 0.607709
Si Si5 0.000000 0.500000 0.500000
Si Si6 0.698939 0.006288 0.692708
Si Si7 0.315986 0.926736 0.003506
Si Si8 0.190733 0.673605 0.453398
O O1 0.265160 0.253950 0.348207
O O2 0.242197 0.345783 0.396362
O O3 0.260954 0.237187 0.440523
O O4 0.000000 0.277725 0.400572
O O5 0.250463 0.154234 0.311981
O O6 0.282055 0.136135 0.403807
O O7 0.000000 0.114999 0.362866
O O8 0.238905 0.048633 0.336443
O O9 0.500000 0.779699 0.805286
O O10 0.250000 0.760260 0.750000
O O11 0.500000 0.080837 0.599234
O O12 0.747328 0.059897 0.659228
O O13 0.796261 0.061845 0.561566
O O14 0.849099 0.543480 0.482144
O O15 0.500000 0.003866 0.692288
O O16 0.750000 0.008063 0.750000
O O17 0.500000 0.942896 0.985048
O O18 0.295897 0.860551 0.993219
O O19 0.000000 0.672974 0.469403
#
# Coordination Sequence:
#
# PCOD9479890 Si02
#       8
#    16  16  16  16   4  16  16  16
#     4   9  20  40  63  86 121 168 217 271 326 383
#     4  10  21  37  59  87 123 164 212 264 322 389
#     4   9  18  32  53  83 115 153 205 263 327 387
#     4  10  23  45  65  89 128 172 219 271 325 383
#     4  12  26  48  68 102 144 168 222 264 314 394
#     4  11  24  40  61  88 124 168 212 262 322 385
#     4  12  26  44  70 101 136 177 216 263 323 385
#     4  11  22  40  64  97 133 167 213 267 326 386
#
# _framework density 22.316865
#
# number of rings (size 3 to 8) (size 9 to 14) (size 15 to 20)
#    0.000    1.655    1.379    3.517    1.931    6.621 
#    0.000    0.000    0.000    0.000    0.000    0.000 
#    0.000    0.000    0.000    0.000    0.000    0.000 
#
# Total GULP energy -323414.081651 kJ/mol
# GULP energy per Si atom -5576.104856 kJ/mol
# Density = 2.226607 g / cm^3
# Si number density = 22.316865 Si / 1000 Ang^3
#
#
#
# Elastic Constant Matrix: (Units=GPa)
#
#
# Indices 1 2 3 4 5 6 
#
# 1 89.6016 44.5397 8.5628 0.0000 0.0000 0.0000
# 2 44.5397 107.2613 11.6636 0.0000 0.0000 0.0000
# 3 8.5628 11.6636 83.9100 0.0000 0.0000 0.0000
# 4 0.0000 0.0000 0.0000 22.9463 0.0000 0.0000
# 5 0.0000 0.0000 0.0000 0.0000 26.4276 0.0000
# 6 0.0000 0.0000 0.0000 0.0000 0.0000 28.9995
#
#
#
# Elastic Compliance Matrix: (Units=1/GPa)
#
#
# Indices 1 2 3 4 5 6 
#
# 1 0.014097 -0.005785 -0.000634 0.000000 0.000000 0.000000
# 2 -0.005785 0.011840 -0.001055 0.000000 0.000000 0.000000
# 3 -0.000634 -0.001055 0.012129 0.000000 0.000000 0.000000
# 4 0.000000 0.000000 0.000000 0.043580 0.000000 0.000000
# 5 0.000000 0.000000 0.000000 0.000000 0.037839 0.000000
# 6 0.000000 0.000000 0.000000 0.000000 0.000000 0.034483
#
#
# Mechanical properties :
#
#
# Convention : Reuss Voigt Hill
#
# Bulk Modulus (GPa) = 43.25926 45.58947 44.42436
# Shear Modulus (GPa) = 28.30899 30.07513 29.19206
#
# Velocity S-wave (km/s) = 3.56547 3.67501 3.62065
# Velocity P-wave (km/s) = 6.03127 6.20324 6.11786
#
# Compressibility (1/GPa) = 0.02311644
#
# Stress axis : x y z
#
# Youngs Moduli (GPa) = 70.93924 84.46093 82.44717
#
# Poissons Ratio (x) = 0.48857 0.05231
# Poissons Ratio (y) = 0.41035 0.08702
# Poissons Ratio (z) = 0.04501 0.08914
#
# Static dielectric constant tensor:
#      x y z
#    x 1.813110 0.000000 0.000000 
#    y 0.000000 1.880930 0.000000 
#    z 0.000000 0.000000 1.860900 
# 
# From -- ./inp_files/48540.got.cif
#   From: 2010.05.17/outbox.cif.g08.bks.cpg/sg64_25_cif.got.tgz:48540.got - 2010.06.03 16:29:19.
