data_PCOD9479464
_publ_section_title
;
Structure prediction by ZEFSAII (Michael W. Deem and Ramdas Pophale) SiO2 
 PCOD9479464
Probable space group: C M C A
;
_chemical_formula_sum "Si O2"
_cell_formula_units_Z 88
_cell_length_a 24.086007
_cell_length_b 11.144472
_cell_length_c 15.150290
_cell_angle_alpha 90.000000
_cell_angle_beta 90.000000
_cell_angle_gamma 90.000000
_cell_volume 4066.729177
_symmetry_space_group_name_H-M "C M C A"
_symmetry_group_IT_number 64
_symmetry_cell_setting 'orthorhombic'
loop_
_space_group_symop_operation_xyz
x,y,z
-x,1/2-y,1/2+z
x,-y,-z
-x,1/2+y,1/2-z
-x,-y,-z
x,1/2+y,1/2-z
-x,y,z
x,1/2-y,1/2+z
1/2+x,1/2+y,z
1/2-x,-y,1/2+z
1/2+x,1/2-y,-z
1/2-x,y,1/2-z
1/2-x,1/2-y,-z
1/2+x,y,1/2-z
1/2-x,1/2+y,z
1/2+x,-y,1/2+z
loop_
_atom_site_type_symbol
_atom_site_label
_atom_site_fract_x
_atom_site_fract_y
_atom_site_fract_z
Si Si1 0.370163 0.658033 0.613175
Si Si2 0.808424 0.073583 0.787423
Si Si3 0.088409 0.092024 0.172979
Si Si4 0.911597 0.500000 0.500000
Si Si5 0.062800 0.419668 0.874608
Si Si6 0.846517 0.732004 0.558942
O O1 0.335761 0.629380 0.700320
O O2 0.407346 0.770936 0.642645
O O3 0.409298 0.544082 0.594161
O O4 0.331645 0.689610 0.528115
O O5 0.750000 0.028125 0.750000
O O6 0.807346 0.176326 0.864382
O O7 0.849657 0.967405 0.818742
O O8 0.062100 0.075970 0.268100
O O9 0.059679 0.021436 0.093081
O O10 0.873479 0.614970 0.515829
O O11 0.104657 0.311507 0.897575
O O12 0.000000 0.402653 0.907504
#
# Coordination Sequence:
#
# PCOD9479464 Si02
#       6
#    16  16  16   8  16  16
#     4  10  21  39  61  87 127 168 210 262 320 382
#     4  10  21  38  63  92 122 165 207 261 323 379
#     4   9  19  40  60  87 123 163 208 265 314 383
#     4   8  18  38  65  82 122 168 210 260 315 368
#     4  11  23  39  63  92 126 169 216 269 331 386
#     4  10  20  40  63  91 128 168 212 268 317 384
#
# _framework density 21.639012000000001
#
# number of rings (size 3 to 8) (size 9 to 14) (size 15 to 20)
#    0.000    2.182    1.818    0.545    0.000    3.636 
#    0.000    3.636   24.000    0.000    0.000    0.000 
#    0.000    0.000    0.000    0.000    0.000    0.000 
#
# Total GULP energy -245144.833289 kJ/mol
# GULP energy per Si atom -5571.473484 kJ/mol
# Density = 2.158976 g / cm^3
# Si number density = 21.639012 Si / 1000 Ang^3
#
#
#
# Elastic Constant Matrix: (Units=GPa)
#
#
# Indices 1 2 3 4 5 6 
#
# 1 68.4793 28.3671 13.4388 0.0000 0.0000 0.0000
# 2 28.3671 101.1810 27.8733 0.0000 0.0000 0.0000
# 3 13.4388 27.8733 143.4597 0.0000 0.0000 0.0000
# 4 0.0000 0.0000 0.0000 40.1284 0.0000 0.0000
# 5 0.0000 0.0000 0.0000 0.0000 -19.2606 0.0000
# 6 0.0000 0.0000 0.0000 0.0000 0.0000 -2.7383
#
#
#
# Elastic Compliance Matrix: (Units=1/GPa)
#
#
# Indices 1 2 3 4 5 6 
#
# 1 0.016586 -0.004461 -0.000687 0.000000 0.000000 0.000000
# 2 -0.004461 0.011642 -0.001844 0.000000 0.000000 0.000000
# 3 -0.000687 -0.001844 0.007393 0.000000 0.000000 0.000000
# 4 0.000000 0.000000 0.000000 0.024920 0.000000 0.000000
# 5 0.000000 0.000000 0.000000 0.000000 -0.051919 0.000000
# 6 0.000000 0.000000 0.000000 0.000000 0.000000 -0.365192
#
#
# Mechanical properties :
#
#
# Convention : Reuss Voigt Hill
#
# Bulk Modulus (GPa) = 46.21674 50.27540 48.24607
# Shear Modulus (GPa) = -14.90871 19.85529 2.47329
#
# Velocity S-wave (km/s) = -2.62768 3.03243 1.07026
# Velocity P-wave (km/s) = 3.49259 5.96196 4.88585
#
# Compressibility (1/GPa) = 0.02163718
#
# Stress axis : x y z
#
# Youngs Moduli (GPa) = 60.29338 85.89683 135.25852
#
# Poissons Ratio (x) = 0.38316 0.09292
# Poissons Ratio (y) = 0.26895 0.24943
# Poissons Ratio (z) = 0.04142 0.15840
#
# Static dielectric constant tensor:
#      x y z
#    x 1.791760 0.000000 0.000000 
#    y 0.000000 1.774850 0.000000 
#    z 0.000000 0.000000 1.866920 
# 
# From -- ./inp_files/27942.got.cif
#   From: 2010.05.17/outbox.cif.g08.bks.cpg/sg64_14_cif.got.tgz:27942.got - 2010.06.03 16:29:19.
