data_PCOD9479912
_publ_section_title
;
Structure prediction by ZEFSAII (Michael W. Deem and Ramdas Pophale) SiO2 
 PCOD9479912
Probable space group: C M C A
;
_chemical_formula_sum "Si O2"
_cell_formula_units_Z 64
_cell_length_a 11.892018
_cell_length_b 13.417152
_cell_length_c 15.654661
_cell_angle_alpha 90.000000
_cell_angle_beta 90.000000
_cell_angle_gamma 90.000000
_cell_volume 2497.810950
_symmetry_space_group_name_H-M "C M C A"
_symmetry_group_IT_number 64
_symmetry_cell_setting 'orthorhombic'
loop_
_space_group_symop_operation_xyz
x,y,z
-x,1/2-y,1/2+z
x,-y,-z
-x,1/2+y,1/2-z
-x,-y,-z
x,1/2+y,1/2-z
-x,y,z
x,1/2-y,1/2+z
1/2+x,1/2+y,z
1/2-x,-y,1/2+z
1/2+x,1/2-y,-z
1/2-x,y,1/2-z
1/2-x,1/2-y,-z
1/2+x,y,1/2-z
1/2-x,1/2+y,z
1/2+x,-y,1/2+z
loop_
_atom_site_type_symbol
_atom_site_label
_atom_site_fract_x
_atom_site_fract_y
_atom_site_fract_z
Si Si1 0.623610 0.124009 0.244390
Si Si2 0.629888 0.400416 0.204169
Si Si3 0.119728 0.327926 0.489718
Si Si4 0.345697 0.102632 0.046510
O O1 0.500000 0.169441 0.267503
O O2 0.750000 0.171005 0.250000
O O3 0.615820 0.101376 0.143333
O O4 0.630508 0.019896 0.293780
O O5 0.500000 0.376733 0.235784
O O6 0.750000 0.376361 0.250000
O O7 0.637357 0.352259 0.110307
O O8 0.212571 0.383004 0.543328
O O9 0.120584 0.207573 0.497920
O O10 0.000000 0.367042 0.515816
O O11 0.375733 0.000000 0.000000
#
# Coordination Sequence:
#
# PCOD9479912 Si02
#       4
#    16  16  16  16
#     4  10  21  37  60  90 124 166 214 265 323 388
#     4   9  18  37  62  89 126 170 215 266 324 387
#     4  10  23  42  64  94 133 174 219 273 332 396
#     4  11  23  41  66  96 131 172 221 273 329 394
#
# _framework density 25.622436
#
# number of rings (size 3 to 8) (size 9 to 14) (size 15 to 20)
#    0.000    2.000    0.000    3.750    0.000    4.500 
#    0.000    8.750    0.000    0.000    0.000    0.000 
#    0.000    0.000    0.000    0.000    0.000    0.000 
#
# Total GULP energy -178540.649874 kJ/mol
# GULP energy per Si atom -5579.395309 kJ/mol
# Density = 2.556412 g / cm^3
# Si number density = 25.622436 Si / 1000 Ang^3
#
#
#
# Elastic Constant Matrix: (Units=GPa)
#
#
# Indices 1 2 3 4 5 6 
#
# 1 323.9961 32.6016 48.4520 0.0000 0.0000 0.0000
# 2 32.6016 140.3025 25.9287 0.0000 0.0000 0.0000
# 3 48.4520 25.9287 73.1771 0.0000 0.0000 0.0000
# 4 0.0000 0.0000 0.0000 7.7800 0.0000 0.0000
# 5 0.0000 0.0000 0.0000 0.0000 -515.9998 0.0000
# 6 0.0000 0.0000 0.0000 0.0000 0.0000 -170.7787
#
#
#
# Elastic Compliance Matrix: (Units=1/GPa)
#
#
# Indices 1 2 3 4 5 6 
#
# 1 0.003447 -0.000406 -0.002139 0.000000 0.000000 0.000000
# 2 -0.000406 0.007675 -0.002451 0.000000 0.000000 0.000000
# 3 -0.002139 -0.002451 0.015950 0.000000 0.000000 0.000000
# 4 0.000000 0.000000 0.000000 0.128535 0.000000 0.000000
# 5 0.000000 0.000000 0.000000 0.000000 -0.001938 0.000000
# 6 0.000000 0.000000 0.000000 0.000000 0.000000 -0.005856
#
#
# Mechanical properties :
#
#
# Convention : Reuss Voigt Hill
#
# Bulk Modulus (GPa) = 58.54300 83.49338 71.01819
# Shear Modulus (GPa) = 30.58160 -107.10015 -38.25927
#
# Velocity S-wave (km/s) = 3.45852 -6.47226 -3.86838
# Velocity P-wave (km/s) = 6.23269 4.81629 2.79730
#
# Compressibility (1/GPa) = 0.01708146
#
# Stress axis : x y z
#
# Youngs Moduli (GPa) = 290.09835 130.29928 62.69651
#
# Poissons Ratio (x) = 0.05287 0.13408
# Poissons Ratio (y) = 0.11771 0.15365
# Poissons Ratio (z) = 0.62041 0.31932
#
# Static dielectric constant tensor:
#      x y z
#    x 2.211780 0.000000 0.000000 
#    y 0.000000 1.950420 0.000000 
#    z 0.000000 0.000000 2.031860 
# 
# From -- ./inp_files/30448.got.cif
#   From: 2010.05.17/outbox.cif.g08.bks.cpg/sg64_16_cif.got.tgz:30448.got - 2010.06.03 16:29:19.
