data_PCOD9479284
_publ_section_title
;
Structure prediction by ZEFSAII (Michael W. Deem and Ramdas Pophale) SiO2 
 PCOD9479284
Probable space group: C M C A
;
_chemical_formula_sum "Si O2"
_cell_formula_units_Z 80
_cell_length_a 24.058692
_cell_length_b 23.752107
_cell_length_c 6.042349
_cell_angle_alpha 90.000000
_cell_angle_beta 90.000000
_cell_angle_gamma 90.000000
_cell_volume 3452.867868
_symmetry_space_group_name_H-M "C M C A"
_symmetry_group_IT_number 64
_symmetry_cell_setting 'orthorhombic'
loop_
_space_group_symop_operation_xyz
x,y,z
-x,1/2-y,1/2+z
x,-y,-z
-x,1/2+y,1/2-z
-x,-y,-z
x,1/2+y,1/2-z
-x,y,z
x,1/2-y,1/2+z
1/2+x,1/2+y,z
1/2-x,-y,1/2+z
1/2+x,1/2-y,-z
1/2-x,y,1/2-z
1/2-x,1/2-y,-z
1/2+x,y,1/2-z
1/2-x,1/2+y,z
1/2+x,-y,1/2+z
loop_
_atom_site_type_symbol
_atom_site_label
_atom_site_fract_x
_atom_site_fract_y
_atom_site_fract_z
Si Si1 0.085548 0.740949 0.246264
Si Si2 0.561452 0.550738 0.823979
Si Si3 0.376439 0.626466 0.131120
Si Si4 0.667196 0.940625 0.008832
Si Si5 0.189800 0.324712 0.255907
O O1 0.061132 0.742956 0.501617
O O2 0.099957 0.675331 0.217027
O O3 0.140478 0.779949 0.280504
O O4 0.500000 0.553454 0.720836
O O5 0.612060 0.547599 0.654518
O O6 0.561542 0.500000 0.000000
O O7 0.575944 0.606429 0.963798
O O8 0.353610 0.574363 0.265867
O O9 0.325345 0.651689 0.996336
O O10 0.691199 0.881689 0.104660
O O11 0.700000 0.000000 0.000000
O O12 0.250000 0.297280 0.250000
#
# Coordination Sequence:
#
# PCOD9479284 Si02
#       5
#    16  16  16  16  16
#     4  10  20  38  63  90 120 164 213 267 316 369
#     4  10  21  37  62  93 122 159 211 265 322 393
#     4  10  21  38  61  87 124 160 205 263 326 374
#     4  11  21  39  59  88 126 165 203 259 328 385
#     4  10  23  40  59  91 123 167 220 264 313 378
#
# _framework density 23.169148
#
# number of rings (size 3 to 8) (size 9 to 14) (size 15 to 20)
#    0.000    1.800    4.000    0.000    0.000    5.200 
#    3.600    0.000    0.000   10.800    0.000    0.000 
#    0.000    0.000    0.000    0.000    0.000    0.000 
#
# Total GULP energy -222851.089138 kJ/mol
# GULP energy per Si atom -5571.277228 kJ/mol
# Density = 2.311641 g / cm^3
# Si number density = 23.169148 Si / 1000 Ang^3
#
#
#
# Elastic Constant Matrix: (Units=GPa)
#
#
# Indices 1 2 3 4 5 6 
#
# 1 91.3927 0.8578 6.9272 0.0000 0.0000 0.0000
# 2 0.8578 107.6499 -0.2663 0.0000 0.0000 0.0000
# 3 6.9272 -0.2663 81.2122 0.0000 0.0000 0.0000
# 4 0.0000 0.0000 0.0000 51.1490 0.0000 0.0000
# 5 0.0000 0.0000 0.0000 0.0000 -14.8256 0.0000
# 6 0.0000 0.0000 0.0000 0.0000 0.0000 32.9928
#
#
#
# Elastic Compliance Matrix: (Units=1/GPa)
#
#
# Indices 1 2 3 4 5 6 
#
# 1 0.011014 -0.000090 -0.000940 0.000000 0.000000 0.000000
# 2 -0.000090 0.009290 0.000038 0.000000 0.000000 0.000000
# 3 -0.000940 0.000038 0.012394 0.000000 0.000000 0.000000
# 4 0.000000 0.000000 0.000000 0.019551 0.000000 0.000000
# 5 0.000000 0.000000 0.000000 0.000000 -0.067451 0.000000
# 6 0.000000 0.000000 0.000000 0.000000 0.000000 0.030310
#
#
# Mechanical properties :
#
#
# Convention : Reuss Voigt Hill
#
# Bulk Modulus (GPa) = 32.55803 32.81023 32.68413
# Shear Modulus (GPa) = 182.95882 32.04566 107.50224
#
# Velocity S-wave (km/s) = 8.89595 3.72306 6.81906
# Velocity P-wave (km/s) = 10.93619 5.71608 8.72564
#
# Compressibility (1/GPa) = 0.03071439
#
# Stress axis : x y z
#
# Youngs Moduli (GPa) = 90.79459 107.64051 80.68614
#
# Poissons Ratio (x) = 0.00970 0.07582
# Poissons Ratio (y) = 0.00818 -0.00308
# Poissons Ratio (z) = 0.08532 -0.00411
#
# Static dielectric constant tensor:
#      x y z
#    x 1.870430 0.000000 0.000000 
#    y 0.000000 1.927760 0.000000 
#    z 0.000000 0.000000 1.954540 
# 
# From -- ./inp_files/2908.got.cif
#   From: 2010.05.17/outbox.cif.g08.bks.cpg/sg64_2_cif.got.tgz:2908.got - 2010.06.03 16:29:19.
