data_PCOD9479075
_publ_section_title
;
Structure prediction by ZEFSAII (Michael W. Deem and Ramdas Pophale) SiO2 
 PCOD9479075
Probable space group: C M C A
;
_chemical_formula_sum "Si O2"
_cell_formula_units_Z 112
_cell_length_a 12.943789
_cell_length_b 13.336233
_cell_length_c 28.534461
_cell_angle_alpha 90.000000
_cell_angle_beta 90.000000
_cell_angle_gamma 90.000000
_cell_volume 4925.658207
_symmetry_space_group_name_H-M "C M C A"
_symmetry_group_IT_number 64
_symmetry_cell_setting 'orthorhombic'
loop_
_space_group_symop_operation_xyz
x,y,z
-x,1/2-y,1/2+z
x,-y,-z
-x,1/2+y,1/2-z
-x,-y,-z
x,1/2+y,1/2-z
-x,y,z
x,1/2-y,1/2+z
1/2+x,1/2+y,z
1/2-x,-y,1/2+z
1/2+x,1/2-y,-z
1/2-x,y,1/2-z
1/2-x,1/2-y,-z
1/2+x,y,1/2-z
1/2-x,1/2+y,z
1/2+x,-y,1/2+z
loop_
_atom_site_type_symbol
_atom_site_label
_atom_site_fract_x
_atom_site_fract_y
_atom_site_fract_z
Si Si1 0.313749 0.978700 0.447369
Si Si2 0.672761 0.214304 0.835178
Si Si3 0.383587 0.819482 0.815084
Si Si4 0.885792 0.908621 0.786207
Si Si5 0.705554 0.998810 0.149255
Si Si6 0.111925 0.754787 0.038272
Si Si7 0.161875 0.198522 0.064010
O O1 0.239166 0.967238 0.402950
O O2 0.374238 0.873925 0.450972
O O3 0.270487 0.000000 0.500000
O O4 0.372937 0.082604 0.435725
O O5 0.794520 0.238127 0.824346
O O6 0.614565 0.293848 0.803768
O O7 0.654712 0.098036 0.827277
O O8 0.643026 0.246297 0.887668
O O9 0.500000 0.780595 0.813263
O O10 0.362336 0.887061 0.768376
O O11 0.367173 0.905022 0.853769
O O12 0.000000 0.953321 0.790159
O O13 0.805601 0.966781 0.819795
O O14 0.213620 0.700685 0.057189
O O15 0.000000 0.721394 0.055327
O O16 0.117908 0.747992 0.981796
#
# Coordination Sequence:
#
# PCOD9479075 Si02
#       7
#    16  16  16  16  16  16  16
#     4  10  20  37  60  85 122 156 198 250 290 344
#     4  11  21  38  62  88 117 157 193 245 301 354
#     4  10  23  42  62  87 120 157 198 245 303 369
#     4  10  23  41  61  90 121 152 198 251 302 362
#     4  11  21  39  63  89 121 162 198 247 301 356
#     4  10  22  38  61  88 117 158 203 246 295 346
#     4  10  20  38  58  85 125 152 194 250 292 350
#
# _framework density 22.738077000000001
#
# number of rings (size 3 to 8) (size 9 to 14) (size 15 to 20)
#    0.000    1.714    4.286    1.714    0.000    7.714 
#    0.000    2.857    0.000   11.143    0.000    0.000 
#    0.000    0.000    0.000    0.000    0.000    0.000 
#
# Total GULP energy -312481.645470 kJ/mol
# GULP energy per Si atom -5580.029383 kJ/mol
# Density = 2.268632 g / cm^3
# Si number density = 22.738077 Si / 1000 Ang^3
#
#
#
# Elastic Constant Matrix: (Units=GPa)
#
#
# Indices 1 2 3 4 5 6 
#
# 1 76.2641 -1.7988 5.2971 0.0000 0.0000 0.0000
# 2 -1.7988 70.7648 1.1438 0.0000 0.0000 0.0000
# 3 5.2971 1.1438 89.6257 0.0000 0.0000 0.0000
# 4 0.0000 0.0000 0.0000 12.9333 0.0000 0.0000
# 5 0.0000 0.0000 0.0000 0.0000 -0.2881 0.0000
# 6 0.0000 0.0000 0.0000 0.0000 0.0000 -0.3828
#
#
#
# Elastic Compliance Matrix: (Units=1/GPa)
#
#
# Indices 1 2 3 4 5 6 
#
# 1 0.013175 0.000348 -0.000783 0.000000 0.000000 0.000000
# 2 0.000348 0.014143 -0.000201 0.000000 0.000000 0.000000
# 3 -0.000783 -0.000201 0.011206 0.000000 0.000000 0.000000
# 4 0.000000 0.000000 0.000000 0.077320 0.000000 0.000000
# 5 0.000000 0.000000 0.000000 0.000000 -3.471485 0.000000
# 6 0.000000 0.000000 0.000000 0.000000 0.000000 -2.612546
#
#
# Mechanical properties :
#
#
# Convention : Reuss Voigt Hill
#
# Bulk Modulus (GPa) = 26.84453 27.32651 27.08552
# Shear Modulus (GPa) = -0.83970 17.91999 8.54014
#
# Velocity S-wave (km/s) = -0.60835 2.81037 1.94011
# Velocity P-wave (km/s) = 3.36722 4.75131 4.11783
#
# Compressibility (1/GPa) = 0.03725154
#
# Stress axis : x y z
#
# Youngs Moduli (GPa) = 75.90175 70.70434 89.23499
#
# Poissons Ratio (x) = -0.02457 0.06988
# Poissons Ratio (y) = -0.02638 0.01794
# Poissons Ratio (z) = 0.05944 0.01421
#
# Static dielectric constant tensor:
#      x y z
#    x 1.902740 0.000000 0.000000 
#    y 0.000000 1.820870 0.000000 
#    z 0.000000 0.000000 1.911140 
# 
# From -- ./inp_files/53353.got.cif
#   From: 2010.05.17/outbox.cif.g08.bks.cpg/sg64_27_cif.got.tgz:53353.got - 2010.06.03 16:29:19.
