data_PCOD9479434
_publ_section_title
;
Structure prediction by ZEFSAII (Michael W. Deem and Ramdas Pophale) SiO2 
 PCOD9479434
Probable space group: C M C A
;
_chemical_formula_sum "Si O2"
_cell_formula_units_Z 80
_cell_length_a 10.567619
_cell_length_b 13.196482
_cell_length_c 25.681549
_cell_angle_alpha 90.000000
_cell_angle_beta 90.000000
_cell_angle_gamma 90.000000
_cell_volume 3581.430532
_symmetry_space_group_name_H-M "C M C A"
_symmetry_group_IT_number 64
_symmetry_cell_setting 'orthorhombic'
loop_
_space_group_symop_operation_xyz
x,y,z
-x,1/2-y,1/2+z
x,-y,-z
-x,1/2+y,1/2-z
-x,-y,-z
x,1/2+y,1/2-z
-x,y,z
x,1/2-y,1/2+z
1/2+x,1/2+y,z
1/2-x,-y,1/2+z
1/2+x,1/2-y,-z
1/2-x,y,1/2-z
1/2-x,1/2-y,-z
1/2+x,y,1/2-z
1/2-x,1/2+y,z
1/2+x,-y,1/2+z
loop_
_atom_site_type_symbol
_atom_site_label
_atom_site_fract_x
_atom_site_fract_y
_atom_site_fract_z
Si Si1 0.500000 0.797650 0.220062
Si Si2 0.750000 0.247062 0.750000
Si Si3 0.500000 0.487032 0.322597
Si Si4 0.143735 0.892652 0.471143
Si Si5 0.747114 0.896435 0.847479
Si Si6 0.148015 0.256009 0.431179
Si Si7 0.500000 0.943515 0.700319
O O1 0.627374 0.821013 0.249539
O O2 0.500000 0.678811 0.209796
O O3 0.500000 0.866930 0.170300
O O4 0.736252 0.319517 0.701011
O O5 0.374858 0.533267 0.346464
O O6 0.500000 0.513162 0.259546
O O7 0.135914 0.803358 0.514197
O O8 0.264163 0.856375 0.436749
O O9 0.000000 0.900960 0.448501
O O10 0.168266 0.000000 0.500000
O O11 0.729936 0.822443 0.896237
O O12 0.874296 0.958747 0.834362
O O13 0.000000 0.271131 0.412760
#
# Coordination Sequence:
#
# PCOD9479434 Si02
#       7
#     8   8   8  16  16  16   8
#     4  10  22  34  56  78 105 160 191 234 281 325
#     4  10  20  40  54  78 120 154 188 234 282 330
#     4  12  20  38  60  79 115 156 199 238 279 339
#     4   9  20  42  63  87 114 147 189 240 292 354
#     4  11  20  38  60  82 117 154 195 236 284 339
#     4  10  21  37  63  87 114 151 188 236 296 342
#     4  10  22  40  54  81 116 163 188 240 280 330
#
# _framework density 22.337443
#
# number of rings (size 3 to 8) (size 9 to 14) (size 15 to 20)
#    0.000    1.800    5.000    0.000    4.200    0.400 
#    7.200    0.000    0.000    0.000    0.000    0.000 
#    0.000    0.000    0.000    0.000    0.000    0.000 
#
# Total GULP energy -222921.691779 kJ/mol
# GULP energy per Si atom -5573.042294 kJ/mol
# Density = 2.228660 g / cm^3
# Si number density = 22.337443 Si / 1000 Ang^3
#
#
#
# Elastic Constant Matrix: (Units=GPa)
#
#
# Indices 1 2 3 4 5 6 
#
# 1 139.3099 13.9124 -2.1844 0.0000 0.0000 0.0000
# 2 13.9124 65.8716 -18.9036 0.0000 0.0000 0.0000
# 3 -2.1844 -18.9036 34.1038 0.0000 0.0000 0.0000
# 4 0.0000 0.0000 0.0000 53.4549 0.0000 0.0000
# 5 0.0000 0.0000 0.0000 0.0000 21.3672 0.0000
# 6 0.0000 0.0000 0.0000 0.0000 0.0000 132.8644
#
#
#
# Elastic Compliance Matrix: (Units=1/GPa)
#
#
# Indices 1 2 3 4 5 6 
#
# 1 0.007339 -0.001683 -0.000463 0.000000 0.000000 0.000000
# 2 -0.001683 0.018439 0.010113 0.000000 0.000000 0.000000
# 3 -0.000463 0.010113 0.034898 0.000000 0.000000 0.000000
# 4 0.000000 0.000000 0.000000 0.018707 0.000000 0.000000
# 5 0.000000 0.000000 0.000000 0.000000 0.046801 0.000000
# 6 0.000000 0.000000 0.000000 0.000000 0.000000 0.007526
#
#
# Mechanical properties :
#
#
# Convention : Reuss Voigt Hill
#
# Bulk Modulus (GPa) = 13.05319 24.99270 19.02294
# Shear Modulus (GPa) = 34.88877 57.96801 46.42839
#
# Velocity S-wave (km/s) = 3.95637 5.09974 4.56400
# Velocity P-wave (km/s) = 5.16980 6.77418 6.02563
#
# Compressibility (1/GPa) = 0.07660965
#
# Stress axis : x y z
#
# Youngs Moduli (GPa) = 136.25751 54.23425 28.65497
#
# Poissons Ratio (x) = 0.09127 0.01326
# Poissons Ratio (y) = 0.22930 -0.28978
# Poissons Ratio (z) = 0.06305 -0.54845
#
# Static dielectric constant tensor:
#      x y z
#    x 1.983890 0.000000 0.000000 
#    y 0.000000 1.804590 0.000000 
#    z 0.000000 0.000000 1.882150 
# 
# From -- ./inp_files/49190.got.cif
#   From: 2010.05.17/outbox.cif.g08.bks.cpg/sg64_25_cif.got.tgz:49190.got - 2010.06.03 16:29:19.
