data_PCOD9479924
_publ_section_title
;
Structure prediction by ZEFSAII (Michael W. Deem and Ramdas Pophale) SiO2 
 PCOD9479924
Probable space group: C M C A
;
_chemical_formula_sum "Si O2"
_cell_formula_units_Z 116
_cell_length_a 16.669456
_cell_length_b 24.521917
_cell_length_c 14.665400
_cell_angle_alpha 90.000000
_cell_angle_beta 90.000000
_cell_angle_gamma 90.000000
_cell_volume 5994.731803
_symmetry_space_group_name_H-M "C M C A"
_symmetry_group_IT_number 64
_symmetry_cell_setting 'orthorhombic'
loop_
_space_group_symop_operation_xyz
x,y,z
-x,1/2-y,1/2+z
x,-y,-z
-x,1/2+y,1/2-z
-x,-y,-z
x,1/2+y,1/2-z
-x,y,z
x,1/2-y,1/2+z
1/2+x,1/2+y,z
1/2-x,-y,1/2+z
1/2+x,1/2-y,-z
1/2-x,y,1/2-z
1/2-x,1/2-y,-z
1/2+x,y,1/2-z
1/2-x,1/2+y,z
1/2+x,-y,1/2+z
loop_
_atom_site_type_symbol
_atom_site_label
_atom_site_fract_x
_atom_site_fract_y
_atom_site_fract_z
Si Si1 0.000000 0.000000 0.500000
Si Si2 0.632490 0.045802 0.114373
Si Si3 0.409148 0.346183 0.351300
Si Si4 0.250069 0.845052 0.038174
Si Si5 0.301022 0.337101 0.658134
Si Si6 0.211509 0.969725 0.081845
Si Si7 0.665962 0.219690 0.693475
Si Si8 0.588899 0.958134 0.254918
O O1 0.928487 0.042693 0.469640
O O2 0.652276 0.107218 0.139641
O O3 0.713623 0.010190 0.100427
O O4 0.589286 0.012609 0.194921
O O5 0.500000 0.340881 0.385176
O O6 0.339253 0.332796 0.422900
O O7 0.395708 0.309135 0.261284
O O8 0.396780 0.407783 0.313783
O O9 0.238165 0.909891 0.049809
O O10 0.186281 0.814576 0.102717
O O11 0.246716 0.828799 0.932461
O O12 0.250000 0.344407 0.750000
O O13 0.352241 0.282184 0.670311
O O14 0.157870 0.961960 0.170773
O O15 0.165153 0.000000 0.000000
O O16 0.750000 0.219844 0.750000
O O17 0.500000 0.949878 0.295022
#
# Coordination Sequence:
#
# PCOD9479924 Si02
#       8
#     4  16  16  16  16  16  16  16
#     4  12  24  44  60  96 128 156 204 260 310 372
#     4  12  23  38  60  91 130 156 198 256 322 377
#     4  10  21  37  61  91 123 155 207 272 317 361
#     4  11  20  37  61  94 118 162 213 266 308 368
#     4  11  23  40  61  90 126 169 206 255 320 390
#     4  12  22  37  61  91 121 159 209 256 310 382
#     4   9  20  39  63  88 119 157 211 260 308 378
#     4  11  23  38  60  88 123 159 199 259 316 369
#
# _framework density 19.350324000000001
#
# number of rings (size 3 to 8) (size 9 to 14) (size 15 to 20)
#    0.000    1.103    5.517    1.655    0.000    0.276 
#    1.241    0.000    0.000    0.000    1.793    0.000 
#    0.000    0.000    0.000    0.000    0.000    0.000 
#
# Total GULP energy -323337.776502 kJ/mol
# GULP energy per Si atom -5574.789250 kJ/mol
# Density = 1.930628 g / cm^3
# Si number density = 19.350324 Si / 1000 Ang^3
#
#
#
# Elastic Constant Matrix: (Units=GPa)
#
#
# Indices 1 2 3 4 5 6 
#
# 1 58.2776 7.2295 16.0491 0.0000 0.0000 0.0000
# 2 7.2295 116.0606 33.7446 0.0000 0.0000 0.0000
# 3 16.0491 33.7446 77.8195 0.0000 0.0000 0.0000
# 4 0.0000 0.0000 0.0000 24.9183 0.0000 0.0000
# 5 0.0000 0.0000 0.0000 0.0000 6.5084 0.0000
# 6 0.0000 0.0000 0.0000 0.0000 0.0000 15.2022
#
#
#
# Elastic Compliance Matrix: (Units=1/GPa)
#
#
# Indices 1 2 3 4 5 6 
#
# 1 0.018193 -0.000048 -0.003731 0.000000 0.000000 0.000000
# 2 -0.000048 0.009859 -0.004265 0.000000 0.000000 0.000000
# 3 -0.003731 -0.004265 0.015469 0.000000 0.000000 0.000000
# 4 0.000000 0.000000 0.000000 0.040131 0.000000 0.000000
# 5 0.000000 0.000000 0.000000 0.000000 0.153649 0.000000
# 6 0.000000 0.000000 0.000000 0.000000 0.000000 0.065780
#
#
# Mechanical properties :
#
#
# Convention : Reuss Voigt Hill
#
# Bulk Modulus (GPa) = 36.45389 40.68934 38.57162
# Shear Modulus (GPa) = 15.22930 22.33473 18.78202
#
# Velocity S-wave (km/s) = 2.80845 3.40108 3.11887
# Velocity P-wave (km/s) = 5.42184 6.04124 5.73990
#
# Compressibility (1/GPa) = 0.02743191
#
# Stress axis : x y z
#
# Youngs Moduli (GPa) = 54.96700 101.42681 64.64448
#
# Poissons Ratio (x) = 0.00492 0.24119
# Poissons Ratio (y) = 0.00266 0.27573
# Poissons Ratio (z) = 0.20508 0.43261
#
# Static dielectric constant tensor:
#      x y z
#    x 1.678590 0.000000 0.000000 
#    y 0.000000 1.678500 0.000000 
#    z 0.000000 0.000000 1.736050 
# 
# From -- ./inp_files/25762.got.cif
#   From: 2010.05.17/outbox.cif.g08.bks.cpg/sg64_13_cif.got.tgz:25762.got - 2010.06.03 16:29:19.
