data_PCOD9479602
_publ_section_title
;
Structure prediction by ZEFSAII (Michael W. Deem and Ramdas Pophale) SiO2 
 PCOD9479602
Probable space group: C M C A
;
_chemical_formula_sum "Si O2"
_cell_formula_units_Z 72
_cell_length_a 30.590470
_cell_length_b 5.487070
_cell_length_c 21.314932
_cell_angle_alpha 90.000000
_cell_angle_beta 90.000000
_cell_angle_gamma 90.000000
_cell_volume 3577.755037
_symmetry_space_group_name_H-M "C M C A"
_symmetry_group_IT_number 64
_symmetry_cell_setting 'orthorhombic'
loop_
_space_group_symop_operation_xyz
x,y,z
-x,1/2-y,1/2+z
x,-y,-z
-x,1/2+y,1/2-z
-x,-y,-z
x,1/2+y,1/2-z
-x,y,z
x,1/2-y,1/2+z
1/2+x,1/2+y,z
1/2-x,-y,1/2+z
1/2+x,1/2-y,-z
1/2-x,y,1/2-z
1/2-x,1/2-y,-z
1/2+x,y,1/2-z
1/2-x,1/2+y,z
1/2+x,-y,1/2+z
loop_
_atom_site_type_symbol
_atom_site_label
_atom_site_fract_x
_atom_site_fract_y
_atom_site_fract_z
Si Si1 0.585806 0.500000 0.500000
Si Si2 0.870298 0.880745 0.930008
Si Si3 0.726783 0.491214 0.923393
Si Si4 0.451838 0.325778 0.098615
Si Si5 0.448858 0.961307 0.776057
O O1 0.617589 0.396791 0.446053
O O2 0.555327 0.297829 0.531065
O O3 0.822897 0.934995 0.903001
O O4 0.911257 0.994033 0.893924
O O5 0.869513 0.000000 0.000000
O O6 0.755883 0.257554 0.903849
O O7 0.727333 0.500000 0.000000
O O8 0.500000 0.439857 0.103198
O O9 0.448919 0.117989 0.151616
O O10 0.429682 0.725333 0.740040
O O11 0.500000 0.983912 0.756147
#
# Coordination Sequence:
#
# PCOD9479602 Si02
#       5
#     8  16  16  16  16
#     4  10  21  32  48  72 110 148 184 214 257 316
#     4   9  20  32  46  70 104 136 176 215 254 310
#     4   9  18  29  49  69  95 132 171 211 260 307
#     4  10  21  34  51  73 106 146 181 218 262 317
#     4   9  19  35  54  74  97 131 178 227 270 307
#
# _framework density 20.124354
#
# number of rings (size 3 to 8) (size 9 to 14) (size 15 to 20)
#    0.000    2.667    0.000    0.333   14.000    4.889 
#    0.000    0.000    0.000    0.000    0.000    0.000 
#    0.000    5.333    0.000    0.000    0.000    0.000 
#
# Total GULP energy -200591.609211 kJ/mol
# GULP energy per Si atom -5571.989145 kJ/mol
# Density = 2.007855 g / cm^3
# Si number density = 20.124354 Si / 1000 Ang^3
#
#
#
# Elastic Constant Matrix: (Units=GPa)
#
#
# Indices 1 2 3 4 5 6 
#
# 1 144.2391 46.7340 16.5004 0.0000 0.0000 0.0000
# 2 46.7340 94.4794 12.1414 0.0000 0.0000 0.0000
# 3 16.5004 12.1414 26.2370 0.0000 0.0000 0.0000
# 4 0.0000 0.0000 0.0000 28.4685 0.0000 0.0000
# 5 0.0000 0.0000 0.0000 0.0000 0.3739 0.0000
# 6 0.0000 0.0000 0.0000 0.0000 0.0000 21.2699
#
#
#
# Elastic Compliance Matrix: (Units=1/GPa)
#
#
# Indices 1 2 3 4 5 6 
#
# 1 0.008572 -0.003772 -0.003646 0.000000 0.000000 0.000000
# 2 -0.003772 0.012913 -0.003604 0.000000 0.000000 0.000000
# 3 -0.003646 -0.003604 0.042074 0.000000 0.000000 0.000000
# 4 0.000000 0.000000 0.000000 0.035127 0.000000 0.000000
# 5 0.000000 0.000000 0.000000 0.000000 2.674746 0.000000
# 6 0.000000 0.000000 0.000000 0.000000 0.000000 0.047015
#
#
# Mechanical properties :
#
#
# Convention : Reuss Voigt Hill
#
# Bulk Modulus (GPa) = 24.08605 46.18967 35.13786
# Shear Modulus (GPa) = 1.75050 22.66111 12.20581
#
# Velocity S-wave (km/s) = 0.93366 3.35931 2.46543
# Velocity P-wave (km/s) = 3.62724 6.16835 5.05992
#
# Compressibility (1/GPa) = 0.04151780
#
# Stress axis : x y z
#
# Youngs Moduli (GPa) = 116.65901 77.44103 23.76740
#
# Poissons Ratio (x) = 0.29208 0.08665
# Poissons Ratio (y) = 0.43999 0.08565
# Poissons Ratio (z) = 0.42529 0.27907
#
# Static dielectric constant tensor:
#      x y z
#    x 1.714440 0.000000 0.000000 
#    y 0.000000 1.811320 0.000000 
#    z 0.000000 0.000000 1.741920 
# 
# From -- ./inp_files/46804.got.cif
#   From: 2010.05.17/outbox.cif.g08.bks.cpg/sg64_24_cif.got.tgz:46804.got - 2010.06.03 16:29:19.
