data_PCOD9479650
_publ_section_title
;
Structure prediction by ZEFSAII (Michael W. Deem and Ramdas Pophale) SiO2 
 PCOD9479650
Probable space group: C M C A
;
_chemical_formula_sum "Si O2"
_cell_formula_units_Z 88
_cell_length_a 23.139029
_cell_length_b 13.383685
_cell_length_c 13.449591
_cell_angle_alpha 90.000000
_cell_angle_beta 90.000000
_cell_angle_gamma 90.000000
_cell_volume 4165.142982
_symmetry_space_group_name_H-M "C M C A"
_symmetry_group_IT_number 64
_symmetry_cell_setting 'orthorhombic'
loop_
_space_group_symop_operation_xyz
x,y,z
-x,1/2-y,1/2+z
x,-y,-z
-x,1/2+y,1/2-z
-x,-y,-z
x,1/2+y,1/2-z
-x,y,z
x,1/2-y,1/2+z
1/2+x,1/2+y,z
1/2-x,-y,1/2+z
1/2+x,1/2-y,-z
1/2-x,y,1/2-z
1/2-x,1/2-y,-z
1/2+x,y,1/2-z
1/2-x,1/2+y,z
1/2+x,-y,1/2+z
loop_
_atom_site_type_symbol
_atom_site_label
_atom_site_fract_x
_atom_site_fract_y
_atom_site_fract_z
Si Si1 0.265819 0.641050 0.966713
Si Si2 0.000000 0.298408 0.487292
Si Si3 0.500000 0.818285 0.715024
Si Si4 0.500000 0.387536 0.384052
Si Si5 0.893375 0.081979 0.912180
Si Si6 0.781772 0.479519 0.852664
Si Si7 0.908595 0.033163 0.297302
O O1 0.330126 0.629919 0.924681
O O2 0.221448 0.594772 0.886784
O O3 0.250000 0.750000 0.000000
O O4 0.256490 0.576951 0.066320
O O5 0.000000 0.349296 0.597845
O O6 0.000000 0.180607 0.516524
O O7 0.056480 0.336922 0.430646
O O8 0.500000 0.698601 0.702438
O O9 0.554781 0.868864 0.768027
O O10 0.445531 0.459504 0.367645
O O11 0.898691 0.027383 0.806061
O O12 0.899192 0.000000 0.000000
O O13 0.750000 0.466925 0.750000
O O14 0.847124 0.443430 0.845687
#
# Coordination Sequence:
#
# PCOD9479650 Si02
#       7
#    16   8   8   8  16  16  16
#     4  11  26  42  65  96 129 173 223 267 335 402
#     4  10  21  34  62  89 128 155 208 274 320 375
#     4   9  20  36  59  93 120 162 205 265 314 385
#     4   9  22  37  57  96 126 164 213 255 327 396
#     4  12  19  39  63  92 120 162 212 267 326 382
#     4  11  23  45  64  93 132 172 215 277 334 394
#     4  11  21  38  66  89 128 166 209 268 331 393
#
# _framework density 21.127727
#
# number of rings (size 3 to 8) (size 9 to 14) (size 15 to 20)
#    0.545    0.727    5.455    1.364    2.545    2.182 
#    0.000    0.000    0.000    4.364    0.000    0.000 
#    0.000    0.000    0.000    0.000    0.000    0.000 
#
# Total GULP energy -245828.699749 kJ/mol
# GULP energy per Si atom -5587.015903 kJ/mol
# Density = 2.107964 g / cm^3
# Si number density = 21.127727 Si / 1000 Ang^3
#
#
#
# Elastic Constant Matrix: (Units=GPa)
#
#
# Indices 1 2 3 4 5 6 
#
# 1 100.4915 2.9458 8.0269 0.0000 0.0000 0.0000
# 2 2.9458 60.7405 -7.6106 0.0000 0.0000 0.0000
# 3 8.0269 -7.6106 53.9622 0.0000 0.0000 0.0000
# 4 0.0000 0.0000 0.0000 31.3586 0.0000 0.0000
# 5 0.0000 0.0000 0.0000 0.0000 16.5480 0.0000
# 6 0.0000 0.0000 0.0000 0.0000 0.0000 6.1745
#
#
#
# Elastic Compliance Matrix: (Units=1/GPa)
#
#
# Indices 1 2 3 4 5 6 
#
# 1 0.010099 -0.000690 -0.001600 0.000000 0.000000 0.000000
# 2 -0.000690 0.016807 0.002473 0.000000 0.000000 0.000000
# 3 -0.001600 0.002473 0.019118 0.000000 0.000000 0.000000
# 4 0.000000 0.000000 0.000000 0.031889 0.000000 0.000000
# 5 0.000000 0.000000 0.000000 0.000000 0.060430 0.000000
# 6 0.000000 0.000000 0.000000 0.000000 0.000000 0.161956
#
#
# Mechanical properties :
#
#
# Convention : Reuss Voigt Hill
#
# Bulk Modulus (GPa) = 21.55610 24.65761 23.10686
# Shear Modulus (GPa) = 15.85307 24.93836 20.39572
#
# Velocity S-wave (km/s) = 2.74221 3.43937 3.11038
# Velocity P-wave (km/s) = 4.50013 5.24103 4.88465
#
# Compressibility (1/GPa) = 0.04639057
#
# Stress axis : x y z
#
# Youngs Moduli (GPa) = 99.01883 59.49964 52.30615
#
# Poissons Ratio (x) = 0.04107 0.08367
# Poissons Ratio (y) = 0.06834 -0.12935
# Poissons Ratio (z) = 0.15839 -0.14714
#
# Static dielectric constant tensor:
#      x y z
#    x 1.730140 0.000000 0.000000 
#    y 0.000000 1.934370 0.000000 
#    z 0.000000 0.000000 1.727240 
# 
# From -- ./inp_files/27322.got.cif
#   From: 2010.05.17/outbox.cif.g08.bks.cpg/sg64_14_cif.got.tgz:27322.got - 2010.06.03 16:29:19.
