data_PCOD9479894
_publ_section_title
;
Structure prediction by ZEFSAII (Michael W. Deem and Ramdas Pophale) SiO2 
 PCOD9479894
Probable space group: C M C A
;
_chemical_formula_sum "Si O2"
_cell_formula_units_Z 96
_cell_length_a 13.750868
_cell_length_b 15.333335
_cell_length_c 22.973946
_cell_angle_alpha 90.000000
_cell_angle_beta 90.000000
_cell_angle_gamma 90.000000
_cell_volume 4843.979909
_symmetry_space_group_name_H-M "C M C A"
_symmetry_group_IT_number 64
_symmetry_cell_setting 'orthorhombic'
loop_
_space_group_symop_operation_xyz
x,y,z
-x,1/2-y,1/2+z
x,-y,-z
-x,1/2+y,1/2-z
-x,-y,-z
x,1/2+y,1/2-z
-x,y,z
x,1/2-y,1/2+z
1/2+x,1/2+y,z
1/2-x,-y,1/2+z
1/2+x,1/2-y,-z
1/2-x,y,1/2-z
1/2-x,1/2-y,-z
1/2+x,y,1/2-z
1/2-x,1/2+y,z
1/2+x,-y,1/2+z
loop_
_atom_site_type_symbol
_atom_site_label
_atom_site_fract_x
_atom_site_fract_y
_atom_site_fract_z
Si Si1 0.883103 0.858850 0.260019
Si Si2 0.254463 0.870777 0.612311
Si Si3 0.113507 0.335946 0.781517
Si Si4 0.610170 0.396213 0.507301
Si Si5 0.115427 0.197804 0.615640
Si Si6 0.614852 0.480855 0.818649
O O1 0.860616 0.762582 0.236331
O O2 0.855032 0.859043 0.327901
O O3 0.000000 0.868451 0.259939
O O4 0.849429 0.934562 0.216824
O O5 0.178556 0.866278 0.665367
O O6 0.192092 0.872091 0.553689
O O7 0.323022 0.785993 0.614151
O O8 0.322065 0.954487 0.625552
O O9 0.124496 0.400126 0.726631
O O10 0.000000 0.337690 0.797881
O O11 0.610833 0.500000 0.500000
O O12 0.500000 0.370683 0.526454
O O13 0.627516 0.353013 0.444568
O O14 0.000000 0.218707 0.622702
O O15 0.500000 0.490160 0.832619
#
# Coordination Sequence:
#
# PCOD9479894 Si02
#       6
#    16  16  16  16  16  16
#     4   9  19  37  60  86 121 161 196 242 306 371
#     4  12  22  37  61  92 121 157 206 256 302 365
#     4  10  21  38  56  86 125 159 195 244 304 368
#     4  10  24  43  61  86 118 161 211 259 309 366
#     4  10  21  40  63  84 118 162 203 252 309 364
#     4  10  21  37  59  90 126 160 198 244 306 368
#
# _framework density 19.818415000000002
#
# number of rings (size 3 to 8) (size 9 to 14) (size 15 to 20)
#    0.000    1.833    1.667    2.000    2.333    1.333 
#    3.000    0.000    0.000    2.000    0.000    0.000 
#    0.000    0.000    0.000    0.000    0.000    0.000 
#
# Total GULP energy -268297.370108 kJ/mol
# GULP energy per Si atom -5589.528544 kJ/mol
# Density = 1.977331 g / cm^3
# Si number density = 19.818415 Si / 1000 Ang^3
#
#
#
# Elastic Constant Matrix: (Units=GPa)
#
#
# Indices 1 2 3 4 5 6 
#
# 1 102.2169 20.3317 32.0837 0.0000 0.0000 0.0000
# 2 20.3317 64.7883 3.6526 0.0000 0.0000 0.0000
# 3 32.0837 3.6526 45.2558 0.0000 0.0000 0.0000
# 4 0.0000 0.0000 0.0000 16.3185 0.0000 0.0000
# 5 0.0000 0.0000 0.0000 0.0000 25.3109 0.0000
# 6 0.0000 0.0000 0.0000 0.0000 0.0000 -5.4468
#
#
#
# Elastic Compliance Matrix: (Units=1/GPa)
#
#
# Indices 1 2 3 4 5 6 
#
# 1 0.013407 -0.003688 -0.009207 0.000000 0.000000 0.000000
# 2 -0.003688 0.016520 0.001281 0.000000 0.000000 0.000000
# 3 -0.009207 0.001281 0.028520 0.000000 0.000000 0.000000
# 4 0.000000 0.000000 0.000000 0.061280 0.000000 0.000000
# 5 0.000000 0.000000 0.000000 0.000000 0.039509 0.000000
# 6 0.000000 0.000000 0.000000 0.000000 0.000000 -0.183594
#
#
# Mechanical properties :
#
#
# Convention : Reuss Voigt Hill
#
# Bulk Modulus (GPa) = 28.39323 36.04412 32.21867
# Shear Modulus (GPa) = 471.29756 17.64938 244.47347
#
# Velocity S-wave (km/s) = 15.43775 2.98745 11.11866
# Velocity P-wave (km/s) = 18.22425 5.48876 13.45827
#
# Compressibility (1/GPa) = 0.03521967
#
# Stress axis : x y z
#
# Youngs Moduli (GPa) = 74.59051 60.53249 35.06283
#
# Poissons Ratio (x) = 0.22325 0.32282
# Poissons Ratio (y) = 0.27510 -0.04493
# Poissons Ratio (z) = 0.68674 -0.07756
#
# Static dielectric constant tensor:
#      x y z
#    x 1.740310 0.000000 0.000000 
#    y 0.000000 1.684910 0.000000 
#    z 0.000000 0.000000 1.667570 
# 
# From -- ./inp_files/39169.got.cif
#   From: 2010.05.17/outbox.cif.g08.bks.cpg/sg64_20_cif.got.tgz:39169.got - 2010.06.03 16:29:19.
