data_PCOD9479702
_publ_section_title
;
Structure prediction by ZEFSAII (Michael W. Deem and Ramdas Pophale) SiO2 
 PCOD9479702
Probable space group: C M C A
;
_chemical_formula_sum "Si O2"
_cell_formula_units_Z 72
_cell_length_a 22.297857
_cell_length_b 21.628142
_cell_length_c 7.454174
_cell_angle_alpha 90.000000
_cell_angle_beta 90.000000
_cell_angle_gamma 90.000000
_cell_volume 3594.859029
_symmetry_space_group_name_H-M "C M C A"
_symmetry_group_IT_number 64
_symmetry_cell_setting 'orthorhombic'
loop_
_space_group_symop_operation_xyz
x,y,z
-x,1/2-y,1/2+z
x,-y,-z
-x,1/2+y,1/2-z
-x,-y,-z
x,1/2+y,1/2-z
-x,y,z
x,1/2-y,1/2+z
1/2+x,1/2+y,z
1/2-x,-y,1/2+z
1/2+x,1/2-y,-z
1/2-x,y,1/2-z
1/2-x,1/2-y,-z
1/2+x,y,1/2-z
1/2-x,1/2+y,z
1/2+x,-y,1/2+z
loop_
_atom_site_type_symbol
_atom_site_label
_atom_site_fract_x
_atom_site_fract_y
_atom_site_fract_z
Si Si1 0.644675 0.500000 0.000000
Si Si2 0.644239 0.845105 0.974393
Si Si3 0.767547 0.892329 0.043471
Si Si4 0.069776 0.049759 0.659732
Si Si5 0.815001 0.781138 0.848928
O O1 0.689454 0.443486 0.962036
O O2 0.605554 0.476630 0.168633
O O3 0.703239 0.887531 0.949921
O O4 0.596504 0.886758 0.077568
O O5 0.663089 0.785562 0.091233
O O6 0.636359 0.814795 0.778672
O O7 0.750000 0.904225 0.250000
O O8 0.801024 0.827041 0.013936
O O9 0.000000 0.057642 0.706648
O O10 0.074617 0.000000 0.500000
O O11 0.750000 0.776857 0.750000
#
# Coordination Sequence:
#
# PCOD9479702 Si02
#       5
#     8  16  16  16  16
#     4  12  25  40  72  96 131 170 218 278 324 402
#     4  11  21  39  63  93 131 169 215 266 327 401
#     4  11  21  36  59 100 134 161 206 265 336 395
#     4  11  26  47  66  90 128 179 226 273 328 392
#     4  10  21  35  62  92 135 173 199 260 339 399
#
# _framework density 20.028603
#
# number of rings (size 3 to 8) (size 9 to 14) (size 15 to 20)
#    0.000    1.111    2.222    6.333    1.556    2.667 
#    0.000    1.111    0.000    0.000    0.000    0.000 
#    0.000    0.000    0.000    0.000    0.000    0.000 
#
# Total GULP energy -201023.490022 kJ/mol
# GULP energy per Si atom -5583.985834 kJ/mol
# Density = 1.998302 g / cm^3
# Si number density = 20.028603 Si / 1000 Ang^3
#
#
#
# Elastic Constant Matrix: (Units=GPa)
#
#
# Indices 1 2 3 4 5 6 
#
# 1 96.9509 63.6177 31.3830 0.0000 0.0000 0.0000
# 2 63.6177 123.1516 31.9232 0.0000 0.0000 0.0000
# 3 31.3830 31.9232 87.2970 0.0000 0.0000 0.0000
# 4 0.0000 0.0000 0.0000 33.6012 0.0000 0.0000
# 5 0.0000 0.0000 0.0000 0.0000 9.5932 0.0000
# 6 0.0000 0.0000 0.0000 0.0000 0.0000 8.2901
#
#
#
# Elastic Compliance Matrix: (Units=1/GPa)
#
#
# Indices 1 2 3 4 5 6 
#
# 1 0.016318 -0.007633 -0.003075 0.000000 0.000000 0.000000
# 2 -0.007633 0.012540 -0.001842 0.000000 0.000000 0.000000
# 3 -0.003075 -0.001842 0.013234 0.000000 0.000000 0.000000
# 4 0.000000 0.000000 0.000000 0.029761 0.000000 0.000000
# 5 0.000000 0.000000 0.000000 0.000000 0.104240 0.000000
# 6 0.000000 0.000000 0.000000 0.000000 0.000000 0.120626
#
#
# Mechanical properties :
#
#
# Convention : Reuss Voigt Hill
#
# Bulk Modulus (GPa) = 58.84634 62.36082 60.60358
# Shear Modulus (GPa) = 15.26795 22.32863 18.79829
#
# Velocity S-wave (km/s) = 2.76399 3.34254 3.06694
# Velocity P-wave (km/s) = 6.29532 6.78972 6.54719
#
# Compressibility (1/GPa) = 0.01699341
#
# Stress axis : x y z
#
# Youngs Moduli (GPa) = 61.28076 79.74241 75.56145
#
# Poissons Ratio (x) = 0.60864 0.23237
# Poissons Ratio (y) = 0.46773 0.13918
# Poissons Ratio (z) = 0.18845 0.14688
#
# Static dielectric constant tensor:
#      x y z
#    x 1.687570 0.000000 0.000000 
#    y 0.000000 1.761770 0.000000 
#    z 0.000000 0.000000 1.810240 
# 
# From -- ./inp_files/9209.got.cif
#   From: 2010.05.17/outbox.cif.g08.bks.cpg/sg64_5_cif.got.tgz:9209.got - 2010.06.03 16:29:19.
