data_PCOD9479605
_publ_section_title
;
Structure prediction by ZEFSAII (Michael W. Deem and Ramdas Pophale) SiO2 
 PCOD9479605
Probable space group: C M C A
;
_chemical_formula_sum "Si O2"
_cell_formula_units_Z 88
_cell_length_a 8.198127
_cell_length_b 33.292443
_cell_length_c 14.038035
_cell_angle_alpha 90.000000
_cell_angle_beta 90.000000
_cell_angle_gamma 90.000000
_cell_volume 3831.480570
_symmetry_space_group_name_H-M "C M C A"
_symmetry_group_IT_number 64
_symmetry_cell_setting 'orthorhombic'
loop_
_space_group_symop_operation_xyz
x,y,z
-x,1/2-y,1/2+z
x,-y,-z
-x,1/2+y,1/2-z
-x,-y,-z
x,1/2+y,1/2-z
-x,y,z
x,1/2-y,1/2+z
1/2+x,1/2+y,z
1/2-x,-y,1/2+z
1/2+x,1/2-y,-z
1/2-x,y,1/2-z
1/2-x,1/2-y,-z
1/2+x,y,1/2-z
1/2-x,1/2+y,z
1/2+x,-y,1/2+z
loop_
_atom_site_type_symbol
_atom_site_label
_atom_site_fract_x
_atom_site_fract_y
_atom_site_fract_z
Si Si1 0.810127 0.694539 0.100590
Si Si2 0.317523 0.718960 0.901513
Si Si3 0.000000 0.540760 0.613960
Si Si4 0.250000 0.155949 0.750000
Si Si5 0.327652 0.413602 0.386533
Si Si6 0.500000 0.550821 0.118071
Si Si7 0.692043 0.895050 0.887780
O O1 0.747055 0.738225 0.134136
O O2 0.747355 0.650789 0.130824
O O3 0.000000 0.692570 0.125685
O O4 0.785583 0.699940 0.986969
O O5 0.500000 0.727048 0.940677
O O6 0.335822 0.686816 0.819823
O O7 0.833700 0.562619 0.643272
O O8 0.000000 0.495269 0.650193
O O9 0.000000 0.545348 0.497997
O O10 0.335147 0.125812 0.822477
O O11 0.500000 0.436367 0.376707
O O12 0.311946 0.400972 0.497195
O O13 0.334377 0.574598 0.145539
O O14 0.500000 0.900589 0.857491
#
# Coordination Sequence:
#
# PCOD9479605 Si02
#       7
#    16  16   8   8  16   8  16
#     4   9  18  34  49  75 110 146 188 235 282 325
#     4  10  21  32  51  73 107 153 191 233 276 327
#     4   9  20  36  50  77 108 138 168 225 271 334
#     4  12  22  32  52  80 112 156 196 220 274 350
#     4  10  21  33  49  74 110 148 180 221 273 336
#     4   9  18  32  56  79 102 132 176 216 278 333
#     4   9  17  31  53  77 106 142 179 228 278 328
#
# _framework density 22.967623
#
# number of rings (size 3 to 8) (size 9 to 14) (size 15 to 20)
#    0.000    2.364    1.818    0.545    3.818    1.455 
#    0.000    3.636    0.000    0.000    0.000    1.273 
#    0.000    0.000    0.000    0.000    0.000    0.000 
#
# Total GULP energy -245186.425827 kJ/mol
# GULP energy per Si atom -5572.418769 kJ/mol
# Density = 2.291535 g / cm^3
# Si number density = 22.967623 Si / 1000 Ang^3
#
#
#
# Elastic Constant Matrix: (Units=GPa)
#
#
# Indices 1 2 3 4 5 6 
#
# 1 133.1039 90.3646 20.3234 0.0000 0.0000 0.0000
# 2 90.3646 189.9437 12.7968 0.0000 0.0000 0.0000
# 3 20.3234 12.7968 61.3949 0.0000 0.0000 0.0000
# 4 0.0000 0.0000 0.0000 20.9148 0.0000 0.0000
# 5 0.0000 0.0000 0.0000 0.0000 -226.9123 0.0000
# 6 0.0000 0.0000 0.0000 0.0000 0.0000 34.1592
#
#
#
# Elastic Compliance Matrix: (Units=1/GPa)
#
#
# Indices 1 2 3 4 5 6 
#
# 1 0.011525 -0.005300 -0.002710 0.000000 0.000000 0.000000
# 2 -0.005300 0.007777 0.000134 0.000000 0.000000 0.000000
# 3 -0.002710 0.000134 0.017157 0.000000 0.000000 0.000000
# 4 0.000000 0.000000 0.000000 0.047813 0.000000 0.000000
# 5 0.000000 0.000000 0.000000 0.000000 -0.004407 0.000000
# 6 0.000000 0.000000 0.000000 0.000000 0.000000 0.029275
#
#
# Mechanical properties :
#
#
# Convention : Reuss Voigt Hill
#
# Bulk Modulus (GPa) = 48.29659 70.15690 59.22675
# Shear Modulus (GPa) = 37.93705 -16.97048 10.48329
#
# Velocity S-wave (km/s) = 4.06860 -2.72120 2.13876
# Velocity P-wave (km/s) = 6.56849 4.55402 5.65173
#
# Compressibility (1/GPa) = 0.02070539
#
# Stress axis : x y z
#
# Youngs Moduli (GPa) = 86.76579 128.57775 58.28393
#
# Poissons Ratio (x) = 0.68152 0.15797
# Poissons Ratio (y) = 0.45990 -0.00778
# Poissons Ratio (z) = 0.23517 -0.01717
#
# Static dielectric constant tensor:
#      x y z
#    x 1.883200 0.000000 0.000000 
#    y 0.000000 1.860750 0.000000 
#    z 0.000000 0.000000 1.857470 
# 
# From -- ./inp_files/30131.got.cif
#   From: 2010.05.17/outbox.cif.g08.bks.cpg/sg64_16_cif.got.tgz:30131.got - 2010.06.03 16:29:19.
