data_PCOD9479444
_publ_section_title
;
Structure prediction by ZEFSAII (Michael W. Deem and Ramdas Pophale) SiO2 
 PCOD9479444
Probable space group: C M C A
;
_chemical_formula_sum "Si O2"
_cell_formula_units_Z 64
_cell_length_a 19.191932
_cell_length_b 14.743629
_cell_length_c 10.475182
_cell_angle_alpha 90.000000
_cell_angle_beta 90.000000
_cell_angle_gamma 90.000000
_cell_volume 2964.044145
_symmetry_space_group_name_H-M "C M C A"
_symmetry_group_IT_number 64
_symmetry_cell_setting 'orthorhombic'
loop_
_space_group_symop_operation_xyz
x,y,z
-x,1/2-y,1/2+z
x,-y,-z
-x,1/2+y,1/2-z
-x,-y,-z
x,1/2+y,1/2-z
-x,y,z
x,1/2-y,1/2+z
1/2+x,1/2+y,z
1/2-x,-y,1/2+z
1/2+x,1/2-y,-z
1/2-x,y,1/2-z
1/2-x,1/2-y,-z
1/2+x,y,1/2-z
1/2-x,1/2+y,z
1/2+x,-y,1/2+z
loop_
_atom_site_type_symbol
_atom_site_label
_atom_site_fract_x
_atom_site_fract_y
_atom_site_fract_z
Si Si1 0.288889 0.102119 0.864236
Si Si2 0.921905 0.667402 0.758604
Si Si3 0.080059 0.335624 0.543174
Si Si4 0.229143 0.899243 0.885255
O O1 0.250000 0.152616 0.750000
O O2 0.367249 0.096926 0.816644
O O3 0.254066 0.003572 0.875519
O O4 0.274097 0.144722 0.000887
O O5 0.916576 0.752917 0.855083
O O6 0.910224 0.688641 0.607902
O O7 0.000000 0.631544 0.767266
O O8 0.147317 0.394897 0.581768
O O9 0.000000 0.372544 0.553612
O O10 0.250000 0.858119 0.750000
#
# Coordination Sequence:
#
# PCOD9479444 Si02
#       4
#    16  16  16  16
#     4  10  20  40  60  85 124 158 204 253 304 357
#     4  10  22  40  63  90 124 162 202 251 307 365
#     4  10  22  41  62  90 124 162 204 249 306 366
#     4  10  22  38  60  89 123 161 205 253 302 361
#
# _framework density 21.592120999999999
#
# number of rings (size 3 to 8) (size 9 to 14) (size 15 to 20)
#    0.000    2.000    2.500    0.000    3.500    2.000 
#    0.000   10.000    0.000    0.000    0.000    0.000 
#    0.000    0.000    0.000    0.000    0.000    0.000 
#
# Total GULP energy -178257.087361 kJ/mol
# GULP energy per Si atom -5570.533980 kJ/mol
# Density = 2.154298 g / cm^3
# Si number density = 21.592121 Si / 1000 Ang^3
#
#
#
# Elastic Constant Matrix: (Units=GPa)
#
#
# Indices 1 2 3 4 5 6 
#
# 1 206.7650 52.9287 87.1701 0.0000 0.0000 0.0000
# 2 52.9287 63.9854 21.6025 0.0000 0.0000 0.0000
# 3 87.1701 21.6025 235.4003 0.0000 0.0000 0.0000
# 4 0.0000 0.0000 0.0000 8.4642 0.0000 0.0000
# 5 0.0000 0.0000 0.0000 0.0000 44.9500 0.0000
# 6 0.0000 0.0000 0.0000 0.0000 0.0000 33.8784
#
#
#
# Elastic Compliance Matrix: (Units=1/GPa)
#
#
# Indices 1 2 3 4 5 6 
#
# 1 0.007046 -0.005106 -0.002141 0.000000 0.000000 0.000000
# 2 -0.005106 0.019828 0.000071 0.000000 0.000000 0.000000
# 3 -0.002141 0.000071 0.005034 0.000000 0.000000 0.000000
# 4 0.000000 0.000000 0.000000 0.118144 0.000000 0.000000
# 5 0.000000 0.000000 0.000000 0.000000 0.022247 0.000000
# 6 0.000000 0.000000 0.000000 0.000000 0.000000 0.029517
#
#
# Mechanical properties :
#
#
# Convention : Reuss Voigt Hill
#
# Bulk Modulus (GPa) = 56.95502 92.17256 74.56379
# Shear Modulus (GPa) = 22.52059 40.42182 31.47120
#
# Velocity S-wave (km/s) = 3.23306 4.33143 3.82191
# Velocity P-wave (km/s) = 6.35388 8.23382 7.35417
#
# Compressibility (1/GPa) = 0.01755771
#
# Stress axis : x y z
#
# Youngs Moduli (GPa) = 141.92843 50.43392 198.64017
#
# Poissons Ratio (x) = 0.25750 0.42520
# Poissons Ratio (y) = 0.72463 -0.01411
# Poissons Ratio (z) = 0.30381 -0.00358
#
# Static dielectric constant tensor:
#      x y z
#    x 1.832470 0.000000 0.000000 
#    y 0.000000 1.588150 0.000000 
#    z 0.000000 0.000000 2.086380 
# 
# From -- ./inp_files/15495.got.cif
#   From: 2010.05.17/outbox.cif.g08.bks.cpg/sg64_8_cif.got.tgz:15495.got - 2010.06.03 16:29:19.
