data_PCOD9479430
_publ_section_title
;
Structure prediction by ZEFSAII (Michael W. Deem and Ramdas Pophale) SiO2 
 PCOD9479430
Probable space group: C M C A
;
_chemical_formula_sum "Si O2"
_cell_formula_units_Z 56
_cell_length_a 19.710474
_cell_length_b 13.300187
_cell_length_c 8.328539
_cell_angle_alpha 90.000000
_cell_angle_beta 90.000000
_cell_angle_gamma 90.000000
_cell_volume 2183.351402
_symmetry_space_group_name_H-M "C M C A"
_symmetry_group_IT_number 64
_symmetry_cell_setting 'orthorhombic'
loop_
_space_group_symop_operation_xyz
x,y,z
-x,1/2-y,1/2+z
x,-y,-z
-x,1/2+y,1/2-z
-x,-y,-z
x,1/2+y,1/2-z
-x,y,z
x,1/2-y,1/2+z
1/2+x,1/2+y,z
1/2-x,-y,1/2+z
1/2+x,1/2-y,-z
1/2-x,y,1/2-z
1/2-x,1/2-y,-z
1/2+x,y,1/2-z
1/2-x,1/2+y,z
1/2+x,-y,1/2+z
loop_
_atom_site_type_symbol
_atom_site_label
_atom_site_fract_x
_atom_site_fract_y
_atom_site_fract_z
Si Si1 0.000000 0.112291 0.588686
Si Si2 0.358186 0.825291 0.544333
Si Si3 0.750000 0.945838 0.750000
Si Si4 0.500000 0.165033 0.287429
Si Si5 0.142066 0.105499 0.676767
O O1 0.000000 0.214136 0.693078
O O2 0.931440 0.059562 0.641647
O O3 0.000000 0.141173 0.401314
O O4 0.429680 0.862245 0.622317
O O5 0.355989 0.853958 0.358813
O O6 0.351909 0.704704 0.566083
O O7 0.296303 0.877801 0.635866
O O8 0.801372 0.021848 0.663380
#
# Coordination Sequence:
#
# PCOD9479430 Si02
#       5
#     8  16   8   8  16
#     4  10  20  39  68  97 128 168 218 271 326 387
#     4  11  24  44  69  97 132 172 219 273 329 390
#     4  12  28  42  64  96 132 178 220 266 324 392
#     4  10  20  39  68  97 128 168 218 271 326 387
#     4  11  24  44  69  97 132 172 219 273 329 390
#
# _framework density 25.648641000000001
#
# number of rings (size 3 to 8) (size 9 to 14) (size 15 to 20)
#    0.000    1.143    0.000    9.429    0.000   12.571 
#    0.000    4.286    0.000    0.000    0.000    0.000 
#    0.000    0.000    0.000    0.000    0.000    0.000 
#
# Total GULP energy -157200.243534 kJ/mol
# GULP energy per Si atom -5614.294412 kJ/mol
# Density = 2.559026 g / cm^3
# Si number density = 25.648641 Si / 1000 Ang^3
#
#
#
# Elastic Constant Matrix: (Units=GPa)
#
#
# Indices 1 2 3 4 5 6 
#
# 1 180.7477 38.3745 3.8816 0.0000 0.0000 0.0000
# 2 38.3745 106.7804 9.7194 0.0000 0.0000 0.0000
# 3 3.8816 9.7194 79.9180 0.0000 0.0000 0.0000
# 4 0.0000 0.0000 0.0000 37.0681 0.0000 0.0000
# 5 0.0000 0.0000 0.0000 0.0000 2.4158 0.0000
# 6 0.0000 0.0000 0.0000 0.0000 0.0000 112.5654
#
#
#
# Elastic Compliance Matrix: (Units=1/GPa)
#
#
# Indices 1 2 3 4 5 6 
#
# 1 0.005990 -0.002150 -0.000029 0.000000 0.000000 0.000000
# 2 -0.002150 0.010241 -0.001141 0.000000 0.000000 0.000000
# 3 -0.000029 -0.001141 0.012653 0.000000 0.000000 0.000000
# 4 0.000000 0.000000 0.000000 0.026977 0.000000 0.000000
# 5 0.000000 0.000000 0.000000 0.000000 0.413947 0.000000
# 6 0.000000 0.000000 0.000000 0.000000 0.000000 0.008884
#
#
# Mechanical properties :
#
#
# Convention : Reuss Voigt Hill
#
# Bulk Modulus (GPa) = 44.95738 52.37746 48.66742
# Shear Modulus (GPa) = 10.14717 51.44122 30.79419
#
# Velocity S-wave (km/s) = 1.99118 4.48326 3.46875
# Velocity P-wave (km/s) = 4.78044 6.87496 5.92105
#
# Compressibility (1/GPa) = 0.02224329
#
# Stress axis : x y z
#
# Youngs Moduli (GPa) = 166.95483 97.64200 79.03236
#
# Poissons Ratio (x) = 0.20992 0.00233
# Poissons Ratio (y) = 0.35893 0.09019
# Poissons Ratio (z) = 0.00492 0.11142
#
# Static dielectric constant tensor:
#      x y z
#    x 2.069020 0.000000 0.000000 
#    y 0.000000 2.020700 0.000000 
#    z 0.000000 0.000000 1.945740 
# 
# From -- ./inp_files/7676.got.cif
#   From: 2010.05.17/outbox.cif.g08.bks.cpg/sg64_4_cif.got.tgz:7676.got - 2010.06.03 16:29:19.
