data_PCOD9479851
_publ_section_title
;
Structure prediction by ZEFSAII (Michael W. Deem and Ramdas Pophale) SiO2 
 PCOD9479851
Probable space group: C M C A
;
_chemical_formula_sum "Si O2"
_cell_formula_units_Z 96
_cell_length_a 8.785481
_cell_length_b 20.115480
_cell_length_c 31.093458
_cell_angle_alpha 90.000000
_cell_angle_beta 90.000000
_cell_angle_gamma 90.000000
_cell_volume 5494.965475
_symmetry_space_group_name_H-M "C M C A"
_symmetry_group_IT_number 64
_symmetry_cell_setting 'orthorhombic'
loop_
_space_group_symop_operation_xyz
x,y,z
-x,1/2-y,1/2+z
x,-y,-z
-x,1/2+y,1/2-z
-x,-y,-z
x,1/2+y,1/2-z
-x,y,z
x,1/2-y,1/2+z
1/2+x,1/2+y,z
1/2-x,-y,1/2+z
1/2+x,1/2-y,-z
1/2-x,y,1/2-z
1/2-x,1/2-y,-z
1/2+x,y,1/2-z
1/2-x,1/2+y,z
1/2+x,-y,1/2+z
loop_
_atom_site_type_symbol
_atom_site_label
_atom_site_fract_x
_atom_site_fract_y
_atom_site_fract_z
Si Si1 0.182173 0.547047 0.202995
Si Si2 0.817797 0.798405 0.464703
Si Si3 0.183694 0.048309 0.539053
Si Si4 0.818080 0.202806 0.296900
Si Si5 0.816871 0.802313 0.366710
Si Si6 0.318172 0.550708 0.868046
O O1 0.250000 0.531508 0.250000
O O2 0.215436 0.624981 0.194157
O O3 0.254852 0.500356 0.167063
O O4 0.000000 0.538650 0.203699
O O5 0.750000 0.750000 0.500000
O O6 0.774564 0.875500 0.471763
O O7 0.773522 0.781908 0.415537
O O8 0.000000 0.794629 0.467196
O O9 0.261050 0.030946 0.584270
O O10 0.000000 0.045883 0.544968
O O11 0.224537 0.000000 0.500000
O O12 0.750000 0.218335 0.250000
O O13 0.745986 0.250364 0.332457
O O14 0.000000 0.211005 0.296035
O O15 0.749173 0.875763 0.359406
O O16 0.000000 0.806150 0.364525
O O17 0.500000 0.552903 0.866792
#
# Coordination Sequence:
#
# PCOD9479851 Si02
#       6
#    16  16  16  16  16  16
#     4  10  21  38  58  81 111 144 180 223 271 323
#     4   9  19  34  53  77 105 138 174 217 265 313
#     4   9  19  37  57  77 105 142 182 223 270 320
#     4  10  21  37  58  83 110 142 179 221 269 321
#     4  10  21  38  57  79 110 145 182 224 270 320
#     4  11  22  36  56  82 111 143 183 227 271 321
#
# _framework density 17.470537
#
# number of rings (size 3 to 8) (size 9 to 14) (size 15 to 20)
#    0.000    2.167    0.000    4.000    0.000    7.667 
#    0.000    8.333    0.000    0.000    0.000    0.000 
#    0.000    0.000    0.000    0.000    0.000    0.000 
#
# Total GULP energy -267998.967817 kJ/mol
# GULP energy per Si atom -5583.311830 kJ/mol
# Density = 1.743077 g / cm^3
# Si number density = 17.470537 Si / 1000 Ang^3
#
#
#
# Elastic Constant Matrix: (Units=GPa)
#
#
# Indices 1 2 3 4 5 6 
#
# 1 81.6053 66.8571 83.2374 0.0000 0.0000 0.0000
# 2 66.8571 116.5751 139.0321 0.0000 0.0000 0.0000
# 3 83.2374 139.0321 194.1254 0.0000 0.0000 0.0000
# 4 0.0000 0.0000 0.0000 44.0445 0.0000 0.0000
# 5 0.0000 0.0000 0.0000 0.0000 37.4444 0.0000
# 6 0.0000 0.0000 0.0000 0.0000 0.0000 27.8746
#
#
#
# Elastic Compliance Matrix: (Units=1/GPa)
#
#
# Indices 1 2 3 4 5 6 
#
# 1 0.023349 -0.009947 -0.002887 0.000000 0.000000 0.000000
# 2 -0.009947 0.063059 -0.040897 0.000000 0.000000 0.000000
# 3 -0.002887 -0.040897 0.035680 0.000000 0.000000 0.000000
# 4 0.000000 0.000000 0.000000 0.022704 0.000000 0.000000
# 5 0.000000 0.000000 0.000000 0.000000 0.026706 0.000000
# 6 0.000000 0.000000 0.000000 0.000000 0.000000 0.035875
#
#
# Mechanical properties :
#
#
# Convention : Reuss Voigt Hill
#
# Bulk Modulus (GPa) = 68.38240 107.83988 88.11114
# Shear Modulus (GPa) = 15.63912 28.75132 22.19522
#
# Velocity S-wave (km/s) = 2.99519 4.06113 3.56819
# Velocity P-wave (km/s) = 7.15458 9.15702 8.21703
#
# Compressibility (1/GPa) = 0.01462365
#
# Stress axis : x y z
#
# Youngs Moduli (GPa) = 42.82909 15.85823 28.02692
#
# Poissons Ratio (x) = 0.15774 0.08093
# Poissons Ratio (y) = 0.42602 1.14623
# Poissons Ratio (z) = 0.12367 0.64856
#
# Static dielectric constant tensor:
#      x y z
#    x 1.585880 0.000000 0.000000 
#    y 0.000000 1.573860 0.000000 
#    z 0.000000 0.000000 1.566630 
# 
# From -- ./inp_files/48058.got.cif
#   From: 2010.05.17/outbox.cif.g08.bks.cpg/sg64_25_cif.got.tgz:48058.got - 2010.06.03 16:29:19.
