data_PCOD9479386
_publ_section_title
;
Structure prediction by ZEFSAII (Michael W. Deem and Ramdas Pophale) SiO2 
 PCOD9479386
Probable space group: C M C A
;
_chemical_formula_sum "Si O2"
_cell_formula_units_Z 112
_cell_length_a 13.984574
_cell_length_b 26.660875
_cell_length_c 12.455349
_cell_angle_alpha 90.000000
_cell_angle_beta 90.000000
_cell_angle_gamma 90.000000
_cell_volume 4643.864519
_symmetry_space_group_name_H-M "C M C A"
_symmetry_group_IT_number 64
_symmetry_cell_setting 'orthorhombic'
loop_
_space_group_symop_operation_xyz
x,y,z
-x,1/2-y,1/2+z
x,-y,-z
-x,1/2+y,1/2-z
-x,-y,-z
x,1/2+y,1/2-z
-x,y,z
x,1/2-y,1/2+z
1/2+x,1/2+y,z
1/2-x,-y,1/2+z
1/2+x,1/2-y,-z
1/2-x,y,1/2-z
1/2-x,1/2-y,-z
1/2+x,y,1/2-z
1/2-x,1/2+y,z
1/2+x,-y,1/2+z
loop_
_atom_site_type_symbol
_atom_site_label
_atom_site_fract_x
_atom_site_fract_y
_atom_site_fract_z
Si Si1 0.177277 0.106700 0.383682
Si Si2 0.105832 0.905019 0.189269
Si Si3 0.113190 0.353332 0.107495
Si Si4 0.391413 0.238457 0.465778
Si Si5 0.203527 0.715331 0.145031
Si Si6 0.862594 0.985918 0.758946
Si Si7 0.610322 0.583464 0.059304
O O1 0.152235 0.113885 0.508592
O O2 0.155256 0.161467 0.334201
O O3 0.123410 0.060220 0.325656
O O4 0.293111 0.101786 0.378608
O O5 0.152152 0.868752 0.276791
O O6 0.000000 0.884093 0.171031
O O7 0.099823 0.958035 0.252186
O O8 0.138270 0.914337 0.066629
O O9 0.124349 0.294501 0.081419
O O10 0.000000 0.362357 0.107635
O O11 0.500000 0.222247 0.442902
O O12 0.298934 0.207396 0.428604
O O13 0.372435 0.248069 0.591298
O O14 0.250000 0.737071 0.250000
O O15 0.750000 0.993392 0.750000
O O16 0.895074 0.969348 0.877897
O O17 0.500000 0.603835 0.071045
#
# Coordination Sequence:
#
# PCOD9479386 Si02
#       7
#    16  16  16  16  16  16  16
#     4  10  22  39  60  87 121 155 202 250 301 358
#     4  10  21  37  57  83 117 159 204 247 298 357
#     4   9  20  39  59  85 121 158 198 248 302 358
#     4   9  20  40  62  90 125 159 197 248 310 369
#     4  10  20  39  63  89 121 158 201 252 304 365
#     4  10  21  35  54  82 114 155 203 249 294 353
#     4  10  21  37  56  83 120 158 198 252 304 352
#
# _framework density 24.117844000000002
#
# number of rings (size 3 to 8) (size 9 to 14) (size 15 to 20)
#    0.000    2.286    0.000    2.143    2.000    4.000 
#    7.714    4.286    0.000    0.000    0.000    0.000 
#    0.000    0.000    0.000    0.000    0.000    0.000 
#
# Total GULP energy -311758.126707 kJ/mol
# GULP energy per Si atom -5567.109405 kJ/mol
# Density = 2.406295 g / cm^3
# Si number density = 24.117844 Si / 1000 Ang^3
#
#
#
# Elastic Constant Matrix: (Units=GPa)
#
#
# Indices 1 2 3 4 5 6 
#
# 1 105.9832 -7.6876 11.9125 0.0000 0.0000 0.0000
# 2 -7.6876 51.1918 20.5028 0.0000 0.0000 0.0000
# 3 11.9125 20.5028 104.3647 0.0000 0.0000 0.0000
# 4 0.0000 0.0000 0.0000 -24.4952 0.0000 0.0000
# 5 0.0000 0.0000 0.0000 0.0000 35.2818 0.0000
# 6 0.0000 0.0000 0.0000 0.0000 0.0000 12.1442
#
#
#
# Elastic Compliance Matrix: (Units=1/GPa)
#
#
# Indices 1 2 3 4 5 6 
#
# 1 0.009757 0.002074 -0.001521 0.000000 0.000000 0.000000
# 2 0.002074 0.021644 -0.004489 0.000000 0.000000 0.000000
# 3 -0.001521 -0.004489 0.010637 0.000000 0.000000 0.000000
# 4 0.000000 0.000000 0.000000 -0.040824 0.000000 0.000000
# 5 0.000000 0.000000 0.000000 0.000000 0.028343 0.000000
# 6 0.000000 0.000000 0.000000 0.000000 0.000000 0.082344
#
#
# Mechanical properties :
#
#
# Convention : Reuss Voigt Hill
#
# Bulk Modulus (GPa) = 29.26812 34.55501 31.91156
# Shear Modulus (GPa) = 38.12120 20.37365 29.24742
#
# Velocity S-wave (km/s) = 3.98002 2.90962 3.48614
# Velocity P-wave (km/s) = 5.76910 5.06424 5.42812
#
# Compressibility (1/GPa) = 0.03416687
#
# Stress axis : x y z
#
# Youngs Moduli (GPa) = 102.49142 46.20287 94.00929
#
# Poissons Ratio (x) = -0.09585 0.14301
# Poissons Ratio (y) = -0.21262 0.42198
# Poissons Ratio (z) = 0.15591 0.20739
#
# Static dielectric constant tensor:
#      x y z
#    x 1.929410 0.000000 0.000000 
#    y 0.000000 1.955560 0.000000 
#    z 0.000000 0.000000 2.005900 
# 
# From -- ./inp_files/14970.got.cif
#   From: 2010.05.17/outbox.cif.g08.bks.cpg/sg64_8_cif.got.tgz:14970.got - 2010.06.03 16:29:19.
