data_PCOD9479698
_publ_section_title
;
Structure prediction by ZEFSAII (Michael W. Deem and Ramdas Pophale) SiO2 
 PCOD9479698
Probable space group: C M C A
;
_chemical_formula_sum "Si O2"
_cell_formula_units_Z 56
_cell_length_a 5.490788
_cell_length_b 27.029959
_cell_length_c 16.337453
_cell_angle_alpha 90.000000
_cell_angle_beta 90.000000
_cell_angle_gamma 90.000000
_cell_volume 2424.735741
_symmetry_space_group_name_H-M "C M C A"
_symmetry_group_IT_number 64
_symmetry_cell_setting 'orthorhombic'
loop_
_space_group_symop_operation_xyz
x,y,z
-x,1/2-y,1/2+z
x,-y,-z
-x,1/2+y,1/2-z
-x,-y,-z
x,1/2+y,1/2-z
-x,y,z
x,1/2-y,1/2+z
1/2+x,1/2+y,z
1/2-x,-y,1/2+z
1/2+x,1/2-y,-z
1/2-x,y,1/2-z
1/2-x,1/2-y,-z
1/2+x,y,1/2-z
1/2-x,1/2+y,z
1/2+x,-y,1/2+z
loop_
_atom_site_type_symbol
_atom_site_label
_atom_site_fract_x
_atom_site_fract_y
_atom_site_fract_z
Si Si1 0.500000 0.721408 0.479317
Si Si2 0.500000 0.594851 0.917121
Si Si3 0.000000 0.391077 0.994588
Si Si4 0.000000 0.043466 0.351205
Si Si5 0.000000 0.785892 0.713016
Si Si6 0.500000 0.002799 0.335488
Si Si7 0.500000 0.167761 0.712134
O O1 0.250000 0.750000 0.500000
O O2 0.500000 0.666873 0.517154
O O3 0.500000 0.710995 0.383318
O O4 0.500000 0.556518 0.840614
O O5 0.500000 0.650487 0.881210
O O6 0.749178 0.588297 0.967318
O O7 0.000000 0.403645 0.896928
O O8 0.747834 0.019110 0.378509
O O9 0.000000 0.030717 0.253183
O O10 0.750000 0.806815 0.750000
O O11 0.000000 0.726476 0.728445
O O12 0.750000 0.148120 0.750000
#
# Coordination Sequence:
#
# PCOD9479698 Si02
#       7
#     8   8   8   8   8   8   8
#     4  12  25  45  73  99 144 187 226 283 357 413
#     4  12  25  40  68 101 135 176 227 275 347 404
#     4  12  26  44  66 105 135 178 224 287 338 404
#     4  10  23  44  65  96 136 170 228 271 337 402
#     4  10  21  40  61  96 128 174 228 278 329 403
#     4  10  23  42  69  93 133 182 225 277 335 402
#     4  10  21  35  60  90 129 165 218 278 324 388
#
# _framework density 23.095300999999999
#
# number of rings (size 3 to 8) (size 9 to 14) (size 15 to 20)
#    0.000    1.143    0.000    6.000    4.000    5.714 
#    5.143    0.000    0.000    0.000    0.000    0.000 
#    0.000    0.000    0.000    0.000    0.000    0.000 
#
# Total GULP energy -156167.295044 kJ/mol
# GULP energy per Si atom -5577.403394 kJ/mol
# Density = 2.304273 g / cm^3
# Si number density = 23.095301 Si / 1000 Ang^3
#
#
#
# Elastic Constant Matrix: (Units=GPa)
#
#
# Indices 1 2 3 4 5 6 
#
# 1 235.2634 42.5564 48.2668 0.0000 0.0000 0.0000
# 2 42.5564 78.5148 3.5366 0.0000 0.0000 0.0000
# 3 48.2668 3.5366 82.4898 0.0000 0.0000 0.0000
# 4 0.0000 0.0000 0.0000 83.8739 0.0000 0.0000
# 5 0.0000 0.0000 0.0000 0.0000 21.3706 0.0000
# 6 0.0000 0.0000 0.0000 0.0000 0.0000 14.7391
#
#
#
# Elastic Compliance Matrix: (Units=1/GPa)
#
#
# Indices 1 2 3 4 5 6 
#
# 1 0.005373 -0.002776 -0.003025 0.000000 0.000000 0.000000
# 2 -0.002776 0.014195 0.001016 0.000000 0.000000 0.000000
# 3 -0.003025 0.001016 0.013849 0.000000 0.000000 0.000000
# 4 0.000000 0.000000 0.000000 0.011923 0.000000 0.000000
# 5 0.000000 0.000000 0.000000 0.000000 0.046793 0.000000
# 6 0.000000 0.000000 0.000000 0.000000 0.000000 0.067847
#
#
# Mechanical properties :
#
#
# Convention : Reuss Voigt Hill
#
# Bulk Modulus (GPa) = 41.93377 64.99861 53.46619
# Shear Modulus (GPa) = 28.16892 44.12392 36.14642
#
# Velocity S-wave (km/s) = 3.49618 4.37569 3.96042
# Velocity P-wave (km/s) = 5.87316 7.33032 6.64182
#
# Compressibility (1/GPa) = 0.02384713
#
# Stress axis : x y z
#
# Youngs Moduli (GPa) = 186.10328 70.44511 72.20636
#
# Poissons Ratio (x) = 0.19557 0.21843
# Poissons Ratio (y) = 0.51666 -0.07335
# Poissons Ratio (z) = 0.56297 -0.07156
#
# Static dielectric constant tensor:
#      x y z
#    x 1.850240 0.000000 0.000000 
#    y 0.000000 1.998790 0.000000 
#    z 0.000000 0.000000 2.030180 
# 
# From -- ./inp_files/20158.got.cif
#   From: 2010.05.17/outbox.cif.g08.bks.cpg/sg64_11_cif.got.tgz:20158.got - 2010.06.03 16:29:19.
