data_PCOD9479534
_publ_section_title
;
Structure prediction by ZEFSAII (Michael W. Deem and Ramdas Pophale) SiO2 
 PCOD9479534
Probable space group: C M C A
;
_chemical_formula_sum "Si O2"
_cell_formula_units_Z 112
_cell_length_a 18.414346
_cell_length_b 13.260682
_cell_length_c 23.939751
_cell_angle_alpha 90.000000
_cell_angle_beta 90.000000
_cell_angle_gamma 90.000000
_cell_volume 5845.770867
_symmetry_space_group_name_H-M "C M C A"
_symmetry_group_IT_number 64
_symmetry_cell_setting 'orthorhombic'
loop_
_space_group_symop_operation_xyz
x,y,z
-x,1/2-y,1/2+z
x,-y,-z
-x,1/2+y,1/2-z
-x,-y,-z
x,1/2+y,1/2-z
-x,y,z
x,1/2-y,1/2+z
1/2+x,1/2+y,z
1/2-x,-y,1/2+z
1/2+x,1/2-y,-z
1/2-x,y,1/2-z
1/2-x,1/2-y,-z
1/2+x,y,1/2-z
1/2-x,1/2+y,z
1/2+x,-y,1/2+z
loop_
_atom_site_type_symbol
_atom_site_label
_atom_site_fract_x
_atom_site_fract_y
_atom_site_fract_z
Si Si1 0.083332 0.236425 0.545101
Si Si2 0.176741 0.682507 0.061577
Si Si3 0.701634 0.883757 0.367845
Si Si4 0.170620 0.935309 0.943590
Si Si5 0.334447 0.255670 0.237378
Si Si6 0.371856 0.875860 0.155874
Si Si7 0.083798 0.598912 0.163152
O O1 0.136319 0.194295 0.497094
O O2 0.109596 0.349795 0.558089
O O3 0.093025 0.171285 0.600875
O O4 0.000000 0.234302 0.526233
O O5 0.192216 0.793219 0.087379
O O6 0.252082 0.622653 0.056625
O O7 0.124924 0.626319 0.105647
O O8 0.667566 0.842451 0.310370
O O9 0.787214 0.898167 0.357521
O O10 0.669123 0.986033 0.392530
O O11 0.164760 0.000000 0.000000
O O12 0.250000 0.230852 0.250000
O O13 0.370742 0.297452 0.293214
O O14 0.375285 0.161052 0.211151
O O15 0.409084 0.980030 0.172194
O O16 0.000000 0.629395 0.159975
#
# Coordination Sequence:
#
# PCOD9479534 Si02
#       7
#    16  16  16  16  16  16  16
#     4  12  26  40  60  93 134 170 205 260 320 377
#     4  11  22  42  63  92 128 164 212 258 311 377
#     4  10  20  41  65  95 120 163 215 264 307 370
#     4  12  22  38  67  94 125 164 216 260 311 377
#     4   9  23  42  67  91 122 166 213 264 311 372
#     4  11  22  42  63  92 129 160 213 263 314 372
#     4  11  24  40  64  93 125 165 205 259 323 378
#
# _framework density 19.159151000000001
#
# number of rings (size 3 to 8) (size 9 to 14) (size 15 to 20)
#    0.000    1.143    4.286    2.143    0.000    4.286 
#    0.000    2.143    0.000    0.000    0.000    0.000 
#    0.000    0.000    0.000    0.000    0.000    0.000 
#
# Total GULP energy -313166.358803 kJ/mol
# GULP energy per Si atom -5592.256407 kJ/mol
# Density = 1.911554 g / cm^3
# Si number density = 19.159151 Si / 1000 Ang^3
#
#
#
# Elastic Constant Matrix: (Units=GPa)
#
#
# Indices 1 2 3 4 5 6 
#
# 1 51.0914 12.2475 17.2945 0.0000 0.0000 0.0000
# 2 12.2475 73.2522 22.9363 0.0000 0.0000 0.0000
# 3 17.2945 22.9363 92.1291 0.0000 0.0000 0.0000
# 4 0.0000 0.0000 0.0000 23.7869 0.0000 0.0000
# 5 0.0000 0.0000 0.0000 0.0000 6.3804 0.0000
# 6 0.0000 0.0000 0.0000 0.0000 0.0000 -4.4688
#
#
#
# Elastic Compliance Matrix: (Units=1/GPa)
#
#
# Indices 1 2 3 4 5 6 
#
# 1 0.021317 -0.002507 -0.003378 0.000000 0.000000 0.000000
# 2 -0.002507 0.015100 -0.003289 0.000000 0.000000 0.000000
# 3 -0.003378 -0.003289 0.012307 0.000000 0.000000 0.000000
# 4 0.000000 0.000000 0.000000 0.042040 0.000000 0.000000
# 5 0.000000 0.000000 0.000000 0.000000 0.156730 0.000000
# 6 0.000000 0.000000 0.000000 0.000000 0.000000 -0.223771
#
#
# Mechanical properties :
#
#
# Convention : Reuss Voigt Hill
#
# Bulk Modulus (GPa) = 32.91804 35.71438 34.31621
# Shear Modulus (GPa) = 95.79363 16.07265 55.93314
#
# Velocity S-wave (km/s) = 7.07866 2.89952 5.40900
# Velocity P-wave (km/s) = 9.16671 5.46727 7.54717
#
# Compressibility (1/GPa) = 0.03037848
#
# Stress axis : x y z
#
# Youngs Moduli (GPa) = 46.91104 66.22375 81.25350
#
# Poissons Ratio (x) = 0.16599 0.27444
# Poissons Ratio (y) = 0.11758 0.26723
# Poissons Ratio (z) = 0.15845 0.21780
#
# Static dielectric constant tensor:
#      x y z
#    x 1.639250 0.000000 0.000000 
#    y 0.000000 1.651350 0.000000 
#    z 0.000000 0.000000 1.657580 
# 
# From -- ./inp_files/46352.got.cif
#   From: 2010.05.17/outbox.cif.g08.bks.cpg/sg64_24_cif.got.tgz:46352.got - 2010.06.03 16:29:19.
