data_PCOD9479589
_publ_section_title
;
Structure prediction by ZEFSAII (Michael W. Deem and Ramdas Pophale) SiO2 
 PCOD9479589
Probable space group: C M C A
;
_chemical_formula_sum "Si O2"
_cell_formula_units_Z 44
_cell_length_a 14.529274
_cell_length_b 10.052745
_cell_length_c 11.864852
_cell_angle_alpha 90.000000
_cell_angle_beta 90.000000
_cell_angle_gamma 90.000000
_cell_volume 1732.969445
_symmetry_space_group_name_H-M "C M C A"
_symmetry_group_IT_number 64
_symmetry_cell_setting 'orthorhombic'
loop_
_space_group_symop_operation_xyz
x,y,z
-x,1/2-y,1/2+z
x,-y,-z
-x,1/2+y,1/2-z
-x,-y,-z
x,1/2+y,1/2-z
-x,y,z
x,1/2-y,1/2+z
1/2+x,1/2+y,z
1/2-x,-y,1/2+z
1/2+x,1/2-y,-z
1/2-x,y,1/2-z
1/2-x,1/2-y,-z
1/2+x,y,1/2-z
1/2-x,1/2+y,z
1/2+x,-y,1/2+z
loop_
_atom_site_type_symbol
_atom_site_label
_atom_site_fract_x
_atom_site_fract_y
_atom_site_fract_z
Si Si1 0.166624 0.000000 0.500000
Si Si2 0.000000 0.000000 0.000000
Si Si3 0.894189 0.127415 0.725014
Si Si4 0.168375 0.390715 0.624200
O O1 0.109677 0.936713 0.399191
O O2 0.236756 0.893727 0.556595
O O3 0.918746 0.895943 0.958525
O O4 0.849821 0.271166 0.709963
O O5 0.000000 0.132786 0.767205
O O6 0.840456 0.029149 0.807512
#
# Coordination Sequence:
#
# PCOD9479589 Si02
#       4
#     8   4  16  16
#     4  11  27  43  71 104 146 184 233 291 349 417
#     4  10  20  44  66 100 130 180 222 280 344 402
#     4  12  24  47  71 107 136 187 237 290 350 417
#     4  11  25  46  72 101 143 185 231 291 352 416
#
# _framework density 25.389944
#
# number of rings (size 3 to 8) (size 9 to 14) (size 15 to 20)
#    0.000    0.727    3.636    2.727    0.000   11.636 
#    6.545    0.000    0.000    0.000    0.000    0.000 
#    0.000    0.000    0.000    0.000    0.000    0.000 
#
# Total GULP energy -122862.339915 kJ/mol
# GULP energy per Si atom -5584.651814 kJ/mol
# Density = 2.533216 g / cm^3
# Si number density = 25.389944 Si / 1000 Ang^3
#
#
#
# Elastic Constant Matrix: (Units=GPa)
#
#
# Indices 1 2 3 4 5 6 
#
# 1 115.6079 -10.6195 2.0177 0.0000 0.0000 0.0000
# 2 -10.6195 118.7659 12.4084 0.0000 0.0000 0.0000
# 3 2.0177 12.4084 80.3013 0.0000 0.0000 0.0000
# 4 0.0000 0.0000 0.0000 44.7716 0.0000 0.0000
# 5 0.0000 0.0000 0.0000 0.0000 44.9054 0.0000
# 6 0.0000 0.0000 0.0000 0.0000 0.0000 1.2418
#
#
#
# Elastic Compliance Matrix: (Units=1/GPa)
#
#
# Indices 1 2 3 4 5 6 
#
# 1 0.008731 0.000817 -0.000346 0.000000 0.000000 0.000000
# 2 0.000817 0.008634 -0.001355 0.000000 0.000000 0.000000
# 3 -0.000346 -0.001355 0.012671 0.000000 0.000000 0.000000
# 4 0.000000 0.000000 0.000000 0.022336 0.000000 0.000000
# 5 0.000000 0.000000 0.000000 0.000000 0.022269 0.000000
# 6 0.000000 0.000000 0.000000 0.000000 0.000000 0.805285
#
#
# Mechanical properties :
#
#
# Convention : Reuss Voigt Hill
#
# Bulk Modulus (GPa) = 35.37382 35.80982 35.59182
# Shear Modulus (GPa) = 5.61094 38.90831 22.25962
#
# Velocity S-wave (km/s) = 1.48819 3.91887 2.96414
# Velocity P-wave (km/s) = 4.11283 5.88314 5.07576
#
# Compressibility (1/GPa) = 0.02826950
#
# Stress axis : x y z
#
# Youngs Moduli (GPa) = 114.53456 115.81448 78.91955
#
# Poissons Ratio (x) = -0.09460 0.02727
# Poissons Ratio (y) = -0.09355 0.10692
# Poissons Ratio (z) = 0.03958 0.15690
#
# Static dielectric constant tensor:
#      x y z
#    x 1.902080 0.000000 0.000000 
#    y 0.000000 2.006860 0.000000 
#    z 0.000000 0.000000 2.084160 
# 
# From -- ./inp_files/15172.got.cif
#   From: 2010.05.17/outbox.cif.g08.bks.cpg/sg64_8_cif.got.tgz:15172.got - 2010.06.03 16:29:19.
