data_PCOD9479078
_publ_section_title
;
Structure prediction by ZEFSAII (Michael W. Deem and Ramdas Pophale) SiO2 
 PCOD9479078
Probable space group: C M C A
;
_chemical_formula_sum "Si O2"
_cell_formula_units_Z 72
_cell_length_a 14.812452
_cell_length_b 18.746977
_cell_length_c 10.854196
_cell_angle_alpha 90.000000
_cell_angle_beta 90.000000
_cell_angle_gamma 90.000000
_cell_volume 3014.087544
_symmetry_space_group_name_H-M "C M C A"
_symmetry_group_IT_number 64
_symmetry_cell_setting 'orthorhombic'
loop_
_space_group_symop_operation_xyz
x,y,z
-x,1/2-y,1/2+z
x,-y,-z
-x,1/2+y,1/2-z
-x,-y,-z
x,1/2+y,1/2-z
-x,y,z
x,1/2-y,1/2+z
1/2+x,1/2+y,z
1/2-x,-y,1/2+z
1/2+x,1/2-y,-z
1/2-x,y,1/2-z
1/2-x,1/2-y,-z
1/2+x,y,1/2-z
1/2-x,1/2+y,z
1/2+x,-y,1/2+z
loop_
_atom_site_type_symbol
_atom_site_label
_atom_site_fract_x
_atom_site_fract_y
_atom_site_fract_z
Si Si1 0.839250 0.103767 0.178230
Si Si2 0.898623 0.537324 0.800595
Si Si3 0.739216 0.000000 0.000000
Si Si4 0.397168 0.744242 0.058465
Si Si5 0.609576 0.817533 0.303380
O O1 0.750000 0.130858 0.250000
O O2 0.798862 0.056592 0.069805
O O3 0.896806 0.167573 0.125569
O O4 0.891591 0.044591 0.257176
O O5 0.825565 0.541706 0.906638
O O6 0.877216 0.596795 0.696707
O O7 0.000000 0.552053 0.844022
O O8 0.500000 0.769828 0.038346
O O9 0.356828 0.793180 0.167668
O O10 0.356854 0.727364 0.922397
O O11 0.500000 0.807003 0.304924
#
# Coordination Sequence:
#
# PCOD9479078 Si02
#       5
#    16  16   8  16  16
#     4  10  21  36  55  83 115 149 190 238 292 348
#     4  10  20  37  60  86 113 153 200 241 286 349
#     4  10  21  36  55  84 122 152 186 242 299 344
#     4  10  20  38  60  84 113 151 193 240 290 347
#     4   9  20  36  59  86 113 146 194 244 287 336
#
# _framework density 23.887826
#
# number of rings (size 3 to 8) (size 9 to 14) (size 15 to 20)
#    0.000    2.222    0.000    2.333    0.000    3.556 
#    0.000   18.889    0.000    0.000    0.000    0.000 
#    0.000    0.000    0.000    0.000    0.000    0.000 
#
# Total GULP energy -200959.679023 kJ/mol
# GULP energy per Si atom -5582.213306 kJ/mol
# Density = 2.383346 g / cm^3
# Si number density = 23.887826 Si / 1000 Ang^3
#
#
#
# Elastic Constant Matrix: (Units=GPa)
#
#
# Indices 1 2 3 4 5 6 
#
# 1 52.7167 -1.6150 -3.1417 0.0000 0.0000 0.0000
# 2 -1.6150 61.7100 0.9021 0.0000 0.0000 0.0000
# 3 -3.1417 0.9021 61.8848 0.0000 0.0000 0.0000
# 4 0.0000 0.0000 0.0000 27.7788 0.0000 0.0000
# 5 0.0000 0.0000 0.0000 0.0000 21.2530 0.0000
# 6 0.0000 0.0000 0.0000 0.0000 0.0000 6.7824
#
#
#
# Elastic Compliance Matrix: (Units=1/GPa)
#
#
# Indices 1 2 3 4 5 6 
#
# 1 0.019041 0.000484 0.000960 0.000000 0.000000 0.000000
# 2 0.000484 0.016221 -0.000212 0.000000 0.000000 0.000000
# 3 0.000960 -0.000212 0.016211 0.000000 0.000000 0.000000
# 4 0.000000 0.000000 0.000000 0.035999 0.000000 0.000000
# 5 0.000000 0.000000 0.000000 0.000000 0.047052 0.000000
# 6 0.000000 0.000000 0.000000 0.000000 0.000000 0.147440
#
#
# Mechanical properties :
#
#
# Convention : Reuss Voigt Hill
#
# Bulk Modulus (GPa) = 18.54019 18.73360 18.63690
# Shear Modulus (GPa) = 16.80796 23.17392 19.99094
#
# Velocity S-wave (km/s) = 2.65546 3.11804 2.89600
# Velocity P-wave (km/s) = 4.14490 4.56314 4.35904
#
# Compressibility (1/GPa) = 0.05393687
#
# Stress axis : x y z
#
# Youngs Moduli (GPa) = 52.51729 61.65004 61.68705
#
# Poissons Ratio (x) = -0.02986 -0.05920
# Poissons Ratio (y) = -0.02543 0.01307
# Poissons Ratio (z) = -0.05040 0.01306
#
# Static dielectric constant tensor:
#      x y z
#    x 1.910250 0.000000 0.000000 
#    y 0.000000 1.942710 0.000000 
#    z 0.000000 0.000000 1.954630 
# 
# From -- ./inp_files/15757.got.cif
#   From: 2010.05.17/outbox.cif.g08.bks.cpg/sg64_8_cif.got.tgz:15757.got - 2010.06.03 16:29:19.
