data_PCOD9479219
_publ_section_title
;
Structure prediction by ZEFSAII (Michael W. Deem and Ramdas Pophale) SiO2 
 PCOD9479219
Probable space group: C M C A
;
_chemical_formula_sum "Si O2"
_cell_formula_units_Z 64
_cell_length_a 8.011044
_cell_length_b 14.011411
_cell_length_c 28.323377
_cell_angle_alpha 90.000000
_cell_angle_beta 90.000000
_cell_angle_gamma 90.000000
_cell_volume 3179.186625
_symmetry_space_group_name_H-M "C M C A"
_symmetry_group_IT_number 64
_symmetry_cell_setting 'orthorhombic'
loop_
_space_group_symop_operation_xyz
x,y,z
-x,1/2-y,1/2+z
x,-y,-z
-x,1/2+y,1/2-z
-x,-y,-z
x,1/2+y,1/2-z
-x,y,z
x,1/2-y,1/2+z
1/2+x,1/2+y,z
1/2-x,-y,1/2+z
1/2+x,1/2-y,-z
1/2-x,y,1/2-z
1/2-x,1/2-y,-z
1/2+x,y,1/2-z
1/2-x,1/2+y,z
1/2+x,-y,1/2+z
loop_
_atom_site_type_symbol
_atom_site_label
_atom_site_fract_x
_atom_site_fract_y
_atom_site_fract_z
Si Si1 0.196970 0.712293 0.197050
Si Si2 0.184665 0.579931 0.377616
Si Si3 0.500000 0.100406 0.060321
Si Si4 0.691693 0.852523 0.388728
Si Si5 0.000000 0.630980 0.953618
O O1 0.250000 0.734650 0.250000
O O2 0.290065 0.621662 0.174570
O O3 0.229917 0.796617 0.159554
O O4 0.000000 0.693195 0.196597
O O5 0.334124 0.620904 0.409518
O O6 0.197813 0.465839 0.378599
O O7 0.000000 0.606094 0.395174
O O8 0.500000 0.985084 0.052278
O O9 0.500000 0.148967 0.009369
O O10 0.500000 0.830482 0.403271
O O11 0.833493 0.832983 0.427464
#
# Coordination Sequence:
#
# PCOD9479219 Si02
#       5
#    16  16   8  16   8
#     4  11  23  39  59  85 116 150 191 236 285 341
#     4  10  20  38  60  84 118 152 188 236 282 333
#     4   9  18  36  57  90 111 151 192 235 280 338
#     4   9  21  38  58  85 117 150 190 236 280 337
#     4   9  18  34  63  82 115 151 192 231 288 330
#
# _framework density 20.130935999999998
#
# number of rings (size 3 to 8) (size 9 to 14) (size 15 to 20)
#    0.000    2.250    1.250    0.750    3.500    2.000 
#    0.000    8.750    0.000    0.000    0.000    0.000 
#    0.000    0.000    0.000    0.000    0.000    0.000 
#
# Total GULP energy -178739.692179 kJ/mol
# GULP energy per Si atom -5585.615381 kJ/mol
# Density = 2.008512 g / cm^3
# Si number density = 20.130936 Si / 1000 Ang^3
#
#
#
# Elastic Constant Matrix: (Units=GPa)
#
#
# Indices 1 2 3 4 5 6 
#
# 1 112.0468 26.0356 57.4996 0.0000 0.0000 0.0000
# 2 26.0356 47.2457 13.8603 0.0000 0.0000 0.0000
# 3 57.4996 13.8603 130.3266 0.0000 0.0000 0.0000
# 4 0.0000 0.0000 0.0000 27.2434 0.0000 0.0000
# 5 0.0000 0.0000 0.0000 0.0000 15.2075 0.0000
# 6 0.0000 0.0000 0.0000 0.0000 0.0000 24.4193
#
#
#
# Elastic Compliance Matrix: (Units=1/GPa)
#
#
# Indices 1 2 3 4 5 6 
#
# 1 0.012819 -0.005579 -0.005062 0.000000 0.000000 0.000000
# 2 -0.005579 0.024276 -0.000120 0.000000 0.000000 0.000000
# 3 -0.005062 -0.000120 0.009919 0.000000 0.000000 0.000000
# 4 0.000000 0.000000 0.000000 0.036706 0.000000 0.000000
# 5 0.000000 0.000000 0.000000 0.000000 0.065757 0.000000
# 6 0.000000 0.000000 0.000000 0.000000 0.000000 0.040951
#
#
# Mechanical properties :
#
#
# Convention : Reuss Voigt Hill
#
# Bulk Modulus (GPa) = 39.23008 53.82334 46.52671
# Shear Modulus (GPa) = 22.68101 26.18895 24.43498
#
# Velocity S-wave (km/s) = 3.36024 3.61075 3.48775
# Velocity P-wave (km/s) = 5.88088 6.64666 6.27546
#
# Compressibility (1/GPa) = 0.02549065
#
# Stress axis : x y z
#
# Youngs Moduli (GPa) = 78.00848 41.19351 100.81315
#
# Poissons Ratio (x) = 0.22982 0.51036
# Poissons Ratio (y) = 0.43521 0.01212
# Poissons Ratio (z) = 0.39491 0.00495
#
# Static dielectric constant tensor:
#      x y z
#    x 1.719640 0.000000 0.000000 
#    y 0.000000 1.736260 0.000000 
#    z 0.000000 0.000000 1.665120 
# 
# From -- ./inp_files/42490.got.cif
#   From: 2010.05.17/outbox.cif.g08.bks.cpg/sg64_22_cif.got.tgz:42490.got - 2010.06.03 16:29:19.
