data_PCOD9479289
_publ_section_title
;
Structure prediction by ZEFSAII (Michael W. Deem and Ramdas Pophale) SiO2 
 PCOD9479289
Probable space group: C M C A
;
_chemical_formula_sum "Si O2"
_cell_formula_units_Z 96
_cell_length_a 22.628136
_cell_length_b 18.248618
_cell_length_c 11.537284
_cell_angle_alpha 90.000000
_cell_angle_beta 90.000000
_cell_angle_gamma 90.000000
_cell_volume 4764.116179
_symmetry_space_group_name_H-M "C M C A"
_symmetry_group_IT_number 64
_symmetry_cell_setting 'orthorhombic'
loop_
_space_group_symop_operation_xyz
x,y,z
-x,1/2-y,1/2+z
x,-y,-z
-x,1/2+y,1/2-z
-x,-y,-z
x,1/2+y,1/2-z
-x,y,z
x,1/2-y,1/2+z
1/2+x,1/2+y,z
1/2-x,-y,1/2+z
1/2+x,1/2-y,-z
1/2-x,y,1/2-z
1/2-x,1/2-y,-z
1/2+x,y,1/2-z
1/2-x,1/2+y,z
1/2+x,-y,1/2+z
loop_
_atom_site_type_symbol
_atom_site_label
_atom_site_fract_x
_atom_site_fract_y
_atom_site_fract_z
Si Si1 0.568867 0.335034 0.377518
Si Si2 0.566778 0.323314 0.967089
Si Si3 0.142302 0.888238 0.164133
Si Si4 0.869661 0.060880 0.166981
Si Si5 0.633176 0.919751 0.941376
Si Si6 0.737987 0.412170 0.996940
O O1 0.500000 0.347539 0.343118
O O2 0.579673 0.248720 0.392350
O O3 0.617080 0.369314 0.289940
O O4 0.581893 0.371528 0.501937
O O5 0.500000 0.317206 0.007992
O O6 0.576891 0.394829 0.889032
O O7 0.607748 0.334561 0.077881
O O8 0.127584 0.974160 0.141371
O O9 0.209859 0.885012 0.118209
O O10 0.868608 0.071066 0.303985
O O11 0.811286 0.095461 0.104316
O O12 0.696893 0.883664 0.971352
O O13 0.628890 0.000000 0.000000
O O14 0.745653 0.500000 0.000000
#
# Coordination Sequence:
#
# PCOD9479289 Si02
#       6
#    16  16  16  16  16  16
#     4  11  25  40  57  86 126 166 200 245 304 364
#     4  10  23  40  61  83 116 167 208 249 300 357
#     4  10  20  41  63  90 119 154 203 256 297 356
#     4  10  20  38  63  93 118 149 202 256 301 355
#     4  11  21  38  60  91 123 157 192 243 305 364
#     4   8  18  35  65  90 116 149 197 246 299 355
#
# _framework density 20.150642000000001
#
# number of rings (size 3 to 8) (size 9 to 14) (size 15 to 20)
#    0.000    2.000    1.667    2.500    2.333    3.667 
#    0.000    3.333    7.333    0.000    0.000    0.000 
#    0.000    0.000    0.000    0.000    0.000    0.000 
#
# Total GULP energy -267581.752165 kJ/mol
# GULP energy per Si atom -5574.619837 kJ/mol
# Density = 2.010478 g / cm^3
# Si number density = 20.150642 Si / 1000 Ang^3
#
#
#
# Elastic Constant Matrix: (Units=GPa)
#
#
# Indices 1 2 3 4 5 6 
#
# 1 32.2037 -0.4678 0.0946 0.0000 0.0000 0.0000
# 2 -0.4678 30.9811 -10.8185 0.0000 0.0000 0.0000
# 3 0.0946 -10.8185 78.0615 0.0000 0.0000 0.0000
# 4 0.0000 0.0000 0.0000 24.6225 0.0000 0.0000
# 5 0.0000 0.0000 0.0000 0.0000 18.4935 0.0000
# 6 0.0000 0.0000 0.0000 0.0000 0.0000 2.8218
#
#
#
# Elastic Compliance Matrix: (Units=1/GPa)
#
#
# Indices 1 2 3 4 5 6 
#
# 1 0.031059 0.000479 0.000029 0.000000 0.000000 0.000000
# 2 0.000479 0.033927 0.004701 0.000000 0.000000 0.000000
# 3 0.000029 0.004701 0.013462 0.000000 0.000000 0.000000
# 4 0.000000 0.000000 0.000000 0.040613 0.000000 0.000000
# 5 0.000000 0.000000 0.000000 0.000000 0.054073 0.000000
# 6 0.000000 0.000000 0.000000 0.000000 0.000000 0.354384
#
#
# Mechanical properties :
#
#
# Convention : Reuss Voigt Hill
#
# Bulk Modulus (GPa) = 11.25290 13.20698 12.22994
# Shear Modulus (GPa) = 9.14542 19.35010 14.24776
#
# Velocity S-wave (km/s) = 2.13269 3.10219 2.66195
# Velocity P-wave (km/s) = 3.41482 4.40452 3.94086
#
# Compressibility (1/GPa) = 0.08886601
#
# Stress axis : x y z
#
# Youngs Moduli (GPa) = 32.19661 29.47531 74.28358
#
# Poissons Ratio (x) = -0.01412 -0.00214
# Poissons Ratio (y) = -0.01542 -0.34923
# Poissons Ratio (z) = -0.00093 -0.13857
#
# Static dielectric constant tensor:
#      x y z
#    x 1.732290 0.000000 0.000000 
#    y 0.000000 1.706830 0.000000 
#    z 0.000000 0.000000 1.739130 
# 
# From -- ./inp_files/18351.got.cif
#   From: 2010.05.17/outbox.cif.g08.bks.cpg/sg64_10_cif.got.tgz:18351.got - 2010.06.03 16:29:19.
