data_PCOD9479911
_publ_section_title
;
Structure prediction by ZEFSAII (Michael W. Deem and Ramdas Pophale) SiO2 
 PCOD9479911
Probable space group: C M C A
;
_chemical_formula_sum "Si O2"
_cell_formula_units_Z 56
_cell_length_a 14.672795
_cell_length_b 8.748244
_cell_length_c 18.107001
_cell_angle_alpha 90.000000
_cell_angle_beta 90.000000
_cell_angle_gamma 90.000000
_cell_volume 2324.236211
_symmetry_space_group_name_H-M "C M C A"
_symmetry_group_IT_number 64
_symmetry_cell_setting 'orthorhombic'
loop_
_space_group_symop_operation_xyz
x,y,z
-x,1/2-y,1/2+z
x,-y,-z
-x,1/2+y,1/2-z
-x,-y,-z
x,1/2+y,1/2-z
-x,y,z
x,1/2-y,1/2+z
1/2+x,1/2+y,z
1/2-x,-y,1/2+z
1/2+x,1/2-y,-z
1/2-x,y,1/2-z
1/2-x,1/2-y,-z
1/2+x,y,1/2-z
1/2-x,1/2+y,z
1/2+x,-y,1/2+z
loop_
_atom_site_type_symbol
_atom_site_label
_atom_site_fract_x
_atom_site_fract_y
_atom_site_fract_z
Si Si1 0.000000 0.906308 0.393406
Si Si2 0.154403 0.367484 0.865205
Si Si3 0.298968 0.049306 0.578450
Si Si4 0.500000 0.184445 0.721725
Si Si5 0.000000 0.432157 0.602532
O O1 0.000000 0.846932 0.308124
O O2 0.000000 0.741155 0.429340
O O3 0.914193 0.014878 0.404544
O O4 0.242781 0.474367 0.853334
O O5 0.089335 0.280588 0.805428
O O6 0.195985 0.229307 0.911671
O O7 0.402533 0.993107 0.577947
O O8 0.258296 0.000000 0.500000
O O9 0.500000 0.015294 0.684242
#
# Coordination Sequence:
#
# PCOD9479911 Si02
#       5
#     8  16  16   8   8
#     4  11  21  41  63  87 124 165 208 267 318 371
#     4  10  22  39  63  93 123 162 215 255 310 383
#     4  11  22  41  62  91 132 170 208 263 313 366
#     4   9  21  42  63  86 120 160 204 268 322 369
#     4  10  21  37  60  89 124 167 216 255 309 380
#
# _framework density 24.093937
#
# number of rings (size 3 to 8) (size 9 to 14) (size 15 to 20)
#    0.000    1.714    0.000    5.571    0.000    0.000 
#    0.000   28.571    0.000    0.000    0.000    0.000 
#    0.000    0.000    0.000    0.000    0.000    0.000 
#
# Total GULP energy -156007.027941 kJ/mol
# GULP energy per Si atom -5571.679569 kJ/mol
# Density = 2.403910 g / cm^3
# Si number density = 24.093937 Si / 1000 Ang^3
#
#
#
# Elastic Constant Matrix: (Units=GPa)
#
#
# Indices 1 2 3 4 5 6 
#
# 1 122.3382 51.3340 32.1967 0.0000 0.0000 0.0000
# 2 51.3340 183.2757 -9.8487 0.0000 0.0000 0.0000
# 3 32.1967 -9.8487 41.1618 0.0000 0.0000 0.0000
# 4 0.0000 0.0000 0.0000 22.6544 0.0000 0.0000
# 5 0.0000 0.0000 0.0000 0.0000 21.7685 0.0000
# 6 0.0000 0.0000 0.0000 0.0000 0.0000 18.8080
#
#
#
# Elastic Compliance Matrix: (Units=1/GPa)
#
#
# Indices 1 2 3 4 5 6 
#
# 1 0.012839 -0.004190 -0.011045 0.000000 0.000000 0.000000
# 2 -0.004190 0.006894 0.004927 0.000000 0.000000 0.000000
# 3 -0.011045 0.004927 0.034113 0.000000 0.000000 0.000000
# 4 0.000000 0.000000 0.000000 0.044142 0.000000 0.000000
# 5 0.000000 0.000000 0.000000 0.000000 0.045938 0.000000
# 6 0.000000 0.000000 0.000000 0.000000 0.000000 0.053169
#
#
# Mechanical properties :
#
#
# Convention : Reuss Voigt Hill
#
# Bulk Modulus (GPa) = 30.09311 54.90441 42.49876
# Shear Modulus (GPa) = 21.85443 30.85241 26.35342
#
# Velocity S-wave (km/s) = 3.01500 3.58230 3.31082
# Velocity P-wave (km/s) = 4.96360 6.32041 5.68264
#
# Compressibility (1/GPa) = 0.03323020
#
# Stress axis : x y z
#
# Youngs Moduli (GPa) = 77.88881 145.04379 29.31475
#
# Poissons Ratio (x) = 0.60767 0.32378
# Poissons Ratio (y) = 0.32632 -0.14442
# Poissons Ratio (z) = 0.86028 -0.71459
#
# Static dielectric constant tensor:
#      x y z
#    x 1.929490 0.000000 0.000000 
#    y 0.000000 1.968230 0.000000 
#    z 0.000000 0.000000 2.077650 
# 
# From -- ./inp_files/38786.got.cif
#   From: 2010.05.17/outbox.cif.g08.bks.cpg/sg64_20_cif.got.tgz:38786.got - 2010.06.03 16:29:19.
