data_PCOD9479556
_publ_section_title
;
Structure prediction by ZEFSAII (Michael W. Deem and Ramdas Pophale) SiO2 
 PCOD9479556
Probable space group: C M C A
;
_chemical_formula_sum "Si O2"
_cell_formula_units_Z 120
_cell_length_a 9.172408
_cell_length_b 25.208975
_cell_length_c 25.430412
_cell_angle_alpha 90.000000
_cell_angle_beta 90.000000
_cell_angle_gamma 90.000000
_cell_volume 5880.197976
_symmetry_space_group_name_H-M "C M C A"
_symmetry_group_IT_number 64
_symmetry_cell_setting 'orthorhombic'
loop_
_space_group_symop_operation_xyz
x,y,z
-x,1/2-y,1/2+z
x,-y,-z
-x,1/2+y,1/2-z
-x,-y,-z
x,1/2+y,1/2-z
-x,y,z
x,1/2-y,1/2+z
1/2+x,1/2+y,z
1/2-x,-y,1/2+z
1/2+x,1/2-y,-z
1/2-x,y,1/2-z
1/2-x,1/2-y,-z
1/2+x,y,1/2-z
1/2-x,1/2+y,z
1/2+x,-y,1/2+z
loop_
_atom_site_type_symbol
_atom_site_label
_atom_site_fract_x
_atom_site_fract_y
_atom_site_fract_z
Si Si1 0.500000 0.579730 0.269002
Si Si2 0.763593 0.611317 0.319539
Si Si3 0.331609 0.623292 0.528618
Si Si4 0.335131 0.583683 0.065403
Si Si5 0.327445 0.232760 0.195583
Si Si6 0.328701 0.518911 0.600127
Si Si7 0.325356 0.321882 0.363944
Si Si8 0.323358 0.922340 0.306855
O O1 0.628225 0.572013 0.312938
O O2 0.621957 0.595376 0.224445
O O3 0.830203 0.609596 0.377129
O O4 0.697146 0.670000 0.310703
O O5 0.500000 0.628044 0.511646
O O6 0.226501 0.622384 0.479083
O O7 0.313025 0.567563 0.559146
O O8 0.303065 0.665547 0.574666
O O9 0.500000 0.567106 0.052991
O O10 0.229756 0.533165 0.071436
O O11 0.500000 0.243461 0.197087
O O12 0.250000 0.248680 0.250000
O O13 0.244721 0.266246 0.151672
O O14 0.500000 0.517982 0.613633
O O15 0.229499 0.534204 0.650584
O O16 0.500000 0.324549 0.353387
O O17 0.242441 0.367058 0.329605
O O18 0.500000 0.921373 0.302765
O O19 0.250000 0.932579 0.250000
#
# Coordination Sequence:
#
# PCOD9479556 Si02
#       8
#     8  16  16  16  16  16  16  16
#     4  10  20  42  62  80 122 158 192 238 294 332
#     4  11  22  40  60  89 119 156 194 242 286 345
#     4   9  21  42  63  84 115 152 195 244 292 342
#     4  12  25  38  60  92 117 152 197 241 292 351
#     4  12  22  36  60  91 119 156 197 239 289 347
#     4  10  22  41  62  86 115 153 198 243 293 350
#     4  10  22  38  61  86 117 155 198 241 293 346
#     4  11  21  38  57  84 121 155 192 243 293 350
#
# _framework density 20.407475999999999
#
# number of rings (size 3 to 8) (size 9 to 14) (size 15 to 20)
#    0.000    1.333    2.667    4.400    2.800    4.800 
#    2.400    0.667    0.000    0.000    0.000    0.000 
#    0.000    0.000    0.000    0.000    0.000    0.000 
#
# Total GULP energy -334236.416648 kJ/mol
# GULP energy per Si atom -5570.606944 kJ/mol
# Density = 2.036103 g / cm^3
# Si number density = 20.407476 Si / 1000 Ang^3
#
#
#
# Elastic Constant Matrix: (Units=GPa)
#
#
# Indices 1 2 3 4 5 6 
#
# 1 161.5324 0.5168 33.8196 0.0000 0.0000 0.0000
# 2 0.5168 21.3382 -5.0937 0.0000 0.0000 0.0000
# 3 33.8196 -5.0937 79.0471 0.0000 0.0000 0.0000
# 4 0.0000 0.0000 0.0000 17.8150 0.0000 0.0000
# 5 0.0000 0.0000 0.0000 0.0000 32.4074 0.0000
# 6 0.0000 0.0000 0.0000 0.0000 0.0000 24.2474
#
#
#
# Elastic Compliance Matrix: (Units=1/GPa)
#
#
# Indices 1 2 3 4 5 6 
#
# 1 0.006816 -0.000875 -0.002972 0.000000 0.000000 0.000000
# 2 -0.000875 0.047709 0.003448 0.000000 0.000000 0.000000
# 3 -0.002972 0.003448 0.014145 0.000000 0.000000 0.000000
# 4 0.000000 0.000000 0.000000 0.056133 0.000000 0.000000
# 5 0.000000 0.000000 0.000000 0.000000 0.030857 0.000000
# 6 0.000000 0.000000 0.000000 0.000000 0.000000 0.041241
#
#
# Mechanical properties :
#
#
# Convention : Reuss Voigt Hill
#
# Bulk Modulus (GPa) = 14.73364 35.60033 25.16698
# Shear Modulus (GPa) = 22.69412 30.40563 26.54987
#
# Velocity S-wave (km/s) = 3.33836 3.86414 3.61083
# Velocity P-wave (km/s) = 4.70052 6.11485 5.45373
#
# Compressibility (1/GPa) = 0.06787190
#
# Stress axis : x y z
#
# Youngs Moduli (GPa) = 146.71697 20.96059 70.69813
#
# Poissons Ratio (x) = 0.01833 0.21015
# Poissons Ratio (y) = 0.12832 -0.24380
# Poissons Ratio (z) = 0.43611 -0.07228
#
# Static dielectric constant tensor:
#      x y z
#    x 1.691940 0.000000 0.000000 
#    y 0.000000 1.782380 0.000000 
#    z 0.000000 0.000000 1.739320 
# 
# From -- ./inp_files/48734.got.cif
#   From: 2010.05.17/outbox.cif.g08.bks.cpg/sg64_25_cif.got.tgz:48734.got - 2010.06.03 16:29:19.
