data_PCOD9479155
_publ_section_title
;
Structure prediction by ZEFSAII (Michael W. Deem and Ramdas Pophale) SiO2 
 PCOD9479155
Probable space group: C M C A
;
_chemical_formula_sum "Si O2"
_cell_formula_units_Z 88
_cell_length_a 32.082425
_cell_length_b 26.575960
_cell_length_c 5.091813
_cell_angle_alpha 90.000000
_cell_angle_beta 90.000000
_cell_angle_gamma 90.000000
_cell_volume 4341.387932
_symmetry_space_group_name_H-M "C M C A"
_symmetry_group_IT_number 64
_symmetry_cell_setting 'orthorhombic'
loop_
_space_group_symop_operation_xyz
x,y,z
-x,1/2-y,1/2+z
x,-y,-z
-x,1/2+y,1/2-z
-x,-y,-z
x,1/2+y,1/2-z
-x,y,z
x,1/2-y,1/2+z
1/2+x,1/2+y,z
1/2-x,-y,1/2+z
1/2+x,1/2-y,-z
1/2-x,y,1/2-z
1/2-x,1/2-y,-z
1/2+x,y,1/2-z
1/2-x,1/2+y,z
1/2+x,-y,1/2+z
loop_
_atom_site_type_symbol
_atom_site_label
_atom_site_fract_x
_atom_site_fract_y
_atom_site_fract_z
Si Si1 0.093516 0.000000 0.500000
Si Si2 0.750000 0.918237 0.250000
Si Si3 0.250000 0.654663 0.250000
Si Si4 0.160840 0.932585 0.361112
Si Si5 0.547573 0.443123 0.878659
Si Si6 0.372205 0.119376 0.386643
Si Si7 0.835459 0.216789 0.308991
O O1 0.126907 0.024371 0.699664
O O2 0.062653 0.044255 0.416561
O O3 0.745923 0.881539 0.499688
O O4 0.792056 0.948926 0.308324
O O5 0.209122 0.689081 0.223433
O O6 0.149996 0.914206 0.656331
O O7 0.152760 0.887523 0.157210
O O8 0.500000 0.427291 0.904889
O O9 0.581935 0.402060 0.952837
O O10 0.551000 0.500000 0.000000
O O11 0.369451 0.175179 0.273497
O O12 0.838484 0.237898 0.601557
#
# Coordination Sequence:
#
# PCOD9479155 Si02
#       7
#     8   8   8  16  16  16  16
#     4  10  21  36  58  88 124 160 198 250 289 368
#     4  12  20  37  57  82 120 166 204 251 288 353
#     4  12  22  37  57  86 116 148 212 261 306 331
#     4  11  21  37  58  81 120 165 201 241 296 346
#     4  10  20  37  64  94 120 149 191 248 306 366
#     4  11  22  40  59  87 122 158 193 248 304 361
#     4  12  23  38  59  86 118 159 204 252 302 352
#
# _framework density 20.270014
#
# number of rings (size 3 to 8) (size 9 to 14) (size 15 to 20)
#    0.000    0.909    5.455    3.000    0.000    0.000 
#    0.000    4.545    0.000    1.091    0.000    0.000 
#    0.000    0.000    0.000    0.000    0.000    0.000 
#
# Total GULP energy -245441.123565 kJ/mol
# GULP energy per Si atom -5578.207354 kJ/mol
# Density = 2.022388 g / cm^3
# Si number density = 20.270014 Si / 1000 Ang^3
#
#
#
# Elastic Constant Matrix: (Units=GPa)
#
#
# Indices 1 2 3 4 5 6 
#
# 1 163.4340 27.8325 7.7000 0.0000 0.0000 0.0000
# 2 27.8325 52.7664 7.4235 0.0000 0.0000 0.0000
# 3 7.7000 7.4235 74.2730 0.0000 0.0000 0.0000
# 4 0.0000 0.0000 0.0000 36.3221 0.0000 0.0000
# 5 0.0000 0.0000 0.0000 0.0000 16.3377 0.0000
# 6 0.0000 0.0000 0.0000 0.0000 0.0000 46.9545
#
#
#
# Elastic Compliance Matrix: (Units=1/GPa)
#
#
# Indices 1 2 3 4 5 6 
#
# 1 0.006731 -0.003502 -0.000348 0.000000 0.000000 0.000000
# 2 -0.003502 0.021043 -0.001740 0.000000 0.000000 0.000000
# 3 -0.000348 -0.001740 0.013674 0.000000 0.000000 0.000000
# 4 0.000000 0.000000 0.000000 0.027531 0.000000 0.000000
# 5 0.000000 0.000000 0.000000 0.000000 0.061208 0.000000
# 6 0.000000 0.000000 0.000000 0.000000 0.000000 0.021297
#
#
# Mechanical properties :
#
#
# Convention : Reuss Voigt Hill
#
# Bulk Modulus (GPa) = 33.03709 41.82063 37.42886
# Shear Modulus (GPa) = 28.94281 36.42401 32.68341
#
# Velocity S-wave (km/s) = 3.78281 4.24363 4.01983
# Velocity P-wave (km/s) = 5.95092 6.68489 6.32855
#
# Compressibility (1/GPa) = 0.03026901
#
# Stress axis : x y z
#
# Youngs Moduli (GPa) = 148.55774 47.52110 73.13236
#
# Poissons Ratio (x) = 0.16640 0.02544
# Poissons Ratio (y) = 0.52020 0.12727
# Poissons Ratio (z) = 0.05168 0.08270
#
# Static dielectric constant tensor:
#      x y z
#    x 1.722260 0.000000 0.000000 
#    y 0.000000 1.759100 0.000000 
#    z 0.000000 0.000000 1.829940 
# 
# From -- ./inp_files/3409.got.cif
#   From: 2010.05.17/outbox.cif.g08.bks.cpg/sg64_2_cif.got.tgz:3409.got - 2010.06.03 16:29:19.
