data_PCOD9479136
_publ_section_title
;
Structure prediction by ZEFSAII (Michael W. Deem and Ramdas Pophale) SiO2 
 PCOD9479136
Probable space group: C M C A
;
_chemical_formula_sum "Si O2"
_cell_formula_units_Z 88
_cell_length_a 9.827974
_cell_length_b 23.071441
_cell_length_c 18.691984
_cell_angle_alpha 90.000000
_cell_angle_beta 90.000000
_cell_angle_gamma 90.000000
_cell_volume 4238.323675
_symmetry_space_group_name_H-M "C M C A"
_symmetry_group_IT_number 64
_symmetry_cell_setting 'orthorhombic'
loop_
_space_group_symop_operation_xyz
x,y,z
-x,1/2-y,1/2+z
x,-y,-z
-x,1/2+y,1/2-z
-x,-y,-z
x,1/2+y,1/2-z
-x,y,z
x,1/2-y,1/2+z
1/2+x,1/2+y,z
1/2-x,-y,1/2+z
1/2+x,1/2-y,-z
1/2-x,y,1/2-z
1/2-x,1/2-y,-z
1/2+x,y,1/2-z
1/2-x,1/2+y,z
1/2+x,-y,1/2+z
loop_
_atom_site_type_symbol
_atom_site_label
_atom_site_fract_x
_atom_site_fract_y
_atom_site_fract_z
Si Si1 0.653730 0.803007 0.379246
Si Si2 0.846123 0.414998 0.467772
Si Si3 0.660087 0.788101 0.679494
Si Si4 0.846269 0.976593 0.356157
Si Si5 0.653617 0.422181 0.861703
Si Si6 0.750000 0.382829 0.250000
O O1 0.500000 0.779167 0.379051
O O2 0.667984 0.847990 0.444480
O O3 0.768251 0.753846 0.377880
O O4 0.674284 0.842720 0.307970
O O5 0.736588 0.450714 0.423314
O O6 0.835489 0.422760 0.552083
O O7 0.000000 0.432894 0.445703
O O8 0.500000 0.774150 0.688552
O O9 0.750000 0.778152 0.750000
O O10 0.671611 0.855775 0.661116
O O11 0.842030 0.926381 0.296347
O O12 0.000000 0.990924 0.374827
O O13 0.764652 0.033573 0.332694
O O14 0.500000 0.440324 0.841362
#
# Coordination Sequence:
#
# PCOD9479136 Si02
#       6
#    16  16  16  16  16   8
#     4  10  20  37  63  88 114 150 196 245 294 349
#     4   9  20  40  63  87 119 159 198 238 295 356
#     4  11  24  40  60  86 119 157 197 243 294 349
#     4  11  23  37  60  92 122 154 200 251 293 343
#     4  10  23  42  60  83 121 165 198 235 294 359
#     4  10  22  38  58  86 120 154 192 242 300 354
#
# _framework density 20.762926
#
# number of rings (size 3 to 8) (size 9 to 14) (size 15 to 20)
#    0.000    1.818    0.909    2.182    1.273   10.182 
#    0.000    0.000    0.000    0.000    0.000    0.000 
#    0.000    0.000    0.000    0.000    0.000    0.000 
#
# Total GULP energy -245917.724843 kJ/mol
# GULP energy per Si atom -5589.039201 kJ/mol
# Density = 2.071567 g / cm^3
# Si number density = 20.762926 Si / 1000 Ang^3
#
#
#
# Elastic Constant Matrix: (Units=GPa)
#
#
# Indices 1 2 3 4 5 6 
#
# 1 177.8770 73.0103 19.5220 0.0000 0.0000 0.0000
# 2 73.0103 99.1306 1.8040 0.0000 0.0000 0.0000
# 3 19.5220 1.8040 28.3038 0.0000 0.0000 0.0000
# 4 0.0000 0.0000 0.0000 8.5894 0.0000 0.0000
# 5 0.0000 0.0000 0.0000 0.0000 9.2299 0.0000
# 6 0.0000 0.0000 0.0000 0.0000 0.0000 29.7707
#
#
#
# Elastic Compliance Matrix: (Units=1/GPa)
#
#
# Indices 1 2 3 4 5 6 
#
# 1 0.008897 -0.006449 -0.005726 0.000000 0.000000 0.000000
# 2 -0.006449 0.014773 0.003506 0.000000 0.000000 0.000000
# 3 -0.005726 0.003506 0.039057 0.000000 0.000000 0.000000
# 4 0.000000 0.000000 0.000000 0.116422 0.000000 0.000000
# 5 0.000000 0.000000 0.000000 0.000000 0.108344 0.000000
# 6 0.000000 0.000000 0.000000 0.000000 0.000000 0.033590
#
#
# Mechanical properties :
#
#
# Convention : Reuss Voigt Hill
#
# Bulk Modulus (GPa) = 22.03080 54.88710 38.45895
# Shear Modulus (GPa) = 14.14230 23.58302 18.86266
#
# Velocity S-wave (km/s) = 2.61268 3.37385 3.01737
# Velocity P-wave (km/s) = 4.44243 6.45521 5.54098
#
# Compressibility (1/GPa) = 0.04539099
#
# Stress axis : x y z
#
# Youngs Moduli (GPa) = 112.39655 67.68971 25.60388
#
# Poissons Ratio (x) = 0.43650 0.14660
# Poissons Ratio (y) = 0.72479 -0.08977
# Poissons Ratio (z) = 0.64353 -0.23733
#
# Static dielectric constant tensor:
#      x y z
#    x 1.718820 0.000000 0.000000 
#    y 0.000000 1.757990 0.000000 
#    z 0.000000 0.000000 1.753400 
# 
# From -- ./inp_files/36758.got.cif
#   From: 2010.05.17/outbox.cif.g08.bks.cpg/sg64_19_cif.got.tgz:36758.got - 2010.06.03 16:29:19.
