data_PCOD9479142
_publ_section_title
;
Structure prediction by ZEFSAII (Michael W. Deem and Ramdas Pophale) SiO2 
 PCOD9479142
Probable space group: C M C A
;
_chemical_formula_sum "Si O2"
_cell_formula_units_Z 64
_cell_length_a 17.141153
_cell_length_b 20.187084
_cell_length_c 8.602230
_cell_angle_alpha 90.000000
_cell_angle_beta 90.000000
_cell_angle_gamma 90.000000
_cell_volume 2976.628748
_symmetry_space_group_name_H-M "C M C A"
_symmetry_group_IT_number 64
_symmetry_cell_setting 'orthorhombic'
loop_
_space_group_symop_operation_xyz
x,y,z
-x,1/2-y,1/2+z
x,-y,-z
-x,1/2+y,1/2-z
-x,-y,-z
x,1/2+y,1/2-z
-x,y,z
x,1/2-y,1/2+z
1/2+x,1/2+y,z
1/2-x,-y,1/2+z
1/2+x,1/2-y,-z
1/2-x,y,1/2-z
1/2-x,1/2-y,-z
1/2+x,y,1/2-z
1/2-x,1/2+y,z
1/2+x,-y,1/2+z
loop_
_atom_site_type_symbol
_atom_site_label
_atom_site_fract_x
_atom_site_fract_y
_atom_site_fract_z
Si Si1 0.095446 0.829761 0.075336
Si Si2 0.809842 0.940505 0.891102
Si Si3 0.091892 0.942288 0.618786
Si Si4 0.094063 0.685376 0.938629
O O1 0.114085 0.827017 0.258942
O O2 0.000000 0.841986 0.056705
O O3 0.152443 0.881785 0.991438
O O4 0.113554 0.758111 0.000445
O O5 0.750000 0.923786 0.750000
O O6 0.881862 0.965181 0.787199
O O7 0.781229 0.000000 0.000000
O O8 0.124430 0.872892 0.551014
O O9 0.000000 0.933353 0.624018
O O10 0.110012 0.000000 0.500000
O O11 0.000000 0.682921 0.943072
#
# Coordination Sequence:
#
# PCOD9479142 Si02
#       4
#    16  16  16  16
#     4  10  20  37  63  92 123 161 203 247 298 360
#     4  12  26  42  59  83 118 162 205 255 313 363
#     4  10  20  37  63  92 121 156 201 249 299 362
#     4   9  18  35  62  97 131 159 194 247 302 350
#
# _framework density 21.500833
#
# number of rings (size 3 to 8) (size 9 to 14) (size 15 to 20)
#    0.000    1.750    0.000    4.500    0.000    8.000 
#    0.000    5.000    0.000    1.500    0.000    0.000 
#    0.000    0.000    0.000    0.000    0.000    0.000 
#
# Total GULP energy -178506.434449 kJ/mol
# GULP energy per Si atom -5578.326077 kJ/mol
# Density = 2.145190 g / cm^3
# Si number density = 21.500833 Si / 1000 Ang^3
#
#
#
# Elastic Constant Matrix: (Units=GPa)
#
#
# Indices 1 2 3 4 5 6 
#
# 1 65.0553 36.9561 45.3013 0.0000 0.0000 0.0000
# 2 36.9561 299.0678 99.1541 0.0000 0.0000 0.0000
# 3 45.3013 99.1541 135.9664 0.0000 0.0000 0.0000
# 4 0.0000 0.0000 0.0000 -758.5301 0.0000 0.0000
# 5 0.0000 0.0000 0.0000 0.0000 54.7226 0.0000
# 6 0.0000 0.0000 0.0000 0.0000 0.0000 87.5292
#
#
#
# Elastic Compliance Matrix: (Units=1/GPa)
#
#
# Indices 1 2 3 4 5 6 
#
# 1 0.020042 -0.000346 -0.006425 0.000000 0.000000 0.000000
# 2 -0.000346 0.004416 -0.003105 0.000000 0.000000 0.000000
# 3 -0.006425 -0.003105 0.011760 0.000000 0.000000 0.000000
# 4 0.000000 0.000000 0.000000 -0.001318 0.000000 0.000000
# 5 0.000000 0.000000 0.000000 0.000000 0.018274 0.000000
# 6 0.000000 0.000000 0.000000 0.000000 0.000000 0.011425
#
#
# Mechanical properties :
#
#
# Convention : Reuss Voigt Hill
#
# Bulk Modulus (GPa) = 60.73410 95.87918 78.30664
# Shear Modulus (GPa) = 55.65451 -102.01048 -23.17798
#
# Velocity S-wave (km/s) = 5.09323 -6.89550 -3.28686
# Velocity P-wave (km/s) = 7.93074 4.32518 4.70051
#
# Compressibility (1/GPa) = 0.01646521
#
# Stress axis : x y z
#
# Youngs Moduli (GPa) = 49.89404 226.45169 85.03580
#
# Poissons Ratio (x) = 0.07846 0.54636
# Poissons Ratio (y) = 0.01729 0.26403
# Poissons Ratio (z) = 0.32057 0.70311
#
# Static dielectric constant tensor:
#      x y z
#    x 1.874810 0.000000 0.000000 
#    y 0.000000 1.795090 0.000000 
#    z 0.000000 0.000000 1.721820 
# 
# From -- ./inp_files/6599.got.cif
#   From: 2010.05.17/outbox.cif.g08.bks.cpg/sg64_4_cif.got.tgz:6599.got - 2010.06.03 16:29:19.
