data_PCOD9479640
_publ_section_title
;
Structure prediction by ZEFSAII (Michael W. Deem and Ramdas Pophale) SiO2 
 PCOD9479640
Probable space group: C M C A
;
_chemical_formula_sum "Si O2"
_cell_formula_units_Z 88
_cell_length_a 26.319024
_cell_length_b 10.786754
_cell_length_c 13.428094
_cell_angle_alpha 90.000000
_cell_angle_beta 90.000000
_cell_angle_gamma 90.000000
_cell_volume 3812.193419
_symmetry_space_group_name_H-M "C M C A"
_symmetry_group_IT_number 64
_symmetry_cell_setting 'orthorhombic'
loop_
_space_group_symop_operation_xyz
x,y,z
-x,1/2-y,1/2+z
x,-y,-z
-x,1/2+y,1/2-z
-x,-y,-z
x,1/2+y,1/2-z
-x,y,z
x,1/2-y,1/2+z
1/2+x,1/2+y,z
1/2-x,-y,1/2+z
1/2+x,1/2-y,-z
1/2-x,y,1/2-z
1/2-x,1/2-y,-z
1/2+x,y,1/2-z
1/2-x,1/2+y,z
1/2+x,-y,1/2+z
loop_
_atom_site_type_symbol
_atom_site_label
_atom_site_fract_x
_atom_site_fract_y
_atom_site_fract_z
Si Si1 0.944843 0.353867 0.124559
Si Si2 0.442108 0.372081 0.138760
Si Si3 0.290800 0.142971 0.521554
Si Si4 0.352312 0.701328 0.350486
Si Si5 0.862955 0.000000 0.500000
Si Si6 0.617594 0.879588 0.630216
O O1 0.945651 0.384260 0.241482
O O2 0.899579 0.425901 0.073822
O O3 0.930436 0.210412 0.118287
O O4 0.000000 0.380885 0.081328
O O5 0.500000 0.371724 0.099973
O O6 0.409232 0.248180 0.120084
O O7 0.405903 0.486027 0.110976
O O8 0.250000 0.250000 0.500000
O O9 0.314453 0.182131 0.630041
O O10 0.338510 0.154861 0.446783
O O11 0.274201 0.000000 0.500000
O O12 0.335145 0.595596 0.427533
O O13 0.358593 0.647412 0.239706
#
# Coordination Sequence:
#
# PCOD9479640 Si02
#       6
#    16  16  16  16   8  16
#     4  10  21  34  59 100 142 185 227 275 338 417
#     4  10  21  40  66 100 146 190 234 285 348 431
#     4  12  28  51  75 103 137 179 244 312 372 439
#     4  11  25  44  71 104 142 191 237 297 365 436
#     4  12  21  38  62  98 140 182 240 284 343 428
#     4  11  22  45  71 100 140 185 233 293 363 430
#
# _framework density 23.083822999999999
#
# number of rings (size 3 to 8) (size 9 to 14) (size 15 to 20)
#    0.000    1.091    5.455    0.818    1.273    2.909 
#    0.000    2.727    0.000    0.000    0.000    0.000 
#    0.000    0.000    0.000    0.000    0.000    0.000 
#
# Total GULP energy -245766.643562 kJ/mol
# GULP energy per Si atom -5585.605535 kJ/mol
# Density = 2.303128 g / cm^3
# Si number density = 23.083823 Si / 1000 Ang^3
#
#
#
# Elastic Constant Matrix: (Units=GPa)
#
#
# Indices 1 2 3 4 5 6 
#
# 1 91.0204 19.2085 24.8042 0.0000 0.0000 0.0000
# 2 19.2085 94.2663 24.6928 0.0000 0.0000 0.0000
# 3 24.8042 24.6928 93.5339 0.0000 0.0000 0.0000
# 4 0.0000 0.0000 0.0000 29.3847 0.0000 0.0000
# 5 0.0000 0.0000 0.0000 0.0000 19.1678 0.0000
# 6 0.0000 0.0000 0.0000 0.0000 0.0000 -60.8218
#
#
#
# Elastic Compliance Matrix: (Units=1/GPa)
#
#
# Indices 1 2 3 4 5 6 
#
# 1 0.012104 -0.001746 -0.002749 0.000000 0.000000 0.000000
# 2 -0.001746 0.011648 -0.002612 0.000000 0.000000 0.000000
# 3 -0.002749 -0.002612 0.012110 0.000000 0.000000 0.000000
# 4 0.000000 0.000000 0.000000 0.034031 0.000000 0.000000
# 5 0.000000 0.000000 0.000000 0.000000 0.052171 0.000000
# 6 0.000000 0.000000 0.000000 0.000000 0.000000 -0.016441
#
#
# Mechanical properties :
#
#
# Convention : Reuss Voigt Hill
#
# Bulk Modulus (GPa) = 46.19403 46.24796 46.22100
# Shear Modulus (GPa) = 39.35350 11.55382 25.45366
#
# Velocity S-wave (km/s) = 4.13341 2.23965 3.32424
# Velocity P-wave (km/s) = 6.54485 5.17362 5.89921
#
# Compressibility (1/GPa) = 0.02164782
#
# Stress axis : x y z
#
# Youngs Moduli (GPa) = 82.61600 85.84928 82.57742
#
# Poissons Ratio (x) = 0.14993 0.22699
# Poissons Ratio (y) = 0.14428 0.21569
# Poissons Ratio (z) = 0.22710 0.22424
#
# Static dielectric constant tensor:
#      x y z
#    x 1.842150 0.000000 0.000000 
#    y 0.000000 2.003300 0.000000 
#    z 0.000000 0.000000 1.874350 
# 
# From -- ./inp_files/27181.got.cif
#   From: 2010.05.17/outbox.cif.g08.bks.cpg/sg64_14_cif.got.tgz:27181.got - 2010.06.03 16:29:19.
