data_PCOD9479940
_publ_section_title
;
Structure prediction by ZEFSAII (Michael W. Deem and Ramdas Pophale) SiO2 
 PCOD9479940
Probable space group: C M C A
;
_chemical_formula_sum "Si O2"
_cell_formula_units_Z 112
_cell_length_a 15.012529
_cell_length_b 31.896034
_cell_length_c 11.229741
_cell_angle_alpha 90.000000
_cell_angle_beta 90.000000
_cell_angle_gamma 90.000000
_cell_volume 5377.250701
_symmetry_space_group_name_H-M "C M C A"
_symmetry_group_IT_number 64
_symmetry_cell_setting 'orthorhombic'
loop_
_space_group_symop_operation_xyz
x,y,z
-x,1/2-y,1/2+z
x,-y,-z
-x,1/2+y,1/2-z
-x,-y,-z
x,1/2+y,1/2-z
-x,y,z
x,1/2-y,1/2+z
1/2+x,1/2+y,z
1/2-x,-y,1/2+z
1/2+x,1/2-y,-z
1/2-x,y,1/2-z
1/2-x,1/2-y,-z
1/2+x,y,1/2-z
1/2-x,1/2+y,z
1/2+x,-y,1/2+z
loop_
_atom_site_type_symbol
_atom_site_label
_atom_site_fract_x
_atom_site_fract_y
_atom_site_fract_z
Si Si1 0.196928 0.954288 0.368208
Si Si2 0.396392 0.964996 0.804491
Si Si3 0.104463 0.234205 0.972007
Si Si4 0.399890 0.876571 0.216778
Si Si5 0.105869 0.864511 0.007992
Si Si6 0.151727 0.717433 0.791946
Si Si7 0.290113 0.563344 0.098157
O O1 0.250000 0.963724 0.250000
O O2 0.160459 0.907107 0.360036
O O3 0.267693 0.956198 0.471813
O O4 0.120677 0.989815 0.365758
O O5 0.500000 0.952518 0.819744
O O6 0.365111 0.963411 0.667172
O O7 0.311971 0.936679 0.850444
O O8 0.125021 0.184977 0.990647
O O9 0.117388 0.241551 0.828469
O O10 0.000000 0.240901 0.994953
O O11 0.151618 0.258949 0.080777
O O12 0.500000 0.891527 0.200106
O O13 0.377852 0.880172 0.356889
O O14 0.396050 0.827143 0.190336
O O15 0.000000 0.869898 0.983128
O O16 0.167175 0.890988 0.920324
O O17 0.250000 0.705928 0.750000
#
# Coordination Sequence:
#
# PCOD9479940 Si02
#       7
#    16  16  16  16  16  16  16
#     4  12  22  39  64  97 126 160 209 269 321 375
#     4  11  26  45  64  93 131 172 213 262 327 390
#     4  10  21  40  64  92 129 169 214 267 324 387
#     4  10  21  37  62  95 128 165 209 262 320 376
#     4   9  19  37  64  94 126 169 214 262 318 381
#     4  11  22  39  63  97 130 171 213 266 323 394
#     4  11  23  42  68  90 127 170 214 263 317 382
#
# _framework density 20.828486999999999
#
# number of rings (size 3 to 8) (size 9 to 14) (size 15 to 20)
#    0.000    1.429    2.857    4.286    2.000    1.714 
#    2.571    0.714    0.000    5.143    0.000    0.000 
#    0.000    0.000    0.000    0.000    0.000    0.000 
#
# Total GULP energy -311913.897499 kJ/mol
# GULP energy per Si atom -5569.891027 kJ/mol
# Density = 2.078108 g / cm^3
# Si number density = 20.828487 Si / 1000 Ang^3
#
#
#
# Elastic Constant Matrix: (Units=GPa)
#
#
# Indices 1 2 3 4 5 6 
#
# 1 76.7313 27.8588 23.7944 0.0000 0.0000 0.0000
# 2 27.8588 65.8147 27.9191 0.0000 0.0000 0.0000
# 3 23.7944 27.9191 81.8044 0.0000 0.0000 0.0000
# 4 0.0000 0.0000 0.0000 183.2025 0.0000 0.0000
# 5 0.0000 0.0000 0.0000 0.0000 28.2635 0.0000
# 6 0.0000 0.0000 0.0000 0.0000 0.0000 22.5704
#
#
#
# Elastic Compliance Matrix: (Units=1/GPa)
#
#
# Indices 1 2 3 4 5 6 
#
# 1 0.015901 -0.005576 -0.002722 0.000000 0.000000 0.000000
# 2 -0.005576 0.019722 -0.005109 0.000000 0.000000 0.000000
# 3 -0.002722 -0.005109 0.014760 0.000000 0.000000 0.000000
# 4 0.000000 0.000000 0.000000 0.005458 0.000000 0.000000
# 5 0.000000 0.000000 0.000000 0.000000 0.035381 0.000000
# 6 0.000000 0.000000 0.000000 0.000000 0.000000 0.044306
#
#
# Mechanical properties :
#
#
# Convention : Reuss Voigt Hill
#
# Bulk Modulus (GPa) = 42.42980 42.61055 42.52017
# Shear Modulus (GPa) = 29.37749 56.45915 42.91832
#
# Velocity S-wave (km/s) = 3.75967 5.21206 4.54426
# Velocity P-wave (km/s) = 6.26594 7.53146 6.92766
#
# Compressibility (1/GPa) = 0.02356834
#
# Stress axis : x y z
#
# Youngs Moduli (GPa) = 62.88864 50.70548 67.75211
#
# Poissons Ratio (x) = 0.28274 0.18443
# Poissons Ratio (y) = 0.35067 0.34614
# Poissons Ratio (z) = 0.17119 0.25905
#
# Static dielectric constant tensor:
#      x y z
#    x 1.759500 0.000000 0.000000 
#    y 0.000000 1.775320 0.000000 
#    z 0.000000 0.000000 2.242310 
# 
# From -- ./inp_files/14978.got.cif
#   From: 2010.05.17/outbox.cif.g08.bks.cpg/sg64_8_cif.got.tgz:14978.got - 2010.06.03 16:29:19.
