data_PCOD9479727
_publ_section_title
;
Structure prediction by ZEFSAII (Michael W. Deem and Ramdas Pophale) SiO2 
 PCOD9479727
Probable space group: C M C A
;
_chemical_formula_sum "Si O2"
_cell_formula_units_Z 80
_cell_length_a 8.474628
_cell_length_b 15.388714
_cell_length_c 30.709802
_cell_angle_alpha 90.000000
_cell_angle_beta 90.000000
_cell_angle_gamma 90.000000
_cell_volume 4004.976649
_symmetry_space_group_name_H-M "C M C A"
_symmetry_group_IT_number 64
_symmetry_cell_setting 'orthorhombic'
loop_
_space_group_symop_operation_xyz
x,y,z
-x,1/2-y,1/2+z
x,-y,-z
-x,1/2+y,1/2-z
-x,-y,-z
x,1/2+y,1/2-z
-x,y,z
x,1/2-y,1/2+z
1/2+x,1/2+y,z
1/2-x,-y,1/2+z
1/2+x,1/2-y,-z
1/2-x,y,1/2-z
1/2-x,1/2-y,-z
1/2+x,y,1/2-z
1/2-x,1/2+y,z
1/2+x,-y,1/2+z
loop_
_atom_site_type_symbol
_atom_site_label
_atom_site_fract_x
_atom_site_fract_y
_atom_site_fract_z
Si Si1 0.320471 0.726371 0.953302
Si Si2 0.190365 0.368153 0.700956
Si Si3 0.181453 0.043610 0.546849
Si Si4 0.310994 0.517271 0.865518
Si Si5 0.311879 0.786089 0.138547
O O1 0.500000 0.756323 0.950918
O O2 0.303767 0.622336 0.952437
O O3 0.230119 0.752261 0.909265
O O4 0.250000 0.750000 0.000000
O O5 0.250000 0.370435 0.750000
O O6 0.237956 0.453054 0.673219
O O7 0.243443 0.281795 0.675026
O O8 0.000000 0.366636 0.701421
O O9 0.227259 0.988883 0.589305
O O10 0.000000 0.075315 0.552239
O O11 0.190529 0.000000 0.500000
O O12 0.500000 0.512201 0.870465
O O13 0.262428 0.617718 0.857214
O O14 0.500000 0.795305 0.141474
#
# Coordination Sequence:
#
# PCOD9479727 Si02
#       5
#    16  16  16  16  16
#     4  11  22  36  56  84 117 157 198 241 294 353
#     4  10  24  42  63  90 119 154 201 248 303 361
#     4  10  21  36  55  85 118 153 198 241 291 353
#     4  10  21  39  60  87 119 157 199 244 299 357
#     4  10  21  40  61  87 120 157 198 248 300 357
#
# _framework density 19.975147
#
# number of rings (size 3 to 8) (size 9 to 14) (size 15 to 20)
#    0.000    1.800    0.000    6.000    2.800    5.600 
#    0.000    4.000    0.000    0.000    0.000    0.000 
#    0.000    0.000    0.000    0.000    0.000    0.000 
#
# Total GULP energy -223268.438743 kJ/mol
# GULP energy per Si atom -5581.710969 kJ/mol
# Density = 1.992968 g / cm^3
# Si number density = 19.975147 Si / 1000 Ang^3
#
#
#
# Elastic Constant Matrix: (Units=GPa)
#
#
# Indices 1 2 3 4 5 6 
#
# 1 56.2334 13.7581 26.9793 0.0000 0.0000 0.0000
# 2 13.7581 80.7698 75.3687 0.0000 0.0000 0.0000
# 3 26.9793 75.3687 197.7667 0.0000 0.0000 0.0000
# 4 0.0000 0.0000 0.0000 38.5502 0.0000 0.0000
# 5 0.0000 0.0000 0.0000 0.0000 37.2019 0.0000
# 6 0.0000 0.0000 0.0000 0.0000 0.0000 24.3028
#
#
#
# Elastic Compliance Matrix: (Units=1/GPa)
#
#
# Indices 1 2 3 4 5 6 
#
# 1 0.019113 -0.001277 -0.002121 0.000000 0.000000 0.000000
# 2 -0.001277 0.019299 -0.007181 0.000000 0.000000 0.000000
# 3 -0.002121 -0.007181 0.008082 0.000000 0.000000 0.000000
# 4 0.000000 0.000000 0.000000 0.025940 0.000000 0.000000
# 5 0.000000 0.000000 0.000000 0.000000 0.026880 0.000000
# 6 0.000000 0.000000 0.000000 0.000000 0.000000 0.041147
#
#
# Mechanical properties :
#
#
# Convention : Reuss Voigt Hill
#
# Bulk Modulus (GPa) = 39.46662 62.99800 51.23231
# Shear Modulus (GPa) = 29.40069 34.58856 31.99463
#
# Velocity S-wave (km/s) = 3.84065 4.16574 4.00649
# Velocity P-wave (km/s) = 6.28237 7.39895 6.86341
#
# Compressibility (1/GPa) = 0.02533787
#
# Stress axis : x y z
#
# Youngs Moduli (GPa) = 52.32066 51.81686 123.72709
#
# Poissons Ratio (x) = 0.06615 0.26241
# Poissons Ratio (y) = 0.06679 0.88843
# Poissons Ratio (z) = 0.11097 0.37208
#
# Static dielectric constant tensor:
#      x y z
#    x 1.682420 0.000000 0.000000 
#    y 0.000000 1.726330 0.000000 
#    z 0.000000 0.000000 1.725820 
# 
# From -- ./inp_files/47888.got.cif
#   From: 2010.05.17/outbox.cif.g08.bks.cpg/sg64_24_cif.got.tgz:47888.got - 2010.06.03 16:29:19.
