data_PCOD9479578
_publ_section_title
;
Structure prediction by ZEFSAII (Michael W. Deem and Ramdas Pophale) SiO2 
 PCOD9479578
Probable space group: C M C A
;
_chemical_formula_sum "Si O2"
_cell_formula_units_Z 72
_cell_length_a 10.249268
_cell_length_b 14.860376
_cell_length_c 24.133826
_cell_angle_alpha 90.000000
_cell_angle_beta 90.000000
_cell_angle_gamma 90.000000
_cell_volume 3675.774196
_symmetry_space_group_name_H-M "C M C A"
_symmetry_group_IT_number 64
_symmetry_cell_setting 'orthorhombic'
loop_
_space_group_symop_operation_xyz
x,y,z
-x,1/2-y,1/2+z
x,-y,-z
-x,1/2+y,1/2-z
-x,-y,-z
x,1/2+y,1/2-z
-x,y,z
x,1/2-y,1/2+z
1/2+x,1/2+y,z
1/2-x,-y,1/2+z
1/2+x,1/2-y,-z
1/2-x,y,1/2-z
1/2-x,1/2-y,-z
1/2+x,y,1/2-z
1/2-x,1/2+y,z
1/2+x,-y,1/2+z
loop_
_atom_site_type_symbol
_atom_site_label
_atom_site_fract_x
_atom_site_fract_y
_atom_site_fract_z
Si Si1 0.769555 0.505842 0.622489
Si Si2 0.648907 0.134188 0.961666
Si Si3 0.000000 0.415072 0.304022
Si Si4 0.000000 0.717186 0.164045
Si Si5 0.500000 0.982547 0.811530
Si Si6 0.244351 0.813962 0.583961
O O1 0.744546 0.562295 0.566574
O O2 0.629652 0.503166 0.653264
O O3 0.808855 0.403189 0.609353
O O4 0.874548 0.553451 0.661090
O O5 0.500000 0.102478 0.958640
O O6 0.666589 0.227929 0.928390
O O7 0.684839 0.155080 0.024978
O O8 0.000000 0.307367 0.300541
O O9 0.000000 0.461888 0.244667
O O10 0.873505 0.714765 0.124281
O O11 0.000000 0.624917 0.198557
#
# Coordination Sequence:
#
# PCOD9479578 Si02
#       6
#    16  16   8   8   8  16
#     4  11  23  41  64  89 127 159 206 256 305 364
#     4  11  21  37  63  94 126 167 204 242 303 378
#     4  12  24  44  62  94 122 159 206 271 311 352
#     4  10  20  43  65  85 123 159 197 259 310 358
#     4  10  24  45  64  86 116 165 213 250 308 371
#     4  10  22  38  60  94 126 161 200 247 305 373
#
# _framework density 19.587710000000001
#
# number of rings (size 3 to 8) (size 9 to 14) (size 15 to 20)
#    0.000    1.333    4.444    1.333    1.556    0.889 
#    4.000    3.333    0.000    0.000    0.000    0.000 
#    0.000    0.000    0.000    0.000    0.000    0.000 
#
# Total GULP energy -201197.954723 kJ/mol
# GULP energy per Si atom -5588.832076 kJ/mol
# Density = 1.954313 g / cm^3
# Si number density = 19.587710 Si / 1000 Ang^3
#
#
#
# Elastic Constant Matrix: (Units=GPa)
#
#
# Indices 1 2 3 4 5 6 
#
# 1 50.9097 11.4216 -0.7794 0.0000 0.0000 0.0000
# 2 11.4216 119.1166 38.6403 0.0000 0.0000 0.0000
# 3 -0.7794 38.6403 68.1982 0.0000 0.0000 0.0000
# 4 0.0000 0.0000 0.0000 40.9650 0.0000 0.0000
# 5 0.0000 0.0000 0.0000 0.0000 2.9712 0.0000
# 6 0.0000 0.0000 0.0000 0.0000 0.0000 15.8173
#
#
#
# Elastic Compliance Matrix: (Units=1/GPa)
#
#
# Indices 1 2 3 4 5 6 
#
# 1 0.020221 -0.002467 0.001629 0.000000 0.000000 0.000000
# 2 -0.002467 0.010587 -0.006026 0.000000 0.000000 0.000000
# 3 0.001629 -0.006026 0.018096 0.000000 0.000000 0.000000
# 4 0.000000 0.000000 0.000000 0.024411 0.000000 0.000000
# 5 0.000000 0.000000 0.000000 0.000000 0.336566 0.000000
# 6 0.000000 0.000000 0.000000 0.000000 0.000000 0.063222
#
#
# Mechanical properties :
#
#
# Convention : Reuss Voigt Hill
#
# Bulk Modulus (GPa) = 28.42966 37.42104 32.92535
# Shear Modulus (GPa) = 10.02893 24.54685 17.28789
#
# Velocity S-wave (km/s) = 2.26520 3.54386 2.97406
# Velocity P-wave (km/s) = 4.62461 5.99092 5.35155
#
# Compressibility (1/GPa) = 0.03517453
#
# Stress axis : x y z
#
# Youngs Moduli (GPa) = 49.45327 94.45860 55.25998
#
# Poissons Ratio (x) = 0.23306 -0.09002
# Poissons Ratio (y) = 0.12202 0.33302
# Poissons Ratio (z) = -0.08056 0.56925
#
# Static dielectric constant tensor:
#      x y z
#    x 1.647840 0.000000 0.000000 
#    y 0.000000 1.699300 0.000000 
#    z 0.000000 0.000000 1.651750 
# 
# From -- ./inp_files/43872.got.cif
#   From: 2010.05.17/outbox.cif.g08.bks.cpg/sg64_22_cif.got.tgz:43872.got - 2010.06.03 16:29:19.
