data_PCOD9479887
_publ_section_title
;
Structure prediction by ZEFSAII (Michael W. Deem and Ramdas Pophale) SiO2 
 PCOD9479887
Probable space group: C M C A
;
_chemical_formula_sum "Si O2"
_cell_formula_units_Z 64
_cell_length_a 19.007092
_cell_length_b 14.220119
_cell_length_c 9.849328
_cell_angle_alpha 90.000000
_cell_angle_beta 90.000000
_cell_angle_gamma 90.000000
_cell_volume 2662.107004
_symmetry_space_group_name_H-M "C M C A"
_symmetry_group_IT_number 64
_symmetry_cell_setting 'orthorhombic'
loop_
_space_group_symop_operation_xyz
x,y,z
-x,1/2-y,1/2+z
x,-y,-z
-x,1/2+y,1/2-z
-x,-y,-z
x,1/2+y,1/2-z
-x,y,z
x,1/2-y,1/2+z
1/2+x,1/2+y,z
1/2-x,-y,1/2+z
1/2+x,1/2-y,-z
1/2-x,y,1/2-z
1/2-x,1/2-y,-z
1/2+x,y,1/2-z
1/2-x,1/2+y,z
1/2+x,-y,1/2+z
loop_
_atom_site_type_symbol
_atom_site_label
_atom_site_fract_x
_atom_site_fract_y
_atom_site_fract_z
Si Si1 0.309995 0.482864 0.843357
Si Si2 0.419804 0.962617 0.859642
Si Si3 0.082751 0.236053 0.812313
Si Si4 0.324324 0.780231 0.567415
O O1 0.250000 0.526239 0.750000
O O2 0.382695 0.505346 0.771392
O O3 0.305696 0.370275 0.843062
O O4 0.302149 0.500000 0.000000
O O5 0.500000 0.992880 0.859922
O O6 0.417338 0.849279 0.846772
O O7 0.386204 0.000000 0.000000
O O8 0.128620 0.220034 0.674754
O O9 0.000000 0.209984 0.798483
O O10 0.123437 0.194662 0.942671
O O11 0.250000 0.750000 0.500000
#
# Coordination Sequence:
#
# PCOD9479887 Si02
#       4
#    16  16  16  16
#     4  11  24  40  59  83 115 151 193 241 288 340
#     4   9  19  38  61  86 118 152 187 230 284 344
#     4  10  21  37  59  87 119 153 190 236 286 340
#     4  11  22  39  60  85 116 151 193 239 288 343
#
# _framework density 24.041107
#
# number of rings (size 3 to 8) (size 9 to 14) (size 15 to 20)
#    0.000    1.750    0.000    5.250    0.000    5.500 
#    0.000    2.500    0.000    0.000    0.000    0.000 
#    0.000    0.000    0.000    0.000    0.000    0.000 
#
# Total GULP energy -178667.435471 kJ/mol
# GULP energy per Si atom -5583.357358 kJ/mol
# Density = 2.398639 g / cm^3
# Si number density = 24.041107 Si / 1000 Ang^3
#
#
#
# Elastic Constant Matrix: (Units=GPa)
#
#
# Indices 1 2 3 4 5 6 
#
# 1 174.2837 14.2898 99.5062 0.0000 0.0000 0.0000
# 2 14.2898 33.6335 -2.8591 0.0000 0.0000 0.0000
# 3 99.5062 -2.8591 204.0143 0.0000 0.0000 0.0000
# 4 0.0000 0.0000 0.0000 37.8443 0.0000 0.0000
# 5 0.0000 0.0000 0.0000 0.0000 58.5995 0.0000
# 6 0.0000 0.0000 0.0000 0.0000 0.0000 -8.6882
#
#
#
# Elastic Compliance Matrix: (Units=1/GPa)
#
#
# Indices 1 2 3 4 5 6 
#
# 1 0.008444 -0.003942 -0.004174 0.000000 0.000000 0.000000
# 2 -0.003942 0.031608 0.002366 0.000000 0.000000 0.000000
# 3 -0.004174 0.002366 0.006970 0.000000 0.000000 0.000000
# 4 0.000000 0.000000 0.000000 0.026424 0.000000 0.000000
# 5 0.000000 0.000000 0.000000 0.000000 0.017065 0.000000
# 6 0.000000 0.000000 0.000000 0.000000 0.000000 -0.115099
#
#
# Mechanical properties :
#
#
# Convention : Reuss Voigt Hill
#
# Bulk Modulus (GPa) = 28.15137 70.42281 49.28709
# Shear Modulus (GPa) = -4013.56913 37.61744 -1987.97585
#
# Velocity S-wave (km/s) = -40.90337 3.95994 -28.78719
# Velocity P-wave (km/s) = 47.10674 7.08974 32.93008
#
# Compressibility (1/GPa) = 0.03552226
#
# Stress axis : x y z
#
# Youngs Moduli (GPa) = 118.42759 31.63720 143.46231
#
# Poissons Ratio (x) = 0.12473 0.59877
# Poissons Ratio (y) = 0.46689 -0.33941
# Poissons Ratio (z) = 0.49428 -0.07485
#
# Static dielectric constant tensor:
#      x y z
#    x 1.927980 0.000000 0.000000 
#    y 0.000000 2.072500 0.000000 
#    z 0.000000 0.000000 1.962470 
# 
# From -- ./inp_files/6576.got.cif
#   From: 2010.05.17/outbox.cif.g08.bks.cpg/sg64_4_cif.got.tgz:6576.got - 2010.06.03 16:29:19.
