data_PCOD9479830
_publ_section_title
;
Structure prediction by ZEFSAII (Michael W. Deem and Ramdas Pophale) SiO2 
 PCOD9479830
Probable space group: C M C A
;
_chemical_formula_sum "Si O2"
_cell_formula_units_Z 96
_cell_length_a 14.721276
_cell_length_b 17.559132
_cell_length_c 20.191892
_cell_angle_alpha 90.000000
_cell_angle_beta 90.000000
_cell_angle_gamma 90.000000
_cell_volume 5219.459276
_symmetry_space_group_name_H-M "C M C A"
_symmetry_group_IT_number 64
_symmetry_cell_setting 'orthorhombic'
loop_
_space_group_symop_operation_xyz
x,y,z
-x,1/2-y,1/2+z
x,-y,-z
-x,1/2+y,1/2-z
-x,-y,-z
x,1/2+y,1/2-z
-x,y,z
x,1/2-y,1/2+z
1/2+x,1/2+y,z
1/2-x,-y,1/2+z
1/2+x,1/2-y,-z
1/2-x,y,1/2-z
1/2-x,1/2-y,-z
1/2+x,y,1/2-z
1/2-x,1/2+y,z
1/2+x,-y,1/2+z
loop_
_atom_site_type_symbol
_atom_site_label
_atom_site_fract_x
_atom_site_fract_y
_atom_site_fract_z
Si Si1 0.400364 0.081003 0.467849
Si Si2 0.761526 0.772400 0.674560
Si Si3 0.107021 0.047034 0.568350
Si Si4 0.890730 0.580707 0.177094
Si Si5 0.755020 0.323302 0.451844
Si Si6 0.106420 0.889770 0.823983
O O1 0.500000 0.119388 0.468217
O O2 0.329183 0.126784 0.510546
O O3 0.375291 0.066205 0.391501
O O4 0.407746 0.000000 0.500000
O O5 0.750000 0.744336 0.750000
O O6 0.835339 0.840752 0.665294
O O7 0.780087 0.708924 0.620359
O O8 0.664961 0.814156 0.665065
O O9 0.167155 0.122820 0.559456
O O10 0.000000 0.065469 0.577757
O O11 0.115882 0.000000 0.500000
O O12 0.134435 0.988798 0.628101
O O13 0.870440 0.567892 0.255395
O O14 0.000000 0.591969 0.168943
O O15 0.750000 0.250000 0.500000
O O16 0.000000 0.872069 0.819065
#
# Coordination Sequence:
#
# PCOD9479830 Si02
#       6
#    16  16  16  16  16  16
#     4  10  22  39  59  83 112 151 199 242 283 340
#     4  10  21  37  56  88 118 154 191 231 293 357
#     4  10  22  39  60  87 115 147 195 244 285 335
#     4   9  19  38  63  85 110 149 196 242 284 337
#     4  12  23  36  59  85 122 155 186 235 294 348
#     4   9  18  36  61  83 110 149 194 235 283 340
#
# _framework density 18.392710000000001
#
# number of rings (size 3 to 8) (size 9 to 14) (size 15 to 20)
#    0.000    2.000    1.667    1.500    2.333    2.000 
#    3.000    0.000    0.000    0.000    0.000    0.000 
#    0.000    0.000    0.000    0.000    0.000    0.000 
#
# Total GULP energy -267282.270696 kJ/mol
# GULP energy per Si atom -5568.380640 kJ/mol
# Density = 1.835085 g / cm^3
# Si number density = 18.392710 Si / 1000 Ang^3
#
#
#
# Elastic Constant Matrix: (Units=GPa)
#
#
# Indices 1 2 3 4 5 6 
#
# 1 75.0082 55.7904 57.4178 0.0000 0.0000 0.0000
# 2 55.7904 90.3541 61.9768 0.0000 0.0000 0.0000
# 3 57.4178 61.9768 137.9847 0.0000 0.0000 0.0000
# 4 0.0000 0.0000 0.0000 23.9138 0.0000 0.0000
# 5 0.0000 0.0000 0.0000 0.0000 25.2685 0.0000
# 6 0.0000 0.0000 0.0000 0.0000 0.0000 -10.4142
#
#
#
# Elastic Compliance Matrix: (Units=1/GPa)
#
#
# Indices 1 2 3 4 5 6 
#
# 1 0.027234 -0.013069 -0.005462 0.000000 0.000000 0.000000
# 2 -0.013069 0.022267 -0.004563 0.000000 0.000000 0.000000
# 3 -0.005462 -0.004563 0.011570 0.000000 0.000000 0.000000
# 4 0.000000 0.000000 0.000000 0.041817 0.000000 0.000000
# 5 0.000000 0.000000 0.000000 0.000000 0.039575 0.000000
# 6 0.000000 0.000000 0.000000 0.000000 0.000000 -0.096023
#
#
# Mechanical properties :
#
#
# Convention : Reuss Voigt Hill
#
# Bulk Modulus (GPa) = 67.19746 72.63525 69.91636
# Shear Modulus (GPa) = 51.23450 16.29774 33.76612
#
# Velocity S-wave (km/s) = 5.28359 2.97997 4.28932
# Velocity P-wave (km/s) = 8.59278 7.17059 7.91370
#
# Compressibility (1/GPa) = 0.01488151
#
# Stress axis : x y z
#
# Youngs Moduli (GPa) = 36.71869 44.90870 86.43182
#
# Poissons Ratio (x) = 0.58692 0.47213
# Poissons Ratio (y) = 0.47988 0.39441
# Poissons Ratio (z) = 0.20057 0.20493
#
# Static dielectric constant tensor:
#      x y z
#    x 0.887590 0.000000 0.000000 
#    y 0.000000 1.590830 0.000000 
#    z 0.000000 0.000000 1.660410 
# 
# From -- ./inp_files/39155.got.cif
#   From: 2010.05.17/outbox.cif.g08.bks.cpg/sg64_20_cif.got.tgz:39155.got - 2010.06.03 16:29:19.
