data_PCOD9479060
_publ_section_title
;
Structure prediction by ZEFSAII (Michael W. Deem and Ramdas Pophale) SiO2 
 PCOD9479060
Probable space group: C M C A
;
_chemical_formula_sum "Si O2"
_cell_formula_units_Z 96
_cell_length_a 8.625832
_cell_length_b 24.186918
_cell_length_c 25.904593
_cell_angle_alpha 90.000000
_cell_angle_beta 90.000000
_cell_angle_gamma 90.000000
_cell_volume 5404.534592
_symmetry_space_group_name_H-M "C M C A"
_symmetry_group_IT_number 64
_symmetry_cell_setting 'orthorhombic'
loop_
_space_group_symop_operation_xyz
x,y,z
-x,1/2-y,1/2+z
x,-y,-z
-x,1/2+y,1/2-z
-x,-y,-z
x,1/2+y,1/2-z
-x,y,z
x,1/2-y,1/2+z
1/2+x,1/2+y,z
1/2-x,-y,1/2+z
1/2+x,1/2-y,-z
1/2-x,y,1/2-z
1/2-x,1/2-y,-z
1/2+x,y,1/2-z
1/2-x,1/2+y,z
1/2+x,-y,1/2+z
loop_
_atom_site_type_symbol
_atom_site_label
_atom_site_fract_x
_atom_site_fract_y
_atom_site_fract_z
Si Si1 0.813116 0.000673 0.440131
Si Si2 0.685096 0.811936 0.306997
Si Si3 0.686607 0.384109 0.902761
Si Si4 0.686372 0.880586 0.099472
Si Si5 0.186531 0.311917 0.497179
Si Si6 0.686699 0.690449 0.192959
O O1 0.752493 0.055090 0.411906
O O2 0.000000 0.002562 0.440856
O O3 0.759712 0.000000 0.500000
O O4 0.766423 0.943621 0.412758
O O5 0.500000 0.809583 0.305445
O O6 0.750000 0.824200 0.250000
O O7 0.742484 0.856145 0.348456
O O8 0.750171 0.751202 0.321521
O O9 0.500000 0.387315 0.902366
O O10 0.735108 0.354047 0.849937
O O11 0.731466 0.345793 0.951396
O O12 0.500000 0.878052 0.102175
O O13 0.744218 0.843161 0.052076
O O14 0.250000 0.250000 0.500000
O O15 0.000000 0.311015 0.493724
O O16 0.500000 0.693084 0.194563
O O17 0.750000 0.677574 0.250000
#
# Coordination Sequence:
#
# PCOD9479060 Si02
#       6
#    16  16  16  16  16  16
#     4  10  21  38  59  83 111 151 193 234 287 340
#     4  11  22  38  61  88 116 152 192 234 289 343
#     4  10  22  37  56  82 114 149 190 236 284 340
#     4  11  22  38  58  83 116 150 191 239 284 341
#     4  11  22  35  54  83 115 150 187 234 291 346
#     4  10  20  37  59  86 117 152 191 235 288 341
#
# _framework density 17.76286
#
# number of rings (size 3 to 8) (size 9 to 14) (size 15 to 20)
#    0.000    1.500    1.667    5.000    0.000    5.000 
#    0.000    0.833    0.000    2.000    0.000    0.000 
#    0.000    0.000    0.000    0.000    0.000    0.000 
#
# Total GULP energy -268252.934485 kJ/mol
# GULP energy per Si atom -5588.602802 kJ/mol
# Density = 1.772243 g / cm^3
# Si number density = 17.762860 Si / 1000 Ang^3
#
#
#
# Elastic Constant Matrix: (Units=GPa)
#
#
# Indices 1 2 3 4 5 6 
#
# 1 68.2646 50.2515 44.3798 0.0000 0.0000 0.0000
# 2 50.2515 190.1712 111.1569 0.0000 0.0000 0.0000
# 3 44.3798 111.1569 130.6625 0.0000 0.0000 0.0000
# 4 0.0000 0.0000 0.0000 15.4572 0.0000 0.0000
# 5 0.0000 0.0000 0.0000 0.0000 32.6018 0.0000
# 6 0.0000 0.0000 0.0000 0.0000 0.0000 30.6076
#
#
#
# Elastic Compliance Matrix: (Units=1/GPa)
#
#
# Indices 1 2 3 4 5 6 
#
# 1 0.019396 -0.002535 -0.004431 0.000000 0.000000 0.000000
# 2 -0.002535 0.010791 -0.008319 0.000000 0.000000 0.000000
# 3 -0.004431 -0.008319 0.016235 0.000000 0.000000 0.000000
# 4 0.000000 0.000000 0.000000 0.064695 0.000000 0.000000
# 5 0.000000 0.000000 0.000000 0.000000 0.030673 0.000000
# 6 0.000000 0.000000 0.000000 0.000000 0.000000 0.032672
#
#
# Mechanical properties :
#
#
# Convention : Reuss Voigt Hill
#
# Bulk Modulus (GPa) = 63.08479 88.96387 76.02433
# Shear Modulus (GPa) = 23.77381 27.95400 25.86391
#
# Velocity S-wave (km/s) = 3.66238 3.97133 3.81998
# Velocity P-wave (km/s) = 7.31274 8.43929 7.89613
#
# Compressibility (1/GPa) = 0.01585168
#
# Stress axis : x y z
#
# Youngs Moduli (GPa) = 51.55739 92.67211 61.59432
#
# Poissons Ratio (x) = 0.23494 0.27293
# Poissons Ratio (y) = 0.13071 0.51239
# Poissons Ratio (z) = 0.22846 0.77092
#
# Static dielectric constant tensor:
#      x y z
#    x 1.600780 0.000000 0.000000 
#    y 0.000000 1.578650 0.000000 
#    z 0.000000 0.000000 1.593680 
# 
# From -- ./inp_files/43012.got.cif
#   From: 2010.05.17/outbox.cif.g08.bks.cpg/sg64_22_cif.got.tgz:43012.got - 2010.06.03 16:29:19.
