data_PCOD9479630
_publ_section_title
;
Structure prediction by ZEFSAII (Michael W. Deem and Ramdas Pophale) SiO2 
 PCOD9479630
Probable space group: C M C A
;
_chemical_formula_sum "Si O2"
_cell_formula_units_Z 112
_cell_length_a 26.212335
_cell_length_b 10.071510
_cell_length_c 18.159558
_cell_angle_alpha 90.000000
_cell_angle_beta 90.000000
_cell_angle_gamma 90.000000
_cell_volume 4794.083253
_symmetry_space_group_name_H-M "C M C A"
_symmetry_group_IT_number 64
_symmetry_cell_setting 'orthorhombic'
loop_
_space_group_symop_operation_xyz
x,y,z
-x,1/2-y,1/2+z
x,-y,-z
-x,1/2+y,1/2-z
-x,-y,-z
x,1/2+y,1/2-z
-x,y,z
x,1/2-y,1/2+z
1/2+x,1/2+y,z
1/2-x,-y,1/2+z
1/2+x,1/2-y,-z
1/2-x,y,1/2-z
1/2-x,1/2-y,-z
1/2+x,y,1/2-z
1/2-x,1/2+y,z
1/2+x,-y,1/2+z
loop_
_atom_site_type_symbol
_atom_site_label
_atom_site_fract_x
_atom_site_fract_y
_atom_site_fract_z
Si Si1 0.940083 0.041912 0.396392
Si Si2 0.584768 0.013411 0.389187
Si Si3 0.555002 0.315687 0.758344
Si Si4 0.355927 0.634457 0.682412
Si Si5 0.557370 0.783977 0.495483
Si Si6 0.307845 0.072063 0.662723
Si Si7 0.759811 0.695201 0.337452
O O1 0.943290 0.135865 0.324609
O O2 0.927847 0.140812 0.464188
O O3 0.000000 0.993804 0.405317
O O4 0.892465 0.947626 0.373260
O O5 0.560438 0.057706 0.312374
O O6 0.587176 0.145635 0.438998
O O7 0.640968 0.961243 0.378345
O O8 0.556887 0.894901 0.431251
O O9 0.500000 0.250644 0.773338
O O10 0.603046 0.224901 0.774911
O O11 0.324380 0.563227 0.749938
O O12 0.312701 0.727619 0.646625
O O13 0.500000 0.773596 0.523910
O O14 0.266844 0.958095 0.643932
O O15 0.286670 0.213772 0.636757
O O16 0.750000 0.699399 0.250000
#
# Coordination Sequence:
#
# PCOD9479630 Si02
#       7
#    16  16  16  16  16  16  16
#     4  10  21  34  54  88 127 162 199 252 311 374
#     4  11  20  38  62  86 120 161 212 260 310 370
#     4  11  21  33  58  92 126 159 199 253 309 372
#     4  11  19  36  56  86 127 158 202 250 323 374
#     4  10  22  39  60  88 124 170 213 250 306 386
#     4  11  22  37  62  91 124 162 211 262 322 369
#     4  10  21  36  59  90 124 160 203 263 317 377
#
# _framework density 23.362130000000001
#
# number of rings (size 3 to 8) (size 9 to 14) (size 15 to 20)
#    0.000    1.429    2.857    4.286    0.000    3.429 
#    0.000    0.714    0.000   10.286    0.000    0.000 
#    0.000    0.000    0.000    0.000    0.000    0.000 
#
# Total GULP energy -312866.935586 kJ/mol
# GULP energy per Si atom -5586.909564 kJ/mol
# Density = 2.330896 g / cm^3
# Si number density = 23.362130 Si / 1000 Ang^3
#
#
#
# Elastic Constant Matrix: (Units=GPa)
#
#
# Indices 1 2 3 4 5 6 
#
# 1 96.1414 28.2529 13.9739 0.0000 0.0000 0.0000
# 2 28.2529 88.0500 15.4951 0.0000 0.0000 0.0000
# 3 13.9739 15.4951 40.4039 0.0000 0.0000 0.0000
# 4 0.0000 0.0000 0.0000 41.9521 0.0000 0.0000
# 5 0.0000 0.0000 0.0000 0.0000 22.7570 0.0000
# 6 0.0000 0.0000 0.0000 0.0000 0.0000 27.8062
#
#
#
# Elastic Compliance Matrix: (Units=1/GPa)
#
#
# Indices 1 2 3 4 5 6 
#
# 1 0.011775 -0.003283 -0.002813 0.000000 0.000000 0.000000
# 2 -0.003283 0.013095 -0.003886 0.000000 0.000000 0.000000
# 3 -0.002813 -0.003886 0.027213 0.000000 0.000000 0.000000
# 4 0.000000 0.000000 0.000000 0.023837 0.000000 0.000000
# 5 0.000000 0.000000 0.000000 0.000000 0.043943 0.000000
# 6 0.000000 0.000000 0.000000 0.000000 0.000000 0.035963
#
#
# Mechanical properties :
#
#
# Convention : Reuss Voigt Hill
#
# Bulk Modulus (GPa) = 31.13574 37.78211 34.45893
# Shear Modulus (GPa) = 26.81006 29.62796 28.21901
#
# Velocity S-wave (km/s) = 3.39128 3.56505 3.47925
# Velocity P-wave (km/s) = 5.35637 5.75792 5.56077
#
# Compressibility (1/GPa) = 0.03211743
#
# Stress axis : x y z
#
# Youngs Moduli (GPa) = 84.92499 76.36740 36.74649
#
# Poissons Ratio (x) = 0.25073 0.10338
# Poissons Ratio (y) = 0.27883 0.14281
# Poissons Ratio (z) = 0.23892 0.29679
#
# Static dielectric constant tensor:
#      x y z
#    x 1.868780 0.000000 0.000000 
#    y 0.000000 1.947540 0.000000 
#    z 0.000000 0.000000 1.908260 
# 
# From -- ./inp_files/41541.got.cif
#   From: 2010.05.17/outbox.cif.g08.bks.cpg/sg64_21_cif.got.tgz:41541.got - 2010.06.03 16:29:19.
