data_PCOD9479986
_publ_section_title
;
Structure prediction by ZEFSAII (Michael W. Deem and Ramdas Pophale) SiO2 
 PCOD9479986
Probable space group: C M C A
;
_chemical_formula_sum "Si O2"
_cell_formula_units_Z 56
_cell_length_a 29.130373
_cell_length_b 16.816546
_cell_length_c 5.247605
_cell_angle_alpha 90.000000
_cell_angle_beta 90.000000
_cell_angle_gamma 90.000000
_cell_volume 2570.656108
_symmetry_space_group_name_H-M "C M C A"
_symmetry_group_IT_number 64
_symmetry_cell_setting 'orthorhombic'
loop_
_space_group_symop_operation_xyz
x,y,z
-x,1/2-y,1/2+z
x,-y,-z
-x,1/2+y,1/2-z
-x,-y,-z
x,1/2+y,1/2-z
-x,y,z
x,1/2-y,1/2+z
1/2+x,1/2+y,z
1/2-x,-y,1/2+z
1/2+x,1/2-y,-z
1/2-x,y,1/2-z
1/2-x,1/2-y,-z
1/2+x,y,1/2-z
1/2-x,1/2+y,z
1/2+x,-y,1/2+z
loop_
_atom_site_type_symbol
_atom_site_label
_atom_site_fract_x
_atom_site_fract_y
_atom_site_fract_z
Si Si1 0.301301 0.778470 0.074182
Si Si2 0.500000 0.304890 0.256581
Si Si3 0.568383 0.449358 0.246847
Si Si4 0.678402 0.950898 0.252216
O O1 0.323550 0.722034 0.291483
O O2 0.301848 0.863872 0.205273
O O3 0.250000 0.750000 0.000000
O O4 0.500000 0.250685 0.508060
O O5 0.543285 0.364969 0.254325
O O6 0.557731 0.500000 0.500000
O O7 0.623366 0.440166 0.231879
O O8 0.554064 0.500000 0.000000
O O9 0.693859 0.000000 0.500000
O O10 0.689229 0.000000 0.000000
#
# Coordination Sequence:
#
# PCOD9479986 Si02
#       4
#    16   8  16  16
#     4  10  21  38  58  84 117 152 185 233 303 357
#     4  12  24  36  56  90 122 154 200 252 302 356
#     4  10  21  39  60  82 116 161 201 244 299 354
#     4  10  21  38  62  88 114 154 206 248 287 353
#
# _framework density 21.784320999999998
#
# number of rings (size 3 to 8) (size 9 to 14) (size 15 to 20)
#    0.000    1.714    0.000    4.286    0.000    2.286 
#    0.000   11.429    0.000    0.000    0.000    0.000 
#    0.000    0.000    0.000    0.000    0.000    0.000 
#
# Total GULP energy -156451.561586 kJ/mol
# GULP energy per Si atom -5587.555771 kJ/mol
# Density = 2.173474 g / cm^3
# Si number density = 21.784321 Si / 1000 Ang^3
#
#
#
# Elastic Constant Matrix: (Units=GPa)
#
#
# Indices 1 2 3 4 5 6 
#
# 1 69.5003 46.4633 39.4157 0.0000 0.0000 0.0000
# 2 46.4633 182.2939 106.7622 0.0000 0.0000 0.0000
# 3 39.4157 106.7622 253.0984 0.0000 0.0000 0.0000
# 4 0.0000 0.0000 0.0000 49.8519 0.0000 0.0000
# 5 0.0000 0.0000 0.0000 0.0000 -18.9815 0.0000
# 6 0.0000 0.0000 0.0000 0.0000 0.0000 56.4035
#
#
#
# Elastic Compliance Matrix: (Units=1/GPa)
#
#
# Indices 1 2 3 4 5 6 
#
# 1 0.017582 -0.003822 -0.001126 0.000000 0.000000 0.000000
# 2 -0.003822 0.008116 -0.002828 0.000000 0.000000 0.000000
# 3 -0.001126 -0.002828 0.005319 0.000000 0.000000 0.000000
# 4 0.000000 0.000000 0.000000 0.020059 0.000000 0.000000
# 5 0.000000 0.000000 0.000000 0.000000 -0.052683 0.000000
# 6 0.000000 0.000000 0.000000 0.000000 0.000000 0.017729
#
#
# Mechanical properties :
#
#
# Convention : Reuss Voigt Hill
#
# Bulk Modulus (GPa) = 64.66107 98.90834 81.78470
# Shear Modulus (GPa) = 135.75358 38.27153 87.01256
#
# Velocity S-wave (km/s) = 7.90268 4.19601 6.32688
# Velocity P-wave (km/s) = 10.63093 8.30526 9.53924
#
# Compressibility (1/GPa) = 0.01546526
#
# Stress axis : x y z
#
# Youngs Moduli (GPa) = 56.87613 123.20920 187.98891
#
# Poissons Ratio (x) = 0.47090 0.21166
# Poissons Ratio (y) = 0.21738 0.53171
# Poissons Ratio (z) = 0.06404 0.34849
#
# Static dielectric constant tensor:
#      x y z
#    x 1.836620 0.000000 0.000000 
#    y 0.000000 1.726210 0.000000 
#    z 0.000000 0.000000 1.915160 
# 
# From -- ./inp_files/3084.got.cif
#   From: 2010.05.17/outbox.cif.g08.bks.cpg/sg64_2_cif.got.tgz:3084.got - 2010.06.03 16:29:19.
