data_PCOD9479882
_publ_section_title
;
Structure prediction by ZEFSAII (Michael W. Deem and Ramdas Pophale) SiO2 
 PCOD9479882
Probable space group: C M C A
;
_chemical_formula_sum "Si O2"
_cell_formula_units_Z 116
_cell_length_a 9.007603
_cell_length_b 23.541463
_cell_length_c 28.170738
_cell_angle_alpha 90.000000
_cell_angle_beta 90.000000
_cell_angle_gamma 90.000000
_cell_volume 5973.665637
_symmetry_space_group_name_H-M "C M C A"
_symmetry_group_IT_number 64
_symmetry_cell_setting 'orthorhombic'
loop_
_space_group_symop_operation_xyz
x,y,z
-x,1/2-y,1/2+z
x,-y,-z
-x,1/2+y,1/2-z
-x,-y,-z
x,1/2+y,1/2-z
-x,y,z
x,1/2-y,1/2+z
1/2+x,1/2+y,z
1/2-x,-y,1/2+z
1/2+x,1/2-y,-z
1/2-x,y,1/2-z
1/2-x,1/2-y,-z
1/2+x,y,1/2-z
1/2-x,1/2+y,z
1/2+x,-y,1/2+z
loop_
_atom_site_type_symbol
_atom_site_label
_atom_site_fract_x
_atom_site_fract_y
_atom_site_fract_z
Si Si1 0.676708 0.131438 0.940298
Si Si2 0.823786 0.642041 0.128404
Si Si3 0.679992 0.224809 0.626854
Si Si4 0.669667 0.956451 0.372274
Si Si5 0.664724 0.356263 0.204464
Si Si6 0.837051 0.391665 0.534741
Si Si7 0.000000 0.500000 0.500000
Si Si8 0.822600 0.454213 0.801880
O O1 0.500000 0.130318 0.935845
O O2 0.743925 0.186290 0.913253
O O3 0.746171 0.074758 0.915425
O O4 0.730309 0.133080 0.994466
O O5 0.788087 0.708751 0.126847
O O6 0.732901 0.613317 0.086197
O O7 0.795505 0.609316 0.177772
O O8 0.000000 0.635955 0.119222
O O9 0.500000 0.216801 0.623342
O O10 0.730091 0.197365 0.676773
O O11 0.500000 0.972154 0.387108
O O12 0.658217 0.905939 0.333860
O O13 0.752996 0.005411 0.342956
O O14 0.500000 0.340972 0.220016
O O15 0.750000 0.376226 0.250000
O O16 0.873406 0.456099 0.520790
O O17 0.000000 0.362438 0.533052
O O18 0.750000 0.463028 0.750000
O O19 0.000000 0.464247 0.798618
#
# Coordination Sequence:
#
# PCOD9479882 Si02
#       8
#    16  16  16  16  16  16   4  16
#     4  11  22  37  61  93 123 153 197 245 297 355
#     4  10  23  42  62  85 118 156 203 249 295 348
#     4   9  20  40  59  81 115 158 199 246 298 354
#     4  10  21  37  59  84 119 159 197 245 302 357
#     4   9  18  32  53  80 108 145 188 240 294 344
#     4  10  22  40  62  89 119 157 193 234 291 352
#     4   8  24  40  62  92 124 152 202 236 282 376
#     4  11  24  40  59  88 120 159 202 248 300 358
#
# _framework density 19.418562000000001
#
# number of rings (size 3 to 8) (size 9 to 14) (size 15 to 20)
#    0.414    1.655    0.000    3.724    1.931    6.621 
#    0.000    0.690    0.000    0.000    0.000    0.000 
#    0.000    0.000    0.000    0.000    0.000    0.000 
#
# Total GULP energy -322972.780549 kJ/mol
# GULP energy per Si atom -5568.496216 kJ/mol
# Density = 1.937436 g / cm^3
# Si number density = 19.418562 Si / 1000 Ang^3
#
#
#
# Elastic Constant Matrix: (Units=GPa)
#
#
# Indices 1 2 3 4 5 6 
#
# 1 80.7751 32.6813 30.9275 0.0000 0.0000 0.0000
# 2 32.6813 86.7300 9.8256 0.0000 0.0000 0.0000
# 3 30.9275 9.8256 57.6083 0.0000 0.0000 0.0000
# 4 0.0000 0.0000 0.0000 13.5143 0.0000 0.0000
# 5 0.0000 0.0000 0.0000 0.0000 27.8681 0.0000
# 6 0.0000 0.0000 0.0000 0.0000 0.0000 -1.4110
#
#
#
# Elastic Compliance Matrix: (Units=1/GPa)
#
#
# Indices 1 2 3 4 5 6 
#
# 1 0.018070 -0.005823 -0.008708 0.000000 0.000000 0.000000
# 2 -0.005823 0.013633 0.000801 0.000000 0.000000 0.000000
# 3 -0.008708 0.000801 0.021897 0.000000 0.000000 0.000000
# 4 0.000000 0.000000 0.000000 0.073996 0.000000 0.000000
# 5 0.000000 0.000000 0.000000 0.000000 0.035883 0.000000
# 6 0.000000 0.000000 0.000000 0.000000 0.000000 -0.708707
#
#
# Mechanical properties :
#
#
# Convention : Reuss Voigt Hill
#
# Bulk Modulus (GPa) = 38.25473 41.33135 39.79304
# Shear Modulus (GPa) = -9.82214 18.10622 4.14204
#
# Velocity S-wave (km/s) = -2.25147 3.05686 1.46207
# Velocity P-wave (km/s) = 3.60334 5.81291 4.83601
#
# Compressibility (1/GPa) = 0.02614056
#
# Stress axis : x y z
#
# Youngs Moduli (GPa) = 55.34044 73.34941 45.66843
#
# Poissons Ratio (x) = 0.42708 0.39768
# Poissons Ratio (y) = 0.32222 -0.03656
# Poissons Ratio (z) = 0.48190 -0.05872
#
# Static dielectric constant tensor:
#      x y z
#    x 1.670230 0.000000 0.000000 
#    y 0.000000 1.698670 0.000000 
#    z 0.000000 0.000000 1.676500 
# 
# From -- ./inp_files/52286.got.cif
#   From: 2010.05.17/outbox.cif.g08.bks.cpg/sg64_27_cif.got.tgz:52286.got - 2010.06.03 16:29:19.
