data_PCOD9479428
_publ_section_title
;
Structure prediction by ZEFSAII (Michael W. Deem and Ramdas Pophale) SiO2 
 PCOD9479428
Probable space group: C M C A
;
_chemical_formula_sum "Si O2"
_cell_formula_units_Z 88
_cell_length_a 13.470688
_cell_length_b 25.637881
_cell_length_c 11.557195
_cell_angle_alpha 90.000000
_cell_angle_beta 90.000000
_cell_angle_gamma 90.000000
_cell_volume 3991.391662
_symmetry_space_group_name_H-M "C M C A"
_symmetry_group_IT_number 64
_symmetry_cell_setting 'orthorhombic'
loop_
_space_group_symop_operation_xyz
x,y,z
-x,1/2-y,1/2+z
x,-y,-z
-x,1/2+y,1/2-z
-x,-y,-z
x,1/2+y,1/2-z
-x,y,z
x,1/2-y,1/2+z
1/2+x,1/2+y,z
1/2-x,-y,1/2+z
1/2+x,1/2-y,-z
1/2-x,y,1/2-z
1/2-x,1/2-y,-z
1/2+x,y,1/2-z
1/2-x,1/2+y,z
1/2+x,-y,1/2+z
loop_
_atom_site_type_symbol
_atom_site_label
_atom_site_fract_x
_atom_site_fract_y
_atom_site_fract_z
Si Si1 0.500000 0.645677 0.900256
Si Si2 0.000000 0.066530 0.422540
Si Si3 0.778972 0.891660 0.113250
Si Si4 0.673084 0.507961 0.659471
Si Si5 0.500000 0.916699 0.192379
Si Si6 0.831922 0.705134 0.993473
Si Si7 0.500000 0.176939 0.172532
Si Si8 0.500000 0.233181 0.407543
O O1 0.393190 0.618511 0.923953
O O2 0.500000 0.637415 0.760337
O O3 0.500000 0.699648 0.971785
O O4 0.000000 0.087427 0.553865
O O5 0.000000 0.115071 0.338963
O O6 0.097731 0.031981 0.399730
O O7 0.750000 0.881163 0.250000
O O8 0.759578 0.950390 0.410806
O O9 0.715257 0.849429 0.042556
O O10 0.750000 0.483039 0.750000
O O11 0.595119 0.547685 0.722310
O O12 0.906498 0.729117 0.900198
O O13 0.750000 0.750000 0.000000
O O14 0.901914 0.697375 0.105535
O O15 0.500000 0.193435 0.303718
#
# Coordination Sequence:
#
# PCOD9479428 Si02
#       8
#     8   8  16  16   8  16   8   8
#     4  12  22  43  70 101 153 175 242 306 364 433
#     4  11  25  46  70 104 155 194 245 316 366 441
#     4  11  23  38  75 110 144 191 246 309 365 437
#     4  10  20  39  68 109 142 189 245 303 369 429
#     4  11  20  40  71 104 137 184 250 304 348 443
#     4  11  25  46  71 104 142 194 246 303 374 436
#     4  11  28  50  69 106 150 195 249 295 378 454
#     4  11  27  47  72 106 148 196 242 308 369 449
#
# _framework density 22.047446000000001
#
# number of rings (size 3 to 8) (size 9 to 14) (size 15 to 20)
#    0.000    1.091    5.455    2.182    2.545    2.909 
#    3.273    1.818    0.000    1.091    0.000    0.000 
#    0.000    0.000    0.000    0.000    0.000    0.000 
#
# Total GULP energy -245482.108617 kJ/mol
# GULP energy per Si atom -5579.138832 kJ/mol
# Density = 2.199727 g / cm^3
# Si number density = 22.047446 Si / 1000 Ang^3
#
#
#
# Elastic Constant Matrix: (Units=GPa)
#
#
# Indices 1 2 3 4 5 6 
#
# 1 196.2811 56.3522 33.8951 0.0000 0.0000 0.0000
# 2 56.3522 128.9105 48.5510 0.0000 0.0000 0.0000
# 3 33.8951 48.5510 86.8268 0.0000 0.0000 0.0000
# 4 0.0000 0.0000 0.0000 32.6542 0.0000 0.0000
# 5 0.0000 0.0000 0.0000 0.0000 11.5154 0.0000
# 6 0.0000 0.0000 0.0000 0.0000 0.0000 38.0557
#
#
#
# Elastic Compliance Matrix: (Units=1/GPa)
#
#
# Indices 1 2 3 4 5 6 
#
# 1 0.005907 -0.002171 -0.001092 0.000000 0.000000 0.000000
# 2 -0.002171 0.010625 -0.005094 0.000000 0.000000 0.000000
# 3 -0.001092 -0.005094 0.014792 0.000000 0.000000 0.000000
# 4 0.000000 0.000000 0.000000 0.030624 0.000000 0.000000
# 5 0.000000 0.000000 0.000000 0.000000 0.086840 0.000000
# 6 0.000000 0.000000 0.000000 0.000000 0.000000 0.026277
#
#
# Mechanical properties :
#
#
# Convention : Reuss Voigt Hill
#
# Bulk Modulus (GPa) = 68.44513 76.62390 72.53451
# Shear Modulus (GPa) = 25.42628 34.65972 30.04300
#
# Velocity S-wave (km/s) = 3.39964 3.96921 3.69542
# Velocity P-wave (km/s) = 6.82070 7.47233 7.15394
#
# Compressibility (1/GPa) = 0.01461024
#
# Stress axis : x y z
#
# Youngs Moduli (GPa) = 169.30453 94.12109 67.60583
#
# Poissons Ratio (x) = 0.20431 0.07382
# Poissons Ratio (y) = 0.36751 0.34436
# Poissons Ratio (z) = 0.18487 0.47941
#
# Static dielectric constant tensor:
#      x y z
#    x 1.836070 0.000000 0.000000 
#    y 0.000000 1.790020 0.000000 
#    z 0.000000 0.000000 1.875850 
# 
# From -- ./inp_files/14827.got.cif
#   From: 2010.05.17/outbox.cif.g08.bks.cpg/sg64_8_cif.got.tgz:14827.got - 2010.06.03 16:29:19.
