data_PCOD9479716
_publ_section_title
;
Structure prediction by ZEFSAII (Michael W. Deem and Ramdas Pophale) SiO2 
 PCOD9479716
Probable space group: C M C A
;
_chemical_formula_sum "Si O2"
_cell_formula_units_Z 64
_cell_length_a 29.373325
_cell_length_b 17.167220
_cell_length_c 5.328179
_cell_angle_alpha 90.000000
_cell_angle_beta 90.000000
_cell_angle_gamma 90.000000
_cell_volume 2686.778657
_symmetry_space_group_name_H-M "C M C A"
_symmetry_group_IT_number 64
_symmetry_cell_setting 'orthorhombic'
loop_
_space_group_symop_operation_xyz
x,y,z
-x,1/2-y,1/2+z
x,-y,-z
-x,1/2+y,1/2-z
-x,-y,-z
x,1/2+y,1/2-z
-x,y,z
x,1/2-y,1/2+z
1/2+x,1/2+y,z
1/2-x,-y,1/2+z
1/2+x,1/2-y,-z
1/2-x,y,1/2-z
1/2-x,1/2-y,-z
1/2+x,y,1/2-z
1/2-x,1/2+y,z
1/2+x,-y,1/2+z
loop_
_atom_site_type_symbol
_atom_site_label
_atom_site_fract_x
_atom_site_fract_y
_atom_site_fract_z
Si Si1 0.071414 0.544830 0.252320
Si Si2 0.199178 0.779655 0.572440
Si Si3 0.818554 0.046812 0.251078
Si Si4 0.447761 0.279190 0.664931
O O1 0.056242 0.500000 0.500000
O O2 0.126445 0.549935 0.258953
O O3 0.053302 0.631795 0.243457
O O4 0.058161 0.500000 0.000000
O O5 0.178352 0.775704 0.290550
O O6 0.250000 0.750000 0.500000
O O7 0.197546 0.864976 0.697189
O O8 0.805220 0.000000 0.500000
O O9 0.803653 0.000000 0.000000
O O10 0.500000 0.251700 0.630221
O O11 0.426173 0.268686 0.392248
#
# Coordination Sequence:
#
# PCOD9479716 Si02
#       4
#    16  16  16  16
#     4  10  21  36  56  83 112 147 193 237 284 341
#     4  10  21  38  58  84 113 143 183 228 274 335
#     4  10  21  38  59  84 115 150 188 234 286 339
#     4  10  21  36  54  80 114 151 192 238 289 342
#
# _framework density 23.820347999999999
#
# number of rings (size 3 to 8) (size 9 to 14) (size 15 to 20)
#    0.000    2.000    0.000    3.000    0.000    3.000 
#    0.000   10.000    0.000    0.000    0.000    0.000 
#    0.000    0.000    0.000    0.000    0.000    0.000 
#
# Total GULP energy -178772.335724 kJ/mol
# GULP energy per Si atom -5586.635491 kJ/mol
# Density = 2.376613 g / cm^3
# Si number density = 23.820348 Si / 1000 Ang^3
#
#
#
# Elastic Constant Matrix: (Units=GPa)
#
#
# Indices 1 2 3 4 5 6 
#
# 1 74.1014 17.3887 52.3376 0.0000 0.0000 0.0000
# 2 17.3887 125.9034 38.0238 0.0000 0.0000 0.0000
# 3 52.3376 38.0238 186.4127 0.0000 0.0000 0.0000
# 4 0.0000 0.0000 0.0000 54.8650 0.0000 0.0000
# 5 0.0000 0.0000 0.0000 0.0000 -15.0580 0.0000
# 6 0.0000 0.0000 0.0000 0.0000 0.0000 35.6370
#
#
#
# Elastic Compliance Matrix: (Units=1/GPa)
#
#
# Indices 1 2 3 4 5 6 
#
# 1 0.016942 -0.000963 -0.004560 0.000000 0.000000 0.000000
# 2 -0.000963 0.008519 -0.001467 0.000000 0.000000 0.000000
# 3 -0.004560 -0.001467 0.006944 0.000000 0.000000 0.000000
# 4 0.000000 0.000000 0.000000 0.018227 0.000000 0.000000
# 5 0.000000 0.000000 0.000000 0.000000 -0.066410 0.000000
# 6 0.000000 0.000000 0.000000 0.000000 0.000000 0.028061
#
#
# Mechanical properties :
#
#
# Convention : Reuss Voigt Hill
#
# Bulk Modulus (GPa) = 54.27661 66.87974 60.57817
# Shear Modulus (GPa) = 154.30363 33.66665 93.98514
#
# Velocity S-wave (km/s) = 8.05721 3.76354 6.28820
# Velocity P-wave (km/s) = 10.45914 6.85736 8.84355
#
# Compressibility (1/GPa) = 0.01842414
#
# Stress axis : x y z
#
# Youngs Moduli (GPa) = 59.02555 117.38883 144.00720
#
# Poissons Ratio (x) = 0.11300 0.65671
# Poissons Ratio (y) = 0.05682 0.21131
# Poissons Ratio (z) = 0.26917 0.17225
#
# Static dielectric constant tensor:
#      x y z
#    x 1.974220 0.000000 0.000000 
#    y 0.000000 1.846770 0.000000 
#    z 0.000000 0.000000 1.999980 
# 
# From -- ./inp_files/3160.got.cif
#   From: 2010.05.17/outbox.cif.g08.bks.cpg/sg64_2_cif.got.tgz:3160.got - 2010.06.03 16:29:19.
