data_PCOD9479863
_publ_section_title
;
Structure prediction by ZEFSAII (Michael W. Deem and Ramdas Pophale) SiO2 
 PCOD9479863
Probable space group: C M C A
;
_chemical_formula_sum "Si O2"
_cell_formula_units_Z 64
_cell_length_a 14.379412
_cell_length_b 21.230551
_cell_length_c 8.028234
_cell_angle_alpha 90.000000
_cell_angle_beta 90.000000
_cell_angle_gamma 90.000000
_cell_volume 2450.882074
_symmetry_space_group_name_H-M "C M C A"
_symmetry_group_IT_number 64
_symmetry_cell_setting 'orthorhombic'
loop_
_space_group_symop_operation_xyz
x,y,z
-x,1/2-y,1/2+z
x,-y,-z
-x,1/2+y,1/2-z
-x,-y,-z
x,1/2+y,1/2-z
-x,y,z
x,1/2-y,1/2+z
1/2+x,1/2+y,z
1/2-x,-y,1/2+z
1/2+x,1/2-y,-z
1/2-x,y,1/2-z
1/2-x,1/2-y,-z
1/2+x,y,1/2-z
1/2-x,1/2+y,z
1/2+x,-y,1/2+z
loop_
_atom_site_type_symbol
_atom_site_label
_atom_site_fract_x
_atom_site_fract_y
_atom_site_fract_z
Si Si1 0.105942 0.095256 0.524257
Si Si2 0.113808 0.058032 0.881164
Si Si3 0.611054 0.859392 0.683094
Si Si4 0.677576 0.277572 0.369417
O O1 0.145414 0.060157 0.687830
O O2 0.149281 0.099639 0.339041
O O3 0.106945 0.169441 0.573778
O O4 0.000000 0.073094 0.504471
O O5 0.000000 0.057810 0.868811
O O6 0.139866 0.116840 0.000379
O O7 0.140259 0.000000 0.000000
O O8 0.500000 0.866979 0.688869
O O9 0.632208 0.785520 0.704406
O O10 0.750000 0.311559 0.250000
O O11 0.750000 0.250000 0.500000
#
# Coordination Sequence:
#
# PCOD9479863 Si02
#       4
#    16  16  16  16
#     4  10  21  37  58  87 120 155 194 244 301 356
#     4   9  19  36  59  87 116 150 196 246 294 348
#     4  10  21  37  58  85 118 155 196 244 297 357
#     4  12  22  36  56  85 121 158 196 245 295 359
#
# _framework density 26.113049
#
# number of rings (size 3 to 8) (size 9 to 14) (size 15 to 20)
#    0.000    1.750    2.500    2.250    0.000    1.000 
#    0.000    5.000    0.000    4.500    0.000    0.000 
#    0.000    0.000    0.000    0.000    0.000    0.000 
#
# Total GULP energy -178599.913547 kJ/mol
# GULP energy per Si atom -5581.247298 kJ/mol
# Density = 2.605361 g / cm^3
# Si number density = 26.113049 Si / 1000 Ang^3
#
#
#
# Elastic Constant Matrix: (Units=GPa)
#
#
# Indices 1 2 3 4 5 6 
#
# 1 59.6077 5.8395 27.4335 0.0000 0.0000 0.0000
# 2 5.8395 105.9126 22.3300 0.0000 0.0000 0.0000
# 3 27.4335 22.3300 180.5935 0.0000 0.0000 0.0000
# 4 0.0000 0.0000 0.0000 40.1912 0.0000 0.0000
# 5 0.0000 0.0000 0.0000 0.0000 28.9656 0.0000
# 6 0.0000 0.0000 0.0000 0.0000 0.0000 5.7851
#
#
#
# Elastic Compliance Matrix: (Units=1/GPa)
#
#
# Indices 1 2 3 4 5 6 
#
# 1 0.018056 -0.000428 -0.002690 0.000000 0.000000 0.000000
# 2 -0.000428 0.009705 -0.001135 0.000000 0.000000 0.000000
# 3 -0.002690 -0.001135 0.006086 0.000000 0.000000 0.000000
# 4 0.000000 0.000000 0.000000 0.024881 0.000000 0.000000
# 5 0.000000 0.000000 0.000000 0.000000 0.034524 0.000000
# 6 0.000000 0.000000 0.000000 0.000000 0.000000 0.172858
#
#
# Mechanical properties :
#
#
# Convention : Reuss Voigt Hill
#
# Bulk Modulus (GPa) = 39.46207 50.81331 45.13769
# Shear Modulus (GPa) = 17.66391 34.35578 26.00985
#
# Velocity S-wave (km/s) = 2.60367 3.63113 3.15945
# Velocity P-wave (km/s) = 4.91768 6.08945 5.53466
#
# Compressibility (1/GPa) = 0.02534079
#
# Stress axis : x y z
#
# Youngs Moduli (GPa) = 55.38224 103.04355 164.30502
#
# Poissons Ratio (x) = 0.04414 0.44197
# Poissons Ratio (y) = 0.02373 0.18647
# Poissons Ratio (z) = 0.14897 0.11694
#
# Static dielectric constant tensor:
#      x y z
#    x 2.011240 0.000000 0.000000 
#    y 0.000000 2.055530 0.000000 
#    z 0.000000 0.000000 2.155220 
# 
# From -- ./inp_files/5606.got.cif
#   From: 2010.05.17/outbox.cif.g08.bks.cpg/sg64_3_cif.got.tgz:5606.got - 2010.06.03 16:29:19.
