data_PCOD9479984
_publ_section_title
;
Structure prediction by ZEFSAII (Michael W. Deem and Ramdas Pophale) SiO2 
 PCOD9479984
Probable space group: C M C A
;
_chemical_formula_sum "Si O2"
_cell_formula_units_Z 112
_cell_length_a 14.097974
_cell_length_b 11.334910
_cell_length_c 29.198930
_cell_angle_alpha 90.000000
_cell_angle_beta 90.000000
_cell_angle_gamma 90.000000
_cell_volume 4665.967596
_symmetry_space_group_name_H-M "C M C A"
_symmetry_group_IT_number 64
_symmetry_cell_setting 'orthorhombic'
loop_
_space_group_symop_operation_xyz
x,y,z
-x,1/2-y,1/2+z
x,-y,-z
-x,1/2+y,1/2-z
-x,-y,-z
x,1/2+y,1/2-z
-x,y,z
x,1/2-y,1/2+z
1/2+x,1/2+y,z
1/2-x,-y,1/2+z
1/2+x,1/2-y,-z
1/2-x,y,1/2-z
1/2-x,1/2-y,-z
1/2+x,y,1/2-z
1/2-x,1/2+y,z
1/2+x,-y,1/2+z
loop_
_atom_site_type_symbol
_atom_site_label
_atom_site_fract_x
_atom_site_fract_y
_atom_site_fract_z
Si Si1 0.390917 0.717401 0.021980
Si Si2 0.389654 0.715710 0.427296
Si Si3 0.114049 0.801988 0.786131
Si Si4 0.107602 0.631111 0.385456
Si Si5 0.680442 0.036122 0.950568
Si Si6 0.384132 0.934681 0.269378
Si Si7 0.814458 0.107490 0.867305
O O1 0.500000 0.675243 0.018348
O O2 0.343686 0.656884 0.065933
O O3 0.385943 0.854671 0.035369
O O4 0.347772 0.712198 0.971206
O O5 0.500000 0.742337 0.426107
O O6 0.376030 0.579745 0.436342
O O7 0.345038 0.762573 0.381200
O O8 0.150322 0.817245 0.838567
O O9 0.135783 0.674667 0.764647
O O10 0.000000 0.804082 0.789874
O O11 0.135697 0.925564 0.759203
O O12 0.107291 0.490947 0.380918
O O13 0.000000 0.677257 0.388661
O O14 0.731940 0.073486 0.903026
O O15 0.729050 0.000000 0.000000
O O16 0.500000 0.928351 0.278900
O O17 0.318006 0.907711 0.313238
#
# Coordination Sequence:
#
# PCOD9479984 Si02
#       7
#    16  16  16  16  16  16  16
#     4   9  19  36  58  81 112 152 201 250 290 346
#     4  10  21  38  58  83 117 159 205 250 292 345
#     4   8  15  30  54  82 114 149 190 241 299 361
#     4   9  18  33  55  84 115 148 189 240 299 357
#     4  10  23  37  56  80 118 162 203 240 294 356
#     4   9  17  34  57  87 121 153 194 250 306 361
#     4  11  22  33  57  87 123 151 192 244 296 356
#
# _framework density 24.003596000000002
#
# number of rings (size 3 to 8) (size 9 to 14) (size 15 to 20)
#    0.000    2.571    0.000    2.571    4.000    2.857 
#    2.571    2.143    0.000    0.857    0.000    0.000 
#    0.000    0.000    0.000    0.571    0.000    0.000 
#
# Total GULP energy -312072.358603 kJ/mol
# GULP energy per Si atom -5572.720689 kJ/mol
# Density = 2.394896 g / cm^3
# Si number density = 24.003596 Si / 1000 Ang^3
#
#
#
# Elastic Constant Matrix: (Units=GPa)
#
#
# Indices 1 2 3 4 5 6 
#
# 1 63.7155 7.8738 31.8772 0.0000 0.0000 0.0000
# 2 7.8738 81.7638 34.2550 0.0000 0.0000 0.0000
# 3 31.8772 34.2550 66.5703 0.0000 0.0000 0.0000
# 4 0.0000 0.0000 0.0000 44.4227 0.0000 0.0000
# 5 0.0000 0.0000 0.0000 0.0000 21.5720 0.0000
# 6 0.0000 0.0000 0.0000 0.0000 0.0000 6.9622
#
#
#
# Elastic Compliance Matrix: (Units=1/GPa)
#
#
# Indices 1 2 3 4 5 6 
#
# 1 0.021134 0.002811 -0.011566 0.000000 0.000000 0.000000
# 2 0.002811 0.015965 -0.009561 0.000000 0.000000 0.000000
# 3 -0.011566 -0.009561 0.025480 0.000000 0.000000 0.000000
# 4 0.000000 0.000000 0.000000 0.022511 0.000000 0.000000
# 5 0.000000 0.000000 0.000000 0.000000 0.046356 0.000000
# 6 0.000000 0.000000 0.000000 0.000000 0.000000 0.143632
#
#
# Mechanical properties :
#
#
# Convention : Reuss Voigt Hill
#
# Bulk Modulus (GPa) = 38.54185 40.00684 39.27435
# Shear Modulus (GPa) = 15.60739 23.79430 19.70084
#
# Velocity S-wave (km/s) = 2.55269 3.15188 2.86797
# Velocity P-wave (km/s) = 4.97794 5.47256 5.23110
#
# Compressibility (1/GPa) = 0.02594582
#
# Stress axis : x y z
#
# Youngs Moduli (GPa) = 47.31691 62.63570 39.24640
#
# Poissons Ratio (x) = -0.17604 0.45393
# Poissons Ratio (y) = -0.13298 0.37524
# Poissons Ratio (z) = 0.54728 0.59886
#
# Static dielectric constant tensor:
#      x y z
#    x 1.945190 0.000000 0.000000 
#    y 0.000000 1.897040 0.000000 
#    z 0.000000 0.000000 1.956400 
# 
# From -- ./inp_files/53234.got.cif
#   From: 2010.05.17/outbox.cif.g08.bks.cpg/sg64_27_cif.got.tgz:53234.got - 2010.06.03 16:29:19.
