data_PCOD9479712
_publ_section_title
;
Structure prediction by ZEFSAII (Michael W. Deem and Ramdas Pophale) SiO2 
 PCOD9479712
Probable space group: C M C A
;
_chemical_formula_sum "Si O2"
_cell_formula_units_Z 64
_cell_length_a 13.664389
_cell_length_b 19.178023
_cell_length_c 14.115202
_cell_angle_alpha 90.000000
_cell_angle_beta 90.000000
_cell_angle_gamma 90.000000
_cell_volume 3698.972903
_symmetry_space_group_name_H-M "C M C A"
_symmetry_group_IT_number 64
_symmetry_cell_setting 'orthorhombic'
loop_
_space_group_symop_operation_xyz
x,y,z
-x,1/2-y,1/2+z
x,-y,-z
-x,1/2+y,1/2-z
-x,-y,-z
x,1/2+y,1/2-z
-x,y,z
x,1/2-y,1/2+z
1/2+x,1/2+y,z
1/2-x,-y,1/2+z
1/2+x,1/2-y,-z
1/2-x,y,1/2-z
1/2-x,1/2-y,-z
1/2+x,y,1/2-z
1/2-x,1/2+y,z
1/2+x,-y,1/2+z
loop_
_atom_site_type_symbol
_atom_site_label
_atom_site_fract_x
_atom_site_fract_y
_atom_site_fract_z
Si Si1 0.769929 0.236672 0.390068
Si Si2 0.115905 0.806185 0.261899
Si Si3 0.618561 0.904910 0.908843
Si Si4 0.882617 0.057376 0.628107
O O1 0.750000 0.250000 0.500000
O O2 0.846376 0.290860 0.343294
O O3 0.671619 0.251231 0.330052
O O4 0.819382 0.161327 0.377010
O O5 0.145918 0.882738 0.298894
O O6 0.000000 0.799144 0.269488
O O7 0.500000 0.894411 0.897507
O O8 0.650535 0.977675 0.860369
O O9 0.637838 0.916593 0.021218
O O10 0.000000 0.052611 0.632808
#
# Coordination Sequence:
#
# PCOD9479712 Si02
#       4
#    16  16  16  16
#     4  11  21  33  54  83 113 146 185 230 287 340
#     4  10  21  36  53  80 114 146 185 233 281 333
#     4   9  16  30  55  83 108 143 185 226 271 328
#     4   8  15  30  54  79 106 142 185 229 273 323
#
# _framework density 17.302098999999998
#
# number of rings (size 3 to 8) (size 9 to 14) (size 15 to 20)
#    0.000    2.500    2.500    2.250    0.000    1.000 
#    0.000    5.000    0.000    0.000    0.000    5.250 
#    0.000    0.750    0.000    0.000    0.000    0.000 
#
# Total GULP energy -178195.780299 kJ/mol
# GULP energy per Si atom -5568.618134 kJ/mol
# Density = 1.726272 g / cm^3
# Si number density = 17.302099 Si / 1000 Ang^3
#
#
#
# Elastic Constant Matrix: (Units=GPa)
#
#
# Indices 1 2 3 4 5 6 
#
# 1 98.5125 51.7361 33.3609 0.0000 0.0000 0.0000
# 2 51.7361 165.1034 58.9635 0.0000 0.0000 0.0000
# 3 33.3609 58.9635 91.0467 0.0000 0.0000 0.0000
# 4 0.0000 0.0000 0.0000 26.4989 0.0000 0.0000
# 5 0.0000 0.0000 0.0000 0.0000 25.9012 0.0000
# 6 0.0000 0.0000 0.0000 0.0000 0.0000 25.9136
#
#
#
# Elastic Compliance Matrix: (Units=1/GPa)
#
#
# Indices 1 2 3 4 5 6 
#
# 1 0.012637 -0.003000 -0.002687 0.000000 0.000000 0.000000
# 2 -0.003000 0.008591 -0.004465 0.000000 0.000000 0.000000
# 3 -0.002687 -0.004465 0.014859 0.000000 0.000000 0.000000
# 4 0.000000 0.000000 0.000000 0.037737 0.000000 0.000000
# 5 0.000000 0.000000 0.000000 0.000000 0.038608 0.000000
# 6 0.000000 0.000000 0.000000 0.000000 0.000000 0.038590
#
#
# Mechanical properties :
#
#
# Convention : Reuss Voigt Hill
#
# Bulk Modulus (GPa) = 63.35808 71.42038 67.38923
# Shear Modulus (GPa) = 28.31447 29.70287 29.00867
#
# Velocity S-wave (km/s) = 4.04973 4.14783 4.09907
# Velocity P-wave (km/s) = 7.65279 8.01919 7.83813
#
# Compressibility (1/GPa) = 0.01578331
#
# Stress axis : x y z
#
# Youngs Moduli (GPa) = 79.13531 116.39623 67.29712
#
# Poissons Ratio (x) = 0.34919 0.18085
# Poissons Ratio (y) = 0.23741 0.30046
# Poissons Ratio (z) = 0.21267 0.51967
#
# Static dielectric constant tensor:
#      x y z
#    x 1.592120 0.000000 0.000000 
#    y 0.000000 1.619230 0.000000 
#    z 0.000000 0.000000 1.599630 
# 
# From -- ./inp_files/23373.got.cif
#   From: 2010.05.17/outbox.cif.g08.bks.cpg/sg64_12_cif.got.tgz:23373.got - 2010.06.03 16:29:19.
