data_PCOD9479013
_publ_section_title
;
Structure prediction by ZEFSAII (Michael W. Deem and Ramdas Pophale) SiO2 
 PCOD9479013
Probable space group: C M C A
;
_chemical_formula_sum "Si O2"
_cell_formula_units_Z 56
_cell_length_a 10.062119
_cell_length_b 26.188443
_cell_length_c 9.546243
_cell_angle_alpha 90.000000
_cell_angle_beta 90.000000
_cell_angle_gamma 90.000000
_cell_volume 2515.542234
_symmetry_space_group_name_H-M "C M C A"
_symmetry_group_IT_number 64
_symmetry_cell_setting 'orthorhombic'
loop_
_space_group_symop_operation_xyz
x,y,z
-x,1/2-y,1/2+z
x,-y,-z
-x,1/2+y,1/2-z
-x,-y,-z
x,1/2+y,1/2-z
-x,y,z
x,1/2-y,1/2+z
1/2+x,1/2+y,z
1/2-x,-y,1/2+z
1/2+x,1/2-y,-z
1/2-x,y,1/2-z
1/2-x,1/2-y,-z
1/2+x,y,1/2-z
1/2-x,1/2+y,z
1/2+x,-y,1/2+z
loop_
_atom_site_type_symbol
_atom_site_label
_atom_site_fract_x
_atom_site_fract_y
_atom_site_fract_z
Si Si1 0.289057 0.349743 0.451455
Si Si2 0.000000 0.814980 0.074997
Si Si3 0.500000 0.960604 0.780928
Si Si4 0.750000 0.395465 0.750000
Si Si5 0.500000 0.767484 0.139411
Si Si6 0.500000 0.430923 0.388259
O O1 0.289311 0.361514 0.617143
O O2 0.371054 0.298577 0.415570
O O3 0.370694 0.395299 0.379239
O O4 0.136380 0.345158 0.408218
O O5 0.000000 0.771281 0.193675
O O6 0.000000 0.788469 0.923829
O O7 0.372249 0.933121 0.715988
O O8 0.500000 0.021859 0.782160
O O9 0.500000 0.948567 0.948304
#
# Coordination Sequence:
#
# PCOD9479013 Si02
#       6
#    16   8   8   8   8   8
#     4  10  22  40  64  93 132 166 217 259 331 373
#     4  12  25  42  67  95 125 168 223 262 316 395
#     4   9  17  36  59  93 126 156 220 250 320 362
#     4  10  20  36  68  98 122 172 212 270 310 386
#     4  11  26  43  64  93 131 170 208 270 330 373
#     4   8  18  39  60  84 131 173 192 270 312 373
#
# _framework density 22.261600999999999
#
# number of rings (size 3 to 8) (size 9 to 14) (size 15 to 20)
#    0.000    2.000    0.000    3.429    4.000    0.000 
#   10.286    0.000    0.000    6.857    0.000    0.000 
#    0.000    0.000    0.000    0.000    0.000    0.000 
#
# Total GULP energy -156575.259074 kJ/mol
# GULP energy per Si atom -5591.973538 kJ/mol
# Density = 2.221093 g / cm^3
# Si number density = 22.261601 Si / 1000 Ang^3
#
#
#
# Elastic Constant Matrix: (Units=GPa)
#
#
# Indices 1 2 3 4 5 6 
#
# 1 177.8972 19.4971 -16.6661 0.0000 0.0000 0.0000
# 2 19.4971 27.3255 -11.6446 0.0000 0.0000 0.0000
# 3 -16.6661 -11.6446 66.4606 0.0000 0.0000 0.0000
# 4 0.0000 0.0000 0.0000 18.4663 0.0000 0.0000
# 5 0.0000 0.0000 0.0000 0.0000 -16.3118 0.0000
# 6 0.0000 0.0000 0.0000 0.0000 0.0000 14.8293
#
#
#
# Elastic Compliance Matrix: (Units=1/GPa)
#
#
# Indices 1 2 3 4 5 6 
#
# 1 0.006141 -0.004026 0.000835 0.000000 0.000000 0.000000
# 2 -0.004026 0.042188 0.006382 0.000000 0.000000 0.000000
# 3 0.000835 0.006382 0.016374 0.000000 0.000000 0.000000
# 4 0.000000 0.000000 0.000000 0.054153 0.000000 0.000000
# 5 0.000000 0.000000 0.000000 0.000000 -0.061305 0.000000
# 6 0.000000 0.000000 0.000000 0.000000 0.000000 0.067434
#
#
# Mechanical properties :
#
#
# Convention : Reuss Voigt Hill
#
# Bulk Modulus (GPa) = 14.06772 28.22844 21.14808
# Shear Modulus (GPa) = 35.13765 22.09653 28.61709
#
# Velocity S-wave (km/s) = 3.97721 3.15395 3.58926
# Velocity P-wave (km/s) = 5.23679 5.09618 5.16696
#
# Compressibility (1/GPa) = 0.07108470
#
# Stress axis : x y z
#
# Youngs Moduli (GPa) = 162.85000 23.70335 61.07236
#
# Poissons Ratio (x) = 0.09542 -0.05097
# Poissons Ratio (y) = 0.65560 -0.38978
# Poissons Ratio (z) = -0.13590 -0.15128
#
# Static dielectric constant tensor:
#      x y z
#    x 1.802170 0.000000 0.000000 
#    y 0.000000 1.810000 0.000000 
#    z 0.000000 0.000000 1.821980 
# 
# From -- ./inp_files/4522.got.cif
#   From: 2010.05.17/outbox.cif.g08.bks.cpg/sg64_3_cif.got.tgz:4522.got - 2010.06.03 16:29:19.
