data_PCOD9479899
_publ_section_title
;
Structure prediction by ZEFSAII (Michael W. Deem and Ramdas Pophale) SiO2 
 PCOD9479899
Probable space group: C M C A
;
_chemical_formula_sum "Si O2"
_cell_formula_units_Z 80
_cell_length_a 28.090403
_cell_length_b 8.993472
_cell_length_c 15.447982
_cell_angle_alpha 90.000000
_cell_angle_beta 90.000000
_cell_angle_gamma 90.000000
_cell_volume 3902.627599
_symmetry_space_group_name_H-M "C M C A"
_symmetry_group_IT_number 64
_symmetry_cell_setting 'orthorhombic'
loop_
_space_group_symop_operation_xyz
x,y,z
-x,1/2-y,1/2+z
x,-y,-z
-x,1/2+y,1/2-z
-x,-y,-z
x,1/2+y,1/2-z
-x,y,z
x,1/2-y,1/2+z
1/2+x,1/2+y,z
1/2-x,-y,1/2+z
1/2+x,1/2-y,-z
1/2-x,y,1/2-z
1/2-x,1/2-y,-z
1/2+x,y,1/2-z
1/2-x,1/2+y,z
1/2+x,-y,1/2+z
loop_
_atom_site_type_symbol
_atom_site_label
_atom_site_fract_x
_atom_site_fract_y
_atom_site_fract_z
Si Si1 0.109693 0.267820 0.874500
Si Si2 0.782442 0.284282 0.417980
Si Si3 0.218165 0.928865 0.821719
Si Si4 0.890578 0.434315 0.705621
Si Si5 0.054699 0.167986 0.038820
O O1 0.164310 0.280821 0.908717
O O2 0.094463 0.390486 0.803229
O O3 0.105971 0.107972 0.823227
O O4 0.078426 0.262537 0.961705
O O5 0.750000 0.250000 0.500000
O O6 0.787167 0.458736 0.401451
O O7 0.750396 0.208762 0.345483
O O8 0.250000 0.008851 0.750000
O O9 0.165122 0.891131 0.794404
O O10 0.917170 0.342632 0.629696
O O11 0.000000 0.210426 0.053644
O O12 0.055609 0.000000 0.000000
#
# Coordination Sequence:
#
# PCOD9479899 Si02
#       5
#    16  16  16  16  16
#     4  10  21  38  58  87 115 150 193 240 286 345
#     4  11  22  35  54  81 114 155 194 233 280 339
#     4  11  21  35  54  80 116 151 191 235 280 336
#     4  10  21  37  60  84 116 152 192 238 290 341
#     4   9  19  38  62  85 112 149 193 239 290 349
#
# _framework density 20.499009999999998
#
# number of rings (size 3 to 8) (size 9 to 14) (size 15 to 20)
#    0.000    1.800    2.000    2.400    2.800    4.000 
#    0.000    1.000    0.000    1.200    0.000    0.000 
#    0.000    0.000    0.000    0.000    0.000    0.000 
#
# Total GULP energy -222941.122892 kJ/mol
# GULP energy per Si atom -5573.528072 kJ/mol
# Density = 2.045235 g / cm^3
# Si number density = 20.499010 Si / 1000 Ang^3
#
#
#
# Elastic Constant Matrix: (Units=GPa)
#
#
# Indices 1 2 3 4 5 6 
#
# 1 101.4236 -2.0606 44.4288 0.0000 0.0000 0.0000
# 2 -2.0606 17.9782 0.8465 0.0000 0.0000 0.0000
# 3 44.4288 0.8465 117.8528 0.0000 0.0000 0.0000
# 4 0.0000 0.0000 0.0000 30.0098 0.0000 0.0000
# 5 0.0000 0.0000 0.0000 0.0000 25.2901 0.0000
# 6 0.0000 0.0000 0.0000 0.0000 0.0000 19.2097
#
#
#
# Elastic Compliance Matrix: (Units=1/GPa)
#
#
# Indices 1 2 3 4 5 6 
#
# 1 0.011854 0.001570 -0.004480 0.000000 0.000000 0.000000
# 2 0.001570 0.055850 -0.000993 0.000000 0.000000 0.000000
# 3 -0.004480 -0.000993 0.010181 0.000000 0.000000 0.000000
# 4 0.000000 0.000000 0.000000 0.033322 0.000000 0.000000
# 5 0.000000 0.000000 0.000000 0.000000 0.039541 0.000000
# 6 0.000000 0.000000 0.000000 0.000000 0.000000 0.052057
#
#
# Mechanical properties :
#
#
# Convention : Reuss Voigt Hill
#
# Bulk Modulus (GPa) = 14.26976 35.96489 25.11733
# Shear Modulus (GPa) = 21.37010 27.83790 24.60400
#
# Velocity S-wave (km/s) = 3.23227 3.68912 3.46823
# Velocity P-wave (km/s) = 4.57235 5.97737 5.32143
#
# Compressibility (1/GPa) = 0.07007825
#
# Stress axis : x y z
#
# Youngs Moduli (GPa) = 84.35945 17.90521 98.22011
#
# Poissons Ratio (x) = -0.02810 0.44003
# Poissons Ratio (y) = -0.13241 0.09752
# Poissons Ratio (z) = 0.37794 0.01778
#
# Static dielectric constant tensor:
#      x y z
#    x 1.676760 0.000000 0.000000 
#    y 0.000000 1.797690 0.000000 
#    z 0.000000 0.000000 1.625990 
# 
# From -- ./inp_files/27093.got.cif
#   From: 2010.05.17/outbox.cif.g08.bks.cpg/sg64_14_cif.got.tgz:27093.got - 2010.06.03 16:29:19.
