data_PCOD9479288
_publ_section_title
;
Structure prediction by ZEFSAII (Michael W. Deem and Ramdas Pophale) SiO2 
 PCOD9479288
Probable space group: C M C A
;
_chemical_formula_sum "Si O2"
_cell_formula_units_Z 72
_cell_length_a 11.137804
_cell_length_b 24.900098
_cell_length_c 12.754988
_cell_angle_alpha 90.000000
_cell_angle_beta 90.000000
_cell_angle_gamma 90.000000
_cell_volume 3537.371576
_symmetry_space_group_name_H-M "C M C A"
_symmetry_group_IT_number 64
_symmetry_cell_setting 'orthorhombic'
loop_
_space_group_symop_operation_xyz
x,y,z
-x,1/2-y,1/2+z
x,-y,-z
-x,1/2+y,1/2-z
-x,-y,-z
x,1/2+y,1/2-z
-x,y,z
x,1/2-y,1/2+z
1/2+x,1/2+y,z
1/2-x,-y,1/2+z
1/2+x,1/2-y,-z
1/2-x,y,1/2-z
1/2-x,1/2-y,-z
1/2+x,y,1/2-z
1/2-x,1/2+y,z
1/2+x,-y,1/2+z
loop_
_atom_site_type_symbol
_atom_site_label
_atom_site_fract_x
_atom_site_fract_y
_atom_site_fract_z
Si Si1 0.368276 0.805249 0.562696
Si Si2 0.250000 0.503203 0.750000
Si Si3 0.694695 0.692880 0.636150
Si Si4 0.866380 0.424640 0.075371
Si Si5 0.639964 0.075286 0.415774
O O1 0.500000 0.807281 0.515795
O O2 0.362318 0.752279 0.633518
O O3 0.284065 0.802982 0.462252
O O4 0.349152 0.862236 0.619444
O O5 0.166762 0.539824 0.823835
O O6 0.331816 0.465567 0.823086
O O7 0.750000 0.685124 0.750000
O O8 0.627694 0.637795 0.609120
O O9 0.000000 0.438536 0.032795
O O10 0.749859 0.431737 0.999071
O O11 0.500000 0.067907 0.453001
#
# Coordination Sequence:
#
# PCOD9479288 Si02
#       5
#    16   8  16  16  16
#     4   9  20  38  60  89 124 159 201 251 311 375
#     4  12  24  40  64  94 124 170 216 266 308 372
#     4  10  20  38  63  92 123 161 200 256 314 377
#     4  11  24  42  65  95 127 164 213 265 313 372
#     4  10  24  44  65  92 129 168 209 261 318 376
#
# _framework density 20.354095999999998
#
# number of rings (size 3 to 8) (size 9 to 14) (size 15 to 20)
#    0.000    1.778    1.111    2.000    1.556    7.111 
#    0.000    0.000    0.000    0.000    0.000    0.000 
#    0.000    0.000    0.000    0.000    0.000    0.000 
#
# Total GULP energy -200472.039633 kJ/mol
# GULP energy per Si atom -5568.667768 kJ/mol
# Density = 2.030777 g / cm^3
# Si number density = 20.354096 Si / 1000 Ang^3
#
#
#
# Elastic Constant Matrix: (Units=GPa)
#
#
# Indices 1 2 3 4 5 6 
#
# 1 155.0823 56.4990 47.4170 0.0000 0.0000 0.0000
# 2 56.4990 159.5315 47.2289 0.0000 0.0000 0.0000
# 3 47.4170 47.2289 67.4313 0.0000 0.0000 0.0000
# 4 0.0000 0.0000 0.0000 12.8239 0.0000 0.0000
# 5 0.0000 0.0000 0.0000 0.0000 106.0392 0.0000
# 6 0.0000 0.0000 0.0000 0.0000 0.0000 -21.0149
#
#
#
# Elastic Compliance Matrix: (Units=1/GPa)
#
#
# Indices 1 2 3 4 5 6 
#
# 1 0.008514 -0.001568 -0.004889 0.000000 0.000000 0.000000
# 2 -0.001568 0.008197 -0.004638 0.000000 0.000000 0.000000
# 3 -0.004889 -0.004638 0.021517 0.000000 0.000000 0.000000
# 4 0.000000 0.000000 0.000000 0.077980 0.000000 0.000000
# 5 0.000000 0.000000 0.000000 0.000000 0.009430 0.000000
# 6 0.000000 0.000000 0.000000 0.000000 0.000000 -0.047585
#
#
# Mechanical properties :
#
#
# Convention : Reuss Voigt Hill
#
# Bulk Modulus (GPa) = 62.35634 76.03720 69.19677
# Shear Modulus (GPa) = 47.35352 34.96298 41.15825
#
# Velocity S-wave (km/s) = 4.82860 4.14906 4.50167
# Velocity P-wave (km/s) = 7.86063 7.77118 7.81603
#
# Compressibility (1/GPa) = 0.01603686
#
# Stress axis : x y z
#
# Youngs Moduli (GPa) = 117.45022 121.99748 46.47596
#
# Poissons Ratio (x) = 0.19130 0.22722
# Poissons Ratio (y) = 0.18417 0.21558
# Poissons Ratio (z) = 0.57420 0.56588
#
# Static dielectric constant tensor:
#      x y z
#    x 1.875570 0.000000 0.000000 
#    y 0.000000 1.782020 0.000000 
#    z 0.000000 0.000000 1.664260 
# 
# From -- ./inp_files/13079.got.cif
#   From: 2010.05.17/outbox.cif.g08.bks.cpg/sg64_7_cif.got.tgz:13079.got - 2010.06.03 16:29:19.
