data_PCOD9479082
_publ_section_title
;
Structure prediction by ZEFSAII (Michael W. Deem and Ramdas Pophale) SiO2 
 PCOD9479082
Probable space group: C M C A
;
_chemical_formula_sum "Si O2"
_cell_formula_units_Z 96
_cell_length_a 7.666019
_cell_length_b 20.395200
_cell_length_c 28.299495
_cell_angle_alpha 90.000000
_cell_angle_beta 90.000000
_cell_angle_gamma 90.000000
_cell_volume 4424.625780
_symmetry_space_group_name_H-M "C M C A"
_symmetry_group_IT_number 64
_symmetry_cell_setting 'orthorhombic'
loop_
_space_group_symop_operation_xyz
x,y,z
-x,1/2-y,1/2+z
x,-y,-z
-x,1/2+y,1/2-z
-x,-y,-z
x,1/2+y,1/2-z
-x,y,z
x,1/2-y,1/2+z
1/2+x,1/2+y,z
1/2-x,-y,1/2+z
1/2+x,1/2-y,-z
1/2-x,y,1/2-z
1/2-x,1/2-y,-z
1/2+x,y,1/2-z
1/2-x,1/2+y,z
1/2+x,-y,1/2+z
loop_
_atom_site_type_symbol
_atom_site_label
_atom_site_fract_x
_atom_site_fract_y
_atom_site_fract_z
Si Si1 0.208314 0.095678 0.803945
Si Si2 0.794047 0.774624 0.147562
Si Si3 0.289101 0.643176 0.304932
Si Si4 0.707509 0.700307 0.542229
Si Si5 0.786615 0.548925 0.957704
Si Si6 0.699935 0.977342 0.863461
O O1 0.250000 0.110268 0.750000
O O2 0.276650 0.155588 0.835552
O O3 0.000000 0.087982 0.809888
O O4 0.295797 0.029303 0.821119
O O5 0.723149 0.713665 0.177241
O O6 0.771629 0.769682 0.091647
O O7 0.000000 0.776810 0.157932
O O8 0.500000 0.642280 0.308692
O O9 0.250000 0.630852 0.250000
O O10 0.220686 0.588242 0.341333
O O11 0.500000 0.695690 0.545187
O O12 0.750000 0.750000 0.500000
O O13 0.773082 0.624724 0.536986
O O14 0.724781 0.515249 0.908832
O O15 0.000000 0.551272 0.956944
O O16 0.736321 0.500000 0.000000
O O17 0.500000 0.961699 0.876798
#
# Coordination Sequence:
#
# PCOD9479082 Si02
#       6
#    16  16  16  16  16  16
#     4  11  22  36  58  85 117 152 191 239 290 346
#     4  10  22  40  60  85 117 153 194 241 289 341
#     4  10  22  38  59  85 117 156 197 244 288 342
#     4  11  23  39  63  90 119 153 191 239 291 348
#     4   9  19  36  61  89 114 150 195 237 284 346
#     4  10  20  37  60  86 116 150 195 239 287 346
#
# _framework density 21.696749000000001
#
# number of rings (size 3 to 8) (size 9 to 14) (size 15 to 20)
#    0.000    1.833    1.667    2.000    2.333    3.333 
#    0.000    0.000    0.000    2.500    0.000    0.000 
#    0.000    0.000    0.000    0.000    0.000    0.000 
#
# Total GULP energy -268071.558648 kJ/mol
# GULP energy per Si atom -5584.824138 kJ/mol
# Density = 2.164737 g / cm^3
# Si number density = 21.696749 Si / 1000 Ang^3
#
#
#
# Elastic Constant Matrix: (Units=GPa)
#
#
# Indices 1 2 3 4 5 6 
#
# 1 43.1435 3.6084 -19.8767 0.0000 0.0000 0.0000
# 2 3.6084 95.0416 6.8517 0.0000 0.0000 0.0000
# 3 -19.8767 6.8517 79.6362 0.0000 0.0000 0.0000
# 4 0.0000 0.0000 0.0000 43.0800 0.0000 0.0000
# 5 0.0000 0.0000 0.0000 0.0000 19.8673 0.0000
# 6 0.0000 0.0000 0.0000 0.0000 0.0000 4.9059
#
#
#
# Elastic Compliance Matrix: (Units=1/GPa)
#
#
# Indices 1 2 3 4 5 6 
#
# 1 0.026397 -0.001486 0.006716 0.000000 0.000000 0.000000
# 2 -0.001486 0.010671 -0.001289 0.000000 0.000000 0.000000
# 3 0.006716 -0.001289 0.014344 0.000000 0.000000 0.000000
# 4 0.000000 0.000000 0.000000 0.023213 0.000000 0.000000
# 5 0.000000 0.000000 0.000000 0.000000 0.050334 0.000000
# 6 0.000000 0.000000 0.000000 0.000000 0.000000 0.203837
#
#
# Mechanical properties :
#
#
# Convention : Reuss Voigt Hill
#
# Bulk Modulus (GPa) = 16.86499 22.10979 19.48739
# Shear Modulus (GPa) = 14.67655 28.71984 21.69819
#
# Velocity S-wave (km/s) = 2.60367 3.64221 3.16581
# Velocity P-wave (km/s) = 4.10228 5.28205 4.72910
#
# Compressibility (1/GPa) = 0.05929443
#
# Stress axis : x y z
#
# Youngs Moduli (GPa) = 37.88295 93.71131 69.71360
#
# Poissons Ratio (x) = 0.13929 -0.46823
# Poissons Ratio (y) = 0.05631 0.08987
# Poissons Ratio (z) = -0.25444 0.12080
#
# Static dielectric constant tensor:
#      x y z
#    x 1.832610 0.000000 0.000000 
#    y 0.000000 1.784690 0.000000 
#    z 0.000000 0.000000 1.753770 
# 
# From -- ./inp_files/48151.got.cif
#   From: 2010.05.17/outbox.cif.g08.bks.cpg/sg64_25_cif.got.tgz:48151.got - 2010.06.03 16:29:19.
