data_PCOD9479237
_publ_section_title
;
Structure prediction by ZEFSAII (Michael W. Deem and Ramdas Pophale) SiO2 
 PCOD9479237
Probable space group: C M C A
;
_chemical_formula_sum "Si O2"
_cell_formula_units_Z 88
_cell_length_a 16.778821
_cell_length_b 30.096113
_cell_length_c 7.823592
_cell_angle_alpha 90.000000
_cell_angle_beta 90.000000
_cell_angle_gamma 90.000000
_cell_volume 3950.736308
_symmetry_space_group_name_H-M "C M C A"
_symmetry_group_IT_number 64
_symmetry_cell_setting 'orthorhombic'
loop_
_space_group_symop_operation_xyz
x,y,z
-x,1/2-y,1/2+z
x,-y,-z
-x,1/2+y,1/2-z
-x,-y,-z
x,1/2+y,1/2-z
-x,y,z
x,1/2-y,1/2+z
1/2+x,1/2+y,z
1/2-x,-y,1/2+z
1/2+x,1/2-y,-z
1/2-x,y,1/2-z
1/2-x,1/2-y,-z
1/2+x,y,1/2-z
1/2-x,1/2+y,z
1/2+x,-y,1/2+z
loop_
_atom_site_type_symbol
_atom_site_label
_atom_site_fract_x
_atom_site_fract_y
_atom_site_fract_z
Si Si1 0.247619 0.000000 0.000000
Si Si2 0.835890 0.722187 0.167257
Si Si3 0.000000 0.139897 0.626388
Si Si4 0.130117 0.471786 0.790172
Si Si5 0.836339 0.681145 0.786855
Si Si6 0.000000 0.455384 0.219241
Si Si7 0.000000 0.320223 0.744351
Si Si8 0.000000 0.084917 0.104724
O O1 0.186859 0.995846 0.846650
O O2 0.310416 0.960980 0.947026
O O3 0.750000 0.710559 0.250000
O O4 0.839930 0.775713 0.164845
O O5 0.916368 0.706418 0.265452
O O6 0.835797 0.701261 0.978834
O O7 0.917987 0.153362 0.722135
O O8 0.000000 0.087399 0.602483
O O9 0.000000 0.161751 0.439757
O O10 0.071082 0.512014 0.821537
O O11 0.078430 0.433054 0.704850
O O12 0.750000 0.658852 0.750000
O O13 0.000000 0.437454 0.415969
O O14 0.000000 0.362073 0.617166
#
# Coordination Sequence:
#
# PCOD9479237 Si02
#       8
#     8  16   8  16  16   8   8   8
#     4  10  20  38  64  90 110 142 198 242 288 342
#     4  10  20  38  61  86 115 151 193 240 286 347
#     4  10  24  40  56  86 119 157 193 237 292 347
#     4  10  21  40  61  87 113 151 195 236 289 342
#     4  10  20  38  61  86 115 151 193 240 286 347
#     4  11  22  40  58  81 119 157 190 238 287 348
#     4  10  24  40  56  86 119 157 193 237 292 347
#     4  11  22  40  58  81 119 157 190 238 287 348
#
# _framework density 22.274329000000002
#
# number of rings (size 3 to 8) (size 9 to 14) (size 15 to 20)
#    0.000    1.818    1.818    3.273    2.545    3.636 
#    6.545    0.000    0.000    0.000    0.000    0.000 
#    0.000    0.000    0.000    0.000    0.000    0.000 
#
# Total GULP energy -245158.825695 kJ/mol
# GULP energy per Si atom -5571.791493 kJ/mol
# Density = 2.222363 g / cm^3
# Si number density = 22.274329 Si / 1000 Ang^3
#
#
#
# Elastic Constant Matrix: (Units=GPa)
#
#
# Indices 1 2 3 4 5 6 
#
# 1 172.8809 26.4057 21.3227 0.0000 0.0000 0.0000
# 2 26.4057 39.8089 -18.5857 0.0000 0.0000 0.0000
# 3 21.3227 -18.5857 30.4339 0.0000 0.0000 0.0000
# 4 0.0000 0.0000 0.0000 24.2776 0.0000 0.0000
# 5 0.0000 0.0000 0.0000 0.0000 42.7916 0.0000
# 6 0.0000 0.0000 0.0000 0.0000 0.0000 -88.7724
#
#
#
# Elastic Compliance Matrix: (Units=1/GPa)
#
#
# Indices 1 2 3 4 5 6 
#
# 1 0.009679 -0.013409 -0.014970 0.000000 0.000000 0.000000
# 2 -0.013409 0.053716 0.042199 0.000000 0.000000 0.000000
# 3 -0.014970 0.042199 0.069117 0.000000 0.000000 0.000000
# 4 0.000000 0.000000 0.000000 0.041190 0.000000 0.000000
# 5 0.000000 0.000000 0.000000 0.000000 0.023369 0.000000
# 6 0.000000 0.000000 0.000000 0.000000 0.000000 -0.011265
#
#
# Mechanical properties :
#
#
# Convention : Reuss Voigt Hill
#
# Bulk Modulus (GPa) = 6.24414 33.48991 19.86702
# Shear Modulus (GPa) = 23.63496 9.92476 16.77986
#
# Velocity S-wave (km/s) = 3.26096 2.11314 2.74766
# Velocity P-wave (km/s) = 4.12164 4.58494 4.35945
#
# Compressibility (1/GPa) = 0.16015027
#
# Stress axis : x y z
#
# Youngs Moduli (GPa) = 103.31830 18.61645 14.46824
#
# Poissons Ratio (x) = 0.24963 0.21659
# Poissons Ratio (y) = 1.38542 -0.61054
# Poissons Ratio (z) = 1.54669 -0.78559
#
# Static dielectric constant tensor:
#      x y z
#    x 1.729330 0.000000 0.000000 
#    y 0.000000 1.759290 0.000000 
#    z 0.000000 0.000000 1.674530 
# 
# From -- ./inp_files/7363.got.cif
#   From: 2010.05.17/outbox.cif.g08.bks.cpg/sg64_4_cif.got.tgz:7363.got - 2010.06.03 16:29:19.
