data_PCOD9479272
_publ_section_title
;
Structure prediction by ZEFSAII (Michael W. Deem and Ramdas Pophale) SiO2 
 PCOD9479272
Probable space group: C M C A
;
_chemical_formula_sum "Si O2"
_cell_formula_units_Z 116
_cell_length_a 18.146562
_cell_length_b 19.737596
_cell_length_c 14.165173
_cell_angle_alpha 90.000000
_cell_angle_beta 90.000000
_cell_angle_gamma 90.000000
_cell_volume 5073.533066
_symmetry_space_group_name_H-M "C M C A"
_symmetry_group_IT_number 64
_symmetry_cell_setting 'orthorhombic'
loop_
_space_group_symop_operation_xyz
x,y,z
-x,1/2-y,1/2+z
x,-y,-z
-x,1/2+y,1/2-z
-x,-y,-z
x,1/2+y,1/2-z
-x,y,z
x,1/2-y,1/2+z
1/2+x,1/2+y,z
1/2-x,-y,1/2+z
1/2+x,1/2-y,-z
1/2-x,y,1/2-z
1/2-x,1/2-y,-z
1/2+x,y,1/2-z
1/2-x,1/2+y,z
1/2+x,-y,1/2+z
loop_
_atom_site_type_symbol
_atom_site_label
_atom_site_fract_x
_atom_site_fract_y
_atom_site_fract_z
Si Si1 0.415317 0.833505 0.320154
Si Si2 0.000000 0.000000 0.000000
Si Si3 0.584287 0.234584 0.480680
Si Si4 0.204256 0.075247 0.598196
Si Si5 0.329164 0.057075 0.226733
Si Si6 0.084810 0.110554 0.445665
Si Si7 0.637633 0.038017 0.615896
Si Si8 0.814527 0.727898 0.820985
O O1 0.500000 0.844243 0.300740
O O2 0.403343 0.809814 0.426729
O O3 0.372116 0.902855 0.307331
O O4 0.384377 0.780389 0.246927
O O5 0.065316 0.041849 0.946192
O O6 0.500000 0.221112 0.444574
O O7 0.584024 0.311597 0.520155
O O8 0.652307 0.229110 0.407744
O O9 0.188806 0.012595 0.669078
O O10 0.141277 0.075850 0.518756
O O11 0.286850 0.057223 0.564176
O O12 0.206069 0.152331 0.639456
O O13 0.250000 0.089478 0.250000
O O14 0.361953 0.032299 0.326645
O O15 0.381928 0.099908 0.158959
O O16 0.000000 0.085795 0.449710
O O17 0.750000 0.750418 0.750000
#
# Coordination Sequence:
#
# PCOD9479272 Si02
#       8
#    16   4  16  16  16  16  16  16
#     4  11  21  40  66  89 123 169 220 265 319 381
#     4  12  28  40  60  96 124 172 212 268 314 382
#     4   9  22  41  61  90 131 171 209 264 325 385
#     4  10  20  38  62  93 127 157 200 263 329 376
#     4  10  21  37  61  87 123 166 201 255 319 379
#     4  10  22  39  60  92 129 163 205 258 323 389
#     4  11  23  41  61  91 124 166 217 264 314 380
#     4  11  19  37  63  96 123 157 213 270 317 388
#
# _framework density 22.863752000000002
#
# number of rings (size 3 to 8) (size 9 to 14) (size 15 to 20)
#    0.000    1.655    3.448    1.241    4.828    2.207 
#    0.000    2.069    3.034    0.000    0.000    0.000 
#    0.000    0.000    0.000    0.000    0.000    0.000 
#
# Total GULP energy -323267.801850 kJ/mol
# GULP energy per Si atom -5573.582791 kJ/mol
# Density = 2.281171 g / cm^3
# Si number density = 22.863752 Si / 1000 Ang^3
#
#
#
# Elastic Constant Matrix: (Units=GPa)
#
#
# Indices 1 2 3 4 5 6 
#
# 1 176.0750 17.7423 57.1644 0.0000 0.0000 0.0000
# 2 17.7423 30.5564 11.6151 0.0000 0.0000 0.0000
# 3 57.1644 11.6151 49.9734 0.0000 0.0000 0.0000
# 4 0.0000 0.0000 0.0000 1499.6284 0.0000 0.0000
# 5 0.0000 0.0000 0.0000 0.0000 38.5651 0.0000
# 6 0.0000 0.0000 0.0000 0.0000 0.0000 19.5753
#
#
#
# Elastic Compliance Matrix: (Units=1/GPa)
#
#
# Indices 1 2 3 4 5 6 
#
# 1 0.009093 -0.001454 -0.010064 0.000000 0.000000 0.000000
# 2 -0.001454 0.036131 -0.006734 0.000000 0.000000 0.000000
# 3 -0.010064 -0.006734 0.033088 0.000000 0.000000 0.000000
# 4 0.000000 0.000000 0.000000 0.000667 0.000000 0.000000
# 5 0.000000 0.000000 0.000000 0.000000 0.025930 0.000000
# 6 0.000000 0.000000 0.000000 0.000000 0.000000 0.051085
#
#
# Mechanical properties :
#
#
# Convention : Reuss Voigt Hill
#
# Bulk Modulus (GPa) = 23.91929 47.73873 35.82901
# Shear Modulus (GPa) = 24.22093 322.89262 173.55677
#
# Velocity S-wave (km/s) = 3.25831 11.89669 8.72204
# Velocity P-wave (km/s) = 4.96385 14.47872 10.82297
#
# Compressibility (1/GPa) = 0.04180726
#
# Stress axis : x y z
#
# Youngs Moduli (GPa) = 109.97206 27.67741 30.22283
#
# Poissons Ratio (x) = 0.04026 0.30415
# Poissons Ratio (y) = 0.15995 0.20352
# Poissons Ratio (z) = 1.10672 0.18638
#
# Static dielectric constant tensor:
#      x y z
#    x 1.839010 0.000000 0.000000 
#    y 0.000000 1.947700 0.000000 
#    z 0.000000 0.000000 1.823660 
# 
# From -- ./inp_files/16473.got.cif
#   From: 2010.05.17/outbox.cif.g08.bks.cpg/sg64_9_cif.got.tgz:16473.got - 2010.06.03 16:29:19.
