data_PCOD9479466
_publ_section_title
;
Structure prediction by ZEFSAII (Michael W. Deem and Ramdas Pophale) SiO2 
 PCOD9479466
Probable space group: C M C A
;
_chemical_formula_sum "Si O2"
_cell_formula_units_Z 104
_cell_length_a 7.719723
_cell_length_b 28.901741
_cell_length_c 21.907129
_cell_angle_alpha 90.000000
_cell_angle_beta 90.000000
_cell_angle_gamma 90.000000
_cell_volume 4887.774796
_symmetry_space_group_name_H-M "C M C A"
_symmetry_group_IT_number 64
_symmetry_cell_setting 'orthorhombic'
loop_
_space_group_symop_operation_xyz
x,y,z
-x,1/2-y,1/2+z
x,-y,-z
-x,1/2+y,1/2-z
-x,-y,-z
x,1/2+y,1/2-z
-x,y,z
x,1/2-y,1/2+z
1/2+x,1/2+y,z
1/2-x,-y,1/2+z
1/2+x,1/2-y,-z
1/2-x,y,1/2-z
1/2-x,1/2-y,-z
1/2+x,y,1/2-z
1/2-x,1/2+y,z
1/2+x,-y,1/2+z
loop_
_atom_site_type_symbol
_atom_site_label
_atom_site_fract_x
_atom_site_fract_y
_atom_site_fract_z
Si Si1 0.197284 0.799882 0.472717
Si Si2 0.000000 0.391765 0.160109
Si Si3 0.792919 0.960603 0.178467
Si Si4 0.197022 0.856711 0.914414
Si Si5 0.293655 0.931080 0.679864
Si Si6 0.194286 0.180159 0.840221
Si Si7 0.797027 0.213471 0.316600
O O1 0.250000 0.750000 0.500000
O O2 0.210427 0.838390 0.525284
O O3 0.304749 0.814628 0.413938
O O4 0.000000 0.796689 0.451249
O O5 0.155814 0.429425 0.143102
O O6 0.154121 0.354314 0.177326
O O7 0.750000 0.950685 0.250000
O O8 0.000000 0.952980 0.168413
O O9 0.752618 0.015011 0.169773
O O10 0.277135 0.897491 0.872871
O O11 0.195537 0.813116 0.868636
O O12 0.000000 0.868709 0.931815
O O13 0.500000 0.926381 0.675904
O O14 0.250000 0.919103 0.750000
O O15 0.235007 0.231952 0.818146
O O16 0.000000 0.166554 0.820428
O O17 0.750000 0.195205 0.250000
O O18 0.000000 0.206354 0.328945
#
# Coordination Sequence:
#
# PCOD9479466 Si02
#       7
#    16   8  16  16  16  16  16
#     4  12  23  40  65  90 123 167 222 271 314 376
#     4  12  24  40  66  91 122 170 210 263 325 366
#     4  10  20  40  63  94 129 165 216 267 318 387
#     4  11  22  37  62  93 124 166 210 259 322 381
#     4   9  20  36  60  93 130 164 204 262 325 385
#     4  11  25  44  62  91 127 169 217 267 316 375
#     4  11  24  39  55  84 127 168 203 251 315 380
#
# _framework density 21.277577000000001
#
# number of rings (size 3 to 8) (size 9 to 14) (size 15 to 20)
#    0.000    1.231    3.077    3.231    3.231    3.077 
#    2.769    0.000    0.000    1.846    0.000    4.308 
#    0.000    0.000    0.000    0.000    0.000    0.000 
#
# Total GULP energy -289553.379029 kJ/mol
# GULP energy per Si atom -5568.334212 kJ/mol
# Density = 2.122915 g / cm^3
# Si number density = 21.277577 Si / 1000 Ang^3
#
#
#
# Elastic Constant Matrix: (Units=GPa)
#
#
# Indices 1 2 3 4 5 6 
#
# 1 115.6981 58.5613 6.0784 0.0000 0.0000 0.0000
# 2 58.5613 76.4965 -4.8533 0.0000 0.0000 0.0000
# 3 6.0784 -4.8533 59.0124 0.0000 0.0000 0.0000
# 4 0.0000 0.0000 0.0000 -0.2577 0.0000 0.0000
# 5 0.0000 0.0000 0.0000 0.0000 15.5363 0.0000
# 6 0.0000 0.0000 0.0000 0.0000 0.0000 30.8277
#
#
#
# Elastic Compliance Matrix: (Units=1/GPa)
#
#
# Indices 1 2 3 4 5 6 
#
# 1 0.014444 -0.011210 -0.002410 0.000000 0.000000 0.000000
# 2 -0.011210 0.021842 0.002951 0.000000 0.000000 0.000000
# 3 -0.002410 0.002951 0.017437 0.000000 0.000000 0.000000
# 4 0.000000 0.000000 0.000000 -3.880233 0.000000 0.000000
# 5 0.000000 0.000000 0.000000 0.000000 0.064365 0.000000
# 6 0.000000 0.000000 0.000000 0.000000 0.000000 0.032438
#
#
# Mechanical properties :
#
#
# Convention : Reuss Voigt Hill
#
# Bulk Modulus (GPa) = 30.87940 41.19775 36.03857
# Shear Modulus (GPa) = -1.35224 21.98263 10.31520
#
# Velocity S-wave (km/s) = -0.79806 3.21773 2.20419
# Velocity P-wave (km/s) = 3.70067 5.76274 4.84273
#
# Compressibility (1/GPa) = 0.03238405
#
# Stress axis : x y z
#
# Youngs Moduli (GPa) = 69.23295 45.78387 57.35093
#
# Poissons Ratio (x) = 0.51325 0.13820
# Poissons Ratio (y) = 0.77613 -0.16924
# Poissons Ratio (z) = 0.16683 -0.13511
#
# Static dielectric constant tensor:
#      x y z
#    x 1.604140 0.000000 0.000000 
#    y 0.000000 1.803980 0.000000 
#    z 0.000000 0.000000 1.902930 
# 
# From -- ./inp_files/43304.got.cif
#   From: 2010.05.17/outbox.cif.g08.bks.cpg/sg64_22_cif.got.tgz:43304.got - 2010.06.03 16:29:19.
