data_PCOD9479754
_publ_section_title
;
Structure prediction by ZEFSAII (Michael W. Deem and Ramdas Pophale) SiO2 
 PCOD9479754
Probable space group: C M C A
;
_chemical_formula_sum "Si O2"
_cell_formula_units_Z 96
_cell_length_a 8.650420
_cell_length_b 29.755101
_cell_length_c 20.932871
_cell_angle_alpha 90.000000
_cell_angle_beta 90.000000
_cell_angle_gamma 90.000000
_cell_volume 5387.997927
_symmetry_space_group_name_H-M "C M C A"
_symmetry_group_IT_number 64
_symmetry_cell_setting 'orthorhombic'
loop_
_space_group_symop_operation_xyz
x,y,z
-x,1/2-y,1/2+z
x,-y,-z
-x,1/2+y,1/2-z
-x,-y,-z
x,1/2+y,1/2-z
-x,y,z
x,1/2-y,1/2+z
1/2+x,1/2+y,z
1/2-x,-y,1/2+z
1/2+x,1/2-y,-z
1/2-x,y,1/2-z
1/2-x,1/2-y,-z
1/2+x,y,1/2-z
1/2-x,1/2+y,z
1/2+x,-y,1/2+z
loop_
_atom_site_type_symbol
_atom_site_label
_atom_site_fract_x
_atom_site_fract_y
_atom_site_fract_z
Si Si1 0.813240 0.722114 0.940036
Si Si2 0.686128 0.623509 0.521181
Si Si3 0.685807 0.375120 0.628736
Si Si4 0.685732 0.531402 0.180967
Si Si5 0.313643 0.529098 0.938636
Si Si6 0.814393 0.718655 0.319322
O O1 0.763236 0.670394 0.947178
O O2 0.766058 0.746350 0.874527
O O3 0.000000 0.722959 0.943148
O O4 0.750000 0.750000 0.000000
O O5 0.500000 0.621534 0.523553
O O6 0.730725 0.624031 0.446217
O O7 0.752359 0.579338 0.554228
O O8 0.500000 0.374678 0.633014
O O9 0.750706 0.419592 0.662080
O O10 0.751697 0.330285 0.660797
O O11 0.500000 0.533194 0.182553
O O12 0.750000 0.518567 0.250000
O O13 0.734117 0.496582 0.125653
O O14 0.500000 0.530224 0.940003
O O15 0.261114 0.500000 0.000000
O O16 0.750000 0.730829 0.250000
O O17 0.000000 0.717144 0.317252
#
# Coordination Sequence:
#
# PCOD9479754 Si02
#       6
#    16  16  16  16  16  16
#     4  10  21  38  59  85 114 149 190 236 282 335
#     4  10  21  36  58  88 117 145 186 236 282 334
#     4  11  21  35  58  87 119 150 186 233 287 341
#     4  11  23  39  58  83 117 152 190 234 284 341
#     4  10  21  38  59  83 113 148 189 235 279 333
#     4  11  23  38  58  83 117 155 191 234 285 338
#
# _framework density 17.817378999999999
#
# number of rings (size 3 to 8) (size 9 to 14) (size 15 to 20)
#    0.000    1.500    3.333    2.000    0.000    3.667 
#    0.000    0.833    0.000    4.000    0.000    0.000 
#    0.000    0.000    0.000    0.000    0.000    0.000 
#
# Total GULP energy -268219.466295 kJ/mol
# GULP energy per Si atom -5587.905548 kJ/mol
# Density = 1.777683 g / cm^3
# Si number density = 17.817379 Si / 1000 Ang^3
#
#
#
# Elastic Constant Matrix: (Units=GPa)
#
#
# Indices 1 2 3 4 5 6 
#
# 1 30.1069 28.3608 42.1028 0.0000 0.0000 0.0000
# 2 28.3608 163.3075 97.7068 0.0000 0.0000 0.0000
# 3 42.1028 97.7068 183.0061 0.0000 0.0000 0.0000
# 4 0.0000 0.0000 0.0000 21.9840 0.0000 0.0000
# 5 0.0000 0.0000 0.0000 0.0000 25.6881 0.0000
# 6 0.0000 0.0000 0.0000 0.0000 0.0000 28.4312
#
#
#
# Elastic Compliance Matrix: (Units=1/GPa)
#
#
# Indices 1 2 3 4 5 6 
#
# 1 0.049728 -0.002632 -0.010035 0.000000 0.000000 0.000000
# 2 -0.002632 0.009137 -0.004273 0.000000 0.000000 0.000000
# 3 -0.010035 -0.004273 0.010054 0.000000 0.000000 0.000000
# 4 0.000000 0.000000 0.000000 0.045488 0.000000 0.000000
# 5 0.000000 0.000000 0.000000 0.000000 0.038929 0.000000
# 6 0.000000 0.000000 0.000000 0.000000 0.000000 0.035173
#
#
# Mechanical properties :
#
#
# Convention : Reuss Voigt Hill
#
# Bulk Modulus (GPa) = 28.53938 79.19572 53.86755
# Shear Modulus (GPa) = 21.36134 29.10398 25.23266
#
# Velocity S-wave (km/s) = 3.46628 4.04599 3.76730
# Velocity P-wave (km/s) = 5.66327 8.14689 7.01585
#
# Compressibility (1/GPa) = 0.03503931
#
# Stress axis : x y z
#
# Youngs Moduli (GPa) = 20.10935 109.44753 99.46058
#
# Poissons Ratio (x) = 0.28805 0.99813
# Poissons Ratio (y) = 0.05292 0.42496
# Poissons Ratio (z) = 0.20181 0.46763
#
# Static dielectric constant tensor:
#      x y z
#    x 1.605690 0.000000 0.000000 
#    y 0.000000 1.578850 0.000000 
#    z 0.000000 0.000000 1.600490 
# 
# From -- ./inp_files/36959.got.cif
#   From: 2010.05.17/outbox.cif.g08.bks.cpg/sg64_19_cif.got.tgz:36959.got - 2010.06.03 16:29:19.
