data_PCOD9479265
_publ_section_title
;
Structure prediction by ZEFSAII (Michael W. Deem and Ramdas Pophale) SiO2 
 PCOD9479265
Probable space group: C M C A
;
_chemical_formula_sum "Si O2"
_cell_formula_units_Z 80
_cell_length_a 17.599139
_cell_length_b 15.751740
_cell_length_c 15.283075
_cell_angle_alpha 90.000000
_cell_angle_beta 90.000000
_cell_angle_gamma 90.000000
_cell_volume 4236.729146
_symmetry_space_group_name_H-M "C M C A"
_symmetry_group_IT_number 64
_symmetry_cell_setting 'orthorhombic'
loop_
_space_group_symop_operation_xyz
x,y,z
-x,1/2-y,1/2+z
x,-y,-z
-x,1/2+y,1/2-z
-x,-y,-z
x,1/2+y,1/2-z
-x,y,z
x,1/2-y,1/2+z
1/2+x,1/2+y,z
1/2-x,-y,1/2+z
1/2+x,1/2-y,-z
1/2-x,y,1/2-z
1/2-x,1/2-y,-z
1/2+x,y,1/2-z
1/2-x,1/2+y,z
1/2+x,-y,1/2+z
loop_
_atom_site_type_symbol
_atom_site_label
_atom_site_fract_x
_atom_site_fract_y
_atom_site_fract_z
Si Si1 0.330434 0.266738 0.649453
Si Si2 0.086352 0.315793 0.027048
Si Si3 0.781456 0.920022 0.883107
Si Si4 0.413894 0.180375 0.317807
Si Si5 0.240982 0.604680 0.917271
O O1 0.385789 0.281200 0.566712
O O2 0.276290 0.349062 0.651782
O O3 0.377210 0.266570 0.738624
O O4 0.278268 0.184594 0.631803
O O5 0.086943 0.239112 0.096312
O O6 0.152482 0.378980 0.060399
O O7 0.000000 0.349558 0.022534
O O8 0.861958 0.900253 0.839841
O O9 0.753571 0.015560 0.869684
O O10 0.781968 0.903170 0.987880
O O11 0.500000 0.157326 0.296096
#
# Coordination Sequence:
#
# PCOD9479265 Si02
#       5
#    16  16  16  16  16
#     4  11  20  40  61  87 121 165 205 245 302 369
#     4  10  20  38  62  90 122 155 198 253 303 356
#     4  10  20  39  62  91 118 157 207 255 297 368
#     4  11  22  38  59  89 123 158 200 252 306 354
#     4  10  20  38  66  89 116 163 208 242 310 373
#
# _framework density 18.882490000000001
#
# number of rings (size 3 to 8) (size 9 to 14) (size 15 to 20)
#    0.000    1.600    4.000    2.400    0.000    0.000 
#    7.200   13.000    0.000    0.000    0.000    0.000 
#    0.000    0.000    0.000    0.000    0.000    0.000 
#
# Total GULP energy -223342.060810 kJ/mol
# GULP energy per Si atom -5583.551520 kJ/mol
# Density = 1.883951 g / cm^3
# Si number density = 18.882490 Si / 1000 Ang^3
#
#
#
# Elastic Constant Matrix: (Units=GPa)
#
#
# Indices 1 2 3 4 5 6 
#
# 1 163.5775 68.9846 49.3209 0.0000 0.0000 0.0000
# 2 68.9846 117.3046 31.2205 0.0000 0.0000 0.0000
# 3 49.3209 31.2205 83.0499 0.0000 0.0000 0.0000
# 4 0.0000 0.0000 0.0000 2.9882 0.0000 0.0000
# 5 0.0000 0.0000 0.0000 0.0000 24.6844 0.0000
# 6 0.0000 0.0000 0.0000 0.0000 0.0000 22.1932
#
#
#
# Elastic Compliance Matrix: (Units=1/GPa)
#
#
# Indices 1 2 3 4 5 6 
#
# 1 0.009076 -0.004337 -0.003760 0.000000 0.000000 0.000000
# 2 -0.004337 0.011545 -0.001765 0.000000 0.000000 0.000000
# 3 -0.003760 -0.001765 0.014937 0.000000 0.000000 0.000000
# 4 0.000000 0.000000 0.000000 0.334646 0.000000 0.000000
# 5 0.000000 0.000000 0.000000 0.000000 0.040511 0.000000
# 6 0.000000 0.000000 0.000000 0.000000 0.000000 0.045059
#
#
# Mechanical properties :
#
#
# Convention : Reuss Voigt Hill
#
# Bulk Modulus (GPa) = 63.14747 73.66490 68.40619
# Shear Modulus (GPa) = 10.39989 24.26690 17.33339
#
# Velocity S-wave (km/s) = 2.34939 3.58879 3.03307
# Velocity P-wave (km/s) = 6.39331 7.50130 6.96936
#
# Compressibility (1/GPa) = 0.01583595
#
# Stress axis : x y z
#
# Youngs Moduli (GPa) = 110.18372 86.61940 66.94795
#
# Poissons Ratio (x) = 0.37564 0.25169
# Poissons Ratio (y) = 0.47783 0.11813
# Poissons Ratio (z) = 0.41424 0.15284
#
# Static dielectric constant tensor:
#      x y z
#    x 1.668080 0.000000 0.000000 
#    y 0.000000 1.634130 0.000000 
#    z 0.000000 0.000000 1.679610 
# 
# From -- ./inp_files/25269.got.cif
#   From: 2010.05.17/outbox.cif.g08.bks.cpg/sg64_13_cif.got.tgz:25269.got - 2010.06.03 16:29:19.
