data_PCOD9479969
_publ_section_title
;
Structure prediction by ZEFSAII (Michael W. Deem and Ramdas Pophale) SiO2 
 PCOD9479969
Probable space group: C M C A
;
_chemical_formula_sum "Si O2"
_cell_formula_units_Z 72
_cell_length_a 20.953301
_cell_length_b 33.919919
_cell_length_c 5.257032
_cell_angle_alpha 90.000000
_cell_angle_beta 90.000000
_cell_angle_gamma 90.000000
_cell_volume 3736.352815
_symmetry_space_group_name_H-M "C M C A"
_symmetry_group_IT_number 64
_symmetry_cell_setting 'orthorhombic'
loop_
_space_group_symop_operation_xyz
x,y,z
-x,1/2-y,1/2+z
x,-y,-z
-x,1/2+y,1/2-z
-x,-y,-z
x,1/2+y,1/2-z
-x,y,z
x,1/2-y,1/2+z
1/2+x,1/2+y,z
1/2-x,-y,1/2+z
1/2+x,1/2-y,-z
1/2-x,y,1/2-z
1/2-x,1/2-y,-z
1/2+x,y,1/2-z
1/2-x,1/2+y,z
1/2+x,-y,1/2+z
loop_
_atom_site_type_symbol
_atom_site_label
_atom_site_fract_x
_atom_site_fract_y
_atom_site_fract_z
Si Si1 0.821092 0.233635 0.450143
Si Si2 0.000000 0.723604 0.286808
Si Si3 0.886684 0.161575 0.290711
Si Si4 0.077574 0.476854 0.250073
Si Si5 0.922967 0.884986 0.199169
O O1 0.851253 0.238945 0.729520
O O2 0.750000 0.250000 0.500000
O O3 0.825759 0.188968 0.354593
O O4 0.059768 0.694540 0.258644
O O5 0.000000 0.745693 0.554898
O O6 0.905739 0.137307 0.540956
O O7 0.887313 0.134202 0.042282
O O8 0.098984 0.500000 0.500000
O O9 0.094121 0.430900 0.266160
O O10 0.000000 0.477994 0.245824
O O11 0.099879 0.500000 0.000000
O O12 0.000000 0.882036 0.155130
#
# Coordination Sequence:
#
# PCOD9479969 Si02
#       5
#    16   8  16  16  16
#     4  10  21  38  56  72  94 133 179 224 275 318
#     4  12  22  32  46  66  96 132 172 212 262 326
#     4  12  21  34  50  73 102 136 176 228 273 313
#     4   9  17  29  46  67  95 138 182 210 242 306
#     4  11  20  33  48  73 107 140 175 220 269 311
#
# _framework density 19.270129000000001
#
# number of rings (size 3 to 8) (size 9 to 14) (size 15 to 20)
#    0.000    1.333    2.222    5.333    0.000    3.556 
#    0.000    0.000    0.000    0.000    0.000    0.000 
#    0.000    0.000    0.000  224.000    0.000    0.000 
#
# Total GULP energy -200963.346560 kJ/mol
# GULP energy per Si atom -5582.315182 kJ/mol
# Density = 1.922627 g / cm^3
# Si number density = 19.270129 Si / 1000 Ang^3
#
#
#
# Elastic Constant Matrix: (Units=GPa)
#
#
# Indices 1 2 3 4 5 6 
#
# 1 42.1976 36.6426 16.2987 0.0000 0.0000 0.0000
# 2 36.6426 170.0398 87.2652 0.0000 0.0000 0.0000
# 3 16.2987 87.2652 192.2013 0.0000 0.0000 0.0000
# 4 0.0000 0.0000 0.0000 43.8321 0.0000 0.0000
# 5 0.0000 0.0000 0.0000 0.0000 12.2675 0.0000
# 6 0.0000 0.0000 0.0000 0.0000 0.0000 19.4879
#
#
#
# Elastic Compliance Matrix: (Units=1/GPa)
#
#
# Indices 1 2 3 4 5 6 
#
# 1 0.029190 -0.006545 0.000496 0.000000 0.000000 0.000000
# 2 -0.006545 0.009135 -0.003593 0.000000 0.000000 0.000000
# 3 0.000496 -0.003593 0.006792 0.000000 0.000000 0.000000
# 4 0.000000 0.000000 0.000000 0.022814 0.000000 0.000000
# 5 0.000000 0.000000 0.000000 0.000000 0.081516 0.000000
# 6 0.000000 0.000000 0.000000 0.000000 0.000000 0.051314
#
#
# Mechanical properties :
#
#
# Convention : Reuss Voigt Hill
#
# Bulk Modulus (GPa) = 38.70830 76.09464 57.40147
# Shear Modulus (GPa) = 21.86703 32.73299 27.30001
#
# Velocity S-wave (km/s) = 3.37228 4.12593 3.76799
# Velocity P-wave (km/s) = 5.94086 7.89125 6.98447
#
# Compressibility (1/GPa) = 0.02583426
#
# Stress axis : x y z
#
# Youngs Moduli (GPa) = 34.25876 109.46781 147.23324
#
# Poissons Ratio (x) = 0.71645 -0.07307
# Poissons Ratio (y) = 0.22422 0.52895
# Poissons Ratio (z) = -0.01700 0.39327
#
# Static dielectric constant tensor:
#      x y z
#    x 1.819950 0.000000 0.000000 
#    y 0.000000 1.666890 0.000000 
#    z 0.000000 0.000000 1.843240 
# 
# From -- ./inp_files/2272.got.cif
#   From: 2010.05.17/outbox.cif.g08.bks.cpg/sg64_2_cif.got.tgz:2272.got - 2010.06.03 16:29:19.
