data_PCOD9479837
_publ_section_title
;
Structure prediction by ZEFSAII (Michael W. Deem and Ramdas Pophale) SiO2 
 PCOD9479837
Probable space group: C M C A
;
_chemical_formula_sum "Si O2"
_cell_formula_units_Z 64
_cell_length_a 7.536249
_cell_length_b 9.929421
_cell_length_c 34.171807
_cell_angle_alpha 90.000000
_cell_angle_beta 90.000000
_cell_angle_gamma 90.000000
_cell_volume 2557.096448
_symmetry_space_group_name_H-M "C M C A"
_symmetry_group_IT_number 64
_symmetry_cell_setting 'orthorhombic'
loop_
_space_group_symop_operation_xyz
x,y,z
-x,1/2-y,1/2+z
x,-y,-z
-x,1/2+y,1/2-z
-x,-y,-z
x,1/2+y,1/2-z
-x,y,z
x,1/2-y,1/2+z
1/2+x,1/2+y,z
1/2-x,-y,1/2+z
1/2+x,1/2-y,-z
1/2-x,y,1/2-z
1/2-x,1/2-y,-z
1/2+x,y,1/2-z
1/2-x,1/2+y,z
1/2+x,-y,1/2+z
loop_
_atom_site_type_symbol
_atom_site_label
_atom_site_fract_x
_atom_site_fract_y
_atom_site_fract_z
Si Si1 0.706726 0.585413 0.964435
Si Si2 0.295249 0.311026 0.159399
Si Si3 0.715787 0.334871 0.581892
Si Si4 0.288260 0.939345 0.705521
O O1 0.500000 0.606491 0.973550
O O2 0.777445 0.730735 0.951994
O O3 0.719825 0.484187 0.927548
O O4 0.789304 0.500000 0.000000
O O5 0.500000 0.338417 0.149329
O O6 0.219488 0.231391 0.122229
O O7 0.216044 0.450119 0.174867
O O8 0.288324 0.205714 0.195008
O O9 0.500000 0.339371 0.582133
O O10 0.500000 0.931976 0.701142
O O11 0.250000 0.978651 0.750000
#
# Coordination Sequence:
#
# PCOD9479837 Si02
#       4
#    16  16  16  16
#     4  10  21  37  57  83 115 149 187 232 280 331
#     4  10  22  39  58  83 114 147 186 231 277 329
#     4  10  21  37  57  83 114 147 187 232 276 329
#     4  11  23  39  60  85 114 148 186 229 278 332
#
# _framework density 25.028389000000001
#
# number of rings (size 3 to 8) (size 9 to 14) (size 15 to 20)
#    0.000    1.750    0.000    3.750    0.000    8.500 
#    0.000    0.000    0.000    0.000    0.000    0.000 
#    0.000    0.000    0.000    0.000    0.000    0.000 
#
# Total GULP energy -179060.274268 kJ/mol
# GULP energy per Si atom -5595.633571 kJ/mol
# Density = 2.497142 g / cm^3
# Si number density = 25.028389 Si / 1000 Ang^3
#
#
#
# Elastic Constant Matrix: (Units=GPa)
#
#
# Indices 1 2 3 4 5 6 
#
# 1 83.7290 -6.1651 -1.7961 0.0000 0.0000 0.0000
# 2 -6.1651 107.5306 -13.5531 0.0000 0.0000 0.0000
# 3 -1.7961 -13.5531 70.8176 0.0000 0.0000 0.0000
# 4 0.0000 0.0000 0.0000 47.5734 0.0000 0.0000
# 5 0.0000 0.0000 0.0000 0.0000 17.7269 0.0000
# 6 0.0000 0.0000 0.0000 0.0000 0.0000 5.7314
#
#
#
# Elastic Compliance Matrix: (Units=1/GPa)
#
#
# Indices 1 2 3 4 5 6 
#
# 1 0.012008 0.000745 0.000447 0.000000 0.000000 0.000000
# 2 0.000745 0.009576 0.001851 0.000000 0.000000 0.000000
# 3 0.000447 0.001851 0.014486 0.000000 0.000000 0.000000
# 4 0.000000 0.000000 0.000000 0.021020 0.000000 0.000000
# 5 0.000000 0.000000 0.000000 0.000000 0.056412 0.000000
# 6 0.000000 0.000000 0.000000 0.000000 0.000000 0.174478
#
#
# Mechanical properties :
#
#
# Convention : Reuss Voigt Hill
#
# Bulk Modulus (GPa) = 23.72103 24.33873 24.02988
# Shear Modulus (GPa) = 16.89505 33.11244 25.00374
#
# Velocity S-wave (km/s) = 2.60096 3.64125 3.16415
# Velocity P-wave (km/s) = 4.30328 5.23677 4.79281
#
# Compressibility (1/GPa) = 0.04215669
#
# Stress axis : x y z
#
# Youngs Moduli (GPa) = 83.27976 104.43055 69.02997
#
# Poissons Ratio (x) = -0.07778 -0.03086
# Poissons Ratio (y) = -0.06203 -0.12781
# Poissons Ratio (z) = -0.03723 -0.19335
#
# Static dielectric constant tensor:
#      x y z
#    x 1.935220 0.000000 0.000000 
#    y 0.000000 1.920280 0.000000 
#    z 0.000000 0.000000 2.045350 
# 
# From -- ./inp_files/51534.got.cif
#   From: 2010.05.17/outbox.cif.g08.bks.cpg/sg64_26_cif.got.tgz:51534.got - 2010.06.03 16:29:19.
