data_PCOD9479699
_publ_section_title
;
Structure prediction by ZEFSAII (Michael W. Deem and Ramdas Pophale) SiO2 
 PCOD9479699
Probable space group: C M C A
;
_chemical_formula_sum "Si O2"
_cell_formula_units_Z 64
_cell_length_a 21.033207
_cell_length_b 28.226892
_cell_length_c 5.295457
_cell_angle_alpha 90.000000
_cell_angle_beta 90.000000
_cell_angle_gamma 90.000000
_cell_volume 3143.923742
_symmetry_space_group_name_H-M "C M C A"
_symmetry_group_IT_number 64
_symmetry_cell_setting 'orthorhombic'
loop_
_space_group_symop_operation_xyz
x,y,z
-x,1/2-y,1/2+z
x,-y,-z
-x,1/2+y,1/2-z
-x,-y,-z
x,1/2+y,1/2-z
-x,y,z
x,1/2-y,1/2+z
1/2+x,1/2+y,z
1/2-x,-y,1/2+z
1/2+x,1/2-y,-z
1/2-x,y,1/2-z
1/2-x,1/2-y,-z
1/2+x,y,1/2-z
1/2-x,1/2+y,z
1/2+x,-y,1/2+z
loop_
_atom_site_type_symbol
_atom_site_label
_atom_site_fract_x
_atom_site_fract_y
_atom_site_fract_z
Si Si1 0.386055 0.382536 0.791230
Si Si2 0.674298 0.780442 0.757570
Si Si3 0.568890 0.427999 0.281208
Si Si4 0.802282 0.050664 0.924279
O O1 0.363934 0.329200 0.755198
O O2 0.421605 0.402365 0.547246
O O3 0.425597 0.390816 0.048779
O O4 0.324822 0.416142 0.847816
O O5 0.660521 0.747957 0.514282
O O6 0.750000 0.790930 0.750000
O O7 0.500000 0.452027 0.270679
O O8 0.631675 0.459065 0.228139
O O9 0.750000 0.075599 0.750000
O O10 0.775947 0.000000 0.000000
#
# Coordination Sequence:
#
# PCOD9479699 Si02
#       4
#    16  16  16  16
#     4  10  23  39  66  89 129 168 209 263 325 369
#     4  10  21  35  60  94 128 161 208 264 320 385
#     4  10  23  42  65  92 126 173 219 258 312 384
#     4  10  26  39  66  98 132 166 210 267 322 382
#
# _framework density 20.356729999999999
#
# number of rings (size 3 to 8) (size 9 to 14) (size 15 to 20)
#    1.500    0.500    0.000    2.250    7.000    1.500 
#    0.000    1.250    0.000   15.000    0.000    0.000 
#    0.000    0.000    0.000    0.000    0.000    0.000 
#
# Total GULP energy -178418.249709 kJ/mol
# GULP energy per Si atom -5575.570303 kJ/mol
# Density = 2.031040 g / cm^3
# Si number density = 20.356730 Si / 1000 Ang^3
#
#
#
# Elastic Constant Matrix: (Units=GPa)
#
#
# Indices 1 2 3 4 5 6 
#
# 1 66.5560 -9.0979 23.9602 0.0000 0.0000 0.0000
# 2 -9.0979 40.0566 10.7718 0.0000 0.0000 0.0000
# 3 23.9602 10.7718 144.5348 0.0000 0.0000 0.0000
# 4 0.0000 0.0000 0.0000 18.9799 0.0000 0.0000
# 5 0.0000 0.0000 0.0000 0.0000 -8.0338 0.0000
# 6 0.0000 0.0000 0.0000 0.0000 0.0000 19.4833
#
#
#
# Elastic Compliance Matrix: (Units=1/GPa)
#
#
# Indices 1 2 3 4 5 6 
#
# 1 0.016788 0.004655 -0.003130 0.000000 0.000000 0.000000
# 2 0.004655 0.026766 -0.002766 0.000000 0.000000 0.000000
# 3 -0.003130 -0.002766 0.007644 0.000000 0.000000 0.000000
# 4 0.000000 0.000000 0.000000 0.052687 0.000000 0.000000
# 5 0.000000 0.000000 0.000000 0.000000 -0.124475 0.000000
# 6 0.000000 0.000000 0.000000 0.000000 0.000000 0.051326
#
#
# Mechanical properties :
#
#
# Convention : Reuss Voigt Hill
#
# Bulk Modulus (GPa) = 20.52788 33.60172 27.06480
# Shear Modulus (GPa) = 101.09627 21.12010 61.10819
#
# Velocity S-wave (km/s) = 7.05480 3.22452 5.48487
# Velocity P-wave (km/s) = 8.74449 5.51413 7.30999
#
# Compressibility (1/GPa) = 0.04871423
#
# Stress axis : x y z
#
# Youngs Moduli (GPa) = 59.56644 37.36113 130.82531
#
# Poissons Ratio (x) = -0.17390 0.40947
# Poissons Ratio (y) = -0.27726 0.36192
# Poissons Ratio (z) = 0.18644 0.10336
#
# Static dielectric constant tensor:
#      x y z
#    x 1.798670 0.000000 0.000000 
#    y 0.000000 1.652320 0.000000 
#    z 0.000000 0.000000 1.798300 
# 
# From -- ./inp_files/2241.got.cif
#   From: 2010.05.17/outbox.cif.g08.bks.cpg/sg64_2_cif.got.tgz:2241.got - 2010.06.03 16:29:19.
