data_PCOD9479351
_publ_section_title
;
Structure prediction by ZEFSAII (Michael W. Deem and Ramdas Pophale) SiO2 
 PCOD9479351
Probable space group: C M C A
;
_chemical_formula_sum "Si O2"
_cell_formula_units_Z 64
_cell_length_a 15.230737
_cell_length_b 9.115424
_cell_length_c 20.225610
_cell_angle_alpha 90.000000
_cell_angle_beta 90.000000
_cell_angle_gamma 90.000000
_cell_volume 2808.014992
_symmetry_space_group_name_H-M "C M C A"
_symmetry_group_IT_number 64
_symmetry_cell_setting 'orthorhombic'
loop_
_space_group_symop_operation_xyz
x,y,z
-x,1/2-y,1/2+z
x,-y,-z
-x,1/2+y,1/2-z
-x,-y,-z
x,1/2+y,1/2-z
-x,y,z
x,1/2-y,1/2+z
1/2+x,1/2+y,z
1/2-x,-y,1/2+z
1/2+x,1/2-y,-z
1/2-x,y,1/2-z
1/2-x,1/2-y,-z
1/2+x,y,1/2-z
1/2-x,1/2+y,z
1/2+x,-y,1/2+z
loop_
_atom_site_type_symbol
_atom_site_label
_atom_site_fract_x
_atom_site_fract_y
_atom_site_fract_z
Si Si1 0.332959 0.431901 0.202827
Si Si2 0.098355 0.612473 0.187806
Si Si3 0.106324 0.075380 0.070844
Si Si4 0.606906 0.584899 0.564948
O O1 0.250000 0.462010 0.250000
O O2 0.405389 0.516508 0.246107
O O3 0.346517 0.258380 0.198719
O O4 0.341618 0.495863 0.129515
O O5 0.131419 0.507745 0.129333
O O6 0.000000 0.661894 0.168999
O O7 0.133621 0.245975 0.068429
O O8 0.000000 0.067192 0.083290
O O9 0.121446 0.000000 0.000000
O O10 0.638322 0.500000 0.500000
O O11 0.500000 0.587547 0.562695
#
# Coordination Sequence:
#
# PCOD9479351 Si02
#       4
#    16  16  16  16
#     4  12  25  41  61  94 135 172 213 272 343 401
#     4  11  22  39  64  90 124 174 229 276 322 392
#     4  10  20  38  68 102 135 176 230 285 336 401
#     4   9  18  34  60  96 131 164 213 280 340 387
#
# _framework density 22.791899999999998
#
# number of rings (size 3 to 8) (size 9 to 14) (size 15 to 20)
#    0.000    1.500    0.000    6.000    0.000    6.000 
#    0.000    2.500    0.000    7.500    0.000    0.000 
#    0.000    0.000    0.000    0.000    0.000    1.000 
#
# Total GULP energy -179013.792799 kJ/mol
# GULP energy per Si atom -5594.181025 kJ/mol
# Density = 2.274002 g / cm^3
# Si number density = 22.791900 Si / 1000 Ang^3
#
#
#
# Elastic Constant Matrix: (Units=GPa)
#
#
# Indices 1 2 3 4 5 6 
#
# 1 83.6802 30.7031 39.4832 0.0000 0.0000 0.0000
# 2 30.7031 212.7458 103.5044 0.0000 0.0000 0.0000
# 3 39.4832 103.5044 211.0632 0.0000 0.0000 0.0000
# 4 0.0000 0.0000 0.0000 48.6891 0.0000 0.0000
# 5 0.0000 0.0000 0.0000 0.0000 32.6666 0.0000
# 6 0.0000 0.0000 0.0000 0.0000 0.0000 22.9994
#
#
#
# Elastic Compliance Matrix: (Units=1/GPa)
#
#
# Indices 1 2 3 4 5 6 
#
# 1 0.013245 -0.000927 -0.002023 0.000000 0.000000 0.000000
# 2 -0.000927 0.006238 -0.002886 0.000000 0.000000 0.000000
# 3 -0.002023 -0.002886 0.006532 0.000000 0.000000 0.000000
# 4 0.000000 0.000000 0.000000 0.020538 0.000000 0.000000
# 5 0.000000 0.000000 0.000000 0.000000 0.030612 0.000000
# 6 0.000000 0.000000 0.000000 0.000000 0.000000 0.043479
#
#
# Mechanical properties :
#
#
# Convention : Reuss Voigt Hill
#
# Bulk Modulus (GPa) = 69.72172 94.98562 82.35367
# Shear Modulus (GPa) = 36.47031 43.12426 39.79728
#
# Velocity S-wave (km/s) = 4.00452 4.35453 4.18319
# Velocity P-wave (km/s) = 7.21377 8.18830 7.71644
#
# Compressibility (1/GPa) = 0.01434273
#
# Stress axis : x y z
#
# Youngs Moduli (GPa) = 75.50025 160.30193 153.10410
#
# Poissons Ratio (x) = 0.14864 0.30973
# Poissons Ratio (y) = 0.07001 0.44182
# Poissons Ratio (z) = 0.15274 0.46259
#
# Static dielectric constant tensor:
#      x y z
#    x 1.930610 0.000000 0.000000 
#    y 0.000000 1.759230 0.000000 
#    z 0.000000 0.000000 1.812530 
# 
# From -- ./inp_files/39797.got.cif
#   From: 2010.05.17/outbox.cif.g08.bks.cpg/sg64_20_cif.got.tgz:39797.got - 2010.06.03 16:29:19.
