data_PCOD9479709
_publ_section_title
;
Structure prediction by ZEFSAII (Michael W. Deem and Ramdas Pophale) SiO2 
 PCOD9479709
Probable space group: C M C A
;
_chemical_formula_sum "Si O2"
_cell_formula_units_Z 64
_cell_length_a 27.573695
_cell_length_b 24.732246
_cell_length_c 5.034673
_cell_angle_alpha 90.000000
_cell_angle_beta 90.000000
_cell_angle_gamma 90.000000
_cell_volume 3433.442618
_symmetry_space_group_name_H-M "C M C A"
_symmetry_group_IT_number 64
_symmetry_cell_setting 'orthorhombic'
loop_
_space_group_symop_operation_xyz
x,y,z
-x,1/2-y,1/2+z
x,-y,-z
-x,1/2+y,1/2-z
-x,-y,-z
x,1/2+y,1/2-z
-x,y,z
x,1/2-y,1/2+z
1/2+x,1/2+y,z
1/2-x,-y,1/2+z
1/2+x,1/2-y,-z
1/2-x,y,1/2-z
1/2-x,1/2-y,-z
1/2+x,y,1/2-z
1/2-x,1/2+y,z
1/2+x,-y,1/2+z
loop_
_atom_site_type_symbol
_atom_site_label
_atom_site_fract_x
_atom_site_fract_y
_atom_site_fract_z
Si Si1 0.305703 0.960642 0.249637
Si Si2 0.444075 0.713380 0.463795
Si Si3 0.101867 0.606889 0.842764
Si Si4 0.057225 0.055647 0.145305
O O1 0.250000 0.940968 0.250000
O O2 0.344372 0.912549 0.232989
O O3 0.313183 0.000000 0.500000
O O4 0.311739 0.000000 0.000000
O O5 0.500000 0.692876 0.489734
O O6 0.438404 0.737618 0.171498
O O7 0.407258 0.666095 0.539737
O O8 0.070233 0.600227 0.575670
O O9 0.083111 0.567350 0.077506
O O10 0.000000 0.053802 0.195198
O O11 0.071836 0.000000 0.000000
#
# Coordination Sequence:
#
# PCOD9479709 Si02
#       4
#    16  16  16  16
#     4  10  21  37  57  82 110 140 178 222 268 324
#     4  10  21  36  53  75 104 140 184 228 267 312
#     4  12  21  35  57  77 106 146 184 220 269 319
#     4  11  22  33  49  79 114 143 173 211 263 331
#
# _framework density 18.640184999999999
#
# number of rings (size 3 to 8) (size 9 to 14) (size 15 to 20)
#    0.000    1.250    0.000    8.250    0.000    4.000 
#    0.000    0.000    0.000    1.500    0.000    0.000 
#    0.000    0.000    0.000    0.000    0.000    0.000 
#
# Total GULP energy -178909.987391 kJ/mol
# GULP energy per Si atom -5590.937106 kJ/mol
# Density = 1.859776 g / cm^3
# Si number density = 18.640185 Si / 1000 Ang^3
#
#
#
# Elastic Constant Matrix: (Units=GPa)
#
#
# Indices 1 2 3 4 5 6 
#
# 1 119.1811 38.9749 13.4777 0.0000 0.0000 0.0000
# 2 38.9749 64.2251 -3.3498 0.0000 0.0000 0.0000
# 3 13.4777 -3.3498 100.2119 0.0000 0.0000 0.0000
# 4 0.0000 0.0000 0.0000 23.4290 0.0000 0.0000
# 5 0.0000 0.0000 0.0000 0.0000 16.3709 0.0000
# 6 0.0000 0.0000 0.0000 0.0000 0.0000 17.0993
#
#
#
# Elastic Compliance Matrix: (Units=1/GPa)
#
#
# Indices 1 2 3 4 5 6 
#
# 1 0.010738 -0.006603 -0.001665 0.000000 0.000000 0.000000
# 2 -0.006603 0.019658 0.001545 0.000000 0.000000 0.000000
# 3 -0.001665 0.001545 0.010254 0.000000 0.000000 0.000000
# 4 0.000000 0.000000 0.000000 0.042682 0.000000 0.000000
# 5 0.000000 0.000000 0.000000 0.000000 0.061084 0.000000
# 6 0.000000 0.000000 0.000000 0.000000 0.000000 0.058482
#
#
# Mechanical properties :
#
#
# Convention : Reuss Voigt Hill
#
# Bulk Modulus (GPa) = 36.75848 42.42487 39.59167
# Shear Modulus (GPa) = 22.18145 27.01418 24.59781
#
# Velocity S-wave (km/s) = 3.45335 3.81102 3.63659
# Velocity P-wave (km/s) = 5.97191 6.49419 6.23852
#
# Compressibility (1/GPa) = 0.02720461
#
# Stress axis : x y z
#
# Youngs Moduli (GPa) = 93.12431 50.86965 97.51882
#
# Poissons Ratio (x) = 0.33591 0.16236
# Poissons Ratio (y) = 0.61494 -0.15069
# Poissons Ratio (z) = 0.15505 -0.07860
#
# Static dielectric constant tensor:
#      x y z
#    x 1.650430 0.000000 0.000000 
#    y 0.000000 1.667320 0.000000 
#    z 0.000000 0.000000 1.642020 
# 
# From -- ./inp_files/2188.got.cif
#   From: 2010.05.17/outbox.cif.g08.bks.cpg/sg64_2_cif.got.tgz:2188.got - 2010.06.03 16:29:19.
