data_PCOD9479229
_publ_section_title
;
Structure prediction by ZEFSAII (Michael W. Deem and Ramdas Pophale) SiO2 
 PCOD9479229
Probable space group: C M C A
;
_chemical_formula_sum "Si O2"
_cell_formula_units_Z 88
_cell_length_a 23.274294
_cell_length_b 18.374021
_cell_length_c 9.216637
_cell_angle_alpha 90.000000
_cell_angle_beta 90.000000
_cell_angle_gamma 90.000000
_cell_volume 3941.424460
_symmetry_space_group_name_H-M "C M C A"
_symmetry_group_IT_number 64
_symmetry_cell_setting 'orthorhombic'
loop_
_space_group_symop_operation_xyz
x,y,z
-x,1/2-y,1/2+z
x,-y,-z
-x,1/2+y,1/2-z
-x,-y,-z
x,1/2+y,1/2-z
-x,y,z
x,1/2-y,1/2+z
1/2+x,1/2+y,z
1/2-x,-y,1/2+z
1/2+x,1/2-y,-z
1/2-x,y,1/2-z
1/2-x,1/2-y,-z
1/2+x,y,1/2-z
1/2-x,1/2+y,z
1/2+x,-y,1/2+z
loop_
_atom_site_type_symbol
_atom_site_label
_atom_site_fract_x
_atom_site_fract_y
_atom_site_fract_z
Si Si1 0.624386 0.885391 0.953434
Si Si2 0.181564 0.597654 0.749139
Si Si3 0.000000 0.355462 0.987287
Si Si4 0.500000 0.709299 0.818265
Si Si5 0.375103 0.790149 0.435730
Si Si6 0.805498 0.869765 0.818031
Si Si7 0.688916 0.500000 0.000000
O O1 0.656711 0.914280 0.093410
O O2 0.557489 0.901371 0.970244
O O3 0.626914 0.796534 0.950030
O O4 0.655563 0.905216 0.805790
O O5 0.250000 0.588707 0.750000
O O6 0.163924 0.677793 0.693439
O O7 0.156321 0.544066 0.625731
O O8 0.000000 0.314217 0.147225
O O9 0.000000 0.295730 0.856253
O O10 0.559736 0.685656 0.895206
O O11 0.347256 0.822779 0.581209
O O12 0.750000 0.830758 0.750000
O O13 0.779684 0.934941 0.916342
#
# Coordination Sequence:
#
# PCOD9479229 Si02
#       7
#    16  16   8   8  16  16   8
#     4  11  22  37  63  94 127 159 204 248 306 372
#     4  11  22  38  62  88 119 162 202 256 311 358
#     4  10  22  36  62  93 125 170 207 245 288 371
#     4  10  20  38  60  89 128 172 208 236 289 370
#     4  10  22  37  60  93 132 162 193 245 310 373
#     4  11  24  40  62  93 122 162 209 253 312 366
#     4  10  24  44  60  83 116 167 218 256 300 360
#
# _framework density 22.326953
#
# number of rings (size 3 to 8) (size 9 to 14) (size 15 to 20)
#    0.000    1.455    1.818    3.818    7.636    5.091 
#    0.000    0.000    0.000   20.727    0.000    0.000 
#    0.000    0.000    0.000    0.000    0.000    0.000 
#
# Total GULP energy -245638.931777 kJ/mol
# GULP energy per Si atom -5582.702995 kJ/mol
# Density = 2.227614 g / cm^3
# Si number density = 22.326953 Si / 1000 Ang^3
#
#
#
# Elastic Constant Matrix: (Units=GPa)
#
#
# Indices 1 2 3 4 5 6 
#
# 1 140.4957 12.1745 52.5430 0.0000 0.0000 0.0000
# 2 12.1745 53.1932 11.9706 0.0000 0.0000 0.0000
# 3 52.5430 11.9706 134.1723 0.0000 0.0000 0.0000
# 4 0.0000 0.0000 0.0000 42.7888 0.0000 0.0000
# 5 0.0000 0.0000 0.0000 0.0000 30.6773 0.0000
# 6 0.0000 0.0000 0.0000 0.0000 0.0000 -3.9601
#
#
#
# Elastic Compliance Matrix: (Units=1/GPa)
#
#
# Indices 1 2 3 4 5 6 
#
# 1 0.008414 -0.001209 -0.003187 0.000000 0.000000 0.000000
# 2 -0.001209 0.019358 -0.001254 0.000000 0.000000 0.000000
# 3 -0.003187 -0.001254 0.008813 0.000000 0.000000 0.000000
# 4 0.000000 0.000000 0.000000 0.023371 0.000000 0.000000
# 5 0.000000 0.000000 0.000000 0.000000 0.032597 0.000000
# 6 0.000000 0.000000 0.000000 0.000000 0.000000 -0.252518
#
#
# Mechanical properties :
#
#
# Convention : Reuss Voigt Hill
#
# Bulk Modulus (GPa) = 39.54710 53.47082 46.50896
# Shear Modulus (GPa) = -35.65404 30.64607 -2.50398
#
# Velocity S-wave (km/s) = -4.00047 3.70889 -1.06016
# Velocity P-wave (km/s) = 1.89397 6.50708 4.40199
#
# Compressibility (1/GPa) = 0.02528631
#
# Stress axis : x y z
#
# Youngs Moduli (GPa) = 118.84419 51.65782 113.46690
#
# Poissons Ratio (x) = 0.06243 0.36165
# Poissons Ratio (y) = 0.14363 0.14227
# Poissons Ratio (z) = 0.37879 0.06477
#
# Static dielectric constant tensor:
#      x y z
#    x 1.815460 0.000000 0.000000 
#    y 0.000000 1.874820 0.000000 
#    z 0.000000 0.000000 1.845610 
# 
# From -- ./inp_files/8276.got.cif
#   From: 2010.05.17/outbox.cif.g08.bks.cpg/sg64_5_cif.got.tgz:8276.got - 2010.06.03 16:29:19.
